
     RDKit          3D

 53 56  0  0  0  0  0  0  0  0999 V2000
   12.8397    1.9438   23.6007 O   0  0  0  0  0  0  0  0  0  0  0  0
   12.0448    2.8445   23.5362 C   0  0  0  0  0  0  0  0  0  0  0  0
   12.0675    3.9450   24.3555 O   0  0  0  0  0  0  0  0  0  0  0  0
   10.9828    4.7203   24.0514 C   0  0  0  0  0  0  0  0  0  0  0  0
   10.6183    5.9200   24.6308 C   0  0  0  0  0  0  0  0  0  0  0  0
    9.4171    6.4963   24.1906 C   0  0  0  0  0  0  0  0  0  0  0  0
    8.6327    5.8768   23.2052 C   0  0  0  0  0  0  0  0  0  0  0  0
    9.0459    4.6723   22.6089 C   0  0  0  0  0  0  0  0  0  0  0  0
   10.2464    4.1129   23.0330 C   0  0  0  0  0  0  0  0  0  0  0  0
   10.9683    2.9695   22.6731 N   0  0  0  0  0  0  0  0  0  0  0  0
   10.8474    2.1651   21.4605 C   0  0  0  0  0  0  0  0  0  0  0  0
    9.9609    0.9341   21.6311 C   0  0  0  0  0  0  0  0  0  0  0  0
    8.4948    1.2739   21.8945 C   0  0  0  0  0  0  0  0  0  0  0  0
    7.6920    0.0458   22.1292 N   0  0  0  0  0  4  0  0  0  0  0  0
    7.3427   -0.8445   20.9270 C   0  0  0  0  0  0  0  0  0  0  0  0
    6.4952   -2.0041   21.4416 C   0  0  0  0  0  0  0  0  0  0  0  0
    7.1878   -2.9647   22.4118 C   0  0  0  0  0  0  0  0  0  0  0  0
    8.3947   -3.7302   21.8580 C   0  0  0  0  0  0  0  0  0  0  0  0
    8.4566   -4.9812   22.7553 C   0  0  0  0  0  0  0  0  0  0  0  0
    7.1791   -5.1144   23.3673 O   0  0  0  0  0  0  0  0  0  0  0  0
    6.2991   -4.1162   22.8863 C   0  0  0  0  0  0  0  0  0  0  0  0
    5.6307   -3.8260   23.7040 H   0  0  0  0  0  0  0  0  0  0  0  0
    5.6810   -4.5048   22.0581 H   0  0  0  0  0  0  0  0  0  0  0  0
    8.6802   -5.8970   22.1906 H   0  0  0  0  0  0  0  0  0  0  0  0
    9.2100   -4.8834   23.5479 H   0  0  0  0  0  0  0  0  0  0  0  0
    9.3175   -3.1383   21.8872 H   0  0  0  0  0  0  0  0  0  0  0  0
    8.2253   -4.0304   20.8177 H   0  0  0  0  0  0  0  0  0  0  0  0
    7.5110   -2.4366   23.3223 H   0  0  0  0  0  0  0  0  0  0  0  0
    5.6122   -1.5779   21.9189 H   0  0  0  0  0  0  0  0  0  0  0  0
    6.1151   -2.5700   20.5827 H   0  0  0  0  0  0  0  0  0  0  0  0
    6.6342   -0.0288   19.8685 C   0  0  0  0  0  0  0  0  0  0  0  0
    5.4191    0.6438   20.0778 C   0  0  0  0  0  0  0  0  0  0  0  0
    4.8518    1.3492   19.0128 C   0  0  0  0  0  0  0  0  0  0  0  0
    5.5047    1.3572   17.7763 C   0  0  0  0  0  0  0  0  0  0  0  0
    6.6680    0.7278   17.5599 N   0  0  0  0  0  0  0  0  0  0  0  0
    7.2062    0.0690   18.5930 C   0  0  0  0  0  0  0  0  0  0  0  0
    8.1609   -0.4179   18.3920 H   0  0  0  0  0  0  0  0  0  0  0  0
    5.0793    1.8953   16.9285 H   0  0  0  0  0  0  0  0  0  0  0  0
    3.9243    1.8992   19.1284 H   0  0  0  0  0  0  0  0  0  0  0  0
    4.9090    0.6283   21.0449 H   0  0  0  0  0  0  0  0  0  0  0  0
    8.2699   -1.2367   20.5004 H   0  0  0  0  0  0  0  0  0  0  0  0
    6.7523    0.3058   22.5055 H   0  0  0  0  0  0  0  0  0  0  0  0
    8.1796   -0.5207   22.8542 H   0  0  0  0  0  0  0  0  0  0  0  0
    8.0802    1.8136   21.0312 H   0  0  0  0  0  0  0  0  0  0  0  0
    8.4158    1.9336   22.7656 H   0  0  0  0  0  0  0  0  0  0  0  0
   10.3784    0.3220   22.4396 H   0  0  0  0  0  0  0  0  0  0  0  0
   10.0120    0.3325   20.7177 H   0  0  0  0  0  0  0  0  0  0  0  0
   10.4641    2.8050   20.6613 H   0  0  0  0  0  0  0  0  0  0  0  0
   11.8588    1.8631   21.1666 H   0  0  0  0  0  0  0  0  0  0  0  0
    8.4770    4.2108   21.8099 H   0  0  0  0  0  0  0  0  0  0  0  0
    7.7039    6.3466   22.8911 H   0  0  0  0  0  0  0  0  0  0  0  0
    9.0940    7.4373   24.6240 H   0  0  0  0  0  0  0  0  0  0  0  0
   11.2606    6.3903   25.3655 H   0  0  0  0  0  0  0  0  0  0  0  0
  1  2  2  0
  2  3  1  0
  3  4  1  0
  4  5  2  0
  5  6  1  0
  6  7  2  0
  7  8  1  0
  8  9  2  0
  9 10  1  0
 10 11  1  0
 11 12  1  0
 12 13  1  0
 13 14  1  0
 14 15  1  0
 15 16  1  0
 16 17  1  0
 17 18  1  0
 18 19  1  0
 19 20  1  0
 20 21  1  0
 21 22  1  0
 21 23  1  0
 19 24  1  0
 19 25  1  0
 18 26  1  0
 18 27  1  0
 17 28  1  0
 16 29  1  0
 16 30  1  0
 15 31  1  0
 31 32  2  0
 32 33  1  0
 33 34  2  0
 34 35  1  0
 35 36  2  0
 36 37  1  0
 34 38  1  0
 33 39  1  0
 32 40  1  0
 15 41  1  0
 14 42  1  0
 14 43  1  0
 13 44  1  0
 13 45  1  0
 12 46  1  0
 12 47  1  0
 11 48  1  0
 11 49  1  0
  8 50  1  0
  7 51  1  0
  6 52  1  0
  5 53  1  0
 10  2  1  0
 21 17  1  0
 36 31  1  0
  9  4  1  0
M  CHG  1  14   1
M  END
>  <plip>  (1) 
-0.14285714285714285

>  <filename>  (1) 
[H][c]1[n][c]([H])[c]([C]([H])([C]([H])([H])[C]2([H])[C]([H])([H])[O][C]([H])([H])[C]2([H])[H])[N+]([H])([H])[C]([H])([H])[C]([H])([H])[C]([H])([H])[n]2[c](=[O])[o][c]3[c]([H])[c]([H])[c]([H])[c]([H])[c]32)[c]([H])[c]1[H]

$$$$
