
     RDKit          3D

 39 39  0  0  0  0  0  0  0  0999 V2000
   12.2886   -0.2105   23.0484 C   0  0  0  0  0  0  0  0  0  0  0  0
   11.2331   -0.1427   24.1472 C   0  0  0  0  0  0  0  0  0  0  0  0
   10.0064    0.5286   23.5819 N   0  0  0  0  0  4  0  0  0  0  0  0
    9.1427   -0.4346   22.8218 C   0  0  0  0  0  0  0  0  0  0  0  0
    8.3715    0.2689   21.7084 C   0  0  0  0  0  0  0  0  0  0  0  0
    7.4068   -0.6883   20.9898 C   0  0  0  0  0  0  0  0  0  0  0  0
    6.6333   -0.0179   19.8735 C   0  0  0  0  0  0  0  0  0  0  0  0
    5.4194    0.6455   20.1112 C   0  0  0  0  0  0  0  0  0  0  0  0
    4.7821    1.3198   19.0657 C   0  0  0  0  0  0  0  0  0  0  0  0
    5.3850    1.3157   17.8055 C   0  0  0  0  0  0  0  0  0  0  0  0
    6.5443    0.6897   17.5508 N   0  0  0  0  0  0  0  0  0  0  0  0
    7.1445    0.0504   18.5647 C   0  0  0  0  0  0  0  0  0  0  0  0
    8.0928   -0.4253   18.3096 H   0  0  0  0  0  0  0  0  0  0  0  0
    4.9301    1.8395   16.9667 H   0  0  0  0  0  0  0  0  0  0  0  0
    3.8527    1.8628   19.2124 H   0  0  0  0  0  0  0  0  0  0  0  0
    4.9810    0.6485   21.1112 H   0  0  0  0  0  0  0  0  0  0  0  0
    6.7086   -1.1089   21.7295 H   0  0  0  0  0  0  0  0  0  0  0  0
    7.9737   -1.5418   20.5914 H   0  0  0  0  0  0  0  0  0  0  0  0
    9.0813    0.7058   20.9902 H   0  0  0  0  0  0  0  0  0  0  0  0
    7.8047    1.1112   22.1310 H   0  0  0  0  0  0  0  0  0  0  0  0
    8.4447   -0.9180   23.5265 H   0  0  0  0  0  0  0  0  0  0  0  0
    9.7683   -1.2368   22.4114 H   0  0  0  0  0  0  0  0  0  0  0  0
    9.1992    1.2663   24.6074 C   0  0  0  0  0  0  0  0  0  0  0  0
    9.8401    2.6163   24.8925 C   0  0  0  0  0  0  0  0  0  0  0  0
    8.9522    3.5509   26.1627 S   0  0  0  0  0  0  0  0  0  0  0  0
    7.6943    4.3272   25.1276 C   0  0  0  0  0  0  0  0  0  0  0  0
    7.0177    4.8696   25.7922 H   0  0  0  0  0  0  0  0  0  0  0  0
    8.1445    5.0360   24.4258 H   0  0  0  0  0  0  0  0  0  0  0  0
    7.1104    3.5895   24.5697 H   0  0  0  0  0  0  0  0  0  0  0  0
   10.8693    2.4329   25.2206 H   0  0  0  0  0  0  0  0  0  0  0  0
    9.8922    3.2228   23.9798 H   0  0  0  0  0  0  0  0  0  0  0  0
    8.1710    1.3982   24.2520 H   0  0  0  0  0  0  0  0  0  0  0  0
    9.1231    0.6794   25.5350 H   0  0  0  0  0  0  0  0  0  0  0  0
   10.3619    1.2265   22.8922 H   0  0  0  0  0  0  0  0  0  0  0  0
   11.5884    0.4049   25.0293 H   0  0  0  0  0  0  0  0  0  0  0  0
   10.9570   -1.1447   24.5070 H   0  0  0  0  0  0  0  0  0  0  0  0
   11.9836   -0.8979   22.2576 H   0  0  0  0  0  0  0  0  0  0  0  0
   13.2745   -0.5390   23.3869 H   0  0  0  0  0  0  0  0  0  0  0  0
   12.4021    0.7705   22.5748 H   0  0  0  0  0  0  0  0  0  0  0  0
  1  2  1  0
  2  3  1  0
  3  4  1  0
  4  5  1  0
  5  6  1  0
  6  7  1  0
  7  8  2  0
  8  9  1  0
  9 10  2  0
 10 11  1  0
 11 12  2  0
 12 13  1  0
 10 14  1  0
  9 15  1  0
  8 16  1  0
  6 17  1  0
  6 18  1  0
  5 19  1  0
  5 20  1  0
  4 21  1  0
  4 22  1  0
  3 23  1  0
 23 24  1  0
 24 25  1  0
 25 26  1  0
 26 27  1  0
 26 28  1  0
 26 29  1  0
 24 30  1  0
 24 31  1  0
 23 32  1  0
 23 33  1  0
  3 34  1  0
  2 35  1  0
  2 36  1  0
  1 37  1  0
  1 38  1  0
  1 39  1  0
 12  7  1  0
M  CHG  1   3   1
M  END
>  <plip>  (1) 
-0.0

>  <filename>  (1) 
[H][c]1[n][c]([H])[c]([C]([H])([H])[C]([H])([H])[C]([H])([H])[N+]([H])([C]([H])([H])[C]([H])([H])[H])[C]([H])([H])[C]([H])([H])[S][C]([H])([H])[H])[c]([H])[c]1[H]

$$$$
