
     RDKit          3D

 38 41  0  0  0  0  0  0  0  0999 V2000
    7.7860    1.2380   23.0346 O   0  0  0  0  0  0  0  0  0  0  0  0
    8.2046    0.7836   21.9854 C   0  0  0  0  0  0  0  0  0  0  0  0
    9.3907    1.1821   21.4352 N   0  0  0  0  0  0  0  0  0  0  0  0
   10.1490    2.2631   21.8489 C   0  0  0  0  0  0  0  0  0  0  0  0
    9.9135    3.1175   22.8945 C   0  0  0  0  0  0  0  0  0  0  0  0
   10.9513    4.0183   22.8446 N   0  0  0  0  0  0  0  0  0  0  0  0
   11.2199    5.1411   23.6065 C   0  0  0  0  0  0  0  0  0  0  0  0
   12.2788    5.9361   23.2758 C   0  0  0  0  0  0  0  0  0  0  0  0
   13.0978    5.6111   22.1353 C   0  0  0  0  0  0  0  0  0  0  0  0
   12.8397    4.4865   21.3979 C   0  0  0  0  0  0  0  0  0  0  0  0
   11.7470    3.6470   21.7559 C   0  0  0  0  0  0  0  0  0  0  0  0
   11.2652    2.5616   21.1535 N   0  0  0  0  0  0  0  0  0  0  0  0
   13.3904    4.2090   20.5058 H   0  0  0  0  0  0  0  0  0  0  0  0
   13.9120    6.2844   21.8674 H   0  0  0  0  0  0  0  0  0  0  0  0
   12.4983    6.8149   23.8735 H   0  0  0  0  0  0  0  0  0  0  0  0
   10.5367    5.2972   24.4335 H   0  0  0  0  0  0  0  0  0  0  0  0
    9.1133    3.1512   23.6079 H   0  0  0  0  0  0  0  0  0  0  0  0
    9.7507    0.6887   20.6405 H   0  0  0  0  0  0  0  0  0  0  0  0
    7.4692   -0.2909   21.1427 C   0  0  0  0  0  0  0  0  0  0  0  0
    6.7371    0.3451   19.9413 C   0  0  0  0  0  0  0  0  0  0  0  0
    5.5352    1.0386   20.1508 C   0  0  0  0  0  0  0  0  0  0  0  0
    4.8484    1.5662   19.0536 C   0  0  0  0  0  0  0  0  0  0  0  0
    5.3964    1.4129   17.7757 C   0  0  0  0  0  0  0  0  0  0  0  0
    6.5639    0.7933   17.5438 N   0  0  0  0  0  0  0  0  0  0  0  0
    7.2093    0.2949   18.6078 C   0  0  0  0  0  0  0  0  0  0  0  0
    8.1745   -0.1623   18.3871 H   0  0  0  0  0  0  0  0  0  0  0  0
    4.8778    1.8050   16.9028 H   0  0  0  0  0  0  0  0  0  0  0  0
    3.9172    2.1109   19.1788 H   0  0  0  0  0  0  0  0  0  0  0  0
    5.1413    1.1702   21.1618 H   0  0  0  0  0  0  0  0  0  0  0  0
    6.5893   -1.2236   22.0426 C   0  0  0  0  0  0  0  0  0  0  0  0
    7.5842   -2.3850   21.8530 C   0  0  0  0  0  0  0  0  0  0  0  0
    8.3312   -1.5500   20.7958 C   0  0  0  0  0  0  0  0  0  0  0  0
    8.0801   -1.8593   19.7925 H   0  0  0  0  0  0  0  0  0  0  0  0
    9.4209   -1.5054   20.8997 H   0  0  0  0  0  0  0  0  0  0  0  0
    8.1813   -2.5893   22.7454 H   0  0  0  0  0  0  0  0  0  0  0  0
    7.1419   -3.3263   21.5058 H   0  0  0  0  0  0  0  0  0  0  0  0
    6.4578   -0.8636   23.0681 H   0  0  0  0  0  0  0  0  0  0  0  0
    5.6153   -1.4232   21.5887 H   0  0  0  0  0  0  0  0  0  0  0  0
  1  2  2  0
  2  3  1  0
  3  4  1  0
  4  5  2  0
  5  6  1  0
  6  7  1  0
  7  8  2  0
  8  9  1  0
  9 10  2  0
 10 11  1  0
 11 12  2  0
 10 13  1  0
  9 14  1  0
  8 15  1  0
  7 16  1  0
  5 17  1  0
  3 18  1  0
  2 19  1  0
 19 20  1  0
 20 21  2  0
 21 22  1  0
 22 23  2  0
 23 24  1  0
 24 25  2  0
 25 26  1  0
 23 27  1  0
 22 28  1  0
 21 29  1  0
 19 30  1  0
 30 31  1  0
 31 32  1  0
 32 33  1  0
 32 34  1  0
 31 35  1  0
 31 36  1  0
 30 37  1  0
 30 38  1  0
 12  4  1  0
 32 19  1  0
 11  6  1  0
 25 20  1  0
M  END
>  <plip>  (1) 
-0.10344827586206896

>  <filename>  (1) 
[H][c]1[n][c]([H])[c]([C]2([C](=[O])[N]([H])[c]3[n][c]4[c]([H])[c]([H])[c]([H])[c]([H])[n]4[c]3[H])[C]([H])([H])[C]([H])([H])[C]2([H])[H])[c]([H])[c]1[H]

$$$$
