
     RDKit          3D

 21 22  0  0  0  0  0  0  0  0999 V2000
    9.1767   -3.0394   21.9566 H   0  0  0  0  0  0  0  0  0  0  0  0
    8.5898   -2.1331   21.9235 C   0  0  0  0  0  0  0  0  0  0  0  0
    8.2970   -1.3388   22.8920 N   0  0  0  0  0  0  0  0  0  0  0  0
    7.4855   -0.3876   22.2961 C   0  0  0  0  0  0  0  0  0  0  0  0
    6.9613    1.0290   23.1652 S   0  0  0  0  0  0  0  0  0  0  0  0
    8.4120    2.0847   22.7503 C   0  0  0  0  0  0  0  0  0  0  0  0
    9.5386    1.5839   23.2367 F   0  0  0  0  0  0  0  0  0  0  0  0
    8.5411    2.2131   21.4248 F   0  0  0  0  0  0  0  0  0  0  0  0
    8.2059    3.2860   23.2867 F   0  0  0  0  0  0  0  0  0  0  0  0
    7.3448   -0.6782   20.9657 C   0  0  0  0  0  0  0  0  0  0  0  0
    6.6436   -0.0102   19.8839 C   0  0  0  0  0  0  0  0  0  0  0  0
    7.1709    0.0420   18.5767 C   0  0  0  0  0  0  0  0  0  0  0  0
    8.1243   -0.4269   18.3498 H   0  0  0  0  0  0  0  0  0  0  0  0
    6.5664    0.6746   17.5652 N   0  0  0  0  0  0  0  0  0  0  0  0
    5.4059    1.2909   17.8339 C   0  0  0  0  0  0  0  0  0  0  0  0
    4.9285    1.7873   16.9925 H   0  0  0  0  0  0  0  0  0  0  0  0
    4.8061    1.3083   19.0994 C   0  0  0  0  0  0  0  0  0  0  0  0
    3.8785    1.8408   19.2522 H   0  0  0  0  0  0  0  0  0  0  0  0
    5.4378    0.6462   20.1490 C   0  0  0  0  0  0  0  0  0  0  0  0
    5.0135    0.6325   21.1580 H   0  0  0  0  0  0  0  0  0  0  0  0
    8.0779   -1.8024   20.7215 O   0  0  0  0  0  0  0  0  0  0  0  0
  1  2  1  0
  2  3  2  0
  3  4  1  0
  4  5  1  0
  5  6  1  0
  6  7  1  0
  6  8  1  0
  6  9  1  0
  4 10  2  0
 10 11  1  0
 11 12  2  0
 12 13  1  0
 12 14  1  0
 14 15  2  0
 15 16  1  0
 15 17  1  0
 17 18  1  0
 17 19  2  0
 19 20  1  0
 10 21  1  0
 21  2  1  0
 19 11  1  0
M  END
>  <plip>  (1) 
-0.034482758620689655

>  <filename>  (1) 
[H][c]1[n][c]([S][C]([F])([F])[F])[c](-[c]2[c]([H])[n][c]([H])[c]([H])[c]2[H])[o]1

$$$$
