
     RDKit          3D

 27 28  0  0  0  0  0  0  0  0999 V2000
    6.3292   -4.7972   20.4261 H   0  0  0  0  0  0  0  0  0  0  0  0
    6.4175   -4.2649   21.2360 O   0  0  0  0  0  0  0  0  0  0  0  0
    7.6119   -4.7489   21.6027 C   0  0  0  0  0  0  0  0  0  0  0  0
    8.0777   -5.6528   20.9484 O   0  0  0  0  0  0  0  0  0  0  0  0
    8.2240   -4.0900   22.8176 C   0  0  0  0  0  0  0  0  0  0  0  0
    7.4121   -3.8744   23.5167 H   0  0  0  0  0  0  0  0  0  0  0  0
    8.8537   -4.8509   23.2827 H   0  0  0  0  0  0  0  0  0  0  0  0
    9.0617   -2.7994   22.5308 C   0  0  0  0  0  0  0  0  0  0  0  0
    9.6571   -2.9526   21.6260 H   0  0  0  0  0  0  0  0  0  0  0  0
    9.7869   -2.6430   23.3363 H   0  0  0  0  0  0  0  0  0  0  0  0
    8.2430   -1.5489   22.3165 C   0  0  0  0  0  0  0  0  0  0  0  0
    7.9014   -1.2269   21.0800 N   0  0  0  0  0  0  0  0  0  0  0  0
    7.0489   -0.1912   21.1782 N   0  0  0  0  0  0  0  0  0  0  0  0
    6.4326    0.3137   20.0034 C   0  0  0  0  0  0  0  0  0  0  0  0
    7.1059    0.1719   18.7767 C   0  0  0  0  0  0  0  0  0  0  0  0
    8.0417   -0.3805   18.7448 H   0  0  0  0  0  0  0  0  0  0  0  0
    6.6469    0.6616   17.6219 N   0  0  0  0  0  0  0  0  0  0  0  0
    5.4642    1.2993   17.6409 C   0  0  0  0  0  0  0  0  0  0  0  0
    5.1333    1.7151   16.6919 H   0  0  0  0  0  0  0  0  0  0  0  0
    4.6887    1.4317   18.7977 C   0  0  0  0  0  0  0  0  0  0  0  0
    3.7323    1.9402   18.7410 H   0  0  0  0  0  0  0  0  0  0  0  0
    5.1712    0.9267   20.0095 C   0  0  0  0  0  0  0  0  0  0  0  0
    4.5669    0.9810   20.9166 H   0  0  0  0  0  0  0  0  0  0  0  0
    6.8829    0.1970   22.4745 C   0  0  0  0  0  0  0  0  0  0  0  0
    6.2539    1.0474   22.7182 H   0  0  0  0  0  0  0  0  0  0  0  0
    7.6335   -0.6644   23.2446 C   0  0  0  0  0  0  0  0  0  0  0  0
    7.7391   -0.6835   24.3236 H   0  0  0  0  0  0  0  0  0  0  0  0
  1  2  1  0
  2  3  1  0
  3  4  2  0
  3  5  1  0
  5  6  1  0
  5  7  1  0
  5  8  1  0
  8  9  1  0
  8 10  1  0
  8 11  1  0
 11 12  2  0
 12 13  1  0
 13 14  1  0
 14 15  2  0
 15 16  1  0
 15 17  1  0
 17 18  2  0
 18 19  1  0
 18 20  1  0
 20 21  1  0
 20 22  2  0
 22 23  1  0
 13 24  1  0
 24 25  1  0
 24 26  2  0
 26 27  1  0
 26 11  1  0
 22 14  1  0
M  END
>  <plip>  (1) 
-0.07142857142857142

>  <filename>  (1) 
[H][O][C](=[O])[C]([H])([H])[C]([H])([H])[c]1[n][n](-[c]2[c]([H])[n][c]([H])[c]([H])[c]2[H])[c]([H])[c]1[H]

$$$$
