
     RDKit          3D

 22 23  0  0  0  0  0  0  0  0999 V2000
    7.6242   -2.4226   19.8432 H   0  0  0  0  0  0  0  0  0  0  0  0
    6.7338   -2.4205   20.3668 N   0  0  0  0  0  0  0  0  0  0  0  0
    7.3765   -1.0974   21.2129 S   0  0  1  0  0  6  0  0  0  0  0  0
    8.7904   -1.1776   20.8093 O   0  0  0  0  0  0  0  0  0  0  0  0
    6.5847   -0.0191   20.0458 C   0  0  0  0  0  0  0  0  0  0  0  0
    7.1711   -0.0460   18.7823 C   0  0  0  0  0  0  0  0  0  0  0  0
    8.1121   -0.5581   18.5615 H   0  0  0  0  0  0  0  0  0  0  0  0
    6.6200    0.5632   17.7378 N   0  0  0  0  0  0  0  0  0  0  0  0
    5.4599    1.2153   17.9147 C   0  0  0  0  0  0  0  0  0  0  0  0
    5.0414    1.7063   17.0373 H   0  0  0  0  0  0  0  0  0  0  0  0
    4.8222    1.2897   19.1542 C   0  0  0  0  0  0  0  0  0  0  0  0
    3.8996    1.8496   19.2387 H   0  0  0  0  0  0  0  0  0  0  0  0
    5.3896    0.6661   20.2621 C   0  0  0  0  0  0  0  0  0  0  0  0
    4.8827    0.7319   21.2280 H   0  0  0  0  0  0  0  0  0  0  0  0
    7.1699   -0.0189   22.7318 N   0  0  0  0  0  0  0  0  0  0  0  0
    6.5038   -0.4704   23.8462 N   0  0  0  0  0  0  0  0  0  0  0  0
    6.5821    0.5142   24.7195 C   0  0  0  0  0  0  0  0  0  0  0  0
    6.1399    0.3676   25.6943 H   0  0  0  0  0  0  0  0  0  0  0  0
    7.3013    1.6169   24.2074 C   0  0  0  0  0  0  0  0  0  0  0  0
    7.5050    2.5518   24.7057 H   0  0  0  0  0  0  0  0  0  0  0  0
    7.6794    1.2452   22.9459 C   0  0  0  0  0  0  0  0  0  0  0  0
    8.2607    1.7953   22.2147 H   0  0  0  0  0  0  0  0  0  0  0  0
  1  2  1  0
  2  3  2  0
  3  4  2  0
  3  5  1  0
  5  6  2  0
  6  7  1  0
  6  8  1  0
  8  9  2  0
  9 10  1  0
  9 11  1  0
 11 12  1  0
 11 13  2  0
 13 14  1  0
  3 15  1  1
 15 16  1  0
 16 17  2  0
 17 18  1  0
 17 19  1  0
 19 20  1  0
 19 21  2  0
 21 22  1  0
 13  5  1  0
 21 15  1  0
M  END
>  <plip>  (1) 
-0.0

>  <filename>  (1) 
[H][N]=[S@@](=[O])([c]1[c]([H])[n][c]([H])[c]([H])[c]1[H])[n]1[n][c]([H])[c]([H])[c]1[H]

$$$$
