
     RDKit          3D

 26 26  0  0  0  0  0  0  0  0999 V2000
    5.0505    1.9122   16.9904 H   0  0  0  0  0  0  0  0  0  0  0  0
    5.4655    1.3323   17.8113 C   0  0  0  0  0  0  0  0  0  0  0  0
    6.5956    0.6503   17.5503 N   0  0  0  0  0  0  0  0  0  0  0  0
    7.1540   -0.0550   18.5512 C   0  0  0  0  0  0  0  0  0  0  0  0
    8.0602   -0.6084   18.2955 H   0  0  0  0  0  0  0  0  0  0  0  0
    6.6212   -0.1252   19.8707 C   0  0  0  0  0  0  0  0  0  0  0  0
    7.1387   -0.8588   20.9620 N   0  0  0  0  0  0  0  0  0  0  0  0
    6.5604   -0.8046   21.7938 H   0  0  0  0  0  0  0  0  0  0  0  0
    8.7459   -1.3262   21.2657 S   0  0  0  0  0  0  0  0  0  0  0  0
    9.5472    0.1908   21.8855 C   0  0  0  0  0  0  0  0  0  0  0  0
    9.8670    0.4377   23.0963 N   0  0  0  0  0  0  0  0  0  0  0  0
    9.6376   -0.4658   24.1019 N   0  0  0  0  0  0  0  0  0  0  0  0
    9.1913   -1.3660   23.9688 H   0  0  0  0  0  0  0  0  0  0  0  0
    9.6614   -0.1606   25.4308 C   0  0  0  0  0  0  0  0  0  0  0  0
    9.0959   -1.2654   26.5347 S   0  0  0  0  0  0  0  0  0  0  0  0
   10.1543    1.0164   25.8004 N   0  0  0  0  0  0  0  0  0  0  0  0
   10.3991    1.7057   25.1127 H   0  0  0  0  0  0  0  0  0  0  0  0
   10.1201    1.1885   26.7920 H   0  0  0  0  0  0  0  0  0  0  0  0
    9.8552    1.2276   20.8359 C   0  0  0  0  0  0  0  0  0  0  0  0
   10.9325    1.4049   20.7773 H   0  0  0  0  0  0  0  0  0  0  0  0
    9.5108    0.8737   19.8675 H   0  0  0  0  0  0  0  0  0  0  0  0
    9.3624    2.1790   21.0612 H   0  0  0  0  0  0  0  0  0  0  0  0
    5.4185    0.5638   20.0928 C   0  0  0  0  0  0  0  0  0  0  0  0
    4.9741    0.5101   21.0866 H   0  0  0  0  0  0  0  0  0  0  0  0
    4.8404    1.3055   19.0632 C   0  0  0  0  0  0  0  0  0  0  0  0
    3.9284    1.8720   19.2264 H   0  0  0  0  0  0  0  0  0  0  0  0
  1  2  1  0
  2  3  2  0
  3  4  1  0
  4  5  1  0
  4  6  2  0
  6  7  1  0
  7  8  1  0
  7  9  1  0
  9 10  1  0
 10 11  2  3
 11 12  1  0
 12 13  1  0
 12 14  1  0
 14 15  2  0
 14 16  1  0
 16 17  1  0
 16 18  1  0
 10 19  1  0
 19 20  1  0
 19 21  1  0
 19 22  1  0
  6 23  1  0
 23 24  1  0
 23 25  2  0
 25 26  1  0
 25  2  1  0
M  END
>  <plip>  (1) 
-0.14285714285714285

>  <filename>  (1) 
[H][c]1[n][c]([H])[c]([N]([H])[S][C](=[N][N]([H])[C](=[S])[N]([H])[H])[C]([H])([H])[H])[c]([H])[c]1[H]

$$$$
