
     RDKit          3D

 28 28  0  0  0  0  0  0  0  0999 V2000
    4.9209    1.7810   17.0043 H   0  0  0  0  0  0  0  0  0  0  0  0
    5.4070    1.2868   17.8463 C   0  0  0  0  0  0  0  0  0  0  0  0
    6.5706    0.6689   17.5836 N   0  0  0  0  0  0  0  0  0  0  0  0
    7.1888    0.0528   18.5963 C   0  0  0  0  0  0  0  0  0  0  0  0
    8.1326   -0.4297   18.3657 H   0  0  0  0  0  0  0  0  0  0  0  0
    6.6947   -0.0075   19.9152 C   0  0  0  0  0  0  0  0  0  0  0  0
    7.3243   -0.6847   21.0110 N   0  0  0  0  0  0  0  0  0  0  0  0
    8.4051   -1.2448   20.7345 N   0  0  0  0  0  0  0  0  0  0  0  0
    9.0159   -1.9258   21.8815 C   0  0  0  0  0  0  0  0  0  0  0  0
   10.0147   -2.2128   21.5483 H   0  0  0  0  0  0  0  0  0  0  0  0
    9.1463   -1.2253   22.7111 H   0  0  0  0  0  0  0  0  0  0  0  0
    8.2518   -3.1747   22.3121 C   0  0  0  0  0  0  0  0  0  0  0  0
    8.0558   -3.7611   21.4080 H   0  0  0  0  0  0  0  0  0  0  0  0
    7.2741   -2.8604   22.6884 H   0  0  0  0  0  0  0  0  0  0  0  0
    8.9521   -4.0452   23.3652 C   0  0  0  0  0  0  0  0  0  0  0  0
    9.9660   -4.2417   23.0181 H   0  0  0  0  0  0  0  0  0  0  0  0
    9.1154   -3.3460   24.7144 C   0  0  0  0  0  0  0  0  0  0  0  0
    8.1434   -3.0281   25.1024 H   0  0  0  0  0  0  0  0  0  0  0  0
    9.7570   -2.4620   24.6403 H   0  0  0  0  0  0  0  0  0  0  0  0
    9.5674   -4.0162   25.4552 H   0  0  0  0  0  0  0  0  0  0  0  0
    8.2322   -5.3881   23.5277 C   0  0  0  0  0  0  0  0  0  0  0  0
    8.7464   -6.0395   24.2447 H   0  0  0  0  0  0  0  0  0  0  0  0
    8.1558   -5.9347   22.5806 H   0  0  0  0  0  0  0  0  0  0  0  0
    7.2129   -5.2335   23.9006 H   0  0  0  0  0  0  0  0  0  0  0  0
    5.4721    0.6314   20.1750 C   0  0  0  0  0  0  0  0  0  0  0  0
    5.0500    0.6061   21.1794 H   0  0  0  0  0  0  0  0  0  0  0  0
    4.8282    1.2920   19.1219 C   0  0  0  0  0  0  0  0  0  0  0  0
    3.8952    1.8252   19.2697 H   0  0  0  0  0  0  0  0  0  0  0  0
  1  2  1  0
  2  3  2  0
  3  4  1  0
  4  5  1  0
  4  6  2  0
  6  7  1  0
  7  8  2  3
  8  9  1  0
  9 10  1  0
  9 11  1  0
  9 12  1  0
 12 13  1  0
 12 14  1  0
 12 15  1  0
 15 16  1  0
 15 17  1  0
 17 18  1  0
 17 19  1  0
 17 20  1  0
 15 21  1  0
 21 22  1  0
 21 23  1  0
 21 24  1  0
  6 25  1  0
 25 26  1  0
 25 27  2  0
 27 28  1  0
 27  2  1  0
M  END
>  <plip>  (1) 
-0.10344827586206896

>  <filename>  (1) 
[H][c]1[n][c]([H])[c]([N]=[N][C]([H])([H])[C]([H])([H])[C]([H])([C]([H])([H])[H])[C]([H])([H])[H])[c]([H])[c]1[H]

$$$$
