
     RDKit          3D

 26 28  0  0  0  0  0  0  0  0999 V2000
    4.7389   -5.5230   21.8849 H   0  0  0  0  0  0  0  0  0  0  0  0
    5.2317   -4.6425   21.4925 C   0  0  0  0  0  0  0  0  0  0  0  0
    5.5839   -4.5030   20.1793 N   0  0  0  0  0  0  0  0  0  0  0  0
    6.0998   -3.2983   20.1669 C   0  0  0  0  0  0  0  0  0  0  0  0
    6.4943   -2.7388   19.3303 H   0  0  0  0  0  0  0  0  0  0  0  0
    6.0602   -2.7561   21.4036 N   0  0  0  0  0  0  0  0  0  0  0  0
    6.5392   -1.5297   21.8398 N   0  0  0  0  0  0  0  0  0  0  0  0
    6.6724   -1.2376   23.2112 C   0  0  0  0  0  0  0  0  0  0  0  0
    6.3623   -1.8523   24.1938 O   0  0  0  0  0  0  0  0  0  0  0  0
    7.3286   -0.0252   23.2563 N   0  0  0  0  0  0  0  0  0  0  0  0
    7.6078    0.3466   24.1428 H   0  0  0  0  0  0  0  0  0  0  0  0
    7.9499    0.3025   22.0876 C   0  0  0  0  0  0  0  0  0  0  0  0
    8.7960    1.1448   21.9592 O   0  0  0  0  0  0  0  0  0  0  0  0
    7.3861   -0.6552   21.0162 C   0  0  2  0  0  0  0  0  0  0  0  0
    8.2392   -1.2163   20.6104 H   0  0  0  0  0  0  0  0  0  0  0  0
    6.6367    0.0194   19.8649 C   0  0  0  0  0  0  0  0  0  0  0  0
    7.1463    0.0491   18.5496 C   0  0  0  0  0  0  0  0  0  0  0  0
    8.0973   -0.4256   18.2970 H   0  0  0  0  0  0  0  0  0  0  0  0
    6.5466    0.6651   17.5230 N   0  0  0  0  0  0  0  0  0  0  0  0
    5.3933    1.3027   17.7722 C   0  0  0  0  0  0  0  0  0  0  0  0
    4.9380    1.8326   16.9358 H   0  0  0  0  0  0  0  0  0  0  0  0
    4.7902    1.3142   19.0318 C   0  0  0  0  0  0  0  0  0  0  0  0
    3.8680    1.8593   19.1772 H   0  0  0  0  0  0  0  0  0  0  0  0
    5.4153    0.6607   20.0932 C   0  0  0  0  0  0  0  0  0  0  0  0
    4.9756    0.6501   21.0906 H   0  0  0  0  0  0  0  0  0  0  0  0
    5.4673   -3.6025   22.2589 N   0  0  0  0  0  0  0  0  0  0  0  0
  1  2  1  0
  2  3  1  0
  3  4  2  0
  4  5  1  0
  4  6  1  0
  6  7  1  0
  7  8  1  0
  8  9  2  0
  8 10  1  0
 10 11  1  0
 10 12  1  0
 12 13  2  0
 12 14  1  0
 14 15  1  6
 14 16  1  0
 16 17  2  0
 17 18  1  0
 17 19  1  0
 19 20  2  0
 20 21  1  0
 20 22  1  0
 22 23  1  0
 22 24  2  0
 24 25  1  0
  6 26  1  0
 26  2  2  0
 14  7  1  0
 24 16  1  0
M  END
>  <plip>  (1) 
-0.17857142857142858

>  <filename>  (1) 
[H][c]1[n][c]([H])[n]([N]2[C](=[O])[N]([H])[C](=[O])[C@]2([H])[c]2[c]([H])[n][c]([H])[c]([H])[c]2[H])[n]1

$$$$
