
     RDKit          3D

 42 44  0  0  0  0  0  0  0  0999 V2000
    8.7587    1.1657   24.8137 C   0  0  0  0  0  0  0  0  0  0  0  0
    7.9057    1.8475   23.7591 C   0  0  0  0  0  0  0  0  0  0  0  0
    7.3079    0.8925   22.8581 O   0  0  0  0  0  0  0  0  0  0  0  0
    8.0969    0.3330   21.9331 C   0  0  0  0  0  0  0  0  0  0  0  0
    9.2575    0.6143   21.7376 O   0  0  0  0  0  0  0  0  0  0  0  0
    7.3729   -0.7158   21.0445 C   0  0  0  0  0  0  0  0  0  0  0  0
    6.5208   -1.5478   21.8585 O   0  0  0  0  0  0  0  0  0  0  0  0
    5.9612   -2.6328   21.2748 C   0  0  0  0  0  0  0  0  0  0  0  0
    6.1010   -2.9391   20.1173 O   0  0  0  0  0  0  0  0  0  0  0  0
    5.0842   -3.4325   22.1901 C   0  0  0  0  0  0  0  0  0  0  0  0
    4.8610   -3.2334   23.4957 C   0  0  0  0  0  0  0  0  0  0  0  0
    3.7911   -3.8291   24.3130 C   0  0  0  0  0  0  0  0  0  0  0  0
    3.4992   -3.3606   25.4826 N   0  0  0  0  0  0  0  0  0  0  0  0
    2.5119   -4.1243   26.0779 C   0  0  0  0  0  0  0  0  0  0  0  0
    1.9947   -3.9350   27.3749 C   0  0  0  0  0  0  0  0  0  0  0  0
    1.0866   -4.8591   27.8892 C   0  0  0  0  0  0  0  0  0  0  0  0
    0.6722   -5.9671   27.1166 C   0  0  0  0  0  0  0  0  0  0  0  0
    1.1511   -6.1518   25.8225 C   0  0  0  0  0  0  0  0  0  0  0  0
    2.0571   -5.2174   25.3058 C   0  0  0  0  0  0  0  0  0  0  0  0
    2.8534   -5.2174   23.7694 S   0  0  0  0  0  0  0  0  0  0  0  0
    0.8464   -7.0094   25.2286 H   0  0  0  0  0  0  0  0  0  0  0  0
   -0.0303   -6.6873   27.5320 H   0  0  0  0  0  0  0  0  0  0  0  0
    0.7003   -4.7422   28.9010 H   0  0  0  0  0  0  0  0  0  0  0  0
    2.3457   -3.0854   27.9544 H   0  0  0  0  0  0  0  0  0  0  0  0
    5.4241   -2.5033   24.0759 H   0  0  0  0  0  0  0  0  0  0  0  0
    4.5726   -4.2022   21.6237 H   0  0  0  0  0  0  0  0  0  0  0  0
    6.6076   -0.0360   19.9105 C   0  0  0  0  0  0  0  0  0  0  0  0
    5.3990    0.6359   20.1477 C   0  0  0  0  0  0  0  0  0  0  0  0
    4.7842    1.3057   19.0875 C   0  0  0  0  0  0  0  0  0  0  0  0
    5.4054    1.2858   17.8332 C   0  0  0  0  0  0  0  0  0  0  0  0
    6.5598    0.6514   17.5840 N   0  0  0  0  0  0  0  0  0  0  0  0
    7.1369    0.0135   18.6136 C   0  0  0  0  0  0  0  0  0  0  0  0
    8.0911   -0.4685   18.3928 H   0  0  0  0  0  0  0  0  0  0  0  0
    4.9600    1.8064   16.9881 H   0  0  0  0  0  0  0  0  0  0  0  0
    3.8597    1.8614   19.2218 H   0  0  0  0  0  0  0  0  0  0  0  0
    4.9574    0.6549   21.1456 H   0  0  0  0  0  0  0  0  0  0  0  0
    8.1911   -1.3280   20.6440 H   0  0  0  0  0  0  0  0  0  0  0  0
    7.0429    2.3543   24.1992 H   0  0  0  0  0  0  0  0  0  0  0  0
    8.4863    2.5746   23.1823 H   0  0  0  0  0  0  0  0  0  0  0  0
    9.6196    0.6651   24.3617 H   0  0  0  0  0  0  0  0  0  0  0  0
    9.1332    1.9086   25.5255 H   0  0  0  0  0  0  0  0  0  0  0  0
    8.1735    0.4209   25.3599 H   0  0  0  0  0  0  0  0  0  0  0  0
  1  2  1  0
  2  3  1  0
  3  4  1  0
  4  5  2  0
  4  6  1  0
  6  7  1  0
  7  8  1  0
  8  9  2  0
  8 10  1  0
 10 11  2  3
 11 12  1  0
 12 13  2  0
 13 14  1  0
 14 15  2  0
 15 16  1  0
 16 17  2  0
 17 18  1  0
 18 19  2  0
 19 20  1  0
 18 21  1  0
 17 22  1  0
 16 23  1  0
 15 24  1  0
 11 25  1  0
 10 26  1  0
  6 27  1  0
 27 28  2  0
 28 29  1  0
 29 30  2  0
 30 31  1  0
 31 32  2  0
 32 33  1  0
 30 34  1  0
 29 35  1  0
 28 36  1  0
  6 37  1  0
  2 38  1  0
  2 39  1  0
  1 40  1  0
  1 41  1  0
  1 42  1  0
 20 12  1  0
 32 27  1  0
 19 14  1  0
M  END
>  <plip>  (1) 
-0.10344827586206896

>  <filename>  (1) 
[H][C]([C](=[O])[O][C]([H])([C](=[O])[O][C]([H])([H])[C]([H])([H])[H])[c]1[c]([H])[n][c]([H])[c]([H])[c]1[H])=[C]([H])[c]1[n][c]2[c]([H])[c]([H])[c]([H])[c]([H])[c]2[s]1

$$$$
