
     RDKit          3D

 45 47  0  0  0  0  0  0  0  0999 V2000
    5.9243   -3.3369   20.2512 O   0  0  0  0  0  0  0  0  0  0  0  0
    5.9355   -3.0387   21.4314 C   0  0  0  0  0  0  0  0  0  0  0  0
    5.4915   -4.0091   22.5412 C   0  0  0  0  0  0  0  0  0  0  0  0
    6.5222   -4.2312   23.6250 C   0  0  0  0  0  0  0  0  0  0  0  0
    7.5857   -5.0884   23.5952 C   0  0  0  0  0  0  0  0  0  0  0  0
    8.4251   -4.8429   24.6660 N   0  0  0  0  0  0  0  0  0  0  0  0
    7.9174   -3.8059   25.4078 C   0  0  0  0  0  0  0  0  0  0  0  0
    8.4191   -3.1565   26.5532 C   0  0  0  0  0  0  0  0  0  0  0  0
    7.6963   -2.0905   27.0777 C   0  0  0  0  0  0  0  0  0  0  0  0
    6.4660   -1.7116   26.4986 C   0  0  0  0  0  0  0  0  0  0  0  0
    5.5725   -0.4075   27.2344 Cl  0  0  0  0  0  0  0  0  0  0  0  0
    5.9575   -2.3472   25.3705 C   0  0  0  0  0  0  0  0  0  0  0  0
    6.7060   -3.4002   24.7920 C   0  0  0  0  0  0  0  0  0  0  0  0
    4.9959   -2.0416   24.9756 H   0  0  0  0  0  0  0  0  0  0  0  0
    8.0668   -1.5256   27.9279 H   0  0  0  0  0  0  0  0  0  0  0  0
    9.3432   -3.4748   27.0209 H   0  0  0  0  0  0  0  0  0  0  0  0
    9.2459   -5.3675   24.9216 H   0  0  0  0  0  0  0  0  0  0  0  0
    7.8239   -5.8669   22.8804 H   0  0  0  0  0  0  0  0  0  0  0  0
    5.2119   -4.9301   22.0257 H   0  0  0  0  0  0  0  0  0  0  0  0
    4.5730   -3.5975   22.9840 H   0  0  0  0  0  0  0  0  0  0  0  0
    6.2925   -1.8023   21.8679 N   0  0  0  0  0  0  0  0  0  0  0  0
    7.1462   -0.9107   21.1100 C   0  0  0  0  0  0  0  0  0  0  0  0
    7.7835    0.0941   22.0761 C   0  0  0  0  0  0  0  0  0  0  0  0
    8.7318   -0.5458   23.0998 C   0  0  0  0  0  0  0  0  0  0  0  0
    9.2664    0.4565   24.1155 C   0  0  0  0  0  0  0  0  0  0  0  0
    8.2409    1.0235   24.9072 O   0  0  0  0  0  0  0  0  0  0  0  0
    7.8132    0.2995   25.3845 H   0  0  0  0  0  0  0  0  0  0  0  0
    9.7343    1.2937   23.5863 H   0  0  0  0  0  0  0  0  0  0  0  0
   10.0485   -0.0133   24.7348 H   0  0  0  0  0  0  0  0  0  0  0  0
    8.2270   -1.3657   23.6296 H   0  0  0  0  0  0  0  0  0  0  0  0
    9.5853   -1.0068   22.5871 H   0  0  0  0  0  0  0  0  0  0  0  0
    6.9849    0.6427   22.5956 H   0  0  0  0  0  0  0  0  0  0  0  0
    8.3329    0.8487   21.5003 H   0  0  0  0  0  0  0  0  0  0  0  0
    6.4243   -0.2091   19.9737 C   0  0  0  0  0  0  0  0  0  0  0  0
    5.2561    0.5558   20.1240 C   0  0  0  0  0  0  0  0  0  0  0  0
    4.8057    1.2991   19.0258 C   0  0  0  0  0  0  0  0  0  0  0  0
    5.5288    1.2464   17.8264 C   0  0  0  0  0  0  0  0  0  0  0  0
    6.6269    0.4960   17.6500 N   0  0  0  0  0  0  0  0  0  0  0  0
    7.0452   -0.1972   18.7170 C   0  0  0  0  0  0  0  0  0  0  0  0
    7.9480   -0.7907   18.5750 H   0  0  0  0  0  0  0  0  0  0  0  0
    5.2066    1.8308   16.9665 H   0  0  0  0  0  0  0  0  0  0  0  0
    3.9373    1.9515   19.0924 H   0  0  0  0  0  0  0  0  0  0  0  0
    4.7089    0.5875   21.0718 H   0  0  0  0  0  0  0  0  0  0  0  0
    7.9547   -1.4989   20.6518 H   0  0  0  0  0  0  0  0  0  0  0  0
    6.1981   -1.6033   22.8498 H   0  0  0  0  0  0  0  0  0  0  0  0
  1  2  2  0
  2  3  1  0
  3  4  1  0
  4  5  2  0
  5  6  1  0
  6  7  1  0
  7  8  2  0
  8  9  1  0
  9 10  2  0
 10 11  1  0
 10 12  1  0
 12 13  2  0
 12 14  1  0
  9 15  1  0
  8 16  1  0
  6 17  1  0
  5 18  1  0
  3 19  1  0
  3 20  1  0
  2 21  1  0
 21 22  1  0
 22 23  1  0
 23 24  1  0
 24 25  1  0
 25 26  1  0
 26 27  1  0
 25 28  1  0
 25 29  1  0
 24 30  1  0
 24 31  1  0
 23 32  1  0
 23 33  1  0
 22 34  1  0
 34 35  2  0
 35 36  1  0
 36 37  2  0
 37 38  1  0
 38 39  2  0
 39 40  1  0
 37 41  1  0
 36 42  1  0
 35 43  1  0
 22 44  1  0
 21 45  1  0
 13  4  1  0
 39 34  1  0
 13  7  1  0
M  END
>  <plip>  (1) 
-0.20689655172413793

>  <filename>  (1) 
[H][O][C]([H])([H])[C]([H])([H])[C]([H])([H])[C]([H])([c]1[c]([H])[n][c]([H])[c]([H])[c]1[H])[N]([H])[C](=[O])[C]([H])([H])[c]1[c]([H])[n]([H])[c]2[c]([H])[c]([H])[c]([Cl])[c]([H])[c]12

$$$$
