
     RDKit          3D

 35 36  0  0  0  0  0  0  0  0999 V2000
    9.5715    6.0458   24.0956 C   0  0  0  0  0  0  0  0  0  0  0  0
    8.2987    5.2359   24.1181 C   0  0  0  0  0  0  0  0  0  0  0  0
    7.0532    5.8644   24.2614 C   0  0  0  0  0  0  0  0  0  0  0  0
    5.8769    5.1216   24.2969 C   0  0  0  0  0  0  0  0  0  0  0  0
    5.9371    3.7278   24.1691 C   0  0  0  0  0  0  0  0  0  0  0  0
    4.6494    2.9979   24.1573 N   0  0  0  0  0  4  0  0  0  0  0  0
    4.5569    2.0012   23.4586 O   0  0  0  0  0  0  0  0  0  0  0  0
    3.7353    3.4489   24.8296 O   0  0  0  0  0  1  0  0  0  0  0  0
    7.1671    3.0462   24.0469 C   0  0  0  0  0  0  0  0  0  0  0  0
    7.3155    1.5398   23.9981 C   0  0  0  0  0  0  0  0  0  0  0  0
    7.2980    1.0269   22.6295 N   0  0  0  0  0  0  0  0  0  0  0  0
    7.4553   -0.2647   22.3169 C   0  0  0  0  0  0  0  0  0  0  0  0
    7.7661   -1.4911   23.3920 S   0  0  0  0  0  0  0  0  0  0  0  0
    7.4420   -0.5419   20.9690 N   0  0  0  0  0  0  0  0  0  0  0  0
    6.6834    0.0583   19.9186 C   0  0  0  0  0  0  0  0  0  0  0  0
    5.4456    0.6701   20.1579 C   0  0  0  0  0  0  0  0  0  0  0  0
    4.7982    1.3115   19.0899 C   0  0  0  0  0  0  0  0  0  0  0  0
    5.3901    1.2985   17.8227 C   0  0  0  0  0  0  0  0  0  0  0  0
    6.5510    0.6716   17.5647 N   0  0  0  0  0  0  0  0  0  0  0  0
    7.1669    0.0648   18.5866 C   0  0  0  0  0  0  0  0  0  0  0  0
    8.1140   -0.4269   18.3666 H   0  0  0  0  0  0  0  0  0  0  0  0
    4.9169    1.7990   16.9807 H   0  0  0  0  0  0  0  0  0  0  0  0
    3.8679    1.8442   19.2482 H   0  0  0  0  0  0  0  0  0  0  0  0
    5.0087    0.6413   21.1568 H   0  0  0  0  0  0  0  0  0  0  0  0
    7.7789   -1.4858   20.8586 H   0  0  0  0  0  0  0  0  0  0  0  0
    7.2195    1.6403   21.8343 H   0  0  0  0  0  0  0  0  0  0  0  0
    6.5242    1.0457   24.5685 H   0  0  0  0  0  0  0  0  0  0  0  0
    8.2685    1.2453   24.4590 H   0  0  0  0  0  0  0  0  0  0  0  0
    8.3276    3.8381   24.0243 C   0  0  0  0  0  0  0  0  0  0  0  0
    9.2890    3.3369   23.9323 H   0  0  0  0  0  0  0  0  0  0  0  0
    4.9111    5.6047   24.4074 H   0  0  0  0  0  0  0  0  0  0  0  0
    7.0111    6.9483   24.3355 H   0  0  0  0  0  0  0  0  0  0  0  0
   10.3478    5.5720   23.4855 H   0  0  0  0  0  0  0  0  0  0  0  0
    9.9806    6.1740   25.1045 H   0  0  0  0  0  0  0  0  0  0  0  0
    9.3997    7.0477   23.6906 H   0  0  0  0  0  0  0  0  0  0  0  0
  1  2  1  0
  2  3  2  0
  3  4  1  0
  4  5  2  0
  5  6  1  0
  6  7  2  0
  6  8  1  0
  5  9  1  0
  9 10  1  0
 10 11  1  0
 11 12  1  0
 12 13  2  0
 12 14  1  0
 14 15  1  0
 15 16  2  0
 16 17  1  0
 17 18  2  0
 18 19  1  0
 19 20  2  0
 20 21  1  0
 18 22  1  0
 17 23  1  0
 16 24  1  0
 14 25  1  0
 11 26  1  0
 10 27  1  0
 10 28  1  0
  9 29  2  0
 29 30  1  0
  4 31  1  0
  3 32  1  0
  1 33  1  0
  1 34  1  0
  1 35  1  0
 29  2  1  0
 20 15  1  0
M  CHG  2   6   1   8  -1
M  END
>  <plip>  (1) 
-0.0

>  <filename>  (1) 
[H][c]1[n][c]([H])[c]([N]([H])[C](=[S])[N]([H])[C]([H])([H])[c]2[c]([H])[c]([C]([H])([H])[H])[c]([H])[c]([H])[c]2[N+](=[O])[O-])[c]([H])[c]1[H]

$$$$
