
     RDKit          3D

 23 25  0  0  0  0  0  0  0  0999 V2000
    4.9279    1.7802   16.9932 H   0  0  0  0  0  0  0  0  0  0  0  0
    5.4015    1.2918   17.8405 C   0  0  0  0  0  0  0  0  0  0  0  0
    6.5635    0.6740   17.5829 N   0  0  0  0  0  0  0  0  0  0  0  0
    7.1600    0.0649   18.6085 C   0  0  0  0  0  0  0  0  0  0  0  0
    8.1043   -0.4150   18.3688 H   0  0  0  0  0  0  0  0  0  0  0  0
    6.6442    0.0150   19.9126 C   0  0  0  0  0  0  0  0  0  0  0  0
    7.4018   -0.7008   20.9215 C   0  0  0  0  0  0  0  0  0  0  0  0
    6.8959   -0.7520   22.1860 O   0  0  0  0  0  0  0  0  0  0  0  0
    7.7773   -1.4718   22.9377 C   0  0  0  0  0  0  0  0  0  0  0  0
    7.5260   -1.7104   24.3516 C   0  0  0  0  0  0  0  0  0  0  0  0
    8.3210   -2.3929   25.1515 N   0  0  0  0  0  0  0  0  0  0  0  0
    7.7460   -2.3881   26.3673 N   0  0  0  0  0  0  0  0  0  0  0  0
    6.6367   -1.7363   26.3500 N   0  0  0  0  0  0  0  0  0  0  0  0
    6.4816   -1.3039   25.0970 N   0  0  0  0  0  0  0  0  0  0  0  0
    5.6723   -0.7696   24.8318 H   0  0  0  0  0  0  0  0  0  0  0  0
    8.8272   -1.8798   22.1803 C   0  0  0  0  0  0  0  0  0  0  0  0
    9.6569   -2.4645   22.5602 H   0  0  0  0  0  0  0  0  0  0  0  0
    8.5860   -1.3796   20.8704 C   0  0  0  0  0  0  0  0  0  0  0  0
    9.2084   -1.4984   19.9961 H   0  0  0  0  0  0  0  0  0  0  0  0
    5.4174    0.6620   20.1692 C   0  0  0  0  0  0  0  0  0  0  0  0
    4.9833    0.6461   21.1736 H   0  0  0  0  0  0  0  0  0  0  0  0
    4.7980    1.3139   19.1050 C   0  0  0  0  0  0  0  0  0  0  0  0
    3.8673    1.8482   19.2498 H   0  0  0  0  0  0  0  0  0  0  0  0
  1  2  1  0
  2  3  2  0
  3  4  1  0
  4  5  1  0
  4  6  2  0
  6  7  1  0
  7  8  1  0
  8  9  1  0
  9 10  1  0
 10 11  2  0
 11 12  1  0
 12 13  2  0
 13 14  1  0
 14 15  1  0
  9 16  2  0
 16 17  1  0
 16 18  1  0
 18 19  1  0
  6 20  1  0
 20 21  1  0
 20 22  2  0
 22 23  1  0
 22  2  1  0
 18  7  2  0
 14 10  1  0
M  END
>  <plip>  (1) 
-0.03571428571428571

>  <filename>  (1) 
[H][c]1[n][c]([H])[c](-[c]2[o][c](-[c]3[n][n][n][n]3[H])[c]([H])[c]2[H])[c]([H])[c]1[H]

$$$$
