
     RDKit          3D

 27 28  0  0  0  0  0  0  0  0999 V2000
    4.9224    1.7945   16.9852 H   0  0  0  0  0  0  0  0  0  0  0  0
    5.3955    1.2954   17.8277 C   0  0  0  0  0  0  0  0  0  0  0  0
    6.5582    0.6795   17.5637 N   0  0  0  0  0  0  0  0  0  0  0  0
    7.1533    0.0408   18.5779 C   0  0  0  0  0  0  0  0  0  0  0  0
    8.1115   -0.4270   18.3561 H   0  0  0  0  0  0  0  0  0  0  0  0
    6.6311   -0.0441   19.8816 C   0  0  0  0  0  0  0  0  0  0  0  0
    7.5686   -0.8514   21.1663 S   0  0  0  0  0  0  0  0  0  0  0  0
    8.5726    0.5881   21.7050 C   0  0  0  0  0  0  0  0  0  0  0  0
    9.0620    0.9919   20.8159 H   0  0  0  0  0  0  0  0  0  0  0  0
    9.3507    0.1876   22.3602 H   0  0  0  0  0  0  0  0  0  0  0  0
    7.8091    1.6392   22.3683 C   0  0  0  0  0  0  0  0  0  0  0  0
    7.0697    2.4575   22.8591 C   0  0  0  0  0  0  0  0  0  0  0  0
    6.2214    3.4436   23.4707 C   0  0  0  0  0  0  0  0  0  0  0  0
    4.9979    3.8053   22.8832 C   0  0  0  0  0  0  0  0  0  0  0  0
    4.7056    3.3263   21.9515 H   0  0  0  0  0  0  0  0  0  0  0  0
    4.1849    4.7727   23.4754 C   0  0  0  0  0  0  0  0  0  0  0  0
    3.2431    5.0510   23.0066 H   0  0  0  0  0  0  0  0  0  0  0  0
    4.5939    5.3870   24.6659 C   0  0  0  0  0  0  0  0  0  0  0  0
    3.9656    6.1439   25.1287 H   0  0  0  0  0  0  0  0  0  0  0  0
    5.8118    5.0322   25.2598 C   0  0  0  0  0  0  0  0  0  0  0  0
    6.1312    5.5091   26.1834 H   0  0  0  0  0  0  0  0  0  0  0  0
    6.6248    4.0642   24.6676 C   0  0  0  0  0  0  0  0  0  0  0  0
    7.5727    3.7800   25.1173 H   0  0  0  0  0  0  0  0  0  0  0  0
    5.4222    0.6191   20.1476 C   0  0  0  0  0  0  0  0  0  0  0  0
    5.0223    0.6247   21.1651 H   0  0  0  0  0  0  0  0  0  0  0  0
    4.7983    1.3005   19.0941 C   0  0  0  0  0  0  0  0  0  0  0  0
    3.8719    1.8453   19.2442 H   0  0  0  0  0  0  0  0  0  0  0  0
  1  2  1  0
  2  3  2  0
  3  4  1  0
  4  5  1  0
  4  6  2  0
  6  7  1  0
  7  8  1  0
  8  9  1  0
  8 10  1  0
  8 11  1  0
 11 12  3  0
 12 13  1  0
 13 14  2  0
 14 15  1  0
 14 16  1  0
 16 17  1  0
 16 18  2  0
 18 19  1  0
 18 20  1  0
 20 21  1  0
 20 22  2  0
 22 23  1  0
  6 24  1  0
 24 25  1  0
 24 26  2  0
 26 27  1  0
 26  2  1  0
 22 13  1  0
M  END
>  <plip>  (1) 
-0.0

>  <filename>  (1) 
[H][c]1[n][c]([H])[c]([S][C]([H])([H])[C]#[C][c]2[c]([H])[c]([H])[c]([H])[c]([H])[c]2[H])[c]([H])[c]1[H]

$$$$
