
     RDKit          3D

 37 37  0  0  0  0  0  0  0  0999 V2000
   13.4188    1.5525   23.5583 C   0  0  0  0  0  0  0  0  0  0  0  0
   12.4333    1.3814   24.4363 C   0  0  0  0  0  0  0  0  0  0  0  0
   11.3806    0.3338   24.2924 C   0  0  0  0  0  0  0  0  0  0  0  0
    9.7457    1.0764   23.9548 S   0  0  0  0  0  0  0  0  0  0  0  0
   10.0655    2.1216   22.4918 C   0  0  0  0  0  0  0  0  0  0  0  0
   10.4636    1.3651   21.2174 C   0  0  0  0  0  0  0  0  0  0  0  0
    9.3339    0.7363   20.5417 N   0  0  0  0  0  0  0  0  0  0  0  0
    8.8807   -0.5008   20.9730 C   0  0  0  0  0  0  0  0  0  0  0  0
    9.5973   -1.3351   21.4931 O   0  0  0  0  0  0  0  0  0  0  0  0
    7.5051   -0.6945   20.7565 N   0  0  0  0  0  0  0  0  0  0  0  0
    6.8325   -1.6346   21.6661 C   0  0  0  0  0  0  0  0  0  0  0  0
    6.8869   -1.1780   23.1243 C   0  0  0  0  0  0  0  0  0  0  0  0
    6.3272   -1.8752   23.7579 H   0  0  0  0  0  0  0  0  0  0  0  0
    6.4572   -0.1739   23.2451 H   0  0  0  0  0  0  0  0  0  0  0  0
    7.9208   -1.1614   23.4782 H   0  0  0  0  0  0  0  0  0  0  0  0
    7.2967   -2.6249   21.5608 H   0  0  0  0  0  0  0  0  0  0  0  0
    5.7894   -1.7368   21.3416 H   0  0  0  0  0  0  0  0  0  0  0  0
    6.7420   -0.0405   19.7321 C   0  0  0  0  0  0  0  0  0  0  0  0
    5.5594    0.6363   20.0527 C   0  0  0  0  0  0  0  0  0  0  0  0
    4.8802    1.3377   19.0508 C   0  0  0  0  0  0  0  0  0  0  0  0
    5.3861    1.3112   17.7484 C   0  0  0  0  0  0  0  0  0  0  0  0
    6.4966    0.6363   17.4110 N   0  0  0  0  0  0  0  0  0  0  0  0
    7.1522   -0.0188   18.3767 C   0  0  0  0  0  0  0  0  0  0  0  0
    8.0614   -0.5397   18.0781 H   0  0  0  0  0  0  0  0  0  0  0  0
    4.8865    1.8476   16.9441 H   0  0  0  0  0  0  0  0  0  0  0  0
    3.9780    1.8970   19.2687 H   0  0  0  0  0  0  0  0  0  0  0  0
    5.2058    0.6223   21.0833 H   0  0  0  0  0  0  0  0  0  0  0  0
    8.5397    1.3448   20.4290 H   0  0  0  0  0  0  0  0  0  0  0  0
   10.9399    2.0640   20.5222 H   0  0  0  0  0  0  0  0  0  0  0  0
   11.2141    0.6003   21.4363 H   0  0  0  0  0  0  0  0  0  0  0  0
   10.8213    2.8697   22.7632 H   0  0  0  0  0  0  0  0  0  0  0  0
    9.1283    2.6725   22.3352 H   0  0  0  0  0  0  0  0  0  0  0  0
   11.2376   -0.2060   25.2346 H   0  0  0  0  0  0  0  0  0  0  0  0
   11.6399   -0.3899   23.5103 H   0  0  0  0  0  0  0  0  0  0  0  0
   12.2612    2.0754   25.2525 H   0  0  0  0  0  0  0  0  0  0  0  0
   14.0470    2.4329   23.5423 H   0  0  0  0  0  0  0  0  0  0  0  0
   13.6245    0.8114   22.7890 H   0  0  0  0  0  0  0  0  0  0  0  0
  1  2  2  3
  2  3  1  0
  3  4  1  0
  4  5  1  0
  5  6  1  0
  6  7  1  0
  7  8  1  0
  8  9  2  0
  8 10  1  0
 10 11  1  0
 11 12  1  0
 12 13  1  0
 12 14  1  0
 12 15  1  0
 11 16  1  0
 11 17  1  0
 10 18  1  0
 18 19  2  0
 19 20  1  0
 20 21  2  0
 21 22  1  0
 22 23  2  0
 23 24  1  0
 21 25  1  0
 20 26  1  0
 19 27  1  0
  7 28  1  0
  6 29  1  0
  6 30  1  0
  5 31  1  0
  5 32  1  0
  3 33  1  0
  3 34  1  0
  2 35  1  0
  1 36  1  0
  1 37  1  0
 23 18  1  0
M  END
>  <plip>  (1) 
-0.17857142857142858

>  <filename>  (1) 
[H][C]([H])=[C]([H])[C]([H])([H])[S][C]([H])([H])[C]([H])([H])[N]([H])[C](=[O])[N]([c]1[c]([H])[n][c]([H])[c]([H])[c]1[H])[C]([H])([H])[C]([H])([H])[H]

$$$$
