
     RDKit          3D

 39 41  0  0  0  0  0  0  0  0999 V2000
   10.2902    0.7773   21.3228 C   0  0  0  0  0  0  0  0  0  0  0  0
    8.9286    1.2259   21.3206 O   0  0  0  0  0  0  0  0  0  0  0  0
    8.0029    0.3261   21.9653 C   0  0  0  0  0  0  0  0  0  0  0  0
    7.4131   -0.7110   20.9864 C   0  0  1  0  0  0  0  0  0  0  0  0
    6.5572   -1.6605   21.7046 N   0  0  0  0  0  0  0  0  0  0  0  0
    6.0640   -2.8364   21.1669 C   0  0  0  0  0  0  0  0  0  0  0  0
    6.2180   -3.0470   19.9723 O   0  0  0  0  0  0  0  0  0  0  0  0
    5.2279   -3.7711   21.9531 C   0  0  0  0  0  0  0  0  0  0  0  0
    4.8014   -5.0250   21.5519 C   0  0  0  0  0  0  0  0  0  0  0  0
    3.8141   -5.4555   22.4360 N   0  0  0  0  0  0  0  0  0  0  0  0
    2.9582   -6.5587   22.3325 C   0  0  0  0  0  0  0  0  0  0  0  0
    2.0573   -6.8335   23.3481 C   0  0  0  0  0  0  0  0  0  0  0  0
    0.9438   -8.3859   23.2420 Br  0  0  0  0  0  0  0  0  0  0  0  0
    1.9722   -5.9351   24.5110 C   0  0  0  0  0  0  0  0  0  0  0  0
    2.7687   -4.8088   24.5707 C   0  0  0  0  0  0  0  0  0  0  0  0
    3.7140   -4.5557   23.4829 C   0  0  0  0  0  0  0  0  0  0  0  0
    4.6045   -3.5476   23.2579 C   0  0  0  0  0  0  0  0  0  0  0  0
    4.8040   -2.7376   23.9469 H   0  0  0  0  0  0  0  0  0  0  0  0
    2.6853   -4.1117   25.3966 H   0  0  0  0  0  0  0  0  0  0  0  0
    1.2699   -6.1475   25.3160 H   0  0  0  0  0  0  0  0  0  0  0  0
    2.9856   -7.2273   21.4844 H   0  0  0  0  0  0  0  0  0  0  0  0
    5.1066   -5.5549   20.6530 H   0  0  0  0  0  0  0  0  0  0  0  0
    6.1462   -1.3775   22.5893 H   0  0  0  0  0  0  0  0  0  0  0  0
    6.6289   -0.0226   19.8937 C   0  0  0  0  0  0  0  0  0  0  0  0
    5.4232    0.6417   20.1448 C   0  0  0  0  0  0  0  0  0  0  0  0
    4.8071    1.2996   19.0816 C   0  0  0  0  0  0  0  0  0  0  0  0
    5.4039    1.2849   17.8171 C   0  0  0  0  0  0  0  0  0  0  0  0
    6.5601    0.6418   17.5714 N   0  0  0  0  0  0  0  0  0  0  0  0
    7.1554    0.0059   18.5949 C   0  0  0  0  0  0  0  0  0  0  0  0
    8.1061   -0.4859   18.4051 H   0  0  0  0  0  0  0  0  0  0  0  0
    4.9191    1.8260   17.0111 H   0  0  0  0  0  0  0  0  0  0  0  0
    3.8795    1.8413   19.2268 H   0  0  0  0  0  0  0  0  0  0  0  0
    4.9946    0.6587   21.1458 H   0  0  0  0  0  0  0  0  0  0  0  0
    8.2589   -1.2563   20.5490 H   0  0  0  0  0  0  0  0  0  0  0  0
    8.5022   -0.2022   22.7858 H   0  0  0  0  0  0  0  0  0  0  0  0
    7.1845    0.9110   22.3972 H   0  0  0  0  0  0  0  0  0  0  0  0
   10.6843    0.7520   22.3444 H   0  0  0  0  0  0  0  0  0  0  0  0
   10.9069    1.4672   20.7375 H   0  0  0  0  0  0  0  0  0  0  0  0
   10.3687   -0.2238   20.8847 H   0  0  0  0  0  0  0  0  0  0  0  0
  1  2  1  0
  2  3  1  0
  3  4  1  0
  4  5  1  0
  5  6  1  0
  6  7  2  0
  6  8  1  0
  8  9  2  0
  9 10  1  0
 10 11  1  0
 11 12  2  0
 12 13  1  0
 12 14  1  0
 14 15  2  0
 15 16  1  0
 16 17  2  0
 17 18  1  0
 15 19  1  0
 14 20  1  0
 11 21  1  0
  9 22  1  0
  5 23  1  0
  4 24  1  0
 24 25  2  0
 25 26  1  0
 26 27  2  0
 27 28  1  0
 28 29  2  0
 29 30  1  0
 27 31  1  0
 26 32  1  0
 25 33  1  0
  4 34  1  6
  3 35  1  0
  3 36  1  0
  1 37  1  0
  1 38  1  0
  1 39  1  0
 17  8  1  0
 29 24  1  0
 16 10  1  0
M  END
>  <plip>  (1) 
-0.1724137931034483

>  <filename>  (1) 
[H][c]1[n][c]([H])[c]([C@]([H])([N]([H])[C](=[O])[c]2[c]([H])[c]3[c]([H])[c]([H])[c]([Br])[c]([H])[n]3[c]2[H])[C]([H])([H])[O][C]([H])([H])[H])[c]([H])[c]1[H]

$$$$
