
     RDKit          3D

 43 46  0  0  0  0  0  0  0  0999 V2000
    4.9344    1.7523   16.9437 H   0  0  0  0  0  0  0  0  0  0  0  0
    5.4147    1.3187   17.8202 C   0  0  0  0  0  0  0  0  0  0  0  0
    6.5880    0.7096   17.6096 N   0  0  0  0  0  0  0  0  0  0  0  0
    7.1749    0.1395   18.6693 C   0  0  0  0  0  0  0  0  0  0  0  0
    8.1033   -0.3772   18.4450 H   0  0  0  0  0  0  0  0  0  0  0  0
    6.6841    0.1525   19.9970 C   0  0  0  0  0  0  0  0  0  0  0  0
    7.4814   -0.4675   21.1569 C   0  0  2  0  0  0  0  0  0  0  0  0
    8.0944    0.3161   21.6302 H   0  0  0  0  0  0  0  0  0  0  0  0
    8.4014   -1.5858   20.6070 C   0  0  0  0  0  0  0  0  0  0  0  0
    7.7235   -2.1185   19.9428 H   0  0  0  0  0  0  0  0  0  0  0  0
    9.2281   -1.1405   20.0402 H   0  0  0  0  0  0  0  0  0  0  0  0
    8.9555   -2.5846   21.6415 C   0  0  1  0  0  0  0  0  0  0  0  0
   10.0293   -2.7388   21.4557 H   0  0  0  0  0  0  0  0  0  0  0  0
    8.7446   -2.0115   22.9705 N   0  0  0  0  0  0  0  0  0  0  0  0
    9.5870   -2.5746   24.0235 C   0  0  0  0  0  0  0  0  0  0  0  0
   10.6277   -2.5477   23.6761 H   0  0  0  0  0  0  0  0  0  0  0  0
    9.3622   -3.6356   24.2518 H   0  0  0  0  0  0  0  0  0  0  0  0
    9.4327   -1.7137   25.2579 C   0  0  0  0  0  0  0  0  0  0  0  0
    8.5984   -2.1313   26.3067 C   0  0  0  0  0  0  0  0  0  0  0  0
    8.2278   -3.1575   26.3094 H   0  0  0  0  0  0  0  0  0  0  0  0
    8.2063   -1.2454   27.3148 C   0  0  0  0  0  0  0  0  0  0  0  0
    7.4247   -1.5344   28.0078 H   0  0  0  0  0  0  0  0  0  0  0  0
    8.7612    0.0356   27.3551 C   0  0  0  0  0  0  0  0  0  0  0  0
    8.5078    0.7113   28.1670 H   0  0  0  0  0  0  0  0  0  0  0  0
    9.6387    0.4573   26.3519 C   0  0  0  0  0  0  0  0  0  0  0  0
   10.0529    1.4596   26.3656 H   0  0  0  0  0  0  0  0  0  0  0  0
    9.9374   -0.4000   25.2909 C   0  0  0  0  0  0  0  0  0  0  0  0
   10.8933    0.2454   23.9786 Cl  0  0  0  0  0  0  0  0  0  0  0  0
    7.2788   -2.1668   23.1298 C   0  0  2  0  0  0  0  0  0  0  0  0
    6.9806   -2.0292   24.1758 H   0  0  0  0  0  0  0  0  0  0  0  0
    6.9900   -3.6194   22.6559 C   0  0  0  0  0  0  0  0  0  0  0  0
    6.0150   -3.6975   22.1621 H   0  0  0  0  0  0  0  0  0  0  0  0
    6.9837   -4.3037   23.5133 H   0  0  0  0  0  0  0  0  0  0  0  0
    8.1696   -3.9267   21.7036 C   0  0  0  0  0  0  0  0  0  0  0  0
    8.8104   -4.6880   22.1571 H   0  0  0  0  0  0  0  0  0  0  0  0
    7.8568   -4.2830   20.7189 H   0  0  0  0  0  0  0  0  0  0  0  0
    6.5691   -1.1058   22.2445 C   0  0  0  0  0  0  0  0  0  0  0  0
    5.7144   -1.5825   21.7394 H   0  0  0  0  0  0  0  0  0  0  0  0
    6.1496   -0.3243   22.8846 H   0  0  0  0  0  0  0  0  0  0  0  0
    5.4381    0.7739   20.1727 C   0  0  0  0  0  0  0  0  0  0  0  0
    4.9632    0.7915   21.1564 H   0  0  0  0  0  0  0  0  0  0  0  0
    4.7994    1.3638   19.0739 C   0  0  0  0  0  0  0  0  0  0  0  0
    3.8313    1.8372   19.1734 H   0  0  0  0  0  0  0  0  0  0  0  0
  1  2  1  0
  2  3  2  0
  3  4  1  0
  4  5  1  0
  4  6  2  0
  6  7  1  0
  7  8  1  1
  7  9  1  0
  9 10  1  0
  9 11  1  0
  9 12  1  0
 12 13  1  6
 12 14  1  0
 14 15  1  0
 15 16  1  0
 15 17  1  0
 15 18  1  0
 18 19  2  0
 19 20  1  0
 19 21  1  0
 21 22  1  0
 21 23  2  0
 23 24  1  0
 23 25  1  0
 25 26  1  0
 25 27  2  0
 27 28  1  0
 14 29  1  0
 29 30  1  1
 29 31  1  0
 31 32  1  0
 31 33  1  0
 31 34  1  0
 34 35  1  0
 34 36  1  0
 29 37  1  0
 37 38  1  0
 37 39  1  0
  6 40  1  0
 40 41  1  0
 40 42  2  0
 42 43  1  0
 42  2  1  0
 37  7  1  0
 34 12  1  0
 27 18  1  0
M  END
>  <plip>  (1) 
-0.06896551724137931

>  <filename>  (1) 
[H][c]1[n][c]([H])[c]([C@]2([H])[C]([H])([H])[C@@]3([H])[N]([C]([H])([H])[c]4[c]([H])[c]([H])[c]([H])[c]([H])[c]4[Cl])[C@]([H])([C]([H])([H])[C]3([H])[H])[C]2([H])[H])[c]([H])[c]1[H]

$$$$
