
     RDKit          3D

 32 33  0  0  0  0  0  0  0  0999 V2000
    5.7847   -5.4550   23.0642 N   0  0  0  0  0  0  0  0  0  0  0  0
    4.9775   -4.3904   23.2497 C   0  0  0  0  0  0  0  0  0  0  0  0
    3.8377   -4.4395   22.8229 O   0  0  0  0  0  0  0  0  0  0  0  0
    5.5351   -3.2102   24.0202 C   0  0  0  0  0  0  0  0  0  0  0  0
    4.7440   -2.6328   25.0331 C   0  0  0  0  0  0  0  0  0  0  0  0
    5.1866   -1.5249   25.7566 C   0  0  0  0  0  0  0  0  0  0  0  0
    6.4269   -0.9521   25.4686 C   0  0  0  0  0  0  0  0  0  0  0  0
    7.2088   -1.4856   24.4409 C   0  0  0  0  0  0  0  0  0  0  0  0
    6.7702   -2.5976   23.7071 C   0  0  0  0  0  0  0  0  0  0  0  0
    7.7544   -3.1231   22.3166 S   0  0  0  0  0  0  0  0  0  0  0  0
    6.8827   -2.1715   21.0365 C   0  0  0  0  0  0  0  0  0  0  0  0
    7.3748   -0.7278   20.9771 C   0  0  0  0  0  0  0  0  0  0  0  0
    6.6680    0.0413   19.8964 C   0  0  0  0  0  0  0  0  0  0  0  0
    5.4397    0.6645   20.1495 C   0  0  0  0  0  0  0  0  0  0  0  0
    4.7995    1.3154   19.0953 C   0  0  0  0  0  0  0  0  0  0  0  0
    5.3945    1.2967   17.8282 C   0  0  0  0  0  0  0  0  0  0  0  0
    6.5553    0.6800   17.5602 N   0  0  0  0  0  0  0  0  0  0  0  0
    7.1657    0.0761   18.5854 C   0  0  0  0  0  0  0  0  0  0  0  0
    8.1117   -0.4174   18.3634 H   0  0  0  0  0  0  0  0  0  0  0  0
    4.9127    1.7876   16.9874 H   0  0  0  0  0  0  0  0  0  0  0  0
    3.8667    1.8467   19.2520 H   0  0  0  0  0  0  0  0  0  0  0  0
    5.0087    0.6324   21.1553 H   0  0  0  0  0  0  0  0  0  0  0  0
    8.4589   -0.7275   20.8115 H   0  0  0  0  0  0  0  0  0  0  0  0
    7.1996   -0.2598   21.9548 H   0  0  0  0  0  0  0  0  0  0  0  0
    7.0287   -2.6713   20.0794 H   0  0  0  0  0  0  0  0  0  0  0  0
    5.8059   -2.2173   21.2294 H   0  0  0  0  0  0  0  0  0  0  0  0
    8.1649   -1.0372   24.1849 H   0  0  0  0  0  0  0  0  0  0  0  0
    6.7895   -0.0959   26.0331 H   0  0  0  0  0  0  0  0  0  0  0  0
    4.5689   -1.1081   26.5478 H   0  0  0  0  0  0  0  0  0  0  0  0
    3.7636   -3.0515   25.2396 H   0  0  0  0  0  0  0  0  0  0  0  0
    5.3640   -6.1944   22.5230 H   0  0  0  0  0  0  0  0  0  0  0  0
    6.7147   -5.5023   23.4277 H   0  0  0  0  0  0  0  0  0  0  0  0
  1  2  1  0
  2  3  2  0
  2  4  1  0
  4  5  2  0
  5  6  1  0
  6  7  2  0
  7  8  1  0
  8  9  2  0
  9 10  1  0
 10 11  1  0
 11 12  1  0
 12 13  1  0
 13 14  2  0
 14 15  1  0
 15 16  2  0
 16 17  1  0
 17 18  2  0
 18 19  1  0
 16 20  1  0
 15 21  1  0
 14 22  1  0
 12 23  1  0
 12 24  1  0
 11 25  1  0
 11 26  1  0
  8 27  1  0
  7 28  1  0
  6 29  1  0
  5 30  1  0
  1 31  1  0
  1 32  1  0
  9  4  1  0
 18 13  1  0
M  END
>  <plip>  (1) 
-0.06896551724137931

>  <filename>  (1) 
[H][c]1[n][c]([H])[c]([C]([H])([H])[C]([H])([H])[S][c]2[c]([H])[c]([H])[c]([H])[c]([H])[c]2[C](=[O])[N]([H])[H])[c]([H])[c]1[H]

$$$$
