
     RDKit          3D

 51 54  0  0  0  0  0  0  0  0999 V2000
    3.5430   -4.1228   28.2202 F   0  0  0  0  0  0  0  0  0  0  0  0
    3.5051   -4.9952   27.2042 C   0  0  0  0  0  0  0  0  0  0  0  0
    2.7416   -6.1520   27.3086 C   0  0  0  0  0  0  0  0  0  0  0  0
    2.7130   -7.0441   26.2291 C   0  0  0  0  0  0  0  0  0  0  0  0
    3.4371   -6.7696   25.0665 C   0  0  0  0  0  0  0  0  0  0  0  0
    4.2139   -5.5960   24.9395 C   0  0  0  0  0  0  0  0  0  0  0  0
    4.9540   -5.3196   23.6954 C   0  0  0  0  0  0  0  0  0  0  0  0
    5.0694   -6.0011   22.5163 C   0  0  0  0  0  0  0  0  0  0  0  0
    5.9455   -5.2386   21.6822 C   0  0  0  0  0  0  0  0  0  0  0  0
    6.3045   -4.1375   22.4033 C   0  0  0  0  0  0  0  0  0  0  0  0
    7.2310   -2.9794   22.1413 C   0  0  0  0  0  0  0  0  0  0  0  0
    6.5876   -1.8502   21.3943 N   0  0  0  0  0  4  0  0  0  0  0  0
    7.3787   -0.5810   21.1220 C   0  0  0  0  0  0  0  0  0  0  0  0
    7.6554    0.2882   22.3762 C   0  0  0  0  0  0  0  0  0  0  0  0
    9.1223    0.7556   22.5184 C   0  0  0  0  0  0  0  0  0  0  0  0
   10.1566   -0.3993   22.5889 C   0  0  0  0  0  0  0  0  0  0  0  0
   11.0330   -0.1688   21.3534 C   0  0  0  0  0  0  0  0  0  0  0  0
   10.9779    1.2277   21.1302 O   0  0  0  0  0  0  0  0  0  0  0  0
    9.6338    1.6128   21.3364 C   0  0  0  0  0  0  0  0  0  0  0  0
    9.0214    1.4328   20.4370 H   0  0  0  0  0  0  0  0  0  0  0  0
    9.6131    2.6880   21.5296 H   0  0  0  0  0  0  0  0  0  0  0  0
   12.0786   -0.4504   21.4956 H   0  0  0  0  0  0  0  0  0  0  0  0
   10.6545   -0.7147   20.4713 H   0  0  0  0  0  0  0  0  0  0  0  0
    9.7060   -1.3952   22.5913 H   0  0  0  0  0  0  0  0  0  0  0  0
   10.7634   -0.3459   23.4980 H   0  0  0  0  0  0  0  0  0  0  0  0
    9.2082    1.3392   23.4432 H   0  0  0  0  0  0  0  0  0  0  0  0
    7.3931   -0.2823   23.2762 H   0  0  0  0  0  0  0  0  0  0  0  0
    7.0004    1.1672   22.3808 H   0  0  0  0  0  0  0  0  0  0  0  0
    6.5943    0.0810   20.0060 C   0  0  0  0  0  0  0  0  0  0  0  0
    5.3741    0.7594   20.1768 C   0  0  0  0  0  0  0  0  0  0  0  0
    4.7798    1.3641   19.0641 C   0  0  0  0  0  0  0  0  0  0  0  0
    5.4119    1.2611   17.8221 C   0  0  0  0  0  0  0  0  0  0  0  0
    6.5421    0.5678   17.6274 N   0  0  0  0  0  0  0  0  0  0  0  0
    7.0936   -0.0163   18.6968 C   0  0  0  0  0  0  0  0  0  0  0  0
    7.9869   -0.6075   18.4896 H   0  0  0  0  0  0  0  0  0  0  0  0
    4.9805    1.7229   16.9348 H   0  0  0  0  0  0  0  0  0  0  0  0
    3.8426    1.9063   19.1419 H   0  0  0  0  0  0  0  0  0  0  0  0
    4.8953    0.8074   21.1574 H   0  0  0  0  0  0  0  0  0  0  0  0
    8.3535   -0.8675   20.7137 H   0  0  0  0  0  0  0  0  0  0  0  0
    6.2498   -2.1639   20.4541 H   0  0  0  0  0  0  0  0  0  0  0  0
    5.7410   -1.5158   21.9359 H   0  0  0  0  0  0  0  0  0  0  0  0
    8.1044   -3.3518   21.5902 H   0  0  0  0  0  0  0  0  0  0  0  0
    7.6026   -2.6371   23.1153 H   0  0  0  0  0  0  0  0  0  0  0  0
    5.7016   -4.1883   23.6214 O   0  0  0  0  0  0  0  0  0  0  0  0
    6.2708   -5.4912   20.6802 H   0  0  0  0  0  0  0  0  0  0  0  0
    4.5968   -6.9452   22.2841 H   0  0  0  0  0  0  0  0  0  0  0  0
    4.2376   -4.7163   26.0409 C   0  0  0  0  0  0  0  0  0  0  0  0
    4.9488   -3.5836   26.0159 F   0  0  0  0  0  0  0  0  0  0  0  0
    3.3916   -7.4787   24.2448 H   0  0  0  0  0  0  0  0  0  0  0  0
    2.1208   -7.9520   26.2988 H   0  0  0  0  0  0  0  0  0  0  0  0
    2.1883   -6.3306   28.2251 H   0  0  0  0  0  0  0  0  0  0  0  0
  1  2  1  0
  2  3  2  0
  3  4  1  0
  4  5  2  0
  5  6  1  0
  6  7  1  0
  7  8  2  0
  8  9  1  0
  9 10  2  0
 10 11  1  0
 11 12  1  0
 12 13  1  0
 13 14  1  0
 14 15  1  0
 15 16  1  0
 16 17  1  0
 17 18  1  0
 18 19  1  0
 19 20  1  0
 19 21  1  0
 17 22  1  0
 17 23  1  0
 16 24  1  0
 16 25  1  0
 15 26  1  0
 14 27  1  0
 14 28  1  0
 13 29  1  0
 29 30  2  0
 30 31  1  0
 31 32  2  0
 32 33  1  0
 33 34  2  0
 34 35  1  0
 32 36  1  0
 31 37  1  0
 30 38  1  0
 13 39  1  0
 12 40  1  0
 12 41  1  0
 11 42  1  0
 11 43  1  0
 10 44  1  0
  9 45  1  0
  8 46  1  0
  6 47  2  0
 47 48  1  0
  5 49  1  0
  4 50  1  0
  3 51  1  0
 47  2  1  0
 44  7  1  0
 19 15  1  0
 34 29  1  0
M  CHG  1  12   1
M  END
>  <plip>  (1) 
-0.14285714285714285

>  <filename>  (1) 
[H][c]1[n][c]([H])[c]([C]([H])([C]([H])([H])[C]2([H])[C]([H])([H])[O][C]([H])([H])[C]2([H])[H])[N+]([H])([H])[C]([H])([H])[c]2[o][c](-[c]3[c]([H])[c]([H])[c]([H])[c]([F])[c]3[F])[c]([H])[c]2[H])[c]([H])[c]1[H]

$$$$
