
     RDKit          3D

 34 36  0  0  0  0  0  0  0  0999 V2000
    5.0246    1.8083   16.9003 H   0  0  0  0  0  0  0  0  0  0  0  0
    5.4881    1.2984   17.7419 C   0  0  0  0  0  0  0  0  0  0  0  0
    6.6793    0.7191   17.5128 N   0  0  0  0  0  0  0  0  0  0  0  0
    7.2835    0.1093   18.5442 C   0  0  0  0  0  0  0  0  0  0  0  0
    8.2458   -0.3472   18.3170 H   0  0  0  0  0  0  0  0  0  0  0  0
    6.7533    0.0151   19.8659 C   0  0  0  0  0  0  0  0  0  0  0  0
    7.4320   -0.5486   20.9738 N   0  0  0  0  0  0  0  0  0  0  0  0
    8.8852   -0.5626   20.9996 C   0  0  0  0  0  0  0  0  0  0  0  0
    9.3274   -1.4434   20.5015 H   0  0  0  0  0  0  0  0  0  0  0  0
    9.2161   -0.5667   22.0435 H   0  0  0  0  0  0  0  0  0  0  0  0
    9.2748    0.3403   20.5190 H   0  0  0  0  0  0  0  0  0  0  0  0
    6.7828   -1.5401   21.8422 C   0  0  0  0  0  0  0  0  0  0  0  0
    5.7121   -1.5683   21.5928 H   0  0  0  0  0  0  0  0  0  0  0  0
    7.1750   -2.5416   21.6039 H   0  0  0  0  0  0  0  0  0  0  0  0
    6.9779   -1.3177   23.3428 C   0  0  0  0  0  0  0  0  0  0  0  0
    6.2618   -0.3725   24.0634 C   0  0  0  0  0  0  0  0  0  0  0  0
    5.6195    0.3440   23.5497 H   0  0  0  0  0  0  0  0  0  0  0  0
    6.2961   -0.3336   25.4824 C   0  0  0  0  0  0  0  0  0  0  0  0
    5.7168    0.4171   26.0149 H   0  0  0  0  0  0  0  0  0  0  0  0
    7.0658   -1.2256   26.1924 C   0  0  0  0  0  0  0  0  0  0  0  0
    7.1055   -1.2120   27.2802 H   0  0  0  0  0  0  0  0  0  0  0  0
    7.8947   -2.1517   25.4992 C   0  0  0  0  0  0  0  0  0  0  0  0
    8.7673   -3.0622   26.1712 C   0  0  0  0  0  0  0  0  0  0  0  0
    8.7138   -3.1421   27.2589 H   0  0  0  0  0  0  0  0  0  0  0  0
    9.6651   -3.7791   25.4226 C   0  0  0  0  0  0  0  0  0  0  0  0
   10.4027   -4.4281   25.8884 H   0  0  0  0  0  0  0  0  0  0  0  0
    9.6667   -3.6280   24.0124 C   0  0  0  0  0  0  0  0  0  0  0  0
   10.4209   -4.1399   23.4249 H   0  0  0  0  0  0  0  0  0  0  0  0
    8.8107   -2.8847   23.3436 N   0  0  0  0  0  0  0  0  0  0  0  0
    7.9096   -2.1406   24.0620 C   0  0  0  0  0  0  0  0  0  0  0  0
    5.4755    0.5840   20.0434 C   0  0  0  0  0  0  0  0  0  0  0  0
    5.0127    0.5220   21.0271 H   0  0  0  0  0  0  0  0  0  0  0  0
    4.8510    1.2458   18.9854 C   0  0  0  0  0  0  0  0  0  0  0  0
    3.8842    1.7239   19.1163 H   0  0  0  0  0  0  0  0  0  0  0  0
  1  2  1  0
  2  3  2  0
  3  4  1  0
  4  5  1  0
  4  6  2  0
  6  7  1  0
  7  8  1  0
  8  9  1  0
  8 10  1  0
  8 11  1  0
  7 12  1  0
 12 13  1  0
 12 14  1  0
 12 15  1  0
 15 16  2  0
 16 17  1  0
 16 18  1  0
 18 19  1  0
 18 20  2  0
 20 21  1  0
 20 22  1  0
 22 23  2  0
 23 24  1  0
 23 25  1  0
 25 26  1  0
 25 27  2  0
 27 28  1  0
 27 29  1  0
 29 30  2  0
  6 31  1  0
 31 32  1  0
 31 33  2  0
 33 34  1  0
 33  2  1  0
 30 15  1  0
 30 22  1  0
M  END
>  <plip>  (1) 
-0.03571428571428571

>  <filename>  (1) 
[H][c]1[n][c]([H])[c]([N]([C]([H])([H])[H])[C]([H])([H])[c]2[c]([H])[c]([H])[c]([H])[c]3[c]([H])[c]([H])[c]([H])[n][c]23)[c]([H])[c]1[H]

$$$$
