
     RDKit          3D

 38 39  0  0  0  0  0  0  0  0999 V2000
    4.4071   -7.5665   24.2356 C   0  0  0  0  0  0  0  0  0  0  0  0
    4.9820   -6.3231   24.5707 O   0  0  0  0  0  0  0  0  0  0  0  0
    5.4130   -6.1041   25.8483 C   0  0  0  0  0  0  0  0  0  0  0  0
    5.1985   -6.9698   26.9226 C   0  0  0  0  0  0  0  0  0  0  0  0
    5.6163   -6.6161   28.2114 C   0  0  0  0  0  0  0  0  0  0  0  0
    6.2071   -5.3749   28.4275 C   0  0  0  0  0  0  0  0  0  0  0  0
    6.5923   -4.8987   30.0499 Cl  0  0  0  0  0  0  0  0  0  0  0  0
    6.4417   -4.4984   27.3623 C   0  0  0  0  0  0  0  0  0  0  0  0
    6.0955   -4.8777   26.0686 C   0  0  0  0  0  0  0  0  0  0  0  0
    6.3203   -4.0243   24.9638 N   0  0  0  0  0  0  0  0  0  0  0  0
    7.4198   -3.2567   24.6768 C   0  0  0  0  0  0  0  0  0  0  0  0
    8.8952   -3.2826   25.3997 S   0  0  0  0  0  0  0  0  0  0  0  0
    7.1078   -2.4493   23.6080 N   0  0  0  0  0  0  0  0  0  0  0  0
    7.9322   -1.2614   23.2637 C   0  0  0  0  0  0  0  0  0  0  0  0
    7.3003   -0.2853   22.2508 C   0  0  0  0  0  0  0  0  0  0  0  0
    6.8963    0.8095   22.5887 O   0  0  0  0  0  0  0  0  0  0  0  0
    7.2496   -0.7364   20.9505 N   0  0  0  0  0  0  0  0  0  0  0  0
    6.6441   -0.0343   19.8653 C   0  0  0  0  0  0  0  0  0  0  0  0
    5.4692    0.6964   20.0769 C   0  0  0  0  0  0  0  0  0  0  0  0
    4.8813    1.3396   18.9837 C   0  0  0  0  0  0  0  0  0  0  0  0
    5.4893    1.2583   17.7287 C   0  0  0  0  0  0  0  0  0  0  0  0
    6.6336    0.5859   17.5144 N   0  0  0  0  0  0  0  0  0  0  0  0
    7.1910   -0.0402   18.5603 C   0  0  0  0  0  0  0  0  0  0  0  0
    8.1349   -0.5527   18.3717 H   0  0  0  0  0  0  0  0  0  0  0  0
    5.0486    1.7582   16.8679 H   0  0  0  0  0  0  0  0  0  0  0  0
    3.9782    1.9250   19.1114 H   0  0  0  0  0  0  0  0  0  0  0  0
    5.0569    0.7736   21.0792 H   0  0  0  0  0  0  0  0  0  0  0  0
    7.5193   -1.6953   20.8074 H   0  0  0  0  0  0  0  0  0  0  0  0
    8.8946   -1.6081   22.8652 H   0  0  0  0  0  0  0  0  0  0  0  0
    8.1436   -0.6492   24.1517 H   0  0  0  0  0  0  0  0  0  0  0  0
    6.1025   -2.3685   23.5043 H   0  0  0  0  0  0  0  0  0  0  0  0
    5.8761   -4.3234   24.1109 H   0  0  0  0  0  0  0  0  0  0  0  0
    6.8930   -3.5261   27.5214 H   0  0  0  0  0  0  0  0  0  0  0  0
    5.4723   -7.3028   29.0378 H   0  0  0  0  0  0  0  0  0  0  0  0
    4.6727   -7.9008   26.7571 H   0  0  0  0  0  0  0  0  0  0  0  0
    5.1481   -8.3731   24.2846 H   0  0  0  0  0  0  0  0  0  0  0  0
    4.0500   -7.4675   23.2108 H   0  0  0  0  0  0  0  0  0  0  0  0
    3.5608   -7.8044   24.8911 H   0  0  0  0  0  0  0  0  0  0  0  0
  1  2  1  0
  2  3  1  0
  3  4  2  0
  4  5  1  0
  5  6  2  0
  6  7  1  0
  6  8  1  0
  8  9  2  0
  9 10  1  0
 10 11  1  0
 11 12  2  0
 11 13  1  0
 13 14  1  0
 14 15  1  0
 15 16  2  0
 15 17  1  0
 17 18  1  0
 18 19  2  0
 19 20  1  0
 20 21  2  0
 21 22  1  0
 22 23  2  0
 23 24  1  0
 21 25  1  0
 20 26  1  0
 19 27  1  0
 17 28  1  0
 14 29  1  0
 14 30  1  0
 13 31  1  0
 10 32  1  0
  8 33  1  0
  5 34  1  0
  4 35  1  0
  1 36  1  0
  1 37  1  0
  1 38  1  0
  9  3  1  0
 23 18  1  0
M  END
>  <plip>  (1) 
-0.13793103448275862

>  <filename>  (1) 
[H][c]1[n][c]([H])[c]([N]([H])[C](=[O])[C]([H])([H])[N]([H])[C](=[S])[N]([H])[c]2[c]([H])[c]([Cl])[c]([H])[c]([H])[c]2[O][C]([H])([H])[H])[c]([H])[c]1[H]

$$$$
