
     RDKit          3D

 52 54  0  0  0  0  0  0  0  0999 V2000
    4.7375   -3.6511   25.2343 C   0  0  0  0  0  0  0  0  0  0  0  0
    3.8291   -3.6607   23.9887 C   0  0  0  0  0  0  0  0  0  0  0  0
    4.5818   -3.9214   22.6602 C   0  0  0  0  0  0  0  0  0  0  0  0
    5.5340   -2.8480   22.2494 N   0  0  0  0  0  4  0  0  0  0  0  0
    6.2441   -3.0192   20.9381 C   0  0  0  0  0  0  0  0  0  0  0  0
    7.4514   -2.0998   20.9155 C   0  0  2  0  0  0  0  0  0  0  0  0
    8.7089   -2.5436   21.6924 C   0  0  0  0  0  0  0  0  0  0  0  0
    9.4285   -1.2368   22.0631 C   0  0  0  0  0  0  0  0  0  0  0  0
    8.6407   -0.1409   21.3915 N   0  0  0  0  0  4  0  0  0  0  0  0
    8.7989    1.1987   22.0025 C   0  0  0  0  0  0  0  0  0  0  0  0
    8.3759    1.2134   23.0174 H   0  0  0  0  0  0  0  0  0  0  0  0
    8.2669    1.9565   21.4143 H   0  0  0  0  0  0  0  0  0  0  0  0
    9.8597    1.4740   22.0847 H   0  0  0  0  0  0  0  0  0  0  0  0
    7.1995   -0.6221   21.2395 C   0  0  1  0  0  0  0  0  0  0  0  0
    6.5073    0.1102   20.1042 C   0  0  0  0  0  0  0  0  0  0  0  0
    5.2699    0.7622   20.2204 C   0  0  0  0  0  0  0  0  0  0  0  0
    4.7321    1.3862   19.0898 C   0  0  0  0  0  0  0  0  0  0  0  0
    5.4333    1.3468   17.8844 C   0  0  0  0  0  0  0  0  0  0  0  0
    6.6136    0.7245   17.7517 N   0  0  0  0  0  0  0  0  0  0  0  0
    7.1238    0.1359   18.8360 C   0  0  0  0  0  0  0  0  0  0  0  0
    8.0810   -0.3645   18.6735 H   0  0  0  0  0  0  0  0  0  0  0  0
    5.0253    1.8154   16.9868 H   0  0  0  0  0  0  0  0  0  0  0  0
    3.7852    1.9116   19.1308 H   0  0  0  0  0  0  0  0  0  0  0  0
    4.7327    0.7983   21.1707 H   0  0  0  0  0  0  0  0  0  0  0  0
    6.6842   -0.4598   22.1943 H   0  0  0  0  0  0  0  0  0  0  0  0
    8.9935   -0.0870   20.4170 H   0  0  0  0  0  0  0  0  0  0  0  0
    9.4383   -1.0876   23.1476 H   0  0  0  0  0  0  0  0  0  0  0  0
   10.4664   -1.2210   21.7124 H   0  0  0  0  0  0  0  0  0  0  0  0
    9.3430   -3.1594   21.0491 H   0  0  0  0  0  0  0  0  0  0  0  0
    8.5098   -3.1557   22.5803 H   0  0  0  0  0  0  0  0  0  0  0  0
    7.7751   -1.9978   19.8839 H   0  0  0  0  0  0  0  0  0  0  0  0
    5.5745   -2.7854   20.0984 H   0  0  0  0  0  0  0  0  0  0  0  0
    6.5660   -4.0651   20.8130 H   0  0  0  0  0  0  0  0  0  0  0  0
    6.2799   -2.7537   22.9856 H   0  0  0  0  0  0  0  0  0  0  0  0
    5.0152   -1.9283   22.2383 H   0  0  0  0  0  0  0  0  0  0  0  0
    5.1163   -4.8800   22.7552 H   0  0  0  0  0  0  0  0  0  0  0  0
    3.8285   -4.0738   21.8788 H   0  0  0  0  0  0  0  0  0  0  0  0
    2.6820   -4.6834   24.0628 C   0  0  0  0  0  0  0  0  0  0  0  0
    2.9300   -6.0608   24.2272 C   0  0  0  0  0  0  0  0  0  0  0  0
    1.8825   -6.9936   24.2722 C   0  0  0  0  0  0  0  0  0  0  0  0
    0.5716   -6.5452   24.1181 C   0  0  0  0  0  0  0  0  0  0  0  0
   -0.4370   -7.4364   24.1621 F   0  0  0  0  0  0  0  0  0  0  0  0
    0.2826   -5.2004   23.9107 C   0  0  0  0  0  0  0  0  0  0  0  0
    1.3408   -4.2805   23.8932 C   0  0  0  0  0  0  0  0  0  0  0  0
    1.1048   -3.2266   23.7513 H   0  0  0  0  0  0  0  0  0  0  0  0
   -0.7499   -4.8921   23.7658 H   0  0  0  0  0  0  0  0  0  0  0  0
    2.0641   -8.0529   24.4201 H   0  0  0  0  0  0  0  0  0  0  0  0
    3.9525   -6.4284   24.3188 H   0  0  0  0  0  0  0  0  0  0  0  0
    3.3749   -2.6642   23.9471 H   0  0  0  0  0  0  0  0  0  0  0  0
    4.1449   -3.5299   26.1527 H   0  0  0  0  0  0  0  0  0  0  0  0
    5.4376   -2.8046   25.2016 H   0  0  0  0  0  0  0  0  0  0  0  0
    5.3155   -4.5805   25.3137 H   0  0  0  0  0  0  0  0  0  0  0  0
  1  2  1  0
  2  3  1  0
  3  4  1  0
  4  5  1  0
  5  6  1  0
  6  7  1  0
  7  8  1  0
  8  9  1  0
  9 10  1  0
 10 11  1  0
 10 12  1  0
 10 13  1  0
  9 14  1  0
 14 15  1  0
 15 16  2  0
 16 17  1  0
 17 18  2  0
 18 19  1  0
 19 20  2  0
 20 21  1  0
 18 22  1  0
 17 23  1  0
 16 24  1  0
 14 25  1  1
  9 26  1  0
  8 27  1  0
  8 28  1  0
  7 29  1  0
  7 30  1  0
  6 31  1  6
  5 32  1  0
  5 33  1  0
  4 34  1  0
  4 35  1  0
  3 36  1  0
  3 37  1  0
  2 38  1  0
 38 39  2  0
 39 40  1  0
 40 41  2  0
 41 42  1  0
 41 43  1  0
 43 44  2  0
 44 45  1  0
 43 46  1  0
 40 47  1  0
 39 48  1  0
  2 49  1  0
  1 50  1  0
  1 51  1  0
  1 52  1  0
 14  6  1  0
 20 15  1  0
 44 38  1  0
M  CHG  2   4   1   9   1
M  END
>  <plip>  (1) 
-0.1

>  <filename>  (1) 
[H][c]1[n][c]([H])[c]([C@@]2([H])[C@]([H])([C]([H])([H])[N+]([H])([H])[C]([H])([H])[C]([H])([c]3[c]([H])[c]([H])[c]([F])[c]([H])[c]3[H])[C]([H])([H])[H])[C]([H])([H])[C]([H])([H])[N+]2([H])[C]([H])([H])[H])[c]([H])[c]1[H]

$$$$
