
     RDKit          3D

 32 33  0  0  0  0  0  0  0  0999 V2000
    4.9258    1.8189   16.8334 H   0  0  0  0  0  0  0  0  0  0  0  0
    5.4041    1.3503   17.6899 C   0  0  0  0  0  0  0  0  0  0  0  0
    6.5923    0.7706   17.4612 N   0  0  0  0  0  0  0  0  0  0  0  0
    7.2161    0.2183   18.5027 C   0  0  0  0  0  0  0  0  0  0  0  0
    8.1895   -0.2245   18.2946 H   0  0  0  0  0  0  0  0  0  0  0  0
    6.6754    0.1742   19.8008 C   0  0  0  0  0  0  0  0  0  0  0  0
    7.5159   -0.5005   20.8413 C   0  0  0  0  0  0  0  0  0  0  0  0
    8.7091   -0.6152   20.6709 O   0  0  0  0  0  0  0  0  0  0  0  0
    6.7977   -1.0351   22.1247 C   0  0  0  0  0  0  0  0  0  0  0  0
    5.7618   -1.2088   21.8253 H   0  0  0  0  0  0  0  0  0  0  0  0
    6.7557   -0.2121   22.8459 H   0  0  0  0  0  0  0  0  0  0  0  0
    7.2947   -2.2365   22.7987 N   0  0  0  0  0  0  0  0  0  0  0  0
    8.1181   -2.1686   23.4107 H   0  0  0  0  0  0  0  0  0  0  0  0
    7.2434   -3.4767   22.2153 C   0  0  0  0  0  0  0  0  0  0  0  0
    6.3370   -3.7390   21.1678 C   0  0  0  0  0  0  0  0  0  0  0  0
    5.6009   -2.9850   20.9078 H   0  0  0  0  0  0  0  0  0  0  0  0
    6.3993   -4.9323   20.4584 C   0  0  0  0  0  0  0  0  0  0  0  0
    5.7501   -5.0774   19.5958 H   0  0  0  0  0  0  0  0  0  0  0  0
    7.3427   -5.9000   20.8246 C   0  0  0  0  0  0  0  0  0  0  0  0
    7.4619   -6.7681   20.1982 H   0  0  0  0  0  0  0  0  0  0  0  0
    8.1576   -5.7147   21.9404 C   0  0  0  0  0  0  0  0  0  0  0  0
    8.8707   -6.4875   22.2359 H   0  0  0  0  0  0  0  0  0  0  0  0
    8.1162   -4.5107   22.6701 C   0  0  0  0  0  0  0  0  0  0  0  0
    9.0259   -4.2370   23.8147 C   0  0  0  0  0  0  0  0  0  0  0  0
    9.3510   -3.1112   24.1895 O   0  0  0  0  0  0  0  0  0  0  0  0
    9.5880   -5.2885   24.4770 N   0  0  0  0  0  0  0  0  0  0  0  0
   10.0385   -4.9362   25.3105 H   0  0  0  0  0  0  0  0  0  0  0  0
    9.0997   -6.1630   24.5542 H   0  0  0  0  0  0  0  0  0  0  0  0
    5.4219    0.7677   20.0229 C   0  0  0  0  0  0  0  0  0  0  0  0
    4.9526    0.7901   21.0110 H   0  0  0  0  0  0  0  0  0  0  0  0
    4.7818    1.3703   18.9410 C   0  0  0  0  0  0  0  0  0  0  0  0
    3.8258    1.8671   19.0566 H   0  0  0  0  0  0  0  0  0  0  0  0
  1  2  1  0
  2  3  2  0
  3  4  1  0
  4  5  1  0
  4  6  2  0
  6  7  1  0
  7  8  2  0
  7  9  1  0
  9 10  1  0
  9 11  1  0
  9 12  1  0
 12 13  1  0
 12 14  1  0
 14 15  2  0
 15 16  1  0
 15 17  1  0
 17 18  1  0
 17 19  2  0
 19 20  1  0
 19 21  1  0
 21 22  1  0
 21 23  2  0
 23 24  1  0
 24 25  2  0
 24 26  1  0
 26 27  1  0
 26 28  1  0
  6 29  1  0
 29 30  1  0
 29 31  2  0
 31 32  1  0
 31  2  1  0
 23 14  1  0
M  END
>  <plip>  (1) 
-0.06896551724137931

>  <filename>  (1) 
[H][c]1[n][c]([H])[c]([C](=[O])[C]([H])([H])[N]([H])[c]2[c]([H])[c]([H])[c]([H])[c]([H])[c]2[C](=[O])[N]([H])[H])[c]([H])[c]1[H]

$$$$
