
     RDKit          3D

 38 41  0  0  0  0  0  0  0  0999 V2000
    9.5956    0.7766   20.3660 O   0  0  0  0  0  0  0  0  0  0  0  0
    9.1145    1.1416   21.4269 C   0  0  0  0  0  0  0  0  0  0  0  0
    8.0143    0.5424   21.9625 N   0  0  0  0  0  0  0  0  0  0  0  0
    7.3131   -0.4809   21.2037 C   0  0  0  0  0  0  0  0  0  0  0  0
    6.5649    0.1584   20.0372 C   0  0  0  0  0  0  0  0  0  0  0  0
    5.3071    0.7732   20.1708 C   0  0  0  0  0  0  0  0  0  0  0  0
    4.7233    1.3657   19.0469 C   0  0  0  0  0  0  0  0  0  0  0  0
    5.4113    1.3320   17.8301 C   0  0  0  0  0  0  0  0  0  0  0  0
    6.6273    0.7870   17.6882 N   0  0  0  0  0  0  0  0  0  0  0  0
    7.1889    0.2526   18.7804 C   0  0  0  0  0  0  0  0  0  0  0  0
    8.2062   -0.1099   18.6472 H   0  0  0  0  0  0  0  0  0  0  0  0
    4.9728    1.7494   16.9263 H   0  0  0  0  0  0  0  0  0  0  0  0
    3.7579    1.8598   19.0965 H   0  0  0  0  0  0  0  0  0  0  0  0
    4.8017    0.8126   21.1382 H   0  0  0  0  0  0  0  0  0  0  0  0
    8.2822   -1.6483   20.8448 C   0  0  0  0  0  0  0  0  0  0  0  0
    7.4416   -2.6386   21.6811 C   0  0  0  0  0  0  0  0  0  0  0  0
    6.5044   -1.4630   22.0756 C   0  0  0  0  0  0  0  0  0  0  0  0
    5.4868   -1.5920   21.7058 H   0  0  0  0  0  0  0  0  0  0  0  0
    6.5083   -1.1774   23.1347 H   0  0  0  0  0  0  0  0  0  0  0  0
    6.9630   -3.4485   21.1149 H   0  0  0  0  0  0  0  0  0  0  0  0
    7.9893   -3.0917   22.5148 H   0  0  0  0  0  0  0  0  0  0  0  0
    9.3041   -1.4883   21.1998 H   0  0  0  0  0  0  0  0  0  0  0  0
    8.3470   -1.7976   19.7750 H   0  0  0  0  0  0  0  0  0  0  0  0
    7.5499    0.9818   22.7384 H   0  0  0  0  0  0  0  0  0  0  0  0
    9.7135    2.2244   22.2554 C   0  0  0  0  0  0  0  0  0  0  0  0
    9.3857    2.7974   23.4470 C   0  0  0  0  0  0  0  0  0  0  0  0
   10.3879    3.7921   23.7033 C   0  0  0  0  0  0  0  0  0  0  0  0
   10.6017    4.7661   24.7014 C   0  0  0  0  0  0  0  0  0  0  0  0
   11.7548    5.5307   24.6040 C   0  0  0  0  0  0  0  0  0  0  0  0
   11.9994    6.4783   25.5299 F   0  0  0  0  0  0  0  0  0  0  0  0
   12.6894    5.3629   23.5633 C   0  0  0  0  0  0  0  0  0  0  0  0
   12.4618    4.4404   22.5431 C   0  0  0  0  0  0  0  0  0  0  0  0
   11.2936    3.6827   22.6327 C   0  0  0  0  0  0  0  0  0  0  0  0
   10.8804    2.7455   21.7564 O   0  0  0  0  0  0  0  0  0  0  0  0
   13.1551    4.2830   21.7176 H   0  0  0  0  0  0  0  0  0  0  0  0
   13.5810    5.9791   23.5762 H   0  0  0  0  0  0  0  0  0  0  0  0
    9.8998    4.9234   25.5116 H   0  0  0  0  0  0  0  0  0  0  0  0
    8.5740    2.5566   24.1225 H   0  0  0  0  0  0  0  0  0  0  0  0
  1  2  2  0
  2  3  1  0
  3  4  1  0
  4  5  1  0
  5  6  2  0
  6  7  1  0
  7  8  2  0
  8  9  1  0
  9 10  2  0
 10 11  1  0
  8 12  1  0
  7 13  1  0
  6 14  1  0
  4 15  1  0
 15 16  1  0
 16 17  1  0
 17 18  1  0
 17 19  1  0
 16 20  1  0
 16 21  1  0
 15 22  1  0
 15 23  1  0
  3 24  1  0
  2 25  1  0
 25 26  2  0
 26 27  1  0
 27 28  2  0
 28 29  1  0
 29 30  1  0
 29 31  2  0
 31 32  1  0
 32 33  2  0
 33 34  1  0
 32 35  1  0
 31 36  1  0
 28 37  1  0
 26 38  1  0
 17  4  1  0
 34 25  1  0
 10  5  1  0
 33 27  1  0
M  END
>  <plip>  (1) 
-0.07142857142857142

>  <filename>  (1) 
[H][c]1[n][c]([H])[c]([C]2([N]([H])[C](=[O])[c]3[o][c]4[c]([H])[c]([H])[c]([F])[c]([H])[c]4[c]3[H])[C]([H])([H])[C]([H])([H])[C]2([H])[H])[c]([H])[c]1[H]

$$$$
