
     RDKit          3D

 40 42  0  0  0  0  0  0  0  0999 V2000
    7.8345    0.2112   22.1319 C   0  0  0  0  0  0  0  0  0  0  0  0
    7.3820   -0.7651   21.0333 C   0  0  1  0  0  0  0  0  0  0  0  0
    6.6087   -1.8638   21.6188 N   0  0  0  0  0  0  0  0  0  0  0  0
    7.2196   -2.8623   22.3227 C   0  0  0  0  0  0  0  0  0  0  0  0
    8.4249   -3.0380   22.2509 O   0  0  0  0  0  0  0  0  0  0  0  0
    6.2926   -3.7997   23.1355 C   0  0  0  0  0  0  0  0  0  0  0  0
    5.6007   -3.3045   24.3962 C   0  0  0  0  0  0  0  0  0  0  0  0
    4.2735   -3.0087   24.4308 C   0  0  0  0  0  0  0  0  0  0  0  0
    3.6861   -2.2351   25.5000 C   0  0  0  0  0  0  0  0  0  0  0  0
    2.4162   -1.6177   25.3974 C   0  0  0  0  0  0  0  0  0  0  0  0
    1.9881   -0.7156   26.3563 C   0  0  0  0  0  0  0  0  0  0  0  0
    2.7826   -0.4589   27.4956 C   0  0  0  0  0  0  0  0  0  0  0  0
    4.0040   -1.1043   27.6506 C   0  0  0  0  0  0  0  0  0  0  0  0
    4.4803   -1.9500   26.6392 C   0  0  0  0  0  0  0  0  0  0  0  0
    5.7453   -2.5028   26.6948 N   0  0  0  0  0  0  0  0  0  0  0  0
    6.3949   -3.1338   25.6538 C   0  0  0  0  0  0  0  0  0  0  0  0
    7.5398   -3.5108   25.8317 O   0  0  0  0  0  0  0  0  0  0  0  0
    6.3858   -2.3238   27.4499 H   0  0  0  0  0  0  0  0  0  0  0  0
    4.6111   -0.9503   28.5375 H   0  0  0  0  0  0  0  0  0  0  0  0
    2.4355    0.2273   28.2670 H   0  0  0  0  0  0  0  0  0  0  0  0
    1.0467   -0.1863   26.2327 H   0  0  0  0  0  0  0  0  0  0  0  0
    1.8084   -1.8415   24.5234 H   0  0  0  0  0  0  0  0  0  0  0  0
    3.6341   -3.3071   23.6025 H   0  0  0  0  0  0  0  0  0  0  0  0
    5.5498   -4.1593   22.4112 H   0  0  0  0  0  0  0  0  0  0  0  0
    6.9288   -4.6439   23.3996 H   0  0  0  0  0  0  0  0  0  0  0  0
    5.6468   -1.6737   21.8397 H   0  0  0  0  0  0  0  0  0  0  0  0
    6.5973   -0.0876   19.9277 C   0  0  0  0  0  0  0  0  0  0  0  0
    5.3877    0.5930   20.1440 C   0  0  0  0  0  0  0  0  0  0  0  0
    4.7987    1.2780   19.0773 C   0  0  0  0  0  0  0  0  0  0  0  0
    5.4348    1.2636   17.8317 C   0  0  0  0  0  0  0  0  0  0  0  0
    6.5747    0.5996   17.5949 N   0  0  0  0  0  0  0  0  0  0  0  0
    7.1245   -0.0537   18.6264 C   0  0  0  0  0  0  0  0  0  0  0  0
    8.0533   -0.5826   18.4020 H   0  0  0  0  0  0  0  0  0  0  0  0
    5.0096    1.7934   16.9814 H   0  0  0  0  0  0  0  0  0  0  0  0
    3.8735    1.8307   19.1969 H   0  0  0  0  0  0  0  0  0  0  0  0
    4.9188    0.6098   21.1320 H   0  0  0  0  0  0  0  0  0  0  0  0
    8.2851   -1.2083   20.5903 H   0  0  0  0  0  0  0  0  0  0  0  0
    6.9747    0.6250   22.6731 H   0  0  0  0  0  0  0  0  0  0  0  0
    8.4560   -0.3269   22.8543 H   0  0  0  0  0  0  0  0  0  0  0  0
    8.4123    1.0432   21.7160 H   0  0  0  0  0  0  0  0  0  0  0  0
  1  2  1  0
  2  3  1  0
  3  4  1  0
  4  5  2  0
  4  6  1  0
  6  7  1  0
  7  8  2  0
  8  9  1  0
  9 10  2  0
 10 11  1  0
 11 12  2  0
 12 13  1  0
 13 14  2  0
 14 15  1  0
 15 16  1  0
 16 17  2  0
 15 18  1  0
 13 19  1  0
 12 20  1  0
 11 21  1  0
 10 22  1  0
  8 23  1  0
  6 24  1  0
  6 25  1  0
  3 26  1  0
  2 27  1  0
 27 28  2  0
 28 29  1  0
 29 30  2  0
 30 31  1  0
 31 32  2  0
 32 33  1  0
 30 34  1  0
 29 35  1  0
 28 36  1  0
  2 37  1  6
  1 38  1  0
  1 39  1  0
  1 40  1  0
 16  7  1  0
 32 27  1  0
 14  9  1  0
M  END
>  <plip>  (1) 
-0.03333333333333333

>  <filename>  (1) 
[H][c]1[n][c]([H])[c]([C@]([H])([N]([H])[C](=[O])[C]([H])([H])[c]2[c]([H])[c]3[c]([H])[c]([H])[c]([H])[c]([H])[c]3[n]([H])[c]2=[O])[C]([H])([H])[H])[c]([H])[c]1[H]

$$$$
