
     RDKit          3D

 36 37  0  0  0  0  0  0  0  0999 V2000
    6.3633   -3.2465   23.4453 C   0  0  0  0  0  0  0  0  0  0  0  0
    6.2368   -3.9030   22.0692 C   0  0  0  0  0  0  0  0  0  0  0  0
    6.2646   -2.9487   20.8673 C   0  0  0  0  0  0  0  0  0  0  0  0
    7.4799   -2.0967   20.7893 N   0  0  0  0  0  4  0  0  0  0  0  0
    7.2674   -0.6272   21.1127 C   0  0  0  0  0  0  0  0  0  0  0  0
    6.5655    0.0439   19.9477 C   0  0  0  0  0  0  0  0  0  0  0  0
    5.3480    0.7060   20.1296 C   0  0  0  0  0  0  0  0  0  0  0  0
    4.7541    1.3434   19.0406 C   0  0  0  0  0  0  0  0  0  0  0  0
    5.3999    1.2874   17.8031 C   0  0  0  0  0  0  0  0  0  0  0  0
    6.5605    0.6448   17.6071 N   0  0  0  0  0  0  0  0  0  0  0  0
    7.1297    0.0471   18.6637 C   0  0  0  0  0  0  0  0  0  0  0  0
    8.0960   -0.4202   18.4579 H   0  0  0  0  0  0  0  0  0  0  0  0
    4.9692    1.7939   16.9394 H   0  0  0  0  0  0  0  0  0  0  0  0
    3.8294    1.8968   19.1478 H   0  0  0  0  0  0  0  0  0  0  0  0
    4.8777    0.7301   21.1154 H   0  0  0  0  0  0  0  0  0  0  0  0
    8.6100   -0.0593   21.4113 C   0  0  0  0  0  0  0  0  0  0  0  0
    8.8949    1.1090   22.1046 C   0  0  0  0  0  0  0  0  0  0  0  0
   10.2280    1.3168   21.9896 N   0  0  0  0  0  0  0  0  0  0  0  0
   10.9975    2.4468   22.4700 C   0  0  0  0  0  0  0  0  0  0  0  0
   12.0488    2.1553   22.5049 H   0  0  0  0  0  0  0  0  0  0  0  0
   10.8863    3.3047   21.8016 H   0  0  0  0  0  0  0  0  0  0  0  0
   10.6715    2.7284   23.4734 H   0  0  0  0  0  0  0  0  0  0  0  0
   10.8290    0.3700   21.2669 N   0  0  0  0  0  0  0  0  0  0  0  0
    9.8670   -0.4800   20.9334 C   0  0  0  0  0  0  0  0  0  0  0  0
   10.1332   -1.3784   20.3873 H   0  0  0  0  0  0  0  0  0  0  0  0
    8.2725    1.7996   22.6687 H   0  0  0  0  0  0  0  0  0  0  0  0
    6.6081   -0.5698   21.9878 H   0  0  0  0  0  0  0  0  0  0  0  0
    8.2508   -2.4318   21.4020 H   0  0  0  0  0  0  0  0  0  0  0  0
    7.8354   -2.0544   19.8131 H   0  0  0  0  0  0  0  0  0  0  0  0
    6.1861   -3.5289   19.9401 H   0  0  0  0  0  0  0  0  0  0  0  0
    5.3802   -2.2989   20.9293 H   0  0  0  0  0  0  0  0  0  0  0  0
    7.0275   -4.6551   21.9496 H   0  0  0  0  0  0  0  0  0  0  0  0
    5.2822   -4.4473   22.0127 H   0  0  0  0  0  0  0  0  0  0  0  0
    5.5595   -2.5261   23.6289 H   0  0  0  0  0  0  0  0  0  0  0  0
    7.3174   -2.7129   23.5658 H   0  0  0  0  0  0  0  0  0  0  0  0
    6.3048   -4.0210   24.2228 H   0  0  0  0  0  0  0  0  0  0  0  0
  1  2  1  0
  2  3  1  0
  3  4  1  0
  4  5  1  0
  5  6  1  0
  6  7  2  0
  7  8  1  0
  8  9  2  0
  9 10  1  0
 10 11  2  0
 11 12  1  0
  9 13  1  0
  8 14  1  0
  7 15  1  0
  5 16  1  0
 16 17  2  0
 17 18  1  0
 18 19  1  0
 19 20  1  0
 19 21  1  0
 19 22  1  0
 18 23  1  0
 23 24  2  0
 24 25  1  0
 17 26  1  0
  5 27  1  0
  4 28  1  0
  4 29  1  0
  3 30  1  0
  3 31  1  0
  2 32  1  0
  2 33  1  0
  1 34  1  0
  1 35  1  0
  1 36  1  0
 11  6  1  0
 24 16  1  0
M  CHG  1   4   1
M  END
>  <plip>  (1) 
-0.03571428571428571

>  <filename>  (1) 
[H][c]1[n][c]([H])[c]([C]([H])([c]2[c]([H])[n][n]([C]([H])([H])[H])[c]2[H])[N+]([H])([H])[C]([H])([H])[C]([H])([H])[C]([H])([H])[H])[c]([H])[c]1[H]

$$$$
