
     RDKit          3D

 39 40  0  0  0  0  0  0  0  0999 V2000
    7.4466   -2.0051   21.2122 C   0  0  0  0  0  0  0  0  0  0  0  0
    6.7367   -0.7396   21.3951 N   0  0  0  0  0  0  0  0  0  0  0  0
    6.5042   -0.2738   22.7019 C   0  0  0  0  0  0  0  0  0  0  0  0
    5.8029    0.7040   22.9222 O   0  0  0  0  0  0  0  0  0  0  0  0
    7.3360   -0.8085   23.8681 C   0  0  0  0  0  0  0  0  0  0  0  0
    6.5464   -0.7683   25.1581 C   0  0  0  0  0  0  0  0  0  0  0  0
    5.4955   -1.7409   24.9076 N   0  0  0  0  0  0  0  0  0  0  0  0
    4.0021   -1.5060   25.6917 S   0  0  0  0  0  0  0  0  0  0  0  0
    3.0696   -2.3764   24.9649 O   0  0  0  0  0  0  0  0  0  0  0  0
    3.6357   -0.0921   25.5389 O   0  0  0  0  0  0  0  0  0  0  0  0
    4.1537   -2.0214   27.4417 C   0  0  0  0  0  0  0  0  0  0  0  0
    4.0719   -3.3814   27.8096 C   0  0  0  0  0  0  0  0  0  0  0  0
    4.0656   -3.7394   29.1629 C   0  0  0  0  0  0  0  0  0  0  0  0
    4.1269   -2.7698   30.1624 C   0  0  0  0  0  0  0  0  0  0  0  0
    4.0376   -3.2656   32.0080 Br  0  0  0  0  0  0  0  0  0  0  0  0
    4.2171   -1.4274   29.7999 C   0  0  0  0  0  0  0  0  0  0  0  0
    4.2243   -1.0469   28.4557 C   0  0  0  0  0  0  0  0  0  0  0  0
    4.2616    0.0170   28.2254 H   0  0  0  0  0  0  0  0  0  0  0  0
    4.2734   -0.6754   30.5773 H   0  0  0  0  0  0  0  0  0  0  0  0
    3.9971   -4.7789   29.4596 H   0  0  0  0  0  0  0  0  0  0  0  0
    3.9822   -4.1810   27.0741 H   0  0  0  0  0  0  0  0  0  0  0  0
    5.2409   -1.7300   23.9269 H   0  0  0  0  0  0  0  0  0  0  0  0
    6.1718    0.2466   25.3384 H   0  0  0  0  0  0  0  0  0  0  0  0
    7.1593   -1.0561   26.0226 H   0  0  0  0  0  0  0  0  0  0  0  0
    8.2252   -0.1847   23.9673 H   0  0  0  0  0  0  0  0  0  0  0  0
    7.6568   -1.8320   23.6630 H   0  0  0  0  0  0  0  0  0  0  0  0
    6.3207   -0.0555   20.2156 C   0  0  0  0  0  0  0  0  0  0  0  0
    5.3045    0.9069   20.2400 C   0  0  0  0  0  0  0  0  0  0  0  0
    4.9739    1.5634   19.0478 C   0  0  0  0  0  0  0  0  0  0  0  0
    5.6530    1.2591   17.8618 C   0  0  0  0  0  0  0  0  0  0  0  0
    6.6145    0.3214   17.8061 N   0  0  0  0  0  0  0  0  0  0  0  0
    6.9258   -0.3141   18.9564 C   0  0  0  0  0  0  0  0  0  0  0  0
    7.7088   -1.0650   18.9263 H   0  0  0  0  0  0  0  0  0  0  0  0
    5.3993    1.7999   16.9548 H   0  0  0  0  0  0  0  0  0  0  0  0
    4.2022    2.3254   19.0269 H   0  0  0  0  0  0  0  0  0  0  0  0
    4.7815    1.1426   21.1636 H   0  0  0  0  0  0  0  0  0  0  0  0
    8.5155   -1.8399   21.0384 H   0  0  0  0  0  0  0  0  0  0  0  0
    7.3202   -2.6567   22.0815 H   0  0  0  0  0  0  0  0  0  0  0  0
    7.0295   -2.5340   20.3498 H   0  0  0  0  0  0  0  0  0  0  0  0
  1  2  1  0
  2  3  1  0
  3  4  2  0
  3  5  1  0
  5  6  1  0
  6  7  1  0
  7  8  1  0
  8  9  2  0
  8 10  2  0
  8 11  1  0
 11 12  2  0
 12 13  1  0
 13 14  2  0
 14 15  1  0
 14 16  1  0
 16 17  2  0
 17 18  1  0
 16 19  1  0
 13 20  1  0
 12 21  1  0
  7 22  1  0
  6 23  1  0
  6 24  1  0
  5 25  1  0
  5 26  1  0
  2 27  1  0
 27 28  2  0
 28 29  1  0
 29 30  2  0
 30 31  1  0
 31 32  2  0
 32 33  1  0
 30 34  1  0
 29 35  1  0
 28 36  1  0
  1 37  1  0
  1 38  1  0
  1 39  1  0
 17 11  1  0
 32 27  1  0
M  END
>  <plip>  (1) 
-0.14285714285714285

>  <filename>  (1) 
[H][c]1[n][c]([H])[c]([N]([C](=[O])[C]([H])([H])[C]([H])([H])[N]([H])[S](=[O])(=[O])[c]2[c]([H])[c]([H])[c]([Br])[c]([H])[c]2[H])[C]([H])([H])[H])[c]([H])[c]1[H]

$$$$
