
     RDKit          3D

 33 35  0  0  0  0  0  0  0  0999 V2000
    5.0008    1.8466   16.9262 H   0  0  0  0  0  0  0  0  0  0  0  0
    5.4641    1.3382   17.7711 C   0  0  0  0  0  0  0  0  0  0  0  0
    6.6611    0.7697   17.5357 N   0  0  0  0  0  0  0  0  0  0  0  0
    7.2468    0.1436   18.5585 C   0  0  0  0  0  0  0  0  0  0  0  0
    8.2265   -0.2873   18.3879 H   0  0  0  0  0  0  0  0  0  0  0  0
    6.6597   -0.0047   19.8291 C   0  0  0  0  0  0  0  0  0  0  0  0
    7.3430   -0.7588   20.8262 N   0  0  0  0  0  0  0  0  0  0  0  0
    8.6635   -0.4003   20.9542 N   0  0  0  0  0  0  0  0  0  0  0  0
    9.3623   -1.0011   21.8649 C   0  0  0  0  0  0  0  0  0  0  0  0
   10.3986   -0.6803   21.9307 H   0  0  0  0  0  0  0  0  0  0  0  0
    8.8352   -2.0394   22.7123 C   0  0  0  0  0  0  0  0  0  0  0  0
    9.6728   -2.6320   23.8101 C   0  0  0  0  0  0  0  0  0  0  0  0
    9.4372   -3.6971   23.9063 H   0  0  0  0  0  0  0  0  0  0  0  0
   10.7399   -2.5808   23.5569 H   0  0  0  0  0  0  0  0  0  0  0  0
    9.3880   -1.9153   25.1095 C   0  0  0  0  0  0  0  0  0  0  0  0
   10.1504   -0.8019   25.4669 C   0  0  0  0  0  0  0  0  0  0  0  0
   10.9716   -0.4635   24.8363 H   0  0  0  0  0  0  0  0  0  0  0  0
    9.9227   -0.1286   26.6614 C   0  0  0  0  0  0  0  0  0  0  0  0
   10.6013    0.6624   26.9246 H   0  0  0  0  0  0  0  0  0  0  0  0
    8.8559   -0.5187   27.4711 C   0  0  0  0  0  0  0  0  0  0  0  0
    8.6282    0.1229   28.6300 F   0  0  0  0  0  0  0  0  0  0  0  0
    8.0221   -1.5719   27.1002 C   0  0  0  0  0  0  0  0  0  0  0  0
    7.1550   -1.8131   27.7037 H   0  0  0  0  0  0  0  0  0  0  0  0
    8.3094   -2.2816   25.9296 C   0  0  0  0  0  0  0  0  0  0  0  0
    7.6918   -3.1371   25.6586 H   0  0  0  0  0  0  0  0  0  0  0  0
    7.5225   -2.3921   22.5715 C   0  0  0  0  0  0  0  0  0  0  0  0
    7.0220   -3.1031   23.2194 H   0  0  0  0  0  0  0  0  0  0  0  0
    6.6808   -1.8398   21.5339 C   0  0  0  0  0  0  0  0  0  0  0  0
    5.5601   -2.2234   21.2482 O   0  0  0  0  0  0  0  0  0  0  0  0
    5.4361    0.6173   20.0829 C   0  0  0  0  0  0  0  0  0  0  0  0
    4.9933    0.5841   21.0794 H   0  0  0  0  0  0  0  0  0  0  0  0
    4.8341    1.3059   19.0206 C   0  0  0  0  0  0  0  0  0  0  0  0
    3.9000    1.8382   19.1579 H   0  0  0  0  0  0  0  0  0  0  0  0
  1  2  1  0
  2  3  2  0
  3  4  1  0
  4  5  1  0
  4  6  2  0
  6  7  1  0
  7  8  1  0
  8  9  2  0
  9 10  1  0
  9 11  1  0
 11 12  1  0
 12 13  1  0
 12 14  1  0
 12 15  1  0
 15 16  2  0
 16 17  1  0
 16 18  1  0
 18 19  1  0
 18 20  2  0
 20 21  1  0
 20 22  1  0
 22 23  1  0
 22 24  2  0
 24 25  1  0
 11 26  2  0
 26 27  1  0
 26 28  1  0
 28 29  2  0
  6 30  1  0
 30 31  1  0
 30 32  2  0
 32 33  1  0
 32  2  1  0
 28  7  1  0
 24 15  1  0
M  END
>  <plip>  (1) 
-0.10344827586206896

>  <filename>  (1) 
[H][c]1[n][c]([H])[c](-[n]2[n][c]([H])[c]([C]([H])([H])[c]3[c]([H])[c]([H])[c]([F])[c]([H])[c]3[H])[c]([H])[c]2=[O])[c]([H])[c]1[H]

$$$$
