
     RDKit          3D

 28 29  0  0  0  0  0  0  0  0999 V2000
    5.7911   -5.4023   22.2728 C   0  0  0  0  0  0  0  0  0  0  0  0
    6.6534   -4.7578   20.8504 S   0  0  0  0  0  0  0  0  0  0  0  0
    8.1110   -4.8741   20.9866 O   0  0  0  0  0  0  0  0  0  0  0  0
    6.1213   -5.2931   19.5956 O   0  0  0  0  0  0  0  0  0  0  0  0
    6.1558   -3.1759   20.8488 N   0  0  0  0  0  0  0  0  0  0  0  0
    7.0052   -2.3448   21.4855 C   0  0  0  0  0  0  0  0  0  0  0  0
    7.6732   -2.9174   22.4847 N   0  0  0  0  0  0  0  0  0  0  0  0
    8.4731   -2.1385   23.2301 C   0  0  0  0  0  0  0  0  0  0  0  0
    8.6086   -0.7588   23.0074 C   0  0  0  0  0  0  0  0  0  0  0  0
    9.7251    0.3273   24.1256 Br  0  0  0  0  0  0  0  0  0  0  0  0
    7.9281   -0.1772   21.9447 C   0  0  0  0  0  0  0  0  0  0  0  0
    7.1184   -0.9730   21.1366 C   0  0  0  0  0  0  0  0  0  0  0  0
    6.4584   -0.2756   20.0009 C   0  0  0  0  0  0  0  0  0  0  0  0
    5.3097    0.4973   20.2014 C   0  0  0  0  0  0  0  0  0  0  0  0
    4.8253    1.2512   19.1285 C   0  0  0  0  0  0  0  0  0  0  0  0
    5.4807    1.2205   17.8939 C   0  0  0  0  0  0  0  0  0  0  0  0
    6.5960    0.4951   17.6967 N   0  0  0  0  0  0  0  0  0  0  0  0
    7.0754   -0.2190   18.7323 C   0  0  0  0  0  0  0  0  0  0  0  0
    8.0054   -0.7623   18.5930 H   0  0  0  0  0  0  0  0  0  0  0  0
    5.0858    1.8114   17.0723 H   0  0  0  0  0  0  0  0  0  0  0  0
    3.9551    1.8876   19.2373 H   0  0  0  0  0  0  0  0  0  0  0  0
    4.8336    0.5428   21.1801 H   0  0  0  0  0  0  0  0  0  0  0  0
    8.0062    0.8935   21.7534 H   0  0  0  0  0  0  0  0  0  0  0  0
    9.0197   -2.5930   24.0527 H   0  0  0  0  0  0  0  0  0  0  0  0
    5.8970   -2.9007   19.9212 H   0  0  0  0  0  0  0  0  0  0  0  0
    5.8934   -6.4847   22.3111 H   0  0  0  0  0  0  0  0  0  0  0  0
    4.7354   -5.1292   22.2135 H   0  0  0  0  0  0  0  0  0  0  0  0
    6.2444   -4.9725   23.1646 H   0  0  0  0  0  0  0  0  0  0  0  0
  1  2  1  0
  2  3  2  0
  2  4  2  0
  2  5  1  0
  5  6  1  0
  6  7  2  0
  7  8  1  0
  8  9  2  0
  9 10  1  0
  9 11  1  0
 11 12  2  0
 12 13  1  0
 13 14  2  0
 14 15  1  0
 15 16  2  0
 16 17  1  0
 17 18  2  0
 18 19  1  0
 16 20  1  0
 15 21  1  0
 14 22  1  0
 11 23  1  0
  8 24  1  0
  5 25  1  0
  1 26  1  0
  1 27  1  0
  1 28  1  0
 12  6  1  0
 18 13  1  0
M  END
>  <plip>  (1) 
-0.10344827586206896

>  <filename>  (1) 
[H][c]1[n][c]([H])[c](-[c]2[c]([N]([H])[S](=[O])(=[O])[C]([H])([H])[H])[n][c]([H])[c]([Br])[c]2[H])[c]([H])[c]1[H]

$$$$
