
     RDKit          3D

 35 37  0  0  0  0  0  0  0  0999 V2000
    5.6446   -2.4606   21.1343 O   0  0  0  0  0  0  0  0  0  0  0  0
    6.6624   -1.8831   21.4666 C   0  0  0  0  0  0  0  0  0  0  0  0
    7.3071   -0.9431   20.6631 N   0  0  0  0  0  0  0  0  0  0  0  0
    6.6802   -0.1399   19.6559 C   0  0  0  0  0  0  0  0  0  0  0  0
    5.4634    0.5030   19.9190 C   0  0  0  0  0  0  0  0  0  0  0  0
    4.8648    1.2680   18.9101 C   0  0  0  0  0  0  0  0  0  0  0  0
    5.5046    1.3673   17.6714 C   0  0  0  0  0  0  0  0  0  0  0  0
    6.6899    0.7862   17.4101 N   0  0  0  0  0  0  0  0  0  0  0  0
    7.2668    0.0733   18.3871 C   0  0  0  0  0  0  0  0  0  0  0  0
    8.2452   -0.3551   18.1652 H   0  0  0  0  0  0  0  0  0  0  0  0
    5.0576    1.9313   16.8546 H   0  0  0  0  0  0  0  0  0  0  0  0
    3.9276    1.7929   19.0762 H   0  0  0  0  0  0  0  0  0  0  0  0
    5.0240    0.4059   20.9092 H   0  0  0  0  0  0  0  0  0  0  0  0
    8.0922   -0.5241   21.1224 H   0  0  0  0  0  0  0  0  0  0  0  0
    7.3141   -2.1396   22.6696 N   0  0  0  0  0  0  0  0  0  0  0  0
    6.5824   -2.9613   23.6615 C   0  0  0  0  0  0  0  0  0  0  0  0
    7.5358   -3.6017   24.6754 C   0  0  0  0  0  0  0  0  0  0  0  0
    8.3249   -2.5218   25.3879 C   0  0  0  0  0  0  0  0  0  0  0  0
    8.5089   -2.4088   26.7730 C   0  0  0  0  0  0  0  0  0  0  0  0
    9.3258   -1.4050   27.3078 C   0  0  0  0  0  0  0  0  0  0  0  0
   10.0057   -0.5360   26.4476 C   0  0  0  0  0  0  0  0  0  0  0  0
   10.9188    0.3696   26.8827 O   0  0  0  0  0  0  0  0  0  0  0  0
   10.5996    0.7753   27.7131 H   0  0  0  0  0  0  0  0  0  0  0  0
    9.7923   -0.6098   25.0767 C   0  0  0  0  0  0  0  0  0  0  0  0
    8.8739   -1.5240   24.5639 C   0  0  0  0  0  0  0  0  0  0  0  0
    8.4546   -1.3297   23.1235 C   0  0  0  0  0  0  0  0  0  0  0  0
    8.2159   -0.2561   23.0186 H   0  0  0  0  0  0  0  0  0  0  0  0
    9.3478   -1.5124   22.5038 H   0  0  0  0  0  0  0  0  0  0  0  0
   10.3286    0.0895   24.4441 H   0  0  0  0  0  0  0  0  0  0  0  0
    9.4841   -1.2900   28.3752 H   0  0  0  0  0  0  0  0  0  0  0  0
    7.9955   -3.1121   27.4263 H   0  0  0  0  0  0  0  0  0  0  0  0
    6.9656   -4.2202   25.3765 H   0  0  0  0  0  0  0  0  0  0  0  0
    8.2330   -4.2690   24.1479 H   0  0  0  0  0  0  0  0  0  0  0  0
    6.0136   -3.7289   23.1275 H   0  0  0  0  0  0  0  0  0  0  0  0
    5.8604   -2.3346   24.2101 H   0  0  0  0  0  0  0  0  0  0  0  0
  1  2  2  0
  2  3  1  0
  3  4  1  0
  4  5  2  0
  5  6  1  0
  6  7  2  0
  7  8  1  0
  8  9  2  0
  9 10  1  0
  7 11  1  0
  6 12  1  0
  5 13  1  0
  3 14  1  0
  2 15  1  0
 15 16  1  0
 16 17  1  0
 17 18  1  0
 18 19  2  0
 19 20  1  0
 20 21  2  0
 21 22  1  0
 22 23  1  0
 21 24  1  0
 24 25  2  0
 25 26  1  0
 26 27  1  0
 26 28  1  0
 24 29  1  0
 20 30  1  0
 19 31  1  0
 17 32  1  0
 17 33  1  0
 16 34  1  0
 16 35  1  0
  9  4  1  0
 26 15  1  0
 25 18  1  0
M  END
>  <plip>  (1) 
-0.10344827586206896

>  <filename>  (1) 
[H][O][c]1[c]([H])[c]([H])[c]2[c]([c]1[H])[C]([H])([H])[N]([C](=[O])[N]([H])[c]1[c]([H])[n][c]([H])[c]([H])[c]1[H])[C]([H])([H])[C]2([H])[H]

$$$$
