
     RDKit          3D

 33 35  0  0  0  0  0  0  0  0999 V2000
    4.9475    1.8498   16.9004 H   0  0  0  0  0  0  0  0  0  0  0  0
    5.3933    1.3394   17.7508 C   0  0  0  0  0  0  0  0  0  0  0  0
    6.5467    0.6998   17.5114 N   0  0  0  0  0  0  0  0  0  0  0  0
    7.1240    0.0687   18.5386 C   0  0  0  0  0  0  0  0  0  0  0  0
    8.0729   -0.4241   18.3287 H   0  0  0  0  0  0  0  0  0  0  0  0
    6.5826    0.0270   19.8396 C   0  0  0  0  0  0  0  0  0  0  0  0
    7.2609   -0.6904   20.9703 C   0  0  0  0  0  0  0  0  0  0  0  0
    6.4641   -1.3747   21.7534 N   0  0  0  0  0  0  0  0  0  0  0  0
    6.9912   -2.0632   22.8089 N   0  0  0  0  0  0  0  0  0  0  0  0
    5.9585   -3.0824   23.8003 S   0  0  0  0  0  0  0  0  0  0  0  0
    6.3101   -2.6694   25.1442 O   0  0  0  0  0  0  0  0  0  0  0  0
    4.6116   -3.1567   23.2827 O   0  0  0  0  0  0  0  0  0  0  0  0
    6.6153   -4.7202   23.4787 C   0  0  0  0  0  0  0  0  0  0  0  0
    7.7614   -5.1922   24.1391 C   0  0  0  0  0  0  0  0  0  0  0  0
    8.1693   -4.7341   25.0440 H   0  0  0  0  0  0  0  0  0  0  0  0
    8.3911   -6.3250   23.6171 C   0  0  0  0  0  0  0  0  0  0  0  0
    9.3378   -6.6355   24.0426 H   0  0  0  0  0  0  0  0  0  0  0  0
    7.8196   -7.0424   22.5590 C   0  0  0  0  0  0  0  0  0  0  0  0
    8.2750   -7.9590   22.2001 H   0  0  0  0  0  0  0  0  0  0  0  0
    6.6156   -6.6027   21.9993 C   0  0  0  0  0  0  0  0  0  0  0  0
    6.1080   -7.1518   21.2255 H   0  0  0  0  0  0  0  0  0  0  0  0
    6.0028   -5.4388   22.4442 C   0  0  0  0  0  0  0  0  0  0  0  0
    5.0859   -5.0875   21.9659 H   0  0  0  0  0  0  0  0  0  0  0  0
    8.3547   -2.0552   23.1152 C   0  0  0  0  0  0  0  0  0  0  0  0
    8.6863   -2.5974   23.9986 H   0  0  0  0  0  0  0  0  0  0  0  0
    9.2193   -1.3946   22.3504 C   0  0  0  0  0  0  0  0  0  0  0  0
   10.2846   -1.3912   22.5299 H   0  0  0  0  0  0  0  0  0  0  0  0
    8.7551   -0.6091   21.2198 C   0  0  0  0  0  0  0  0  0  0  0  0
    9.5397    0.0515   20.5450 O   0  0  0  0  0  0  0  0  0  0  0  0
    5.3581    0.6767   20.0596 C   0  0  0  0  0  0  0  0  0  0  0  0
    4.8994    0.6361   21.0487 H   0  0  0  0  0  0  0  0  0  0  0  0
    4.7634    1.3584   18.9995 C   0  0  0  0  0  0  0  0  0  0  0  0
    3.8286    1.8937   19.1253 H   0  0  0  0  0  0  0  0  0  0  0  0
  1  2  1  0
  2  3  2  0
  3  4  1  0
  4  5  1  0
  4  6  2  0
  6  7  1  0
  7  8  2  0
  8  9  1  0
  9 10  1  0
 10 11  2  0
 10 12  2  0
 10 13  1  0
 13 14  2  0
 14 15  1  0
 14 16  1  0
 16 17  1  0
 16 18  2  0
 18 19  1  0
 18 20  1  0
 20 21  1  0
 20 22  2  0
 22 23  1  0
  9 24  1  0
 24 25  1  0
 24 26  2  0
 26 27  1  0
 26 28  1  0
 28 29  2  0
  6 30  1  0
 30 31  1  0
 30 32  2  0
 32 33  1  0
 32  2  1  0
 28  7  1  0
 22 13  1  0
M  END
>  <plip>  (1) 
-0.13333333333333333

>  <filename>  (1) 
[H][c]1[n][c]([H])[c](-[c]2[n][n]([S](=[O])(=[O])[c]3[c]([H])[c]([H])[c]([H])[c]([H])[c]3[H])[c]([H])[c]([H])[c]2=[O])[c]([H])[c]1[H]

$$$$
