
     RDKit          3D

 23 24  0  0  0  0  0  0  0  0999 V2000
    4.9763    1.7551   17.0356 H   0  0  0  0  0  0  0  0  0  0  0  0
    5.4314    1.2498   17.8812 C   0  0  0  0  0  0  0  0  0  0  0  0
    6.5961    0.6235   17.6291 N   0  0  0  0  0  0  0  0  0  0  0  0
    7.2175    0.0334   18.6529 C   0  0  0  0  0  0  0  0  0  0  0  0
    8.1619   -0.4656   18.4691 H   0  0  0  0  0  0  0  0  0  0  0  0
    6.6797    0.0616   19.9461 C   0  0  0  0  0  0  0  0  0  0  0  0
    7.3986   -0.3877   21.0756 O   0  0  0  0  0  0  0  0  0  0  0  0
    8.4811   -1.2703   20.6937 O   0  0  0  0  0  0  0  0  0  0  0  0
    8.9034   -1.8099   21.9592 C   0  0  0  0  0  0  0  0  0  0  0  0
    8.0211   -2.2975   22.4096 H   0  0  0  0  0  0  0  0  0  0  0  0
    9.6608   -2.5660   21.7257 H   0  0  0  0  0  0  0  0  0  0  0  0
    9.4333   -0.7044   22.8425 C   0  0  0  0  0  0  0  0  0  0  0  0
   10.2134   -0.1011   22.3874 H   0  0  0  0  0  0  0  0  0  0  0  0
    8.4544    0.0291   23.7100 C   0  0  0  0  0  0  0  0  0  0  0  0
    7.4135   -0.2514   23.5635 H   0  0  0  0  0  0  0  0  0  0  0  0
    8.6085    1.0862   23.8949 H   0  0  0  0  0  0  0  0  0  0  0  0
    9.4404   -0.9268   24.3237 C   0  0  0  0  0  0  0  0  0  0  0  0
   10.2652   -0.5051   24.8876 H   0  0  0  0  0  0  0  0  0  0  0  0
    9.0996   -1.8866   24.7016 H   0  0  0  0  0  0  0  0  0  0  0  0
    5.4545    0.6525   20.2227 C   0  0  0  0  0  0  0  0  0  0  0  0
    5.0303    0.6322   21.2284 H   0  0  0  0  0  0  0  0  0  0  0  0
    4.8169    1.2763   19.1449 C   0  0  0  0  0  0  0  0  0  0  0  0
    3.8765    1.8121   19.2590 H   0  0  0  0  0  0  0  0  0  0  0  0
  1  2  1  0
  2  3  2  0
  3  4  1  0
  4  5  1  0
  4  6  2  0
  6  7  1  0
  7  8  1  0
  8  9  1  0
  9 10  1  0
  9 11  1  0
  9 12  1  0
 12 13  1  0
 12 14  1  0
 14 15  1  0
 14 16  1  0
 14 17  1  0
 17 18  1  0
 17 19  1  0
  6 20  1  0
 20 21  1  0
 20 22  2  0
 22 23  1  0
 22  2  1  0
 17 12  1  0
M  END
>  <plip>  (1) 
-0.0

>  <filename>  (1) 
[H][c]1[n][c]([H])[c]([O][O][C]([H])([H])[C]2([H])[C]([H])([H])[C]2([H])[H])[c]([H])[c]1[H]

$$$$
