
     RDKit          3D

 29 30  0  0  0  0  0  0  0  0999 V2000
    4.9176    1.7828   16.9930 H   0  0  0  0  0  0  0  0  0  0  0  0
    5.3984    1.2941   17.8374 C   0  0  0  0  0  0  0  0  0  0  0  0
    6.5621    0.6785   17.5764 N   0  0  0  0  0  0  0  0  0  0  0  0
    7.1689    0.0664   18.6000 C   0  0  0  0  0  0  0  0  0  0  0  0
    8.1194   -0.4190   18.3795 H   0  0  0  0  0  0  0  0  0  0  0  0
    6.6458    0.0116   19.9004 C   0  0  0  0  0  0  0  0  0  0  0  0
    7.4150   -0.6880   20.9869 C   0  0  0  0  0  0  0  0  0  0  0  0
    6.7831   -0.8529   21.8659 H   0  0  0  0  0  0  0  0  0  0  0  0
    7.7776   -1.6675   20.6569 H   0  0  0  0  0  0  0  0  0  0  0  0
    8.5743    0.0849   21.4052 N   0  0  0  0  0  0  0  0  0  0  0  0
    9.8105   -0.1288   20.8907 N   0  0  0  0  0  0  0  0  0  0  0  0
   10.5603    0.8062   21.3323 N   0  0  0  0  0  0  0  0  0  0  0  0
    9.8694    1.6766   22.1072 N   0  0  0  0  0  0  0  0  0  0  0  0
    8.6358    1.2237   22.1326 C   0  0  0  0  0  0  0  0  0  0  0  0
    7.5938    1.7788   22.8006 N   0  0  0  0  0  0  0  0  0  0  0  0
    6.7265    1.2827   22.7963 H   0  0  0  0  0  0  0  0  0  0  0  0
    7.7011    3.1001   23.4269 C   0  0  0  0  0  0  0  0  0  0  0  0
    8.5956    3.1285   24.0620 H   0  0  0  0  0  0  0  0  0  0  0  0
    6.8411    3.2532   24.0835 H   0  0  0  0  0  0  0  0  0  0  0  0
    7.7652    4.2571   22.4196 C   0  0  0  0  0  0  0  0  0  0  0  0
    6.8601    4.2131   21.8043 H   0  0  0  0  0  0  0  0  0  0  0  0
    8.6173    4.0523   21.7504 H   0  0  0  0  0  0  0  0  0  0  0  0
    7.8034    5.5605   23.1078 N   0  0  0  0  0  0  0  0  0  0  0  0
    8.7167    5.6685   23.5433 H   0  0  0  0  0  0  0  0  0  0  0  0
    7.7657    6.2938   22.4023 H   0  0  0  0  0  0  0  0  0  0  0  0
    5.4332    0.6552   20.1541 C   0  0  0  0  0  0  0  0  0  0  0  0
    4.9991    0.6362   21.1602 H   0  0  0  0  0  0  0  0  0  0  0  0
    4.7990    1.3163   19.1005 C   0  0  0  0  0  0  0  0  0  0  0  0
    3.8680    1.8484   19.2511 H   0  0  0  0  0  0  0  0  0  0  0  0
  1  2  1  0
  2  3  2  0
  3  4  1  0
  4  5  1  0
  4  6  2  0
  6  7  1  0
  7  8  1  0
  7  9  1  0
  7 10  1  0
 10 11  1  0
 11 12  2  0
 12 13  1  0
 13 14  2  0
 14 15  1  0
 15 16  1  0
 15 17  1  0
 17 18  1  0
 17 19  1  0
 17 20  1  0
 20 21  1  0
 20 22  1  0
 20 23  1  0
 23 24  1  0
 23 25  1  0
  6 26  1  0
 26 27  1  0
 26 28  2  0
 28 29  1  0
 28  2  1  0
 14 10  1  0
M  END
>  <plip>  (1) 
-0.07142857142857142

>  <filename>  (1) 
[H][c]1[n][c]([H])[c]([C]([H])([H])[n]2[n][n][n][c]2[N]([H])[C]([H])([H])[C]([H])([H])[N]([H])[H])[c]([H])[c]1[H]

$$$$
