
     RDKit          3D

 25 26  0  0  0  0  0  0  0  0999 V2000
    6.5821    0.1534   22.5989 H   0  0  0  0  0  0  0  0  0  0  0  0
    7.2629   -0.5702   22.1195 C   0  0  0  0  0  0  0  0  0  0  0  0
    7.3985   -0.7254   20.8657 N   0  0  0  0  0  0  0  0  0  0  0  0
    6.6672    0.0155   19.9182 C   0  0  0  0  0  0  0  0  0  0  0  0
    7.1715    0.0665   18.5957 C   0  0  0  0  0  0  0  0  0  0  0  0
    8.1191   -0.4349   18.3977 H   0  0  0  0  0  0  0  0  0  0  0  0
    6.5676    0.6772   17.5746 N   0  0  0  0  0  0  0  0  0  0  0  0
    5.3983    1.2946   17.8394 C   0  0  0  0  0  0  0  0  0  0  0  0
    4.9144    1.7818   16.9954 H   0  0  0  0  0  0  0  0  0  0  0  0
    4.8082    1.3086   19.1080 C   0  0  0  0  0  0  0  0  0  0  0  0
    3.8742    1.8414   19.2629 H   0  0  0  0  0  0  0  0  0  0  0  0
    5.4476    0.6551   20.1709 C   0  0  0  0  0  0  0  0  0  0  0  0
    5.0050    0.6253   21.1724 H   0  0  0  0  0  0  0  0  0  0  0  0
    8.0944   -1.4279   23.0541 C   0  0  1  0  0  0  0  0  0  0  0  0
    9.1473   -1.2709   22.7783 H   0  0  0  0  0  0  0  0  0  0  0  0
    7.8929   -1.0017   24.3925 O   0  0  0  0  0  0  0  0  0  0  0  0
    7.3882   -2.0557   25.2011 C   0  0  0  0  0  0  0  0  0  0  0  0
    8.1925   -2.4539   25.8398 H   0  0  0  0  0  0  0  0  0  0  0  0
    6.6071   -1.6379   25.8479 H   0  0  0  0  0  0  0  0  0  0  0  0
    6.8558   -3.1132   24.2390 C   0  0  0  0  0  0  0  0  0  0  0  0
    6.9432   -4.1186   24.6562 H   0  0  0  0  0  0  0  0  0  0  0  0
    5.7998   -2.9293   24.0113 H   0  0  0  0  0  0  0  0  0  0  0  0
    7.7241   -2.9239   22.9951 C   0  0  0  0  0  0  0  0  0  0  0  0
    7.1987   -3.1736   22.0681 H   0  0  0  0  0  0  0  0  0  0  0  0
    8.6281   -3.5402   23.0382 H   0  0  0  0  0  0  0  0  0  0  0  0
  1  2  1  0
  2  3  2  3
  3  4  1  0
  4  5  2  0
  5  6  1  0
  5  7  1  0
  7  8  2  0
  8  9  1  0
  8 10  1  0
 10 11  1  0
 10 12  2  0
 12 13  1  0
  2 14  1  0
 14 15  1  6
 14 16  1  0
 16 17  1  0
 17 18  1  0
 17 19  1  0
 17 20  1  0
 20 21  1  0
 20 22  1  0
 20 23  1  0
 23 24  1  0
 23 25  1  0
 12  4  1  0
 23 14  1  0
M  END
>  <plip>  (1) 
-0.03571428571428571

>  <filename>  (1) 
[H][C](=[N][c]1[c]([H])[n][c]([H])[c]([H])[c]1[H])[C@@]1([H])[O][C]([H])([H])[C]([H])([H])[C]1([H])[H]

$$$$
