
     RDKit          3D

 27 29  0  0  0  0  0  0  0  0999 V2000
    9.4421   -0.1771   20.1998 O   0  0  0  0  0  0  0  0  0  0  0  0
    8.6484   -0.8659   20.8185 C   0  0  0  0  0  0  0  0  0  0  0  0
    7.2893   -0.7538   20.6392 N   0  0  0  0  0  0  0  0  0  0  0  0
    6.6180    0.0077   19.6533 C   0  0  0  0  0  0  0  0  0  0  0  0
    5.4117    0.6236   19.9997 C   0  0  0  0  0  0  0  0  0  0  0  0
    4.7259    1.3510   19.0212 C   0  0  0  0  0  0  0  0  0  0  0  0
    5.2674    1.4334   17.7333 C   0  0  0  0  0  0  0  0  0  0  0  0
    6.4231    0.8450   17.3781 N   0  0  0  0  0  0  0  0  0  0  0  0
    7.0814    0.1608   18.3220 C   0  0  0  0  0  0  0  0  0  0  0  0
    8.0208   -0.3042   18.0361 H   0  0  0  0  0  0  0  0  0  0  0  0
    4.7578    1.9883   16.9507 H   0  0  0  0  0  0  0  0  0  0  0  0
    3.7867    1.8476   19.2472 H   0  0  0  0  0  0  0  0  0  0  0  0
    5.0454    0.5542   21.0240 H   0  0  0  0  0  0  0  0  0  0  0  0
    6.7180   -1.1035   21.3906 H   0  0  0  0  0  0  0  0  0  0  0  0
    9.0960   -1.9244   21.7992 C   0  0  0  0  0  0  0  0  0  0  0  0
    8.2704   -2.7496   22.5434 C   0  0  0  0  0  0  0  0  0  0  0  0
    8.8328   -3.5844   23.4739 N   0  0  0  0  0  0  0  0  0  0  0  0
    8.1661   -4.3474   24.3541 N   0  0  0  0  0  0  0  0  0  0  0  0
    9.1584   -4.8802   25.0636 C   0  0  0  0  0  0  0  0  0  0  0  0
   10.4145   -4.5296   24.7068 N   0  0  0  0  0  0  0  0  0  0  0  0
   10.1982   -3.6925   23.6967 C   0  0  0  0  0  0  0  0  0  0  0  0
   11.0646   -2.9382   22.8535 C   0  0  0  0  0  0  0  0  0  0  0  0
   10.5308   -2.0630   21.9535 C   0  0  0  0  0  0  0  0  0  0  0  0
   11.1889   -1.4603   21.3177 H   0  0  0  0  0  0  0  0  0  0  0  0
   12.1261   -3.1205   22.9212 H   0  0  0  0  0  0  0  0  0  0  0  0
    8.9365   -5.5514   25.8818 H   0  0  0  0  0  0  0  0  0  0  0  0
    7.1867   -2.8771   22.5097 H   0  0  0  0  0  0  0  0  0  0  0  0
  1  2  2  0
  2  3  1  0
  3  4  1  0
  4  5  2  0
  5  6  1  0
  6  7  2  0
  7  8  1  0
  8  9  2  0
  9 10  1  0
  7 11  1  0
  6 12  1  0
  5 13  1  0
  3 14  1  0
  2 15  1  0
 15 16  2  0
 16 17  1  0
 17 18  1  0
 18 19  2  0
 19 20  1  0
 20 21  2  0
 21 22  1  0
 22 23  2  0
 23 24  1  0
 22 25  1  0
 19 26  1  0
 16 27  1  0
  9  4  1  0
 23 15  1  0
 21 17  1  0
M  END
>  <plip>  (1) 
-0.14285714285714285

>  <filename>  (1) 
[H][c]1[n][c]2[c]([H])[c]([H])[c]([C](=[O])[N]([H])[c]3[c]([H])[n][c]([H])[c]([H])[c]3[H])[c]([H])[n]2[n]1

$$$$
