
     RDKit          3D

 31 33  0  0  0  0  0  0  0  0999 V2000
    4.9564    1.8144   16.9788 H   0  0  0  0  0  0  0  0  0  0  0  0
    5.4034    1.2936   17.8256 C   0  0  0  0  0  0  0  0  0  0  0  0
    6.5654    0.6641   17.5832 N   0  0  0  0  0  0  0  0  0  0  0  0
    7.1564    0.0328   18.6000 C   0  0  0  0  0  0  0  0  0  0  0  0
    8.1005   -0.4565   18.3700 H   0  0  0  0  0  0  0  0  0  0  0  0
    6.6401    0.0070   19.9049 C   0  0  0  0  0  0  0  0  0  0  0  0
    7.3835   -0.6750   20.9724 C   0  0  0  0  0  0  0  0  0  0  0  0
    7.9137   -1.9094   20.7139 N   0  0  0  0  0  0  0  0  0  0  0  0
    8.4498   -2.4861   21.7099 N   0  0  0  0  0  0  0  0  0  0  0  0
    8.3621   -1.5222   23.1009 S   0  0  0  0  0  0  0  0  0  0  0  0
    7.5779   -0.2426   22.2803 C   0  0  0  0  0  0  0  0  0  0  0  0
    7.2443    1.0590   22.8969 C   0  0  0  0  0  0  0  0  0  0  0  0
    6.7711    1.1115   24.2231 C   0  0  0  0  0  0  0  0  0  0  0  0
    6.6339    0.1855   24.7803 H   0  0  0  0  0  0  0  0  0  0  0  0
    6.4560    2.3438   24.7952 C   0  0  0  0  0  0  0  0  0  0  0  0
    6.1137    2.3852   25.8255 H   0  0  0  0  0  0  0  0  0  0  0  0
    6.6018    3.5189   24.0499 C   0  0  0  0  0  0  0  0  0  0  0  0
    6.3574    4.4748   24.5039 H   0  0  0  0  0  0  0  0  0  0  0  0
    7.0509    3.5067   22.7190 C   0  0  0  0  0  0  0  0  0  0  0  0
    7.2343    4.8433   22.0037 C   0  0  0  0  0  0  0  0  0  0  0  0
    6.5879    5.5967   22.4749 H   0  0  0  0  0  0  0  0  0  0  0  0
    6.9084    4.7954   20.9578 H   0  0  0  0  0  0  0  0  0  0  0  0
    8.6092    5.3620   22.0767 N   0  0  0  0  0  0  0  0  0  0  0  0
    9.2472    4.6684   21.6890 H   0  0  0  0  0  0  0  0  0  0  0  0
    8.8702    5.4415   23.0570 H   0  0  0  0  0  0  0  0  0  0  0  0
    7.3809    2.2579   22.1614 C   0  0  0  0  0  0  0  0  0  0  0  0
    7.7176    2.1705   21.1306 H   0  0  0  0  0  0  0  0  0  0  0  0
    5.4133    0.6449   20.1388 C   0  0  0  0  0  0  0  0  0  0  0  0
    4.9972    0.6609   21.1473 H   0  0  0  0  0  0  0  0  0  0  0  0
    4.7882    1.3003   19.0800 C   0  0  0  0  0  0  0  0  0  0  0  0
    3.8593    1.8422   19.2161 H   0  0  0  0  0  0  0  0  0  0  0  0
  1  2  1  0
  2  3  2  0
  3  4  1  0
  4  5  1  0
  4  6  2  0
  6  7  1  0
  7  8  1  0
  8  9  2  0
  9 10  1  0
 10 11  1  0
 11 12  1  0
 12 13  2  0
 13 14  1  0
 13 15  1  0
 15 16  1  0
 15 17  2  0
 17 18  1  0
 17 19  1  0
 19 20  1  0
 20 21  1  0
 20 22  1  0
 20 23  1  0
 23 24  1  0
 23 25  1  0
 19 26  2  0
 26 27  1  0
  6 28  1  0
 28 29  1  0
 28 30  2  0
 30 31  1  0
 30  2  1  0
 11  7  2  0
 26 12  1  0
M  END
>  <plip>  (1) 
-0.06896551724137931

>  <filename>  (1) 
[H][c]1[n][c]([H])[c](-[c]2[n][n][s][c]2-[c]2[c]([H])[c]([H])[c]([H])[c]([C]([H])([H])[N]([H])[H])[c]2[H])[c]([H])[c]1[H]

$$$$
