
     RDKit          3D

 29 31  0  0  0  0  0  0  0  0999 V2000
    5.6831    4.3564   22.5456 H   0  0  0  0  0  0  0  0  0  0  0  0
    6.4345    3.6908   22.9669 C   0  0  0  0  0  0  0  0  0  0  0  0
    6.0954    2.3987   23.0104 N   0  0  0  0  0  0  0  0  0  0  0  0
    7.0083    1.5350   23.4798 C   0  0  0  0  0  0  0  0  0  0  0  0
    6.6268    0.0704   23.4528 C   0  0  0  0  0  0  0  0  0  0  0  0
    5.5470    0.0990   23.3431 H   0  0  0  0  0  0  0  0  0  0  0  0
    6.8498   -0.3994   24.4180 H   0  0  0  0  0  0  0  0  0  0  0  0
    7.3125   -0.7378   22.3633 C   0  0  0  0  0  0  0  0  0  0  0  0
    7.3941   -0.6894   20.9831 C   0  0  0  0  0  0  0  0  0  0  0  0
    6.6575   -0.0019   19.9083 C   0  0  0  0  0  0  0  0  0  0  0  0
    7.1593    0.0596   18.5852 C   0  0  0  0  0  0  0  0  0  0  0  0
    8.1077   -0.4240   18.3620 H   0  0  0  0  0  0  0  0  0  0  0  0
    6.5514    0.6817   17.5687 N   0  0  0  0  0  0  0  0  0  0  0  0
    5.3903    1.3005   17.8240 C   0  0  0  0  0  0  0  0  0  0  0  0
    4.9200    1.8048   16.9794 H   0  0  0  0  0  0  0  0  0  0  0  0
    4.7949    1.3118   19.0881 C   0  0  0  0  0  0  0  0  0  0  0  0
    3.8632    1.8468   19.2365 H   0  0  0  0  0  0  0  0  0  0  0  0
    5.4324    0.6518   20.1395 C   0  0  0  0  0  0  0  0  0  0  0  0
    4.9856    0.6632   21.1304 H   0  0  0  0  0  0  0  0  0  0  0  0
    8.6061   -1.5900   20.9713 C   0  0  0  0  0  0  0  0  0  0  0  0
    9.4277   -1.9840   20.1862 O   0  0  0  0  0  0  0  0  0  0  0  0
    8.4314   -1.6996   22.5030 C   0  0  0  0  0  0  0  0  0  0  0  0
    8.9874   -2.2807   23.4058 O   0  0  0  0  0  0  0  0  0  0  0  0
    8.2596    1.9257   23.9627 C   0  0  0  0  0  0  0  0  0  0  0  0
    8.9323    1.1619   24.3432 H   0  0  0  0  0  0  0  0  0  0  0  0
    8.5963    3.2786   23.9378 C   0  0  0  0  0  0  0  0  0  0  0  0
    9.5676    3.6091   24.3066 H   0  0  0  0  0  0  0  0  0  0  0  0
    7.6619    4.1833   23.4223 C   0  0  0  0  0  0  0  0  0  0  0  0
    7.8576    5.2475   23.3670 H   0  0  0  0  0  0  0  0  0  0  0  0
  1  2  1  0
  2  3  2  0
  3  4  1  0
  4  5  1  0
  5  6  1  0
  5  7  1  0
  5  8  1  0
  8  9  2  0
  9 10  1  0
 10 11  2  0
 11 12  1  0
 11 13  1  0
 13 14  2  0
 14 15  1  0
 14 16  1  0
 16 17  1  0
 16 18  2  0
 18 19  1  0
  9 20  1  0
 20 21  2  0
 20 22  1  0
 22 23  2  0
  4 24  2  0
 24 25  1  0
 24 26  1  0
 26 27  1  0
 26 28  2  0
 28 29  1  0
 28  2  1  0
 22  8  1  0
 18 10  1  0
M  END
>  <plip>  (1) 
-0.0

>  <filename>  (1) 
[H][c]1[n][c]([C]([H])([H])[c]2[c](-[c]3[c]([H])[n][c]([H])[c]([H])[c]3[H])[c](=[O])[c]2=[O])[c]([H])[c]([H])[c]1[H]

$$$$
