
     RDKit          3D

 27 28  0  0  0  0  0  0  0  0999 V2000
    7.0200   -3.7269   27.3888 H   0  0  0  0  0  0  0  0  0  0  0  0
    6.6264   -2.9154   27.0571 O   0  0  0  0  0  0  0  0  0  0  0  0
    7.2834   -2.5595   25.9189 C   0  0  0  0  0  0  0  0  0  0  0  0
    6.8483   -1.3929   25.2882 C   0  0  0  0  0  0  0  0  0  0  0  0
    6.0243   -0.8580   25.7397 H   0  0  0  0  0  0  0  0  0  0  0  0
    7.4531   -0.9495   24.1153 C   0  0  0  0  0  0  0  0  0  0  0  0
    7.1154   -0.0308   23.6535 H   0  0  0  0  0  0  0  0  0  0  0  0
    8.5060   -1.6758   23.5510 C   0  0  0  0  0  0  0  0  0  0  0  0
    9.2041   -1.2384   22.4260 O   0  0  0  0  0  0  0  0  0  0  0  0
    8.5728   -0.5689   21.4194 C   0  0  0  0  0  0  0  0  0  0  0  0
    9.6604    0.5577   20.7066 Cl  0  0  0  0  0  0  0  0  0  0  0  0
    7.3144   -0.7407   20.9997 C   0  0  0  0  0  0  0  0  0  0  0  0
    6.7108   -1.4576   21.5565 H   0  0  0  0  0  0  0  0  0  0  0  0
    6.6483   -0.0077   19.8909 C   0  0  0  0  0  0  0  0  0  0  0  0
    7.1685    0.0683   18.5811 C   0  0  0  0  0  0  0  0  0  0  0  0
    8.1090   -0.4236   18.3486 H   0  0  0  0  0  0  0  0  0  0  0  0
    6.5566    0.6875   17.5646 N   0  0  0  0  0  0  0  0  0  0  0  0
    5.3932    1.3010   17.8306 C   0  0  0  0  0  0  0  0  0  0  0  0
    4.9137    1.7908   16.9863 H   0  0  0  0  0  0  0  0  0  0  0  0
    4.7969    1.3167   19.0973 C   0  0  0  0  0  0  0  0  0  0  0  0
    3.8667    1.8502   19.2519 H   0  0  0  0  0  0  0  0  0  0  0  0
    5.4292    0.6409   20.1429 C   0  0  0  0  0  0  0  0  0  0  0  0
    5.0151    0.6223   21.1545 H   0  0  0  0  0  0  0  0  0  0  0  0
    8.9581   -2.8371   24.1795 C   0  0  0  0  0  0  0  0  0  0  0  0
    9.7996   -3.3661   23.7428 H   0  0  0  0  0  0  0  0  0  0  0  0
    8.3477   -3.2818   25.3645 C   0  0  0  0  0  0  0  0  0  0  0  0
    8.7087   -4.1843   25.8549 H   0  0  0  0  0  0  0  0  0  0  0  0
  1  2  1  0
  2  3  1  0
  3  4  2  0
  4  5  1  0
  4  6  1  0
  6  7  1  0
  6  8  2  0
  8  9  1  0
  9 10  1  0
 10 11  1  0
 10 12  2  3
 12 13  1  0
 12 14  1  0
 14 15  2  0
 15 16  1  0
 15 17  1  0
 17 18  2  0
 18 19  1  0
 18 20  1  0
 20 21  1  0
 20 22  2  0
 22 23  1  0
  8 24  1  0
 24 25  1  0
 24 26  2  0
 26 27  1  0
 26  3  1  0
 22 14  1  0
M  END
>  <plip>  (1) 
-0.03571428571428571

>  <filename>  (1) 
[H][O][c]1[c]([H])[c]([H])[c]([O][C]([Cl])=[C]([H])[c]2[c]([H])[n][c]([H])[c]([H])[c]2[H])[c]([H])[c]1[H]

$$$$
