
     RDKit          3D

 42 44  0  0  0  0  0  0  0  0999 V2000
   10.1131    1.2150   22.5043 C   0  0  0  0  0  0  0  0  0  0  0  0
    9.2886    0.3476   21.7156 O   0  0  0  0  0  0  0  0  0  0  0  0
    7.9925    0.2325   22.0347 C   0  0  0  0  0  0  0  0  0  0  0  0
    7.4419    0.8292   22.9332 O   0  0  0  0  0  0  0  0  0  0  0  0
    7.3055   -0.8098   21.0961 C   0  0  0  0  0  0  0  0  0  0  0  0
    6.4451   -1.7108   21.8562 N   0  0  0  0  0  0  0  0  0  0  0  0
    6.0127   -2.9048   21.3759 C   0  0  0  0  0  0  0  0  0  0  0  0
    6.2770   -3.3050   20.2555 O   0  0  0  0  0  0  0  0  0  0  0  0
    5.2030   -3.6794   22.3414 C   0  0  0  0  0  0  0  0  0  0  0  0
    4.6544   -3.3663   23.5657 C   0  0  0  0  0  0  0  0  0  0  0  0
    3.6139   -4.2536   23.9284 C   0  0  0  0  0  0  0  0  0  0  0  0
    3.5238   -5.3017   23.0561 C   0  0  0  0  0  0  0  0  0  0  0  0
    2.6765   -6.3521   23.0267 O   0  0  0  0  0  0  0  0  0  0  0  0
    2.0603   -6.7594   24.1977 C   0  0  0  0  0  0  0  0  0  0  0  0
    0.7541   -7.2342   24.0790 C   0  0  0  0  0  0  0  0  0  0  0  0
    0.0870   -7.7108   25.2108 C   0  0  0  0  0  0  0  0  0  0  0  0
    0.7461   -7.7005   26.4393 C   0  0  0  0  0  0  0  0  0  0  0  0
    0.1087   -8.1509   27.5322 F   0  0  0  0  0  0  0  0  0  0  0  0
    2.0517   -7.2376   26.5639 C   0  0  0  0  0  0  0  0  0  0  0  0
    2.7235   -6.7749   25.4305 C   0  0  0  0  0  0  0  0  0  0  0  0
    3.7432   -6.4042   25.5036 H   0  0  0  0  0  0  0  0  0  0  0  0
    2.5255   -7.2256   27.5386 H   0  0  0  0  0  0  0  0  0  0  0  0
   -0.9272   -8.0898   25.1588 H   0  0  0  0  0  0  0  0  0  0  0  0
    0.2754   -7.2215   23.1037 H   0  0  0  0  0  0  0  0  0  0  0  0
    4.6461   -5.2157   21.7750 S   0  0  0  0  0  0  0  0  0  0  0  0
    2.9398   -4.0909   24.7640 H   0  0  0  0  0  0  0  0  0  0  0  0
    4.9730   -2.5771   24.2461 H   0  0  0  0  0  0  0  0  0  0  0  0
    5.9893   -1.3552   22.6814 H   0  0  0  0  0  0  0  0  0  0  0  0
    6.5500   -0.1274   19.9584 C   0  0  0  0  0  0  0  0  0  0  0  0
    5.3646    0.5896   20.1609 C   0  0  0  0  0  0  0  0  0  0  0  0
    4.8162    1.2743   19.0754 C   0  0  0  0  0  0  0  0  0  0  0  0
    5.4694    1.2288   17.8396 C   0  0  0  0  0  0  0  0  0  0  0  0
    6.5967    0.5352   17.6245 N   0  0  0  0  0  0  0  0  0  0  0  0
    7.1017   -0.1306   18.6702 C   0  0  0  0  0  0  0  0  0  0  0  0
    8.0292   -0.6780   18.4894 H   0  0  0  0  0  0  0  0  0  0  0  0
    5.0691    1.7661   16.9823 H   0  0  0  0  0  0  0  0  0  0  0  0
    3.9083    1.8540   19.1774 H   0  0  0  0  0  0  0  0  0  0  0  0
    4.8978    0.6413   21.1479 H   0  0  0  0  0  0  0  0  0  0  0  0
    8.1128   -1.4073   20.6555 H   0  0  0  0  0  0  0  0  0  0  0  0
    9.9674    1.0522   23.5769 H   0  0  0  0  0  0  0  0  0  0  0  0
    9.8983    2.2637   22.2765 H   0  0  0  0  0  0  0  0  0  0  0  0
   11.1248    0.9488   22.2023 H   0  0  0  0  0  0  0  0  0  0  0  0
  1  2  1  0
  2  3  1  0
  3  4  2  0
  3  5  1  0
  5  6  1  0
  6  7  1  0
  7  8  2  0
  7  9  1  0
  9 10  2  0
 10 11  1  0
 11 12  2  0
 12 13  1  0
 13 14  1  0
 14 15  2  0
 15 16  1  0
 16 17  2  0
 17 18  1  0
 17 19  1  0
 19 20  2  0
 20 21  1  0
 19 22  1  0
 16 23  1  0
 15 24  1  0
 12 25  1  0
 11 26  1  0
 10 27  1  0
  6 28  1  0
  5 29  1  0
 29 30  2  0
 30 31  1  0
 31 32  2  0
 32 33  1  0
 33 34  2  0
 34 35  1  0
 32 36  1  0
 31 37  1  0
 30 38  1  0
  5 39  1  0
  1 40  1  0
  1 41  1  0
  1 42  1  0
 25  9  1  0
 34 29  1  0
 20 14  1  0
M  END
>  <plip>  (1) 
-0.13793103448275862

>  <filename>  (1) 
[H][c]1[n][c]([H])[c]([C]([H])([C](=[O])[O][C]([H])([H])[H])[N]([H])[C](=[O])[c]2[s][c]([O][c]3[c]([H])[c]([H])[c]([F])[c]([H])[c]3[H])[c]([H])[c]2[H])[c]([H])[c]1[H]

$$$$
