
     RDKit          3D

 20 21  0  0  0  0  0  0  0  0999 V2000
    5.6044    2.2841   24.8077 H   0  0  0  0  0  0  0  0  0  0  0  0
    6.5092    2.3125   24.2102 C   0  0  0  0  0  0  0  0  0  0  0  0
    6.7547    1.3101   23.3113 N   0  0  0  0  0  0  0  0  0  0  0  0
    7.8977    1.5104   22.7040 C   0  0  0  0  0  0  0  0  0  0  0  0
    8.5119    0.6027   21.7107 C   0  0  0  0  0  0  0  0  0  0  0  0
    9.9315    0.8835   20.9802 S   0  0  0  0  0  0  0  0  0  0  0  0
    7.5166   -0.8020   21.2278 S   0  0  0  0  0  0  0  0  0  0  0  0
    6.6343   -0.0081   19.8932 C   0  0  0  0  0  0  0  0  0  0  0  0
    7.1726    0.0527   18.5934 C   0  0  0  0  0  0  0  0  0  0  0  0
    8.1283   -0.4275   18.3810 H   0  0  0  0  0  0  0  0  0  0  0  0
    6.5650    0.6761   17.5760 N   0  0  0  0  0  0  0  0  0  0  0  0
    5.4005    1.2923   17.8411 C   0  0  0  0  0  0  0  0  0  0  0  0
    4.9136    1.7788   16.9981 H   0  0  0  0  0  0  0  0  0  0  0  0
    4.7993    1.3132   19.1052 C   0  0  0  0  0  0  0  0  0  0  0  0
    3.8684    1.8483   19.2599 H   0  0  0  0  0  0  0  0  0  0  0  0
    5.4275    0.6472   20.1601 C   0  0  0  0  0  0  0  0  0  0  0  0
    5.0117    0.6316   21.1713 H   0  0  0  0  0  0  0  0  0  0  0  0
    8.7264    2.9740   23.1847 S   0  0  0  0  0  0  0  0  0  0  0  0
    7.4502    3.2915   24.2826 C   0  0  0  0  0  0  0  0  0  0  0  0
    7.4339    4.1647   24.9169 H   0  0  0  0  0  0  0  0  0  0  0  0
  1  2  1  0
  2  3  1  0
  3  4  2  0
  4  5  1  0
  5  6  2  0
  5  7  1  0
  7  8  1  0
  8  9  2  0
  9 10  1  0
  9 11  1  0
 11 12  2  0
 12 13  1  0
 12 14  1  0
 14 15  1  0
 14 16  2  0
 16 17  1  0
  4 18  1  0
 18 19  1  0
 19 20  1  0
 19  2  2  0
 16  8  1  0
M  END
>  <plip>  (1) 
-0.0

>  <filename>  (1) 
[H][c]1[n][c]([C](=[S])[S][c]2[c]([H])[n][c]([H])[c]([H])[c]2[H])[s][c]1[H]

$$$$
