
     RDKit          3D

 26 27  0  0  0  0  0  0  0  0999 V2000
    5.0327    1.8004   17.1400 H   0  0  0  0  0  0  0  0  0  0  0  0
    5.4682    1.2458   17.9699 C   0  0  0  0  0  0  0  0  0  0  0  0
    6.6126    0.6003   17.6973 N   0  0  0  0  0  0  0  0  0  0  0  0
    7.1951   -0.0788   18.6914 C   0  0  0  0  0  0  0  0  0  0  0  0
    8.1301   -0.5823   18.4659 H   0  0  0  0  0  0  0  0  0  0  0  0
    6.6608   -0.1652   20.0056 C   0  0  0  0  0  0  0  0  0  0  0  0
    7.3075   -0.9276   21.0098 N   0  0  0  0  0  0  0  0  0  0  0  0
    8.5948   -1.4383   21.0443 C   0  0  0  0  0  0  0  0  0  0  0  0
    9.3814   -1.6387   20.1653 O   0  0  0  0  0  0  0  0  0  0  0  0
    8.5908   -1.5687   22.5518 C   0  0  0  0  0  0  0  0  0  0  0  0
    9.2970   -0.9154   23.0555 H   0  0  0  0  0  0  0  0  0  0  0  0
    8.6752   -2.6005   22.8943 H   0  0  0  0  0  0  0  0  0  0  0  0
    7.1328   -1.0633   22.4463 C   0  0  2  0  0  0  0  0  0  0  0  0
    6.9200   -0.1035   22.9535 H   0  0  0  0  0  0  0  0  0  0  0  0
    6.2146   -2.0634   22.7527 O   0  0  0  0  0  0  0  0  0  0  0  0
    6.0414   -2.2172   24.1608 C   0  0  0  0  0  0  0  0  0  0  0  0
    6.9696   -2.5627   24.6388 H   0  0  0  0  0  0  0  0  0  0  0  0
    5.7475   -1.2591   24.6191 H   0  0  0  0  0  0  0  0  0  0  0  0
    4.9428   -3.2373   24.4449 C   0  0  0  0  0  0  0  0  0  0  0  0
    5.2907   -4.2662   24.3577 H   0  0  0  0  0  0  0  0  0  0  0  0
    4.0922   -3.0821   23.7758 H   0  0  0  0  0  0  0  0  0  0  0  0
    4.5041   -3.0625   25.7495 F   0  0  0  0  0  0  0  0  0  0  0  0
    5.4601    0.5030   20.2710 C   0  0  0  0  0  0  0  0  0  0  0  0
    5.0121    0.4415   21.2614 H   0  0  0  0  0  0  0  0  0  0  0  0
    4.8617    1.2264   19.2294 C   0  0  0  0  0  0  0  0  0  0  0  0
    3.9468    1.7868   19.3811 H   0  0  0  0  0  0  0  0  0  0  0  0
  1  2  1  0
  2  3  2  0
  3  4  1  0
  4  5  1  0
  4  6  2  0
  6  7  1  0
  7  8  1  0
  8  9  2  0
  8 10  1  0
 10 11  1  0
 10 12  1  0
 10 13  1  0
 13 14  1  1
 13 15  1  0
 15 16  1  0
 16 17  1  0
 16 18  1  0
 16 19  1  0
 19 20  1  0
 19 21  1  0
 19 22  1  0
  6 23  1  0
 23 24  1  0
 23 25  2  0
 25 26  1  0
 25  2  1  0
 13  7  1  0
M  END
>  <plip>  (1) 
-0.0

>  <filename>  (1) 
[H][c]1[n][c]([H])[c]([N]2[C](=[O])[C]([H])([H])[C@]2([H])[O][C]([H])([H])[C]([H])([H])[F])[c]([H])[c]1[H]

$$$$
