
     RDKit          3D

 21 22  0  0  0  0  0  0  0  0999 V2000
    7.8309   -2.2803   19.9299 H   0  0  0  0  0  0  0  0  0  0  0  0
    7.3622   -2.1305   20.7649 O   0  0  0  0  0  0  0  0  0  0  0  0
    7.3802   -0.7276   20.9925 C   0  0  1  0  0  0  0  0  0  0  0  0
    6.8284   -0.5932   21.9343 H   0  0  0  0  0  0  0  0  0  0  0  0
    8.7964   -0.2536   21.1910 C   0  0  0  0  0  0  0  0  0  0  0  0
    9.2101    1.0331   20.9693 O   0  0  0  0  0  0  0  0  0  0  0  0
   10.5149    1.0258   21.3043 C   0  0  0  0  0  0  0  0  0  0  0  0
   11.0274    1.9743   21.1824 H   0  0  0  0  0  0  0  0  0  0  0  0
   10.9714   -0.1116   21.7013 N   0  0  0  0  0  0  0  0  0  0  0  0
    9.8705   -0.9463   21.6313 C   0  0  0  0  0  0  0  0  0  0  0  0
    9.9037   -1.9860   21.9250 H   0  0  0  0  0  0  0  0  0  0  0  0
    6.6477    0.0125   19.9016 C   0  0  0  0  0  0  0  0  0  0  0  0
    7.1568    0.0515   18.5971 C   0  0  0  0  0  0  0  0  0  0  0  0
    8.1100   -0.4203   18.3686 H   0  0  0  0  0  0  0  0  0  0  0  0
    6.5605    0.6678   17.5677 N   0  0  0  0  0  0  0  0  0  0  0  0
    5.4032    1.2918   17.8338 C   0  0  0  0  0  0  0  0  0  0  0  0
    4.9247    1.7832   16.9910 H   0  0  0  0  0  0  0  0  0  0  0  0
    4.7997    1.3151   19.0995 C   0  0  0  0  0  0  0  0  0  0  0  0
    3.8663    1.8490   19.2511 H   0  0  0  0  0  0  0  0  0  0  0  0
    5.4329    0.6591   20.1562 C   0  0  0  0  0  0  0  0  0  0  0  0
    5.0001    0.6376   21.1636 H   0  0  0  0  0  0  0  0  0  0  0  0
  1  2  1  0
  2  3  1  0
  3  4  1  1
  3  5  1  0
  5  6  1  0
  6  7  1  0
  7  8  1  0
  7  9  2  0
  9 10  1  0
 10 11  1  0
  3 12  1  0
 12 13  2  0
 13 14  1  0
 13 15  1  0
 15 16  2  0
 16 17  1  0
 16 18  1  0
 18 19  1  0
 18 20  2  0
 20 21  1  0
 10  5  2  0
 20 12  1  0
M  END
>  <plip>  (1) 
-0.07142857142857142

>  <filename>  (1) 
[H][O][C@@]([H])([c]1[o][c]([H])[n][c]1[H])[c]1[c]([H])[n][c]([H])[c]([H])[c]1[H]

$$$$
