
     RDKit          3D

 35 37  0  0  0  0  0  0  0  0999 V2000
    4.9797    1.8239   16.9208 H   0  0  0  0  0  0  0  0  0  0  0  0
    5.4324    1.3128   17.7671 C   0  0  0  0  0  0  0  0  0  0  0  0
    6.5847    0.6700   17.5216 N   0  0  0  0  0  0  0  0  0  0  0  0
    7.1606    0.0373   18.5516 C   0  0  0  0  0  0  0  0  0  0  0  0
    8.0851   -0.4932   18.3334 H   0  0  0  0  0  0  0  0  0  0  0  0
    6.6425   -0.0077   19.8603 C   0  0  0  0  0  0  0  0  0  0  0  0
    7.3596   -0.7669   20.9169 C   0  0  0  0  0  0  0  0  0  0  0  0
    6.7473   -1.4714   21.9126 C   0  0  0  0  0  0  0  0  0  0  0  0
    5.6845   -1.6207   22.0274 H   0  0  0  0  0  0  0  0  0  0  0  0
    7.8599   -2.2178   22.9878 S   0  0  0  0  0  0  0  0  0  0  0  0
    9.2102   -1.6043   22.0933 C   0  0  0  0  0  0  0  0  0  0  0  0
   10.6312   -1.7407   22.5772 C   0  0  0  0  0  0  0  0  0  0  0  0
   11.2860   -1.8821   21.7096 H   0  0  0  0  0  0  0  0  0  0  0  0
   10.7394   -2.6161   23.2260 H   0  0  0  0  0  0  0  0  0  0  0  0
   11.0681   -0.4798   23.3041 C   0  0  0  0  0  0  0  0  0  0  0  0
   11.8019    0.5033   22.6356 C   0  0  0  0  0  0  0  0  0  0  0  0
   12.1620    0.3065   21.6300 H   0  0  0  0  0  0  0  0  0  0  0  0
   12.1088    1.7251   23.2407 C   0  0  0  0  0  0  0  0  0  0  0  0
   12.6606    2.4914   22.7032 H   0  0  0  0  0  0  0  0  0  0  0  0
   11.6963    1.9578   24.5482 C   0  0  0  0  0  0  0  0  0  0  0  0
   11.9421    2.8936   25.0352 H   0  0  0  0  0  0  0  0  0  0  0  0
   10.9656    0.9971   25.2502 C   0  0  0  0  0  0  0  0  0  0  0  0
   10.6411    1.1964   26.2672 H   0  0  0  0  0  0  0  0  0  0  0  0
   10.6547   -0.2265   24.6318 C   0  0  0  0  0  0  0  0  0  0  0  0
    9.9695   -1.2308   25.2486 O   0  0  0  0  0  0  0  0  0  0  0  0
    9.4360   -0.9926   26.5375 C   0  0  0  0  0  0  0  0  0  0  0  0
   10.2149   -0.6961   27.2576 H   0  0  0  0  0  0  0  0  0  0  0  0
    8.9954   -1.9295   26.8753 H   0  0  0  0  0  0  0  0  0  0  0  0
    8.6597   -0.2176   26.4875 H   0  0  0  0  0  0  0  0  0  0  0  0
    8.7870   -0.8718   21.0233 C   0  0  0  0  0  0  0  0  0  0  0  0
    9.4667   -0.3824   20.3313 H   0  0  0  0  0  0  0  0  0  0  0  0
    5.4330    0.6755   20.0883 C   0  0  0  0  0  0  0  0  0  0  0  0
    4.9942    0.7026   21.0865 H   0  0  0  0  0  0  0  0  0  0  0  0
    4.8208    1.3399   19.0242 C   0  0  0  0  0  0  0  0  0  0  0  0
    3.8863    1.8759   19.1547 H   0  0  0  0  0  0  0  0  0  0  0  0
  1  2  1  0
  2  3  2  0
  3  4  1  0
  4  5  1  0
  4  6  2  0
  6  7  1  0
  7  8  2  0
  8  9  1  0
  8 10  1  0
 10 11  1  0
 11 12  1  0
 12 13  1  0
 12 14  1  0
 12 15  1  0
 15 16  2  0
 16 17  1  0
 16 18  1  0
 18 19  1  0
 18 20  2  0
 20 21  1  0
 20 22  1  0
 22 23  1  0
 22 24  2  0
 24 25  1  0
 25 26  1  0
 26 27  1  0
 26 28  1  0
 26 29  1  0
 11 30  2  0
 30 31  1  0
  6 32  1  0
 32 33  1  0
 32 34  2  0
 34 35  1  0
 34  2  1  0
 30  7  1  0
 24 15  1  0
M  END
>  <plip>  (1) 
-0.06896551724137931

>  <filename>  (1) 
[H][c]1[n][c]([H])[c](-[c]2[c]([H])[s][c]([C]([H])([H])[c]3[c]([H])[c]([H])[c]([H])[c]([H])[c]3[O][C]([H])([H])[H])[c]2[H])[c]([H])[c]1[H]

$$$$
