
     RDKit          3D

 29 31  0  0  0  0  0  0  0  0999 V2000
    9.2642   -2.5342   23.6910 H   0  0  0  0  0  0  0  0  0  0  0  0
    8.6970   -2.0102   22.9302 C   0  0  0  0  0  0  0  0  0  0  0  0
    9.2357   -1.9375   21.7229 N   0  0  0  0  0  0  0  0  0  0  0  0
    8.5641   -1.2845   20.7529 N   0  0  0  0  0  0  0  0  0  0  0  0
    7.3827   -0.7182   21.0313 C   0  0  0  0  0  0  0  0  0  0  0  0
    6.6634   -0.0053   19.9449 C   0  0  0  0  0  0  0  0  0  0  0  0
    7.1858    0.0422   18.6413 C   0  0  0  0  0  0  0  0  0  0  0  0
    8.1286   -0.4358   18.3925 H   0  0  0  0  0  0  0  0  0  0  0  0
    6.5772    0.6591   17.6202 N   0  0  0  0  0  0  0  0  0  0  0  0
    5.4137    1.2792   17.8590 C   0  0  0  0  0  0  0  0  0  0  0  0
    4.9325    1.7682   17.0102 H   0  0  0  0  0  0  0  0  0  0  0  0
    4.8142    1.3021   19.1204 C   0  0  0  0  0  0  0  0  0  0  0  0
    3.8835    1.8362   19.2626 H   0  0  0  0  0  0  0  0  0  0  0  0
    5.4403    0.6472   20.1761 C   0  0  0  0  0  0  0  0  0  0  0  0
    4.9940    0.6323   21.1718 H   0  0  0  0  0  0  0  0  0  0  0  0
    6.7936   -0.7355   22.2425 N   0  0  0  0  0  0  0  0  0  0  0  0
    7.4348   -1.3877   23.1992 C   0  0  0  0  0  0  0  0  0  0  0  0
    6.8598   -1.4542   24.4444 N   0  0  0  0  0  0  0  0  0  0  0  0
    7.2005   -2.1463   25.0814 H   0  0  0  0  0  0  0  0  0  0  0  0
    5.7746   -0.7344   24.9301 C   0  0  0  0  0  0  0  0  0  0  0  0
    5.5822    0.5888   24.5535 C   0  0  0  0  0  0  0  0  0  0  0  0
    6.2821    1.0631   23.8873 H   0  0  0  0  0  0  0  0  0  0  0  0
    4.4587    1.2437   25.0269 C   0  0  0  0  0  0  0  0  0  0  0  0
    4.2719    2.2688   24.7186 H   0  0  0  0  0  0  0  0  0  0  0  0
    3.5520    0.6990   25.8420 N   0  0  0  0  0  0  0  0  0  0  0  0
    3.7816   -0.5609   26.2267 C   0  0  0  0  0  0  0  0  0  0  0  0
    3.0379   -0.9775   26.9045 H   0  0  0  0  0  0  0  0  0  0  0  0
    4.8759   -1.3198   25.8251 C   0  0  0  0  0  0  0  0  0  0  0  0
    4.9823   -2.3382   26.1708 H   0  0  0  0  0  0  0  0  0  0  0  0
  1  2  1  0
  2  3  2  0
  3  4  1  0
  4  5  2  0
  5  6  1  0
  6  7  2  0
  7  8  1  0
  7  9  1  0
  9 10  2  0
 10 11  1  0
 10 12  1  0
 12 13  1  0
 12 14  2  0
 14 15  1  0
  5 16  1  0
 16 17  2  0
 17 18  1  0
 18 19  1  0
 18 20  1  0
 20 21  2  0
 21 22  1  0
 21 23  1  0
 23 24  1  0
 23 25  2  0
 25 26  1  0
 26 27  1  0
 26 28  2  0
 28 29  1  0
 17  2  1  0
 28 20  1  0
 14  6  1  0
M  END
>  <plip>  (1) 
-0.07142857142857142

>  <filename>  (1) 
[H][c]1[n][n][c](-[c]2[c]([H])[n][c]([H])[c]([H])[c]2[H])[n][c]1[N]([H])[c]1[c]([H])[c]([H])[n][c]([H])[c]1[H]

$$$$
