
     RDKit          3D

 43 44  0  0  0  0  0  0  0  0999 V2000
    4.9222    1.7951   16.9934 H   0  0  0  0  0  0  0  0  0  0  0  0
    5.3928    1.2923   17.8330 C   0  0  0  0  0  0  0  0  0  0  0  0
    6.5496    0.6664   17.5619 N   0  0  0  0  0  0  0  0  0  0  0  0
    7.1720    0.0544   18.5744 C   0  0  0  0  0  0  0  0  0  0  0  0
    8.1278   -0.4167   18.3593 H   0  0  0  0  0  0  0  0  0  0  0  0
    6.6679    0.0069   19.8915 C   0  0  0  0  0  0  0  0  0  0  0  0
    7.3605   -0.6693   20.9280 N   0  0  0  0  0  0  0  0  0  0  0  0
    6.7544   -1.4336   21.9312 C   0  0  0  0  0  0  0  0  0  0  0  0
    5.6853   -1.5783   21.9405 H   0  0  0  0  0  0  0  0  0  0  0  0
    7.7090   -1.9248   22.7512 C   0  0  0  0  0  0  0  0  0  0  0  0
    7.6327   -2.8599   23.9100 C   0  0  0  0  0  0  0  0  0  0  0  0
    6.5987   -2.8595   24.2789 H   0  0  0  0  0  0  0  0  0  0  0  0
    8.2411   -2.4899   24.7445 H   0  0  0  0  0  0  0  0  0  0  0  0
    8.0507   -4.3017   23.5512 C   0  0  0  0  0  0  0  0  0  0  0  0
    9.1130   -4.3021   23.2796 H   0  0  0  0  0  0  0  0  0  0  0  0
    7.9725   -4.9345   24.4454 H   0  0  0  0  0  0  0  0  0  0  0  0
    7.2525   -4.9268   22.3912 C   0  0  0  0  0  0  0  0  0  0  0  0
    7.4413   -4.3481   21.4739 H   0  0  0  0  0  0  0  0  0  0  0  0
    7.6517   -5.9346   22.2003 H   0  0  0  0  0  0  0  0  0  0  0  0
    5.7355   -5.0367   22.6102 C   0  0  0  0  0  0  0  0  0  0  0  0
    5.2788   -5.4579   21.7042 H   0  0  0  0  0  0  0  0  0  0  0  0
    5.2935   -4.0345   22.7135 H   0  0  0  0  0  0  0  0  0  0  0  0
    5.3400   -5.8844   23.8233 C   0  0  0  0  0  0  0  0  0  0  0  0
    5.7575   -5.4425   24.7385 H   0  0  0  0  0  0  0  0  0  0  0  0
    5.8075   -6.8751   23.7254 H   0  0  0  0  0  0  0  0  0  0  0  0
    3.8285   -6.0654   23.9976 C   0  0  0  0  0  0  0  0  0  0  0  0
    3.3297   -5.0848   23.9534 H   0  0  0  0  0  0  0  0  0  0  0  0
    3.6313   -6.4659   25.0021 H   0  0  0  0  0  0  0  0  0  0  0  0
    3.1982   -7.0150   22.9761 C   0  0  0  0  0  0  0  0  0  0  0  0
    3.7363   -7.9675   23.0455 H   0  0  0  0  0  0  0  0  0  0  0  0
    3.3542   -6.6378   21.9556 H   0  0  0  0  0  0  0  0  0  0  0  0
    1.7119   -7.2627   23.2257 C   0  0  0  0  0  0  0  0  0  0  0  0
    1.1414   -6.3268   23.1929 H   0  0  0  0  0  0  0  0  0  0  0  0
    1.5564   -7.7070   24.2167 H   0  0  0  0  0  0  0  0  0  0  0  0
    1.2834   -7.9451   22.4846 H   0  0  0  0  0  0  0  0  0  0  0  0
    8.9159   -1.4709   22.2286 N   0  0  0  0  0  0  0  0  0  0  0  0
    9.8595   -1.6176   22.5244 H   0  0  0  0  0  0  0  0  0  0  0  0
    8.7521   -0.6859   21.1256 C   0  0  0  0  0  0  0  0  0  0  0  0
    9.6495   -0.1524   20.5029 O   0  0  0  0  0  0  0  0  0  0  0  0
    5.4498    0.6474   20.1569 C   0  0  0  0  0  0  0  0  0  0  0  0
    5.0372    0.6347   21.1693 H   0  0  0  0  0  0  0  0  0  0  0  0
    4.8105    1.3087   19.1047 C   0  0  0  0  0  0  0  0  0  0  0  0
    3.8803    1.8381   19.2599 H   0  0  0  0  0  0  0  0  0  0  0  0
  1  2  1  0
  2  3  2  0
  3  4  1  0
  4  5  1  0
  4  6  2  0
  6  7  1  0
  7  8  1  0
  8  9  1  0
  8 10  2  0
 10 11  1  0
 11 12  1  0
 11 13  1  0
 11 14  1  0
 14 15  1  0
 14 16  1  0
 14 17  1  0
 17 18  1  0
 17 19  1  0
 17 20  1  0
 20 21  1  0
 20 22  1  0
 20 23  1  0
 23 24  1  0
 23 25  1  0
 23 26  1  0
 26 27  1  0
 26 28  1  0
 26 29  1  0
 29 30  1  0
 29 31  1  0
 29 32  1  0
 32 33  1  0
 32 34  1  0
 32 35  1  0
 10 36  1  0
 36 37  1  0
 36 38  1  0
 38 39  2  0
  6 40  1  0
 40 41  1  0
 40 42  2  0
 42 43  1  0
 42  2  1  0
 38  7  1  0
M  END
>  <plip>  (1) 
-0.10714285714285714

>  <filename>  (1) 
[H][c]1[n][c]([H])[c](-[n]2[c]([H])[c]([C]([H])([H])[C]([H])([H])[C]([H])([H])[C]([H])([H])[C]([H])([H])[C]([H])([H])[C]([H])([H])[C]([H])([H])[H])[n]([H])[c]2=[O])[c]([H])[c]1[H]

$$$$
