
     RDKit          3D

 31 31  0  0  0  0  0  0  0  0999 V2000
    4.9985    1.8220   16.9196 H   0  0  0  0  0  0  0  0  0  0  0  0
    5.4507    1.3164   17.7689 C   0  0  0  0  0  0  0  0  0  0  0  0
    6.5983    0.6601   17.5233 N   0  0  0  0  0  0  0  0  0  0  0  0
    7.1693    0.0163   18.5481 C   0  0  0  0  0  0  0  0  0  0  0  0
    8.0905   -0.5263   18.3412 H   0  0  0  0  0  0  0  0  0  0  0  0
    6.6451   -0.0201   19.8586 C   0  0  0  0  0  0  0  0  0  0  0  0
    7.3201   -0.8136   20.8715 N   0  0  0  0  0  0  0  0  0  0  0  0
    8.3390   -0.6671   20.8406 H   0  0  0  0  0  0  0  0  0  0  0  0
    6.8897   -0.8092   22.4841 S   0  0  0  0  0  4  0  0  0  0  0  0
    7.9631   -0.2747   23.3090 O   0  0  0  0  0  0  0  0  0  0  0  0
    6.3945   -2.3403   22.9085 N   0  0  0  0  0  0  0  0  0  0  0  0
    6.0861   -2.3501   23.8915 H   0  0  0  0  0  0  0  0  0  0  0  0
    7.4090   -3.4042   22.6528 C   0  0  0  0  0  0  0  0  0  0  0  0
    7.7850   -3.2936   21.6303 H   0  0  0  0  0  0  0  0  0  0  0  0
    8.2689   -3.2965   23.3317 H   0  0  0  0  0  0  0  0  0  0  0  0
    6.7366   -4.7716   22.8001 C   0  0  0  0  0  0  0  0  0  0  0  0
    6.2470   -4.8135   23.7950 H   0  0  0  0  0  0  0  0  0  0  0  0
    5.9193   -4.7832   22.0670 H   0  0  0  0  0  0  0  0  0  0  0  0
    7.6165   -5.9202   22.5658 N   0  0  0  0  0  0  0  0  0  0  0  0
    6.8532   -7.1075   22.2126 C   0  0  0  0  0  0  0  0  0  0  0  0
    6.3149   -6.9050   21.2834 H   0  0  0  0  0  0  0  0  0  0  0  0
    6.1010   -7.4175   22.9621 H   0  0  0  0  0  0  0  0  0  0  0  0
    7.5195   -7.9581   22.0355 H   0  0  0  0  0  0  0  0  0  0  0  0
    8.5574   -6.1514   23.6519 C   0  0  0  0  0  0  0  0  0  0  0  0
    9.1692   -7.0308   23.4252 H   0  0  0  0  0  0  0  0  0  0  0  0
    9.2426   -5.3049   23.7464 H   0  0  0  0  0  0  0  0  0  0  0  0
    8.0851   -6.3036   24.6417 H   0  0  0  0  0  0  0  0  0  0  0  0
    5.4571    0.6815   20.1042 C   0  0  0  0  0  0  0  0  0  0  0  0
    5.0275    0.6906   21.1040 H   0  0  0  0  0  0  0  0  0  0  0  0
    4.8511    1.3504   19.0329 C   0  0  0  0  0  0  0  0  0  0  0  0
    3.9236    1.8952   19.1694 H   0  0  0  0  0  0  0  0  0  0  0  0
  1  2  1  0
  2  3  2  0
  3  4  1  0
  4  5  1  0
  4  6  2  0
  6  7  1  0
  7  8  1  0
  9  7  1  1
  9 10  2  0
  9 11  1  0
 11 12  1  0
 11 13  1  0
 13 14  1  0
 13 15  1  0
 13 16  1  0
 16 17  1  0
 16 18  1  0
 16 19  1  0
 19 20  1  0
 20 21  1  0
 20 22  1  0
 20 23  1  0
 19 24  1  0
 24 25  1  0
 24 26  1  0
 24 27  1  0
  6 28  1  0
 28 29  1  0
 28 30  2  0
 30 31  1  0
 30  2  1  0
M  END
>  <plip>  (1) 
-0.034482758620689655

>  <filename>  (1) 
[H][c]1[n][c]([H])[c]([N]([H])[S@@](=[O])[N]([H])[C]([H])([H])[C]([H])([H])[N]([C]([H])([H])[H])[C]([H])([H])[H])[c]([H])[c]1[H]

$$$$
