
     RDKit          3D

 36 37  0  0  0  0  0  0  0  0999 V2000
    4.3663    4.0489   24.1047 C   0  0  0  0  0  0  0  0  0  0  0  0
    4.3321    2.6436   24.6403 C   0  0  0  0  0  0  0  0  0  0  0  0
    3.3797    2.3595   25.5347 N   0  0  0  0  0  0  0  0  0  0  0  0
    3.3186    1.1160   26.0371 C   0  0  0  0  0  0  0  0  0  0  0  0
    4.1967    0.1020   25.6655 C   0  0  0  0  0  0  0  0  0  0  0  0
    5.2058    0.3820   24.7408 C   0  0  0  0  0  0  0  0  0  0  0  0
    5.2842    1.6671   24.2035 C   0  0  0  0  0  0  0  0  0  0  0  0
    6.2994    1.9439   23.2361 N   0  0  0  0  0  0  0  0  0  0  0  0
    7.5815    1.4224   23.2534 C   0  0  0  0  0  0  0  0  0  0  0  0
    8.0446    0.8877   24.2405 O   0  0  0  0  0  0  0  0  0  0  0  0
    8.3980    1.4772   21.9645 C   0  0  0  0  0  0  0  0  0  0  0  0
    8.6777    0.0530   21.4165 C   0  0  0  0  0  0  0  0  0  0  0  0
    7.4111   -0.7143   20.9917 C   0  0  0  0  0  0  0  0  0  0  0  0
    6.6444   -0.0076   19.9003 C   0  0  0  0  0  0  0  0  0  0  0  0
    5.4321    0.6495   20.1516 C   0  0  0  0  0  0  0  0  0  0  0  0
    4.8009    1.3181   19.0986 C   0  0  0  0  0  0  0  0  0  0  0  0
    5.3961    1.3003   17.8328 C   0  0  0  0  0  0  0  0  0  0  0  0
    6.5574    0.6848   17.5715 N   0  0  0  0  0  0  0  0  0  0  0  0
    7.1595    0.0656   18.5935 C   0  0  0  0  0  0  0  0  0  0  0  0
    8.1092   -0.4152   18.3686 H   0  0  0  0  0  0  0  0  0  0  0  0
    4.9172    1.7899   16.9884 H   0  0  0  0  0  0  0  0  0  0  0  0
    3.8675    1.8483   19.2462 H   0  0  0  0  0  0  0  0  0  0  0  0
    5.0114    0.6326   21.1591 H   0  0  0  0  0  0  0  0  0  0  0  0
    7.6918   -1.7242   20.6548 H   0  0  0  0  0  0  0  0  0  0  0  0
    6.7622   -0.8571   21.8690 H   0  0  0  0  0  0  0  0  0  0  0  0
    9.3494    0.1258   20.5504 H   0  0  0  0  0  0  0  0  0  0  0  0
    9.2215   -0.5339   22.1693 H   0  0  0  0  0  0  0  0  0  0  0  0
    7.9260    2.1024   21.1941 H   0  0  0  0  0  0  0  0  0  0  0  0
    9.3581    1.9377   22.2294 H   0  0  0  0  0  0  0  0  0  0  0  0
    6.1029    2.5906   22.4908 H   0  0  0  0  0  0  0  0  0  0  0  0
    5.9174   -0.3763   24.4087 H   0  0  0  0  0  0  0  0  0  0  0  0
    4.1018   -0.8870   26.0937 H   0  0  0  0  0  0  0  0  0  0  0  0
    2.5291    0.9345   26.7615 H   0  0  0  0  0  0  0  0  0  0  0  0
    4.0800    4.0759   23.0499 H   0  0  0  0  0  0  0  0  0  0  0  0
    5.3707    4.4752   24.1658 H   0  0  0  0  0  0  0  0  0  0  0  0
    3.6767    4.6904   24.6562 H   0  0  0  0  0  0  0  0  0  0  0  0
  1  2  1  0
  2  3  2  0
  3  4  1  0
  4  5  2  0
  5  6  1  0
  6  7  2  0
  7  8  1  0
  8  9  1  0
  9 10  2  0
  9 11  1  0
 11 12  1  0
 12 13  1  0
 13 14  1  0
 14 15  2  0
 15 16  1  0
 16 17  2  0
 17 18  1  0
 18 19  2  0
 19 20  1  0
 17 21  1  0
 16 22  1  0
 15 23  1  0
 13 24  1  0
 13 25  1  0
 12 26  1  0
 12 27  1  0
 11 28  1  0
 11 29  1  0
  8 30  1  0
  6 31  1  0
  5 32  1  0
  4 33  1  0
  1 34  1  0
  1 35  1  0
  1 36  1  0
  7  2  1  0
 19 14  1  0
M  END
>  <plip>  (1) 
-0.07142857142857142

>  <filename>  (1) 
[H][c]1[n][c]([C]([H])([H])[H])[c]([N]([H])[C](=[O])[C]([H])([H])[C]([H])([H])[C]([H])([H])[c]2[c]([H])[n][c]([H])[c]([H])[c]2[H])[c]([H])[c]1[H]

$$$$
