
     RDKit          3D

 33 34  0  0  0  0  0  0  0  0999 V2000
    4.9558    1.8020   16.9910 H   0  0  0  0  0  0  0  0  0  0  0  0
    5.4121    1.2903   17.8323 C   0  0  0  0  0  0  0  0  0  0  0  0
    6.5681    0.6560   17.5874 N   0  0  0  0  0  0  0  0  0  0  0  0
    7.1619    0.0462   18.6198 C   0  0  0  0  0  0  0  0  0  0  0  0
    8.0974   -0.4643   18.3895 H   0  0  0  0  0  0  0  0  0  0  0  0
    6.6490    0.0155   19.9280 C   0  0  0  0  0  0  0  0  0  0  0  0
    7.4007   -0.7152   20.9681 C   0  0  0  0  0  0  0  0  0  0  0  0
    8.7346   -0.9994   21.0842 C   0  0  0  0  0  0  0  0  0  0  0  0
    9.5734   -0.7018   20.4796 H   0  0  0  0  0  0  0  0  0  0  0  0
    8.9444   -1.7892   22.2702 C   0  0  0  0  0  0  0  0  0  0  0  0
    9.9547   -2.2724   22.7685 O   0  0  0  0  0  0  0  0  0  0  0  0
    7.6656   -1.9507   22.8239 N   0  0  0  0  0  0  0  0  0  0  0  0
    7.3981   -2.4243   24.1403 C   0  0  0  0  0  0  0  0  0  0  0  0
    6.4083   -2.0737   24.7562 O   0  0  0  0  0  0  0  0  0  0  0  0
    8.3003   -3.3297   24.5687 N   0  0  0  0  0  0  0  0  0  0  0  0
    9.1412   -3.3242   24.0042 H   0  0  0  0  0  0  0  0  0  0  0  0
    8.1442   -4.0007   25.8607 C   0  0  0  0  0  0  0  0  0  0  0  0
    9.0927   -4.4684   26.1582 H   0  0  0  0  0  0  0  0  0  0  0  0
    7.9003   -3.2625   26.6345 H   0  0  0  0  0  0  0  0  0  0  0  0
    7.0258   -5.0472   25.8243 C   0  0  0  0  0  0  0  0  0  0  0  0
    7.2552   -5.8132   25.0629 H   0  0  0  0  0  0  0  0  0  0  0  0
    6.0950   -4.5414   25.5211 H   0  0  0  0  0  0  0  0  0  0  0  0
    6.9026   -5.6168   27.1086 O   0  0  0  0  0  0  0  0  0  0  0  0
    5.8906   -6.5949   27.1862 C   0  0  0  0  0  0  0  0  0  0  0  0
    6.0787   -7.4344   26.4971 H   0  0  0  0  0  0  0  0  0  0  0  0
    5.8950   -6.9784   28.2078 H   0  0  0  0  0  0  0  0  0  0  0  0
    4.8894   -6.1813   26.9737 H   0  0  0  0  0  0  0  0  0  0  0  0
    6.7440   -1.2711   22.0140 N   0  0  0  0  0  0  0  0  0  0  0  0
    5.7791   -1.1834   22.3079 H   0  0  0  0  0  0  0  0  0  0  0  0
    5.4232    0.6743   20.1543 C   0  0  0  0  0  0  0  0  0  0  0  0
    4.9695    0.7033   21.1480 H   0  0  0  0  0  0  0  0  0  0  0  0
    4.7995    1.3196   19.0889 C   0  0  0  0  0  0  0  0  0  0  0  0
    3.8632    1.8530   19.2197 H   0  0  0  0  0  0  0  0  0  0  0  0
  1  2  1  0
  2  3  2  0
  3  4  1  0
  4  5  1  0
  4  6  2  0
  6  7  1  0
  7  8  2  0
  8  9  1  0
  8 10  1  0
 10 11  2  0
 10 12  1  0
 12 13  1  0
 13 14  2  0
 13 15  1  0
 15 16  1  0
 15 17  1  0
 17 18  1  0
 17 19  1  0
 17 20  1  0
 20 21  1  0
 20 22  1  0
 20 23  1  0
 23 24  1  0
 24 25  1  0
 24 26  1  0
 24 27  1  0
 12 28  1  0
 28 29  1  0
  6 30  1  0
 30 31  1  0
 30 32  2  0
 32 33  1  0
 32  2  1  0
 28  7  1  0
M  END
>  <plip>  (1) 
-0.06896551724137931

>  <filename>  (1) 
[H][c]1[n][c]([H])[c](-[c]2[c]([H])[c](=[O])[n]([C](=[O])[N]([H])[C]([H])([H])[C]([H])([H])[O][C]([H])([H])[H])[n]2[H])[c]([H])[c]1[H]

$$$$
