
     RDKit          3D

 36 37  0  0  0  0  0  0  0  0999 V2000
    4.9216    1.7804   16.9981 H   0  0  0  0  0  0  0  0  0  0  0  0
    5.4043    1.2883   17.8446 C   0  0  0  0  0  0  0  0  0  0  0  0
    6.5697    0.6706   17.5946 N   0  0  0  0  0  0  0  0  0  0  0  0
    7.1821    0.0591   18.6169 C   0  0  0  0  0  0  0  0  0  0  0  0
    8.1235   -0.4338   18.3972 H   0  0  0  0  0  0  0  0  0  0  0  0
    6.6714   -0.0026   19.9390 C   0  0  0  0  0  0  0  0  0  0  0  0
    7.3974   -0.7368   20.8289 O   0  0  0  0  0  0  0  0  0  0  0  0
    7.0858   -0.7059   22.2317 C   0  0  2  0  0  0  0  0  0  0  0  0
    6.0481   -1.0399   22.3431 H   0  0  0  0  0  0  0  0  0  0  0  0
    7.2237    0.6694   22.8841 C   0  0  0  0  0  0  0  0  0  0  0  0
    6.2718    1.1026   23.8069 C   0  0  0  0  0  0  0  0  0  0  0  0
    5.4231    0.4605   24.0308 H   0  0  0  0  0  0  0  0  0  0  0  0
    6.3542    2.3397   24.4534 C   0  0  0  0  0  0  0  0  0  0  0  0
    5.5834    2.6515   25.1505 H   0  0  0  0  0  0  0  0  0  0  0  0
    7.4451    3.1714   24.1757 C   0  0  0  0  0  0  0  0  0  0  0  0
    7.6398    4.3972   24.7357 O   0  0  0  0  0  0  0  0  0  0  0  0
    6.7035    4.9317   25.6592 C   0  0  0  0  0  0  0  0  0  0  0  0
    5.7043    5.0737   25.2261 H   0  0  0  0  0  0  0  0  0  0  0  0
    6.6079    4.3264   26.5703 H   0  0  0  0  0  0  0  0  0  0  0  0
    7.0927    5.9092   25.9407 H   0  0  0  0  0  0  0  0  0  0  0  0
    8.4355    2.7537   23.2699 C   0  0  0  0  0  0  0  0  0  0  0  0
    9.2773    3.4082   23.0764 H   0  0  0  0  0  0  0  0  0  0  0  0
    8.3328    1.5114   22.6302 C   0  0  0  0  0  0  0  0  0  0  0  0
    9.2731    1.0285   21.7775 O   0  0  0  0  0  0  0  0  0  0  0  0
   10.4107    1.7834   21.4237 C   0  0  0  0  0  0  0  0  0  0  0  0
   10.1560    2.7145   20.9070 H   0  0  0  0  0  0  0  0  0  0  0  0
   10.9767    1.1617   20.7380 H   0  0  0  0  0  0  0  0  0  0  0  0
   11.0725    1.9963   22.2716 H   0  0  0  0  0  0  0  0  0  0  0  0
    7.9771   -1.7339   22.9085 C   0  0  0  0  0  0  0  0  0  0  0  0
    7.7300   -1.7942   23.9737 H   0  0  0  0  0  0  0  0  0  0  0  0
    9.0250   -1.4408   22.8190 H   0  0  0  0  0  0  0  0  0  0  0  0
    7.8375   -2.7239   22.4666 H   0  0  0  0  0  0  0  0  0  0  0  0
    5.4506    0.6450   20.1872 C   0  0  0  0  0  0  0  0  0  0  0  0
    4.9993    0.6381   21.1818 H   0  0  0  0  0  0  0  0  0  0  0  0
    4.8214    1.3010   19.1153 C   0  0  0  0  0  0  0  0  0  0  0  0
    3.8875    1.8314   19.2597 H   0  0  0  0  0  0  0  0  0  0  0  0
  1  2  1  0
  2  3  2  0
  3  4  1  0
  4  5  1  0
  4  6  2  0
  6  7  1  0
  7  8  1  0
  8  9  1  6
  8 10  1  0
 10 11  2  0
 11 12  1  0
 11 13  1  0
 13 14  1  0
 13 15  2  0
 15 16  1  0
 16 17  1  0
 17 18  1  0
 17 19  1  0
 17 20  1  0
 15 21  1  0
 21 22  1  0
 21 23  2  0
 23 24  1  0
 24 25  1  0
 25 26  1  0
 25 27  1  0
 25 28  1  0
  8 29  1  0
 29 30  1  0
 29 31  1  0
 29 32  1  0
  6 33  1  0
 33 34  1  0
 33 35  2  0
 35 36  1  0
 35  2  1  0
 23 10  1  0
M  END
>  <plip>  (1) 
-0.07142857142857142

>  <filename>  (1) 
[H][c]1[n][c]([H])[c]([O][C@]([H])([c]2[c]([H])[c]([H])[c]([O][C]([H])([H])[H])[c]([H])[c]2[O][C]([H])([H])[H])[C]([H])([H])[H])[c]([H])[c]1[H]

$$$$
