
     RDKit          3D

 28 29  0  0  0  0  0  0  0  0999 V2000
    4.9448    1.7992   17.0041 H   0  0  0  0  0  0  0  0  0  0  0  0
    5.4129    1.2771   17.8330 C   0  0  0  0  0  0  0  0  0  0  0  0
    6.5693    0.6437   17.5666 N   0  0  0  0  0  0  0  0  0  0  0  0
    7.1849    0.0153   18.5777 C   0  0  0  0  0  0  0  0  0  0  0  0
    8.1508   -0.4198   18.3208 H   0  0  0  0  0  0  0  0  0  0  0  0
    6.6808   -0.0361   19.9077 C   0  0  0  0  0  0  0  0  0  0  0  0
    7.2773   -0.6662   20.9821 N   0  0  0  0  0  0  0  0  0  0  0  0
    7.0838   -0.3294   21.9263 H   0  0  0  0  0  0  0  0  0  0  0  0
    8.2113   -1.6702   20.8085 N   0  0  0  0  0  0  0  0  0  0  0  0
    8.2573   -2.0983   19.8893 H   0  0  0  0  0  0  0  0  0  0  0  0
    8.7495   -2.4294   21.8617 C   0  0  0  0  0  0  0  0  0  0  0  0
   10.1472   -2.5076   21.8655 C   0  0  0  0  0  0  0  0  0  0  0  0
   10.6489   -2.0860   20.9997 H   0  0  0  0  0  0  0  0  0  0  0  0
   10.8390   -3.0831   22.9317 C   0  0  0  0  0  0  0  0  0  0  0  0
   11.9268   -3.1367   22.8965 H   0  0  0  0  0  0  0  0  0  0  0  0
   10.1249   -3.6246   24.0075 C   0  0  0  0  0  0  0  0  0  0  0  0
   10.6516   -4.0791   24.8435 H   0  0  0  0  0  0  0  0  0  0  0  0
    8.7301   -3.6147   23.9897 C   0  0  0  0  0  0  0  0  0  0  0  0
    8.1635   -4.0061   24.8352 H   0  0  0  0  0  0  0  0  0  0  0  0
    8.0335   -3.0795   22.8882 C   0  0  0  0  0  0  0  0  0  0  0  0
    6.5335   -3.0355   22.9544 C   0  0  0  0  0  0  0  0  0  0  0  0
    6.1668   -1.8992   23.5934 F   0  0  0  0  0  0  0  0  0  0  0  0
    5.9133   -3.0697   21.7695 F   0  0  0  0  0  0  0  0  0  0  0  0
    6.0227   -4.0631   23.6692 F   0  0  0  0  0  0  0  0  0  0  0  0
    5.4672    0.6343   20.1561 C   0  0  0  0  0  0  0  0  0  0  0  0
    5.0595    0.6240   21.1667 H   0  0  0  0  0  0  0  0  0  0  0  0
    4.8317    1.2911   19.1053 C   0  0  0  0  0  0  0  0  0  0  0  0
    3.8987    1.8248   19.2632 H   0  0  0  0  0  0  0  0  0  0  0  0
  1  2  1  0
  2  3  2  0
  3  4  1  0
  4  5  1  0
  4  6  2  0
  6  7  1  0
  7  8  1  0
  7  9  1  0
  9 10  1  0
  9 11  1  0
 11 12  2  0
 12 13  1  0
 12 14  1  0
 14 15  1  0
 14 16  2  0
 16 17  1  0
 16 18  1  0
 18 19  1  0
 18 20  2  0
 20 21  1  0
 21 22  1  0
 21 23  1  0
 21 24  1  0
  6 25  1  0
 25 26  1  0
 25 27  2  0
 27 28  1  0
 27  2  1  0
 20 11  1  0
M  END
>  <plip>  (1) 
-0.1

>  <filename>  (1) 
[H][c]1[n][c]([H])[c]([N]([H])[N]([H])[c]2[c]([H])[c]([H])[c]([H])[c]([H])[c]2[C]([F])([F])[F])[c]([H])[c]1[H]

$$$$
