
     RDKit          3D

 48 48  0  0  0  0  0  0  0  0999 V2000
    6.1325    4.4781   26.9655 C   0  0  0  0  0  0  0  0  0  0  0  0
    6.3016    3.2961   27.5543 C   0  0  0  0  0  0  0  0  0  0  0  0
    6.3598    1.9963   26.7824 C   0  0  0  0  0  0  0  0  0  0  0  0
    7.6289    1.8633   25.9252 C   0  0  0  0  0  0  0  0  0  0  0  0
    7.6548    0.5566   25.1519 C   0  0  0  0  0  0  0  0  0  0  0  0
    8.9200    0.3779   24.3513 N   0  0  0  0  0  4  0  0  0  0  0  0
   10.0332   -0.1579   25.2106 C   0  0  0  0  0  0  0  0  0  0  0  0
   11.3993    0.2112   24.6527 C   0  0  0  0  0  0  0  0  0  0  0  0
   11.5162    1.2993   24.6082 H   0  0  0  0  0  0  0  0  0  0  0  0
   11.5583   -0.1899   23.6455 H   0  0  0  0  0  0  0  0  0  0  0  0
   12.1918   -0.1866   25.2934 H   0  0  0  0  0  0  0  0  0  0  0  0
    9.9188   -1.2475   25.2834 H   0  0  0  0  0  0  0  0  0  0  0  0
    9.9167    0.2362   26.2244 H   0  0  0  0  0  0  0  0  0  0  0  0
    8.6730   -0.5001   23.1544 C   0  0  0  0  0  0  0  0  0  0  0  0
    8.1138    0.2776   21.9613 C   0  0  0  0  0  0  0  0  0  0  0  0
    9.2290    1.0939   21.2636 C   0  0  0  0  0  0  0  0  0  0  0  0
    8.7618    2.4699   20.8619 N   0  0  0  0  0  4  0  0  0  0  0  0
    7.9287    2.3883   20.2457 H   0  0  0  0  0  0  0  0  0  0  0  0
    9.4781    3.0562   20.3902 H   0  0  0  0  0  0  0  0  0  0  0  0
    8.4672    3.0164   21.6879 H   0  0  0  0  0  0  0  0  0  0  0  0
   10.1070    1.1775   21.9136 H   0  0  0  0  0  0  0  0  0  0  0  0
    9.5520    0.5480   20.3716 H   0  0  0  0  0  0  0  0  0  0  0  0
    7.3930   -0.7026   21.0037 C   0  0  0  0  0  0  0  0  0  0  0  0
    6.6604    0.0094   19.8934 C   0  0  0  0  0  0  0  0  0  0  0  0
    5.4463    0.6647   20.1463 C   0  0  0  0  0  0  0  0  0  0  0  0
    4.8054    1.3209   19.0953 C   0  0  0  0  0  0  0  0  0  0  0  0
    5.3964    1.3042   17.8264 C   0  0  0  0  0  0  0  0  0  0  0  0
    6.5627    0.6974   17.5644 N   0  0  0  0  0  0  0  0  0  0  0  0
    7.1672    0.0698   18.5832 C   0  0  0  0  0  0  0  0  0  0  0  0
    8.1149   -0.4189   18.3492 H   0  0  0  0  0  0  0  0  0  0  0  0
    4.9139    1.7946   16.9829 H   0  0  0  0  0  0  0  0  0  0  0  0
    3.8715    1.8451   19.2457 H   0  0  0  0  0  0  0  0  0  0  0  0
    5.0126    0.6365   21.1527 H   0  0  0  0  0  0  0  0  0  0  0  0
    8.1284   -1.4068   20.5859 H   0  0  0  0  0  0  0  0  0  0  0  0
    6.6735   -1.3102   21.5772 H   0  0  0  0  0  0  0  0  0  0  0  0
    7.3689    0.9908   22.3407 H   0  0  0  0  0  0  0  0  0  0  0  0
    7.9783   -1.2998   23.4538 H   0  0  0  0  0  0  0  0  0  0  0  0
    9.6034   -0.9994   22.8609 H   0  0  0  0  0  0  0  0  0  0  0  0
    9.2054    1.3203   24.0169 H   0  0  0  0  0  0  0  0  0  0  0  0
    6.7912    0.5072   24.4794 H   0  0  0  0  0  0  0  0  0  0  0  0
    7.5494   -0.2923   25.8442 H   0  0  0  0  0  0  0  0  0  0  0  0
    8.5167    1.9446   26.5634 H   0  0  0  0  0  0  0  0  0  0  0  0
    7.6963    2.6974   25.2157 H   0  0  0  0  0  0  0  0  0  0  0  0
    6.2928    1.1416   27.4696 H   0  0  0  0  0  0  0  0  0  0  0  0
    5.4813    1.9324   26.1203 H   0  0  0  0  0  0  0  0  0  0  0  0
    6.4542    3.2533   28.6349 H   0  0  0  0  0  0  0  0  0  0  0  0
    6.1081    5.4106   27.5219 H   0  0  0  0  0  0  0  0  0  0  0  0
    6.0225    4.5601   25.8836 H   0  0  0  0  0  0  0  0  0  0  0  0
  1  2  2  3
  2  3  1  0
  3  4  1  0
  4  5  1  0
  5  6  1  0
  6  7  1  0
  7  8  1  0
  8  9  1  0
  8 10  1  0
  8 11  1  0
  7 12  1  0
  7 13  1  0
  6 14  1  0
 14 15  1  0
 15 16  1  0
 16 17  1  0
 17 18  1  0
 17 19  1  0
 17 20  1  0
 16 21  1  0
 16 22  1  0
 15 23  1  0
 23 24  1  0
 24 25  2  0
 25 26  1  0
 26 27  2  0
 27 28  1  0
 28 29  2  0
 29 30  1  0
 27 31  1  0
 26 32  1  0
 25 33  1  0
 23 34  1  0
 23 35  1  0
 15 36  1  0
 14 37  1  0
 14 38  1  0
  6 39  1  0
  5 40  1  0
  5 41  1  0
  4 42  1  0
  4 43  1  0
  3 44  1  0
  3 45  1  0
  2 46  1  0
  1 47  1  0
  1 48  1  0
 29 24  1  0
M  CHG  2   6   1  17   1
M  END
>  <plip>  (1) 
-0.13793103448275862

>  <filename>  (1) 
[H][C]([H])=[C]([H])[C]([H])([H])[C]([H])([H])[C]([H])([H])[N+]([H])([C]([H])([H])[C]([H])([H])[H])[C]([H])([H])[C]([H])([C]([H])([H])[c]1[c]([H])[n][c]([H])[c]([H])[c]1[H])[C]([H])([H])[N+]([H])([H])[H]

$$$$
