
     RDKit          3D

 43 44  0  0  0  0  0  0  0  0999 V2000
   11.1160   -0.0699   21.7584 C   0  0  0  0  0  0  0  0  0  0  0  0
   11.0542    0.0226   21.7706 C   0  0  0  0  0  0  0  0  0  0  0  0
    9.8191    0.3471   20.9338 C   0  0  0  0  0  0  0  0  0  0  0  0
    8.4923    0.1412   21.6715 N   0  0  0  0  0  0  0  0  0  0  0  0
    7.4872   -0.7463   21.0136 C   0  0  0  0  0  0  0  0  0  0  0  0
    6.6559   -0.1452   19.8832 C   0  0  0  0  0  0  0  0  0  0  0  0
    5.3864    0.4208   20.0876 C   0  0  0  0  0  0  0  0  0  0  0  0
    4.7637    1.0849   19.0260 C   0  0  0  0  0  0  0  0  0  0  0  0
    5.4053    1.1310   17.7859 C   0  0  0  0  0  0  0  0  0  0  0  0
    6.5755    0.5256   17.5490 N   0  0  0  0  0  0  0  0  0  0  0  0
    7.1665   -0.0995   18.5778 C   0  0  0  0  0  0  0  0  0  0  0  0
    8.0885   -0.6202   18.3147 H   0  0  0  0  0  0  0  0  0  0  0  0
    4.9583    1.6658   16.9479 H   0  0  0  0  0  0  0  0  0  0  0  0
    3.8134    1.5902   19.1556 H   0  0  0  0  0  0  0  0  0  0  0  0
    4.9179    0.3869   21.0727 H   0  0  0  0  0  0  0  0  0  0  0  0
    6.8343   -1.1103   21.8131 H   0  0  0  0  0  0  0  0  0  0  0  0
    8.0367   -1.6254   20.6439 H   0  0  0  0  0  0  0  0  0  0  0  0
    7.6770    1.5029   22.2090 S   0  0  0  0  0  0  0  0  0  0  0  0
    7.5050    2.4083   21.0892 O   0  0  0  0  0  0  0  0  0  0  0  0
    6.5269    1.0373   22.9592 O   0  0  0  0  0  0  0  0  0  0  0  0
    8.7389    2.2381   23.3057 N   0  0  0  0  0  0  0  0  0  0  0  0
    9.3899    3.4522   22.7123 C   0  0  0  0  0  0  0  0  0  0  0  0
   10.4296    4.0437   23.6684 C   0  0  0  0  0  0  0  0  0  0  0  0
    9.8030    4.4388   25.0098 N   0  0  0  0  0  4  0  0  0  0  0  0
    9.1287    3.1871   25.6030 C   0  0  0  0  0  0  0  0  0  0  0  0
    8.1013    2.5631   24.6350 C   0  0  0  0  0  0  0  0  0  0  0  0
    7.2475    3.2532   24.5304 H   0  0  0  0  0  0  0  0  0  0  0  0
    7.7269    1.6428   25.0903 H   0  0  0  0  0  0  0  0  0  0  0  0
    8.6414    3.4358   26.5443 H   0  0  0  0  0  0  0  0  0  0  0  0
    9.8949    2.4396   25.8158 H   0  0  0  0  0  0  0  0  0  0  0  0
   10.5270    4.8239   25.6492 H   0  0  0  0  0  0  0  0  0  0  0  0
    9.0610    5.1713   24.8314 H   0  0  0  0  0  0  0  0  0  0  0  0
   11.2002    3.2861   23.8390 H   0  0  0  0  0  0  0  0  0  0  0  0
   10.8887    4.9066   23.1891 H   0  0  0  0  0  0  0  0  0  0  0  0
    8.6523    4.2253   22.4391 H   0  0  0  0  0  0  0  0  0  0  0  0
    9.9221    3.1702   21.8013 H   0  0  0  0  0  0  0  0  0  0  0  0
    9.7061   -0.2139   19.9729 H   0  0  0  0  0  0  0  0  0  0  0  0
    9.8272    1.4020   20.6421 H   0  0  0  0  0  0  0  0  0  0  0  0
   10.5244   -0.5955   22.8138 H   0  0  0  0  0  0  0  0  0  0  0  0
   10.7515    0.9064   22.7226 H   0  0  0  0  0  0  0  0  0  0  0  0
   12.0213    0.8561   21.4061 H   0  0  0  0  0  0  0  0  0  0  0  0
   12.4813   -1.5297   21.4145 H   0  0  0  0  0  0  0  0  0  0  0  0
   12.0022   -1.6508   20.9475 H   0  0  0  0  0  0  0  0  0  0  0  0
  1  2  1  0
  2  3  1  0
  3  4  1  0
  4  5  1  0
  5  6  1  0
  6  7  2  0
  7  8  1  0
  8  9  2  0
  9 10  1  0
 10 11  2  0
 11 12  1  0
  9 13  1  0
  8 14  1  0
  7 15  1  0
  5 16  1  0
  5 17  1  0
  4 18  1  0
 18 19  2  0
 18 20  2  0
 18 21  1  0
 21 22  1  0
 22 23  1  0
 23 24  1  0
 24 25  1  0
 25 26  1  0
 26 27  1  0
 26 28  1  0
 25 29  1  0
 25 30  1  0
 24 31  1  0
 24 32  1  0
 23 33  1  0
 23 34  1  0
 22 35  1  0
 22 36  1  0
  3 37  1  0
  3 38  1  0
  2 39  1  0
  2 40  1  0
  1 41  1  0
  1 42  1  0
  1 43  1  0
 11  6  1  0
 26 21  1  0
M  CHG  1  24   1
M  END
>  <plip>  (1) 
-0.14285714285714285

>  <filename>  (1) 
[H][c]1[n][c]([H])[c]([C]([H])([H])[N]([C]([H])([H])[C]([H])([H])[C]([H])([H])[H])[S](=[O])(=[O])[N]2[C]([H])([H])[C]([H])([H])[N+]([H])([H])[C]([H])([H])[C]2([H])[H])[c]([H])[c]1[H]

$$$$
