
     RDKit          3D

 38 40  0  0  0  0  0  0  0  0999 V2000
    5.3771    1.7211   17.0465 H   0  0  0  0  0  0  0  0  0  0  0  0
    5.6701    1.1971   17.9538 C   0  0  0  0  0  0  0  0  0  0  0  0
    6.8227    0.5161   17.8921 N   0  0  0  0  0  0  0  0  0  0  0  0
    7.2201   -0.1035   19.0092 C   0  0  0  0  0  0  0  0  0  0  0  0
    8.1587   -0.6546   18.9546 H   0  0  0  0  0  0  0  0  0  0  0  0
    6.5034   -0.0914   20.2210 C   0  0  0  0  0  0  0  0  0  0  0  0
    7.0848   -0.8497   21.4028 C   0  0  2  0  0  0  0  0  0  0  0  0
    6.6034   -0.5169   22.3422 H   0  0  0  0  0  0  0  0  0  0  0  0
    8.5469   -0.6469   21.4996 N   0  0  0  0  0  0  0  0  0  0  0  0
    8.9598    0.5244   22.2403 N   0  0  0  0  0  0  0  0  0  0  0  0
    8.2662    1.2588   22.0883 H   0  0  0  0  0  0  0  0  0  0  0  0
   10.2572    1.0612   21.7829 C   0  0  0  0  0  0  0  0  0  0  0  0
   10.4831    0.6340   20.7990 H   0  0  0  0  0  0  0  0  0  0  0  0
   10.2490    2.5871   21.6637 C   0  0  0  0  0  0  0  0  0  0  0  0
   10.9976    2.8640   20.9115 H   0  0  0  0  0  0  0  0  0  0  0  0
    9.2809    2.9581   21.3032 H   0  0  0  0  0  0  0  0  0  0  0  0
   10.6746    3.1612   23.0269 C   0  0  0  0  0  0  0  0  0  0  0  0
   11.2055    4.1126   22.9135 H   0  0  0  0  0  0  0  0  0  0  0  0
    9.8001    3.3667   23.6519 H   0  0  0  0  0  0  0  0  0  0  0  0
   11.5473    2.0608   23.6769 C   0  0  0  0  0  0  0  0  0  0  0  0
   12.5979    2.3617   23.7631 H   0  0  0  0  0  0  0  0  0  0  0  0
   11.1996    1.8587   24.6944 H   0  0  0  0  0  0  0  0  0  0  0  0
   11.4073    0.7972   22.7821 C   0  0  0  0  0  0  0  0  0  0  0  0
   11.2348   -0.1105   23.3666 H   0  0  0  0  0  0  0  0  0  0  0  0
   12.3336    0.6354   22.2191 H   0  0  0  0  0  0  0  0  0  0  0  0
    9.1782   -1.8477   22.0447 C   0  0  0  0  0  0  0  0  0  0  0  0
    9.3165   -1.7538   23.1357 H   0  0  0  0  0  0  0  0  0  0  0  0
   10.1767   -1.9693   21.5990 H   0  0  0  0  0  0  0  0  0  0  0  0
    8.2395   -3.0190   21.7194 C   0  0  0  0  0  0  0  0  0  0  0  0
    8.0842   -3.6306   22.6119 H   0  0  0  0  0  0  0  0  0  0  0  0
    8.6672   -3.6743   20.9556 H   0  0  0  0  0  0  0  0  0  0  0  0
    6.9228   -2.3758   21.2379 C   0  0  0  0  0  0  0  0  0  0  0  0
    6.7282   -2.6285   20.1899 H   0  0  0  0  0  0  0  0  0  0  0  0
    6.0522   -2.7274   21.7968 H   0  0  0  0  0  0  0  0  0  0  0  0
    5.2737    0.5803   20.2493 C   0  0  0  0  0  0  0  0  0  0  0  0
    4.6483    0.5705   21.1450 H   0  0  0  0  0  0  0  0  0  0  0  0
    4.8634    1.2548   19.0954 C   0  0  0  0  0  0  0  0  0  0  0  0
    3.9484    1.8379   19.0738 H   0  0  0  0  0  0  0  0  0  0  0  0
  1  2  1  0
  2  3  2  0
  3  4  1  0
  4  5  1  0
  4  6  2  0
  6  7  1  0
  7  8  1  1
  7  9  1  0
  9 10  1  0
 10 11  1  0
 10 12  1  0
 12 13  1  0
 12 14  1  0
 14 15  1  0
 14 16  1  0
 14 17  1  0
 17 18  1  0
 17 19  1  0
 17 20  1  0
 20 21  1  0
 20 22  1  0
 20 23  1  0
 23 24  1  0
 23 25  1  0
  9 26  1  0
 26 27  1  0
 26 28  1  0
 26 29  1  0
 29 30  1  0
 29 31  1  0
 29 32  1  0
 32 33  1  0
 32 34  1  0
  6 35  1  0
 35 36  1  0
 35 37  2  0
 37 38  1  0
 37  2  1  0
 32  7  1  0
 23 12  1  0
M  END
>  <plip>  (1) 
-0.07142857142857142

>  <filename>  (1) 
[H][c]1[n][c]([H])[c]([C@]2([H])[N]([N]([H])[C]3([H])[C]([H])([H])[C]([H])([H])[C]([H])([H])[C]3([H])[H])[C]([H])([H])[C]([H])([H])[C]2([H])[H])[c]([H])[c]1[H]

$$$$
