
     RDKit          3D

 18 18  0  0  0  0  0  0  0  0999 V2000
   11.2851    1.0312   20.7849 H   0  0  0  0  0  0  0  0  0  0  0  0
   10.7414    0.4364   21.3230 O   0  0  0  0  0  0  0  0  0  0  0  0
    9.5080    0.3757   20.6548 N   0  0  0  0  0  0  0  0  0  0  0  0
    8.7463   -0.4824   21.2165 C   0  0  0  0  0  0  0  0  0  0  0  0
    9.0648   -1.0578   22.0858 H   0  0  0  0  0  0  0  0  0  0  0  0
    7.4642   -0.8408   20.7463 N   0  0  0  0  0  0  0  0  0  0  0  0
    6.6901   -1.4080   21.7701 O   0  0  0  0  0  0  0  0  0  0  0  0
    6.3300   -2.2412   21.4254 H   0  0  0  0  0  0  0  0  0  0  0  0
    6.7166   -0.0568   19.8138 C   0  0  0  0  0  0  0  0  0  0  0  0
    7.1752    0.0349   18.4838 C   0  0  0  0  0  0  0  0  0  0  0  0
    8.1234   -0.4342   18.2299 H   0  0  0  0  0  0  0  0  0  0  0  0
    6.5294    0.6845   17.5092 N   0  0  0  0  0  0  0  0  0  0  0  0
    5.3834    1.3065   17.8289 C   0  0  0  0  0  0  0  0  0  0  0  0
    4.8919    1.8431   17.0193 H   0  0  0  0  0  0  0  0  0  0  0  0
    4.8364    1.2820   19.1174 C   0  0  0  0  0  0  0  0  0  0  0  0
    3.9056    1.8088   19.3006 H   0  0  0  0  0  0  0  0  0  0  0  0
    5.5072    0.5895   20.1322 C   0  0  0  0  0  0  0  0  0  0  0  0
    5.1295    0.5521   21.1522 H   0  0  0  0  0  0  0  0  0  0  0  0
  1  2  1  0
  2  3  1  0
  3  4  2  3
  4  5  1  0
  4  6  1  0
  6  7  1  0
  7  8  1  0
  6  9  1  0
  9 10  2  0
 10 11  1  0
 10 12  1  0
 12 13  2  0
 13 14  1  0
 13 15  1  0
 15 16  1  0
 15 17  2  0
 17 18  1  0
 17  9  1  0
M  END
>  <plip>  (1) 
-0.07142857142857142

>  <filename>  (1) 
[H][O][N]=[C]([H])[N]([O][H])[c]1[c]([H])[n][c]([H])[c]([H])[c]1[H]

$$$$
