
     RDKit          3D

 37 40  0  0  0  0  0  0  0  0999 V2000
    4.9649    1.7731   16.9780 H   0  0  0  0  0  0  0  0  0  0  0  0
    5.4350    1.2956   17.8345 C   0  0  0  0  0  0  0  0  0  0  0  0
    6.6112    0.6918   17.6068 N   0  0  0  0  0  0  0  0  0  0  0  0
    7.1997    0.0962   18.6515 C   0  0  0  0  0  0  0  0  0  0  0  0
    8.1538   -0.3921   18.4524 H   0  0  0  0  0  0  0  0  0  0  0  0
    6.6585    0.0603   19.9424 C   0  0  0  0  0  0  0  0  0  0  0  0
    7.3982   -0.6392   21.0228 C   0  0  0  0  0  0  0  0  0  0  0  0
    8.5064    0.0559   21.5643 O   0  0  0  0  0  0  0  0  0  0  0  0
    8.2361    1.1324   22.3580 C   0  0  0  0  0  0  0  0  0  0  0  0
    7.1097    1.4822   22.6179 O   0  0  0  0  0  0  0  0  0  0  0  0
    9.5033    1.7570   22.8677 C   0  0  0  0  0  0  0  0  0  0  0  0
   10.5482    0.9366   23.2802 C   0  0  0  0  0  0  0  0  0  0  0  0
   10.4442   -0.1464   23.2362 H   0  0  0  0  0  0  0  0  0  0  0  0
   11.7670    1.4901   23.7362 C   0  0  0  0  0  0  0  0  0  0  0  0
   12.5785    0.8308   24.0380 H   0  0  0  0  0  0  0  0  0  0  0  0
   11.9275    2.8534   23.7901 C   0  0  0  0  0  0  0  0  0  0  0  0
   12.8979    3.2811   24.0146 H   0  0  0  0  0  0  0  0  0  0  0  0
   10.8441    3.7355   23.4923 C   0  0  0  0  0  0  0  0  0  0  0  0
   10.9457    5.1442   23.7106 C   0  0  0  0  0  0  0  0  0  0  0  0
   11.8349    5.5289   24.2089 H   0  0  0  0  0  0  0  0  0  0  0  0
    9.9252    5.9852   23.3250 C   0  0  0  0  0  0  0  0  0  0  0  0
   10.0077    7.0579   23.4832 H   0  0  0  0  0  0  0  0  0  0  0  0
    8.7507    5.4562   22.7181 C   0  0  0  0  0  0  0  0  0  0  0  0
    7.9821    6.1403   22.3588 H   0  0  0  0  0  0  0  0  0  0  0  0
    8.5860    4.0970   22.5609 C   0  0  0  0  0  0  0  0  0  0  0  0
    7.6760    3.6987   22.1112 H   0  0  0  0  0  0  0  0  0  0  0  0
    9.6198    3.1884   22.9737 C   0  0  0  0  0  0  0  0  0  0  0  0
    7.6043   -2.1134   20.9042 C   0  0  0  0  0  0  0  0  0  0  0  0
    8.5743   -2.5244   21.1688 H   0  0  0  0  0  0  0  0  0  0  0  0
    7.0739   -2.6066   20.0974 H   0  0  0  0  0  0  0  0  0  0  0  0
    6.7080   -1.5504   21.9770 C   0  0  0  0  0  0  0  0  0  0  0  0
    5.6364   -1.6801   21.8587 H   0  0  0  0  0  0  0  0  0  0  0  0
    7.0934   -1.5454   22.9894 H   0  0  0  0  0  0  0  0  0  0  0  0
    5.4328    0.6984   20.1631 C   0  0  0  0  0  0  0  0  0  0  0  0
    5.0196    0.7359   21.1720 H   0  0  0  0  0  0  0  0  0  0  0  0
    4.8098    1.3193   19.0854 C   0  0  0  0  0  0  0  0  0  0  0  0
    3.8639    1.8297   19.2059 H   0  0  0  0  0  0  0  0  0  0  0  0
  1  2  1  0
  2  3  2  0
  3  4  1  0
  4  5  1  0
  4  6  2  0
  6  7  1  0
  7  8  1  0
  8  9  1  0
  9 10  2  0
  9 11  1  0
 11 12  2  0
 12 13  1  0
 12 14  1  0
 14 15  1  0
 14 16  2  0
 16 17  1  0
 16 18  1  0
 18 19  2  0
 19 20  1  0
 19 21  1  0
 21 22  1  0
 21 23  2  0
 23 24  1  0
 23 25  1  0
 25 26  1  0
 25 27  2  0
  7 28  1  0
 28 29  1  0
 28 30  1  0
 28 31  1  0
 31 32  1  0
 31 33  1  0
  6 34  1  0
 34 35  1  0
 34 36  2  0
 36 37  1  0
 36  2  1  0
 31  7  1  0
 27 11  1  0
 27 18  1  0
M  END
>  <plip>  (1) 
-0.06896551724137931

>  <filename>  (1) 
[H][c]1[n][c]([H])[c]([C]2([O][C](=[O])[c]3[c]([H])[c]([H])[c]([H])[c]4[c]([H])[c]([H])[c]([H])[c]([H])[c]34)[C]([H])([H])[C]2([H])[H])[c]([H])[c]1[H]

$$$$
