
     RDKit          3D

 27 29  0  0  0  0  0  0  0  0999 V2000
    9.4495   -0.1665   20.1439 O   0  0  0  0  0  0  0  0  0  0  0  0
    8.6811   -0.8424   20.8049 C   0  0  0  0  0  0  0  0  0  0  0  0
    7.3164   -0.7414   20.6619 N   0  0  0  0  0  0  0  0  0  0  0  0
    6.6208   -0.0014   19.6759 C   0  0  0  0  0  0  0  0  0  0  0  0
    5.4180    0.6221   20.0249 C   0  0  0  0  0  0  0  0  0  0  0  0
    4.7357    1.3450   19.0377 C   0  0  0  0  0  0  0  0  0  0  0  0
    5.2708    1.4121   17.7459 C   0  0  0  0  0  0  0  0  0  0  0  0
    6.4191    0.8126   17.3921 N   0  0  0  0  0  0  0  0  0  0  0  0
    7.0763    0.1361   18.3405 C   0  0  0  0  0  0  0  0  0  0  0  0
    8.0152   -0.3271   18.0537 H   0  0  0  0  0  0  0  0  0  0  0  0
    4.7691    1.9684   16.9590 H   0  0  0  0  0  0  0  0  0  0  0  0
    3.8074    1.8589   19.2576 H   0  0  0  0  0  0  0  0  0  0  0  0
    5.0580    0.5710   21.0540 H   0  0  0  0  0  0  0  0  0  0  0  0
    6.7616   -1.1303   21.4044 H   0  0  0  0  0  0  0  0  0  0  0  0
    9.1611   -1.8668   21.8016 C   0  0  0  0  0  0  0  0  0  0  0  0
   10.5841   -2.0117   21.9035 C   0  0  0  0  0  0  0  0  0  0  0  0
   11.1739   -2.8318   22.8432 C   0  0  0  0  0  0  0  0  0  0  0  0
   10.2972   -3.5663   23.6719 C   0  0  0  0  0  0  0  0  0  0  0  0
   10.4623   -4.4823   24.6553 N   0  0  0  0  0  0  0  0  0  0  0  0
    9.2780   -4.9792   25.0707 N   0  0  0  0  0  0  0  0  0  0  0  0
    8.3369   -4.4342   24.3946 N   0  0  0  0  0  0  0  0  0  0  0  0
    8.9034   -3.5370   23.5118 C   0  0  0  0  0  0  0  0  0  0  0  0
    8.3167   -2.6687   22.5811 C   0  0  0  0  0  0  0  0  0  0  0  0
    7.2333   -2.7034   22.5080 H   0  0  0  0  0  0  0  0  0  0  0  0
   11.2924   -4.7253   25.1708 H   0  0  0  0  0  0  0  0  0  0  0  0
   12.2513   -2.9610   22.8654 H   0  0  0  0  0  0  0  0  0  0  0  0
   11.2091   -1.4573   21.2023 H   0  0  0  0  0  0  0  0  0  0  0  0
  1  2  2  0
  2  3  1  0
  3  4  1  0
  4  5  2  0
  5  6  1  0
  6  7  2  0
  7  8  1  0
  8  9  2  0
  9 10  1  0
  7 11  1  0
  6 12  1  0
  5 13  1  0
  3 14  1  0
  2 15  1  0
 15 16  2  0
 16 17  1  0
 17 18  2  0
 18 19  1  0
 19 20  1  0
 20 21  2  0
 21 22  1  0
 22 23  2  0
 23 24  1  0
 19 25  1  0
 17 26  1  0
 16 27  1  0
  9  4  1  0
 23 15  1  0
 22 18  1  0
M  END
>  <plip>  (1) 
-0.14285714285714285

>  <filename>  (1) 
[H][c]1[n][c]([H])[c]([N]([H])[C](=[O])[c]2[c]([H])[c]([H])[c]3[c]([n][n][n]3[H])[c]2[H])[c]([H])[c]1[H]

$$$$
