
     RDKit          3D

 28 30  0  0  0  0  0  0  0  0999 V2000
    4.8178    1.3059   19.0892 C   0  0  0  0  0  0  0  0  0  0  0  0
    5.4292    1.2920   17.8266 C   0  0  0  0  0  0  0  0  0  0  0  0
    6.5710    0.6425   17.5641 N   0  0  0  0  0  0  0  0  0  0  0  0
    7.1588    0.0157   18.5828 C   0  0  0  0  0  0  0  0  0  0  0  0
    6.6612   -0.0068   19.8936 C   0  0  0  0  0  0  0  0  0  0  0  0
    7.4422   -0.7056   20.9214 C   0  0  0  0  0  0  0  0  0  0  0  0
    8.7828   -0.9504   20.8430 C   0  0  0  0  0  0  0  0  0  0  0  0
    9.3010   -1.7689   22.2875 S   0  0  0  0  0  0  0  0  0  0  0  0
    7.6641   -1.6744   22.8679 C   0  0  0  0  0  0  0  0  0  0  0  0
    7.1718   -2.0735   24.0647 N   0  0  0  0  0  0  0  0  0  0  0  0
    7.7832   -2.9897   25.0140 C   0  0  0  0  0  0  0  0  0  0  0  0
    6.9087   -3.4563   26.1598 C   0  0  0  0  0  0  0  0  0  0  0  0
    6.7345   -4.7068   26.4717 N   0  0  0  0  0  0  0  0  0  0  0  0
    5.8978   -4.8204   27.5575 C   0  0  0  0  0  0  0  0  0  0  0  0
    5.4253   -3.6537   28.0658 C   0  0  0  0  0  0  0  0  0  0  0  0
    6.0779   -2.3287   27.1875 S   0  0  0  0  0  0  0  0  0  0  0  0
    4.7747   -3.5176   28.9172 H   0  0  0  0  0  0  0  0  0  0  0  0
    5.6834   -5.8037   27.9555 H   0  0  0  0  0  0  0  0  0  0  0  0
    8.1535   -3.9100   24.5409 H   0  0  0  0  0  0  0  0  0  0  0  0
    8.6515   -2.4908   25.4633 H   0  0  0  0  0  0  0  0  0  0  0  0
    6.1716   -1.9386   23.9314 H   0  0  0  0  0  0  0  0  0  0  0  0
    6.8093   -1.1272   22.0587 N   0  0  0  0  0  0  0  0  0  0  0  0
    9.4833   -0.6576   20.0722 H   0  0  0  0  0  0  0  0  0  0  0  0
    5.4384    0.6399   20.1463 C   0  0  0  0  0  0  0  0  0  0  0  0
    4.9916    0.6027   21.1444 H   0  0  0  0  0  0  0  0  0  0  0  0
    8.0691   -0.5244   18.3305 H   0  0  0  0  0  0  0  0  0  0  0  0
    4.9767    1.8185   16.9893 H   0  0  0  0  0  0  0  0  0  0  0  0
    3.8826    1.8403   19.2299 H   0  0  0  0  0  0  0  0  0  0  0  0
  1  2  2  0
  2  3  1  0
  3  4  2  0
  4  5  1  0
  5  6  1  0
  6  7  2  0
  7  8  1  0
  8  9  1  0
  9 10  1  0
 10 11  1  0
 11 12  1  0
 12 13  2  0
 13 14  1  0
 14 15  2  0
 15 16  1  0
 15 17  1  0
 14 18  1  0
 11 19  1  0
 11 20  1  0
 10 21  1  0
  9 22  2  0
  7 23  1  0
  5 24  2  0
 24 25  1  0
  4 26  1  0
  2 27  1  0
  1 28  1  0
 24  1  1  0
 22  6  1  0
 16 12  1  0
M  END
>  <plip>  (1) 
-0.07142857142857142

>  <filename>  (1) 
[H][c]1[n][c]([C]([H])([H])[N]([H])[c]2[n][c](-[c]3[c]([H])[n][c]([H])[c]([H])[c]3[H])[c]([H])[s]2)[s][c]1[H]

$$$$
