
     RDKit          3D

 42 45  0  0  0  0  0  0  0  0999 V2000
    4.7996    1.3179   19.0925 C   0  0  0  0  0  0  0  0  0  0  0  0
    5.4041    1.3027   17.8320 C   0  0  0  0  0  0  0  0  0  0  0  0
    6.5757    0.6957   17.5861 N   0  0  0  0  0  0  0  0  0  0  0  0
    7.1819    0.0842   18.6112 C   0  0  0  0  0  0  0  0  0  0  0  0
    6.6497    0.0125   19.9052 C   0  0  0  0  0  0  0  0  0  0  0  0
    7.3764   -0.7265   20.9863 C   0  0  0  0  0  0  0  0  0  0  0  0
    8.5247    0.1238   21.5198 N   0  0  0  0  0  4  0  0  0  0  0  0
    9.5048   -0.6853   22.3498 C   0  0  0  0  0  0  0  0  0  0  0  0
    8.8674   -1.2849   23.5829 C   0  0  0  0  0  0  0  0  0  0  0  0
    8.8207   -0.5551   24.8091 C   0  0  0  0  0  0  0  0  0  0  0  0
    8.2478   -0.9842   25.9084 N   0  0  0  0  0  0  0  0  0  0  0  0
    7.6526   -2.2192   25.8780 C   0  0  0  0  0  0  0  0  0  0  0  0
    7.0401   -2.6876   27.0737 C   0  0  0  0  0  0  0  0  0  0  0  0
    6.4422   -3.9284   27.1103 C   0  0  0  0  0  0  0  0  0  0  0  0
    6.4006   -4.7381   25.9380 C   0  0  0  0  0  0  0  0  0  0  0  0
    6.9660   -4.3006   24.7622 C   0  0  0  0  0  0  0  0  0  0  0  0
    7.6190   -3.0368   24.7104 C   0  0  0  0  0  0  0  0  0  0  0  0
    8.2530   -2.5204   23.5492 C   0  0  0  0  0  0  0  0  0  0  0  0
    8.2016   -3.0922   22.6241 H   0  0  0  0  0  0  0  0  0  0  0  0
    6.9364   -4.9051   23.8579 H   0  0  0  0  0  0  0  0  0  0  0  0
    5.9154   -5.7086   25.9735 H   0  0  0  0  0  0  0  0  0  0  0  0
    5.9900   -4.3065   28.0256 H   0  0  0  0  0  0  0  0  0  0  0  0
    7.0812   -1.9835   27.8948 H   0  0  0  0  0  0  0  0  0  0  0  0
    9.2687    0.4441   24.8448 H   0  0  0  0  0  0  0  0  0  0  0  0
    9.9057   -1.5001   21.7357 H   0  0  0  0  0  0  0  0  0  0  0  0
   10.3345   -0.0368   22.6388 H   0  0  0  0  0  0  0  0  0  0  0  0
    8.0292    1.3448   22.2767 C   0  0  0  0  0  0  0  0  0  0  0  0
    7.8738    2.5838   21.4584 C   0  0  0  0  0  0  0  0  0  0  0  0
    9.0183    2.4491   22.4458 C   0  0  0  0  0  0  0  0  0  0  0  0
    8.9850    3.0357   23.3618 H   0  0  0  0  0  0  0  0  0  0  0  0
   10.0264    2.3175   22.0504 H   0  0  0  0  0  0  0  0  0  0  0  0
    7.0566    3.2710   21.6668 H   0  0  0  0  0  0  0  0  0  0  0  0
    8.0766    2.4118   20.4015 H   0  0  0  0  0  0  0  0  0  0  0  0
    7.2935    1.0996   23.0391 H   0  0  0  0  0  0  0  0  0  0  0  0
    8.9704    0.5084   20.6571 H   0  0  0  0  0  0  0  0  0  0  0  0
    7.7825   -1.6743   20.6103 H   0  0  0  0  0  0  0  0  0  0  0  0
    6.6919   -0.9584   21.8069 H   0  0  0  0  0  0  0  0  0  0  0  0
    5.4294    0.6553   20.1467 C   0  0  0  0  0  0  0  0  0  0  0  0
    4.9937    0.6358   21.1469 H   0  0  0  0  0  0  0  0  0  0  0  0
    8.1362   -0.3957   18.3846 H   0  0  0  0  0  0  0  0  0  0  0  0
    4.9327    1.7962   16.9821 H   0  0  0  0  0  0  0  0  0  0  0  0
    3.8640    1.8474   19.2285 H   0  0  0  0  0  0  0  0  0  0  0  0
  1  2  2  0
  2  3  1  0
  3  4  2  0
  4  5  1  0
  5  6  1  0
  6  7  1  0
  7  8  1  0
  8  9  1  0
  9 10  2  0
 10 11  1  0
 11 12  2  0
 12 13  1  0
 13 14  2  0
 14 15  1  0
 15 16  2  0
 16 17  1  0
 17 18  2  0
 18 19  1  0
 16 20  1  0
 15 21  1  0
 14 22  1  0
 13 23  1  0
 10 24  1  0
  8 25  1  0
  8 26  1  0
  7 27  1  0
 27 28  1  0
 28 29  1  0
 29 30  1  0
 29 31  1  0
 28 32  1  0
 28 33  1  0
 27 34  1  0
  7 35  1  0
  6 36  1  0
  6 37  1  0
  5 38  2  0
 38 39  1  0
  4 40  1  0
  2 41  1  0
  1 42  1  0
 38  1  1  0
 18  9  1  0
 29 27  1  0
 17 12  1  0
M  CHG  1   7   1
M  END
>  <plip>  (1) 
-0.03571428571428571

>  <filename>  (1) 
[H][c]1[n][c]([H])[c]([C]([H])([H])[N+]([H])([C]([H])([H])[c]2[c]([H])[n][c]3[c]([H])[c]([H])[c]([H])[c]([H])[c]3[c]2[H])[C]2([H])[C]([H])([H])[C]2([H])[H])[c]([H])[c]1[H]

$$$$
