
     RDKit          3D

 44 46  0  0  0  0  0  0  0  0999 V2000
    5.0126    1.8657   16.9219 H   0  0  0  0  0  0  0  0  0  0  0  0
    5.4598    1.3219   17.7531 C   0  0  0  0  0  0  0  0  0  0  0  0
    6.6085    0.6867   17.4922 N   0  0  0  0  0  0  0  0  0  0  0  0
    7.1889    0.0223   18.5038 C   0  0  0  0  0  0  0  0  0  0  0  0
    8.1226   -0.4798   18.2552 H   0  0  0  0  0  0  0  0  0  0  0  0
    6.6662   -0.0588   19.8128 C   0  0  0  0  0  0  0  0  0  0  0  0
    7.3902   -0.7847   20.9439 C   0  0  2  0  0  0  0  0  0  0  0  0
    8.3334   -1.2091   20.5691 H   0  0  0  0  0  0  0  0  0  0  0  0
    6.5956   -1.9280   21.6200 C   0  0  0  0  0  0  0  0  0  0  0  0
    5.5253   -1.6875   21.6580 H   0  0  0  0  0  0  0  0  0  0  0  0
    6.6577   -2.8710   21.0630 H   0  0  0  0  0  0  0  0  0  0  0  0
    7.1208   -2.0759   22.9871 N   0  0  0  0  0  0  0  0  0  0  0  0
    7.6541   -2.9309   23.0893 H   0  0  0  0  0  0  0  0  0  0  0  0
    7.9783   -0.9078   23.2917 C   0  0  0  0  0  0  0  0  0  0  0  0
    7.7071   -0.4736   24.2646 H   0  0  0  0  0  0  0  0  0  0  0  0
    9.0460   -1.1741   23.3438 H   0  0  0  0  0  0  0  0  0  0  0  0
    7.7721    0.1138   22.1496 C   0  0  1  0  0  0  0  0  0  0  0  0
    6.8913    0.7333   22.4152 H   0  0  0  0  0  0  0  0  0  0  0  0
    8.9608    0.9363   21.8606 N   0  0  0  0  0  0  0  0  0  0  0  0
    8.7866    1.3973   20.9705 H   0  0  0  0  0  0  0  0  0  0  0  0
    9.2995    1.9639   22.8675 C   0  0  0  0  0  0  0  0  0  0  0  0
    9.3711    1.4981   23.8573 H   0  0  0  0  0  0  0  0  0  0  0  0
    8.5272    2.7511   22.9441 H   0  0  0  0  0  0  0  0  0  0  0  0
   10.6622    2.6353   22.5876 C   0  0  0  0  0  0  0  0  0  0  0  0
   10.6581    3.0425   21.5597 H   0  0  0  0  0  0  0  0  0  0  0  0
   11.4322    1.8563   22.5842 H   0  0  0  0  0  0  0  0  0  0  0  0
   11.0437    3.6440   23.5990 N   0  0  0  0  0  0  0  0  0  0  0  0
   10.0799    4.7638   23.7322 C   0  0  0  0  0  0  0  0  0  0  0  0
    9.2751    4.4775   24.4221 H   0  0  0  0  0  0  0  0  0  0  0  0
    9.6231    5.0260   22.7612 H   0  0  0  0  0  0  0  0  0  0  0  0
   10.7579    6.0230   24.2912 C   0  0  0  0  0  0  0  0  0  0  0  0
   10.0531    6.8497   24.4098 H   0  0  0  0  0  0  0  0  0  0  0  0
   11.1776    5.7673   25.2775 H   0  0  0  0  0  0  0  0  0  0  0  0
   11.8023    6.5067   23.4481 O   0  0  0  0  0  0  0  0  0  0  0  0
   12.5610    5.4810   22.7925 C   0  0  0  0  0  0  0  0  0  0  0  0
   12.2216    5.3506   21.7527 H   0  0  0  0  0  0  0  0  0  0  0  0
   13.6023    5.8204   22.7648 H   0  0  0  0  0  0  0  0  0  0  0  0
   12.4365    4.1384   23.5257 C   0  0  0  0  0  0  0  0  0  0  0  0
   13.1044    3.3872   23.0996 H   0  0  0  0  0  0  0  0  0  0  0  0
   12.7660    4.3518   24.5477 H   0  0  0  0  0  0  0  0  0  0  0  0
    5.4487    0.6031   20.0460 C   0  0  0  0  0  0  0  0  0  0  0  0
    4.9877    0.5846   21.0348 H   0  0  0  0  0  0  0  0  0  0  0  0
    4.8353    1.3050   19.0032 C   0  0  0  0  0  0  0  0  0  0  0  0
    3.9062    1.8431   19.1522 H   0  0  0  0  0  0  0  0  0  0  0  0
  1  2  1  0
  2  3  2  0
  3  4  1  0
  4  5  1  0
  4  6  2  0
  6  7  1  0
  7  8  1  6
  7  9  1  0
  9 10  1  0
  9 11  1  0
  9 12  1  0
 12 13  1  0
 12 14  1  0
 14 15  1  0
 14 16  1  0
 14 17  1  0
 17 18  1  1
 17 19  1  0
 19 20  1  0
 19 21  1  0
 21 22  1  0
 21 23  1  0
 21 24  1  0
 24 25  1  0
 24 26  1  0
 24 27  1  0
 27 28  1  0
 28 29  1  0
 28 30  1  0
 28 31  1  0
 31 32  1  0
 31 33  1  0
 31 34  1  0
 34 35  1  0
 35 36  1  0
 35 37  1  0
 35 38  1  0
 38 39  1  0
 38 40  1  0
  6 41  1  0
 41 42  1  0
 41 43  2  0
 43 44  1  0
 43  2  1  0
 17  7  1  0
 38 27  1  0
M  END
>  <plip>  (1) 
-0.07142857142857142

>  <filename>  (1) 
[H][c]1[n][c]([H])[c]([C@]2([H])[C]([H])([H])[N]([H])[C]([H])([H])[C@@]2([H])[N]([H])[C]([H])([H])[C]([H])([H])[N]2[C]([H])([H])[C]([H])([H])[O][C]([H])([H])[C]2([H])[H])[c]([H])[c]1[H]

$$$$
