
     RDKit          3D

 26 28  0  0  0  0  0  0  0  0999 V2000
    4.9282    1.7659   17.0118 H   0  0  0  0  0  0  0  0  0  0  0  0
    5.4161    1.2794   17.8600 C   0  0  0  0  0  0  0  0  0  0  0  0
    6.5805    0.6599   17.6230 N   0  0  0  0  0  0  0  0  0  0  0  0
    7.1927    0.0381   18.6315 C   0  0  0  0  0  0  0  0  0  0  0  0
    8.1346   -0.4491   18.3915 H   0  0  0  0  0  0  0  0  0  0  0  0
    6.6526    0.0182   19.9138 C   0  0  0  0  0  0  0  0  0  0  0  0
    7.5102   -0.8977   21.1686 S   0  0  0  0  0  0  0  0  0  0  0  0
    6.5168   -1.1706   22.1985 O   0  0  0  0  0  0  0  0  0  0  0  0
    8.2558   -1.9529   20.5039 O   0  0  0  0  0  0  0  0  0  0  0  0
    8.7282    0.2738   21.8579 C   0  0  0  0  0  0  0  0  0  0  0  0
   10.0030    0.1407   21.7449 N   0  0  0  0  0  0  0  0  0  0  0  0
   10.6651    1.1558   22.4069 C   0  0  0  0  0  0  0  0  0  0  0  0
   12.0661    1.2920   22.4780 C   0  0  0  0  0  0  0  0  0  0  0  0
   12.6884    0.5482   21.9847 H   0  0  0  0  0  0  0  0  0  0  0  0
   12.6033    2.3708   23.1738 C   0  0  0  0  0  0  0  0  0  0  0  0
   13.6834    2.4897   23.2295 H   0  0  0  0  0  0  0  0  0  0  0  0
   11.7560    3.3132   23.8008 C   0  0  0  0  0  0  0  0  0  0  0  0
   12.1901    4.1546   24.3359 H   0  0  0  0  0  0  0  0  0  0  0  0
   10.3676    3.1830   23.7392 C   0  0  0  0  0  0  0  0  0  0  0  0
    9.7105    3.9047   24.2169 H   0  0  0  0  0  0  0  0  0  0  0  0
    9.8260    2.0962   23.0388 C   0  0  0  0  0  0  0  0  0  0  0  0
    8.1608    1.6452   22.7736 S   0  0  0  0  0  0  0  0  0  0  0  0
    5.4378    0.6561   20.1808 C   0  0  0  0  0  0  0  0  0  0  0  0
    4.9890    0.6280   21.1758 H   0  0  0  0  0  0  0  0  0  0  0  0
    4.8130    1.3063   19.1208 C   0  0  0  0  0  0  0  0  0  0  0  0
    3.8791    1.8398   19.2638 H   0  0  0  0  0  0  0  0  0  0  0  0
  1  2  1  0
  2  3  2  0
  3  4  1  0
  4  5  1  0
  4  6  2  0
  6  7  1  0
  7  8  2  0
  7  9  2  0
  7 10  1  0
 10 11  2  0
 11 12  1  0
 12 13  2  0
 13 14  1  0
 13 15  1  0
 15 16  1  0
 15 17  2  0
 17 18  1  0
 17 19  1  0
 19 20  1  0
 19 21  2  0
 21 22  1  0
  6 23  1  0
 23 24  1  0
 23 25  2  0
 25 26  1  0
 25  2  1  0
 22 10  1  0
 21 12  1  0
M  END
>  <plip>  (1) 
-0.10714285714285714

>  <filename>  (1) 
[H][c]1[n][c]([H])[c]([S](=[O])(=[O])[c]2[n][c]3[c]([H])[c]([H])[c]([H])[c]([H])[c]3[s]2)[c]([H])[c]1[H]

$$$$
