
     RDKit          3D

 31 33  0  0  0  0  0  0  0  0999 V2000
    9.4328    6.5818   22.8585 H   0  0  0  0  0  0  0  0  0  0  0  0
    9.9621    5.6343   22.7990 C   0  0  0  0  0  0  0  0  0  0  0  0
    9.1811    4.5580   22.6796 N   0  0  0  0  0  0  0  0  0  0  0  0
    9.7901    3.3668   22.5549 C   0  0  0  0  0  0  0  0  0  0  0  0
    8.9290    2.2104   22.4151 C   0  0  0  0  0  0  0  0  0  0  0  0
    8.2720    1.2075   22.2988 C   0  0  0  0  0  0  0  0  0  0  0  0
    7.5883    0.0407   22.2201 N   0  0  0  0  0  0  0  0  0  0  0  0
    7.0054   -0.6131   23.3133 C   0  0  0  0  0  0  0  0  0  0  0  0
    6.9201   -0.2454   24.4478 O   0  0  0  0  0  0  0  0  0  0  0  0
    6.5292   -1.8049   22.8744 O   0  0  0  0  0  0  0  0  0  0  0  0
    6.6795   -1.9538   21.4675 C   0  0  0  0  0  0  0  0  0  0  0  0
    5.6800   -2.0398   21.0197 H   0  0  0  0  0  0  0  0  0  0  0  0
    7.2198   -2.8834   21.2760 H   0  0  0  0  0  0  0  0  0  0  0  0
    7.4391   -0.7003   20.9714 C   0  0  1  0  0  0  0  0  0  0  0  0
    8.4341   -0.9598   20.5773 H   0  0  0  0  0  0  0  0  0  0  0  0
    6.6848    0.0523   19.8895 C   0  0  0  0  0  0  0  0  0  0  0  0
    7.1739    0.0846   18.5749 C   0  0  0  0  0  0  0  0  0  0  0  0
    8.1181   -0.4072   18.3349 H   0  0  0  0  0  0  0  0  0  0  0  0
    6.5526    0.6799   17.5497 N   0  0  0  0  0  0  0  0  0  0  0  0
    5.3910    1.2967   17.8143 C   0  0  0  0  0  0  0  0  0  0  0  0
    4.9199    1.8023   16.9726 H   0  0  0  0  0  0  0  0  0  0  0  0
    4.8051    1.3132   19.0840 C   0  0  0  0  0  0  0  0  0  0  0  0
    3.8734    1.8383   19.2376 H   0  0  0  0  0  0  0  0  0  0  0  0
    5.4543    0.6721   20.1397 C   0  0  0  0  0  0  0  0  0  0  0  0
    5.0271    0.6573   21.1444 H   0  0  0  0  0  0  0  0  0  0  0  0
   11.1950    3.2253   22.5532 C   0  0  0  0  0  0  0  0  0  0  0  0
   11.6295    2.2411   22.4614 H   0  0  0  0  0  0  0  0  0  0  0  0
   11.9942    4.3594   22.6974 C   0  0  0  0  0  0  0  0  0  0  0  0
   13.0841    4.3065   22.7019 H   0  0  0  0  0  0  0  0  0  0  0  0
   11.3592    5.5896   22.8551 C   0  0  0  0  0  0  0  0  0  0  0  0
   11.9302    6.4792   23.0782 H   0  0  0  0  0  0  0  0  0  0  0  0
  1  2  1  0
  2  3  2  0
  3  4  1  0
  4  5  1  0
  5  6  3  0
  6  7  1  0
  7  8  1  0
  8  9  2  0
  8 10  1  0
 10 11  1  0
 11 12  1  0
 11 13  1  0
 11 14  1  0
 14 15  1  6
 14 16  1  0
 16 17  2  0
 17 18  1  0
 17 19  1  0
 19 20  2  0
 20 21  1  0
 20 22  1  0
 22 23  1  0
 22 24  2  0
 24 25  1  0
  4 26  2  0
 26 27  1  0
 26 28  1  0
 28 29  1  0
 28 30  2  0
 30 31  1  0
 30  2  1  0
 14  7  1  0
 24 16  1  0
M  END
>  <plip>  (1) 
-0.07142857142857142

>  <filename>  (1) 
[H][c]1[n][c]([C]#[C][N]2[C](=[O])[O][C]([H])([H])[C@@]2([H])[c]2[c]([H])[n][c]([H])[c]([H])[c]2[H])[c]([H])[c]([H])[c]1[H]

$$$$
