
     RDKit          3D

 44 46  0  0  0  0  0  0  0  0999 V2000
    8.9931    2.3081   22.2237 C   0  0  0  0  0  0  0  0  0  0  0  0
    8.6409    1.1797   21.4409 O   0  0  0  0  0  0  0  0  0  0  0  0
    7.8577    0.2425   22.1119 C   0  0  0  0  0  0  0  0  0  0  0  0
    8.6496   -0.4381   23.0571 O   0  0  0  0  0  0  0  0  0  0  0  0
    8.1145   -0.5283   24.3626 C   0  0  0  0  0  0  0  0  0  0  0  0
    8.0340    0.4593   24.8464 H   0  0  0  0  0  0  0  0  0  0  0  0
    7.1221   -0.9984   24.3737 H   0  0  0  0  0  0  0  0  0  0  0  0
    8.7934   -1.1581   24.9400 H   0  0  0  0  0  0  0  0  0  0  0  0
    7.3033   -0.7456   21.0355 C   0  0  0  0  0  0  0  0  0  0  0  0
    6.4475   -1.8000   21.5727 N   0  0  0  0  0  0  0  0  0  0  0  0
    6.7337   -3.1255   21.5185 C   0  0  0  0  0  0  0  0  0  0  0  0
    7.7785   -3.5759   21.0868 O   0  0  0  0  0  0  0  0  0  0  0  0
    5.6900   -3.9972   22.1625 C   0  0  0  0  0  0  0  0  0  0  0  0
    5.9481   -3.8738   23.6193 C   0  0  0  0  0  0  0  0  0  0  0  0
    5.0026   -3.5143   24.4330 N   0  0  0  0  0  0  0  0  0  0  0  0
    5.5745   -3.3943   25.7011 O   0  0  0  0  0  0  0  0  0  0  0  0
    6.8813   -3.7006   25.6098 C   0  0  0  0  0  0  0  0  0  0  0  0
    7.8191   -3.7096   26.6527 C   0  0  0  0  0  0  0  0  0  0  0  0
    9.1050   -4.0695   26.2804 C   0  0  0  0  0  0  0  0  0  0  0  0
   10.0214   -4.1993   27.2493 F   0  0  0  0  0  0  0  0  0  0  0  0
    9.4951   -4.3263   24.9478 C   0  0  0  0  0  0  0  0  0  0  0  0
    8.5466   -4.2845   23.9382 C   0  0  0  0  0  0  0  0  0  0  0  0
    7.2098   -4.0054   24.2972 C   0  0  0  0  0  0  0  0  0  0  0  0
    8.8049   -4.4405   22.8961 H   0  0  0  0  0  0  0  0  0  0  0  0
   10.5351   -4.5657   24.7438 H   0  0  0  0  0  0  0  0  0  0  0  0
    7.5793   -3.4727   27.6761 H   0  0  0  0  0  0  0  0  0  0  0  0
    4.6843   -3.6480   21.9217 H   0  0  0  0  0  0  0  0  0  0  0  0
    5.8620   -5.0175   21.8114 H   0  0  0  0  0  0  0  0  0  0  0  0
    5.6083   -1.5509   22.0773 H   0  0  0  0  0  0  0  0  0  0  0  0
    6.5763   -0.0433   19.9093 C   0  0  0  0  0  0  0  0  0  0  0  0
    5.3810    0.6526   20.1208 C   0  0  0  0  0  0  0  0  0  0  0  0
    4.7974    1.3323   19.0514 C   0  0  0  0  0  0  0  0  0  0  0  0
    5.4310    1.2961   17.8038 C   0  0  0  0  0  0  0  0  0  0  0  0
    6.5714    0.6292   17.5767 N   0  0  0  0  0  0  0  0  0  0  0  0
    7.1191   -0.0145   18.6177 C   0  0  0  0  0  0  0  0  0  0  0  0
    8.0528   -0.5391   18.4083 H   0  0  0  0  0  0  0  0  0  0  0  0
    4.9944    1.8093   16.9479 H   0  0  0  0  0  0  0  0  0  0  0  0
    3.8712    1.8808   19.1725 H   0  0  0  0  0  0  0  0  0  0  0  0
    4.9137    0.6619   21.1096 H   0  0  0  0  0  0  0  0  0  0  0  0
    8.2076   -1.2283   20.6538 H   0  0  0  0  0  0  0  0  0  0  0  0
    7.0065    0.7513   22.6083 H   0  0  0  0  0  0  0  0  0  0  0  0
    9.5521    2.0198   23.1242 H   0  0  0  0  0  0  0  0  0  0  0  0
    9.6227    2.9395   21.5940 H   0  0  0  0  0  0  0  0  0  0  0  0
    8.1042    2.8807   22.5372 H   0  0  0  0  0  0  0  0  0  0  0  0
  1  2  1  0
  2  3  1  0
  3  4  1  0
  4  5  1  0
  5  6  1  0
  5  7  1  0
  5  8  1  0
  3  9  1  0
  9 10  1  0
 10 11  1  0
 11 12  2  0
 11 13  1  0
 13 14  1  0
 14 15  2  0
 15 16  1  0
 16 17  1  0
 17 18  2  0
 18 19  1  0
 19 20  1  0
 19 21  2  0
 21 22  1  0
 22 23  2  0
 22 24  1  0
 21 25  1  0
 18 26  1  0
 13 27  1  0
 13 28  1  0
 10 29  1  0
  9 30  1  0
 30 31  2  0
 31 32  1  0
 32 33  2  0
 33 34  1  0
 34 35  2  0
 35 36  1  0
 33 37  1  0
 32 38  1  0
 31 39  1  0
  9 40  1  0
  3 41  1  0
  1 42  1  0
  1 43  1  0
  1 44  1  0
 23 14  1  0
 35 30  1  0
 23 17  1  0
M  END
>  <plip>  (1) 
-0.10344827586206896

>  <filename>  (1) 
[H][c]1[n][c]([H])[c]([C]([H])([N]([H])[C](=[O])[C]([H])([H])[c]2[n][o][c]3[c]([H])[c]([F])[c]([H])[c]([H])[c]23)[C]([H])([O][C]([H])([H])[H])[O][C]([H])([H])[H])[c]([H])[c]1[H]

$$$$
