
     RDKit          3D

 49 51  0  0  0  0  0  0  0  0999 V2000
    0.1055   -6.8198   26.4436 C   0  0  0  0  0  0  0  0  0  0  0  0
    0.0361   -7.7727   25.4043 O   0  0  0  0  0  0  0  0  0  0  0  0
    0.8519   -7.6393   24.3234 C   0  0  0  0  0  0  0  0  0  0  0  0
    1.7726   -6.6036   24.1256 C   0  0  0  0  0  0  0  0  0  0  0  0
    2.6347   -6.6021   23.0091 C   0  0  0  0  0  0  0  0  0  0  0  0
    3.6554   -5.5218   22.9105 C   0  0  0  0  0  0  0  0  0  0  0  0
    3.7346   -4.5238   23.7556 N   0  0  0  0  0  0  0  0  0  0  0  0
    4.6197   -3.5791   23.3392 C   0  0  0  0  0  0  0  0  0  0  0  0
    5.2307   -3.8148   22.1409 C   0  0  0  0  0  0  0  0  0  0  0  0
    5.9666   -2.9151   21.2225 C   0  0  0  0  0  0  0  0  0  0  0  0
    6.1550   -3.2164   20.0602 O   0  0  0  0  0  0  0  0  0  0  0  0
    6.3950   -1.7471   21.7709 N   0  0  0  0  0  0  0  0  0  0  0  0
    7.2956   -0.8175   21.0779 C   0  0  0  0  0  0  0  0  0  0  0  0
    6.5664   -0.0983   19.9398 C   0  0  0  0  0  0  0  0  0  0  0  0
    5.3714    0.6094   20.1362 C   0  0  0  0  0  0  0  0  0  0  0  0
    4.8098    1.3137   19.0676 C   0  0  0  0  0  0  0  0  0  0  0  0
    5.4643    1.2962   17.8304 C   0  0  0  0  0  0  0  0  0  0  0  0
    6.6032    0.6256   17.6140 N   0  0  0  0  0  0  0  0  0  0  0  0
    7.1264   -0.0464   18.6527 C   0  0  0  0  0  0  0  0  0  0  0  0
    8.0605   -0.5680   18.4397 H   0  0  0  0  0  0  0  0  0  0  0  0
    5.0523    1.8378   16.9786 H   0  0  0  0  0  0  0  0  0  0  0  0
    3.8913    1.8803   19.1748 H   0  0  0  0  0  0  0  0  0  0  0  0
    4.8861    0.6196   21.1153 H   0  0  0  0  0  0  0  0  0  0  0  0
    7.9766    0.1948   22.0529 C   0  0  0  0  0  0  0  0  0  0  0  0
    8.6537   -0.4666   23.0805 O   0  0  0  0  0  0  0  0  0  0  0  0
    9.1573    0.4050   24.0828 C   0  0  0  0  0  0  0  0  0  0  0  0
    9.6849   -0.2132   24.8120 H   0  0  0  0  0  0  0  0  0  0  0  0
    8.3486    0.9438   24.6023 H   0  0  0  0  0  0  0  0  0  0  0  0
    9.8582    1.1439   23.6730 H   0  0  0  0  0  0  0  0  0  0  0  0
    8.8894    0.9749   21.3144 O   0  0  0  0  0  0  0  0  0  0  0  0
    8.5467    2.3401   21.2172 C   0  0  0  0  0  0  0  0  0  0  0  0
    7.5662    2.4725   20.7334 H   0  0  0  0  0  0  0  0  0  0  0  0
    8.5293    2.8336   22.2015 H   0  0  0  0  0  0  0  0  0  0  0  0
    9.3267    2.8104   20.6217 H   0  0  0  0  0  0  0  0  0  0  0  0
    7.1800    0.8283   22.4943 H   0  0  0  0  0  0  0  0  0  0  0  0
    8.1316   -1.3772   20.6400 H   0  0  0  0  0  0  0  0  0  0  0  0
    6.1918   -1.6165   22.7449 H   0  0  0  0  0  0  0  0  0  0  0  0
    4.8056   -5.4079   21.6030 S   0  0  0  0  0  0  0  0  0  0  0  0
    4.7594   -2.7258   23.9925 H   0  0  0  0  0  0  0  0  0  0  0  0
    2.4622   -7.5998   22.0307 C   0  0  0  0  0  0  0  0  0  0  0  0
    1.5135   -8.6128   22.2115 C   0  0  0  0  0  0  0  0  0  0  0  0
    0.7279   -8.6554   23.3601 C   0  0  0  0  0  0  0  0  0  0  0  0
   -0.0018   -9.4392   23.5350 H   0  0  0  0  0  0  0  0  0  0  0  0
    1.4090   -9.3816   21.4481 H   0  0  0  0  0  0  0  0  0  0  0  0
    3.0612   -7.6231   21.1289 H   0  0  0  0  0  0  0  0  0  0  0  0
    1.8407   -5.7770   24.8264 H   0  0  0  0  0  0  0  0  0  0  0  0
   -0.2090   -5.8299   26.0861 H   0  0  0  0  0  0  0  0  0  0  0  0
   -0.5819   -7.1751   27.2148 H   0  0  0  0  0  0  0  0  0  0  0  0
    1.1252   -6.7554   26.8468 H   0  0  0  0  0  0  0  0  0  0  0  0
  1  2  1  0
  2  3  1  0
  3  4  2  0
  4  5  1  0
  5  6  1  0
  6  7  2  0
  7  8  1  0
  8  9  2  0
  9 10  1  0
 10 11  2  0
 10 12  1  0
 12 13  1  0
 13 14  1  0
 14 15  2  0
 15 16  1  0
 16 17  2  0
 17 18  1  0
 18 19  2  0
 19 20  1  0
 17 21  1  0
 16 22  1  0
 15 23  1  0
 13 24  1  0
 24 25  1  0
 25 26  1  0
 26 27  1  0
 26 28  1  0
 26 29  1  0
 24 30  1  0
 30 31  1  0
 31 32  1  0
 31 33  1  0
 31 34  1  0
 24 35  1  0
 13 36  1  0
 12 37  1  0
  9 38  1  0
  8 39  1  0
  5 40  2  0
 40 41  1  0
 41 42  2  0
 42 43  1  0
 41 44  1  0
 40 45  1  0
  4 46  1  0
  1 47  1  0
  1 48  1  0
  1 49  1  0
 42  3  1  0
 38  6  1  0
 19 14  1  0
M  END
>  <plip>  (1) 
-0.20689655172413793

>  <filename>  (1) 
[H][c]1[n][c](-[c]2[c]([H])[c]([H])[c]([H])[c]([O][C]([H])([H])[H])[c]2[H])[s][c]1[C](=[O])[N]([H])[C]([H])([c]1[c]([H])[n][c]([H])[c]([H])[c]1[H])[C]([H])([O][C]([H])([H])[H])[O][C]([H])([H])[H]

$$$$
