
     RDKit          3D

 25 26  0  0  0  0  0  0  0  0999 V2000
   10.3954    2.9172   21.6271 H   0  0  0  0  0  0  0  0  0  0  0  0
   10.7500    2.0580   22.0879 N   0  0  0  0  0  0  0  0  0  0  0  0
    9.9193    1.1887   22.2179 N   0  0  0  0  0  4  0  0  0  0  0  0
    9.2591    0.2078   22.4692 N   0  0  0  0  0  0  0  0  0  0  0  0
    7.8069    0.2287   22.1391 C   0  0  2  0  0  0  0  0  0  0  0  0
    7.4335    1.2534   21.9671 H   0  0  0  0  0  0  0  0  0  0  0  0
    7.0522   -0.2996   23.3526 C   0  0  0  0  0  0  0  0  0  0  0  0
    6.9274    0.2278   24.4346 O   0  0  0  0  0  0  0  0  0  0  0  0
    6.4744   -1.4744   23.0180 N   0  0  0  0  0  0  0  0  0  0  0  0
    5.7960   -1.7713   23.7077 H   0  0  0  0  0  0  0  0  0  0  0  0
    6.5898   -1.8796   21.6298 C   0  0  0  0  0  0  0  0  0  0  0  0
    7.0799   -2.8598   21.5381 H   0  0  0  0  0  0  0  0  0  0  0  0
    5.6079   -1.9853   21.1408 H   0  0  0  0  0  0  0  0  0  0  0  0
    7.4338   -0.7316   20.9723 C   0  0  1  0  0  0  0  0  0  0  0  0
    8.3572   -1.1529   20.5470 H   0  0  0  0  0  0  0  0  0  0  0  0
    6.6722    0.0025   19.8825 C   0  0  0  0  0  0  0  0  0  0  0  0
    7.1643    0.0653   18.5664 C   0  0  0  0  0  0  0  0  0  0  0  0
    8.1148   -0.4114   18.3229 H   0  0  0  0  0  0  0  0  0  0  0  0
    6.5520    0.6895   17.5541 N   0  0  0  0  0  0  0  0  0  0  0  0
    5.3910    1.3046   17.8200 C   0  0  0  0  0  0  0  0  0  0  0  0
    4.9143    1.8108   16.9810 H   0  0  0  0  0  0  0  0  0  0  0  0
    4.8050    1.3128   19.0897 C   0  0  0  0  0  0  0  0  0  0  0  0
    3.8737    1.8441   19.2437 H   0  0  0  0  0  0  0  0  0  0  0  0
    5.4504    0.6479   20.1362 C   0  0  0  0  0  0  0  0  0  0  0  0
    5.0078    0.6380   21.1336 H   0  0  0  0  0  0  0  0  0  0  0  0
  1  2  1  0
  2  3  2  0
  3  4  2  0
  4  5  1  0
  5  6  1  6
  5  7  1  0
  7  8  2  0
  7  9  1  0
  9 10  1  0
  9 11  1  0
 11 12  1  0
 11 13  1  0
 11 14  1  0
 14 15  1  6
 14 16  1  0
 16 17  2  0
 17 18  1  0
 17 19  1  0
 19 20  2  0
 20 21  1  0
 20 22  1  0
 22 23  1  0
 22 24  2  0
 24 25  1  0
 14  5  1  0
 24 16  1  0
M  CHG  1   3   1
M  END
>  <plip>  (1) 
-0.14285714285714285

>  <filename>  (1) 
[H][N]=[N+]=[N][C@]1([H])[C](=[O])[N]([H])[C]([H])([H])[C@@]1([H])[c]1[c]([H])[n][c]([H])[c]([H])[c]1[H]

$$$$
