
     RDKit          3D

 24 25  0  0  0  0  0  0  0  0999 V2000
    6.9067   -0.7955   22.0584 O   0  0  0  0  0  0  0  0  0  0  0  0
    7.3944   -0.7866   20.9319 C   0  0  0  0  0  0  0  0  0  0  0  0
    8.5632   -1.3997   20.5680 O   0  0  0  0  0  0  0  0  0  0  0  0
    9.1776   -2.1642   21.5256 C   0  0  0  0  0  0  0  0  0  0  0  0
   10.5622   -2.0741   21.6716 C   0  0  0  0  0  0  0  0  0  0  0  0
   11.1988   -2.7621   22.7111 C   0  0  0  0  0  0  0  0  0  0  0  0
   10.4734   -3.5878   23.5756 C   0  0  0  0  0  0  0  0  0  0  0  0
   11.1192   -4.2810   24.5427 F   0  0  0  0  0  0  0  0  0  0  0  0
    9.1000   -3.7647   23.3580 C   0  0  0  0  0  0  0  0  0  0  0  0
    8.1337   -5.1157   24.2989 Br  0  0  0  0  0  0  0  0  0  0  0  0
    8.4533   -3.0142   22.3690 C   0  0  0  0  0  0  0  0  0  0  0  0
    7.3824   -3.0913   22.2193 H   0  0  0  0  0  0  0  0  0  0  0  0
   12.2735   -2.7049   22.8161 H   0  0  0  0  0  0  0  0  0  0  0  0
   11.1329   -1.4628   20.9786 H   0  0  0  0  0  0  0  0  0  0  0  0
    6.6749   -0.0376   19.9162 C   0  0  0  0  0  0  0  0  0  0  0  0
    5.4667    0.6275   20.1756 C   0  0  0  0  0  0  0  0  0  0  0  0
    4.8480    1.2837   19.1189 C   0  0  0  0  0  0  0  0  0  0  0  0
    5.4471    1.2714   17.8583 C   0  0  0  0  0  0  0  0  0  0  0  0
    6.6118    0.6451   17.6195 N   0  0  0  0  0  0  0  0  0  0  0  0
    7.2148    0.0096   18.6331 C   0  0  0  0  0  0  0  0  0  0  0  0
    8.1602   -0.4888   18.4371 H   0  0  0  0  0  0  0  0  0  0  0  0
    4.9519    1.7892   17.0440 H   0  0  0  0  0  0  0  0  0  0  0  0
    3.9116    1.8131   19.2561 H   0  0  0  0  0  0  0  0  0  0  0  0
    5.0138    0.6390   21.1691 H   0  0  0  0  0  0  0  0  0  0  0  0
  1  2  2  0
  2  3  1  0
  3  4  1  0
  4  5  2  0
  5  6  1  0
  6  7  2  0
  7  8  1  0
  7  9  1  0
  9 10  1  0
  9 11  2  0
 11 12  1  0
  6 13  1  0
  5 14  1  0
  2 15  1  0
 15 16  2  0
 16 17  1  0
 17 18  2  0
 18 19  1  0
 19 20  2  0
 20 21  1  0
 18 22  1  0
 17 23  1  0
 16 24  1  0
 11  4  1  0
 20 15  1  0
M  END
>  <plip>  (1) 
-0.07142857142857142

>  <filename>  (1) 
[H][c]1[n][c]([H])[c]([C](=[O])[O][c]2[c]([H])[c]([H])[c]([F])[c]([Br])[c]2[H])[c]([H])[c]1[H]

$$$$
