
     RDKit          3D

 46 48  0  0  0  0  0  0  0  0999 V2000
   -1.0125   -6.7542   23.2403 C   0  0  0  0  0  0  0  0  0  0  0  0
    0.4463   -6.3445   23.2787 C   0  0  0  0  0  0  0  0  0  0  0  0
    0.9989   -5.5557   22.2574 C   0  0  0  0  0  0  0  0  0  0  0  0
    2.3110   -5.1014   22.3471 C   0  0  0  0  0  0  0  0  0  0  0  0
    3.1494   -5.5138   23.3804 C   0  0  0  0  0  0  0  0  0  0  0  0
    4.5184   -5.0725   23.3108 N   0  0  0  0  0  0  0  0  0  0  0  0
    5.5458   -5.7469   23.8190 N   0  0  0  0  0  0  0  0  0  0  0  0
    6.6230   -5.0362   23.5197 C   0  0  0  0  0  0  0  0  0  0  0  0
    7.9948   -5.4515   23.9513 C   0  0  0  0  0  0  0  0  0  0  0  0
    8.6481   -5.6230   23.0902 H   0  0  0  0  0  0  0  0  0  0  0  0
    7.9320   -6.3650   24.5434 H   0  0  0  0  0  0  0  0  0  0  0  0
    8.4755   -4.6769   24.5577 H   0  0  0  0  0  0  0  0  0  0  0  0
    6.2017   -3.9128   22.7809 C   0  0  0  0  0  0  0  0  0  0  0  0
    7.1477   -2.8762   22.2516 C   0  0  0  0  0  0  0  0  0  0  0  0
    8.3543   -2.9635   22.4574 O   0  0  0  0  0  0  0  0  0  0  0  0
    6.6080   -1.8619   21.5264 N   0  0  0  0  0  0  0  0  0  0  0  0
    7.4022   -0.7467   21.0094 C   0  0  2  0  0  0  0  0  0  0  0  0
    7.8128    0.2285   22.1231 C   0  0  0  0  0  0  0  0  0  0  0  0
    8.4449   -0.2816   22.8542 H   0  0  0  0  0  0  0  0  0  0  0  0
    6.9320    0.6246   22.6411 H   0  0  0  0  0  0  0  0  0  0  0  0
    8.3658    1.0700   21.6925 H   0  0  0  0  0  0  0  0  0  0  0  0
    6.6331   -0.0425   19.9126 C   0  0  0  0  0  0  0  0  0  0  0  0
    5.4235    0.6279   20.1539 C   0  0  0  0  0  0  0  0  0  0  0  0
    4.7994    1.3009   19.1013 C   0  0  0  0  0  0  0  0  0  0  0  0
    5.4025    1.2879   17.8393 C   0  0  0  0  0  0  0  0  0  0  0  0
    6.5619    0.6644   17.5858 N   0  0  0  0  0  0  0  0  0  0  0  0
    7.1499    0.0298   18.6096 C   0  0  0  0  0  0  0  0  0  0  0  0
    8.1097   -0.4336   18.3758 H   0  0  0  0  0  0  0  0  0  0  0  0
    4.9395    1.7949   16.9942 H   0  0  0  0  0  0  0  0  0  0  0  0
    3.8738    1.8449   19.2483 H   0  0  0  0  0  0  0  0  0  0  0  0
    4.9841    0.6529   21.1553 H   0  0  0  0  0  0  0  0  0  0  0  0
    8.3262   -1.1683   20.5874 H   0  0  0  0  0  0  0  0  0  0  0  0
    5.6033   -1.8545   21.4124 H   0  0  0  0  0  0  0  0  0  0  0  0
    4.8686   -3.9703   22.6484 N   0  0  0  0  0  0  0  0  0  0  0  0
    2.6163   -6.2735   24.4538 C   0  0  0  0  0  0  0  0  0  0  0  0
    3.4183   -6.6086   25.6822 C   0  0  0  0  0  0  0  0  0  0  0  0
    4.1593   -7.3809   25.4519 H   0  0  0  0  0  0  0  0  0  0  0  0
    2.7699   -6.9492   26.4989 H   0  0  0  0  0  0  0  0  0  0  0  0
    3.9965   -5.7382   26.0132 H   0  0  0  0  0  0  0  0  0  0  0  0
    1.2674   -6.6716   24.3718 C   0  0  0  0  0  0  0  0  0  0  0  0
    0.8427   -7.2417   25.2032 H   0  0  0  0  0  0  0  0  0  0  0  0
    2.7345   -4.3349   21.7309 H   0  0  0  0  0  0  0  0  0  0  0  0
    0.3823   -5.2751   21.4053 H   0  0  0  0  0  0  0  0  0  0  0  0
   -1.3770   -6.8647   22.2126 H   0  0  0  0  0  0  0  0  0  0  0  0
   -1.6565   -6.0046   23.7222 H   0  0  0  0  0  0  0  0  0  0  0  0
   -1.1842   -7.7053   23.7574 H   0  0  0  0  0  0  0  0  0  0  0  0
  1  2  1  0
  2  3  2  0
  3  4  1  0
  4  5  2  0
  5  6  1  0
  6  7  1  0
  7  8  2  0
  8  9  1  0
  9 10  1  0
  9 11  1  0
  9 12  1  0
  8 13  1  0
 13 14  1  0
 14 15  2  0
 14 16  1  0
 16 17  1  0
 17 18  1  0
 18 19  1  0
 18 20  1  0
 18 21  1  0
 17 22  1  0
 22 23  2  0
 23 24  1  0
 24 25  2  0
 25 26  1  0
 26 27  2  0
 27 28  1  0
 25 29  1  0
 24 30  1  0
 23 31  1  0
 17 32  1  6
 16 33  1  0
 13 34  2  0
  5 35  1  0
 35 36  1  0
 36 37  1  0
 36 38  1  0
 36 39  1  0
 35 40  2  0
 40 41  1  0
  4 42  1  0
  3 43  1  0
  1 44  1  0
  1 45  1  0
  1 46  1  0
 40  2  1  0
 34  6  1  0
 27 22  1  0
M  END
>  <plip>  (1) 
-0.1

>  <filename>  (1) 
[H][c]1[n][c]([H])[c]([C@]([H])([N]([H])[C](=[O])[c]2[n][n](-[c]3[c]([H])[c]([H])[c]([C]([H])([H])[H])[c]([H])[c]3[C]([H])([H])[H])[n][c]2[C]([H])([H])[H])[C]([H])([H])[H])[c]([H])[c]1[H]

$$$$
