
     RDKit          3D

 36 38  0  0  0  0  0  0  0  0999 V2000
    9.1108    1.4746   21.1268 O   0  0  0  0  0  0  0  0  0  0  0  0
    8.4157    1.2146   22.0970 C   0  0  0  0  0  0  0  0  0  0  0  0
    7.6438    0.0893   22.1578 N   0  0  0  0  0  0  0  0  0  0  0  0
    7.3896   -0.7537   20.9870 C   0  0  0  0  0  0  0  0  0  0  0  0
    6.6276   -2.0406   21.3863 C   0  0  0  0  0  0  0  0  0  0  0  0
    6.4862   -2.9926   20.3466 O   0  0  0  0  0  0  0  0  0  0  0  0
    6.0220   -2.5632   19.6096 H   0  0  0  0  0  0  0  0  0  0  0  0
    5.6415   -1.7532   21.7792 H   0  0  0  0  0  0  0  0  0  0  0  0
    7.1832   -2.5361   22.1864 H   0  0  0  0  0  0  0  0  0  0  0  0
    6.6529    0.0151   19.8949 C   0  0  0  0  0  0  0  0  0  0  0  0
    5.4310    0.6623   20.1334 C   0  0  0  0  0  0  0  0  0  0  0  0
    4.7935    1.3162   19.0760 C   0  0  0  0  0  0  0  0  0  0  0  0
    5.3997    1.2948   17.8121 C   0  0  0  0  0  0  0  0  0  0  0  0
    6.5628    0.6776   17.5577 N   0  0  0  0  0  0  0  0  0  0  0  0
    7.1660    0.0730   18.5942 C   0  0  0  0  0  0  0  0  0  0  0  0
    8.1221   -0.4003   18.3685 H   0  0  0  0  0  0  0  0  0  0  0  0
    4.9293    1.7968   16.9668 H   0  0  0  0  0  0  0  0  0  0  0  0
    3.8540    1.8463   19.2185 H   0  0  0  0  0  0  0  0  0  0  0  0
    4.9907    0.6736   21.1337 H   0  0  0  0  0  0  0  0  0  0  0  0
    8.3616   -1.0542   20.5785 H   0  0  0  0  0  0  0  0  0  0  0  0
    7.0654    0.0377   22.9763 H   0  0  0  0  0  0  0  0  0  0  0  0
    8.3685    2.0823   23.3258 C   0  0  0  0  0  0  0  0  0  0  0  0
    7.5967    2.0501   24.4720 C   0  0  0  0  0  0  0  0  0  0  0  0
    7.9979    3.1427   25.2858 C   0  0  0  0  0  0  0  0  0  0  0  0
    9.0255    3.8379   24.6019 C   0  0  0  0  0  0  0  0  0  0  0  0
    9.6304    4.9817   25.1629 C   0  0  0  0  0  0  0  0  0  0  0  0
    9.1922    5.4191   26.4092 C   0  0  0  0  0  0  0  0  0  0  0  0
    8.1605    4.7423   27.1041 C   0  0  0  0  0  0  0  0  0  0  0  0
    7.6410    5.3350   28.6480 Cl  0  0  0  0  0  0  0  0  0  0  0  0
    7.5760    3.6125   26.5461 C   0  0  0  0  0  0  0  0  0  0  0  0
    6.6061    2.9643   27.1948 F   0  0  0  0  0  0  0  0  0  0  0  0
    9.6332    6.2985   26.8742 H   0  0  0  0  0  0  0  0  0  0  0  0
   10.4168    5.5154   24.6385 H   0  0  0  0  0  0  0  0  0  0  0  0
    9.2253    3.1743   23.4173 N   0  0  0  0  0  0  0  0  0  0  0  0
    9.8625    3.4543   22.6852 H   0  0  0  0  0  0  0  0  0  0  0  0
    6.8043    1.3723   24.7739 H   0  0  0  0  0  0  0  0  0  0  0  0
  1  2  2  0
  2  3  1  0
  3  4  1  0
  4  5  1  0
  5  6  1  0
  6  7  1  0
  5  8  1  0
  5  9  1  0
  4 10  1  0
 10 11  2  0
 11 12  1  0
 12 13  2  0
 13 14  1  0
 14 15  2  0
 15 16  1  0
 13 17  1  0
 12 18  1  0
 11 19  1  0
  4 20  1  0
  3 21  1  0
  2 22  1  0
 22 23  2  0
 23 24  1  0
 24 25  2  0
 25 26  1  0
 26 27  2  0
 27 28  1  0
 28 29  1  0
 28 30  2  0
 30 31  1  0
 27 32  1  0
 26 33  1  0
 25 34  1  0
 34 35  1  0
 23 36  1  0
 15 10  1  0
 34 22  1  0
 30 24  1  0
M  END
>  <plip>  (1) 
-0.17857142857142858

>  <filename>  (1) 
[H][O][C]([H])([H])[C]([H])([c]1[c]([H])[n][c]([H])[c]([H])[c]1[H])[N]([H])[C](=[O])[c]1[c]([H])[c]2[c]([F])[c]([Cl])[c]([H])[c]([H])[c]2[n]1[H]

$$$$
