
     RDKit          3D

 30 32  0  0  0  0  0  0  0  0999 V2000
    9.4269   -2.7760   22.0304 H   0  0  0  0  0  0  0  0  0  0  0  0
    8.6864   -1.9860   21.9641 C   0  0  0  0  0  0  0  0  0  0  0  0
    8.0987   -1.3942   22.9546 N   0  0  0  0  0  0  0  0  0  0  0  0
    7.2452   -0.5224   22.3271 C   0  0  0  0  0  0  0  0  0  0  0  0
    6.4173    0.3128   22.9707 O   0  0  0  0  0  0  0  0  0  0  0  0
    6.5734    0.4880   24.3902 C   0  0  0  0  0  0  0  0  0  0  0  0
    6.4686   -0.4778   24.8883 H   0  0  0  0  0  0  0  0  0  0  0  0
    5.7006    1.0868   24.6655 H   0  0  0  0  0  0  0  0  0  0  0  0
    7.8925    1.1498   24.7722 C   0  0  0  0  0  0  0  0  0  0  0  0
    8.8818    0.4555   25.4840 C   0  0  0  0  0  0  0  0  0  0  0  0
    8.6896   -0.5348   25.8785 H   0  0  0  0  0  0  0  0  0  0  0  0
   10.1437    1.0309   25.6611 C   0  0  0  0  0  0  0  0  0  0  0  0
   10.9221    0.4982   26.2043 H   0  0  0  0  0  0  0  0  0  0  0  0
   10.4719    2.2398   25.1973 N   0  0  0  0  0  0  0  0  0  0  0  0
    9.5096    2.9388   24.5844 C   0  0  0  0  0  0  0  0  0  0  0  0
    9.7794    3.9435   24.2634 H   0  0  0  0  0  0  0  0  0  0  0  0
    8.2177    2.4519   24.3646 C   0  0  0  0  0  0  0  0  0  0  0  0
    7.4805    3.0873   23.8881 H   0  0  0  0  0  0  0  0  0  0  0  0
    7.3386   -0.6336   20.9628 C   0  0  0  0  0  0  0  0  0  0  0  0
    6.6477    0.0064   19.8491 C   0  0  0  0  0  0  0  0  0  0  0  0
    7.1654    0.0123   18.5350 C   0  0  0  0  0  0  0  0  0  0  0  0
    8.1094   -0.4847   18.3070 H   0  0  0  0  0  0  0  0  0  0  0  0
    6.5696    0.6380   17.5124 N   0  0  0  0  0  0  0  0  0  0  0  0
    5.4192    1.2838   17.7721 C   0  0  0  0  0  0  0  0  0  0  0  0
    4.9774    1.8178   16.9356 H   0  0  0  0  0  0  0  0  0  0  0  0
    4.8046    1.3125   19.0274 C   0  0  0  0  0  0  0  0  0  0  0  0
    3.8710    1.8471   19.1617 H   0  0  0  0  0  0  0  0  0  0  0  0
    5.4300    0.6737   20.0928 C   0  0  0  0  0  0  0  0  0  0  0  0
    5.0172    0.6888   21.1009 H   0  0  0  0  0  0  0  0  0  0  0  0
    8.3091   -1.5871   20.7394 O   0  0  0  0  0  0  0  0  0  0  0  0
  1  2  1  0
  2  3  2  0
  3  4  1  0
  4  5  1  0
  5  6  1  0
  6  7  1  0
  6  8  1  0
  6  9  1  0
  9 10  2  0
 10 11  1  0
 10 12  1  0
 12 13  1  0
 12 14  2  0
 14 15  1  0
 15 16  1  0
 15 17  2  0
 17 18  1  0
  4 19  2  0
 19 20  1  0
 20 21  2  0
 21 22  1  0
 21 23  1  0
 23 24  2  0
 24 25  1  0
 24 26  1  0
 26 27  1  0
 26 28  2  0
 28 29  1  0
 19 30  1  0
 30  2  1  0
 17  9  1  0
 28 20  1  0
M  END
>  <plip>  (1) 
-0.10344827586206896

>  <filename>  (1) 
[H][c]1[n][c]([O][C]([H])([H])[c]2[c]([H])[c]([H])[n][c]([H])[c]2[H])[c](-[c]2[c]([H])[n][c]([H])[c]([H])[c]2[H])[o]1

$$$$
