
     RDKit          3D

 54 55  0  0  0  0  0  0  0  0999 V2000
   14.1578   -1.9507   21.7558 C   0  0  0  0  0  0  0  0  0  0  0  0
   12.8046   -1.3745   22.0795 C   0  0  0  0  0  0  0  0  0  0  0  0
   11.7281   -2.1843   22.4618 C   0  0  0  0  0  0  0  0  0  0  0  0
   10.4940   -1.6182   22.7728 C   0  0  0  0  0  0  0  0  0  0  0  0
   10.2559   -0.2398   22.6107 C   0  0  0  0  0  0  0  0  0  0  0  0
    8.8277    0.2591   22.8734 C   0  0  0  0  0  0  0  0  0  0  0  0
    8.6685    1.4785   23.7833 C   0  0  0  0  0  0  0  0  0  0  0  0
    7.6025    1.6137   24.0048 H   0  0  0  0  0  0  0  0  0  0  0  0
    9.2090    1.3505   24.7216 H   0  0  0  0  0  0  0  0  0  0  0  0
    9.0162    2.3854   23.2854 H   0  0  0  0  0  0  0  0  0  0  0  0
    8.0753    0.5604   21.6146 N   0  0  0  0  0  4  0  0  0  0  0  0
    7.0268   -0.4162   21.1837 C   0  0  0  0  0  0  0  0  0  0  0  0
    7.6380   -1.7923   20.8558 C   0  0  0  0  0  0  0  0  0  0  0  0
    6.9441   -2.9906   21.4847 C   0  0  0  0  0  0  0  0  0  0  0  0
    5.4759   -2.9612   21.1334 N   0  0  0  0  0  4  0  0  0  0  0  0
    4.6954   -3.8818   22.0052 C   0  0  0  0  0  0  0  0  0  0  0  0
    5.0523   -4.9136   21.8801 H   0  0  0  0  0  0  0  0  0  0  0  0
    4.8259   -3.6242   23.0624 H   0  0  0  0  0  0  0  0  0  0  0  0
    3.6285   -3.8539   21.7639 H   0  0  0  0  0  0  0  0  0  0  0  0
    5.2734   -3.2863   19.6772 C   0  0  0  0  0  0  0  0  0  0  0  0
    4.2414   -3.0913   19.3750 H   0  0  0  0  0  0  0  0  0  0  0  0
    5.5049   -4.3450   19.5011 H   0  0  0  0  0  0  0  0  0  0  0  0
    5.9189   -2.6856   19.0343 H   0  0  0  0  0  0  0  0  0  0  0  0
    5.1568   -1.9847   21.3047 H   0  0  0  0  0  0  0  0  0  0  0  0
    7.0596   -3.0196   22.5775 H   0  0  0  0  0  0  0  0  0  0  0  0
    7.3753   -3.9251   21.0988 H   0  0  0  0  0  0  0  0  0  0  0  0
    7.5778   -1.9191   19.7778 H   0  0  0  0  0  0  0  0  0  0  0  0
    8.6991   -1.8199   21.0908 H   0  0  0  0  0  0  0  0  0  0  0  0
    6.3772    0.2483   19.9928 C   0  0  0  0  0  0  0  0  0  0  0  0
    5.1291    0.8824   20.0669 C   0  0  0  0  0  0  0  0  0  0  0  0
    4.6411    1.5480   18.9363 C   0  0  0  0  0  0  0  0  0  0  0  0
    5.4045    1.5284   17.7647 C   0  0  0  0  0  0  0  0  0  0  0  0
    6.5839    0.8992   17.6633 N   0  0  0  0  0  0  0  0  0  0  0  0
    7.0536    0.2927   18.7572 C   0  0  0  0  0  0  0  0  0  0  0  0
    8.0135   -0.2113   18.6256 H   0  0  0  0  0  0  0  0  0  0  0  0
    5.0497    2.0259   16.8633 H   0  0  0  0  0  0  0  0  0  0  0  0
    3.7148    2.1144   18.9571 H   0  0  0  0  0  0  0  0  0  0  0  0
    4.5619    0.8808   21.0012 H   0  0  0  0  0  0  0  0  0  0  0  0
    6.2913   -0.5010   21.9960 H   0  0  0  0  0  0  0  0  0  0  0  0
    8.7485    0.6110   20.8108 H   0  0  0  0  0  0  0  0  0  0  0  0
    7.6267    1.5004   21.7245 H   0  0  0  0  0  0  0  0  0  0  0  0
    8.3250   -0.5904   23.3505 H   0  0  0  0  0  0  0  0  0  0  0  0
   11.3265    0.5852   22.1976 C   0  0  0  0  0  0  0  0  0  0  0  0
   11.1485    2.0482   21.8515 C   0  0  0  0  0  0  0  0  0  0  0  0
   10.2633    2.1879   21.2184 H   0  0  0  0  0  0  0  0  0  0  0  0
   11.0194    2.6715   22.7431 H   0  0  0  0  0  0  0  0  0  0  0  0
   12.0086    2.4371   21.2971 H   0  0  0  0  0  0  0  0  0  0  0  0
   12.5900    0.0083   22.0235 C   0  0  0  0  0  0  0  0  0  0  0  0
   13.4365    0.6666   21.8163 H   0  0  0  0  0  0  0  0  0  0  0  0
    9.6818   -2.2604   23.1160 H   0  0  0  0  0  0  0  0  0  0  0  0
   11.8670   -3.2513   22.5796 H   0  0  0  0  0  0  0  0  0  0  0  0
   14.4534   -1.7365   20.7215 H   0  0  0  0  0  0  0  0  0  0  0  0
   14.9220   -1.5104   22.4098 H   0  0  0  0  0  0  0  0  0  0  0  0
   14.1823   -3.0380   21.8806 H   0  0  0  0  0  0  0  0  0  0  0  0
  1  2  1  0
  2  3  2  0
  3  4  1  0
  4  5  2  0
  5  6  1  0
  6  7  1  0
  7  8  1  0
  7  9  1  0
  7 10  1  0
  6 11  1  0
 11 12  1  0
 12 13  1  0
 13 14  1  0
 14 15  1  0
 15 16  1  0
 16 17  1  0
 16 18  1  0
 16 19  1  0
 15 20  1  0
 20 21  1  0
 20 22  1  0
 20 23  1  0
 15 24  1  0
 14 25  1  0
 14 26  1  0
 13 27  1  0
 13 28  1  0
 12 29  1  0
 29 30  2  0
 30 31  1  0
 31 32  2  0
 32 33  1  0
 33 34  2  0
 34 35  1  0
 32 36  1  0
 31 37  1  0
 30 38  1  0
 12 39  1  0
 11 40  1  0
 11 41  1  0
  6 42  1  0
  5 43  1  0
 43 44  1  0
 44 45  1  0
 44 46  1  0
 44 47  1  0
 43 48  2  0
 48 49  1  0
  4 50  1  0
  3 51  1  0
  1 52  1  0
  1 53  1  0
  1 54  1  0
 48  2  1  0
 34 29  1  0
M  CHG  2  11   1  15   1
M  END
>  <plip>  (1) 
-0.17857142857142858

>  <filename>  (1) 
[H][c]1[n][c]([H])[c]([C]([H])([C]([H])([H])[C]([H])([H])[N+]([H])([C]([H])([H])[H])[C]([H])([H])[H])[N+]([H])([H])[C]([H])([c]2[c]([H])[c]([H])[c]([C]([H])([H])[H])[c]([H])[c]2[C]([H])([H])[H])[C]([H])([H])[H])[c]([H])[c]1[H]

$$$$
