
     RDKit          3D

 32 34  0  0  0  0  0  0  0  0999 V2000
    8.5493    4.4725   21.4666 H   0  0  0  0  0  0  0  0  0  0  0  0
    8.4508    3.4527   21.8074 C   0  0  0  0  0  0  0  0  0  0  0  0
    7.7715    3.1216   22.9399 N   0  0  0  0  0  0  0  0  0  0  0  0
    7.8665    1.8109   22.9470 C   0  0  0  0  0  0  0  0  0  0  0  0
    7.4416    1.1274   23.6709 H   0  0  0  0  0  0  0  0  0  0  0  0
    8.5802    1.3793   21.8863 N   0  0  0  0  0  0  0  0  0  0  0  0
    8.7294   -0.0013   21.4439 C   0  0  1  0  0  0  0  0  0  0  0  0
    9.3071    0.0379   20.5139 H   0  0  0  0  0  0  0  0  0  0  0  0
    9.5284   -0.8327   22.4787 C   0  0  0  0  0  0  0  0  0  0  0  0
    9.0618   -0.7004   23.4758 H   0  0  0  0  0  0  0  0  0  0  0  0
   10.5447   -0.4241   22.5499 H   0  0  0  0  0  0  0  0  0  0  0  0
    9.6000   -2.2313   22.0552 N   0  0  0  0  0  0  0  0  0  0  0  0
   10.2270   -2.7586   22.6506 H   0  0  0  0  0  0  0  0  0  0  0  0
    8.2855   -2.8624   21.9282 C   0  0  0  0  0  0  0  0  0  0  0  0
    8.4344   -3.8918   21.5816 H   0  0  0  0  0  0  0  0  0  0  0  0
    7.7114   -2.9005   22.8791 H   0  0  0  0  0  0  0  0  0  0  0  0
    7.5310   -2.0989   20.8419 C   0  0  0  0  0  0  0  0  0  0  0  0
    8.2109   -2.0729   19.9984 H   0  0  0  0  0  0  0  0  0  0  0  0
    6.5913   -2.5755   20.5561 H   0  0  0  0  0  0  0  0  0  0  0  0
    7.3182   -0.6164   21.1425 C   0  0  2  0  0  0  0  0  0  0  0  0
    6.7005   -0.4969   22.0447 H   0  0  0  0  0  0  0  0  0  0  0  0
    6.6010    0.0896   19.9901 C   0  0  0  0  0  0  0  0  0  0  0  0
    7.1361    0.0902   18.6873 C   0  0  0  0  0  0  0  0  0  0  0  0
    8.0810   -0.4231   18.4912 H   0  0  0  0  0  0  0  0  0  0  0  0
    6.5628    0.6735   17.6229 N   0  0  0  0  0  0  0  0  0  0  0  0
    5.3993    1.3082   17.8276 C   0  0  0  0  0  0  0  0  0  0  0  0
    4.9609    1.7957   16.9588 H   0  0  0  0  0  0  0  0  0  0  0  0
    4.7602    1.3614   19.0699 C   0  0  0  0  0  0  0  0  0  0  0  0
    3.8177    1.8880   19.1646 H   0  0  0  0  0  0  0  0  0  0  0  0
    5.3685    0.7424   20.1665 C   0  0  0  0  0  0  0  0  0  0  0  0
    4.8859    0.7604   21.1465 H   0  0  0  0  0  0  0  0  0  0  0  0
    8.9542    2.4325   21.1322 N   0  0  0  0  0  0  0  0  0  0  0  0
  1  2  1  0
  2  3  1  0
  3  4  2  0
  4  5  1  0
  4  6  1  0
  6  7  1  0
  7  8  1  6
  7  9  1  0
  9 10  1  0
  9 11  1  0
  9 12  1  0
 12 13  1  0
 12 14  1  0
 14 15  1  0
 14 16  1  0
 14 17  1  0
 17 18  1  0
 17 19  1  0
 17 20  1  0
 20 21  1  1
 20 22  1  0
 22 23  2  0
 23 24  1  0
 23 25  1  0
 25 26  2  0
 26 27  1  0
 26 28  1  0
 28 29  1  0
 28 30  2  0
 30 31  1  0
  6 32  1  0
 32  2  2  0
 20  7  1  0
 30 22  1  0
M  END
>  <plip>  (1) 
-0.06896551724137931

>  <filename>  (1) 
[H][c]1[n][c]([H])[n]([C@@]2([H])[C]([H])([H])[N]([H])[C]([H])([H])[C]([H])([H])[C@]2([H])[c]2[c]([H])[n][c]([H])[c]([H])[c]2[H])[n]1

$$$$
