
     RDKit          3D

 32 34  0  0  0  0  0  0  0  0999 V2000
    5.7498   -2.2709   21.5266 O   0  0  0  0  0  0  0  0  0  0  0  0
    6.7913   -1.6813   21.7480 C   0  0  0  0  0  0  0  0  0  0  0  0
    7.3745   -0.7624   20.9021 N   0  0  0  0  0  0  0  0  0  0  0  0
    6.6892   -0.0479   19.8824 C   0  0  0  0  0  0  0  0  0  0  0  0
    5.4720    0.5925   20.1357 C   0  0  0  0  0  0  0  0  0  0  0  0
    4.8518    1.2802   19.0842 C   0  0  0  0  0  0  0  0  0  0  0  0
    5.4603    1.2910   17.8243 C   0  0  0  0  0  0  0  0  0  0  0  0
    6.6341    0.6896   17.5697 N   0  0  0  0  0  0  0  0  0  0  0  0
    7.2285    0.0443   18.5816 C   0  0  0  0  0  0  0  0  0  0  0  0
    8.1849   -0.4339   18.3721 H   0  0  0  0  0  0  0  0  0  0  0  0
    4.9867    1.7907   16.9816 H   0  0  0  0  0  0  0  0  0  0  0  0
    3.9118    1.7995   19.2286 H   0  0  0  0  0  0  0  0  0  0  0  0
    5.0451    0.5625   21.1387 H   0  0  0  0  0  0  0  0  0  0  0  0
    8.2651   -0.4140   21.2188 H   0  0  0  0  0  0  0  0  0  0  0  0
    7.5073   -1.9149   22.9238 N   0  0  0  0  0  0  0  0  0  0  0  0
    7.0181   -2.6842   24.0525 C   0  0  0  0  0  0  0  0  0  0  0  0
    8.0458   -3.7182   24.4821 C   0  0  0  0  0  0  0  0  0  0  0  0
    7.6889   -4.7105   25.4006 C   0  0  0  0  0  0  0  0  0  0  0  0
    8.6435   -5.6327   25.8404 C   0  0  0  0  0  0  0  0  0  0  0  0
    9.9629   -5.5430   25.3892 C   0  0  0  0  0  0  0  0  0  0  0  0
   10.3319   -4.5353   24.4933 C   0  0  0  0  0  0  0  0  0  0  0  0
    9.3773   -3.6328   24.0165 C   0  0  0  0  0  0  0  0  0  0  0  0
    9.7234   -2.5678   22.9875 C   0  0  0  0  0  0  0  0  0  0  0  0
    8.8112   -1.4520   23.0989 O   0  0  0  0  0  0  0  0  0  0  0  0
   10.7122   -2.1375   23.1598 H   0  0  0  0  0  0  0  0  0  0  0  0
    9.6848   -2.9704   21.9640 H   0  0  0  0  0  0  0  0  0  0  0  0
   11.3707   -4.4509   24.1790 H   0  0  0  0  0  0  0  0  0  0  0  0
   10.7016   -6.2570   25.7393 H   0  0  0  0  0  0  0  0  0  0  0  0
    8.3546   -6.4096   26.5417 H   0  0  0  0  0  0  0  0  0  0  0  0
    6.6694   -4.7455   25.7902 H   0  0  0  0  0  0  0  0  0  0  0  0
    6.0809   -3.1633   23.7522 H   0  0  0  0  0  0  0  0  0  0  0  0
    6.7884   -2.0119   24.8949 H   0  0  0  0  0  0  0  0  0  0  0  0
  1  2  2  0
  2  3  1  0
  3  4  1  0
  4  5  2  0
  5  6  1  0
  6  7  2  0
  7  8  1  0
  8  9  2  0
  9 10  1  0
  7 11  1  0
  6 12  1  0
  5 13  1  0
  3 14  1  0
  2 15  1  0
 15 16  1  0
 16 17  1  0
 17 18  2  0
 18 19  1  0
 19 20  2  0
 20 21  1  0
 21 22  2  0
 22 23  1  0
 23 24  1  0
 23 25  1  0
 23 26  1  0
 21 27  1  0
 20 28  1  0
 19 29  1  0
 18 30  1  0
 16 31  1  0
 16 32  1  0
  9  4  1  0
 24 15  1  0
 22 17  1  0
M  END
>  <plip>  (1) 
-0.14285714285714285

>  <filename>  (1) 
[H][c]1[n][c]([H])[c]([N]([H])[C](=[O])[N]2[O][C]([H])([H])[c]3[c]([H])[c]([H])[c]([H])[c]([H])[c]3[C]2([H])[H])[c]([H])[c]1[H]

$$$$
