
     RDKit          3D

 51 54  0  0  0  0  0  0  0  0999 V2000
    6.6033   -3.0465   20.7120 C   0  0  0  0  0  0  0  0  0  0  0  0
    6.6567   -1.8425   21.5759 N   0  0  0  0  0  4  0  0  0  0  0  0
    7.2088   -2.1071   22.9473 C   0  0  0  0  0  0  0  0  0  0  0  0
    7.9320   -0.8087   23.3617 C   0  0  0  0  0  0  0  0  0  0  0  0
    7.8215    0.1739   22.1729 C   0  0  1  0  0  0  0  0  0  0  0  0
    9.0847    1.0232   21.9006 C   0  0  0  0  0  0  0  0  0  0  0  0
    9.4240    1.9291   22.9881 N   0  0  0  0  0  0  0  0  0  0  0  0
    8.6329    2.9939   23.2951 C   0  0  0  0  0  0  0  0  0  0  0  0
    7.7571    3.3868   22.5428 O   0  0  0  0  0  0  0  0  0  0  0  0
    8.9318    3.6092   24.6479 C   0  0  2  0  0  0  0  0  0  0  0  0
    8.7833    2.7949   25.9022 C   0  0  0  0  0  0  0  0  0  0  0  0
    7.7739    3.8717   25.5900 C   0  0  1  0  0  0  0  0  0  0  0  0
    7.6914    5.1145   26.4239 C   0  0  0  0  0  0  0  0  0  0  0  0
    8.8330    5.7400   26.9615 C   0  0  0  0  0  0  0  0  0  0  0  0
    8.7235    6.8791   27.7656 C   0  0  0  0  0  0  0  0  0  0  0  0
    7.4592    7.3921   28.0395 C   0  0  0  0  0  0  0  0  0  0  0  0
    7.3517    8.4893   28.8092 F   0  0  0  0  0  0  0  0  0  0  0  0
    6.3029    6.7978   27.5374 C   0  0  0  0  0  0  0  0  0  0  0  0
    6.4306    5.6593   26.7320 C   0  0  0  0  0  0  0  0  0  0  0  0
    5.5302    5.1827   26.3446 H   0  0  0  0  0  0  0  0  0  0  0  0
    5.3417    7.2366   27.7828 H   0  0  0  0  0  0  0  0  0  0  0  0
    9.5921    7.3786   28.1830 H   0  0  0  0  0  0  0  0  0  0  0  0
    9.8202    5.3260   26.7613 H   0  0  0  0  0  0  0  0  0  0  0  0
    6.8017    3.5421   25.2214 H   0  0  0  0  0  0  0  0  0  0  0  0
    9.4531    3.0026   26.7168 H   0  0  0  0  0  0  0  0  0  0  0  0
    8.4862    1.7485   25.8424 H   0  0  0  0  0  0  0  0  0  0  0  0
    9.7193    4.3638   24.5943 H   0  0  0  0  0  0  0  0  0  0  0  0
   10.1138    1.6857   23.6811 H   0  0  0  0  0  0  0  0  0  0  0  0
    8.9196    1.6327   21.0016 H   0  0  0  0  0  0  0  0  0  0  0  0
    9.9423    0.3594   21.7181 H   0  0  0  0  0  0  0  0  0  0  0  0
    7.4617   -0.7018   20.9675 C   0  0  2  0  0  0  0  0  0  0  0  0
    6.6627   -0.0074   19.8941 C   0  0  0  0  0  0  0  0  0  0  0  0
    5.4359    0.6352   20.1430 C   0  0  0  0  0  0  0  0  0  0  0  0
    4.8001    1.3006   19.0956 C   0  0  0  0  0  0  0  0  0  0  0  0
    5.3959    1.2914   17.8292 C   0  0  0  0  0  0  0  0  0  0  0  0
    6.5542    0.6692   17.5683 N   0  0  0  0  0  0  0  0  0  0  0  0
    7.1611    0.0493   18.5862 C   0  0  0  0  0  0  0  0  0  0  0  0
    8.1134   -0.4260   18.3461 H   0  0  0  0  0  0  0  0  0  0  0  0
    4.9276    1.8058   16.9903 H   0  0  0  0  0  0  0  0  0  0  0  0
    3.8717    1.8452   19.2431 H   0  0  0  0  0  0  0  0  0  0  0  0
    4.9964    0.6450   21.1454 H   0  0  0  0  0  0  0  0  0  0  0  0
    8.3713   -1.1347   20.5285 H   0  0  0  0  0  0  0  0  0  0  0  0
    6.9846    0.8693   22.3514 H   0  0  0  0  0  0  0  0  0  0  0  0
    8.9803   -1.0418   23.5811 H   0  0  0  0  0  0  0  0  0  0  0  0
    7.5131   -0.3759   24.2781 H   0  0  0  0  0  0  0  0  0  0  0  0
    7.9077   -2.9483   22.8845 H   0  0  0  0  0  0  0  0  0  0  0  0
    6.4084   -2.4094   23.6299 H   0  0  0  0  0  0  0  0  0  0  0  0
    5.7071   -1.4056   21.6733 H   0  0  0  0  0  0  0  0  0  0  0  0
    6.0321   -3.8655   21.1645 H   0  0  0  0  0  0  0  0  0  0  0  0
    7.6280   -3.4183   20.5526 H   0  0  0  0  0  0  0  0  0  0  0  0
    6.1810   -2.8033   19.7321 H   0  0  0  0  0  0  0  0  0  0  0  0
  1  2  1  0
  2  3  1  0
  3  4  1  0
  4  5  1  0
  5  6  1  0
  6  7  1  0
  7  8  1  0
  8  9  2  0
  8 10  1  0
 10 11  1  0
 11 12  1  0
 12 13  1  0
 13 14  2  0
 14 15  1  0
 15 16  2  0
 16 17  1  0
 16 18  1  0
 18 19  2  0
 19 20  1  0
 18 21  1  0
 15 22  1  0
 14 23  1  0
 12 24  1  6
 11 25  1  0
 11 26  1  0
 10 27  1  6
  7 28  1  0
  6 29  1  0
  6 30  1  0
  5 31  1  0
 31 32  1  0
 32 33  2  0
 33 34  1  0
 34 35  2  0
 35 36  1  0
 36 37  2  0
 37 38  1  0
 35 39  1  0
 34 40  1  0
 33 41  1  0
 31 42  1  6
  5 43  1  1
  4 44  1  0
  4 45  1  0
  3 46  1  0
  3 47  1  0
  2 48  1  0
  1 49  1  0
  1 50  1  0
  1 51  1  0
 31  2  1  0
 37 32  1  0
 12 10  1  0
 19 13  1  0
M  CHG  1   2   1
M  END
>  <plip>  (1) 
-0.07142857142857142

>  <filename>  (1) 
[H][c]1[n][c]([H])[c]([C@@]2([H])[C@]([H])([C]([H])([H])[N]([H])[C](=[O])[C@]3([H])[C]([H])([H])[C@@]3([H])[c]3[c]([H])[c]([H])[c]([F])[c]([H])[c]3[H])[C]([H])([H])[C]([H])([H])[N+]2([H])[C]([H])([H])[H])[c]([H])[c]1[H]

$$$$
