
     RDKit          3D

 32 34  0  0  0  0  0  0  0  0999 V2000
    4.9640    1.8151   16.9347 H   0  0  0  0  0  0  0  0  0  0  0  0
    5.4166    1.2941   17.7749 C   0  0  0  0  0  0  0  0  0  0  0  0
    6.5750    0.6588   17.5313 N   0  0  0  0  0  0  0  0  0  0  0  0
    7.1666    0.0358   18.5593 C   0  0  0  0  0  0  0  0  0  0  0  0
    8.1061   -0.4641   18.3308 H   0  0  0  0  0  0  0  0  0  0  0  0
    6.6492    0.0191   19.8773 C   0  0  0  0  0  0  0  0  0  0  0  0
    7.3259   -0.6110   20.9622 N   0  0  0  0  0  0  0  0  0  0  0  0
    7.7277   -1.5216   20.8082 H   0  0  0  0  0  0  0  0  0  0  0  0
    7.3064   -0.1846   22.2698 C   0  0  0  0  0  0  0  0  0  0  0  0
    6.8842    0.8901   22.6339 O   0  0  0  0  0  0  0  0  0  0  0  0
    7.9973   -1.1880   23.2823 C   0  0  0  0  0  0  0  0  0  0  0  0
    7.5299   -0.9740   24.5307 F   0  0  0  0  0  0  0  0  0  0  0  0
    7.6879   -2.4978   22.9525 F   0  0  0  0  0  0  0  0  0  0  0  0
    9.4917   -1.0240   23.2688 C   0  0  0  0  0  0  0  0  0  0  0  0
   10.2423   -0.0950   23.9317 C   0  0  0  0  0  0  0  0  0  0  0  0
    9.9029    0.6042   24.6929 H   0  0  0  0  0  0  0  0  0  0  0  0
   11.5816   -0.2052   23.4219 C   0  0  0  0  0  0  0  0  0  0  0  0
   12.8059    0.4186   23.7474 C   0  0  0  0  0  0  0  0  0  0  0  0
   12.8413    1.2018   24.5033 H   0  0  0  0  0  0  0  0  0  0  0  0
   13.9641   -0.0125   23.1161 C   0  0  0  0  0  0  0  0  0  0  0  0
   14.9055    0.4382   23.3937 H   0  0  0  0  0  0  0  0  0  0  0  0
   13.9206   -1.0303   22.1337 C   0  0  0  0  0  0  0  0  0  0  0  0
   14.8388   -1.3830   21.6850 H   0  0  0  0  0  0  0  0  0  0  0  0
   12.7176   -1.6085   21.7482 C   0  0  0  0  0  0  0  0  0  0  0  0
   12.6707   -2.3229   20.9350 H   0  0  0  0  0  0  0  0  0  0  0  0
   11.5606   -1.2197   22.4378 C   0  0  0  0  0  0  0  0  0  0  0  0
   10.2660   -1.7051   22.3358 N   0  0  0  0  0  0  0  0  0  0  0  0
   10.1099   -2.6837   22.1279 H   0  0  0  0  0  0  0  0  0  0  0  0
    5.4304    0.6659   20.1070 C   0  0  0  0  0  0  0  0  0  0  0  0
    5.0026    0.6722   21.1074 H   0  0  0  0  0  0  0  0  0  0  0  0
    4.8060    1.3080   19.0338 C   0  0  0  0  0  0  0  0  0  0  0  0
    3.8705    1.8351   19.1750 H   0  0  0  0  0  0  0  0  0  0  0  0
  1  2  1  0
  2  3  2  0
  3  4  1  0
  4  5  1  0
  4  6  2  0
  6  7  1  0
  7  8  1  0
  7  9  1  0
  9 10  2  0
  9 11  1  0
 11 12  1  0
 11 13  1  0
 11 14  1  0
 14 15  2  0
 15 16  1  0
 15 17  1  0
 17 18  2  0
 18 19  1  0
 18 20  1  0
 20 21  1  0
 20 22  2  0
 22 23  1  0
 22 24  1  0
 24 25  1  0
 24 26  2  0
 26 27  1  0
 27 28  1  0
  6 29  1  0
 29 30  1  0
 29 31  2  0
 31 32  1  0
 31  2  1  0
 27 14  1  0
 26 17  1  0
M  END
>  <plip>  (1) 
-0.10344827586206896

>  <filename>  (1) 
[H][c]1[n][c]([H])[c]([N]([H])[C](=[O])[C]([F])([F])[c]2[c]([H])[c]3[c]([H])[c]([H])[c]([H])[c]([H])[c]3[n]2[H])[c]([H])[c]1[H]

$$$$
