
     RDKit          3D

 31 33  0  0  0  0  0  0  0  0999 V2000
    4.9895    1.7966   16.9434 H   0  0  0  0  0  0  0  0  0  0  0  0
    5.4384    1.2939   17.8002 C   0  0  0  0  0  0  0  0  0  0  0  0
    6.6118    0.6827   17.5764 N   0  0  0  0  0  0  0  0  0  0  0  0
    7.1870    0.0652   18.6145 C   0  0  0  0  0  0  0  0  0  0  0  0
    8.1445   -0.4208   18.4213 H   0  0  0  0  0  0  0  0  0  0  0  0
    6.6323    0.0043   19.9022 C   0  0  0  0  0  0  0  0  0  0  0  0
    7.3902   -0.7241   20.9870 C   0  0  0  0  0  0  0  0  0  0  0  0
    6.7799   -0.8255   21.8858 H   0  0  0  0  0  0  0  0  0  0  0  0
    7.6990   -1.7210   20.6545 H   0  0  0  0  0  0  0  0  0  0  0  0
    8.6087   -0.0085   21.3530 N   0  0  0  0  0  0  0  0  0  0  0  0
    9.8152   -0.3580   20.8905 N   0  0  0  0  0  0  0  0  0  0  0  0
   10.6292    0.5805   21.2255 N   0  0  0  0  0  0  0  0  0  0  0  0
    9.9894    1.5590   21.8831 N   0  0  0  0  0  0  0  0  0  0  0  0
    8.7295    1.1770   21.9847 C   0  0  0  0  0  0  0  0  0  0  0  0
    7.6049    1.8054   22.7675 C   0  0  0  0  0  0  0  0  0  0  0  0
    6.7358    1.0932   23.2497 O   0  0  0  0  0  0  0  0  0  0  0  0
    7.5843    3.2927   22.9244 C   0  0  0  0  0  0  0  0  0  0  0  0
    8.1719    4.1201   21.9539 C   0  0  0  0  0  0  0  0  0  0  0  0
    8.7033    3.6446   21.1365 H   0  0  0  0  0  0  0  0  0  0  0  0
    8.1021    5.5105   22.0525 C   0  0  0  0  0  0  0  0  0  0  0  0
    8.5315    6.1702   21.3000 H   0  0  0  0  0  0  0  0  0  0  0  0
    7.4776    6.0743   23.1688 C   0  0  0  0  0  0  0  0  0  0  0  0
    7.4331    7.8068   23.3046 Cl  0  0  0  0  0  0  0  0  0  0  0  0
    6.9046    5.2746   24.1666 C   0  0  0  0  0  0  0  0  0  0  0  0
    6.4367    5.7188   25.0439 H   0  0  0  0  0  0  0  0  0  0  0  0
    6.9392    3.8895   24.0219 C   0  0  0  0  0  0  0  0  0  0  0  0
    6.4654    3.2463   24.7555 H   0  0  0  0  0  0  0  0  0  0  0  0
    5.4144    0.6571   20.1204 C   0  0  0  0  0  0  0  0  0  0  0  0
    4.9498    0.6617   21.1084 H   0  0  0  0  0  0  0  0  0  0  0  0
    4.8038    1.3083   19.0444 C   0  0  0  0  0  0  0  0  0  0  0  0
    3.8612    1.8307   19.1596 H   0  0  0  0  0  0  0  0  0  0  0  0
  1  2  1  0
  2  3  2  0
  3  4  1  0
  4  5  1  0
  4  6  2  0
  6  7  1  0
  7  8  1  0
  7  9  1  0
  7 10  1  0
 10 11  1  0
 11 12  2  0
 12 13  1  0
 13 14  2  0
 14 15  1  0
 15 16  2  0
 15 17  1  0
 17 18  2  0
 18 19  1  0
 18 20  1  0
 20 21  1  0
 20 22  2  0
 22 23  1  0
 22 24  1  0
 24 25  1  0
 24 26  2  0
 26 27  1  0
  6 28  1  0
 28 29  1  0
 28 30  2  0
 30 31  1  0
 30  2  1  0
 14 10  1  0
 26 17  1  0
M  END
>  <plip>  (1) 
-0.07142857142857142

>  <filename>  (1) 
[H][c]1[n][c]([H])[c]([C]([H])([H])[n]2[n][n][n][c]2[C](=[O])[c]2[c]([H])[c]([H])[c]([Cl])[c]([H])[c]2[H])[c]([H])[c]1[H]

$$$$
