
     RDKit          3D

 40 42  0  0  0  0  0  0  0  0999 V2000
    7.5639    6.1149   22.4799 C   0  0  0  0  0  0  0  0  0  0  0  0
    8.2110    4.7465   22.2703 C   0  0  1  0  0  0  0  0  0  0  0  0
    9.5677    4.6519   23.0126 C   0  0  0  0  0  0  0  0  0  0  0  0
    9.9570    3.2013   23.3476 C   0  0  0  0  0  0  0  0  0  0  0  0
    9.4643    2.2310   22.2782 C   0  0  0  0  0  0  0  0  0  0  0  0
    7.9132    2.1965   22.2208 N   0  0  0  0  0  4  0  0  0  0  0  0
    7.3790    1.0282   23.0395 C   0  0  0  0  0  0  0  0  0  0  0  0
    7.7508   -0.2510   22.3588 C   0  0  0  0  0  0  0  0  0  0  0  0
    8.4399   -1.3324   22.8728 C   0  0  0  0  0  0  0  0  0  0  0  0
    8.6395   -2.1800   21.8347 N   0  0  0  0  0  0  0  0  0  0  0  0
    8.1111   -1.7378   20.6882 N   0  0  0  0  0  0  0  0  0  0  0  0
    7.5414   -0.5738   20.9843 C   0  0  0  0  0  0  0  0  0  0  0  0
    6.7582    0.1272   19.9529 C   0  0  0  0  0  0  0  0  0  0  0  0
    5.5043    0.7240   20.1673 C   0  0  0  0  0  0  0  0  0  0  0  0
    4.8605    1.3390   19.0909 C   0  0  0  0  0  0  0  0  0  0  0  0
    5.4879    1.3286   17.8414 C   0  0  0  0  0  0  0  0  0  0  0  0
    6.6535    0.7084   17.6113 N   0  0  0  0  0  0  0  0  0  0  0  0
    7.2504    0.1014   18.6386 C   0  0  0  0  0  0  0  0  0  0  0  0
    8.1593   -0.4475   18.4003 H   0  0  0  0  0  0  0  0  0  0  0  0
    5.0206    1.8117   16.9841 H   0  0  0  0  0  0  0  0  0  0  0  0
    3.8932    1.8128   19.2011 H   0  0  0  0  0  0  0  0  0  0  0  0
    5.0316    0.6910   21.1490 H   0  0  0  0  0  0  0  0  0  0  0  0
    9.0214   -3.1119   21.8553 H   0  0  0  0  0  0  0  0  0  0  0  0
    8.8264   -1.5435   23.8654 H   0  0  0  0  0  0  0  0  0  0  0  0
    7.8133    1.0702   24.0506 H   0  0  0  0  0  0  0  0  0  0  0  0
    6.2887    1.1258   23.1514 H   0  0  0  0  0  0  0  0  0  0  0  0
    7.2886    3.5495   22.5796 C   0  0  0  0  0  0  0  0  0  0  0  0
    6.3471    3.6540   22.0313 H   0  0  0  0  0  0  0  0  0  0  0  0
    7.0404    3.5559   23.6477 H   0  0  0  0  0  0  0  0  0  0  0  0
    7.6511    1.9450   21.2440 H   0  0  0  0  0  0  0  0  0  0  0  0
    9.8154    1.2205   22.4847 H   0  0  0  0  0  0  0  0  0  0  0  0
    9.8261    2.5154   21.2841 H   0  0  0  0  0  0  0  0  0  0  0  0
    9.5058    2.8925   24.3014 H   0  0  0  0  0  0  0  0  0  0  0  0
   11.0380    3.1096   23.4601 H   0  0  0  0  0  0  0  0  0  0  0  0
    9.5479    5.2365   23.9407 H   0  0  0  0  0  0  0  0  0  0  0  0
   10.3408    5.1232   22.3898 H   0  0  0  0  0  0  0  0  0  0  0  0
    8.4074    4.6687   21.1993 H   0  0  0  0  0  0  0  0  0  0  0  0
    8.2637    6.9040   22.1794 H   0  0  0  0  0  0  0  0  0  0  0  0
    7.3060    6.3065   23.5284 H   0  0  0  0  0  0  0  0  0  0  0  0
    6.6572    6.2425   21.8789 H   0  0  0  0  0  0  0  0  0  0  0  0
  1  2  1  0
  2  3  1  0
  3  4  1  0
  4  5  1  0
  5  6  1  0
  6  7  1  0
  7  8  1  0
  8  9  2  0
  9 10  1  0
 10 11  1  0
 11 12  2  0
 12 13  1  0
 13 14  2  0
 14 15  1  0
 15 16  2  0
 16 17  1  0
 17 18  2  0
 18 19  1  0
 16 20  1  0
 15 21  1  0
 14 22  1  0
 10 23  1  0
  9 24  1  0
  7 25  1  0
  7 26  1  0
  6 27  1  0
 27 28  1  0
 27 29  1  0
  6 30  1  0
  5 31  1  0
  5 32  1  0
  4 33  1  0
  4 34  1  0
  3 35  1  0
  3 36  1  0
  2 37  1  6
  1 38  1  0
  1 39  1  0
  1 40  1  0
 27  2  1  0
 12  8  1  0
 18 13  1  0
M  CHG  1   6   1
M  END
>  <plip>  (1) 
-0.0

>  <filename>  (1) 
[H][c]1[n][c]([H])[c](-[c]2[n][n]([H])[c]([H])[c]2[C]([H])([H])[N+]2([H])[C]([H])([H])[C]([H])([H])[C]([H])([H])[C@]([H])([C]([H])([H])[H])[C]2([H])[H])[c]([H])[c]1[H]

$$$$
