
     RDKit          3D

 28 29  0  0  0  0  0  0  0  0999 V2000
   14.1102    0.6492   24.3245 H   0  0  0  0  0  0  0  0  0  0  0  0
   13.1845    0.4539   24.5511 O   0  0  0  0  0  0  0  0  0  0  0  0
   12.8067   -0.0183   23.3537 C   0  0  0  0  0  0  0  0  0  0  0  0
   13.6229   -0.0541   22.4608 O   0  0  0  0  0  0  0  0  0  0  0  0
   11.4046   -0.4378   23.3023 C   0  0  0  0  0  0  0  0  0  0  0  0
   10.8526   -0.3908   24.2302 H   0  0  0  0  0  0  0  0  0  0  0  0
   10.8425   -0.7994   22.1515 C   0  0  0  0  0  0  0  0  0  0  0  0
   11.4115   -0.7959   21.2134 H   0  0  0  0  0  0  0  0  0  0  0  0
    9.4673   -1.1416   22.0515 N   0  0  0  0  0  0  0  0  0  0  0  0
    8.7265   -0.5841   21.0229 C   0  0  0  0  0  0  0  0  0  0  0  0
    9.2770    0.0463   20.3286 H   0  0  0  0  0  0  0  0  0  0  0  0
    7.3771   -0.7567   20.8983 C   0  0  0  0  0  0  0  0  0  0  0  0
    6.6362   -0.0310   19.8188 C   0  0  0  0  0  0  0  0  0  0  0  0
    7.1593    0.0456   18.5100 C   0  0  0  0  0  0  0  0  0  0  0  0
    8.0969   -0.4566   18.2709 H   0  0  0  0  0  0  0  0  0  0  0  0
    6.5777    0.6946   17.4932 N   0  0  0  0  0  0  0  0  0  0  0  0
    5.4253    1.3303   17.7581 C   0  0  0  0  0  0  0  0  0  0  0  0
    4.9722    1.8585   16.9250 H   0  0  0  0  0  0  0  0  0  0  0  0
    4.8154    1.3376   19.0165 C   0  0  0  0  0  0  0  0  0  0  0  0
    3.8876    1.8809   19.1656 H   0  0  0  0  0  0  0  0  0  0  0  0
    5.4302    0.6477   20.0642 C   0  0  0  0  0  0  0  0  0  0  0  0
    5.0130    0.6671   21.0727 H   0  0  0  0  0  0  0  0  0  0  0  0
    6.7170   -1.6113   21.8485 C   0  0  0  0  0  0  0  0  0  0  0  0
    5.6429   -1.7804   21.7541 H   0  0  0  0  0  0  0  0  0  0  0  0
    7.4215   -2.2047   22.8522 C   0  0  0  0  0  0  0  0  0  0  0  0
    6.9820   -2.8601   23.5944 H   0  0  0  0  0  0  0  0  0  0  0  0
    8.8482   -1.9894   23.0526 C   0  0  0  0  0  0  0  0  0  0  0  0
    9.4791   -2.4860   23.9685 O   0  0  0  0  0  0  0  0  0  0  0  0
  1  2  1  0
  2  3  1  0
  3  4  2  0
  3  5  1  0
  5  6  1  0
  5  7  2  3
  7  8  1  0
  7  9  1  0
  9 10  1  0
 10 11  1  0
 10 12  2  0
 12 13  1  0
 13 14  2  0
 14 15  1  0
 14 16  1  0
 16 17  2  0
 17 18  1  0
 17 19  1  0
 19 20  1  0
 19 21  2  0
 21 22  1  0
 12 23  1  0
 23 24  1  0
 23 25  2  0
 25 26  1  0
 25 27  1  0
 27 28  2  0
 27  9  1  0
 21 13  1  0
M  END
>  <plip>  (1) 
-0.034482758620689655

>  <filename>  (1) 
[H][O][C](=[O])[C]([H])=[C]([H])[n]1[c]([H])[c](-[c]2[c]([H])[n][c]([H])[c]([H])[c]2[H])[c]([H])[c]([H])[c]1=[O]

$$$$
