
     RDKit          3D

 25 27  0  0  0  0  0  0  0  0999 V2000
    8.8020   -3.4575   21.8134 H   0  0  0  0  0  0  0  0  0  0  0  0
    8.3700   -2.4689   21.7794 C   0  0  0  0  0  0  0  0  0  0  0  0
    7.8697   -1.9406   20.7133 N   0  0  0  0  0  0  0  0  0  0  0  0
    7.3637   -0.6952   20.9791 C   0  0  0  0  0  0  0  0  0  0  0  0
    6.6404   -0.0041   19.9059 C   0  0  0  0  0  0  0  0  0  0  0  0
    7.1653    0.0396   18.6032 C   0  0  0  0  0  0  0  0  0  0  0  0
    8.1174   -0.4343   18.3753 H   0  0  0  0  0  0  0  0  0  0  0  0
    6.5731    0.6750   17.5892 N   0  0  0  0  0  0  0  0  0  0  0  0
    5.4079    1.2925   17.8423 C   0  0  0  0  0  0  0  0  0  0  0  0
    4.9303    1.7833   16.9975 H   0  0  0  0  0  0  0  0  0  0  0  0
    4.8009    1.3066   19.1019 C   0  0  0  0  0  0  0  0  0  0  0  0
    3.8738    1.8421   19.2523 H   0  0  0  0  0  0  0  0  0  0  0  0
    5.4228    0.6461   20.1568 C   0  0  0  0  0  0  0  0  0  0  0  0
    5.0071    0.6506   21.1683 H   0  0  0  0  0  0  0  0  0  0  0  0
    7.5652   -0.2437   22.2644 C   0  0  0  0  0  0  0  0  0  0  0  0
    7.2721    1.0204   22.7858 N   0  0  0  0  0  0  0  0  0  0  0  0
    7.3791    2.2324   22.1033 C   0  0  0  0  0  0  0  0  0  0  0  0
    7.6635    2.2443   21.0579 H   0  0  0  0  0  0  0  0  0  0  0  0
    7.0614    3.2467   22.9604 C   0  0  0  0  0  0  0  0  0  0  0  0
    7.0577    4.3093   22.7317 H   0  0  0  0  0  0  0  0  0  0  0  0
    6.7555    2.6488   24.2240 C   0  0  0  0  0  0  0  0  0  0  0  0
    6.4883    3.1668   25.1381 H   0  0  0  0  0  0  0  0  0  0  0  0
    6.8900    1.2984   24.0898 C   0  0  0  0  0  0  0  0  0  0  0  0
    6.7516    0.5058   24.8168 H   0  0  0  0  0  0  0  0  0  0  0  0
    8.3310   -1.4964   23.1986 S   0  0  0  0  0  0  0  0  0  0  0  0
  1  2  1  0
  2  3  2  0
  3  4  1  0
  4  5  1  0
  5  6  2  0
  6  7  1  0
  6  8  1  0
  8  9  2  0
  9 10  1  0
  9 11  1  0
 11 12  1  0
 11 13  2  0
 13 14  1  0
  4 15  2  0
 15 16  1  0
 16 17  1  0
 17 18  1  0
 17 19  2  0
 19 20  1  0
 19 21  1  0
 21 22  1  0
 21 23  2  0
 23 24  1  0
 15 25  1  0
 25  2  1  0
 13  5  1  0
 23 16  1  0
M  END
>  <plip>  (1) 
-0.0

>  <filename>  (1) 
[H][c]1[n][c](-[c]2[c]([H])[n][c]([H])[c]([H])[c]2[H])[c](-[n]2[c]([H])[c]([H])[c]([H])[c]2[H])[s]1

$$$$
