
     RDKit          3D

 31 32  0  0  0  0  0  0  0  0999 V2000
    4.9173    1.7953   16.9871 H   0  0  0  0  0  0  0  0  0  0  0  0
    5.3910    1.2989   17.8288 C   0  0  0  0  0  0  0  0  0  0  0  0
    6.5550    0.6842   17.5554 N   0  0  0  0  0  0  0  0  0  0  0  0
    7.1515    0.0401   18.5655 C   0  0  0  0  0  0  0  0  0  0  0  0
    8.1161   -0.4205   18.3694 H   0  0  0  0  0  0  0  0  0  0  0  0
    6.6189   -0.0471   19.8647 C   0  0  0  0  0  0  0  0  0  0  0  0
    7.6007   -0.8542   21.1025 S   0  0  0  0  0  0  0  0  0  0  0  0
    8.8041    0.7428   21.6983 S   0  0  0  0  0  0  0  0  0  0  0  0
    7.7762    1.4778   22.9444 C   0  0  0  0  0  0  0  0  0  0  0  0
    6.8761    2.4934   22.6324 C   0  0  0  0  0  0  0  0  0  0  0  0
    6.8340    2.8526   21.6081 H   0  0  0  0  0  0  0  0  0  0  0  0
    5.9851    3.0066   23.5827 C   0  0  0  0  0  0  0  0  0  0  0  0
    5.2908    3.7959   23.3177 H   0  0  0  0  0  0  0  0  0  0  0  0
    6.0193    2.4912   24.8819 C   0  0  0  0  0  0  0  0  0  0  0  0
    5.2341    2.9240   25.9011 O   0  0  0  0  0  0  0  0  0  0  0  0
    4.2906    3.9617   25.6979 C   0  0  0  0  0  0  0  0  0  0  0  0
    4.7536    4.9110   25.3959 H   0  0  0  0  0  0  0  0  0  0  0  0
    3.5190    3.6995   24.9617 H   0  0  0  0  0  0  0  0  0  0  0  0
    3.8093    4.1060   26.6646 H   0  0  0  0  0  0  0  0  0  0  0  0
    6.9140    1.4593   25.2183 C   0  0  0  0  0  0  0  0  0  0  0  0
    6.9265    1.0790   26.2327 H   0  0  0  0  0  0  0  0  0  0  0  0
    7.7873    0.9454   24.2634 C   0  0  0  0  0  0  0  0  0  0  0  0
    8.6563   -0.0589   24.4857 O   0  0  0  0  0  0  0  0  0  0  0  0
    8.8106   -0.6749   25.7476 C   0  0  0  0  0  0  0  0  0  0  0  0
    9.1432    0.0353   26.5132 H   0  0  0  0  0  0  0  0  0  0  0  0
    9.5906   -1.4247   25.6045 H   0  0  0  0  0  0  0  0  0  0  0  0
    7.8953   -1.1818   26.0743 H   0  0  0  0  0  0  0  0  0  0  0  0
    5.4139    0.6091   20.1456 C   0  0  0  0  0  0  0  0  0  0  0  0
    5.0167    0.6165   21.1655 H   0  0  0  0  0  0  0  0  0  0  0  0
    4.7954    1.3034   19.0977 C   0  0  0  0  0  0  0  0  0  0  0  0
    3.8713    1.8494   19.2512 H   0  0  0  0  0  0  0  0  0  0  0  0
  1  2  1  0
  2  3  2  0
  3  4  1  0
  4  5  1  0
  4  6  2  0
  6  7  1  0
  7  8  1  0
  8  9  1  0
  9 10  2  0
 10 11  1  0
 10 12  1  0
 12 13  1  0
 12 14  2  0
 14 15  1  0
 15 16  1  0
 16 17  1  0
 16 18  1  0
 16 19  1  0
 14 20  1  0
 20 21  1  0
 20 22  2  0
 22 23  1  0
 23 24  1  0
 24 25  1  0
 24 26  1  0
 24 27  1  0
  6 28  1  0
 28 29  1  0
 28 30  2  0
 30 31  1  0
 30  2  1  0
 22  9  1  0
M  END
>  <plip>  (1) 
-0.0

>  <filename>  (1) 
[H][c]1[n][c]([H])[c]([S][S][c]2[c]([H])[c]([H])[c]([O][C]([H])([H])[H])[c]([H])[c]2[O][C]([H])([H])[H])[c]([H])[c]1[H]

$$$$
