
     RDKit          3D

 42 43  0  0  0  0  0  0  0  0999 V2000
    4.4301    2.4937   32.1612 C   0  0  0  0  0  0  0  0  0  0  0  0
    4.0278    1.6306   31.1111 O   0  0  0  0  0  0  0  0  0  0  0  0
    4.4470    1.8444   29.8336 C   0  0  0  0  0  0  0  0  0  0  0  0
    5.2826    2.8991   29.4356 C   0  0  0  0  0  0  0  0  0  0  0  0
    5.6453    3.0192   28.0931 C   0  0  0  0  0  0  0  0  0  0  0  0
    5.2009    2.1035   27.1203 C   0  0  0  0  0  0  0  0  0  0  0  0
    5.6323    2.3211   25.6908 C   0  0  0  0  0  0  0  0  0  0  0  0
    6.0787    3.3939   25.3493 O   0  0  0  0  0  0  0  0  0  0  0  0
    5.4400    1.1852   24.6527 C   0  0  0  0  0  0  0  0  0  0  0  0
    6.1833    1.3248   23.4202 O   0  0  0  0  0  0  0  0  0  0  0  0
    7.5358    1.1708   23.4713 C   0  0  0  0  0  0  0  0  0  0  0  0
    8.1229    0.8175   24.4687 O   0  0  0  0  0  0  0  0  0  0  0  0
    8.2401    1.4262   22.1592 C   0  0  0  0  0  0  0  0  0  0  0  0
    8.6233    0.0970   21.4706 C   0  0  0  0  0  0  0  0  0  0  0  0
    7.4100   -0.7176   20.9876 C   0  0  0  0  0  0  0  0  0  0  0  0
    6.6415   -0.0120   19.8951 C   0  0  0  0  0  0  0  0  0  0  0  0
    5.4317    0.6458   20.1480 C   0  0  0  0  0  0  0  0  0  0  0  0
    4.8000    1.3139   19.0971 C   0  0  0  0  0  0  0  0  0  0  0  0
    5.3933    1.2985   17.8323 C   0  0  0  0  0  0  0  0  0  0  0  0
    6.5558    0.6843   17.5731 N   0  0  0  0  0  0  0  0  0  0  0  0
    7.1592    0.0596   18.5894 C   0  0  0  0  0  0  0  0  0  0  0  0
    8.1133   -0.4186   18.3659 H   0  0  0  0  0  0  0  0  0  0  0  0
    4.9172    1.7916   16.9877 H   0  0  0  0  0  0  0  0  0  0  0  0
    3.8711    1.8470   19.2469 H   0  0  0  0  0  0  0  0  0  0  0  0
    5.0202    0.6434   21.1586 H   0  0  0  0  0  0  0  0  0  0  0  0
    6.7475   -0.9234   21.8398 H   0  0  0  0  0  0  0  0  0  0  0  0
    7.7580   -1.6954   20.6266 H   0  0  0  0  0  0  0  0  0  0  0  0
    9.2251   -0.5055   22.1657 H   0  0  0  0  0  0  0  0  0  0  0  0
    9.2737    0.3147   20.6137 H   0  0  0  0  0  0  0  0  0  0  0  0
    7.6325    2.0605   21.5024 H   0  0  0  0  0  0  0  0  0  0  0  0
    9.1543    1.9779   22.4062 H   0  0  0  0  0  0  0  0  0  0  0  0
    5.6535    0.2126   25.1068 H   0  0  0  0  0  0  0  0  0  0  0  0
    4.3979    1.1920   24.3358 H   0  0  0  0  0  0  0  0  0  0  0  0
    4.3569    1.0554   27.5368 C   0  0  0  0  0  0  0  0  0  0  0  0
    3.9858    0.9250   28.8742 C   0  0  0  0  0  0  0  0  0  0  0  0
    3.3436    0.1165   29.2059 H   0  0  0  0  0  0  0  0  0  0  0  0
    3.9772    0.3313   26.8189 H   0  0  0  0  0  0  0  0  0  0  0  0
    6.2851    3.8407   27.7820 H   0  0  0  0  0  0  0  0  0  0  0  0
    5.6419    3.6199   30.1624 H   0  0  0  0  0  0  0  0  0  0  0  0
    5.5208    2.5028   32.3036 H   0  0  0  0  0  0  0  0  0  0  0  0
    3.9613    2.0941   33.0619 H   0  0  0  0  0  0  0  0  0  0  0  0
    4.0838    3.5267   32.0096 H   0  0  0  0  0  0  0  0  0  0  0  0
  1  2  1  0
  2  3  1  0
  3  4  2  0
  4  5  1  0
  5  6  2  0
  6  7  1  0
  7  8  2  0
  7  9  1  0
  9 10  1  0
 10 11  1  0
 11 12  2  0
 11 13  1  0
 13 14  1  0
 14 15  1  0
 15 16  1  0
 16 17  2  0
 17 18  1  0
 18 19  2  0
 19 20  1  0
 20 21  2  0
 21 22  1  0
 19 23  1  0
 18 24  1  0
 17 25  1  0
 15 26  1  0
 15 27  1  0
 14 28  1  0
 14 29  1  0
 13 30  1  0
 13 31  1  0
  9 32  1  0
  9 33  1  0
  6 34  1  0
 34 35  2  0
 35 36  1  0
 34 37  1  0
  5 38  1  0
  4 39  1  0
  1 40  1  0
  1 41  1  0
  1 42  1  0
 35  3  1  0
 21 16  1  0
M  END
>  <plip>  (1) 
-0.03571428571428571

>  <filename>  (1) 
[H][c]1[n][c]([H])[c]([C]([H])([H])[C]([H])([H])[C]([H])([H])[C](=[O])[O][C]([H])([H])[C](=[O])[c]2[c]([H])[c]([H])[c]([O][C]([H])([H])[H])[c]([H])[c]2[H])[c]([H])[c]1[H]

$$$$
