
     RDKit          3D

 41 43  0  0  0  0  0  0  0  0999 V2000
    4.9906    1.8622   16.8273 H   0  0  0  0  0  0  0  0  0  0  0  0
    5.4105    1.4025   17.7165 C   0  0  0  0  0  0  0  0  0  0  0  0
    6.5620    0.7409   17.5283 N   0  0  0  0  0  0  0  0  0  0  0  0
    7.1075    0.1389   18.5952 C   0  0  0  0  0  0  0  0  0  0  0  0
    8.0354   -0.4100   18.4314 H   0  0  0  0  0  0  0  0  0  0  0  0
    6.5484    0.1645   19.9012 C   0  0  0  0  0  0  0  0  0  0  0  0
    7.0718   -0.5727   20.9909 N   0  0  0  0  0  0  0  0  0  0  0  0
    7.6626    0.1323   22.1262 C   0  0  0  0  0  0  0  0  0  0  0  0
    7.1921    1.1177   22.2136 H   0  0  0  0  0  0  0  0  0  0  0  0
    8.7483    0.3093   21.9872 H   0  0  0  0  0  0  0  0  0  0  0  0
    7.4680   -0.6898   23.4045 C   0  0  0  0  0  0  0  0  0  0  0  0
    6.3994   -0.7647   23.6267 H   0  0  0  0  0  0  0  0  0  0  0  0
    7.9249   -0.1734   24.2568 H   0  0  0  0  0  0  0  0  0  0  0  0
    8.0799   -2.0994   23.2527 C   0  0  0  0  0  0  0  0  0  0  0  0
    9.1650   -1.9369   23.1439 H   0  0  0  0  0  0  0  0  0  0  0  0
    7.8803   -3.0039   24.4683 C   0  0  0  0  0  0  0  0  0  0  0  0
    6.6096   -3.3884   24.9289 C   0  0  0  0  0  0  0  0  0  0  0  0
    5.7212   -3.0090   24.4213 H   0  0  0  0  0  0  0  0  0  0  0  0
    6.4828   -4.2806   26.0044 C   0  0  0  0  0  0  0  0  0  0  0  0
    5.4949   -4.5742   26.3519 H   0  0  0  0  0  0  0  0  0  0  0  0
    7.6238   -4.8337   26.5964 C   0  0  0  0  0  0  0  0  0  0  0  0
    7.5386   -5.5588   27.4050 H   0  0  0  0  0  0  0  0  0  0  0  0
    8.9066   -4.4928   26.1298 C   0  0  0  0  0  0  0  0  0  0  0  0
   10.1396   -5.2163   26.6306 C   0  0  0  0  0  0  0  0  0  0  0  0
   11.0319   -4.5997   26.4435 H   0  0  0  0  0  0  0  0  0  0  0  0
   10.0720   -5.3374   27.7201 H   0  0  0  0  0  0  0  0  0  0  0  0
   10.2265   -6.5482   26.0198 N   0  0  0  0  0  0  0  0  0  0  0  0
   10.6932   -7.1954   26.6471 H   0  0  0  0  0  0  0  0  0  0  0  0
   10.7855   -6.5083   25.1709 H   0  0  0  0  0  0  0  0  0  0  0  0
    9.0077   -3.5469   25.1017 C   0  0  0  0  0  0  0  0  0  0  0  0
    9.9894   -3.2191   24.7648 H   0  0  0  0  0  0  0  0  0  0  0  0
    7.5837   -2.7816   21.9544 C   0  0  0  0  0  0  0  0  0  0  0  0
    6.5371   -3.0929   22.0620 H   0  0  0  0  0  0  0  0  0  0  0  0
    8.1588   -3.6984   21.7825 H   0  0  0  0  0  0  0  0  0  0  0  0
    7.6770   -1.8721   20.7264 C   0  0  0  0  0  0  0  0  0  0  0  0
    8.7323   -1.7941   20.3885 H   0  0  0  0  0  0  0  0  0  0  0  0
    7.0982   -2.3166   19.9107 H   0  0  0  0  0  0  0  0  0  0  0  0
    5.3661    0.9101   20.0760 C   0  0  0  0  0  0  0  0  0  0  0  0
    4.9278    0.9698   21.0739 H   0  0  0  0  0  0  0  0  0  0  0  0
    4.7722    1.5112   18.9596 C   0  0  0  0  0  0  0  0  0  0  0  0
    3.8430    2.0668   19.0401 H   0  0  0  0  0  0  0  0  0  0  0  0
  1  2  1  0
  2  3  2  0
  3  4  1  0
  4  5  1  0
  4  6  2  0
  6  7  1  0
  7  8  1  0
  8  9  1  0
  8 10  1  0
  8 11  1  0
 11 12  1  0
 11 13  1  0
 11 14  1  0
 14 15  1  0
 14 16  1  0
 16 17  2  0
 17 18  1  0
 17 19  1  0
 19 20  1  0
 19 21  2  0
 21 22  1  0
 21 23  1  0
 23 24  1  0
 24 25  1  0
 24 26  1  0
 24 27  1  0
 27 28  1  0
 27 29  1  0
 23 30  2  0
 30 31  1  0
 14 32  1  0
 32 33  1  0
 32 34  1  0
 32 35  1  0
 35 36  1  0
 35 37  1  0
  6 38  1  0
 38 39  1  0
 38 40  2  0
 40 41  1  0
 40  2  1  0
 35  7  1  0
 30 16  1  0
M  END
>  <plip>  (1) 
-0.10344827586206896

>  <filename>  (1) 
[H][c]1[n][c]([H])[c]([N]2[C]([H])([H])[C]([H])([H])[C]([H])([c]3[c]([H])[c]([H])[c]([H])[c]([C]([H])([H])[N]([H])[H])[c]3[H])[C]([H])([H])[C]2([H])[H])[c]([H])[c]1[H]

$$$$
