
     RDKit          3D

 46 48  0  0  0  0  0  0  0  0999 V2000
    7.9643   -1.7811   22.8664 C   0  0  0  0  0  0  0  0  0  0  0  0
    7.0707   -0.7343   22.2097 C   0  0  0  0  0  0  0  0  0  0  0  0
    7.4586   -0.7108   20.8206 O   0  0  0  0  0  0  0  0  0  0  0  0
    6.7033   -0.0280   19.9092 C   0  0  0  0  0  0  0  0  0  0  0  0
    5.4988    0.6314   20.1784 C   0  0  0  0  0  0  0  0  0  0  0  0
    4.8556    1.2783   19.1142 C   0  0  0  0  0  0  0  0  0  0  0  0
    5.4378    1.2710   17.8464 C   0  0  0  0  0  0  0  0  0  0  0  0
    6.5942    0.6392   17.5762 N   0  0  0  0  0  0  0  0  0  0  0  0
    7.2026    0.0078   18.5866 C   0  0  0  0  0  0  0  0  0  0  0  0
    8.1376   -0.5052   18.3723 H   0  0  0  0  0  0  0  0  0  0  0  0
    4.9739    1.8008   17.0182 H   0  0  0  0  0  0  0  0  0  0  0  0
    3.9170    1.7975   19.2690 H   0  0  0  0  0  0  0  0  0  0  0  0
    5.0864    0.6572   21.1878 H   0  0  0  0  0  0  0  0  0  0  0  0
    7.1242    0.6670   22.8775 C   0  0  0  0  0  0  0  0  0  0  0  0
    6.2602    1.0238   23.6632 O   0  0  0  0  0  0  0  0  0  0  0  0
    8.1783    1.4417   22.5129 N   0  0  0  0  0  0  0  0  0  0  0  0
    8.4665    2.7162   23.1388 C   0  0  0  0  0  0  0  0  0  0  0  0
    8.8596    2.5266   24.6054 C   0  0  0  0  0  0  0  0  0  0  0  0
    9.4281    3.7900   25.2477 C   0  0  0  0  0  0  0  0  0  0  0  0
    8.4159    4.7875   25.3927 O   0  0  0  0  0  0  0  0  0  0  0  0
    8.4133    5.8912   24.5112 C   0  0  0  0  0  0  0  0  0  0  0  0
    9.7645    6.6036   24.5326 C   0  0  0  0  0  0  0  0  0  0  0  0
   10.8993    5.6338   24.2633 C   0  0  0  0  0  0  0  0  0  0  0  0
   12.1237    6.0701   23.7386 C   0  0  0  0  0  0  0  0  0  0  0  0
   13.1132    5.1629   23.3565 C   0  0  0  0  0  0  0  0  0  0  0  0
   12.8924    3.7927   23.5313 C   0  0  0  0  0  0  0  0  0  0  0  0
   11.7214    3.3511   24.1541 C   0  0  0  0  0  0  0  0  0  0  0  0
   10.7149    4.2646   24.5385 C   0  0  0  0  0  0  0  0  0  0  0  0
   11.6047    2.2832   24.3351 H   0  0  0  0  0  0  0  0  0  0  0  0
   13.6337    3.0728   23.1922 H   0  0  0  0  0  0  0  0  0  0  0  0
   14.0362    5.5185   22.9041 H   0  0  0  0  0  0  0  0  0  0  0  0
   12.2922    7.1356   23.6138 H   0  0  0  0  0  0  0  0  0  0  0  0
    9.7568    7.4223   23.8019 H   0  0  0  0  0  0  0  0  0  0  0  0
    9.9245    7.0506   25.5225 H   0  0  0  0  0  0  0  0  0  0  0  0
    8.1509    5.5861   23.4828 H   0  0  0  0  0  0  0  0  0  0  0  0
    7.6165    6.5486   24.8764 H   0  0  0  0  0  0  0  0  0  0  0  0
    9.6054    3.5233   26.2966 H   0  0  0  0  0  0  0  0  0  0  0  0
    9.6025    1.7220   24.6923 H   0  0  0  0  0  0  0  0  0  0  0  0
    7.9830    2.2019   25.1740 H   0  0  0  0  0  0  0  0  0  0  0  0
    7.5931    3.3798   23.0744 H   0  0  0  0  0  0  0  0  0  0  0  0
    9.2837    3.1888   22.5712 H   0  0  0  0  0  0  0  0  0  0  0  0
    8.8407    1.0395   21.8748 H   0  0  0  0  0  0  0  0  0  0  0  0
    6.0301   -1.0596   22.2835 H   0  0  0  0  0  0  0  0  0  0  0  0
    7.8205   -2.7333   22.3441 H   0  0  0  0  0  0  0  0  0  0  0  0
    9.0224   -1.5013   22.7928 H   0  0  0  0  0  0  0  0  0  0  0  0
    7.7025   -1.9166   23.9218 H   0  0  0  0  0  0  0  0  0  0  0  0
  1  2  1  0
  2  3  1  0
  3  4  1  0
  4  5  2  0
  5  6  1  0
  6  7  2  0
  7  8  1  0
  8  9  2  0
  9 10  1  0
  7 11  1  0
  6 12  1  0
  5 13  1  0
  2 14  1  0
 14 15  2  0
 14 16  1  0
 16 17  1  0
 17 18  1  0
 18 19  1  0
 19 20  1  0
 20 21  1  0
 21 22  1  0
 22 23  1  0
 23 24  2  0
 24 25  1  0
 25 26  2  0
 26 27  1  0
 27 28  2  0
 27 29  1  0
 26 30  1  0
 25 31  1  0
 24 32  1  0
 22 33  1  0
 22 34  1  0
 21 35  1  0
 21 36  1  0
 19 37  1  0
 18 38  1  0
 18 39  1  0
 17 40  1  0
 17 41  1  0
 16 42  1  0
  2 43  1  0
  1 44  1  0
  1 45  1  0
  1 46  1  0
  9  4  1  0
 28 19  1  0
 28 23  1  0
M  END
>  <plip>  (1) 
-0.10714285714285714

>  <filename>  (1) 
[H][c]1[n][c]([H])[c]([O][C]([H])([C](=[O])[N]([H])[C]([H])([H])[C]([H])([H])[C]2([H])[O][C]([H])([H])[C]([H])([H])[c]3[c]([H])[c]([H])[c]([H])[c]([H])[c]32)[C]([H])([H])[H])[c]([H])[c]1[H]

$$$$
