
     RDKit          3D

 43 45  0  0  0  0  0  0  0  0999 V2000
    6.0069   -6.0569   19.4973 C   0  0  0  0  0  0  0  0  0  0  0  0
    5.8949   -4.6567   19.5890 O   0  0  0  0  0  0  0  0  0  0  0  0
    5.9178   -4.2033   20.9309 C   0  0  0  0  0  0  0  0  0  0  0  0
    5.9257   -2.6730   20.9934 C   0  0  0  0  0  0  0  0  0  0  0  0
    7.3062   -2.0010   21.0682 C   0  0  0  0  0  0  0  0  0  0  0  0
    7.2689   -0.4738   21.2005 C   0  0  0  0  0  0  0  0  0  0  0  0
    8.6528   -0.0241   21.3082 N   0  0  0  0  0  0  0  0  0  0  0  0
    8.9562    1.2145   21.7403 C   0  0  0  0  0  0  0  0  0  0  0  0
    8.0964    2.0678   21.9158 O   0  0  0  0  0  0  0  0  0  0  0  0
   10.4287    1.4597   21.9947 C   0  0  0  0  0  0  0  0  0  0  0  0
   11.4447    0.6249   21.8447 N   0  0  0  0  0  0  0  0  0  0  0  0
   12.5960    1.2877   22.0935 N   0  0  0  0  0  0  0  0  0  0  0  0
   12.2794    2.5371   22.3914 C   0  0  0  0  0  0  0  0  0  0  0  0
   13.0489    3.7268   22.6483 C   0  0  0  0  0  0  0  0  0  0  0  0
   14.3771    3.6724   22.6160 F   0  0  0  0  0  0  0  0  0  0  0  0
   12.4233    4.9122   22.8917 C   0  0  0  0  0  0  0  0  0  0  0  0
   10.9852    4.9888   22.9004 C   0  0  0  0  0  0  0  0  0  0  0  0
   10.2401    3.8816   22.6470 C   0  0  0  0  0  0  0  0  0  0  0  0
   10.9000    2.6908   22.3732 N   0  0  0  0  0  0  0  0  0  0  0  0
    9.1629    3.8222   22.5708 H   0  0  0  0  0  0  0  0  0  0  0  0
   10.4826    5.9339   23.0834 H   0  0  0  0  0  0  0  0  0  0  0  0
   13.0376    5.7922   23.0495 H   0  0  0  0  0  0  0  0  0  0  0  0
    9.4174   -0.6745   21.1711 H   0  0  0  0  0  0  0  0  0  0  0  0
    6.5632    0.2079   20.0409 C   0  0  0  0  0  0  0  0  0  0  0  0
    5.3138    0.8364   20.1689 C   0  0  0  0  0  0  0  0  0  0  0  0
    4.7217    1.3945   19.0323 C   0  0  0  0  0  0  0  0  0  0  0  0
    5.4032    1.3052   17.8145 C   0  0  0  0  0  0  0  0  0  0  0  0
    6.5893    0.6978   17.6645 N   0  0  0  0  0  0  0  0  0  0  0  0
    7.1440    0.1714   18.7645 C   0  0  0  0  0  0  0  0  0  0  0  0
    8.1131   -0.3113   18.6243 H   0  0  0  0  0  0  0  0  0  0  0  0
    4.9769    1.7281   16.9101 H   0  0  0  0  0  0  0  0  0  0  0  0
    3.7651    1.9037   19.0773 H   0  0  0  0  0  0  0  0  0  0  0  0
    4.8247    0.8998   21.1444 H   0  0  0  0  0  0  0  0  0  0  0  0
    6.7367   -0.2046   22.1267 H   0  0  0  0  0  0  0  0  0  0  0  0
    7.8767   -2.3986   21.9212 H   0  0  0  0  0  0  0  0  0  0  0  0
    7.8913   -2.1963   20.1721 H   0  0  0  0  0  0  0  0  0  0  0  0
    5.3806   -2.2803   20.1262 H   0  0  0  0  0  0  0  0  0  0  0  0
    5.3772   -2.3798   21.8969 H   0  0  0  0  0  0  0  0  0  0  0  0
    6.8003   -4.6160   21.4576 H   0  0  0  0  0  0  0  0  0  0  0  0
    5.0331   -4.5932   21.4691 H   0  0  0  0  0  0  0  0  0  0  0  0
    5.1209   -6.5876   19.8833 H   0  0  0  0  0  0  0  0  0  0  0  0
    6.8924   -6.4085   20.0528 H   0  0  0  0  0  0  0  0  0  0  0  0
    6.1309   -6.3298   18.4467 H   0  0  0  0  0  0  0  0  0  0  0  0
  1  2  1  0
  2  3  1  0
  3  4  1  0
  4  5  1  0
  5  6  1  0
  6  7  1  0
  7  8  1  0
  8  9  2  0
  8 10  1  0
 10 11  2  0
 11 12  1  0
 12 13  2  0
 13 14  1  0
 14 15  1  0
 14 16  2  0
 16 17  1  0
 17 18  2  0
 18 19  1  0
 18 20  1  0
 17 21  1  0
 16 22  1  0
  7 23  1  0
  6 24  1  0
 24 25  2  0
 25 26  1  0
 26 27  2  0
 27 28  1  0
 28 29  2  0
 29 30  1  0
 27 31  1  0
 26 32  1  0
 25 33  1  0
  6 34  1  0
  5 35  1  0
  5 36  1  0
  4 37  1  0
  4 38  1  0
  3 39  1  0
  3 40  1  0
  1 41  1  0
  1 42  1  0
  1 43  1  0
 19 10  1  0
 29 24  1  0
 19 13  1  0
M  END
>  <plip>  (1) 
-0.12903225806451613

>  <filename>  (1) 
[H][c]1[n][c]([H])[c]([C]([H])([N]([H])[C](=[O])[c]2[n][n][c]3[c]([F])[c]([H])[c]([H])[c]([H])[n]23)[C]([H])([H])[C]([H])([H])[C]([H])([H])[O][C]([H])([H])[H])[c]([H])[c]1[H]

$$$$
