
     RDKit          3D

 39 40  0  0  0  0  0  0  0  0999 V2000
    9.7765    1.8734   23.9007 C   0  0  0  0  0  0  0  0  0  0  0  0
   10.2016    0.5347   23.2889 C   0  0  0  0  0  0  0  0  0  0  0  0
    9.0777   -0.3936   22.8209 C   0  0  0  0  0  0  0  0  0  0  0  0
    8.3307    0.2521   21.6477 N   0  0  0  0  0  4  0  0  0  0  0  0
    7.4043   -0.6958   20.9796 C   0  0  0  0  0  0  0  0  0  0  0  0
    6.6631    0.0352   19.9102 C   0  0  0  0  0  0  0  0  0  0  0  0
    5.4343    0.6631   20.1544 C   0  0  0  0  0  0  0  0  0  0  0  0
    4.7994    1.3163   19.0980 C   0  0  0  0  0  0  0  0  0  0  0  0
    5.4002    1.2995   17.8348 C   0  0  0  0  0  0  0  0  0  0  0  0
    6.5666    0.6893   17.5794 N   0  0  0  0  0  0  0  0  0  0  0  0
    7.1749    0.0838   18.6058 C   0  0  0  0  0  0  0  0  0  0  0  0
    8.1132   -0.4184   18.3686 H   0  0  0  0  0  0  0  0  0  0  0  0
    4.9237    1.7882   16.9873 H   0  0  0  0  0  0  0  0  0  0  0  0
    3.8684    1.8466   19.2450 H   0  0  0  0  0  0  0  0  0  0  0  0
    4.9956    0.6382   21.1586 H   0  0  0  0  0  0  0  0  0  0  0  0
    7.9721   -1.5435   20.5782 H   0  0  0  0  0  0  0  0  0  0  0  0
    6.7116   -1.1069   21.7222 H   0  0  0  0  0  0  0  0  0  0  0  0
    8.9637    0.6669   20.9176 H   0  0  0  0  0  0  0  0  0  0  0  0
    7.7381    1.0558   21.9824 H   0  0  0  0  0  0  0  0  0  0  0  0
    8.1808   -0.9067   23.9683 C   0  0  0  0  0  0  0  0  0  0  0  0
    7.1355   -0.1382   24.4711 C   0  0  0  0  0  0  0  0  0  0  0  0
    6.3523   -0.6343   25.5245 C   0  0  0  0  0  0  0  0  0  0  0  0
    6.6519   -1.8893   26.0130 C   0  0  0  0  0  0  0  0  0  0  0  0
    7.7228   -2.6016   25.4276 C   0  0  0  0  0  0  0  0  0  0  0  0
    7.9512   -3.8219   25.9529 O   0  0  0  0  0  0  0  0  0  0  0  0
    9.0064   -4.6312   25.4413 C   0  0  0  0  0  0  0  0  0  0  0  0
    8.9733   -5.5408   26.0379 H   0  0  0  0  0  0  0  0  0  0  0  0
    9.9877   -4.1583   25.5522 H   0  0  0  0  0  0  0  0  0  0  0  0
    8.8623   -4.8822   24.3853 H   0  0  0  0  0  0  0  0  0  0  0  0
    8.4762   -2.1412   24.4371 N   0  0  0  0  0  0  0  0  0  0  0  0
    6.1110   -2.3557   26.8246 H   0  0  0  0  0  0  0  0  0  0  0  0
    5.5404   -0.0274   25.9403 H   0  0  0  0  0  0  0  0  0  0  0  0
    6.9453    0.8454   24.0667 H   0  0  0  0  0  0  0  0  0  0  0  0
    9.5146   -1.3192   22.4480 H   0  0  0  0  0  0  0  0  0  0  0  0
   10.7916   -0.0325   24.0184 H   0  0  0  0  0  0  0  0  0  0  0  0
   10.8601    0.7047   22.4308 H   0  0  0  0  0  0  0  0  0  0  0  0
   10.6515    2.4639   24.1967 H   0  0  0  0  0  0  0  0  0  0  0  0
    9.1525    1.7221   24.7874 H   0  0  0  0  0  0  0  0  0  0  0  0
    9.1919    2.4767   23.1953 H   0  0  0  0  0  0  0  0  0  0  0  0
  1  2  1  0
  2  3  1  0
  3  4  1  0
  4  5  1  0
  5  6  1  0
  6  7  2  0
  7  8  1  0
  8  9  2  0
  9 10  1  0
 10 11  2  0
 11 12  1  0
  9 13  1  0
  8 14  1  0
  7 15  1  0
  5 16  1  0
  5 17  1  0
  4 18  1  0
  4 19  1  0
  3 20  1  0
 20 21  2  0
 21 22  1  0
 22 23  2  0
 23 24  1  0
 24 25  1  0
 25 26  1  0
 26 27  1  0
 26 28  1  0
 26 29  1  0
 24 30  2  0
 23 31  1  0
 22 32  1  0
 21 33  1  0
  3 34  1  0
  2 35  1  0
  2 36  1  0
  1 37  1  0
  1 38  1  0
  1 39  1  0
 11  6  1  0
 30 20  1  0
M  CHG  1   4   1
M  END
>  <plip>  (1) 
-0.03571428571428571

>  <filename>  (1) 
[H][c]1[n][c]([H])[c]([C]([H])([H])[N+]([H])([H])[C]([H])([c]2[n][c]([O][C]([H])([H])[H])[c]([H])[c]([H])[c]2[H])[C]([H])([H])[C]([H])([H])[H])[c]([H])[c]1[H]

$$$$
