
     RDKit          3D

 29 29  0  0  0  0  0  0  0  0999 V2000
    9.2662   -0.0211   20.4783 H   0  0  0  0  0  0  0  0  0  0  0  0
    8.7017   -0.6813   21.1395 C   0  0  0  0  0  0  0  0  0  0  0  0
    7.3793   -0.7202   20.9507 C   0  0  0  0  0  0  0  0  0  0  0  0
    6.3723   -1.6795   22.0087 Cl  0  0  0  0  0  0  0  0  0  0  0  0
    6.6303    0.0072   19.8896 C   0  0  0  0  0  0  0  0  0  0  0  0
    7.1463    0.0627   18.5831 C   0  0  0  0  0  0  0  0  0  0  0  0
    8.0915   -0.4250   18.3555 H   0  0  0  0  0  0  0  0  0  0  0  0
    6.5456    0.6811   17.5602 N   0  0  0  0  0  0  0  0  0  0  0  0
    5.3883    1.3082   17.8111 C   0  0  0  0  0  0  0  0  0  0  0  0
    4.9443    1.8309   16.9657 H   0  0  0  0  0  0  0  0  0  0  0  0
    4.7770    1.3162   19.0728 C   0  0  0  0  0  0  0  0  0  0  0  0
    3.8487    1.8610   19.2090 H   0  0  0  0  0  0  0  0  0  0  0  0
    5.4032    0.6502   20.1297 C   0  0  0  0  0  0  0  0  0  0  0  0
    4.9700    0.6425   21.1299 H   0  0  0  0  0  0  0  0  0  0  0  0
    9.5009   -1.3763   22.2318 C   0  0  0  0  0  0  0  0  0  0  0  0
    9.4307   -2.4749   22.1558 H   0  0  0  0  0  0  0  0  0  0  0  0
    9.0760   -1.1417   23.2232 H   0  0  0  0  0  0  0  0  0  0  0  0
   10.9068   -0.9951   22.2270 N   0  0  0  0  0  0  0  0  0  0  0  0
   11.2794   -1.0805   21.2850 H   0  0  0  0  0  0  0  0  0  0  0  0
   11.1903    0.3523   22.7308 C   0  0  0  0  0  0  0  0  0  0  0  0
   10.3348    1.0369   22.5493 H   0  0  0  0  0  0  0  0  0  0  0  0
   11.4242    0.3202   24.2385 C   0  0  0  0  0  0  0  0  0  0  0  0
   10.5619   -0.1035   24.7617 H   0  0  0  0  0  0  0  0  0  0  0  0
   12.2997   -0.2834   24.4937 H   0  0  0  0  0  0  0  0  0  0  0  0
   11.5824    1.3352   24.6240 H   0  0  0  0  0  0  0  0  0  0  0  0
   12.3933    0.9031   21.9782 C   0  0  0  0  0  0  0  0  0  0  0  0
   12.8056    1.7760   22.4922 H   0  0  0  0  0  0  0  0  0  0  0  0
   13.1819    0.1400   21.8809 H   0  0  0  0  0  0  0  0  0  0  0  0
   12.0699    1.2363   20.9855 H   0  0  0  0  0  0  0  0  0  0  0  0
  1  2  1  0
  2  3  2  3
  3  4  1  0
  3  5  1  0
  5  6  2  0
  6  7  1  0
  6  8  1  0
  8  9  2  0
  9 10  1  0
  9 11  1  0
 11 12  1  0
 11 13  2  0
 13 14  1  0
  2 15  1  0
 15 16  1  0
 15 17  1  0
 15 18  1  0
 18 19  1  0
 18 20  1  0
 20 21  1  0
 20 22  1  0
 22 23  1  0
 22 24  1  0
 22 25  1  0
 20 26  1  0
 26 27  1  0
 26 28  1  0
 26 29  1  0
 13  5  1  0
M  END
>  <plip>  (1) 
-0.034482758620689655

>  <filename>  (1) 
[H][C](=[C]([Cl])[c]1[c]([H])[n][c]([H])[c]([H])[c]1[H])[C]([H])([H])[N]([H])[C]([H])([C]([H])([H])[H])[C]([H])([H])[H]

$$$$
