
     RDKit          3D

 40 41  0  0  0  0  0  0  0  0999 V2000
   11.2080   -0.4408   21.0558 C   0  0  0  0  0  0  0  0  0  0  0  0
   10.2575    0.2793   21.2312 C   0  0  0  0  0  0  0  0  0  0  0  0
    9.0217    1.0187   21.5388 C   0  0  0  0  0  0  0  0  0  0  0  0
    7.9384    0.1395   22.0399 N   0  0  0  0  0  0  0  0  0  0  0  0
    7.3664   -0.7720   21.0300 C   0  0  0  0  0  0  0  0  0  0  0  0
    6.6578   -0.0105   19.9352 C   0  0  0  0  0  0  0  0  0  0  0  0
    5.4395    0.6520   20.1554 C   0  0  0  0  0  0  0  0  0  0  0  0
    4.8251    1.3082   19.0878 C   0  0  0  0  0  0  0  0  0  0  0  0
    5.4454    1.2955   17.8363 C   0  0  0  0  0  0  0  0  0  0  0  0
    6.6105    0.6700   17.6042 N   0  0  0  0  0  0  0  0  0  0  0  0
    7.1905    0.0471   18.6398 C   0  0  0  0  0  0  0  0  0  0  0  0
    8.1440   -0.4391   18.4163 H   0  0  0  0  0  0  0  0  0  0  0  0
    4.9856    1.7986   16.9843 H   0  0  0  0  0  0  0  0  0  0  0  0
    3.8844    1.8334   19.2132 H   0  0  0  0  0  0  0  0  0  0  0  0
    4.9915    0.6788   21.1501 H   0  0  0  0  0  0  0  0  0  0  0  0
    6.6431   -1.4503   21.4993 H   0  0  0  0  0  0  0  0  0  0  0  0
    8.1590   -1.4023   20.6045 H   0  0  0  0  0  0  0  0  0  0  0  0
    8.4418   -0.6191   23.4727 S   0  0  0  0  0  0  0  0  0  0  0  0
    9.2322    0.3541   24.2077 O   0  0  0  0  0  0  0  0  0  0  0  0
    8.9892   -1.9246   23.1232 O   0  0  0  0  0  0  0  0  0  0  0  0
    6.9149   -0.8949   24.3690 C   0  0  0  0  0  0  0  0  0  0  0  0
    6.0300    0.3452   24.5696 C   0  0  0  0  0  0  0  0  0  0  0  0
    5.2059    0.0539   25.8421 C   0  0  0  0  0  0  0  0  0  0  0  0
    5.8707   -1.1695   26.5170 C   0  0  0  0  0  0  0  0  0  0  0  0
    7.2004   -1.4180   25.7886 C   0  0  0  0  0  0  0  0  0  0  0  0
    7.6955   -2.8602   25.8446 C   0  0  0  0  0  0  0  0  0  0  0  0
    8.6282   -2.9844   25.2900 H   0  0  0  0  0  0  0  0  0  0  0  0
    6.9527   -3.5417   25.4118 H   0  0  0  0  0  0  0  0  0  0  0  0
    7.8627   -3.1637   26.8826 H   0  0  0  0  0  0  0  0  0  0  0  0
    7.9624   -0.7525   26.2286 H   0  0  0  0  0  0  0  0  0  0  0  0
    5.2284   -2.0509   26.4050 H   0  0  0  0  0  0  0  0  0  0  0  0
    6.0428   -1.0194   27.5876 H   0  0  0  0  0  0  0  0  0  0  0  0
    5.2129    0.9272   26.5014 H   0  0  0  0  0  0  0  0  0  0  0  0
    4.1588   -0.1615   25.6048 H   0  0  0  0  0  0  0  0  0  0  0  0
    5.4097    0.5561   23.6920 H   0  0  0  0  0  0  0  0  0  0  0  0
    6.6639    1.2207   24.7354 H   0  0  0  0  0  0  0  0  0  0  0  0
    6.3977   -1.6560   23.7736 H   0  0  0  0  0  0  0  0  0  0  0  0
    9.1905    1.7861   22.2990 H   0  0  0  0  0  0  0  0  0  0  0  0
    8.6665    1.5431   20.6479 H   0  0  0  0  0  0  0  0  0  0  0  0
   12.0131   -1.1225   20.8773 H   0  0  0  0  0  0  0  0  0  0  0  0
  1  2  3  0
  2  3  1  0
  3  4  1  0
  4  5  1  0
  5  6  1  0
  6  7  2  0
  7  8  1  0
  8  9  2  0
  9 10  1  0
 10 11  2  0
 11 12  1  0
  9 13  1  0
  8 14  1  0
  7 15  1  0
  5 16  1  0
  5 17  1  0
  4 18  1  0
 18 19  2  0
 18 20  2  0
 18 21  1  0
 21 22  1  0
 22 23  1  0
 23 24  1  0
 24 25  1  0
 25 26  1  0
 26 27  1  0
 26 28  1  0
 26 29  1  0
 25 30  1  0
 24 31  1  0
 24 32  1  0
 23 33  1  0
 23 34  1  0
 22 35  1  0
 22 36  1  0
 21 37  1  0
  3 38  1  0
  3 39  1  0
  1 40  1  0
 11  6  1  0
 25 21  1  0
M  END
>  <plip>  (1) 
-0.07142857142857142

>  <filename>  (1) 
[H][C]#[C][C]([H])([H])[N]([C]([H])([H])[c]1[c]([H])[n][c]([H])[c]([H])[c]1[H])[S](=[O])(=[O])[C]1([H])[C]([H])([H])[C]([H])([H])[C]([H])([H])[C]1([H])[C]([H])([H])[H]

$$$$
