
     RDKit          3D

 30 31  0  0  0  0  0  0  0  0999 V2000
   10.8396    2.5898   21.4196 C   0  0  0  0  0  0  0  0  0  0  0  0
    9.5806    1.9699   21.9616 C   0  0  0  0  0  0  0  0  0  0  0  0
    9.1302    0.9734   21.2947 N   0  0  0  0  0  0  0  0  0  0  0  0
    8.0405    0.3751   21.8980 O   0  0  0  0  0  0  0  0  0  0  0  0
    7.4603   -0.5968   21.0288 C   0  0  0  0  0  0  0  0  0  0  0  0
    6.6726    0.0293   19.9036 C   0  0  0  0  0  0  0  0  0  0  0  0
    5.4503    0.6694   20.1444 C   0  0  0  0  0  0  0  0  0  0  0  0
    4.8009    1.3194   19.0917 C   0  0  0  0  0  0  0  0  0  0  0  0
    5.3956    1.2965   17.8256 C   0  0  0  0  0  0  0  0  0  0  0  0
    6.5530    0.6716   17.5662 N   0  0  0  0  0  0  0  0  0  0  0  0
    7.1719    0.0737   18.5936 C   0  0  0  0  0  0  0  0  0  0  0  0
    8.1181   -0.4138   18.3519 H   0  0  0  0  0  0  0  0  0  0  0  0
    4.9257    1.8027   16.9828 H   0  0  0  0  0  0  0  0  0  0  0  0
    3.8641    1.8492   19.2387 H   0  0  0  0  0  0  0  0  0  0  0  0
    5.0058    0.6303   21.1401 H   0  0  0  0  0  0  0  0  0  0  0  0
    8.2497   -1.2597   20.6516 H   0  0  0  0  0  0  0  0  0  0  0  0
    6.8112   -1.1506   21.7154 H   0  0  0  0  0  0  0  0  0  0  0  0
    8.8923    2.5503   23.1924 C   0  0  0  0  0  0  0  0  0  0  0  0
    7.5610    3.0887   22.9056 N   0  0  0  0  0  0  0  0  0  0  0  0
    6.3493    2.5821   23.2038 C   0  0  0  0  0  0  0  0  0  0  0  0
    5.3913    3.3312   22.6977 N   0  0  0  0  0  0  0  0  0  0  0  0
    6.0996    4.3106   22.0614 C   0  0  0  0  0  0  0  0  0  0  0  0
    7.4131    4.2074   22.1749 N   0  0  0  0  0  0  0  0  0  0  0  0
    5.6505    5.1281   21.5093 H   0  0  0  0  0  0  0  0  0  0  0  0
    6.2492    1.6712   23.7847 H   0  0  0  0  0  0  0  0  0  0  0  0
    9.4914    3.3725   23.5915 H   0  0  0  0  0  0  0  0  0  0  0  0
    8.7614    1.7647   23.9449 H   0  0  0  0  0  0  0  0  0  0  0  0
   11.7127    1.9372   21.5385 H   0  0  0  0  0  0  0  0  0  0  0  0
   11.0390    3.5405   21.9159 H   0  0  0  0  0  0  0  0  0  0  0  0
   10.7128    2.7925   20.3573 H   0  0  0  0  0  0  0  0  0  0  0  0
  1  2  1  0
  2  3  2  3
  3  4  1  0
  4  5  1  0
  5  6  1  0
  6  7  2  0
  7  8  1  0
  8  9  2  0
  9 10  1  0
 10 11  2  0
 11 12  1  0
  9 13  1  0
  8 14  1  0
  7 15  1  0
  5 16  1  0
  5 17  1  0
  2 18  1  0
 18 19  1  0
 19 20  1  0
 20 21  2  0
 21 22  1  0
 22 23  2  0
 22 24  1  0
 20 25  1  0
 18 26  1  0
 18 27  1  0
  1 28  1  0
  1 29  1  0
  1 30  1  0
 11  6  1  0
 23 19  1  0
M  END
>  <plip>  (1) 
-0.17857142857142858

>  <filename>  (1) 
[H][c]1[n][c]([H])[n]([C]([H])([H])[C](=[N][O][C]([H])([H])[c]2[c]([H])[n][c]([H])[c]([H])[c]2[H])[C]([H])([H])[H])[n]1

$$$$
