
     RDKit          3D

 39 41  0  0  0  0  0  0  0  0999 V2000
    4.9301    1.7854   17.0170 H   0  0  0  0  0  0  0  0  0  0  0  0
    5.4066    1.2798   17.8535 C   0  0  0  0  0  0  0  0  0  0  0  0
    6.5628    0.6576   17.5749 N   0  0  0  0  0  0  0  0  0  0  0  0
    7.1980    0.0544   18.5863 C   0  0  0  0  0  0  0  0  0  0  0  0
    8.1472   -0.4215   18.3515 H   0  0  0  0  0  0  0  0  0  0  0  0
    6.7050    0.0080   19.9143 C   0  0  0  0  0  0  0  0  0  0  0  0
    7.4112   -0.6657   20.9787 N   0  0  0  0  0  0  0  0  0  0  0  0
    6.8066   -1.5986   21.8336 C   0  0  0  0  0  0  0  0  0  0  0  0
    5.6841   -2.0341   21.6842 O   0  0  0  0  0  0  0  0  0  0  0  0
    7.7590   -1.9565   22.7851 N   0  0  0  0  0  0  0  0  0  0  0  0
    7.6367   -2.7978   23.9032 N   0  0  0  0  0  0  0  0  0  0  0  0
    7.0463   -4.1181   23.5504 C   0  0  0  0  0  0  0  0  0  0  0  0
    7.6735   -4.5843   22.7875 H   0  0  0  0  0  0  0  0  0  0  0  0
    6.0432   -3.9664   23.1244 H   0  0  0  0  0  0  0  0  0  0  0  0
    6.9864   -5.0490   24.7731 C   0  0  0  0  0  0  0  0  0  0  0  0
    8.0144   -5.3309   25.0522 H   0  0  0  0  0  0  0  0  0  0  0  0
    6.4557   -5.9596   24.4779 H   0  0  0  0  0  0  0  0  0  0  0  0
    6.2802   -4.4331   25.9024 N   0  0  0  0  0  0  0  0  0  0  0  0
    5.5919   -5.1348   26.8751 C   0  0  0  0  0  0  0  0  0  0  0  0
    5.0686   -4.5704   27.8218 O   0  0  0  0  0  0  0  0  0  0  0  0
    5.4904   -6.6421   26.7290 C   0  0  0  0  0  0  0  0  0  0  0  0
    6.4671   -7.1042   26.5693 H   0  0  0  0  0  0  0  0  0  0  0  0
    5.0500   -7.0245   27.6501 H   0  0  0  0  0  0  0  0  0  0  0  0
    4.8490   -6.9214   25.8878 H   0  0  0  0  0  0  0  0  0  0  0  0
    6.7111   -3.0566   26.2000 C   0  0  0  0  0  0  0  0  0  0  0  0
    5.9911   -2.6421   26.9104 H   0  0  0  0  0  0  0  0  0  0  0  0
    7.6996   -3.0638   26.6858 H   0  0  0  0  0  0  0  0  0  0  0  0
    6.7711   -2.1823   24.9459 C   0  0  0  0  0  0  0  0  0  0  0  0
    7.1939   -1.2129   25.2170 H   0  0  0  0  0  0  0  0  0  0  0  0
    5.7597   -2.0189   24.5369 H   0  0  0  0  0  0  0  0  0  0  0  0
    9.0817   -1.5032   22.3990 C   0  0  0  0  0  0  0  0  0  0  0  0
    9.7467   -2.3263   22.1095 H   0  0  0  0  0  0  0  0  0  0  0  0
    9.5881   -0.9154   23.1708 H   0  0  0  0  0  0  0  0  0  0  0  0
    8.7850   -0.6403   21.1995 C   0  0  0  0  0  0  0  0  0  0  0  0
    9.5962   -0.0497   20.5325 O   0  0  0  0  0  0  0  0  0  0  0  0
    5.4772    0.6237   20.1773 C   0  0  0  0  0  0  0  0  0  0  0  0
    5.0506    0.5750   21.1770 H   0  0  0  0  0  0  0  0  0  0  0  0
    4.8315    1.2899   19.1267 C   0  0  0  0  0  0  0  0  0  0  0  0
    3.9001    1.8200   19.2791 H   0  0  0  0  0  0  0  0  0  0  0  0
  1  2  1  0
  2  3  2  0
  3  4  1  0
  4  5  1  0
  4  6  2  0
  6  7  1  0
  7  8  1  0
  8  9  2  0
  8 10  1  0
 10 11  1  0
 11 12  1  0
 12 13  1  0
 12 14  1  0
 12 15  1  0
 15 16  1  0
 15 17  1  0
 15 18  1  0
 18 19  1  0
 19 20  2  0
 19 21  1  0
 21 22  1  0
 21 23  1  0
 21 24  1  0
 18 25  1  0
 25 26  1  0
 25 27  1  0
 25 28  1  0
 28 29  1  0
 28 30  1  0
 10 31  1  0
 31 32  1  0
 31 33  1  0
 31 34  1  0
 34 35  2  0
  6 36  1  0
 36 37  1  0
 36 38  2  0
 38 39  1  0
 38  2  1  0
 34  7  1  0
 28 11  1  0
M  END
>  <plip>  (1) 
-0.14285714285714285

>  <filename>  (1) 
[H][c]1[n][c]([H])[c]([N]2[C](=[O])[N]([N]3[C]([H])([H])[C]([H])([H])[N]([C](=[O])[C]([H])([H])[H])[C]([H])([H])[C]3([H])[H])[C]([H])([H])[C]2=[O])[c]([H])[c]1[H]

$$$$
