
     RDKit          3D

 37 40  0  0  0  0  0  0  0  0999 V2000
    4.8807    1.7087   17.1947 H   0  0  0  0  0  0  0  0  0  0  0  0
    5.4171    1.3031   18.0514 C   0  0  0  0  0  0  0  0  0  0  0  0
    6.6516    0.8337   17.8225 N   0  0  0  0  0  0  0  0  0  0  0  0
    7.3328    0.3543   18.8719 C   0  0  0  0  0  0  0  0  0  0  0  0
    8.3429    0.0246   18.6371 H   0  0  0  0  0  0  0  0  0  0  0  0
    6.8290    0.2704   20.1949 C   0  0  0  0  0  0  0  0  0  0  0  0
    7.6407   -0.3178   21.3285 C   0  0  0  0  0  0  0  0  0  0  0  0
    6.9745   -0.4712   22.6792 C   0  0  0  0  0  0  0  0  0  0  0  0
    6.6759    0.5341   23.4593 N   0  0  0  0  0  0  0  0  0  0  0  0
    6.0660    0.1530   24.6154 N   0  0  0  0  0  0  0  0  0  0  0  0
    5.9269   -1.1415   24.7045 C   0  0  0  0  0  0  0  0  0  0  0  0
    5.2439   -1.8969   25.8206 C   0  0  0  0  0  0  0  0  0  0  0  0
    5.1361   -3.1112   25.7699 O   0  0  0  0  0  0  0  0  0  0  0  0
    4.7938   -1.1086   26.8323 N   0  0  0  0  0  0  0  0  0  0  0  0
    4.9416   -0.1193   26.7063 H   0  0  0  0  0  0  0  0  0  0  0  0
    4.0192   -1.4884   27.9433 C   0  0  0  0  0  0  0  0  0  0  0  0
    3.3457   -0.4711   28.6277 C   0  0  0  0  0  0  0  0  0  0  0  0
    3.3835    0.5436   28.2420 H   0  0  0  0  0  0  0  0  0  0  0  0
    2.6182   -0.7520   29.7863 C   0  0  0  0  0  0  0  0  0  0  0  0
    2.1033    0.0325   30.3342 H   0  0  0  0  0  0  0  0  0  0  0  0
    2.5730   -2.0709   30.2526 C   0  0  0  0  0  0  0  0  0  0  0  0
    1.7334   -2.4270   31.7330 Cl  0  0  0  0  0  0  0  0  0  0  0  0
    3.2012   -3.1036   29.5501 C   0  0  0  0  0  0  0  0  0  0  0  0
    3.1355   -4.1277   29.9154 H   0  0  0  0  0  0  0  0  0  0  0  0
    3.9207   -2.8167   28.3848 C   0  0  0  0  0  0  0  0  0  0  0  0
    4.3964   -3.6003   27.8082 H   0  0  0  0  0  0  0  0  0  0  0  0
    6.5622   -2.0113   23.3681 S   0  0  0  0  0  0  0  0  0  0  0  0
    9.1356   -0.0171   21.4018 C   0  0  0  0  0  0  0  0  0  0  0  0
    9.5579    0.1208   22.3971 H   0  0  0  0  0  0  0  0  0  0  0  0
    9.5708    0.6249   20.6405 H   0  0  0  0  0  0  0  0  0  0  0  0
    8.6851   -1.3746   20.9962 C   0  0  0  0  0  0  0  0  0  0  0  0
    8.8297   -2.1806   21.7115 H   0  0  0  0  0  0  0  0  0  0  0  0
    8.8050   -1.6780   19.9578 H   0  0  0  0  0  0  0  0  0  0  0  0
    5.5344    0.7723   20.3970 C   0  0  0  0  0  0  0  0  0  0  0  0
    5.1039    0.7761   21.4006 H   0  0  0  0  0  0  0  0  0  0  0  0
    4.8251    1.2931   19.3161 C   0  0  0  0  0  0  0  0  0  0  0  0
    3.8336    1.7058   19.4496 H   0  0  0  0  0  0  0  0  0  0  0  0
  1  2  1  0
  2  3  2  0
  3  4  1  0
  4  5  1  0
  4  6  2  0
  6  7  1  0
  7  8  1  0
  8  9  2  0
  9 10  1  0
 10 11  2  0
 11 12  1  0
 12 13  2  0
 12 14  1  0
 14 15  1  0
 14 16  1  0
 16 17  2  0
 17 18  1  0
 17 19  1  0
 19 20  1  0
 19 21  2  0
 21 22  1  0
 21 23  1  0
 23 24  1  0
 23 25  2  0
 25 26  1  0
 11 27  1  0
  7 28  1  0
 28 29  1  0
 28 30  1  0
 28 31  1  0
 31 32  1  0
 31 33  1  0
  6 34  1  0
 34 35  1  0
 34 36  2  0
 36 37  1  0
 36  2  1  0
 31  7  1  0
 27  8  1  0
 25 16  1  0
M  END
>  <plip>  (1) 
-0.03571428571428571

>  <filename>  (1) 
[H][c]1[n][c]([H])[c]([C]2([c]3[n][n][c]([C](=[O])[N]([H])[c]4[c]([H])[c]([H])[c]([Cl])[c]([H])[c]4[H])[s]3)[C]([H])([H])[C]2([H])[H])[c]([H])[c]1[H]

$$$$
