
     RDKit          3D

 29 30  0  0  0  0  0  0  0  0999 V2000
    5.0741    1.8227   16.9930 H   0  0  0  0  0  0  0  0  0  0  0  0
    5.4841    1.2864   17.8452 C   0  0  0  0  0  0  0  0  0  0  0  0
    6.6243    0.6146   17.6132 N   0  0  0  0  0  0  0  0  0  0  0  0
    7.1554   -0.0458   18.6466 C   0  0  0  0  0  0  0  0  0  0  0  0
    8.0709   -0.6085   18.4529 H   0  0  0  0  0  0  0  0  0  0  0  0
    6.5970   -0.0662   19.9282 C   0  0  0  0  0  0  0  0  0  0  0  0
    7.2475   -0.8272   20.9973 C   0  0  0  0  0  0  0  0  0  0  0  0
    6.4811   -1.6959   21.7292 N   0  0  0  0  0  0  0  0  0  0  0  0
    7.1154   -2.3579   22.6082 N   0  0  0  0  0  0  0  0  0  0  0  0
    8.7577   -1.9467   22.6146 S   0  0  0  0  0  0  0  0  0  0  0  0
    8.5767   -0.7930   21.3669 C   0  0  0  0  0  0  0  0  0  0  0  0
    9.6325    0.1935   20.9522 C   0  0  0  0  0  0  0  0  0  0  0  0
   10.6309   -0.1765   21.2063 H   0  0  0  0  0  0  0  0  0  0  0  0
    9.5952    0.3317   19.8656 H   0  0  0  0  0  0  0  0  0  0  0  0
    9.4547    1.5854   21.5915 C   0  0  0  0  0  0  0  0  0  0  0  0
    9.5354    1.5084   22.6805 H   0  0  0  0  0  0  0  0  0  0  0  0
    8.4526    1.9719   21.3529 H   0  0  0  0  0  0  0  0  0  0  0  0
   10.4685    2.5134   21.1229 N   0  0  0  0  0  0  0  0  0  0  0  0
   10.2326    3.1883   20.4198 H   0  0  0  0  0  0  0  0  0  0  0  0
   11.6298    2.7962   21.7858 C   0  0  0  0  0  0  0  0  0  0  0  0
   11.9891    2.1683   22.7634 O   0  0  0  0  0  0  0  0  0  0  0  0
   12.4035    3.9542   21.1887 C   0  0  0  0  0  0  0  0  0  0  0  0
   12.3160    3.9829   20.1031 H   0  0  0  0  0  0  0  0  0  0  0  0
   12.0025    4.9039   21.5485 H   0  0  0  0  0  0  0  0  0  0  0  0
   13.4561    3.8968   21.4610 H   0  0  0  0  0  0  0  0  0  0  0  0
    5.3837    0.5994   20.1488 C   0  0  0  0  0  0  0  0  0  0  0  0
    4.9140    0.5461   21.1320 H   0  0  0  0  0  0  0  0  0  0  0  0
    4.8281    1.3058   19.0811 C   0  0  0  0  0  0  0  0  0  0  0  0
    3.9068    1.8673   19.1987 H   0  0  0  0  0  0  0  0  0  0  0  0
  1  2  1  0
  2  3  2  0
  3  4  1  0
  4  5  1  0
  4  6  2  0
  6  7  1  0
  7  8  1  0
  8  9  2  0
  9 10  1  0
 10 11  1  0
 11 12  1  0
 12 13  1  0
 12 14  1  0
 12 15  1  0
 15 16  1  0
 15 17  1  0
 15 18  1  0
 18 19  1  0
 18 20  1  0
 20 21  2  0
 20 22  1  0
 22 23  1  0
 22 24  1  0
 22 25  1  0
  6 26  1  0
 26 27  1  0
 26 28  2  0
 28 29  1  0
 28  2  1  0
 11  7  2  0
M  END
>  <plip>  (1) 
-0.13793103448275862

>  <filename>  (1) 
[H][c]1[n][c]([H])[c](-[c]2[n][n][s][c]2[C]([H])([H])[C]([H])([H])[N]([H])[C](=[O])[C]([H])([H])[H])[c]([H])[c]1[H]

$$$$
