
     RDKit          3D

 36 37  0  0  0  0  0  0  0  0999 V2000
    5.7428    1.3679   25.9097 H   0  0  0  0  0  0  0  0  0  0  0  0
    6.2174    0.6732   26.3997 O   0  0  0  0  0  0  0  0  0  0  0  0
    6.3721   -0.1801   25.3798 C   0  0  0  0  0  0  0  0  0  0  0  0
    5.9325    0.1397   24.2949 O   0  0  0  0  0  0  0  0  0  0  0  0
    7.0986   -1.4149   25.7186 C   0  0  0  0  0  0  0  0  0  0  0  0
    7.2130   -2.6174   25.0307 C   0  0  0  0  0  0  0  0  0  0  0  0
    6.5290   -3.0048   23.7358 C   0  0  0  0  0  0  0  0  0  0  0  0
    5.5122   -2.5979   23.7025 H   0  0  0  0  0  0  0  0  0  0  0  0
    6.4601   -4.0963   23.6606 H   0  0  0  0  0  0  0  0  0  0  0  0
    7.3035   -2.5611   22.5039 C   0  0  0  0  0  0  0  0  0  0  0  0
    8.2826   -3.1662   22.1012 O   0  0  0  0  0  0  0  0  0  0  0  0
    6.7769   -1.4213   21.9225 N   0  0  0  0  0  0  0  0  0  0  0  0
    6.2639   -0.8422   22.5864 H   0  0  0  0  0  0  0  0  0  0  0  0
    7.4078   -0.7575   20.8850 N   0  0  0  0  0  0  0  0  0  0  0  0
    6.6466   -0.0971   19.8935 C   0  0  0  0  0  0  0  0  0  0  0  0
    7.1321   -0.0422   18.5647 C   0  0  0  0  0  0  0  0  0  0  0  0
    8.0537   -0.5647   18.3186 H   0  0  0  0  0  0  0  0  0  0  0  0
    6.5433    0.6093   17.5526 N   0  0  0  0  0  0  0  0  0  0  0  0
    5.4052    1.2676   17.8242 C   0  0  0  0  0  0  0  0  0  0  0  0
    4.9412    1.7977   16.9929 H   0  0  0  0  0  0  0  0  0  0  0  0
    4.8221    1.2750   19.0981 C   0  0  0  0  0  0  0  0  0  0  0  0
    3.9022    1.8281   19.2611 H   0  0  0  0  0  0  0  0  0  0  0  0
    5.4418    0.5888   20.1501 C   0  0  0  0  0  0  0  0  0  0  0  0
    5.0183    0.5926   21.1568 H   0  0  0  0  0  0  0  0  0  0  0  0
    8.8092   -0.4144   21.1251 C   0  0  0  0  0  0  0  0  0  0  0  0
    9.4777   -1.2078   20.7744 H   0  0  0  0  0  0  0  0  0  0  0  0
    8.9639   -0.2951   22.2036 H   0  0  0  0  0  0  0  0  0  0  0  0
    9.0533    0.5316   20.6394 H   0  0  0  0  0  0  0  0  0  0  0  0
    8.1229   -3.3810   25.8142 C   0  0  0  0  0  0  0  0  0  0  0  0
    8.6944   -4.7312   25.5128 C   0  0  0  0  0  0  0  0  0  0  0  0
    7.9075   -5.4931   25.5355 H   0  0  0  0  0  0  0  0  0  0  0  0
    9.4718   -5.0046   26.2354 H   0  0  0  0  0  0  0  0  0  0  0  0
    9.1238   -4.7328   24.5040 H   0  0  0  0  0  0  0  0  0  0  0  0
    8.4685   -2.7225   26.9107 N   0  0  0  0  0  0  0  0  0  0  0  0
    7.8491   -1.5479   26.8475 N   0  0  0  0  0  0  0  0  0  0  0  0
    7.9809   -0.8953   27.6115 H   0  0  0  0  0  0  0  0  0  0  0  0
  1  2  1  0
  2  3  1  0
  3  4  2  0
  3  5  1  0
  5  6  2  0
  6  7  1  0
  7  8  1  0
  7  9  1  0
  7 10  1  0
 10 11  2  0
 10 12  1  0
 12 13  1  0
 12 14  1  0
 14 15  1  0
 15 16  2  0
 16 17  1  0
 16 18  1  0
 18 19  2  0
 19 20  1  0
 19 21  1  0
 21 22  1  0
 21 23  2  0
 23 24  1  0
 14 25  1  0
 25 26  1  0
 25 27  1  0
 25 28  1  0
  6 29  1  0
 29 30  1  0
 30 31  1  0
 30 32  1  0
 30 33  1  0
 29 34  2  0
 34 35  1  0
 35 36  1  0
 35  5  1  0
 23 15  1  0
M  END
>  <plip>  (1) 
-0.10344827586206896

>  <filename>  (1) 
[H][O][C](=[O])[c]1[c]([C]([H])([H])[C](=[O])[N]([H])[N]([c]2[c]([H])[n][c]([H])[c]([H])[c]2[H])[C]([H])([H])[H])[c]([C]([H])([H])[H])[n][n]1[H]

$$$$
