
     RDKit          3D

 33 34  0  0  0  0  0  0  0  0999 V2000
    8.0675    1.1305   22.5363 O   0  0  0  0  0  0  0  0  0  0  0  0
    8.4308    0.3713   21.6743 C   0  0  0  0  0  0  0  0  0  0  0  0
    9.6565    0.3671   21.1170 O   0  0  0  0  0  0  0  0  0  0  0  0
   10.6858    1.2063   21.6958 C   0  0  0  0  0  0  0  0  0  0  0  0
   11.4719    0.4845   22.7942 C   0  0  0  0  0  0  0  0  0  0  0  0
   10.6224    0.1582   24.0001 C   0  0  0  0  0  0  0  0  0  0  0  0
   10.3328    1.1767   24.9228 C   0  0  0  0  0  0  0  0  0  0  0  0
    9.4940    0.9561   26.0113 C   0  0  0  0  0  0  0  0  0  0  0  0
    8.9188   -0.3026   26.2019 C   0  0  0  0  0  0  0  0  0  0  0  0
    9.1701   -1.3323   25.2939 C   0  0  0  0  0  0  0  0  0  0  0  0
   10.0166   -1.0963   24.2061 C   0  0  0  0  0  0  0  0  0  0  0  0
   10.2794   -2.4040   23.0842 Cl  0  0  0  0  0  0  0  0  0  0  0  0
    8.7261   -2.3162   25.4187 H   0  0  0  0  0  0  0  0  0  0  0  0
    8.2722   -0.4827   27.0551 H   0  0  0  0  0  0  0  0  0  0  0  0
    9.2791    1.7642   26.7034 H   0  0  0  0  0  0  0  0  0  0  0  0
   10.7647    2.1623   24.7621 H   0  0  0  0  0  0  0  0  0  0  0  0
   12.3001    1.1361   23.1025 H   0  0  0  0  0  0  0  0  0  0  0  0
   11.9185   -0.4225   22.3760 H   0  0  0  0  0  0  0  0  0  0  0  0
   11.3499    1.4359   20.8628 H   0  0  0  0  0  0  0  0  0  0  0  0
   10.2432    2.1389   22.0625 H   0  0  0  0  0  0  0  0  0  0  0  0
    7.4493   -0.6616   20.9821 C   0  0  0  0  0  0  0  0  0  0  0  0
    8.1116   -1.7520   20.4987 F   0  0  0  0  0  0  0  0  0  0  0  0
    6.6008   -1.1416   21.9375 F   0  0  0  0  0  0  0  0  0  0  0  0
    6.6420   -0.0104   19.8808 C   0  0  0  0  0  0  0  0  0  0  0  0
    5.4363    0.6460   20.1608 C   0  0  0  0  0  0  0  0  0  0  0  0
    4.8079    1.3114   19.1069 C   0  0  0  0  0  0  0  0  0  0  0  0
    5.4039    1.2925   17.8412 C   0  0  0  0  0  0  0  0  0  0  0  0
    6.5646    0.6761   17.5744 N   0  0  0  0  0  0  0  0  0  0  0  0
    7.1648    0.0404   18.5860 C   0  0  0  0  0  0  0  0  0  0  0  0
    8.1193   -0.4329   18.3709 H   0  0  0  0  0  0  0  0  0  0  0  0
    4.9232    1.7817   16.9975 H   0  0  0  0  0  0  0  0  0  0  0  0
    3.8767    1.8447   19.2566 H   0  0  0  0  0  0  0  0  0  0  0  0
    5.0106    0.6343   21.1672 H   0  0  0  0  0  0  0  0  0  0  0  0
  1  2  2  0
  2  3  1  0
  3  4  1  0
  4  5  1  0
  5  6  1  0
  6  7  2  0
  7  8  1  0
  8  9  2  0
  9 10  1  0
 10 11  2  0
 11 12  1  0
 10 13  1  0
  9 14  1  0
  8 15  1  0
  7 16  1  0
  5 17  1  0
  5 18  1  0
  4 19  1  0
  4 20  1  0
  2 21  1  0
 21 22  1  0
 21 23  1  0
 21 24  1  0
 24 25  2  0
 25 26  1  0
 26 27  2  0
 27 28  1  0
 28 29  2  0
 29 30  1  0
 27 31  1  0
 26 32  1  0
 25 33  1  0
 11  6  1  0
 29 24  1  0
M  END
>  <plip>  (1) 
-0.06896551724137931

>  <filename>  (1) 
[H][c]1[n][c]([H])[c]([C]([F])([F])[C](=[O])[O][C]([H])([H])[C]([H])([H])[c]2[c]([H])[c]([H])[c]([H])[c]([H])[c]2[Cl])[c]([H])[c]1[H]

$$$$
