
     RDKit          3D

 39 41  0  0  0  0  0  0  0  0999 V2000
   12.9422   -2.0403   22.0490 N   0  0  0  0  0  0  0  0  0  0  0  0
   11.9165   -1.5471   22.2535 C   0  0  0  0  0  0  0  0  0  0  0  0
   10.6294   -0.8807   22.4657 C   0  0  0  0  0  0  0  0  0  0  0  0
    9.9281   -0.6164   21.1283 C   0  0  0  0  0  0  0  0  0  0  0  0
    8.6352    0.0339   21.3108 N   0  0  0  0  0  0  0  0  0  0  0  0
    7.4073   -0.6884   20.9952 C   0  0  0  0  0  0  0  0  0  0  0  0
    6.6254   -0.0055   19.9005 C   0  0  0  0  0  0  0  0  0  0  0  0
    5.4144    0.6462   20.1522 C   0  0  0  0  0  0  0  0  0  0  0  0
    4.7898    1.3134   19.0948 C   0  0  0  0  0  0  0  0  0  0  0  0
    5.3922    1.2962   17.8328 C   0  0  0  0  0  0  0  0  0  0  0  0
    6.5543    0.6791   17.5767 N   0  0  0  0  0  0  0  0  0  0  0  0
    7.1537    0.0630   18.6011 C   0  0  0  0  0  0  0  0  0  0  0  0
    8.1078   -0.4088   18.3619 H   0  0  0  0  0  0  0  0  0  0  0  0
    4.9272    1.7936   16.9840 H   0  0  0  0  0  0  0  0  0  0  0  0
    3.8630    1.8534   19.2351 H   0  0  0  0  0  0  0  0  0  0  0  0
    5.0036    0.6454   21.1656 H   0  0  0  0  0  0  0  0  0  0  0  0
    7.7019   -1.7006   20.6914 H   0  0  0  0  0  0  0  0  0  0  0  0
    6.8028   -0.7761   21.9041 H   0  0  0  0  0  0  0  0  0  0  0  0
    8.6285    1.3728   21.6717 C   0  0  0  0  0  0  0  0  0  0  0  0
    9.5419    2.1176   21.3490 O   0  0  0  0  0  0  0  0  0  0  0  0
    7.4662    1.9038   22.5276 C   0  0  0  0  0  0  0  0  0  0  0  0
    7.1672    3.3122   22.4487 C   0  0  0  0  0  0  0  0  0  0  0  0
    6.2164    3.8870   23.1627 N   0  0  0  0  0  0  0  0  0  0  0  0
    5.5051    3.0720   24.0242 C   0  0  0  0  0  0  0  0  0  0  0  0
    4.4413    3.5910   24.8140 C   0  0  0  0  0  0  0  0  0  0  0  0
    3.7423    2.7517   25.6634 C   0  0  0  0  0  0  0  0  0  0  0  0
    4.0663    1.3703   25.7647 C   0  0  0  0  0  0  0  0  0  0  0  0
    5.0894    0.8404   25.0106 C   0  0  0  0  0  0  0  0  0  0  0  0
    5.8178    1.6768   24.1282 C   0  0  0  0  0  0  0  0  0  0  0  0
    6.7900    1.1079   23.3531 N   0  0  0  0  0  0  0  0  0  0  0  0
    5.3886   -0.2033   25.0243 H   0  0  0  0  0  0  0  0  0  0  0  0
    3.5065    0.7275   26.4416 H   0  0  0  0  0  0  0  0  0  0  0  0
    2.9310    3.1398   26.2757 H   0  0  0  0  0  0  0  0  0  0  0  0
    4.2199    4.6501   24.7093 H   0  0  0  0  0  0  0  0  0  0  0  0
    7.7304    3.9688   21.7899 H   0  0  0  0  0  0  0  0  0  0  0  0
   10.5617    0.0436   20.5482 H   0  0  0  0  0  0  0  0  0  0  0  0
    9.7732   -1.5568   20.5817 H   0  0  0  0  0  0  0  0  0  0  0  0
    9.9963   -1.4934   23.1137 H   0  0  0  0  0  0  0  0  0  0  0  0
   10.8240    0.0715   22.9711 H   0  0  0  0  0  0  0  0  0  0  0  0
  1  2  3  0
  2  3  1  0
  3  4  1  0
  4  5  1  0
  5  6  1  0
  6  7  1  0
  7  8  2  0
  8  9  1  0
  9 10  2  0
 10 11  1  0
 11 12  2  0
 12 13  1  0
 10 14  1  0
  9 15  1  0
  8 16  1  0
  6 17  1  0
  6 18  1  0
  5 19  1  0
 19 20  2  0
 19 21  1  0
 21 22  2  0
 22 23  1  0
 23 24  2  0
 24 25  1  0
 25 26  2  0
 26 27  1  0
 27 28  2  0
 28 29  1  0
 29 30  2  0
 28 31  1  0
 27 32  1  0
 26 33  1  0
 25 34  1  0
 22 35  1  0
  4 36  1  0
  4 37  1  0
  3 38  1  0
  3 39  1  0
 12  7  1  0
 30 21  1  0
 29 24  1  0
M  END
>  <plip>  (1) 
-0.03571428571428571

>  <filename>  (1) 
[H][c]1[n][c]2[c]([H])[c]([H])[c]([H])[c]([H])[c]2[n][c]1[C](=[O])[N]([C]([H])([H])[c]1[c]([H])[n][c]([H])[c]([H])[c]1[H])[C]([H])([H])[C]([H])([H])[C]#[N]

$$$$
