
     RDKit          3D

 43 45  0  0  0  0  0  0  0  0999 V2000
    4.9436    1.8070   16.9380 H   0  0  0  0  0  0  0  0  0  0  0  0
    5.3949    1.3261   17.8055 C   0  0  0  0  0  0  0  0  0  0  0  0
    6.5684    0.7102   17.6067 N   0  0  0  0  0  0  0  0  0  0  0  0
    7.1444    0.1276   18.6693 C   0  0  0  0  0  0  0  0  0  0  0  0
    8.0833   -0.3858   18.4575 H   0  0  0  0  0  0  0  0  0  0  0  0
    6.6148    0.1184   19.9746 C   0  0  0  0  0  0  0  0  0  0  0  0
    7.3093   -0.6196   21.1239 C   0  0  1  0  0  0  0  0  0  0  0  0
    6.8624   -0.2734   22.0676 H   0  0  0  0  0  0  0  0  0  0  0  0
    6.9989   -2.1373   21.0235 C   0  0  0  0  0  0  0  0  0  0  0  0
    7.1708   -2.4421   19.9871 H   0  0  0  0  0  0  0  0  0  0  0  0
    5.9260   -2.2733   21.2017 H   0  0  0  0  0  0  0  0  0  0  0  0
    7.7484   -3.0288   21.9147 N   0  0  0  0  0  0  0  0  0  0  0  0
    7.3851   -2.9379   22.8622 H   0  0  0  0  0  0  0  0  0  0  0  0
    9.1868   -2.7442   21.9431 C   0  0  0  0  0  0  0  0  0  0  0  0
    9.6629   -3.4177   22.6689 H   0  0  0  0  0  0  0  0  0  0  0  0
    9.6130   -2.9827   20.9570 H   0  0  0  0  0  0  0  0  0  0  0  0
    9.4931   -1.2828   22.2662 C   0  0  0  0  0  0  0  0  0  0  0  0
    9.1085   -1.0602   23.2691 H   0  0  0  0  0  0  0  0  0  0  0  0
   10.5757   -1.1210   22.3058 H   0  0  0  0  0  0  0  0  0  0  0  0
    8.8454   -0.3530   21.2139 C   0  0  2  0  0  0  0  0  0  0  0  0
    9.3012   -0.6301   20.2487 H   0  0  0  0  0  0  0  0  0  0  0  0
    9.1711    1.1506   21.4328 C   0  0  0  0  0  0  0  0  0  0  0  0
   10.2576    1.2906   21.3766 H   0  0  0  0  0  0  0  0  0  0  0  0
    8.7391    1.7238   20.6029 H   0  0  0  0  0  0  0  0  0  0  0  0
    8.6546    1.7220   22.7402 C   0  0  0  0  0  0  0  0  0  0  0  0
    7.3698    2.2801   22.8330 C   0  0  0  0  0  0  0  0  0  0  0  0
    6.7640    2.3632   21.9313 H   0  0  0  0  0  0  0  0  0  0  0  0
    6.8302    2.6957   24.0579 C   0  0  0  0  0  0  0  0  0  0  0  0
    5.8189    3.0898   24.1034 H   0  0  0  0  0  0  0  0  0  0  0  0
    7.5946    2.5822   25.2178 C   0  0  0  0  0  0  0  0  0  0  0  0
    7.1934    2.9053   26.1756 H   0  0  0  0  0  0  0  0  0  0  0  0
    8.8891    2.0567   25.1560 C   0  0  0  0  0  0  0  0  0  0  0  0
    9.4825    1.9652   26.0584 H   0  0  0  0  0  0  0  0  0  0  0  0
    9.4183    1.6282   23.9271 C   0  0  0  0  0  0  0  0  0  0  0  0
   10.6658    1.0813   23.7902 O   0  0  0  0  0  0  0  0  0  0  0  0
   11.4992    0.9734   24.9228 C   0  0  0  0  0  0  0  0  0  0  0  0
   12.4310    0.5196   24.5799 H   0  0  0  0  0  0  0  0  0  0  0  0
   11.7064    1.9669   25.3375 H   0  0  0  0  0  0  0  0  0  0  0  0
   11.0411    0.3382   25.6932 H   0  0  0  0  0  0  0  0  0  0  0  0
    5.3711    0.7481   20.1450 C   0  0  0  0  0  0  0  0  0  0  0  0
    4.8898    0.7571   21.1261 H   0  0  0  0  0  0  0  0  0  0  0  0
    4.7532    1.3587   19.0479 C   0  0  0  0  0  0  0  0  0  0  0  0
    3.7989    1.8605   19.1440 H   0  0  0  0  0  0  0  0  0  0  0  0
  1  2  1  0
  2  3  2  0
  3  4  1  0
  4  5  1  0
  4  6  2  0
  6  7  1  0
  7  8  1  1
  7  9  1  0
  9 10  1  0
  9 11  1  0
  9 12  1  0
 12 13  1  0
 12 14  1  0
 14 15  1  0
 14 16  1  0
 14 17  1  0
 17 18  1  0
 17 19  1  0
 17 20  1  0
 20 21  1  6
 20 22  1  0
 22 23  1  0
 22 24  1  0
 22 25  1  0
 25 26  2  0
 26 27  1  0
 26 28  1  0
 28 29  1  0
 28 30  2  0
 30 31  1  0
 30 32  1  0
 32 33  1  0
 32 34  2  0
 34 35  1  0
 35 36  1  0
 36 37  1  0
 36 38  1  0
 36 39  1  0
  6 40  1  0
 40 41  1  0
 40 42  2  0
 42 43  1  0
 42  2  1  0
 20  7  1  0
 34 25  1  0
M  END
>  <plip>  (1) 
-0.06896551724137931

>  <filename>  (1) 
[H][c]1[n][c]([H])[c]([C@@]2([H])[C]([H])([H])[N]([H])[C]([H])([H])[C]([H])([H])[C@]2([H])[C]([H])([H])[c]2[c]([H])[c]([H])[c]([H])[c]([H])[c]2[O][C]([H])([H])[H])[c]([H])[c]1[H]

$$$$
