
     RDKit          3D

 31 32  0  0  0  0  0  0  0  0999 V2000
    4.9723    1.7871   17.0481 H   0  0  0  0  0  0  0  0  0  0  0  0
    5.4171    1.2640   17.8917 C   0  0  0  0  0  0  0  0  0  0  0  0
    6.5664    0.6179   17.6447 N   0  0  0  0  0  0  0  0  0  0  0  0
    7.1393   -0.0090   18.6777 C   0  0  0  0  0  0  0  0  0  0  0  0
    8.0780   -0.5183   18.4765 H   0  0  0  0  0  0  0  0  0  0  0  0
    6.6213   -0.0604   19.9898 C   0  0  0  0  0  0  0  0  0  0  0  0
    7.3166   -0.7393   20.9916 N   0  0  0  0  0  0  0  0  0  0  0  0
    6.5819   -1.3650   21.9875 N   0  0  0  0  0  0  0  0  0  0  0  0
    6.1515   -2.2634   21.7834 H   0  0  0  0  0  0  0  0  0  0  0  0
    6.8638   -1.2306   23.3215 C   0  0  0  0  0  0  0  0  0  0  0  0
    7.6700   -0.4600   23.8081 O   0  0  0  0  0  0  0  0  0  0  0  0
    6.1335   -2.0806   24.1596 N   0  0  0  0  0  0  0  0  0  0  0  0
    5.7198   -3.3281   23.7873 C   0  0  0  0  0  0  0  0  0  0  0  0
    5.7011   -3.7521   22.6430 O   0  0  0  0  0  0  0  0  0  0  0  0
    5.3385   -4.1002   25.0237 C   0  0  0  0  0  0  0  0  0  0  0  0
    6.0327   -4.9429   25.1159 H   0  0  0  0  0  0  0  0  0  0  0  0
    4.3342   -4.5086   24.8888 H   0  0  0  0  0  0  0  0  0  0  0  0
    5.4438   -3.0926   26.1838 C   0  0  0  0  0  0  0  0  0  0  0  0
    5.9708   -3.4974   27.0509 H   0  0  0  0  0  0  0  0  0  0  0  0
    4.4519   -2.7887   26.5291 H   0  0  0  0  0  0  0  0  0  0  0  0
    6.1980   -1.8805   25.6118 C   0  0  0  0  0  0  0  0  0  0  0  0
    5.7335   -0.9277   25.8888 H   0  0  0  0  0  0  0  0  0  0  0  0
    7.2429   -1.8339   25.9452 H   0  0  0  0  0  0  0  0  0  0  0  0
    8.7636   -0.8973   20.9583 C   0  0  0  0  0  0  0  0  0  0  0  0
    9.2039    0.0236   20.5701 H   0  0  0  0  0  0  0  0  0  0  0  0
    9.0734   -1.7339   20.3182 H   0  0  0  0  0  0  0  0  0  0  0  0
    9.1310   -1.0438   21.9760 H   0  0  0  0  0  0  0  0  0  0  0  0
    5.4016    0.6131   20.2236 C   0  0  0  0  0  0  0  0  0  0  0  0
    4.9594    0.6009   21.2208 H   0  0  0  0  0  0  0  0  0  0  0  0
    4.8030    1.2814   19.1526 C   0  0  0  0  0  0  0  0  0  0  0  0
    3.8752    1.8315   19.2831 H   0  0  0  0  0  0  0  0  0  0  0  0
  1  2  1  0
  2  3  2  0
  3  4  1  0
  4  5  1  0
  4  6  2  0
  6  7  1  0
  7  8  1  0
  8  9  1  0
  8 10  1  0
 10 11  2  0
 10 12  1  0
 12 13  1  0
 13 14  2  0
 13 15  1  0
 15 16  1  0
 15 17  1  0
 15 18  1  0
 18 19  1  0
 18 20  1  0
 18 21  1  0
 21 22  1  0
 21 23  1  0
  7 24  1  0
 24 25  1  0
 24 26  1  0
 24 27  1  0
  6 28  1  0
 28 29  1  0
 28 30  2  0
 30 31  1  0
 30  2  1  0
 21 12  1  0
M  END
>  <plip>  (1) 
-0.03571428571428571

>  <filename>  (1) 
[H][c]1[n][c]([H])[c]([N]([N]([H])[C](=[O])[N]2[C](=[O])[C]([H])([H])[C]([H])([H])[C]2([H])[H])[C]([H])([H])[H])[c]([H])[c]1[H]

$$$$
