
     RDKit          3D

 55 58  0  0  0  0  0  0  0  0999 V2000
    7.1524    0.4896   23.0421 O   0  0  0  0  0  0  0  0  0  0  0  0
    7.8653    0.2228   22.0854 C   0  0  0  0  0  0  0  0  0  0  0  0
    9.1370    0.7027   21.9849 N   0  0  0  0  0  0  0  0  0  0  0  0
    9.7208    1.6707   22.9139 C   0  0  0  0  0  0  0  0  0  0  0  0
    8.9290    2.9810   22.9696 C   0  0  0  0  0  0  0  0  0  0  0  0
    8.0959    2.8984   24.2325 C   0  0  0  0  0  0  0  0  0  0  0  0
    7.1229    3.5654   24.4943 O   0  0  0  0  0  0  0  0  0  0  0  0
    8.6815    1.9485   25.0511 N   0  0  0  0  0  0  0  0  0  0  0  0
    8.1410    1.5512   26.3022 C   0  0  0  0  0  0  0  0  0  0  0  0
    7.8323    0.1978   26.5177 C   0  0  0  0  0  0  0  0  0  0  0  0
    7.4262   -0.2688   27.7679 C   0  0  0  0  0  0  0  0  0  0  0  0
    7.2747    0.6330   28.8217 C   0  0  0  0  0  0  0  0  0  0  0  0
    7.4962    1.9962   28.6104 C   0  0  0  0  0  0  0  0  0  0  0  0
    7.9188    2.4513   27.3604 C   0  0  0  0  0  0  0  0  0  0  0  0
    8.1059    3.7697   27.1895 F   0  0  0  0  0  0  0  0  0  0  0  0
    7.3333    2.7067   29.4098 H   0  0  0  0  0  0  0  0  0  0  0  0
    6.9504    0.2858   29.8002 H   0  0  0  0  0  0  0  0  0  0  0  0
    7.2507   -1.3330   27.8946 H   0  0  0  0  0  0  0  0  0  0  0  0
    7.8560   -0.4679   25.6606 H   0  0  0  0  0  0  0  0  0  0  0  0
    9.7246    1.1754   24.3856 C   0  0  0  0  0  0  0  0  0  0  0  0
    9.5021    0.1059   24.4234 H   0  0  0  0  0  0  0  0  0  0  0  0
   10.6959    1.3282   24.8700 H   0  0  0  0  0  0  0  0  0  0  0  0
    8.2818    3.1400   22.1053 H   0  0  0  0  0  0  0  0  0  0  0  0
    9.5850    3.8517   23.0621 H   0  0  0  0  0  0  0  0  0  0  0  0
   10.7495    1.8244   22.5719 H   0  0  0  0  0  0  0  0  0  0  0  0
    9.5853    0.5678   21.0969 H   0  0  0  0  0  0  0  0  0  0  0  0
    7.4506   -0.7375   20.9453 C   0  0  0  0  0  0  0  0  0  0  0  0
    6.7201    0.0114   19.8145 C   0  0  0  0  0  0  0  0  0  0  0  0
    5.5324    0.7092   20.0807 C   0  0  0  0  0  0  0  0  0  0  0  0
    4.8619    1.3431   19.0274 C   0  0  0  0  0  0  0  0  0  0  0  0
    5.4172    1.2821   17.7447 C   0  0  0  0  0  0  0  0  0  0  0  0
    6.5544    0.6280   17.4602 N   0  0  0  0  0  0  0  0  0  0  0  0
    7.1715    0.0062   18.4754 C   0  0  0  0  0  0  0  0  0  0  0  0
    8.0886   -0.5200   18.2043 H   0  0  0  0  0  0  0  0  0  0  0  0
    4.9314    1.7832   16.9075 H   0  0  0  0  0  0  0  0  0  0  0  0
    3.9335    1.8845   19.1861 H   0  0  0  0  0  0  0  0  0  0  0  0
    5.1571    0.7673   21.1061 H   0  0  0  0  0  0  0  0  0  0  0  0
    6.6442   -1.9166   21.5559 C   0  0  0  0  0  0  0  0  0  0  0  0
    6.1243   -2.8859   20.4685 C   0  0  0  0  0  0  0  0  0  0  0  0
    6.0010   -4.3503   20.9384 C   0  0  0  0  0  0  0  0  0  0  0  0
    5.4895   -4.3773   22.3898 C   0  0  0  0  0  0  0  0  0  0  0  0
    6.5407   -3.7560   23.3504 C   0  0  0  0  0  0  0  0  0  0  0  0
    7.4207   -2.6747   22.6625 C   0  0  0  0  0  0  0  0  0  0  0  0
    8.3113   -3.1534   22.2244 H   0  0  0  0  0  0  0  0  0  0  0  0
    7.7912   -1.9751   23.4231 H   0  0  0  0  0  0  0  0  0  0  0  0
    7.1976   -4.5410   23.7531 H   0  0  0  0  0  0  0  0  0  0  0  0
    6.0219   -3.3208   24.2161 H   0  0  0  0  0  0  0  0  0  0  0  0
    5.2317   -5.3943   22.7051 H   0  0  0  0  0  0  0  0  0  0  0  0
    4.5543   -3.7961   22.4484 H   0  0  0  0  0  0  0  0  0  0  0  0
    6.9869   -4.8398   20.8940 H   0  0  0  0  0  0  0  0  0  0  0  0
    5.3516   -4.9192   20.2645 H   0  0  0  0  0  0  0  0  0  0  0  0
    5.1608   -2.5202   20.1255 H   0  0  0  0  0  0  0  0  0  0  0  0
    6.7168   -2.7997   19.5636 H   0  0  0  0  0  0  0  0  0  0  0  0
    5.7735   -1.4680   22.0463 H   0  0  0  0  0  0  0  0  0  0  0  0
    8.3655   -1.1727   20.5205 H   0  0  0  0  0  0  0  0  0  0  0  0
  1  2  2  0
  2  3  1  0
  3  4  1  0
  4  5  1  0
  5  6  1  0
  6  7  2  0
  6  8  1  0
  8  9  1  0
  9 10  2  0
 10 11  1  0
 11 12  2  0
 12 13  1  0
 13 14  2  0
 14 15  1  0
 13 16  1  0
 12 17  1  0
 11 18  1  0
 10 19  1  0
  8 20  1  0
 20 21  1  0
 20 22  1  0
  5 23  1  0
  5 24  1  0
  4 25  1  0
  3 26  1  0
  2 27  1  0
 27 28  1  0
 28 29  2  0
 29 30  1  0
 30 31  2  0
 31 32  1  0
 32 33  2  0
 33 34  1  0
 31 35  1  0
 30 36  1  0
 29 37  1  0
 27 38  1  0
 38 39  1  0
 39 40  1  0
 40 41  1  0
 41 42  1  0
 42 43  1  0
 43 44  1  0
 43 45  1  0
 42 46  1  0
 42 47  1  0
 41 48  1  0
 41 49  1  0
 40 50  1  0
 40 51  1  0
 39 52  1  0
 39 53  1  0
 38 54  1  0
 27 55  1  0
 20  4  1  0
 33 28  1  0
 43 38  1  0
 14  9  1  0
M  END
>  <plip>  (1) 
-0.10714285714285714

>  <filename>  (1) 
[H][c]1[n][c]([H])[c]([C]([H])([C](=[O])[N]([H])[C]2([H])[C]([H])([H])[C](=[O])[N]([c]3[c]([H])[c]([H])[c]([H])[c]([H])[c]3[F])[C]2([H])[H])[C]2([H])[C]([H])([H])[C]([H])([H])[C]([H])([H])[C]([H])([H])[C]2([H])[H])[c]([H])[c]1[H]

$$$$
