
     RDKit          3D

 35 37  0  0  0  0  0  0  0  0999 V2000
    7.5022   -4.5598   23.5503 C   0  0  0  0  0  0  0  0  0  0  0  0
    6.6148   -3.4323   24.0886 C   0  0  0  0  0  0  0  0  0  0  0  0
    7.6178   -1.9095   24.4016 S   0  0  0  0  0  0  0  0  0  0  0  0
    7.9301   -1.4801   22.7366 C   0  0  0  0  0  0  0  0  0  0  0  0
    8.9026   -1.8236   21.9618 N   0  0  0  0  0  0  0  0  0  0  0  0
    8.6109   -1.2885   20.7151 N   0  0  0  0  0  0  0  0  0  0  0  0
    7.4809   -0.6682   20.8409 C   0  0  0  0  0  0  0  0  0  0  0  0
    6.6931    0.0313   19.8404 C   0  0  0  0  0  0  0  0  0  0  0  0
    5.4718    0.6691   20.1107 C   0  0  0  0  0  0  0  0  0  0  0  0
    4.8375    1.3169   19.0544 C   0  0  0  0  0  0  0  0  0  0  0  0
    5.4455    1.3032   17.7926 C   0  0  0  0  0  0  0  0  0  0  0  0
    6.5980    0.6706   17.5277 N   0  0  0  0  0  0  0  0  0  0  0  0
    7.1992    0.0449   18.5380 C   0  0  0  0  0  0  0  0  0  0  0  0
    8.1275   -0.4831   18.3223 H   0  0  0  0  0  0  0  0  0  0  0  0
    4.9860    1.8188   16.9550 H   0  0  0  0  0  0  0  0  0  0  0  0
    3.8960    1.8349   19.1932 H   0  0  0  0  0  0  0  0  0  0  0  0
    5.0371    0.6549   21.1100 H   0  0  0  0  0  0  0  0  0  0  0  0
    6.9948   -0.7377   22.0987 O   0  0  0  0  0  0  0  0  0  0  0  0
    5.8376   -3.6424   25.4055 C   0  0  0  0  0  0  0  0  0  0  0  0
    4.6968   -3.2202   25.4726 O   0  0  0  0  0  0  0  0  0  0  0  0
    6.4722   -4.3553   26.5635 C   0  0  0  0  0  0  0  0  0  0  0  0
    7.8490   -4.2771   26.8533 C   0  0  0  0  0  0  0  0  0  0  0  0
    8.3923   -5.0152   27.9042 C   0  0  0  0  0  0  0  0  0  0  0  0
    7.5727   -5.8117   28.7006 C   0  0  0  0  0  0  0  0  0  0  0  0
    6.2030   -5.8701   28.4470 C   0  0  0  0  0  0  0  0  0  0  0  0
    5.6538   -5.1420   27.3943 C   0  0  0  0  0  0  0  0  0  0  0  0
    4.5835   -5.1982   27.2144 H   0  0  0  0  0  0  0  0  0  0  0  0
    5.5713   -6.5038   29.0621 H   0  0  0  0  0  0  0  0  0  0  0  0
    7.9985   -6.3818   29.5138 H   0  0  0  0  0  0  0  0  0  0  0  0
    9.4607   -4.9942   28.0878 H   0  0  0  0  0  0  0  0  0  0  0  0
    8.5180   -3.6509   26.2731 H   0  0  0  0  0  0  0  0  0  0  0  0
    5.8201   -3.1929   23.3710 H   0  0  0  0  0  0  0  0  0  0  0  0
    7.9252   -4.2490   22.5897 H   0  0  0  0  0  0  0  0  0  0  0  0
    6.9428   -5.4904   23.4029 H   0  0  0  0  0  0  0  0  0  0  0  0
    8.3457   -4.7711   24.2165 H   0  0  0  0  0  0  0  0  0  0  0  0
  1  2  1  0
  2  3  1  0
  3  4  1  0
  4  5  2  0
  5  6  1  0
  6  7  2  0
  7  8  1  0
  8  9  2  0
  9 10  1  0
 10 11  2  0
 11 12  1  0
 12 13  2  0
 13 14  1  0
 11 15  1  0
 10 16  1  0
  9 17  1  0
  7 18  1  0
  2 19  1  0
 19 20  2  0
 19 21  1  0
 21 22  2  0
 22 23  1  0
 23 24  2  0
 24 25  1  0
 25 26  2  0
 26 27  1  0
 25 28  1  0
 24 29  1  0
 23 30  1  0
 22 31  1  0
  2 32  1  0
  1 33  1  0
  1 34  1  0
  1 35  1  0
 18  4  1  0
 26 21  1  0
 13  8  1  0
M  END
>  <plip>  (1) 
-0.03571428571428571

>  <filename>  (1) 
[H][c]1[n][c]([H])[c](-[c]2[n][n][c]([S][C]([H])([C](=[O])[c]3[c]([H])[c]([H])[c]([H])[c]([H])[c]3[H])[C]([H])([H])[H])[o]2)[c]([H])[c]1[H]

$$$$
