
     RDKit          3D

 23 24  0  0  0  0  0  0  0  0999 V2000
   11.9120   -0.2710   22.6385 H   0  0  0  0  0  0  0  0  0  0  0  0
   11.8374    0.1627   21.7027 N   0  0  0  0  0  0  0  0  0  0  0  0
   10.7421    0.0658   21.2190 N   0  0  0  0  0  4  0  0  0  0  0  0
    9.6710    0.0098   20.6698 N   0  0  0  0  0  0  0  0  0  0  0  0
    8.6481   -0.7620   21.2505 C   0  0  0  0  0  0  0  0  0  0  0  0
    7.3131   -0.7508   20.9635 C   0  0  0  0  0  0  0  0  0  0  0  0
    6.6305   -0.0138   19.9056 C   0  0  0  0  0  0  0  0  0  0  0  0
    7.1667    0.0456   18.5997 C   0  0  0  0  0  0  0  0  0  0  0  0
    8.1053   -0.4613   18.3649 H   0  0  0  0  0  0  0  0  0  0  0  0
    6.5782    0.6822   17.5855 N   0  0  0  0  0  0  0  0  0  0  0  0
    5.4252    1.3187   17.8219 C   0  0  0  0  0  0  0  0  0  0  0  0
    4.9835    1.8354   16.9693 H   0  0  0  0  0  0  0  0  0  0  0  0
    4.8051    1.3194   19.0714 C   0  0  0  0  0  0  0  0  0  0  0  0
    3.8811    1.8631   19.1942 H   0  0  0  0  0  0  0  0  0  0  0  0
    5.4026    0.6379   20.1251 C   0  0  0  0  0  0  0  0  0  0  0  0
    4.9448    0.6292   21.1155 H   0  0  0  0  0  0  0  0  0  0  0  0
    6.6062   -1.6011   21.9999 C   0  0  0  0  0  0  0  0  0  0  0  0
    5.8907   -2.3011   21.5484 H   0  0  0  0  0  0  0  0  0  0  0  0
    6.0643   -0.9564   22.7069 H   0  0  0  0  0  0  0  0  0  0  0  0
    7.7009   -2.2852   22.6706 N   0  0  0  0  0  0  0  0  0  0  0  0
    7.6527   -2.6769   23.6016 H   0  0  0  0  0  0  0  0  0  0  0  0
    8.8934   -1.6655   22.4107 C   0  0  0  0  0  0  0  0  0  0  0  0
    9.9020   -1.8369   23.0639 O   0  0  0  0  0  0  0  0  0  0  0  0
  1  2  1  0
  2  3  2  0
  3  4  2  0
  4  5  1  0
  5  6  2  0
  6  7  1  0
  7  8  2  0
  8  9  1  0
  8 10  1  0
 10 11  2  0
 11 12  1  0
 11 13  1  0
 13 14  1  0
 13 15  2  0
 15 16  1  0
  6 17  1  0
 17 18  1  0
 17 19  1  0
 17 20  1  0
 20 21  1  0
 20 22  1  0
 22 23  2  0
 22  5  1  0
 15  7  1  0
M  CHG  1   3   1
M  END
>  <plip>  (1) 
-0.06896551724137931

>  <filename>  (1) 
[H][N]=[N+]=[N][C]1=[C]([c]2[c]([H])[n][c]([H])[c]([H])[c]2[H])[C]([H])([H])[N]([H])[C]1=[O]

$$$$
