
     RDKit          3D

 40 41  0  0  0  0  0  0  0  0999 V2000
    5.0182   -3.3217   21.9790 C   0  0  0  0  0  0  0  0  0  0  0  0
    5.5856   -2.6930   20.9539 C   0  0  0  0  0  0  0  0  0  0  0  0
    6.9297   -2.0248   21.0153 C   0  0  0  0  0  0  0  0  0  0  0  0
    6.9891   -0.4955   21.2163 C   0  0  1  0  0  0  0  0  0  0  0  0
    8.4281   -0.1889   21.3303 N   0  0  0  0  0  0  0  0  0  0  0  0
    9.0652    0.3576   22.7493 S   0  0  0  0  0  0  0  0  0  0  0  0
    8.0111    0.9240   23.5684 O   0  0  0  0  0  0  0  0  0  0  0  0
   10.1766    1.1398   22.2484 O   0  0  0  0  0  0  0  0  0  0  0  0
    9.6688   -1.1384   23.4774 C   0  0  0  0  0  0  0  0  0  0  0  0
    9.6584   -0.9166   24.9363 C   0  0  0  0  0  0  0  0  0  0  0  0
   10.6325   -0.3314   25.5127 N   0  0  0  0  0  0  0  0  0  0  0  0
   10.3677   -0.1771   26.8545 O   0  0  0  0  0  0  0  0  0  0  0  0
    9.0775   -0.7507   27.1857 C   0  0  0  0  0  0  0  0  0  0  0  0
    8.2211    0.2668   27.9209 C   0  0  0  0  0  0  0  0  0  0  0  0
    8.6711    0.5546   28.8750 H   0  0  0  0  0  0  0  0  0  0  0  0
    7.2444   -0.1751   28.1382 H   0  0  0  0  0  0  0  0  0  0  0  0
    8.0722    1.1689   27.3178 H   0  0  0  0  0  0  0  0  0  0  0  0
    8.5055   -1.2340   25.8407 C   0  0  0  0  0  0  0  0  0  0  0  0
    7.6282   -0.6747   25.4981 H   0  0  0  0  0  0  0  0  0  0  0  0
    8.2451   -2.3004   25.8617 H   0  0  0  0  0  0  0  0  0  0  0  0
    9.2928   -1.5949   27.8486 H   0  0  0  0  0  0  0  0  0  0  0  0
    8.9861   -1.9359   23.1813 H   0  0  0  0  0  0  0  0  0  0  0  0
   10.6643   -1.3103   23.0631 H   0  0  0  0  0  0  0  0  0  0  0  0
    8.7512    0.6036   20.7800 H   0  0  0  0  0  0  0  0  0  0  0  0
    6.4494    0.2820   20.0415 C   0  0  0  0  0  0  0  0  0  0  0  0
    5.2054    0.9306   20.0584 C   0  0  0  0  0  0  0  0  0  0  0  0
    4.7483    1.5513   18.8932 C   0  0  0  0  0  0  0  0  0  0  0  0
    5.5407    1.4967   17.7443 C   0  0  0  0  0  0  0  0  0  0  0  0
    6.7273    0.8732   17.7013 N   0  0  0  0  0  0  0  0  0  0  0  0
    7.1652    0.3015   18.8294 C   0  0  0  0  0  0  0  0  0  0  0  0
    8.1425   -0.1770   18.7476 H   0  0  0  0  0  0  0  0  0  0  0  0
    5.2085    1.9731   16.8232 H   0  0  0  0  0  0  0  0  0  0  0  0
    3.7984    2.0730   18.8669 H   0  0  0  0  0  0  0  0  0  0  0  0
    4.6080    0.9556   20.9712 H   0  0  0  0  0  0  0  0  0  0  0  0
    6.4312   -0.2272   22.1285 H   0  0  0  0  0  0  0  0  0  0  0  0
    7.5230   -2.4809   21.8144 H   0  0  0  0  0  0  0  0  0  0  0  0
    7.4548   -2.2029   20.0781 H   0  0  0  0  0  0  0  0  0  0  0  0
    5.0993   -2.6618   19.9770 H   0  0  0  0  0  0  0  0  0  0  0  0
    5.5206   -3.3840   22.9432 H   0  0  0  0  0  0  0  0  0  0  0  0
    4.0397   -3.7921   21.9213 H   0  0  0  0  0  0  0  0  0  0  0  0
  1  2  2  3
  2  3  1  0
  3  4  1  0
  4  5  1  0
  5  6  1  0
  6  7  2  0
  6  8  2  0
  6  9  1  0
  9 10  1  0
 10 11  2  0
 11 12  1  0
 12 13  1  0
 13 14  1  0
 14 15  1  0
 14 16  1  0
 14 17  1  0
 13 18  1  0
 18 19  1  0
 18 20  1  0
 13 21  1  0
  9 22  1  0
  9 23  1  0
  5 24  1  0
  4 25  1  0
 25 26  2  0
 26 27  1  0
 27 28  2  0
 28 29  1  0
 29 30  2  0
 30 31  1  0
 28 32  1  0
 27 33  1  0
 26 34  1  0
  4 35  1  1
  3 36  1  0
  3 37  1  0
  2 38  1  0
  1 39  1  0
  1 40  1  0
 18 10  1  0
 30 25  1  0
M  END
>  <plip>  (1) 
-0.06896551724137931

>  <filename>  (1) 
[H][C]([H])=[C]([H])[C]([H])([H])[C@]([H])([c]1[c]([H])[n][c]([H])[c]([H])[c]1[H])[N]([H])[S](=[O])(=[O])[C]([H])([H])[C]1=[N][O][C]([H])([C]([H])([H])[H])[C]1([H])[H]

$$$$
