
     RDKit          3D

 30 31  0  0  0  0  0  0  0  0999 V2000
    9.4209    0.7023   20.7750 O   0  0  0  0  0  0  0  0  0  0  0  0
    8.4873    0.4381   21.5180 C   0  0  0  0  0  0  0  0  0  0  0  0
    7.4205   -0.5468   21.0264 C   0  0  0  0  0  0  0  0  0  0  0  0
    6.6498    0.0313   19.8531 C   0  0  0  0  0  0  0  0  0  0  0  0
    5.4569    0.7149   20.0790 C   0  0  0  0  0  0  0  0  0  0  0  0
    4.8311    1.3149   18.9859 C   0  0  0  0  0  0  0  0  0  0  0  0
    5.4021    1.2141   17.7114 C   0  0  0  0  0  0  0  0  0  0  0  0
    6.5389    0.5328   17.4798 N   0  0  0  0  0  0  0  0  0  0  0  0
    7.1463   -0.0411   18.5353 C   0  0  0  0  0  0  0  0  0  0  0  0
    8.0860   -0.5589   18.3732 H   0  0  0  0  0  0  0  0  0  0  0  0
    4.9095    1.7040   16.8777 H   0  0  0  0  0  0  0  0  0  0  0  0
    3.9178    1.8844   19.1155 H   0  0  0  0  0  0  0  0  0  0  0  0
    5.0488    0.8000   21.0857 H   0  0  0  0  0  0  0  0  0  0  0  0
    6.7338   -0.7820   21.8437 H   0  0  0  0  0  0  0  0  0  0  0  0
    7.9068   -1.4802   20.7323 H   0  0  0  0  0  0  0  0  0  0  0  0
    8.3274    1.0840   22.7305 N   0  0  0  0  0  0  0  0  0  0  0  0
    9.0423    2.1989   23.1718 C   0  0  0  0  0  0  0  0  0  0  0  0
   10.1065    2.7499   22.4563 C   0  0  0  0  0  0  0  0  0  0  0  0
   10.7202    3.9325   22.8822 C   0  0  0  0  0  0  0  0  0  0  0  0
   10.2416    4.5738   24.0257 C   0  0  0  0  0  0  0  0  0  0  0  0
    9.1977    4.0175   24.7672 C   0  0  0  0  0  0  0  0  0  0  0  0
    8.4517    5.1386   26.5671 I   0  0  0  0  0  0  0  0  0  0  0  0
    8.6105    2.8102   24.3542 C   0  0  0  0  0  0  0  0  0  0  0  0
    7.5246    2.1984   25.1193 C   0  0  0  0  0  0  0  0  0  0  0  0
    7.4765    2.4195   26.3561 O   0  0  0  0  0  0  0  0  0  0  0  0
    6.6956    1.4873   24.4963 O   0  0  0  0  0  1  0  0  0  0  0  0
   10.6710    5.5189   24.3381 H   0  0  0  0  0  0  0  0  0  0  0  0
   11.5359    4.3613   22.3076 H   0  0  0  0  0  0  0  0  0  0  0  0
   10.4468    2.2669   21.5499 H   0  0  0  0  0  0  0  0  0  0  0  0
    7.4696    0.8846   23.2325 H   0  0  0  0  0  0  0  0  0  0  0  0
  1  2  2  0
  2  3  1  0
  3  4  1  0
  4  5  2  0
  5  6  1  0
  6  7  2  0
  7  8  1  0
  8  9  2  0
  9 10  1  0
  7 11  1  0
  6 12  1  0
  5 13  1  0
  3 14  1  0
  3 15  1  0
  2 16  1  0
 16 17  1  0
 17 18  2  0
 18 19  1  0
 19 20  2  0
 20 21  1  0
 21 22  1  0
 21 23  2  0
 23 24  1  0
 24 25  2  0
 24 26  1  0
 20 27  1  0
 19 28  1  0
 18 29  1  0
 16 30  1  0
  9  4  1  0
 23 17  1  0
M  CHG  1  26  -1
M  END
>  <plip>  (1) 
-0.17857142857142858

>  <filename>  (1) 
[H][c]1[n][c]([H])[c]([C]([H])([H])[C](=[O])[N]([H])[c]2[c]([H])[c]([H])[c]([H])[c]([I])[c]2[C](=[O])[O-])[c]([H])[c]1[H]

$$$$
