
     RDKit          3D

 37 39  0  0  0  0  0  0  0  0999 V2000
    4.9385    1.7753   16.9993 H   0  0  0  0  0  0  0  0  0  0  0  0
    5.4141    1.2870   17.8444 C   0  0  0  0  0  0  0  0  0  0  0  0
    6.5715    0.6594   17.5918 N   0  0  0  0  0  0  0  0  0  0  0  0
    7.1910    0.0659   18.6192 C   0  0  0  0  0  0  0  0  0  0  0  0
    8.1218   -0.4385   18.3644 H   0  0  0  0  0  0  0  0  0  0  0  0
    6.6811    0.0585   19.9178 C   0  0  0  0  0  0  0  0  0  0  0  0
    7.3634   -0.6947   20.9726 C   0  0  0  0  0  0  0  0  0  0  0  0
    6.7076   -1.3793   21.8285 N   0  0  0  0  0  0  0  0  0  0  0  0
    7.6693   -2.0277   22.7124 C   0  0  0  0  0  0  0  0  0  0  0  0
    7.4871   -3.1055   22.7676 H   0  0  0  0  0  0  0  0  0  0  0  0
    7.5268   -1.6367   23.7273 H   0  0  0  0  0  0  0  0  0  0  0  0
    9.0684   -1.7009   22.1530 C   0  0  0  0  0  0  0  0  0  0  0  0
    9.5927   -2.5850   21.7694 H   0  0  0  0  0  0  0  0  0  0  0  0
    9.7268   -1.2403   22.9036 H   0  0  0  0  0  0  0  0  0  0  0  0
    8.7492   -0.7774   21.0480 N   0  0  0  0  0  0  0  0  0  0  0  0
    9.6376    0.3423   20.8476 C   0  0  0  0  0  0  0  0  0  0  0  0
    9.3523    0.8890   19.9370 H   0  0  0  0  0  0  0  0  0  0  0  0
   10.6452   -0.0673   20.7218 H   0  0  0  0  0  0  0  0  0  0  0  0
    9.6900    1.2047   21.9468 O   0  0  0  0  0  0  0  0  0  0  0  0
    8.7920    2.3166   21.8736 C   0  0  0  0  0  0  0  0  0  0  0  0
    7.8205    1.9953   21.4620 H   0  0  0  0  0  0  0  0  0  0  0  0
    9.1993    3.0746   21.1883 H   0  0  0  0  0  0  0  0  0  0  0  0
    8.6157    2.8903   23.2591 C   0  0  0  0  0  0  0  0  0  0  0  0
    9.3336    4.0224   23.6731 C   0  0  0  0  0  0  0  0  0  0  0  0
   10.0294    4.4960   22.9776 H   0  0  0  0  0  0  0  0  0  0  0  0
    9.1620    4.5459   24.9599 C   0  0  0  0  0  0  0  0  0  0  0  0
    9.7232    5.4282   25.2653 H   0  0  0  0  0  0  0  0  0  0  0  0
    8.2655    3.9350   25.8463 C   0  0  0  0  0  0  0  0  0  0  0  0
    8.1250    4.3396   26.8463 H   0  0  0  0  0  0  0  0  0  0  0  0
    7.5468    2.8024   25.4460 C   0  0  0  0  0  0  0  0  0  0  0  0
    6.8502    2.3205   26.1316 H   0  0  0  0  0  0  0  0  0  0  0  0
    7.7260    2.2860   24.1594 C   0  0  0  0  0  0  0  0  0  0  0  0
    7.1760    1.3980   23.8418 H   0  0  0  0  0  0  0  0  0  0  0  0
    5.4417    0.6674   20.1682 C   0  0  0  0  0  0  0  0  0  0  0  0
    4.9952    0.6205   21.1658 H   0  0  0  0  0  0  0  0  0  0  0  0
    4.8168    1.3118   19.1088 C   0  0  0  0  0  0  0  0  0  0  0  0
    3.8820    1.8356   19.2533 H   0  0  0  0  0  0  0  0  0  0  0  0
  1  2  1  0
  2  3  2  0
  3  4  1  0
  4  5  1  0
  4  6  2  0
  6  7  1  0
  7  8  2  0
  8  9  1  0
  9 10  1  0
  9 11  1  0
  9 12  1  0
 12 13  1  0
 12 14  1  0
 12 15  1  0
 15 16  1  0
 16 17  1  0
 16 18  1  0
 16 19  1  0
 19 20  1  0
 20 21  1  0
 20 22  1  0
 20 23  1  0
 23 24  2  0
 24 25  1  0
 24 26  1  0
 26 27  1  0
 26 28  2  0
 28 29  1  0
 28 30  1  0
 30 31  1  0
 30 32  2  0
 32 33  1  0
  6 34  1  0
 34 35  1  0
 34 36  2  0
 36 37  1  0
 36  2  1  0
 15  7  1  0
 32 23  1  0
M  END
>  <plip>  (1) 
-0.10714285714285714

>  <filename>  (1) 
[H][c]1[n][c]([H])[c]([C]2=[N][C]([H])([H])[C]([H])([H])[N]2[C]([H])([H])[O][C]([H])([H])[c]2[c]([H])[c]([H])[c]([H])[c]([H])[c]2[H])[c]([H])[c]1[H]

$$$$
