
     RDKit          3D

 46 47  0  0  0  0  0  0  0  0999 V2000
    6.2608   -0.9380   26.4021 C   0  0  0  0  0  0  0  0  0  0  0  0
    7.4104   -1.0129   25.4527 N   0  0  0  0  0  4  0  0  0  0  0  0
    8.0853   -2.3552   25.5799 C   0  0  0  0  0  0  0  0  0  0  0  0
    7.4445   -3.1357   25.1486 H   0  0  0  0  0  0  0  0  0  0  0  0
    9.0472   -2.3729   25.0614 H   0  0  0  0  0  0  0  0  0  0  0  0
    8.2557   -2.5969   26.6333 H   0  0  0  0  0  0  0  0  0  0  0  0
    6.9619   -0.7241   24.0296 C   0  0  0  0  0  0  0  0  0  0  0  0
    8.1690   -0.5584   23.1047 C   0  0  0  0  0  0  0  0  0  0  0  0
    7.8383    0.0483   21.7659 N   0  0  0  0  0  4  0  0  0  0  0  0
    7.0213   -0.8623   20.8941 C   0  0  0  0  0  0  0  0  0  0  0  0
    6.3619   -0.0837   19.7836 C   0  0  0  0  0  0  0  0  0  0  0  0
    5.2098    0.6922   19.9938 C   0  0  0  0  0  0  0  0  0  0  0  0
    4.7117    1.4585   18.9374 C   0  0  0  0  0  0  0  0  0  0  0  0
    5.3623    1.4069   17.7009 C   0  0  0  0  0  0  0  0  0  0  0  0
    6.4348    0.6375   17.4663 N   0  0  0  0  0  0  0  0  0  0  0  0
    6.9100   -0.0835   18.4900 C   0  0  0  0  0  0  0  0  0  0  0  0
    7.7744   -0.7105   18.2670 H   0  0  0  0  0  0  0  0  0  0  0  0
    5.0086    2.0056   16.8623 H   0  0  0  0  0  0  0  0  0  0  0  0
    3.8460    2.1036   19.0565 H   0  0  0  0  0  0  0  0  0  0  0  0
    4.7052    0.6959   20.9637 H   0  0  0  0  0  0  0  0  0  0  0  0
    6.2517   -1.3359   21.5193 H   0  0  0  0  0  0  0  0  0  0  0  0
    7.6618   -1.6635   20.4907 H   0  0  0  0  0  0  0  0  0  0  0  0
    9.1082    0.5525   21.1085 C   0  0  0  0  0  0  0  0  0  0  0  0
    9.6023    1.7615   21.8719 C   0  0  0  0  0  0  0  0  0  0  0  0
    8.7392    2.8418   22.1111 C   0  0  0  0  0  0  0  0  0  0  0  0
    7.4132    2.7191   21.7400 O   0  0  0  0  0  0  0  0  0  0  0  0
    7.2291    3.4066   21.0895 H   0  0  0  0  0  0  0  0  0  0  0  0
    9.1754    4.0020   22.7369 C   0  0  0  0  0  0  0  0  0  0  0  0
   10.5084    4.1117   23.1456 C   0  0  0  0  0  0  0  0  0  0  0  0
   11.3970    3.0489   22.9470 C   0  0  0  0  0  0  0  0  0  0  0  0
   13.0630    3.2190   23.3980 Cl  0  0  0  0  0  0  0  0  0  0  0  0
   10.9251    1.8849   22.3176 C   0  0  0  0  0  0  0  0  0  0  0  0
   11.7698    0.8648   22.1222 F   0  0  0  0  0  0  0  0  0  0  0  0
   10.8824    5.0411   23.5579 H   0  0  0  0  0  0  0  0  0  0  0  0
    8.4536    4.8014   22.8717 H   0  0  0  0  0  0  0  0  0  0  0  0
    9.8715   -0.2340   21.0564 H   0  0  0  0  0  0  0  0  0  0  0  0
    8.8762    0.8442   20.0790 H   0  0  0  0  0  0  0  0  0  0  0  0
    7.2959    0.9422   21.8800 H   0  0  0  0  0  0  0  0  0  0  0  0
    8.8923    0.0793   23.6225 H   0  0  0  0  0  0  0  0  0  0  0  0
    8.6676   -1.5296   22.9601 H   0  0  0  0  0  0  0  0  0  0  0  0
    6.3178   -1.5449   23.6896 H   0  0  0  0  0  0  0  0  0  0  0  0
    6.3492    0.1861   24.0260 H   0  0  0  0  0  0  0  0  0  0  0  0
    8.0951   -0.2641   25.7121 H   0  0  0  0  0  0  0  0  0  0  0  0
    5.7868    0.0482   26.3555 H   0  0  0  0  0  0  0  0  0  0  0  0
    5.5091   -1.6917   26.1306 H   0  0  0  0  0  0  0  0  0  0  0  0
    6.5942   -1.1326   27.4272 H   0  0  0  0  0  0  0  0  0  0  0  0
  1  2  1  0
  2  3  1  0
  3  4  1  0
  3  5  1  0
  3  6  1  0
  2  7  1  0
  7  8  1  0
  8  9  1  0
  9 10  1  0
 10 11  1  0
 11 12  2  0
 12 13  1  0
 13 14  2  0
 14 15  1  0
 15 16  2  0
 16 17  1  0
 14 18  1  0
 13 19  1  0
 12 20  1  0
 10 21  1  0
 10 22  1  0
  9 23  1  0
 23 24  1  0
 24 25  2  0
 25 26  1  0
 26 27  1  0
 25 28  1  0
 28 29  2  0
 29 30  1  0
 30 31  1  0
 30 32  2  0
 32 33  1  0
 29 34  1  0
 28 35  1  0
 23 36  1  0
 23 37  1  0
  9 38  1  0
  8 39  1  0
  8 40  1  0
  7 41  1  0
  7 42  1  0
  2 43  1  0
  1 44  1  0
  1 45  1  0
  1 46  1  0
 16 11  1  0
 32 24  1  0
M  CHG  2   2   1   9   1
M  END
>  <plip>  (1) 
-0.13793103448275862

>  <filename>  (1) 
[H][O][c]1[c]([H])[c]([H])[c]([Cl])[c]([F])[c]1[C]([H])([H])[N+]([H])([C]([H])([H])[c]1[c]([H])[n][c]([H])[c]([H])[c]1[H])[C]([H])([H])[C]([H])([H])[N+]([H])([C]([H])([H])[H])[C]([H])([H])[H]

$$$$
