
     RDKit          3D

 38 40  0  0  0  0  0  0  0  0999 V2000
    8.4116   -0.5027   23.1965 C   0  0  0  0  0  0  0  0  0  0  0  0
    8.0027    0.1323   21.8910 N   0  0  0  0  0  4  0  0  0  0  0  0
    7.3336   -0.8254   20.9457 C   0  0  0  0  0  0  0  0  0  0  0  0
    6.6084   -0.0405   19.8792 C   0  0  0  0  0  0  0  0  0  0  0  0
    5.4151    0.6539   20.1392 C   0  0  0  0  0  0  0  0  0  0  0  0
    4.7955    1.3265   19.0829 C   0  0  0  0  0  0  0  0  0  0  0  0
    5.4057    1.3174   17.8249 C   0  0  0  0  0  0  0  0  0  0  0  0
    6.5624    0.6886   17.5650 N   0  0  0  0  0  0  0  0  0  0  0  0
    7.1437    0.0479   18.5856 C   0  0  0  0  0  0  0  0  0  0  0  0
    8.1023   -0.4296   18.3689 H   0  0  0  0  0  0  0  0  0  0  0  0
    4.9473    1.8349   16.9860 H   0  0  0  0  0  0  0  0  0  0  0  0
    3.8691    1.8784   19.2211 H   0  0  0  0  0  0  0  0  0  0  0  0
    4.9840    0.6788   21.1454 H   0  0  0  0  0  0  0  0  0  0  0  0
    8.0870   -1.4940   20.5006 H   0  0  0  0  0  0  0  0  0  0  0  0
    6.6424   -1.4471   21.5276 H   0  0  0  0  0  0  0  0  0  0  0  0
    9.1891    0.8896   21.2699 C   0  0  0  0  0  0  0  0  0  0  0  0
    9.4848    2.1113   22.0694 C   0  0  0  0  0  0  0  0  0  0  0  0
    8.8482    3.2966   22.2483 C   0  0  0  0  0  0  0  0  0  0  0  0
    9.6668    4.0781   23.1510 C   0  0  0  0  0  0  0  0  0  0  0  0
    9.6450    5.3554   23.7521 C   0  0  0  0  0  0  0  0  0  0  0  0
   10.7036    5.7004   24.6014 C   0  0  0  0  0  0  0  0  0  0  0  0
   10.6280    7.0779   25.2937 C   0  0  0  0  0  0  0  0  0  0  0  0
   11.5348    7.4165   26.0943 O   0  0  0  0  0  0  0  0  0  0  0  0
    9.6522    7.8269   25.0363 O   0  0  0  0  0  1  0  0  0  0  0  0
   11.7997    4.8371   24.8576 C   0  0  0  0  0  0  0  0  0  0  0  0
   11.8077    3.5718   24.2730 C   0  0  0  0  0  0  0  0  0  0  0  0
   10.7499    3.2413   23.4427 C   0  0  0  0  0  0  0  0  0  0  0  0
   10.6451    2.0583   22.7940 O   0  0  0  0  0  0  0  0  0  0  0  0
   12.5599    2.8068   24.4015 H   0  0  0  0  0  0  0  0  0  0  0  0
   12.6249    5.1061   25.5241 H   0  0  0  0  0  0  0  0  0  0  0  0
    8.8335    6.0646   23.5775 H   0  0  0  0  0  0  0  0  0  0  0  0
    7.9336    3.6110   21.7708 H   0  0  0  0  0  0  0  0  0  0  0  0
   10.0755    0.2528   21.2372 H   0  0  0  0  0  0  0  0  0  0  0  0
    8.9134    1.1670   20.2523 H   0  0  0  0  0  0  0  0  0  0  0  0
    7.3181    0.9102   22.0732 H   0  0  0  0  0  0  0  0  0  0  0  0
    9.1764   -1.2777   23.0363 H   0  0  0  0  0  0  0  0  0  0  0  0
    7.5511   -0.9717   23.6878 H   0  0  0  0  0  0  0  0  0  0  0  0
    8.8245    0.2460   23.8778 H   0  0  0  0  0  0  0  0  0  0  0  0
  1  2  1  0
  2  3  1  0
  3  4  1  0
  4  5  2  0
  5  6  1  0
  6  7  2  0
  7  8  1  0
  8  9  2  0
  9 10  1  0
  7 11  1  0
  6 12  1  0
  5 13  1  0
  3 14  1  0
  3 15  1  0
  2 16  1  0
 16 17  1  0
 17 18  2  0
 18 19  1  0
 19 20  2  0
 20 21  1  0
 21 22  1  0
 22 23  2  0
 22 24  1  0
 21 25  2  0
 25 26  1  0
 26 27  2  0
 27 28  1  0
 26 29  1  0
 25 30  1  0
 20 31  1  0
 18 32  1  0
 16 33  1  0
 16 34  1  0
  2 35  1  0
  1 36  1  0
  1 37  1  0
  1 38  1  0
  9  4  1  0
 28 17  1  0
 27 19  1  0
M  CHG  2   2   1  24  -1
M  END
>  <plip>  (1) 
-0.03571428571428571

>  <filename>  (1) 
[H][c]1[n][c]([H])[c]([C]([H])([H])[N+]([H])([C]([H])([H])[H])[C]([H])([H])[c]2[o][c]3[c]([H])[c]([H])[c]([C](=[O])[O-])[c]([H])[c]3[c]2[H])[c]([H])[c]1[H]

$$$$
