
     RDKit          3D

 42 43  0  0  0  0  0  0  0  0999 V2000
    3.7268   -5.7963   23.8658 C   0  0  0  0  0  0  0  0  0  0  0  0
    4.9317   -5.0390   23.3981 C   0  0  0  0  0  0  0  0  0  0  0  0
    4.8088   -4.3215   22.2829 N   0  0  0  0  0  0  0  0  0  0  0  0
    5.8480   -3.6093   21.8060 N   0  0  0  0  0  0  0  0  0  0  0  0
    7.0325   -3.6066   22.4214 C   0  0  0  0  0  0  0  0  0  0  0  0
    8.0652   -2.8797   21.9258 N   0  0  0  0  0  0  0  0  0  0  0  0
    7.8981   -2.0148   20.7686 C   0  0  0  0  0  0  0  0  0  0  0  0
    7.2977   -0.6407   21.1229 C   0  0  0  0  0  0  0  0  0  0  0  0
    6.6204    0.0684   19.9811 C   0  0  0  0  0  0  0  0  0  0  0  0
    5.4031    0.7335   20.1745 C   0  0  0  0  0  0  0  0  0  0  0  0
    4.7960    1.3608   19.0843 C   0  0  0  0  0  0  0  0  0  0  0  0
    5.4352    1.3205   17.8407 C   0  0  0  0  0  0  0  0  0  0  0  0
    6.5980    0.6884   17.6354 N   0  0  0  0  0  0  0  0  0  0  0  0
    7.1664    0.0838   18.6869 C   0  0  0  0  0  0  0  0  0  0  0  0
    8.1130   -0.4192   18.4895 H   0  0  0  0  0  0  0  0  0  0  0  0
    4.9900    1.8103   16.9741 H   0  0  0  0  0  0  0  0  0  0  0  0
    3.8581    1.8929   19.1877 H   0  0  0  0  0  0  0  0  0  0  0  0
    4.9444    0.7716   21.1655 H   0  0  0  0  0  0  0  0  0  0  0  0
    8.2660    0.3634   21.8342 N   0  0  0  0  0  4  0  0  0  0  0  0
    9.4733    0.8110   21.0480 C   0  0  0  0  0  0  0  0  0  0  0  0
    9.1665    1.1864   20.0728 H   0  0  0  0  0  0  0  0  0  0  0  0
    9.9937    1.6136   21.5875 H   0  0  0  0  0  0  0  0  0  0  0  0
   10.1796   -0.0152   20.9017 H   0  0  0  0  0  0  0  0  0  0  0  0
    8.7023   -0.1118   23.1872 C   0  0  0  0  0  0  0  0  0  0  0  0
    7.8738   -0.6069   23.7013 H   0  0  0  0  0  0  0  0  0  0  0  0
    9.0582    0.7251   23.7985 H   0  0  0  0  0  0  0  0  0  0  0  0
    9.5134   -0.8428   23.0956 H   0  0  0  0  0  0  0  0  0  0  0  0
    7.6407    1.2046   21.9360 H   0  0  0  0  0  0  0  0  0  0  0  0
    6.5401   -0.8684   21.8810 H   0  0  0  0  0  0  0  0  0  0  0  0
    8.8648   -1.8979   20.2719 H   0  0  0  0  0  0  0  0  0  0  0  0
    7.1696   -2.4662   20.0840 H   0  0  0  0  0  0  0  0  0  0  0  0
    8.9710   -3.2636   22.1260 H   0  0  0  0  0  0  0  0  0  0  0  0
    7.2379   -4.3461   23.6179 C   0  0  0  0  0  0  0  0  0  0  0  0
    8.5694   -4.1472   24.2761 C   0  0  0  0  0  0  0  0  0  0  0  0
    9.5926   -4.5002   23.4532 F   0  0  0  0  0  0  0  0  0  0  0  0
    8.8017   -2.8599   24.6067 F   0  0  0  0  0  0  0  0  0  0  0  0
    8.7204   -4.8691   25.3892 F   0  0  0  0  0  0  0  0  0  0  0  0
    6.1660   -5.0833   24.1016 C   0  0  0  0  0  0  0  0  0  0  0  0
    6.2188   -5.6808   25.0101 H   0  0  0  0  0  0  0  0  0  0  0  0
    3.4931   -5.5572   24.9090 H   0  0  0  0  0  0  0  0  0  0  0  0
    2.8585   -5.5589   23.2421 H   0  0  0  0  0  0  0  0  0  0  0  0
    3.9175   -6.8734   23.8140 H   0  0  0  0  0  0  0  0  0  0  0  0
  1  2  1  0
  2  3  2  0
  3  4  1  0
  4  5  2  0
  5  6  1  0
  6  7  1  0
  7  8  1  0
  8  9  1  0
  9 10  2  0
 10 11  1  0
 11 12  2  0
 12 13  1  0
 13 14  2  0
 14 15  1  0
 12 16  1  0
 11 17  1  0
 10 18  1  0
  8 19  1  0
 19 20  1  0
 20 21  1  0
 20 22  1  0
 20 23  1  0
 19 24  1  0
 24 25  1  0
 24 26  1  0
 24 27  1  0
 19 28  1  0
  8 29  1  0
  7 30  1  0
  7 31  1  0
  6 32  1  0
  5 33  1  0
 33 34  1  0
 34 35  1  0
 34 36  1  0
 34 37  1  0
 33 38  2  0
 38 39  1  0
  1 40  1  0
  1 41  1  0
  1 42  1  0
 38  2  1  0
 14  9  1  0
M  CHG  1  19   1
M  END
>  <plip>  (1) 
-0.10344827586206896

>  <filename>  (1) 
[H][c]1[n][c]([H])[c]([C]([H])([C]([H])([H])[N]([H])[c]2[n][n][c]([C]([H])([H])[H])[c]([H])[c]2[C]([F])([F])[F])[N+]([H])([C]([H])([H])[H])[C]([H])([H])[H])[c]([H])[c]1[H]

$$$$
