
     RDKit          3D

 37 39  0  0  0  0  0  0  0  0999 V2000
    4.9308    1.8472   16.9922 H   0  0  0  0  0  0  0  0  0  0  0  0
    5.3916    1.3035   17.8136 C   0  0  0  0  0  0  0  0  0  0  0  0
    6.5379    0.6620   17.5386 N   0  0  0  0  0  0  0  0  0  0  0  0
    7.1448    0.0264   18.5480 C   0  0  0  0  0  0  0  0  0  0  0  0
    8.0860   -0.4698   18.2939 H   0  0  0  0  0  0  0  0  0  0  0  0
    6.6621   -0.0264   19.8753 C   0  0  0  0  0  0  0  0  0  0  0  0
    7.5116   -0.7491   20.9372 C   0  0  1  0  0  0  0  0  0  0  0  0
    7.8663   -1.6732   20.4582 H   0  0  0  0  0  0  0  0  0  0  0  0
    8.7849    0.0454   21.3542 C   0  0  0  0  0  0  0  0  0  0  0  0
    9.2454    0.5059   20.4718 H   0  0  0  0  0  0  0  0  0  0  0  0
    9.5413   -0.6494   21.7436 H   0  0  0  0  0  0  0  0  0  0  0  0
    8.5728    1.0871   22.3610 N   0  0  0  0  0  0  0  0  0  0  0  0
    7.9214    1.7697   21.9689 H   0  0  0  0  0  0  0  0  0  0  0  0
    7.9668    0.5529   23.5838 C   0  0  0  0  0  0  0  0  0  0  0  0
    8.6744   -0.1329   24.0695 H   0  0  0  0  0  0  0  0  0  0  0  0
    7.8347    1.3769   24.2931 H   0  0  0  0  0  0  0  0  0  0  0  0
    6.6307   -0.1391   23.3083 C   0  0  0  0  0  0  0  0  0  0  0  0
    6.2183   -0.6020   24.2124 H   0  0  0  0  0  0  0  0  0  0  0  0
    5.9126    0.6266   22.9920 H   0  0  0  0  0  0  0  0  0  0  0  0
    6.7319   -1.2093   22.1973 C   0  0  2  0  0  0  0  0  0  0  0  0
    5.7193   -1.4724   21.8815 H   0  0  0  0  0  0  0  0  0  0  0  0
    7.3190   -2.4377   22.7290 N   0  0  0  0  0  0  0  0  0  0  0  0
    8.3136   -2.5881   22.6659 H   0  0  0  0  0  0  0  0  0  0  0  0
    6.5896   -3.2899   23.5009 C   0  0  0  0  0  0  0  0  0  0  0  0
    5.3925   -3.1305   23.7181 O   0  0  0  0  0  0  0  0  0  0  0  0
    7.2826   -4.4555   24.1078 C   0  0  0  0  0  0  0  0  0  0  0  0
    8.6059   -4.7311   23.8572 O   0  0  0  0  0  0  0  0  0  0  0  0
    8.9403   -5.7612   24.6659 C   0  0  0  0  0  0  0  0  0  0  0  0
    9.9537   -6.1192   24.5754 H   0  0  0  0  0  0  0  0  0  0  0  0
    7.8829   -6.1415   25.4235 C   0  0  0  0  0  0  0  0  0  0  0  0
    7.9034   -6.8763   26.2141 H   0  0  0  0  0  0  0  0  0  0  0  0
    6.7857   -5.3242   25.0289 C   0  0  0  0  0  0  0  0  0  0  0  0
    5.7482   -5.3570   25.3583 H   0  0  0  0  0  0  0  0  0  0  0  0
    5.4400    0.6238   20.1167 C   0  0  0  0  0  0  0  0  0  0  0  0
    4.9767    0.6113   21.1014 H   0  0  0  0  0  0  0  0  0  0  0  0
    4.8010    1.3048   19.0773 C   0  0  0  0  0  0  0  0  0  0  0  0
    3.8768    1.8478   19.2429 H   0  0  0  0  0  0  0  0  0  0  0  0
  1  2  1  0
  2  3  2  0
  3  4  1  0
  4  5  1  0
  4  6  2  0
  6  7  1  0
  7  8  1  6
  7  9  1  0
  9 10  1  0
  9 11  1  0
  9 12  1  0
 12 13  1  0
 12 14  1  0
 14 15  1  0
 14 16  1  0
 14 17  1  0
 17 18  1  0
 17 19  1  0
 17 20  1  0
 20 21  1  6
 20 22  1  0
 22 23  1  0
 22 24  1  0
 24 25  2  0
 24 26  1  0
 26 27  1  0
 27 28  1  0
 28 29  1  0
 28 30  2  0
 30 31  1  0
 30 32  1  0
 32 33  1  0
  6 34  1  0
 34 35  1  0
 34 36  2  0
 36 37  1  0
 36  2  1  0
 20  7  1  0
 32 26  2  0
M  END
>  <plip>  (1) 
-0.03571428571428571

>  <filename>  (1) 
[H][c]1[n][c]([H])[c]([C@@]2([H])[C]([H])([H])[N]([H])[C]([H])([H])[C]([H])([H])[C@]2([H])[N]([H])[C](=[O])[c]2[o][c]([H])[c]([H])[c]2[H])[c]([H])[c]1[H]

$$$$
