
     RDKit          3D

 40 42  0  0  0  0  0  0  0  0999 V2000
    4.8025    1.3222   19.0997 C   0  0  0  0  0  0  0  0  0  0  0  0
    5.4072    1.2970   17.8379 C   0  0  0  0  0  0  0  0  0  0  0  0
    6.5698    0.6747   17.5945 N   0  0  0  0  0  0  0  0  0  0  0  0
    7.1644    0.0518   18.6193 C   0  0  0  0  0  0  0  0  0  0  0  0
    6.6395    0.0148   19.9198 C   0  0  0  0  0  0  0  0  0  0  0  0
    7.3656   -0.6738   20.9987 C   0  0  0  0  0  0  0  0  0  0  0  0
    6.7396   -1.5426   21.7868 N   0  0  0  0  0  0  0  0  0  0  0  0
    7.6680   -1.9499   22.6661 N   0  0  0  0  0  0  0  0  0  0  0  0
    8.8688   -1.3467   22.4858 C   0  0  0  0  0  0  0  0  0  0  0  0
    8.7185   -0.5083   21.4008 C   0  0  0  0  0  0  0  0  0  0  0  0
    9.7527    0.4289   20.8586 C   0  0  0  0  0  0  0  0  0  0  0  0
    9.7509    1.6744   21.6685 N   0  0  0  0  0  4  0  0  0  0  0  0
    8.4941    2.5182   21.4948 C   0  0  0  0  0  0  0  0  0  0  0  0
    8.6217    3.8342   22.2523 C   0  0  2  0  0  0  0  0  0  0  0  0
    8.6361    3.7133   23.7767 C   0  0  0  0  0  0  0  0  0  0  0  0
    8.0278    5.0218   24.3064 C   0  0  0  0  0  0  0  0  0  0  0  0
    7.3095    5.6952   23.1130 C   0  0  0  0  0  0  0  0  0  0  0  0
    7.4473    4.7405   21.9741 N   0  0  0  0  0  4  0  0  0  0  0  0
    6.5804    4.1219   21.9277 H   0  0  0  0  0  0  0  0  0  0  0  0
    7.5326    5.2244   21.0580 H   0  0  0  0  0  0  0  0  0  0  0  0
    6.2581    5.9011   23.3255 H   0  0  0  0  0  0  0  0  0  0  0  0
    7.7767    6.6562   22.8788 H   0  0  0  0  0  0  0  0  0  0  0  0
    8.7972    5.6868   24.7135 H   0  0  0  0  0  0  0  0  0  0  0  0
    7.3412    4.8184   25.1327 H   0  0  0  0  0  0  0  0  0  0  0  0
    9.6569    3.5560   24.1418 H   0  0  0  0  0  0  0  0  0  0  0  0
    8.0599    2.8415   24.1114 H   0  0  0  0  0  0  0  0  0  0  0  0
    9.5524    4.3211   21.9566 H   0  0  0  0  0  0  0  0  0  0  0  0
    7.6121    1.9830   21.8624 H   0  0  0  0  0  0  0  0  0  0  0  0
    8.3066    2.6929   20.4290 H   0  0  0  0  0  0  0  0  0  0  0  0
   10.5801    2.2853   21.4831 H   0  0  0  0  0  0  0  0  0  0  0  0
    9.7688    1.3335   22.6664 H   0  0  0  0  0  0  0  0  0  0  0  0
   10.7391   -0.0356   20.8799 H   0  0  0  0  0  0  0  0  0  0  0  0
    9.5182    0.6849   19.8274 H   0  0  0  0  0  0  0  0  0  0  0  0
    9.7240   -1.5366   23.1241 H   0  0  0  0  0  0  0  0  0  0  0  0
    7.3855   -2.5997   23.3850 H   0  0  0  0  0  0  0  0  0  0  0  0
    5.4182    0.6576   20.1584 C   0  0  0  0  0  0  0  0  0  0  0  0
    4.9754    0.6281   21.1602 H   0  0  0  0  0  0  0  0  0  0  0  0
    8.1088   -0.4375   18.3851 H   0  0  0  0  0  0  0  0  0  0  0  0
    4.9374    1.7856   16.9865 H   0  0  0  0  0  0  0  0  0  0  0  0
    3.8688    1.8481   19.2334 H   0  0  0  0  0  0  0  0  0  0  0  0
  1  2  2  0
  2  3  1  0
  3  4  2  0
  4  5  1  0
  5  6  1  0
  6  7  2  0
  7  8  1  0
  8  9  1  0
  9 10  2  0
 10 11  1  0
 11 12  1  0
 12 13  1  0
 13 14  1  0
 14 15  1  0
 15 16  1  0
 16 17  1  0
 17 18  1  0
 18 19  1  0
 18 20  1  0
 17 21  1  0
 17 22  1  0
 16 23  1  0
 16 24  1  0
 15 25  1  0
 15 26  1  0
 14 27  1  6
 13 28  1  0
 13 29  1  0
 12 30  1  0
 12 31  1  0
 11 32  1  0
 11 33  1  0
  9 34  1  0
  8 35  1  0
  5 36  2  0
 36 37  1  0
  4 38  1  0
  2 39  1  0
  1 40  1  0
 36  1  1  0
 10  6  1  0
 18 14  1  0
M  CHG  2  12   1  18   1
M  END
>  <plip>  (1) 
-0.13793103448275862

>  <filename>  (1) 
[H][c]1[n][c]([H])[c](-[c]2[n][n]([H])[c]([H])[c]2[C]([H])([H])[N+]([H])([H])[C]([H])([H])[C@]2([H])[C]([H])([H])[C]([H])([H])[C]([H])([H])[N+]2([H])[H])[c]([H])[c]1[H]

$$$$
