
     RDKit          3D

 30 32  0  0  0  0  0  0  0  0999 V2000
    4.9331    1.8056   16.9393 H   0  0  0  0  0  0  0  0  0  0  0  0
    5.4099    1.3215   17.7903 C   0  0  0  0  0  0  0  0  0  0  0  0
    6.5740    0.6957   17.5481 N   0  0  0  0  0  0  0  0  0  0  0  0
    7.1660    0.0897   18.5860 C   0  0  0  0  0  0  0  0  0  0  0  0
    8.0999   -0.4286   18.3653 H   0  0  0  0  0  0  0  0  0  0  0  0
    6.6624    0.0920   19.9046 C   0  0  0  0  0  0  0  0  0  0  0  0
    7.3543   -0.6159   21.0315 C   0  0  0  0  0  0  0  0  0  0  0  0
    7.5197   -2.0139   20.9666 C   0  0  0  0  0  0  0  0  0  0  0  0
    7.1004   -2.5511   20.1228 H   0  0  0  0  0  0  0  0  0  0  0  0
    8.1299   -2.7709   21.8820 N   0  0  0  0  0  0  0  0  0  0  0  0
    8.5917   -2.1304   22.9624 C   0  0  0  0  0  0  0  0  0  0  0  0
    9.1268   -2.7294   23.6922 H   0  0  0  0  0  0  0  0  0  0  0  0
    8.3982   -0.7723   23.1873 C   0  0  0  0  0  0  0  0  0  0  0  0
    8.7198   -0.3466   24.1299 H   0  0  0  0  0  0  0  0  0  0  0  0
    7.7572    0.0233   22.2254 C   0  0  0  0  0  0  0  0  0  0  0  0
    7.5000    1.4746   22.5441 C   0  0  0  0  0  0  0  0  0  0  0  0
    6.7455    1.7770   23.6926 C   0  0  0  0  0  0  0  0  0  0  0  0
    6.3689    0.9884   24.3369 H   0  0  0  0  0  0  0  0  0  0  0  0
    6.4607    3.0967   24.0093 C   0  0  0  0  0  0  0  0  0  0  0  0
    5.7058    3.3594   25.0856 F   0  0  0  0  0  0  0  0  0  0  0  0
    6.9254    4.1638   23.2542 C   0  0  0  0  0  0  0  0  0  0  0  0
    6.7065    5.1859   23.5429 H   0  0  0  0  0  0  0  0  0  0  0  0
    7.6732    3.8435   22.1253 C   0  0  0  0  0  0  0  0  0  0  0  0
    8.1520    4.8706   21.4057 F   0  0  0  0  0  0  0  0  0  0  0  0
    7.9701    2.5356   21.7435 C   0  0  0  0  0  0  0  0  0  0  0  0
    8.5371    2.3664   20.8332 H   0  0  0  0  0  0  0  0  0  0  0  0
    5.4438    0.7462   20.1275 C   0  0  0  0  0  0  0  0  0  0  0  0
    5.0120    0.7593   21.1322 H   0  0  0  0  0  0  0  0  0  0  0  0
    4.8037    1.3564   19.0492 C   0  0  0  0  0  0  0  0  0  0  0  0
    3.8481    1.8498   19.1723 H   0  0  0  0  0  0  0  0  0  0  0  0
  1  2  1  0
  2  3  2  0
  3  4  1  0
  4  5  1  0
  4  6  2  0
  6  7  1  0
  7  8  2  0
  8  9  1  0
  8 10  1  0
 10 11  2  0
 11 12  1  0
 11 13  1  0
 13 14  1  0
 13 15  2  0
 15 16  1  0
 16 17  2  0
 17 18  1  0
 17 19  1  0
 19 20  1  0
 19 21  2  0
 21 22  1  0
 21 23  1  0
 23 24  1  0
 23 25  2  0
 25 26  1  0
  6 27  1  0
 27 28  1  0
 27 29  2  0
 29 30  1  0
 29  2  1  0
 15  7  1  0
 25 16  1  0
M  END
>  <plip>  (1) 
-0.0

>  <filename>  (1) 
[H][c]1[n][c]([H])[c](-[c]2[c]([H])[n][c]([H])[c]([H])[c]2-[c]2[c]([H])[c]([F])[c]([H])[c]([F])[c]2[H])[c]([H])[c]1[H]

$$$$
