
     RDKit          3D

 39 40  0  0  0  0  0  0  0  0999 V2000
    4.9193    1.8309   16.9500 H   0  0  0  0  0  0  0  0  0  0  0  0
    5.3863    1.3157   17.7819 C   0  0  0  0  0  0  0  0  0  0  0  0
    6.5492    0.6950   17.5200 N   0  0  0  0  0  0  0  0  0  0  0  0
    7.1652    0.0796   18.5410 C   0  0  0  0  0  0  0  0  0  0  0  0
    8.1080   -0.4189   18.3117 H   0  0  0  0  0  0  0  0  0  0  0  0
    6.6617    0.0441   19.8711 C   0  0  0  0  0  0  0  0  0  0  0  0
    7.2908   -0.5479   20.9454 N   0  0  0  0  0  0  0  0  0  0  0  0
    6.7587   -0.6109   21.8009 H   0  0  0  0  0  0  0  0  0  0  0  0
    8.6735   -0.9665   20.9987 C   0  0  2  0  0  0  0  0  0  0  0  0
    8.8752   -1.5739   20.1043 H   0  0  0  0  0  0  0  0  0  0  0  0
    8.8207   -1.8495   22.2184 C   0  0  0  0  0  0  0  0  0  0  0  0
    8.8054   -1.3244   23.5186 C   0  0  0  0  0  0  0  0  0  0  0  0
    8.6395   -0.2575   23.6792 H   0  0  0  0  0  0  0  0  0  0  0  0
    9.0293   -2.1516   24.6231 C   0  0  0  0  0  0  0  0  0  0  0  0
    9.0060   -1.7432   25.6260 H   0  0  0  0  0  0  0  0  0  0  0  0
    9.2752   -3.5172   24.4227 C   0  0  0  0  0  0  0  0  0  0  0  0
    9.6564   -4.4095   25.3622 O   0  0  0  0  0  0  0  0  0  0  0  0
    9.4445   -4.1686   26.7500 C   0  0  0  0  0  0  0  0  0  0  0  0
    9.7869   -3.1542   27.0082 H   0  0  0  0  0  0  0  0  0  0  0  0
   10.3467   -5.1937   27.4070 C   0  0  0  0  0  0  0  0  0  0  0  0
   10.2249   -6.1362   26.8626 H   0  0  0  0  0  0  0  0  0  0  0  0
   10.1143   -5.3299   28.4621 H   0  0  0  0  0  0  0  0  0  0  0  0
   11.3940   -4.9032   27.3118 H   0  0  0  0  0  0  0  0  0  0  0  0
    7.9651   -4.3184   27.0820 C   0  0  0  0  0  0  0  0  0  0  0  0
    7.3727   -3.5781   26.5332 H   0  0  0  0  0  0  0  0  0  0  0  0
    7.6034   -5.3207   26.8188 H   0  0  0  0  0  0  0  0  0  0  0  0
    7.7973   -4.1618   28.1509 H   0  0  0  0  0  0  0  0  0  0  0  0
    9.1600   -4.0640   23.1410 C   0  0  0  0  0  0  0  0  0  0  0  0
    9.2708   -5.1374   23.0521 H   0  0  0  0  0  0  0  0  0  0  0  0
    8.9112   -3.2385   22.0584 C   0  0  0  0  0  0  0  0  0  0  0  0
    8.7846   -3.6785   21.0719 H   0  0  0  0  0  0  0  0  0  0  0  0
    9.6615    0.2027   20.9551 C   0  0  0  0  0  0  0  0  0  0  0  0
   10.6870   -0.1765   20.9373 H   0  0  0  0  0  0  0  0  0  0  0  0
    9.5580    0.8752   21.8119 H   0  0  0  0  0  0  0  0  0  0  0  0
    9.4869    0.7856   20.0499 H   0  0  0  0  0  0  0  0  0  0  0  0
    5.4198    0.6585   20.1028 C   0  0  0  0  0  0  0  0  0  0  0  0
    5.0000    0.6244   21.1084 H   0  0  0  0  0  0  0  0  0  0  0  0
    4.7858    1.3115   19.0500 C   0  0  0  0  0  0  0  0  0  0  0  0
    3.8475    1.8308   19.2042 H   0  0  0  0  0  0  0  0  0  0  0  0
  1  2  1  0
  2  3  2  0
  3  4  1  0
  4  5  1  0
  4  6  2  0
  6  7  1  0
  7  8  1  0
  7  9  1  0
  9 10  1  6
  9 11  1  0
 11 12  2  0
 12 13  1  0
 12 14  1  0
 14 15  1  0
 14 16  2  0
 16 17  1  0
 17 18  1  0
 18 19  1  0
 18 20  1  0
 20 21  1  0
 20 22  1  0
 20 23  1  0
 18 24  1  0
 24 25  1  0
 24 26  1  0
 24 27  1  0
 16 28  1  0
 28 29  1  0
 28 30  2  0
 30 31  1  0
  9 32  1  0
 32 33  1  0
 32 34  1  0
 32 35  1  0
  6 36  1  0
 36 37  1  0
 36 38  2  0
 38 39  1  0
 38  2  1  0
 30 11  1  0
M  END
>  <plip>  (1) 
-0.03571428571428571

>  <filename>  (1) 
[H][c]1[n][c]([H])[c]([N]([H])[C@]([H])([c]2[c]([H])[c]([H])[c]([O][C]([H])([C]([H])([H])[H])[C]([H])([H])[H])[c]([H])[c]2[H])[C]([H])([H])[H])[c]([H])[c]1[H]

$$$$
