
     RDKit          3D

 48 50  0  0  0  0  0  0  0  0999 V2000
    8.5703    2.3811   21.2092 C   0  0  0  0  0  0  0  0  0  0  0  0
    8.9456    1.0254   21.3097 O   0  0  0  0  0  0  0  0  0  0  0  0
    8.0272    0.2272   22.0171 C   0  0  0  0  0  0  0  0  0  0  0  0
    8.6860   -0.4462   23.0477 O   0  0  0  0  0  0  0  0  0  0  0  0
    9.1445    0.4123   24.0800 C   0  0  0  0  0  0  0  0  0  0  0  0
    9.8416    1.1696   23.7019 H   0  0  0  0  0  0  0  0  0  0  0  0
    9.6622   -0.2081   24.8146 H   0  0  0  0  0  0  0  0  0  0  0  0
    8.3116    0.9257   24.5843 H   0  0  0  0  0  0  0  0  0  0  0  0
    7.3636   -0.7717   21.0213 C   0  0  0  0  0  0  0  0  0  0  0  0
    6.4721   -1.6912   21.7149 N   0  0  0  0  0  0  0  0  0  0  0  0
    5.9925   -2.8439   21.1871 C   0  0  0  0  0  0  0  0  0  0  0  0
    6.1750   -3.1851   20.0315 O   0  0  0  0  0  0  0  0  0  0  0  0
    5.2147   -3.6728   22.1251 C   0  0  0  0  0  0  0  0  0  0  0  0
    4.6207   -3.4649   23.3503 C   0  0  0  0  0  0  0  0  0  0  0  0
    3.8236   -4.5427   23.5885 N   0  0  0  0  0  0  0  0  0  0  0  0
    2.9325   -4.6705   24.7048 C   0  0  0  0  0  0  0  0  0  0  0  0
    2.0473   -5.7525   24.8137 C   0  0  0  0  0  0  0  0  0  0  0  0
    1.2801   -5.8886   25.9668 C   0  0  0  0  0  0  0  0  0  0  0  0
    0.3941   -7.0845   26.1740 C   0  0  0  0  0  0  0  0  0  0  0  0
   -0.0065   -7.4481   25.2238 H   0  0  0  0  0  0  0  0  0  0  0  0
    0.9655   -7.8996   26.6300 H   0  0  0  0  0  0  0  0  0  0  0  0
   -0.4432   -6.8464   26.8344 H   0  0  0  0  0  0  0  0  0  0  0  0
    1.3962   -4.8882   26.9448 C   0  0  0  0  0  0  0  0  0  0  0  0
    2.2493   -3.8150   26.7137 C   0  0  0  0  0  0  0  0  0  0  0  0
    3.0076   -3.6904   25.6183 N   0  0  0  0  0  0  0  0  0  0  0  0
    2.3394   -3.0141   27.4436 H   0  0  0  0  0  0  0  0  0  0  0  0
    0.8473   -4.9550   27.8768 H   0  0  0  0  0  0  0  0  0  0  0  0
    1.9715   -6.4702   24.0009 H   0  0  0  0  0  0  0  0  0  0  0  0
    3.9426   -5.4760   22.5948 N   0  0  0  0  0  0  0  0  0  0  0  0
    4.7862   -4.9549   21.7351 C   0  0  0  0  0  0  0  0  0  0  0  0
    5.0722   -5.4724   20.8254 H   0  0  0  0  0  0  0  0  0  0  0  0
    4.6827   -2.6884   24.1058 H   0  0  0  0  0  0  0  0  0  0  0  0
    6.2158   -1.5089   22.6682 H   0  0  0  0  0  0  0  0  0  0  0  0
    6.6160   -0.0483   19.9000 C   0  0  0  0  0  0  0  0  0  0  0  0
    5.4117    0.6365   20.1227 C   0  0  0  0  0  0  0  0  0  0  0  0
    4.8154    1.3229   19.0616 C   0  0  0  0  0  0  0  0  0  0  0  0
    5.4455    1.3122   17.8110 C   0  0  0  0  0  0  0  0  0  0  0  0
    6.5906    0.6594   17.5675 N   0  0  0  0  0  0  0  0  0  0  0  0
    7.1451    0.0037   18.6014 C   0  0  0  0  0  0  0  0  0  0  0  0
    8.0761   -0.5159   18.3751 H   0  0  0  0  0  0  0  0  0  0  0  0
    5.0035    1.8426   16.9669 H   0  0  0  0  0  0  0  0  0  0  0  0
    3.8879    1.8732   19.1889 H   0  0  0  0  0  0  0  0  0  0  0  0
    4.9395    0.6335   21.1094 H   0  0  0  0  0  0  0  0  0  0  0  0
    8.2014   -1.3193   20.5735 H   0  0  0  0  0  0  0  0  0  0  0  0
    7.2181    0.8451   22.4542 H   0  0  0  0  0  0  0  0  0  0  0  0
    9.3352    2.8672   20.6089 H   0  0  0  0  0  0  0  0  0  0  0  0
    7.5890    2.4864   20.7236 H   0  0  0  0  0  0  0  0  0  0  0  0
    8.5468    2.8763   22.1921 H   0  0  0  0  0  0  0  0  0  0  0  0
  1  2  1  0
  2  3  1  0
  3  4  1  0
  4  5  1  0
  5  6  1  0
  5  7  1  0
  5  8  1  0
  3  9  1  0
  9 10  1  0
 10 11  1  0
 11 12  2  0
 11 13  1  0
 13 14  2  0
 14 15  1  0
 15 16  1  0
 16 17  2  0
 17 18  1  0
 18 19  1  0
 19 20  1  0
 19 21  1  0
 19 22  1  0
 18 23  2  0
 23 24  1  0
 24 25  2  0
 24 26  1  0
 23 27  1  0
 17 28  1  0
 15 29  1  0
 29 30  2  0
 30 31  1  0
 14 32  1  0
 10 33  1  0
  9 34  1  0
 34 35  2  0
 35 36  1  0
 36 37  2  0
 37 38  1  0
 38 39  2  0
 39 40  1  0
 37 41  1  0
 36 42  1  0
 35 43  1  0
  9 44  1  0
  3 45  1  0
  1 46  1  0
  1 47  1  0
  1 48  1  0
 30 13  1  0
 39 34  1  0
 25 16  1  0
M  END
>  <plip>  (1) 
-0.20689655172413793

>  <filename>  (1) 
[H][c]1[n][c]([H])[c]([C]([H])([N]([H])[C](=[O])[c]2[c]([H])[n][n](-[c]3[n][c]([H])[c]([H])[c]([C]([H])([H])[H])[c]3[H])[c]2[H])[C]([H])([O][C]([H])([H])[H])[O][C]([H])([H])[H])[c]([H])[c]1[H]

$$$$
