
     RDKit          3D

 40 43  0  0  0  0  0  0  0  0999 V2000
    4.9422    1.7609   16.8926 H   0  0  0  0  0  0  0  0  0  0  0  0
    5.3769    1.3499   17.7999 C   0  0  0  0  0  0  0  0  0  0  0  0
    6.5692    0.7522   17.6493 N   0  0  0  0  0  0  0  0  0  0  0  0
    7.1210    0.2185   18.7459 C   0  0  0  0  0  0  0  0  0  0  0  0
    8.0654   -0.3073   18.5880 H   0  0  0  0  0  0  0  0  0  0  0  0
    6.5689    0.2605   20.0428 C   0  0  0  0  0  0  0  0  0  0  0  0
    7.2880   -0.4372   21.2073 C   0  0  1  0  0  0  0  0  0  0  0  0
    6.7157   -0.2754   22.1309 H   0  0  0  0  0  0  0  0  0  0  0  0
    7.3200   -1.9558   20.9051 C   0  0  0  0  0  0  0  0  0  0  0  0
    7.5594   -2.0552   19.8491 H   0  0  0  0  0  0  0  0  0  0  0  0
    6.3104   -2.3676   21.0074 H   0  0  0  0  0  0  0  0  0  0  0  0
    8.2918   -2.7899   21.7551 C   0  0  1  0  0  0  0  0  0  0  0  0
    8.2160   -3.8479   21.4827 H   0  0  0  0  0  0  0  0  0  0  0  0
   10.0071   -2.2323   21.4555 S   0  0  0  0  0  0  0  0  0  0  0  0
    9.5805   -0.7363   22.3951 C   0  0  2  0  0  0  0  0  0  0  0  0
   10.4950   -0.2052   22.6590 H   0  0  0  0  0  0  0  0  0  0  0  0
    8.8904   -1.2775   23.6599 C   0  0  0  0  0  0  0  0  0  0  0  0
    9.6577   -1.5034   24.4072 H   0  0  0  0  0  0  0  0  0  0  0  0
    8.2413   -0.5123   24.0922 H   0  0  0  0  0  0  0  0  0  0  0  0
    8.1376   -2.5762   23.2730 C   0  0  0  0  0  0  0  0  0  0  0  0
    8.6069   -3.4248   23.7759 H   0  0  0  0  0  0  0  0  0  0  0  0
    7.0878   -2.5616   23.5832 H   0  0  0  0  0  0  0  0  0  0  0  0
    8.6984    0.1612   21.4881 C   0  0  2  0  0  0  0  0  0  0  0  0
    9.2322    0.2909   20.5396 H   0  0  0  0  0  0  0  0  0  0  0  0
    8.4874    1.4373   22.0923 O   0  0  0  0  0  0  0  0  0  0  0  0
    9.4799    2.3670   22.1405 C   0  0  0  0  0  0  0  0  0  0  0  0
   10.7833    2.2286   21.6333 C   0  0  0  0  0  0  0  0  0  0  0  0
   11.0926    1.3285   21.1097 H   0  0  0  0  0  0  0  0  0  0  0  0
   11.7064    3.2586   21.8588 C   0  0  0  0  0  0  0  0  0  0  0  0
   12.7210    3.1524   21.4850 H   0  0  0  0  0  0  0  0  0  0  0  0
   11.3532    4.4145   22.5604 C   0  0  0  0  0  0  0  0  0  0  0  0
   12.0696    5.2054   22.7467 H   0  0  0  0  0  0  0  0  0  0  0  0
   10.0288    4.5484   22.9978 C   0  0  0  0  0  0  0  0  0  0  0  0
    9.5351    5.9912   23.8294 Cl  0  0  0  0  0  0  0  0  0  0  0  0
    9.0956    3.5427   22.8024 C   0  0  0  0  0  0  0  0  0  0  0  0
    8.0804    3.6207   23.1765 H   0  0  0  0  0  0  0  0  0  0  0  0
    5.3181    0.8935   20.1651 C   0  0  0  0  0  0  0  0  0  0  0  0
    4.8174    0.9565   21.1326 H   0  0  0  0  0  0  0  0  0  0  0  0
    4.7100    1.4377   19.0252 C   0  0  0  0  0  0  0  0  0  0  0  0
    3.7399    1.9283   19.0631 H   0  0  0  0  0  0  0  0  0  0  0  0
  1  2  1  0
  2  3  2  0
  3  4  1  0
  4  5  1  0
  4  6  2  0
  6  7  1  0
  7  8  1  1
  7  9  1  0
  9 10  1  0
  9 11  1  0
  9 12  1  0
 12 13  1  1
 12 14  1  0
 14 15  1  0
 15 16  1  1
 15 17  1  0
 17 18  1  0
 17 19  1  0
 17 20  1  0
 20 21  1  0
 20 22  1  0
 15 23  1  0
 23 24  1  6
 23 25  1  0
 25 26  1  0
 26 27  2  0
 27 28  1  0
 27 29  1  0
 29 30  1  0
 29 31  2  0
 31 32  1  0
 31 33  1  0
 33 34  1  0
 33 35  2  0
 35 36  1  0
  6 37  1  0
 37 38  1  0
 37 39  2  0
 39 40  1  0
 39  2  1  0
 23  7  1  0
 35 26  1  0
 20 12  1  0
M  END
>  <plip>  (1) 
-0.10714285714285714

>  <filename>  (1) 
[H][c]1[n][c]([H])[c]([C@@]2([H])[C]([H])([H])[C@@]3([H])[S][C@]([H])([C]([H])([H])[C]3([H])[H])[C@]2([H])[O][c]2[c]([H])[c]([H])[c]([H])[c]([Cl])[c]2[H])[c]([H])[c]1[H]

$$$$
