
     RDKit          3D

 27 28  0  0  0  0  0  0  0  0999 V2000
    6.2783    0.4756   22.8060 O   0  0  0  0  0  0  0  0  0  0  0  0
    7.1955   -0.2069   22.3834 C   0  0  0  0  0  0  0  0  0  0  0  0
    7.9455   -1.1263   23.3604 C   0  0  0  0  0  0  0  0  0  0  0  0
    8.9562   -0.4450   24.1423 N   0  0  0  0  0  0  0  0  0  0  0  0
    8.9244   -0.0159   25.4370 C   0  0  0  0  0  0  0  0  0  0  0  0
   10.0365    0.5906   25.7661 N   0  0  0  0  0  0  0  0  0  0  0  0
   10.8198    0.5822   24.6514 C   0  0  0  0  0  0  0  0  0  0  0  0
   10.1797   -0.0600   23.6312 C   0  0  0  0  0  0  0  0  0  0  0  0
   10.7253   -0.3004   22.2463 C   0  0  0  0  0  0  0  0  0  0  0  0
   11.8253    0.2431   22.0456 O   0  0  0  0  0  0  0  0  0  0  0  0
   10.0934   -1.0138   21.4270 O   0  0  0  0  0  1  0  0  0  0  0  0
   11.7891    1.0699   24.6682 H   0  0  0  0  0  0  0  0  0  0  0  0
    8.0532   -0.1572   26.0736 H   0  0  0  0  0  0  0  0  0  0  0  0
    7.2042   -1.5032   24.0668 H   0  0  0  0  0  0  0  0  0  0  0  0
    8.4092   -1.9517   22.8210 H   0  0  0  0  0  0  0  0  0  0  0  0
    7.6058   -0.2721   21.0773 N   0  0  0  0  0  0  0  0  0  0  0  0
    6.9027    0.1996   19.9429 C   0  0  0  0  0  0  0  0  0  0  0  0
    5.6425    0.8000   20.0800 C   0  0  0  0  0  0  0  0  0  0  0  0
    4.9818    1.2510   18.9348 C   0  0  0  0  0  0  0  0  0  0  0  0
    5.5724    1.0778   17.6796 C   0  0  0  0  0  0  0  0  0  0  0  0
    6.7604    0.4755   17.5211 N   0  0  0  0  0  0  0  0  0  0  0  0
    7.3992    0.0481   18.6210 C   0  0  0  0  0  0  0  0  0  0  0  0
    8.3450   -0.4645   18.4526 H   0  0  0  0  0  0  0  0  0  0  0  0
    5.0777    1.4132   16.7690 H   0  0  0  0  0  0  0  0  0  0  0  0
    4.0052    1.7101   19.0179 H   0  0  0  0  0  0  0  0  0  0  0  0
    5.2066    0.8813   21.0705 H   0  0  0  0  0  0  0  0  0  0  0  0
    8.5684   -0.6447   21.0091 H   0  0  0  0  0  0  0  0  0  0  0  0
  1  2  2  0
  2  3  1  0
  3  4  1  0
  4  5  1  0
  5  6  2  0
  6  7  1  0
  7  8  2  0
  8  9  1  0
  9 10  2  0
  9 11  1  0
  7 12  1  0
  5 13  1  0
  3 14  1  0
  3 15  1  0
  2 16  1  0
 16 17  1  0
 17 18  2  0
 18 19  1  0
 19 20  2  0
 20 21  1  0
 21 22  2  0
 22 23  1  0
 20 24  1  0
 19 25  1  0
 18 26  1  0
 16 27  1  0
  8  4  1  0
 22 17  1  0
M  CHG  1  11  -1
M  END
>  <plip>  (1) 
-0.07142857142857142

>  <filename>  (1) 
[H][c]1[n][c]([H])[c]([N]([H])[C](=[O])[C]([H])([H])[n]2[c]([H])[n][c]([H])[c]2[C](=[O])[O-])[c]([H])[c]1[H]

$$$$
