
     RDKit          3D

 52 54  0  0  0  0  0  0  0  0999 V2000
   11.3691    8.3305   29.1510 C   0  0  0  0  0  0  0  0  0  0  0  0
   12.0078    7.5290   28.1788 O   0  0  0  0  0  0  0  0  0  0  0  0
   11.2646    6.8379   27.2841 C   0  0  0  0  0  0  0  0  0  0  0  0
    9.8823    6.6083   27.3755 C   0  0  0  0  0  0  0  0  0  0  0  0
    9.2581    5.7876   26.4372 C   0  0  0  0  0  0  0  0  0  0  0  0
    9.9924    5.1513   25.4191 C   0  0  0  0  0  0  0  0  0  0  0  0
    9.3925    4.1283   24.5513 C   0  0  0  0  0  0  0  0  0  0  0  0
    8.1059    3.9166   24.5159 N   0  0  0  0  0  0  0  0  0  0  0  0
    7.7602    2.9271   23.6457 C   0  0  0  0  0  0  0  0  0  0  0  0
    6.2910    2.6282   23.5160 C   0  0  0  0  0  0  0  0  0  0  0  0
    5.7149    3.4783   23.8881 H   0  0  0  0  0  0  0  0  0  0  0  0
    6.0090    2.4498   22.4731 H   0  0  0  0  0  0  0  0  0  0  0  0
    6.0130    1.7599   24.1268 H   0  0  0  0  0  0  0  0  0  0  0  0
    8.8213    2.3366   23.0095 C   0  0  0  0  0  0  0  0  0  0  0  0
    8.7952    1.3096   21.9518 C   0  0  0  0  0  0  0  0  0  0  0  0
    9.6051    1.2515   21.0361 O   0  0  0  0  0  0  0  0  0  0  0  0
    7.7938    0.4015   22.1079 N   0  0  0  0  0  0  0  0  0  0  0  0
    7.4580   -0.5604   21.0649 C   0  0  0  0  0  0  0  0  0  0  0  0
    6.7073    0.1406   19.9435 C   0  0  0  0  0  0  0  0  0  0  0  0
    5.4555    0.7420   20.1342 C   0  0  0  0  0  0  0  0  0  0  0  0
    4.8312    1.3495   19.0430 C   0  0  0  0  0  0  0  0  0  0  0  0
    5.4710    1.3184   17.7972 C   0  0  0  0  0  0  0  0  0  0  0  0
    6.6554    0.7280   17.5881 N   0  0  0  0  0  0  0  0  0  0  0  0
    7.2480    0.1665   18.6547 C   0  0  0  0  0  0  0  0  0  0  0  0
    8.2168   -0.3030   18.4746 H   0  0  0  0  0  0  0  0  0  0  0  0
    5.0044    1.7740   16.9255 H   0  0  0  0  0  0  0  0  0  0  0  0
    3.8703    1.8425   19.1445 H   0  0  0  0  0  0  0  0  0  0  0  0
    4.9662    0.7381   21.1126 H   0  0  0  0  0  0  0  0  0  0  0  0
    6.6990   -1.7977   21.6010 C   0  0  0  0  0  0  0  0  0  0  0  0
    7.4559   -2.4608   22.5801 O   0  0  0  0  0  0  0  0  0  0  0  0
    6.7540   -2.8744   23.7354 C   0  0  0  0  0  0  0  0  0  0  0  0
    5.8503   -3.4575   23.4983 H   0  0  0  0  0  0  0  0  0  0  0  0
    6.4583   -2.0187   24.3635 H   0  0  0  0  0  0  0  0  0  0  0  0
    7.4460   -3.5046   24.2991 H   0  0  0  0  0  0  0  0  0  0  0  0
    6.4886   -2.6093   20.4834 O   0  0  0  0  0  0  0  0  0  0  0  0
    5.7409   -3.7867   20.6783 C   0  0  0  0  0  0  0  0  0  0  0  0
    4.8043   -3.5987   21.2244 H   0  0  0  0  0  0  0  0  0  0  0  0
    6.3100   -4.5637   21.2043 H   0  0  0  0  0  0  0  0  0  0  0  0
    5.4950   -4.1407   19.6765 H   0  0  0  0  0  0  0  0  0  0  0  0
    5.7295   -1.4671   22.0209 H   0  0  0  0  0  0  0  0  0  0  0  0
    8.3954   -0.9668   20.6696 H   0  0  0  0  0  0  0  0  0  0  0  0
    7.1812    0.5338   22.8938 H   0  0  0  0  0  0  0  0  0  0  0  0
   10.3056    3.0696   23.5080 S   0  0  0  0  0  0  0  0  0  0  0  0
   11.3560    5.5005   25.3040 C   0  0  0  0  0  0  0  0  0  0  0  0
   12.0805    5.0093   24.3010 F   0  0  0  0  0  0  0  0  0  0  0  0
   11.9937    6.3218   26.2107 C   0  0  0  0  0  0  0  0  0  0  0  0
   13.0441    6.5516   26.1030 H   0  0  0  0  0  0  0  0  0  0  0  0
    8.1825    5.6173   26.4934 H   0  0  0  0  0  0  0  0  0  0  0  0
    9.3133    7.0658   28.1738 H   0  0  0  0  0  0  0  0  0  0  0  0
   10.7765    7.7368   29.8599 H   0  0  0  0  0  0  0  0  0  0  0  0
   10.7268    9.0892   28.6855 H   0  0  0  0  0  0  0  0  0  0  0  0
   12.1722    8.8240   29.6959 H   0  0  0  0  0  0  0  0  0  0  0  0
  1  2  1  0
  2  3  1  0
  3  4  2  0
  4  5  1  0
  5  6  2  0
  6  7  1  0
  7  8  2  0
  8  9  1  0
  9 10  1  0
 10 11  1  0
 10 12  1  0
 10 13  1  0
  9 14  2  0
 14 15  1  0
 15 16  2  0
 15 17  1  0
 17 18  1  0
 18 19  1  0
 19 20  2  0
 20 21  1  0
 21 22  2  0
 22 23  1  0
 23 24  2  0
 24 25  1  0
 22 26  1  0
 21 27  1  0
 20 28  1  0
 18 29  1  0
 29 30  1  0
 30 31  1  0
 31 32  1  0
 31 33  1  0
 31 34  1  0
 29 35  1  0
 35 36  1  0
 36 37  1  0
 36 38  1  0
 36 39  1  0
 29 40  1  0
 18 41  1  0
 17 42  1  0
 14 43  1  0
  6 44  1  0
 44 45  1  0
 44 46  2  0
 46 47  1  0
  5 48  1  0
  4 49  1  0
  1 50  1  0
  1 51  1  0
  1 52  1  0
 46  3  1  0
 43  7  1  0
 24 19  1  0
M  END
>  <plip>  (1) 
-0.17857142857142858

>  <filename>  (1) 
[H][c]1[n][c]([H])[c]([C]([H])([N]([H])[C](=[O])[c]2[s][c](-[c]3[c]([H])[c]([H])[c]([O][C]([H])([H])[H])[c]([H])[c]3[F])[n][c]2[C]([H])([H])[H])[C]([H])([O][C]([H])([H])[H])[O][C]([H])([H])[H])[c]([H])[c]1[H]

$$$$
