
     RDKit          3D

 32 33  0  0  0  0  0  0  0  0999 V2000
   10.2516   -4.9746   24.5222 N   0  0  0  0  0  0  0  0  0  0  0  0
    9.5296   -4.2691   23.6023 C   0  0  0  0  0  0  0  0  0  0  0  0
    9.8831   -3.1319   23.3194 O   0  0  0  0  0  0  0  0  0  0  0  0
    8.4189   -4.9744   22.9911 C   0  0  0  0  0  0  0  0  0  0  0  0
    8.3143   -6.3521   23.0484 C   0  0  0  0  0  0  0  0  0  0  0  0
    7.3247   -7.0601   22.5142 N   0  0  0  0  0  0  0  0  0  0  0  0
    6.3680   -6.3811   21.8672 C   0  0  0  0  0  0  0  0  0  0  0  0
    6.3958   -5.0108   21.6762 C   0  0  0  0  0  0  0  0  0  0  0  0
    7.4527   -4.2847   22.2356 C   0  0  0  0  0  0  0  0  0  0  0  0
    7.5719   -2.9643   22.0820 N   0  0  0  0  0  0  0  0  0  0  0  0
    6.8515   -2.2165   21.0873 C   0  0  0  0  0  0  0  0  0  0  0  0
    7.3641   -0.7770   21.0083 C   0  0  0  0  0  0  0  0  0  0  0  0
    6.6774    0.0174   19.9110 C   0  0  0  0  0  0  0  0  0  0  0  0
    5.4549    0.6622   20.1471 C   0  0  0  0  0  0  0  0  0  0  0  0
    4.8107    1.3122   19.0917 C   0  0  0  0  0  0  0  0  0  0  0  0
    5.4069    1.2943   17.8281 C   0  0  0  0  0  0  0  0  0  0  0  0
    6.5690    0.6780   17.5719 N   0  0  0  0  0  0  0  0  0  0  0  0
    7.1825    0.0691   18.5966 C   0  0  0  0  0  0  0  0  0  0  0  0
    8.1307   -0.4131   18.3503 H   0  0  0  0  0  0  0  0  0  0  0  0
    4.9346    1.7981   16.9865 H   0  0  0  0  0  0  0  0  0  0  0  0
    3.8727    1.8363   19.2335 H   0  0  0  0  0  0  0  0  0  0  0  0
    5.0187    0.6532   21.1483 H   0  0  0  0  0  0  0  0  0  0  0  0
    7.1999   -0.3069   21.9873 H   0  0  0  0  0  0  0  0  0  0  0  0
    8.4517   -0.8009   20.8422 H   0  0  0  0  0  0  0  0  0  0  0  0
    5.7766   -2.2194   21.3211 H   0  0  0  0  0  0  0  0  0  0  0  0
    6.9354   -2.6815   20.0922 H   0  0  0  0  0  0  0  0  0  0  0  0
    8.4520   -2.6070   22.4594 H   0  0  0  0  0  0  0  0  0  0  0  0
    5.6408   -4.4983   21.1014 H   0  0  0  0  0  0  0  0  0  0  0  0
    5.5497   -6.9747   21.4707 H   0  0  0  0  0  0  0  0  0  0  0  0
    9.0989   -6.9205   23.5453 H   0  0  0  0  0  0  0  0  0  0  0  0
    9.6949   -5.4852   25.1836 H   0  0  0  0  0  0  0  0  0  0  0  0
   10.9385   -4.3482   24.9147 H   0  0  0  0  0  0  0  0  0  0  0  0
  1  2  1  0
  2  3  2  0
  2  4  1  0
  4  5  2  0
  5  6  1  0
  6  7  2  0
  7  8  1  0
  8  9  2  0
  9 10  1  0
 10 11  1  0
 11 12  1  0
 12 13  1  0
 13 14  2  0
 14 15  1  0
 15 16  2  0
 16 17  1  0
 17 18  2  0
 18 19  1  0
 16 20  1  0
 15 21  1  0
 14 22  1  0
 12 23  1  0
 12 24  1  0
 11 25  1  0
 11 26  1  0
 10 27  1  0
  8 28  1  0
  7 29  1  0
  5 30  1  0
  1 31  1  0
  1 32  1  0
  9  4  1  0
 18 13  1  0
M  END
>  <plip>  (1) 
-0.034482758620689655

>  <filename>  (1) 
[H][c]1[n][c]([H])[c]([C]([H])([H])[C]([H])([H])[N]([H])[c]2[c]([H])[c]([H])[n][c]([H])[c]2[C](=[O])[N]([H])[H])[c]([H])[c]1[H]

$$$$
