
     RDKit          3D

 39 40  0  0  0  0  0  0  0  0999 V2000
    4.1911   -6.1295   29.7500 Br  0  0  0  0  0  0  0  0  0  0  0  0
    5.6516   -5.7319   28.5799 C   0  0  0  0  0  0  0  0  0  0  0  0
    6.7113   -4.9556   28.9708 C   0  0  0  0  0  0  0  0  0  0  0  0
    7.6917   -4.7723   27.9218 C   0  0  0  0  0  0  0  0  0  0  0  0
    7.3589   -5.4600   26.7793 C   0  0  0  0  0  0  0  0  0  0  0  0
    8.2755   -5.5237   25.5996 C   0  0  0  0  0  0  0  0  0  0  0  0
    7.5707   -4.8585   24.4921 N   0  0  0  0  0  4  0  0  0  0  0  0
    7.6883   -3.3871   24.5419 C   0  0  0  0  0  0  0  0  0  0  0  0
    6.9246   -2.7549   23.3767 C   0  0  0  0  0  0  0  0  0  0  0  0
    7.6153   -2.9642   22.0321 C   0  0  0  0  0  0  0  0  0  0  0  0
    6.9389   -2.0961   21.0433 N   0  0  0  0  0  4  0  0  0  0  0  0
    7.4005   -0.7031   21.0466 C   0  0  0  0  0  0  0  0  0  0  0  0
    6.6349   -0.0589   19.9354 C   0  0  0  0  0  0  0  0  0  0  0  0
    5.4252    0.6046   20.1749 C   0  0  0  0  0  0  0  0  0  0  0  0
    4.8281    1.2727   19.1071 C   0  0  0  0  0  0  0  0  0  0  0  0
    5.4315    1.2470   17.8481 C   0  0  0  0  0  0  0  0  0  0  0  0
    6.5653    0.5639   17.6094 N   0  0  0  0  0  0  0  0  0  0  0  0
    7.1590   -0.0709   18.6348 C   0  0  0  0  0  0  0  0  0  0  0  0
    8.1009   -0.5786   18.4414 H   0  0  0  0  0  0  0  0  0  0  0  0
    4.9812    1.8296   17.0485 H   0  0  0  0  0  0  0  0  0  0  0  0
    3.9169    1.8437   19.2407 H   0  0  0  0  0  0  0  0  0  0  0  0
    4.9759    0.6307   21.1679 H   0  0  0  0  0  0  0  0  0  0  0  0
    8.4851   -0.6327   20.8690 H   0  0  0  0  0  0  0  0  0  0  0  0
    7.1940   -0.2008   22.0034 H   0  0  0  0  0  0  0  0  0  0  0  0
    7.0685   -2.4694   20.1003 H   0  0  0  0  0  0  0  0  0  0  0  0
    5.9348   -2.0807   21.2493 H   0  0  0  0  0  0  0  0  0  0  0  0
    8.6825   -2.7129   22.1203 H   0  0  0  0  0  0  0  0  0  0  0  0
    7.5500   -4.0219   21.7413 H   0  0  0  0  0  0  0  0  0  0  0  0
    6.8421   -1.6790   23.5552 H   0  0  0  0  0  0  0  0  0  0  0  0
    5.9091   -3.1585   23.3397 H   0  0  0  0  0  0  0  0  0  0  0  0
    8.7378   -3.0636   24.5161 H   0  0  0  0  0  0  0  0  0  0  0  0
    7.2683   -3.0125   25.4870 H   0  0  0  0  0  0  0  0  0  0  0  0
    7.9393   -5.2037   23.6039 H   0  0  0  0  0  0  0  0  0  0  0  0
    6.5825   -5.1105   24.5692 H   0  0  0  0  0  0  0  0  0  0  0  0
    9.2327   -5.0302   25.8293 H   0  0  0  0  0  0  0  0  0  0  0  0
    8.4934   -6.5774   25.3770 H   0  0  0  0  0  0  0  0  0  0  0  0
    5.8043   -6.2974   26.9171 S   0  0  0  0  0  0  0  0  0  0  0  0
    8.5844   -4.1622   28.0609 H   0  0  0  0  0  0  0  0  0  0  0  0
    6.8066   -4.5082   29.9550 H   0  0  0  0  0  0  0  0  0  0  0  0
  1  2  1  0
  2  3  2  0
  3  4  1  0
  4  5  2  0
  5  6  1  0
  6  7  1  0
  7  8  1  0
  8  9  1  0
  9 10  1  0
 10 11  1  0
 11 12  1  0
 12 13  1  0
 13 14  2  0
 14 15  1  0
 15 16  2  0
 16 17  1  0
 17 18  2  0
 18 19  1  0
 16 20  1  0
 15 21  1  0
 14 22  1  0
 12 23  1  0
 12 24  1  0
 11 25  1  0
 11 26  1  0
 10 27  1  0
 10 28  1  0
  9 29  1  0
  9 30  1  0
  8 31  1  0
  8 32  1  0
  7 33  1  0
  7 34  1  0
  6 35  1  0
  6 36  1  0
  5 37  1  0
  4 38  1  0
  3 39  1  0
 37  2  1  0
 18 13  1  0
M  CHG  2   7   1  11   1
M  END
>  <plip>  (1) 
-0.07142857142857142

>  <filename>  (1) 
[H][c]1[n][c]([H])[c]([C]([H])([H])[N+]([H])([H])[C]([H])([H])[C]([H])([H])[C]([H])([H])[N+]([H])([H])[C]([H])([H])[c]2[s][c]([Br])[c]([H])[c]2[H])[c]([H])[c]1[H]

$$$$
