
     RDKit          3D

 22 23  0  0  0  0  0  0  0  0999 V2000
    4.8271    1.3272   19.1068 C   0  0  0  0  0  0  0  0  0  0  0  0
    5.4248    1.2958   17.8447 C   0  0  0  0  0  0  0  0  0  0  0  0
    6.5812    0.6659   17.5942 N   0  0  0  0  0  0  0  0  0  0  0  0
    7.1719    0.0635   18.6315 C   0  0  0  0  0  0  0  0  0  0  0  0
    6.6686    0.0359   19.9405 C   0  0  0  0  0  0  0  0  0  0  0  0
    7.4082   -0.7502   20.9961 C   0  0  0  0  0  0  0  0  0  0  0  0
    7.7914   -0.0130   22.2138 N   0  0  0  0  0  0  0  0  0  0  0  0
    8.6798    1.1068   22.0356 N   0  0  0  0  0  0  0  0  0  0  0  0
    8.9604    2.1083   22.9383 C   0  0  0  0  0  0  0  0  0  0  0  0
    9.9242    2.8671   22.4999 N   0  0  0  0  0  0  0  0  0  0  0  0
   10.3173    2.3753   21.2778 N   0  0  0  0  0  0  0  0  0  0  0  0
    9.5768    1.3325   21.0226 C   0  0  0  0  0  0  0  0  0  0  0  0
    9.6191    0.7347   20.1256 H   0  0  0  0  0  0  0  0  0  0  0  0
    8.4216    2.2461   23.8708 H   0  0  0  0  0  0  0  0  0  0  0  0
    6.9313    0.3501   22.6183 H   0  0  0  0  0  0  0  0  0  0  0  0
    6.7801   -1.5704   21.3551 H   0  0  0  0  0  0  0  0  0  0  0  0
    8.2944   -1.2415   20.5773 H   0  0  0  0  0  0  0  0  0  0  0  0
    5.4492    0.6900   20.1800 C   0  0  0  0  0  0  0  0  0  0  0  0
    4.9820    0.6897   21.1705 H   0  0  0  0  0  0  0  0  0  0  0  0
    8.0991   -0.4652   18.3980 H   0  0  0  0  0  0  0  0  0  0  0  0
    4.9498    1.7863   16.9987 H   0  0  0  0  0  0  0  0  0  0  0  0
    3.8816    1.8367   19.2306 H   0  0  0  0  0  0  0  0  0  0  0  0
  1  2  2  0
  2  3  1  0
  3  4  2  0
  4  5  1  0
  5  6  1  0
  6  7  1  0
  7  8  1  0
  8  9  1  0
  9 10  2  0
 10 11  1  0
 11 12  2  0
 12 13  1  0
  9 14  1  0
  7 15  1  0
  6 16  1  0
  6 17  1  0
  5 18  2  0
 18 19  1  0
  4 20  1  0
  2 21  1  0
  1 22  1  0
 18  1  1  0
 12  8  1  0
M  END
>  <plip>  (1) 
-0.10714285714285714

>  <filename>  (1) 
[H][c]1[n][c]([H])[c]([C]([H])([H])[N]([H])[n]2[c]([H])[n][n][c]2[H])[c]([H])[c]1[H]

$$$$
