
     RDKit          3D

 27 29  0  0  0  0  0  0  0  0999 V2000
    5.6399   -2.1488   21.5031 O   0  0  0  0  0  0  0  0  0  0  0  0
    6.7358   -1.6738   21.7217 C   0  0  0  0  0  0  0  0  0  0  0  0
    7.3429   -0.7460   20.9007 N   0  0  0  0  0  0  0  0  0  0  0  0
    6.6864   -0.0136   19.8638 C   0  0  0  0  0  0  0  0  0  0  0  0
    5.4705    0.6324   20.1159 C   0  0  0  0  0  0  0  0  0  0  0  0
    4.8437    1.3144   19.0657 C   0  0  0  0  0  0  0  0  0  0  0  0
    5.4452    1.3213   17.8017 C   0  0  0  0  0  0  0  0  0  0  0  0
    6.6189    0.7180   17.5443 N   0  0  0  0  0  0  0  0  0  0  0  0
    7.2175    0.0766   18.5578 C   0  0  0  0  0  0  0  0  0  0  0  0
    8.1654   -0.4103   18.3372 H   0  0  0  0  0  0  0  0  0  0  0  0
    4.9626    1.8124   16.9579 H   0  0  0  0  0  0  0  0  0  0  0  0
    3.8992    1.8301   19.2143 H   0  0  0  0  0  0  0  0  0  0  0  0
    5.0406    0.6036   21.1166 H   0  0  0  0  0  0  0  0  0  0  0  0
    8.2489   -0.4308   21.2060 H   0  0  0  0  0  0  0  0  0  0  0  0
    7.5766   -2.0862   22.9090 C   0  0  0  0  0  0  0  0  0  0  0  0
    6.9135   -2.2962   24.1441 C   0  0  0  0  0  0  0  0  0  0  0  0
    7.5542   -2.8491   25.2563 C   0  0  0  0  0  0  0  0  0  0  0  0
    8.8785   -3.2414   25.0571 C   0  0  0  0  0  0  0  0  0  0  0  0
    9.6971   -3.9572   25.8841 O   0  0  0  0  0  0  0  0  0  0  0  0
   10.8249   -4.1409   25.1360 C   0  0  0  0  0  0  0  0  0  0  0  0
   10.8385   -3.6152   23.9660 N   0  0  0  0  0  0  0  0  0  0  0  0
    9.5750   -3.0226   23.8656 C   0  0  0  0  0  0  0  0  0  0  0  0
    8.9463   -2.3877   22.7897 C   0  0  0  0  0  0  0  0  0  0  0  0
    9.5390   -2.2071   21.8956 H   0  0  0  0  0  0  0  0  0  0  0  0
   11.5958   -4.7391   25.6016 H   0  0  0  0  0  0  0  0  0  0  0  0
    7.0334   -3.0146   26.1969 H   0  0  0  0  0  0  0  0  0  0  0  0
    5.8536   -2.0570   24.2090 H   0  0  0  0  0  0  0  0  0  0  0  0
  1  2  2  0
  2  3  1  0
  3  4  1  0
  4  5  2  0
  5  6  1  0
  6  7  2  0
  7  8  1  0
  8  9  2  0
  9 10  1  0
  7 11  1  0
  6 12  1  0
  5 13  1  0
  3 14  1  0
  2 15  1  0
 15 16  2  0
 16 17  1  0
 17 18  2  0
 18 19  1  0
 19 20  1  0
 20 21  2  0
 21 22  1  0
 22 23  2  0
 23 24  1  0
 20 25  1  0
 17 26  1  0
 16 27  1  0
  9  4  1  0
 23 15  1  0
 22 18  1  0
M  END
>  <plip>  (1) 
-0.07142857142857142

>  <filename>  (1) 
[H][c]1[n][c]2[c]([H])[c]([C](=[O])[N]([H])[c]3[c]([H])[n][c]([H])[c]([H])[c]3[H])[c]([H])[c]([H])[c]2[o]1

$$$$
