
     RDKit          3D

 35 36  0  0  0  0  0  0  0  0999 V2000
    4.9836    1.7803   17.0516 H   0  0  0  0  0  0  0  0  0  0  0  0
    5.4401    1.2761   17.9022 C   0  0  0  0  0  0  0  0  0  0  0  0
    6.6073    0.6599   17.6593 N   0  0  0  0  0  0  0  0  0  0  0  0
    7.2112    0.0555   18.6906 C   0  0  0  0  0  0  0  0  0  0  0  0
    8.1536   -0.4463   18.4724 H   0  0  0  0  0  0  0  0  0  0  0  0
    6.6964    0.0003   20.0164 C   0  0  0  0  0  0  0  0  0  0  0  0
    7.4236   -0.6002   21.1015 N   0  0  0  0  0  0  0  0  0  0  0  0
    8.8891   -0.4964   21.1259 C   0  0  0  0  0  0  0  0  0  0  0  0
    9.1842    0.5506   20.9908 H   0  0  0  0  0  0  0  0  0  0  0  0
    9.2639   -0.8585   22.0870 H   0  0  0  0  0  0  0  0  0  0  0  0
    9.3397   -1.0974   20.3255 H   0  0  0  0  0  0  0  0  0  0  0  0
    6.7593   -1.7548   22.1464 S   0  0  0  0  0  0  0  0  0  0  0  0
    5.5145   -2.2549   21.5905 O   0  0  0  0  0  0  0  0  0  0  0  0
    7.8318   -2.6899   22.4591 O   0  0  0  0  0  0  0  0  0  0  0  0
    6.4638   -0.7984   23.6328 C   0  0  0  0  0  0  0  0  0  0  0  0
    5.8895   -1.4910   24.7135 C   0  0  0  0  0  0  0  0  0  0  0  0
    5.7829   -2.5780   24.7074 H   0  0  0  0  0  0  0  0  0  0  0  0
    5.3936   -0.7600   25.7926 C   0  0  0  0  0  0  0  0  0  0  0  0
    4.8560   -1.2713   26.5841 H   0  0  0  0  0  0  0  0  0  0  0  0
    5.5614    0.6222   25.8613 C   0  0  0  0  0  0  0  0  0  0  0  0
    5.1776    1.1799   26.7131 H   0  0  0  0  0  0  0  0  0  0  0  0
    6.2610    1.2594   24.8288 C   0  0  0  0  0  0  0  0  0  0  0  0
    6.7063    2.9685   24.9879 S   0  0  0  0  0  0  0  0  0  0  0  0
    5.9397    3.5359   26.0870 O   0  0  0  0  0  0  0  0  0  0  0  0
    6.7136    3.5611   23.6570 O   0  0  0  0  0  0  0  0  0  0  0  0
    8.3951    2.9055   25.5173 C   0  0  0  0  0  0  0  0  0  0  0  0
    8.7103    3.9427   25.6213 H   0  0  0  0  0  0  0  0  0  0  0  0
    8.9653    2.4074   24.7342 H   0  0  0  0  0  0  0  0  0  0  0  0
    8.4565    2.3811   26.4701 H   0  0  0  0  0  0  0  0  0  0  0  0
    6.6749    0.5783   23.6840 C   0  0  0  0  0  0  0  0  0  0  0  0
    7.1862    1.1043   22.8743 H   0  0  0  0  0  0  0  0  0  0  0  0
    5.4555    0.6197   20.2334 C   0  0  0  0  0  0  0  0  0  0  0  0
    5.0158    0.5889   21.2312 H   0  0  0  0  0  0  0  0  0  0  0  0
    4.8283    1.2732   19.1595 C   0  0  0  0  0  0  0  0  0  0  0  0
    3.8866    1.7942   19.2857 H   0  0  0  0  0  0  0  0  0  0  0  0
  1  2  1  0
  2  3  2  0
  3  4  1  0
  4  5  1  0
  4  6  2  0
  6  7  1  0
  7  8  1  0
  8  9  1  0
  8 10  1  0
  8 11  1  0
  7 12  1  0
 12 13  2  0
 12 14  2  0
 12 15  1  0
 15 16  2  0
 16 17  1  0
 16 18  1  0
 18 19  1  0
 18 20  2  0
 20 21  1  0
 20 22  1  0
 22 23  1  0
 23 24  2  0
 23 25  2  0
 23 26  1  0
 26 27  1  0
 26 28  1  0
 26 29  1  0
 22 30  2  0
 30 31  1  0
  6 32  1  0
 32 33  1  0
 32 34  2  0
 34 35  1  0
 34  2  1  0
 30 15  1  0
M  END
>  <plip>  (1) 
-0.034482758620689655

>  <filename>  (1) 
[H][c]1[n][c]([H])[c]([N]([C]([H])([H])[H])[S](=[O])(=[O])[c]2[c]([H])[c]([H])[c]([H])[c]([S](=[O])(=[O])[C]([H])([H])[H])[c]2[H])[c]([H])[c]1[H]

$$$$
