
     RDKit          3D

 44 46  0  0  0  0  0  0  0  0999 V2000
    7.4402   -1.2678   25.4805 C   0  0  0  0  0  0  0  0  0  0  0  0
    7.1004   -0.5473   24.1740 C   0  0  0  0  0  0  0  0  0  0  0  0
    8.3160   -0.4563   23.2630 C   0  0  0  0  0  0  0  0  0  0  0  0
    8.0033    0.2094   21.9455 N   0  0  0  0  0  4  0  0  0  0  0  0
    7.3615   -0.7498   20.9775 C   0  0  0  0  0  0  0  0  0  0  0  0
    6.6494    0.0110   19.8997 C   0  0  0  0  0  0  0  0  0  0  0  0
    5.4392    0.6644   20.1580 C   0  0  0  0  0  0  0  0  0  0  0  0
    4.8045    1.3170   19.1021 C   0  0  0  0  0  0  0  0  0  0  0  0
    5.3979    1.2995   17.8336 C   0  0  0  0  0  0  0  0  0  0  0  0
    6.5623    0.6852   17.5714 N   0  0  0  0  0  0  0  0  0  0  0  0
    7.1671    0.0743   18.5974 C   0  0  0  0  0  0  0  0  0  0  0  0
    8.1152   -0.4167   18.3701 H   0  0  0  0  0  0  0  0  0  0  0  0
    4.9203    1.7903   16.9890 H   0  0  0  0  0  0  0  0  0  0  0  0
    3.8720    1.8478   19.2487 H   0  0  0  0  0  0  0  0  0  0  0  0
    5.0134    0.6392   21.1686 H   0  0  0  0  0  0  0  0  0  0  0  0
    8.1456   -1.3962   20.5600 H   0  0  0  0  0  0  0  0  0  0  0  0
    6.6604   -1.3861   21.5314 H   0  0  0  0  0  0  0  0  0  0  0  0
    9.2468    0.8695   21.3450 C   0  0  0  0  0  0  0  0  0  0  0  0
    9.6460    2.0984   22.1219 C   0  0  0  0  0  0  0  0  0  0  0  0
   10.7974    2.0979   22.9358 C   0  0  0  0  0  0  0  0  0  0  0  0
   11.1897    3.2448   23.6382 C   0  0  0  0  0  0  0  0  0  0  0  0
   10.4106    4.3951   23.5150 C   0  0  0  0  0  0  0  0  0  0  0  0
   10.5730    5.7553   24.1233 C   0  0  0  0  0  0  0  0  0  0  0  0
    9.4831    6.5273   23.6294 O   0  0  0  0  0  0  0  0  0  0  0  0
    8.6472    5.7689   22.7585 C   0  0  0  0  0  0  0  0  0  0  0  0
    9.2594    4.4013   22.7147 C   0  0  0  0  0  0  0  0  0  0  0  0
    8.8653    3.2600   22.0228 C   0  0  0  0  0  0  0  0  0  0  0  0
    7.9783    3.2686   21.3854 H   0  0  0  0  0  0  0  0  0  0  0  0
    7.6189    5.7590   23.1495 H   0  0  0  0  0  0  0  0  0  0  0  0
    8.6038    6.2566   21.7718 H   0  0  0  0  0  0  0  0  0  0  0  0
   11.5228    6.2350   23.8448 H   0  0  0  0  0  0  0  0  0  0  0  0
   10.5412    5.7285   25.2225 H   0  0  0  0  0  0  0  0  0  0  0  0
   12.0797    3.2384   24.2644 H   0  0  0  0  0  0  0  0  0  0  0  0
   11.3914    1.1886   23.0225 H   0  0  0  0  0  0  0  0  0  0  0  0
   10.0651    0.1399   21.3437 H   0  0  0  0  0  0  0  0  0  0  0  0
    9.0190    1.1281   20.3099 H   0  0  0  0  0  0  0  0  0  0  0  0
    7.3263    0.9955   22.1151 H   0  0  0  0  0  0  0  0  0  0  0  0
    9.1152    0.0985   23.7596 H   0  0  0  0  0  0  0  0  0  0  0  0
    8.7149   -1.4619   23.0665 H   0  0  0  0  0  0  0  0  0  0  0  0
    6.7342    0.4671   24.3717 H   0  0  0  0  0  0  0  0  0  0  0  0
    6.2846   -1.0683   23.6579 H   0  0  0  0  0  0  0  0  0  0  0  0
    8.2389   -0.7493   26.0246 H   0  0  0  0  0  0  0  0  0  0  0  0
    7.7922   -2.2897   25.2903 H   0  0  0  0  0  0  0  0  0  0  0  0
    6.5761   -1.3351   26.1491 H   0  0  0  0  0  0  0  0  0  0  0  0
  1  2  1  0
  2  3  1  0
  3  4  1  0
  4  5  1  0
  5  6  1  0
  6  7  2  0
  7  8  1  0
  8  9  2  0
  9 10  1  0
 10 11  2  0
 11 12  1  0
  9 13  1  0
  8 14  1  0
  7 15  1  0
  5 16  1  0
  5 17  1  0
  4 18  1  0
 18 19  1  0
 19 20  2  0
 20 21  1  0
 21 22  2  0
 22 23  1  0
 23 24  1  0
 24 25  1  0
 25 26  1  0
 26 27  2  0
 27 28  1  0
 25 29  1  0
 25 30  1  0
 23 31  1  0
 23 32  1  0
 21 33  1  0
 20 34  1  0
 18 35  1  0
 18 36  1  0
  4 37  1  0
  3 38  1  0
  3 39  1  0
  2 40  1  0
  2 41  1  0
  1 42  1  0
  1 43  1  0
  1 44  1  0
 11  6  1  0
 27 19  1  0
 26 22  1  0
M  CHG  1   4   1
M  END
>  <plip>  (1) 
-0.03571428571428571

>  <filename>  (1) 
[H][c]1[n][c]([H])[c]([C]([H])([H])[N+]([H])([C]([H])([H])[c]2[c]([H])[c]([H])[c]3[c]([c]2[H])[C]([H])([H])[O][C]3([H])[H])[C]([H])([H])[C]([H])([H])[C]([H])([H])[H])[c]([H])[c]1[H]

$$$$
