
     RDKit          3D

 28 30  0  0  0  0  0  0  0  0999 V2000
    4.9157    1.7808   16.9939 H   0  0  0  0  0  0  0  0  0  0  0  0
    5.4023    1.2934   17.8373 C   0  0  0  0  0  0  0  0  0  0  0  0
    6.5669    0.6743   17.5820 N   0  0  0  0  0  0  0  0  0  0  0  0
    7.1779    0.0628   18.6014 C   0  0  0  0  0  0  0  0  0  0  0  0
    8.1165   -0.4336   18.3691 H   0  0  0  0  0  0  0  0  0  0  0  0
    6.6629    0.0052   19.9104 C   0  0  0  0  0  0  0  0  0  0  0  0
    7.3687   -0.6858   20.9405 N   0  0  0  0  0  0  0  0  0  0  0  0
    8.7465   -0.7982   21.0546 C   0  0  0  0  0  0  0  0  0  0  0  0
    9.4011   -0.3171   20.3356 H   0  0  0  0  0  0  0  0  0  0  0  0
    9.0287   -1.5137   22.1800 C   0  0  0  0  0  0  0  0  0  0  0  0
   10.0185   -1.7235   22.5703 H   0  0  0  0  0  0  0  0  0  0  0  0
    7.7826   -1.8689   22.8041 C   0  0  0  0  0  0  0  0  0  0  0  0
    7.5260   -2.5997   24.0845 C   0  0  0  0  0  0  0  0  0  0  0  0
    6.4804   -2.4522   24.6972 O   0  0  0  0  0  0  0  0  0  0  0  0
    8.5870   -3.5151   24.5965 C   0  0  0  0  0  0  0  0  0  0  0  0
    8.6024   -3.9269   26.2778 S   0  0  0  0  0  0  0  0  0  0  0  0
    9.9410   -4.9770   26.0556 C   0  0  0  0  0  0  0  0  0  0  0  0
   10.3627   -5.5336   26.8806 H   0  0  0  0  0  0  0  0  0  0  0  0
   10.3586   -5.0235   24.7577 C   0  0  0  0  0  0  0  0  0  0  0  0
   11.1962   -5.6304   24.4212 H   0  0  0  0  0  0  0  0  0  0  0  0
    9.5785   -4.1883   23.9144 C   0  0  0  0  0  0  0  0  0  0  0  0
    9.7186   -4.1059   22.8399 H   0  0  0  0  0  0  0  0  0  0  0  0
    6.7955   -1.3381   22.0062 C   0  0  0  0  0  0  0  0  0  0  0  0
    5.7196   -1.3902   22.1019 H   0  0  0  0  0  0  0  0  0  0  0  0
    5.4397    0.6459   20.1640 C   0  0  0  0  0  0  0  0  0  0  0  0
    5.0094    0.6419   21.1688 H   0  0  0  0  0  0  0  0  0  0  0  0
    4.8096    1.3087   19.1066 C   0  0  0  0  0  0  0  0  0  0  0  0
    3.8751    1.8418   19.2625 H   0  0  0  0  0  0  0  0  0  0  0  0
  1  2  1  0
  2  3  2  0
  3  4  1  0
  4  5  1  0
  4  6  2  0
  6  7  1  0
  7  8  1  0
  8  9  1  0
  8 10  2  0
 10 11  1  0
 10 12  1  0
 12 13  1  0
 13 14  2  0
 13 15  1  0
 15 16  1  0
 16 17  1  0
 17 18  1  0
 17 19  2  0
 19 20  1  0
 19 21  1  0
 21 22  1  0
 12 23  2  0
 23 24  1  0
  6 25  1  0
 25 26  1  0
 25 27  2  0
 27 28  1  0
 27  2  1  0
 23  7  1  0
 21 15  2  0
M  END
>  <plip>  (1) 
-0.07142857142857142

>  <filename>  (1) 
[H][c]1[n][c]([H])[c](-[n]2[c]([H])[c]([H])[c]([C](=[O])[c]3[s][c]([H])[c]([H])[c]3[H])[c]2[H])[c]([H])[c]1[H]

$$$$
