
     RDKit          3D

 36 38  0  0  0  0  0  0  0  0999 V2000
    6.8359   -3.3629   22.8050 H   0  0  0  0  0  0  0  0  0  0  0  0
    7.3436   -2.4866   22.4171 C   0  0  0  0  0  0  0  0  0  0  0  0
    8.5264   -2.1880   22.9542 N   0  0  0  0  0  0  0  0  0  0  0  0
    9.1215   -1.0985   22.4708 C   0  0  0  0  0  0  0  0  0  0  0  0
   10.0812   -0.8372   22.9131 H   0  0  0  0  0  0  0  0  0  0  0  0
    8.5981   -0.3314   21.4367 C   0  0  0  0  0  0  0  0  0  0  0  0
    9.3236    0.9245   21.0287 C   0  0  0  0  0  0  0  0  0  0  0  0
   10.3815    0.7117   20.8321 H   0  0  0  0  0  0  0  0  0  0  0  0
    8.8857    1.3558   20.1214 H   0  0  0  0  0  0  0  0  0  0  0  0
    9.3143    1.8724   22.0762 O   0  0  0  0  0  0  0  0  0  0  0  0
    8.1229    2.6535   22.1032 C   0  0  0  0  0  0  0  0  0  0  0  0
    8.0755    3.2724   21.2002 H   0  0  0  0  0  0  0  0  0  0  0  0
    7.2338    2.0006   22.1001 H   0  0  0  0  0  0  0  0  0  0  0  0
    8.1271    3.5395   23.3222 C   0  0  0  0  0  0  0  0  0  0  0  0
    8.6420    4.8440   23.2579 C   0  0  0  0  0  0  0  0  0  0  0  0
    9.0332    5.2251   22.3131 H   0  0  0  0  0  0  0  0  0  0  0  0
    8.6671    5.6503   24.3985 C   0  0  0  0  0  0  0  0  0  0  0  0
    9.0683    6.6595   24.3378 H   0  0  0  0  0  0  0  0  0  0  0  0
    8.1747    5.1570   25.6126 C   0  0  0  0  0  0  0  0  0  0  0  0
    8.1891    5.7835   26.4993 H   0  0  0  0  0  0  0  0  0  0  0  0
    7.6645    3.8562   25.6851 C   0  0  0  0  0  0  0  0  0  0  0  0
    7.2851    3.4650   26.6261 H   0  0  0  0  0  0  0  0  0  0  0  0
    7.6413    3.0524   24.5433 C   0  0  0  0  0  0  0  0  0  0  0  0
    7.2545    2.0352   24.6010 H   0  0  0  0  0  0  0  0  0  0  0  0
    7.3494   -0.7443   20.9661 C   0  0  0  0  0  0  0  0  0  0  0  0
    6.6465   -0.0007   19.9122 C   0  0  0  0  0  0  0  0  0  0  0  0
    7.1722    0.0445   18.6216 C   0  0  0  0  0  0  0  0  0  0  0  0
    8.1239   -0.4321   18.3800 H   0  0  0  0  0  0  0  0  0  0  0  0
    6.5716    0.6662   17.5973 N   0  0  0  0  0  0  0  0  0  0  0  0
    5.4100    1.2883   17.8478 C   0  0  0  0  0  0  0  0  0  0  0  0
    4.9224    1.7736   17.0032 H   0  0  0  0  0  0  0  0  0  0  0  0
    4.8094    1.3129   19.1118 C   0  0  0  0  0  0  0  0  0  0  0  0
    3.8749    1.8437   19.2621 H   0  0  0  0  0  0  0  0  0  0  0  0
    5.4338    0.6476   20.1647 C   0  0  0  0  0  0  0  0  0  0  0  0
    4.9928    0.6228   21.1656 H   0  0  0  0  0  0  0  0  0  0  0  0
    6.7171   -1.8167   21.4534 N   0  0  0  0  0  0  0  0  0  0  0  0
  1  2  1  0
  2  3  2  0
  3  4  1  0
  4  5  1  0
  4  6  2  0
  6  7  1  0
  7  8  1  0
  7  9  1  0
  7 10  1  0
 10 11  1  0
 11 12  1  0
 11 13  1  0
 11 14  1  0
 14 15  2  0
 15 16  1  0
 15 17  1  0
 17 18  1  0
 17 19  2  0
 19 20  1  0
 19 21  1  0
 21 22  1  0
 21 23  2  0
 23 24  1  0
  6 25  1  0
 25 26  1  0
 26 27  2  0
 27 28  1  0
 27 29  1  0
 29 30  2  0
 30 31  1  0
 30 32  1  0
 32 33  1  0
 32 34  2  0
 34 35  1  0
 25 36  2  0
 36  2  1  0
 23 14  1  0
 34 26  1  0
M  END
>  <plip>  (1) 
-0.07142857142857142

>  <filename>  (1) 
[H][c]1[n][c]([H])[c]([C]([H])([H])[O][C]([H])([H])[c]2[c]([H])[c]([H])[c]([H])[c]([H])[c]2[H])[c](-[c]2[c]([H])[n][c]([H])[c]([H])[c]2[H])[n]1

$$$$
