
     RDKit          3D

 21 21  0  0  0  0  0  0  0  0999 V2000
    7.7224   -7.1662   22.2512 H   0  0  0  0  0  0  0  0  0  0  0  0
    7.7537   -6.1017   22.1566 C   0  0  0  0  0  0  0  0  0  0  0  0
    7.7694   -4.9015   22.0778 C   0  0  0  0  0  0  0  0  0  0  0  0
    7.7136   -3.4430   22.0741 C   0  0  0  0  0  0  0  0  0  0  0  0
    6.6954   -3.1179   21.8125 H   0  0  0  0  0  0  0  0  0  0  0  0
    7.9973   -3.0384   23.0520 H   0  0  0  0  0  0  0  0  0  0  0  0
    8.6646   -2.9975   21.0611 O   0  0  0  0  0  0  0  0  0  0  0  0
    8.9537   -1.3935   20.9522 S   0  0  0  0  0  4  0  0  0  0  0  0
    9.2255   -0.8631   22.2986 O   0  0  0  0  0  0  0  0  0  0  0  0
    7.3039   -0.8721   20.8793 N   0  0  0  0  0  0  0  0  0  0  0  0
    7.2411   -0.4241   21.7977 H   0  0  0  0  0  0  0  0  0  0  0  0
    6.7220   -0.0996   19.8363 C   0  0  0  0  0  0  0  0  0  0  0  0
    7.2023    0.0056   18.5043 C   0  0  0  0  0  0  0  0  0  0  0  0
    8.1379   -0.4800   18.2268 H   0  0  0  0  0  0  0  0  0  0  0  0
    6.5653    0.6877   17.5407 N   0  0  0  0  0  0  0  0  0  0  0  0
    5.4148    1.3055   17.8558 C   0  0  0  0  0  0  0  0  0  0  0  0
    4.9143    1.8352   17.0443 H   0  0  0  0  0  0  0  0  0  0  0  0
    4.8636    1.2713   19.1397 C   0  0  0  0  0  0  0  0  0  0  0  0
    3.9340    1.7967   19.3297 H   0  0  0  0  0  0  0  0  0  0  0  0
    5.5303    0.5709   20.1461 C   0  0  0  0  0  0  0  0  0  0  0  0
    5.1397    0.5361   21.1645 H   0  0  0  0  0  0  0  0  0  0  0  0
  1  2  1  0
  2  3  3  0
  3  4  1  0
  4  5  1  0
  4  6  1  0
  4  7  1  0
  8  7  1  1
  8  9  2  0
  8 10  1  0
 10 11  1  0
 10 12  1  0
 12 13  2  0
 13 14  1  0
 13 15  1  0
 15 16  2  0
 16 17  1  0
 16 18  1  0
 18 19  1  0
 18 20  2  0
 20 21  1  0
 20 12  1  0
M  END
>  <plip>  (1) 
-0.1

>  <filename>  (1) 
[H][C]#[C][C]([H])([H])[O][S@](=[O])[N]([H])[c]1[c]([H])[n][c]([H])[c]([H])[c]1[H]

$$$$
