
     RDKit          3D

 37 39  0  0  0  0  0  0  0  0999 V2000
    9.5138   -0.2033   20.2806 O   0  0  0  0  0  0  0  0  0  0  0  0
    8.7094   -0.5387   21.1332 C   0  0  0  0  0  0  0  0  0  0  0  0
    7.3449   -0.4372   20.9453 N   0  0  0  0  0  0  0  0  0  0  0  0
    6.6535    0.1233   19.8398 C   0  0  0  0  0  0  0  0  0  0  0  0
    5.3983    0.7032   20.0706 C   0  0  0  0  0  0  0  0  0  0  0  0
    4.7332    1.3110   19.0014 C   0  0  0  0  0  0  0  0  0  0  0  0
    5.3247    1.2842   17.7326 C   0  0  0  0  0  0  0  0  0  0  0  0
    6.5062    0.6964   17.4832 N   0  0  0  0  0  0  0  0  0  0  0  0
    7.1567    0.1431   18.5134 C   0  0  0  0  0  0  0  0  0  0  0  0
    8.1261   -0.3021   18.3082 H   0  0  0  0  0  0  0  0  0  0  0  0
    4.8377    1.7543   16.8847 H   0  0  0  0  0  0  0  0  0  0  0  0
    3.7788    1.8093   19.1414 H   0  0  0  0  0  0  0  0  0  0  0  0
    4.9808    0.7041   21.0796 H   0  0  0  0  0  0  0  0  0  0  0  0
    6.7968   -0.8169   21.6903 H   0  0  0  0  0  0  0  0  0  0  0  0
    9.0760   -1.1154   22.3392 N   0  0  0  0  0  0  0  0  0  0  0  0
    8.4113   -0.9222   23.6378 C   0  0  0  0  0  0  0  0  0  0  0  0
    8.3077   -2.2598   24.3791 C   0  0  0  0  0  0  0  0  0  0  0  0
    9.7138   -2.8690   24.5232 C   0  0  0  0  0  0  0  0  0  0  0  0
    9.7626   -4.1040   25.3102 N   0  0  0  0  0  0  0  0  0  0  0  0
    9.6954   -5.3715   24.8437 C   0  0  0  0  0  0  0  0  0  0  0  0
    9.9710   -6.1914   25.9128 C   0  0  0  0  0  0  0  0  0  0  0  0
   10.0651   -7.9162   25.9051 Cl  0  0  0  0  0  0  0  0  0  0  0  0
   10.1509   -5.3180   27.0053 C   0  0  0  0  0  0  0  0  0  0  0  0
   10.0164   -4.0572   26.6251 N   0  0  0  0  0  0  0  0  0  0  0  0
   10.3991   -5.5503   28.0352 H   0  0  0  0  0  0  0  0  0  0  0  0
    9.4476   -5.5854   23.8156 H   0  0  0  0  0  0  0  0  0  0  0  0
   10.3183   -3.0384   23.1219 C   0  0  0  0  0  0  0  0  0  0  0  0
   10.4290   -1.6815   22.4461 C   0  0  0  0  0  0  0  0  0  0  0  0
   11.0849   -1.0200   23.0386 H   0  0  0  0  0  0  0  0  0  0  0  0
   10.8733   -1.7670   21.4506 H   0  0  0  0  0  0  0  0  0  0  0  0
   11.2934   -3.5300   23.1750 H   0  0  0  0  0  0  0  0  0  0  0  0
    9.6408   -3.6572   22.5209 H   0  0  0  0  0  0  0  0  0  0  0  0
   10.3341   -2.1529   25.0676 H   0  0  0  0  0  0  0  0  0  0  0  0
    7.8480   -2.1179   25.3602 H   0  0  0  0  0  0  0  0  0  0  0  0
    7.6648   -2.9447   23.8146 H   0  0  0  0  0  0  0  0  0  0  0  0
    8.9919   -0.2125   24.2575 H   0  0  0  0  0  0  0  0  0  0  0  0
    7.4207   -0.4737   23.5162 H   0  0  0  0  0  0  0  0  0  0  0  0
  1  2  2  0
  2  3  1  0
  3  4  1  0
  4  5  2  0
  5  6  1  0
  6  7  2  0
  7  8  1  0
  8  9  2  0
  9 10  1  0
  7 11  1  0
  6 12  1  0
  5 13  1  0
  3 14  1  0
  2 15  1  0
 15 16  1  0
 16 17  1  0
 17 18  1  0
 18 19  1  0
 19 20  1  0
 20 21  2  0
 21 22  1  0
 21 23  1  0
 23 24  2  0
 23 25  1  0
 20 26  1  0
 18 27  1  0
 27 28  1  0
 28 29  1  0
 28 30  1  0
 27 31  1  0
 27 32  1  0
 18 33  1  0
 17 34  1  0
 17 35  1  0
 16 36  1  0
 16 37  1  0
  9  4  1  0
 28 15  1  0
 24 19  1  0
M  END
>  <plip>  (1) 
-0.10344827586206896

>  <filename>  (1) 
[H][c]1[n][c]([H])[c]([N]([H])[C](=[O])[N]2[C]([H])([H])[C]([H])([H])[C]([H])([n]3[n][c]([H])[c]([Cl])[c]3[H])[C]([H])([H])[C]2([H])[H])[c]([H])[c]1[H]

$$$$
