
     RDKit          3D

 31 32  0  0  0  0  0  0  0  0999 V2000
    6.0767   -6.0615   27.3576 C   0  0  0  0  0  0  0  0  0  0  0  0
    7.0842   -5.2370   26.5847 C   0  0  0  0  0  0  0  0  0  0  0  0
    6.3561   -4.5587   25.5455 O   0  0  0  0  0  0  0  0  0  0  0  0
    7.2104   -3.7841   24.7923 N   0  0  0  0  0  0  0  0  0  0  0  0
    6.6195   -3.1469   23.8497 C   0  0  0  0  0  0  0  0  0  0  0  0
    7.3667   -2.2584   22.9137 C   0  0  0  0  0  0  0  0  0  0  0  0
    8.7563   -2.0602   23.0325 C   0  0  0  0  0  0  0  0  0  0  0  0
    9.4456   -1.2175   22.1551 C   0  0  0  0  0  0  0  0  0  0  0  0
    8.7648   -0.5532   21.1327 C   0  0  0  0  0  0  0  0  0  0  0  0
    7.3788   -0.7206   20.9872 C   0  0  0  0  0  0  0  0  0  0  0  0
    6.6519    0.0055   19.9096 C   0  0  0  0  0  0  0  0  0  0  0  0
    5.4288    0.6527   20.1485 C   0  0  0  0  0  0  0  0  0  0  0  0
    4.8009    1.3193   19.0945 C   0  0  0  0  0  0  0  0  0  0  0  0
    5.3958    1.2983   17.8277 C   0  0  0  0  0  0  0  0  0  0  0  0
    6.5566    0.6765   17.5671 N   0  0  0  0  0  0  0  0  0  0  0  0
    7.1636    0.0706   18.5976 C   0  0  0  0  0  0  0  0  0  0  0  0
    8.1047   -0.4225   18.3637 H   0  0  0  0  0  0  0  0  0  0  0  0
    4.9193    1.7904   16.9826 H   0  0  0  0  0  0  0  0  0  0  0  0
    3.8701    1.8473   19.2470 H   0  0  0  0  0  0  0  0  0  0  0  0
    5.0090    0.6435   21.1574 H   0  0  0  0  0  0  0  0  0  0  0  0
    6.6965   -1.5734   21.8774 C   0  0  0  0  0  0  0  0  0  0  0  0
    5.6267   -1.6768   21.7052 H   0  0  0  0  0  0  0  0  0  0  0  0
    9.2918    0.1188   20.4541 H   0  0  0  0  0  0  0  0  0  0  0  0
   10.5188   -1.0816   22.2614 H   0  0  0  0  0  0  0  0  0  0  0  0
    9.2895   -2.5747   23.8237 H   0  0  0  0  0  0  0  0  0  0  0  0
    5.5429   -3.2392   23.6906 H   0  0  0  0  0  0  0  0  0  0  0  0
    7.5787   -4.5113   27.2365 H   0  0  0  0  0  0  0  0  0  0  0  0
    7.8600   -5.8738   26.1509 H   0  0  0  0  0  0  0  0  0  0  0  0
    5.3074   -5.4316   27.8088 H   0  0  0  0  0  0  0  0  0  0  0  0
    5.5898   -6.8002   26.7179 H   0  0  0  0  0  0  0  0  0  0  0  0
    6.5683   -6.6065   28.1664 H   0  0  0  0  0  0  0  0  0  0  0  0
  1  2  1  0
  2  3  1  0
  3  4  1  0
  4  5  2  3
  5  6  1  0
  6  7  2  0
  7  8  1  0
  8  9  2  0
  9 10  1  0
 10 11  1  0
 11 12  2  0
 12 13  1  0
 13 14  2  0
 14 15  1  0
 15 16  2  0
 16 17  1  0
 14 18  1  0
 13 19  1  0
 12 20  1  0
 10 21  2  0
 21 22  1  0
  9 23  1  0
  8 24  1  0
  7 25  1  0
  5 26  1  0
  2 27  1  0
  2 28  1  0
  1 29  1  0
  1 30  1  0
  1 31  1  0
 21  6  1  0
 16 11  1  0
M  END
>  <plip>  (1) 
-0.03571428571428571

>  <filename>  (1) 
[H][C](=[N][O][C]([H])([H])[C]([H])([H])[H])[c]1[c]([H])[c]([H])[c]([H])[c](-[c]2[c]([H])[n][c]([H])[c]([H])[c]2[H])[c]1[H]

$$$$
