
     RDKit          3D

 31 33  0  0  0  0  0  0  0  0999 V2000
   10.6336   -5.2617   26.1261 C   0  0  0  0  0  0  0  0  0  0  0  0
    9.6110   -4.9118   25.0957 C   0  0  0  0  0  0  0  0  0  0  0  0
    9.5639   -3.6885   24.5639 N   0  0  0  0  0  0  0  0  0  0  0  0
    8.6239   -3.7988   23.6113 N   0  0  0  0  0  0  0  0  0  0  0  0
    8.2593   -2.7990   22.7666 C   0  0  0  0  0  0  0  0  0  0  0  0
    7.3528   -3.0597   21.7679 C   0  0  0  0  0  0  0  0  0  0  0  0
    7.0287   -2.0813   20.8421 N   0  0  0  0  0  0  0  0  0  0  0  0
    7.4142   -0.6878   20.9900 C   0  0  0  0  0  0  0  0  0  0  0  0
    6.6747    0.0670   19.9234 C   0  0  0  0  0  0  0  0  0  0  0  0
    5.4529    0.7067   20.1467 C   0  0  0  0  0  0  0  0  0  0  0  0
    4.8222    1.3304   19.0669 C   0  0  0  0  0  0  0  0  0  0  0  0
    5.4316    1.2769   17.8093 C   0  0  0  0  0  0  0  0  0  0  0  0
    6.5782    0.6183   17.5727 N   0  0  0  0  0  0  0  0  0  0  0  0
    7.1625    0.0165   18.6139 C   0  0  0  0  0  0  0  0  0  0  0  0
    8.0779   -0.5367   18.3987 H   0  0  0  0  0  0  0  0  0  0  0  0
    4.9742    1.7670   16.9501 H   0  0  0  0  0  0  0  0  0  0  0  0
    3.8737    1.8426   19.1830 H   0  0  0  0  0  0  0  0  0  0  0  0
    4.9941    0.7000   21.1380 H   0  0  0  0  0  0  0  0  0  0  0  0
    7.1661   -0.2953   21.9923 H   0  0  0  0  0  0  0  0  0  0  0  0
    8.5028   -0.5866   20.8427 H   0  0  0  0  0  0  0  0  0  0  0  0
    6.2407   -2.2332   20.2268 H   0  0  0  0  0  0  0  0  0  0  0  0
    6.8123   -4.4283   21.7235 C   0  0  0  0  0  0  0  0  0  0  0  0
    7.1383   -5.3882   22.5561 N   0  0  0  0  0  0  0  0  0  0  0  0
    8.0673   -5.0781   23.5240 C   0  0  0  0  0  0  0  0  0  0  0  0
    8.6886   -5.7961   24.5229 C   0  0  0  0  0  0  0  0  0  0  0  0
    8.4808   -6.7971   24.8428 H   0  0  0  0  0  0  0  0  0  0  0  0
    6.0967   -4.6863   20.9363 H   0  0  0  0  0  0  0  0  0  0  0  0
    8.7446   -1.8445   22.9305 H   0  0  0  0  0  0  0  0  0  0  0  0
   11.5928   -5.4328   25.6286 H   0  0  0  0  0  0  0  0  0  0  0  0
   10.3543   -6.1775   26.6480 H   0  0  0  0  0  0  0  0  0  0  0  0
   10.7401   -4.4706   26.8629 H   0  0  0  0  0  0  0  0  0  0  0  0
  1  2  1  0
  2  3  2  0
  3  4  1  0
  4  5  1  0
  5  6  2  0
  6  7  1  0
  7  8  1  0
  8  9  1  0
  9 10  2  0
 10 11  1  0
 11 12  2  0
 12 13  1  0
 13 14  2  0
 14 15  1  0
 12 16  1  0
 11 17  1  0
 10 18  1  0
  8 19  1  0
  8 20  1  0
  7 21  1  0
  6 22  1  0
 22 23  2  0
 23 24  1  0
 24 25  2  0
 25 26  1  0
 22 27  1  0
  5 28  1  0
  1 29  1  0
  1 30  1  0
  1 31  1  0
 25  2  1  0
 24  4  1  0
 14  9  1  0
M  END
>  <plip>  (1) 
-0.06896551724137931

>  <filename>  (1) 
[H][c]1[n][c]([H])[c]([C]([H])([H])[N]([H])[c]2[c]([H])[n][c]3[c]([H])[c]([C]([H])([H])[H])[n][n]3[c]2[H])[c]([H])[c]1[H]

$$$$
