
     RDKit          3D

 39 40  0  0  0  0  0  0  0  0999 V2000
    9.6026   -0.4629   22.2773 C   0  0  0  0  0  0  0  0  0  0  0  0
    8.4637    0.2224   21.5833 N   0  0  0  0  0  4  0  0  0  0  0  0
    7.8698    1.2574   22.5148 C   0  0  0  0  0  0  0  0  0  0  0  0
    7.4852    0.7716   23.4229 H   0  0  0  0  0  0  0  0  0  0  0  0
    7.0510    1.7935   22.0250 H   0  0  0  0  0  0  0  0  0  0  0  0
    8.6264    1.9926   22.8172 H   0  0  0  0  0  0  0  0  0  0  0  0
    7.4203   -0.7845   20.9826 C   0  0  0  0  0  0  0  0  0  0  0  0
    6.5567   -1.5265   22.0192 C   0  0  0  0  0  0  0  0  0  0  0  0
    7.2648   -2.5565   22.7872 N   0  0  0  0  0  0  0  0  0  0  0  0
    7.1301   -2.6947   24.1431 C   0  0  0  0  0  0  0  0  0  0  0  0
    6.2777   -1.8632   24.7571 N   0  0  0  0  0  0  0  0  0  0  0  0
    6.0827   -2.0412   26.0751 C   0  0  0  0  0  0  0  0  0  0  0  0
    6.7704   -3.0145   26.8163 C   0  0  0  0  0  0  0  0  0  0  0  0
    7.6854   -3.8098   26.2417 N   0  0  0  0  0  0  0  0  0  0  0  0
    7.8777   -3.6445   24.9132 C   0  0  0  0  0  0  0  0  0  0  0  0
    8.8805   -4.4513   24.1158 C   0  0  0  0  0  0  0  0  0  0  0  0
    9.7553   -3.6535   23.4420 F   0  0  0  0  0  0  0  0  0  0  0  0
    9.6063   -5.2971   24.8384 F   0  0  0  0  0  0  0  0  0  0  0  0
    8.2719   -5.1878   23.1417 F   0  0  0  0  0  0  0  0  0  0  0  0
    6.5729   -3.1742   27.8672 H   0  0  0  0  0  0  0  0  0  0  0  0
    5.3544   -1.3953   26.5528 H   0  0  0  0  0  0  0  0  0  0  0  0
    7.7605   -3.2703   22.2781 H   0  0  0  0  0  0  0  0  0  0  0  0
    6.1605   -0.7895   22.7152 H   0  0  0  0  0  0  0  0  0  0  0  0
    5.6932   -1.9454   21.4875 H   0  0  0  0  0  0  0  0  0  0  0  0
    6.6463   -0.0223   19.9167 C   0  0  0  0  0  0  0  0  0  0  0  0
    5.4291    0.6398   20.1457 C   0  0  0  0  0  0  0  0  0  0  0  0
    4.8083    1.3104   19.0878 C   0  0  0  0  0  0  0  0  0  0  0  0
    5.4270    1.3045   17.8359 C   0  0  0  0  0  0  0  0  0  0  0  0
    6.5984    0.6933   17.5973 N   0  0  0  0  0  0  0  0  0  0  0  0
    7.1903    0.0701   18.6230 C   0  0  0  0  0  0  0  0  0  0  0  0
    8.1470   -0.4002   18.3909 H   0  0  0  0  0  0  0  0  0  0  0  0
    4.9615    1.8054   16.9895 H   0  0  0  0  0  0  0  0  0  0  0  0
    3.8721    1.8462   19.2226 H   0  0  0  0  0  0  0  0  0  0  0  0
    4.9741    0.6528   21.1405 H   0  0  0  0  0  0  0  0  0  0  0  0
    8.0451   -1.5487   20.5043 H   0  0  0  0  0  0  0  0  0  0  0  0
    8.7829    0.7237   20.7224 H   0  0  0  0  0  0  0  0  0  0  0  0
    9.2582   -0.8826   23.2305 H   0  0  0  0  0  0  0  0  0  0  0  0
   10.4257    0.2281   22.4938 H   0  0  0  0  0  0  0  0  0  0  0  0
    9.9976   -1.2848   21.6713 H   0  0  0  0  0  0  0  0  0  0  0  0
  1  2  1  0
  2  3  1  0
  3  4  1  0
  3  5  1  0
  3  6  1  0
  2  7  1  0
  7  8  1  0
  8  9  1  0
  9 10  1  0
 10 11  2  0
 11 12  1  0
 12 13  2  0
 13 14  1  0
 14 15  2  0
 15 16  1  0
 16 17  1  0
 16 18  1  0
 16 19  1  0
 13 20  1  0
 12 21  1  0
  9 22  1  0
  8 23  1  0
  8 24  1  0
  7 25  1  0
 25 26  2  0
 26 27  1  0
 27 28  2  0
 28 29  1  0
 29 30  2  0
 30 31  1  0
 28 32  1  0
 27 33  1  0
 26 34  1  0
  7 35  1  0
  2 36  1  0
  1 37  1  0
  1 38  1  0
  1 39  1  0
 15 10  1  0
 30 25  1  0
M  CHG  1   2   1
M  END
>  <plip>  (1) 
-0.06896551724137931

>  <filename>  (1) 
[H][c]1[n][c]([N]([H])[C]([H])([H])[C]([H])([c]2[c]([H])[n][c]([H])[c]([H])[c]2[H])[N+]([H])([C]([H])([H])[H])[C]([H])([H])[H])[c]([C]([F])([F])[F])[n][c]1[H]

$$$$
