
     RDKit          3D

 42 44  0  0  0  0  0  0  0  0999 V2000
    5.7677   -3.6686   23.1724 C   0  0  0  0  0  0  0  0  0  0  0  0
    6.4653   -2.5139   22.6718 O   0  0  0  0  0  0  0  0  0  0  0  0
    6.5180   -2.3517   21.3315 C   0  0  0  0  0  0  0  0  0  0  0  0
    6.0479   -3.1124   20.5177 O   0  0  0  0  0  0  0  0  0  0  0  0
    7.3231   -1.0701   20.9378 C   0  0  0  0  0  0  0  0  0  0  0  0
    7.7100   -0.0451   22.1473 N   0  0  0  0  0  4  0  0  0  0  0  0
    8.9400    0.8774   21.9197 C   0  0  2  0  0  0  0  0  0  0  0  0
   10.2757    0.1986   22.1893 C   0  0  0  0  0  0  0  0  0  0  0  0
   11.0628    0.8395   21.7784 H   0  0  0  0  0  0  0  0  0  0  0  0
   10.3188   -0.7640   21.6690 H   0  0  0  0  0  0  0  0  0  0  0  0
   10.4730    0.0483   23.2554 H   0  0  0  0  0  0  0  0  0  0  0  0
    8.7434    2.2267   22.6017 C   0  0  0  0  0  0  0  0  0  0  0  0
    8.6576    3.3296   21.8180 C   0  0  0  0  0  0  0  0  0  0  0  0
    8.4001    4.8270   22.6405 S   0  0  0  0  0  0  0  0  0  0  0  0
    8.4138    3.9998   24.1738 C   0  0  0  0  0  0  0  0  0  0  0  0
    8.2294    4.5992   25.4358 C   0  0  0  0  0  0  0  0  0  0  0  0
    8.2822    3.7942   26.5636 C   0  0  0  0  0  0  0  0  0  0  0  0
    8.5233    2.4110   26.4417 C   0  0  0  0  0  0  0  0  0  0  0  0
    8.7064    1.8227   25.1947 C   0  0  0  0  0  0  0  0  0  0  0  0
    8.6355    2.6061   24.0170 C   0  0  0  0  0  0  0  0  0  0  0  0
    8.9060    0.7557   25.1244 H   0  0  0  0  0  0  0  0  0  0  0  0
    8.5625    1.8031   27.3398 H   0  0  0  0  0  0  0  0  0  0  0  0
    8.1380    4.2409   27.5451 H   0  0  0  0  0  0  0  0  0  0  0  0
    8.0456    5.6683   25.5261 H   0  0  0  0  0  0  0  0  0  0  0  0
    8.7708    3.3274   20.7443 H   0  0  0  0  0  0  0  0  0  0  0  0
    8.9219    1.0882   20.8475 H   0  0  0  0  0  0  0  0  0  0  0  0
    6.9041    0.6206   22.2318 H   0  0  0  0  0  0  0  0  0  0  0  0
    7.8267   -0.5291   23.0555 H   0  0  0  0  0  0  0  0  0  0  0  0
    6.6680   -0.2165   19.8625 C   0  0  0  0  0  0  0  0  0  0  0  0
    5.4139    0.3713   20.0909 C   0  0  0  0  0  0  0  0  0  0  0  0
    4.8686    1.1954   19.1064 C   0  0  0  0  0  0  0  0  0  0  0  0
    5.5707    1.3750   17.9108 C   0  0  0  0  0  0  0  0  0  0  0  0
    6.7478    0.7833   17.6522 N   0  0  0  0  0  0  0  0  0  0  0  0
    7.2728    0.0071   18.6115 C   0  0  0  0  0  0  0  0  0  0  0  0
    8.2032   -0.4995   18.3404 H   0  0  0  0  0  0  0  0  0  0  0  0
    5.1678    2.0167   17.1268 H   0  0  0  0  0  0  0  0  0  0  0  0
    3.9273    1.7128   19.2624 H   0  0  0  0  0  0  0  0  0  0  0  0
    4.8693    0.1672   21.0180 H   0  0  0  0  0  0  0  0  0  0  0  0
    8.2627   -1.4836   20.5600 H   0  0  0  0  0  0  0  0  0  0  0  0
    4.8163   -3.8300   22.6519 H   0  0  0  0  0  0  0  0  0  0  0  0
    5.5799   -3.4762   24.2317 H   0  0  0  0  0  0  0  0  0  0  0  0
    6.3948   -4.5610   23.0620 H   0  0  0  0  0  0  0  0  0  0  0  0
  1  2  1  0
  2  3  1  0
  3  4  2  0
  3  5  1  0
  5  6  1  0
  6  7  1  0
  7  8  1  0
  8  9  1  0
  8 10  1  0
  8 11  1  0
  7 12  1  0
 12 13  2  0
 13 14  1  0
 14 15  1  0
 15 16  2  0
 16 17  1  0
 17 18  2  0
 18 19  1  0
 19 20  2  0
 19 21  1  0
 18 22  1  0
 17 23  1  0
 16 24  1  0
 13 25  1  0
  7 26  1  6
  6 27  1  0
  6 28  1  0
  5 29  1  0
 29 30  2  0
 30 31  1  0
 31 32  2  0
 32 33  1  0
 33 34  2  0
 34 35  1  0
 32 36  1  0
 31 37  1  0
 30 38  1  0
  5 39  1  0
  1 40  1  0
  1 41  1  0
  1 42  1  0
 20 12  1  0
 34 29  1  0
 20 15  1  0
M  CHG  1   6   1
M  END
>  <plip>  (1) 
-0.10714285714285714

>  <filename>  (1) 
[H][c]1[n][c]([H])[c]([C]([H])([C](=[O])[O][C]([H])([H])[H])[N+]([H])([H])[C@@]([H])([c]2[c]([H])[s][c]3[c]([H])[c]([H])[c]([H])[c]([H])[c]23)[C]([H])([H])[H])[c]([H])[c]1[H]

$$$$
