
     RDKit          3D

 33 35  0  0  0  0  0  0  0  0999 V2000
    4.9107    1.7795   16.9960 H   0  0  0  0  0  0  0  0  0  0  0  0
    5.4016    1.2957   17.8347 C   0  0  0  0  0  0  0  0  0  0  0  0
    6.5655    0.6795   17.5613 N   0  0  0  0  0  0  0  0  0  0  0  0
    7.1714    0.0752   18.5911 C   0  0  0  0  0  0  0  0  0  0  0  0
    8.1131   -0.4273   18.3739 H   0  0  0  0  0  0  0  0  0  0  0  0
    6.6517    0.0114   19.8988 C   0  0  0  0  0  0  0  0  0  0  0  0
    7.3625   -0.7084   20.9734 C   0  0  0  0  0  0  0  0  0  0  0  0
    8.7747   -0.5536   21.1257 C   0  0  0  0  0  0  0  0  0  0  0  0
    9.3146    0.1150   20.4477 H   0  0  0  0  0  0  0  0  0  0  0  0
    9.4185   -1.2021   22.1327 C   0  0  0  0  0  0  0  0  0  0  0  0
   10.4809   -1.1207   22.2903 H   0  0  0  0  0  0  0  0  0  0  0  0
    8.7328   -2.0856   23.0724 C   0  0  0  0  0  0  0  0  0  0  0  0
    9.2977   -2.7032   23.9451 O   0  0  0  0  0  0  0  0  0  0  0  0
    7.3172   -2.2275   22.8401 N   0  0  0  0  0  0  0  0  0  0  0  0
    6.6008   -3.0439   23.7810 C   0  0  0  0  0  0  0  0  0  0  0  0
    6.7421   -2.8634   24.9611 O   0  0  0  0  0  0  0  0  0  0  0  0
    5.6534   -4.0786   23.2140 C   0  0  0  0  0  0  0  0  0  0  0  0
    4.6183   -4.5768   24.0335 C   0  0  0  0  0  0  0  0  0  0  0  0
    4.4955   -4.1990   25.0453 H   0  0  0  0  0  0  0  0  0  0  0  0
    3.7488   -5.5611   23.5730 C   0  0  0  0  0  0  0  0  0  0  0  0
    2.9484   -5.9510   24.1949 H   0  0  0  0  0  0  0  0  0  0  0  0
    3.9260   -6.0571   22.2848 C   0  0  0  0  0  0  0  0  0  0  0  0
    3.0809   -6.9987   21.8440 F   0  0  0  0  0  0  0  0  0  0  0  0
    4.9469   -5.6050   21.4500 C   0  0  0  0  0  0  0  0  0  0  0  0
    5.0585   -6.0155   20.4526 H   0  0  0  0  0  0  0  0  0  0  0  0
    5.8090   -4.6167   21.9229 C   0  0  0  0  0  0  0  0  0  0  0  0
    6.6161   -4.2685   21.2819 H   0  0  0  0  0  0  0  0  0  0  0  0
    6.6779   -1.5249   21.8305 C   0  0  0  0  0  0  0  0  0  0  0  0
    5.6016   -1.6717   21.7266 H   0  0  0  0  0  0  0  0  0  0  0  0
    5.4303    0.6495   20.1525 C   0  0  0  0  0  0  0  0  0  0  0  0
    5.0114    0.6359   21.1618 H   0  0  0  0  0  0  0  0  0  0  0  0
    4.8016    1.3180   19.1029 C   0  0  0  0  0  0  0  0  0  0  0  0
    3.8664    1.8490   19.2607 H   0  0  0  0  0  0  0  0  0  0  0  0
  1  2  1  0
  2  3  2  0
  3  4  1  0
  4  5  1  0
  4  6  2  0
  6  7  1  0
  7  8  1  0
  8  9  1  0
  8 10  2  0
 10 11  1  0
 10 12  1  0
 12 13  2  0
 12 14  1  0
 14 15  1  0
 15 16  2  0
 15 17  1  0
 17 18  2  0
 18 19  1  0
 18 20  1  0
 20 21  1  0
 20 22  2  0
 22 23  1  0
 22 24  1  0
 24 25  1  0
 24 26  2  0
 26 27  1  0
 14 28  1  0
 28 29  1  0
  6 30  1  0
 30 31  1  0
 30 32  2  0
 32 33  1  0
 32  2  1  0
 28  7  2  0
 26 17  1  0
M  END
>  <plip>  (1) 
-0.03571428571428571

>  <filename>  (1) 
[H][c]1[n][c]([H])[c](-[c]2[c]([H])[c]([H])[c](=[O])[n]([C](=[O])[c]3[c]([H])[c]([H])[c]([F])[c]([H])[c]3[H])[c]2[H])[c]([H])[c]1[H]

$$$$
