
     RDKit          3D

 34 36  0  0  0  0  0  0  0  0999 V2000
    5.1073   -3.9991   21.6923 O   0  0  0  0  0  0  0  0  0  0  0  0
    5.9681   -3.6622   22.4947 C   0  0  0  0  0  0  0  0  0  0  0  0
    5.8390   -4.1695   23.7541 N   0  0  0  0  0  0  0  0  0  0  0  0
    6.9381   -4.2697   24.5406 C   0  0  0  0  0  0  0  0  0  0  0  0
    6.7054   -4.9346   25.6605 N   0  0  0  0  0  0  0  0  0  0  0  0
    7.7403   -5.1434   26.4894 C   0  0  0  0  0  0  0  0  0  0  0  0
    9.0299   -4.6868   26.1967 C   0  0  0  0  0  0  0  0  0  0  0  0
   10.4577   -5.0860   27.3901 Br  0  0  0  0  0  0  0  0  0  0  0  0
    9.2621   -3.9641   25.0218 C   0  0  0  0  0  0  0  0  0  0  0  0
    8.1856   -3.7539   24.1552 C   0  0  0  0  0  0  0  0  0  0  0  0
    8.3771   -3.0285   22.8298 C   0  0  0  0  0  0  0  0  0  0  0  0
    7.0326   -2.5412   22.2545 C   0  0  0  0  0  0  0  0  0  0  0  0
    7.2702   -1.9256   20.8896 N   0  0  0  0  0  4  0  0  0  0  0  0
    7.6025   -0.5012   20.9792 C   0  0  0  0  0  0  0  0  0  0  0  0
    6.8455    0.0750   19.8355 C   0  0  0  0  0  0  0  0  0  0  0  0
    5.6871    0.8221   20.0595 C   0  0  0  0  0  0  0  0  0  0  0  0
    5.0418    1.3636   18.9519 C   0  0  0  0  0  0  0  0  0  0  0  0
    5.5551    1.1434   17.6712 C   0  0  0  0  0  0  0  0  0  0  0  0
    6.6567    0.4012   17.4569 N   0  0  0  0  0  0  0  0  0  0  0  0
    7.2867   -0.1233   18.5211 C   0  0  0  0  0  0  0  0  0  0  0  0
    8.1817   -0.7141   18.3499 H   0  0  0  0  0  0  0  0  0  0  0  0
    5.0441    1.5848   16.8205 H   0  0  0  0  0  0  0  0  0  0  0  0
    4.1509    1.9698   19.0683 H   0  0  0  0  0  0  0  0  0  0  0  0
    5.3006    0.9873   21.0652 H   0  0  0  0  0  0  0  0  0  0  0  0
    7.2588   -0.0609   21.9258 H   0  0  0  0  0  0  0  0  0  0  0  0
    8.6815   -0.3051   20.8931 H   0  0  0  0  0  0  0  0  0  0  0  0
    8.0244   -2.4122   20.4017 H   0  0  0  0  0  0  0  0  0  0  0  0
    6.4232   -1.9858   20.3087 H   0  0  0  0  0  0  0  0  0  0  0  0
    6.6778   -1.7532   22.9277 H   0  0  0  0  0  0  0  0  0  0  0  0
    8.8819   -3.6979   22.1265 H   0  0  0  0  0  0  0  0  0  0  0  0
    9.0207   -2.1556   22.9691 H   0  0  0  0  0  0  0  0  0  0  0  0
   10.2596   -3.6098   24.7647 H   0  0  0  0  0  0  0  0  0  0  0  0
    7.5812   -5.6904   27.4178 H   0  0  0  0  0  0  0  0  0  0  0  0
    5.1162   -4.8517   23.9195 H   0  0  0  0  0  0  0  0  0  0  0  0
  1  2  2  0
  2  3  1  0
  3  4  1  0
  4  5  2  0
  5  6  1  0
  6  7  2  0
  7  8  1  0
  7  9  1  0
  9 10  2  0
 10 11  1  0
 11 12  1  0
 12 13  1  0
 13 14  1  0
 14 15  1  0
 15 16  2  0
 16 17  1  0
 17 18  2  0
 18 19  1  0
 19 20  2  0
 20 21  1  0
 18 22  1  0
 17 23  1  0
 16 24  1  0
 14 25  1  0
 14 26  1  0
 13 27  1  0
 13 28  1  0
 12 29  1  0
 11 30  1  0
 11 31  1  0
  9 32  1  0
  6 33  1  0
  3 34  1  0
 12  2  1  0
 20 15  1  0
 10  4  1  0
M  CHG  1  13   1
M  END
>  <plip>  (1) 
-0.07142857142857142

>  <filename>  (1) 
[H][c]1[n][c]([H])[c]([C]([H])([H])[N+]([H])([H])[C]2([H])[C](=[O])[N]([H])[c]3[n][c]([H])[c]([Br])[c]([H])[c]3[C]2([H])[H])[c]([H])[c]1[H]

$$$$
