
     RDKit          3D

 40 41  0  0  0  0  0  0  0  0999 V2000
    4.8971   -5.0294   24.8335 C   0  0  0  0  0  0  0  0  0  0  0  0
    4.9709   -3.6197   24.2224 C   0  0  0  0  0  0  0  0  0  0  0  0
    5.5083   -2.6042   25.2394 C   0  0  0  0  0  0  0  0  0  0  0  0
    5.5468   -1.5886   24.8291 H   0  0  0  0  0  0  0  0  0  0  0  0
    4.8869   -2.5744   26.1420 H   0  0  0  0  0  0  0  0  0  0  0  0
    6.5249   -2.8709   25.5566 H   0  0  0  0  0  0  0  0  0  0  0  0
    5.8334   -3.6683   22.9459 C   0  0  0  0  0  0  0  0  0  0  0  0
    5.5215   -2.4164   21.6406 S   0  0  0  0  0  0  0  0  0  0  0  0
    6.1204   -2.9567   20.3995 O   0  0  0  0  0  0  0  0  0  0  0  0
    6.4624   -1.0796   22.1741 N   0  0  0  0  0  0  0  0  0  0  0  0
    7.3848   -0.4512   21.2018 C   0  0  0  0  0  0  0  0  0  0  0  0
    6.6304    0.1818   20.0299 C   0  0  0  0  0  0  0  0  0  0  0  0
    5.3722    0.7841   20.1953 C   0  0  0  0  0  0  0  0  0  0  0  0
    4.7780    1.4128   19.1032 C   0  0  0  0  0  0  0  0  0  0  0  0
    5.4461    1.4336   17.8754 C   0  0  0  0  0  0  0  0  0  0  0  0
    6.6513    0.8805   17.6941 N   0  0  0  0  0  0  0  0  0  0  0  0
    7.2177    0.2884   18.7553 C   0  0  0  0  0  0  0  0  0  0  0  0
    8.2165   -0.1032   18.5572 H   0  0  0  0  0  0  0  0  0  0  0  0
    5.0004    1.9162   17.0069 H   0  0  0  0  0  0  0  0  0  0  0  0
    3.8193    1.9046   19.1984 H   0  0  0  0  0  0  0  0  0  0  0  0
    4.8790    0.7415   21.1692 H   0  0  0  0  0  0  0  0  0  0  0  0
    8.1900    0.6364   21.9949 C   0  0  0  0  0  0  0  0  0  0  0  0
    9.6023    0.0565   22.2083 C   0  0  0  0  0  0  0  0  0  0  0  0
    9.8148   -0.7797   20.9480 C   0  0  0  0  0  0  0  0  0  0  0  0
    8.4723   -1.4791   20.7703 C   0  0  0  0  0  0  0  0  0  0  0  0
    8.4120   -2.3857   21.3809 H   0  0  0  0  0  0  0  0  0  0  0  0
    8.2926   -1.7915   19.7522 H   0  0  0  0  0  0  0  0  0  0  0  0
    9.9545   -0.1238   20.0785 H   0  0  0  0  0  0  0  0  0  0  0  0
   10.6674   -1.4637   21.0087 H   0  0  0  0  0  0  0  0  0  0  0  0
   10.3703    0.8247   22.3476 H   0  0  0  0  0  0  0  0  0  0  0  0
    9.6229   -0.5912   23.1017 H   0  0  0  0  0  0  0  0  0  0  0  0
    7.6776    0.8722   22.9343 H   0  0  0  0  0  0  0  0  0  0  0  0
    8.2398    1.5728   21.4237 H   0  0  0  0  0  0  0  0  0  0  0  0
    7.0075   -1.3376   22.9945 H   0  0  0  0  0  0  0  0  0  0  0  0
    5.6668   -4.6050   22.4069 H   0  0  0  0  0  0  0  0  0  0  0  0
    6.9082   -3.6414   23.1807 H   0  0  0  0  0  0  0  0  0  0  0  0
    3.9445   -3.3337   23.9494 H   0  0  0  0  0  0  0  0  0  0  0  0
    5.8893   -5.3953   25.1319 H   0  0  0  0  0  0  0  0  0  0  0  0
    4.4750   -5.7460   24.1178 H   0  0  0  0  0  0  0  0  0  0  0  0
    4.2594   -5.0505   25.7250 H   0  0  0  0  0  0  0  0  0  0  0  0
  1  2  1  0
  2  3  1  0
  3  4  1  0
  3  5  1  0
  3  6  1  0
  2  7  1  0
  7  8  1  0
  8  9  2  0
  8 10  1  0
 10 11  1  0
 11 12  1  0
 12 13  2  0
 13 14  1  0
 14 15  2  0
 15 16  1  0
 16 17  2  0
 17 18  1  0
 15 19  1  0
 14 20  1  0
 13 21  1  0
 11 22  1  0
 22 23  1  0
 23 24  1  0
 24 25  1  0
 25 26  1  0
 25 27  1  0
 24 28  1  0
 24 29  1  0
 23 30  1  0
 23 31  1  0
 22 32  1  0
 22 33  1  0
 10 34  1  0
  7 35  1  0
  7 36  1  0
  2 37  1  0
  1 38  1  0
  1 39  1  0
  1 40  1  0
 25 11  1  0
 17 12  1  0
M  END
>  <plip>  (1) 
-0.06896551724137931

>  <filename>  (1) 
[H][c]1[n][c]([H])[c]([C]2([N]([H])[S](=[O])[C]([H])([H])[C]([H])([C]([H])([H])[H])[C]([H])([H])[H])[C]([H])([H])[C]([H])([H])[C]([H])([H])[C]2([H])[H])[c]([H])[c]1[H]

$$$$
