
     RDKit          3D

 40 42  0  0  0  0  0  0  0  0999 V2000
    7.8961   -2.8491   22.2848 C   0  0  0  0  0  0  0  0  0  0  0  0
    7.2694   -2.1009   21.1060 C   0  0  0  0  0  0  0  0  0  0  0  0
    5.9523   -2.8044   20.7497 C   0  0  0  0  0  0  0  0  0  0  0  0
    5.2575   -2.7637   21.5940 H   0  0  0  0  0  0  0  0  0  0  0  0
    5.4833   -2.3296   19.8826 H   0  0  0  0  0  0  0  0  0  0  0  0
    6.1417   -3.8551   20.5095 H   0  0  0  0  0  0  0  0  0  0  0  0
    7.0637   -0.6014   21.3817 C   0  0  0  0  0  0  0  0  0  0  0  0
    8.3356    0.0457   21.6886 N   0  0  0  0  0  0  0  0  0  0  0  0
    8.4725    1.1051   22.5671 C   0  0  0  0  0  0  0  0  0  0  0  0
    7.5313    1.3755   23.3024 O   0  0  0  0  0  0  0  0  0  0  0  0
    9.6975    1.9497   22.5931 C   0  0  0  0  0  0  0  0  0  0  0  0
    9.6693    3.3269   22.6794 C   0  0  0  0  0  0  0  0  0  0  0  0
   10.9796    3.7334   22.6993 N   0  0  0  0  0  0  0  0  0  0  0  0
   11.4749    5.0356   22.7962 C   0  0  0  0  0  0  0  0  0  0  0  0
   10.2754    6.5217   22.9104 Br  0  0  0  0  0  0  0  0  0  0  0  0
   12.8446    5.2211   22.8158 C   0  0  0  0  0  0  0  0  0  0  0  0
   13.7547    4.0588   22.7146 C   0  0  0  0  0  0  0  0  0  0  0  0
   13.2378    2.7788   22.6224 C   0  0  0  0  0  0  0  0  0  0  0  0
   11.7752    2.6044   22.6043 C   0  0  0  0  0  0  0  0  0  0  0  0
   11.0336    1.5207   22.4997 N   0  0  0  0  0  0  0  0  0  0  0  0
   13.9122    1.9259   22.6045 H   0  0  0  0  0  0  0  0  0  0  0  0
   14.8323    4.1961   22.7427 H   0  0  0  0  0  0  0  0  0  0  0  0
   13.2298    6.2312   22.8972 H   0  0  0  0  0  0  0  0  0  0  0  0
    8.8110    3.9923   22.7160 H   0  0  0  0  0  0  0  0  0  0  0  0
    9.1272   -0.1417   21.0865 H   0  0  0  0  0  0  0  0  0  0  0  0
    6.5340    0.0847   20.1489 C   0  0  0  0  0  0  0  0  0  0  0  0
    5.3187    0.7679   20.1821 C   0  0  0  0  0  0  0  0  0  0  0  0
    4.8726    1.3669   19.0069 C   0  0  0  0  0  0  0  0  0  0  0  0
    5.6337    1.2720   17.8401 C   0  0  0  0  0  0  0  0  0  0  0  0
    6.7976    0.5996   17.7997 N   0  0  0  0  0  0  0  0  0  0  0  0
    7.2395    0.0238   18.9336 C   0  0  0  0  0  0  0  0  0  0  0  0
    8.1718   -0.5323   18.8831 H   0  0  0  0  0  0  0  0  0  0  0  0
    5.2706    1.7590   16.9386 H   0  0  0  0  0  0  0  0  0  0  0  0
    3.9435    1.9206   18.9857 H   0  0  0  0  0  0  0  0  0  0  0  0
    4.7374    0.8293   21.1002 H   0  0  0  0  0  0  0  0  0  0  0  0
    6.3591   -0.4929   22.2166 H   0  0  0  0  0  0  0  0  0  0  0  0
    7.9519   -2.1651   20.2626 H   0  0  0  0  0  0  0  0  0  0  0  0
    7.2548   -2.7741   23.1682 H   0  0  0  0  0  0  0  0  0  0  0  0
    8.8806   -2.4327   22.5219 H   0  0  0  0  0  0  0  0  0  0  0  0
    8.0160   -3.9081   22.0284 H   0  0  0  0  0  0  0  0  0  0  0  0
  1  2  1  0
  2  3  1  0
  3  4  1  0
  3  5  1  0
  3  6  1  0
  2  7  1  0
  7  8  1  0
  8  9  1  0
  9 10  2  0
  9 11  1  0
 11 12  2  0
 12 13  1  0
 13 14  1  0
 14 15  1  0
 14 16  2  0
 16 17  1  0
 17 18  2  0
 18 19  1  0
 19 20  2  0
 18 21  1  0
 17 22  1  0
 16 23  1  0
 12 24  1  0
  8 25  1  0
  7 26  1  0
 26 27  2  0
 27 28  1  0
 28 29  2  0
 29 30  1  0
 30 31  2  0
 31 32  1  0
 29 33  1  0
 28 34  1  0
 27 35  1  0
  7 36  1  0
  2 37  1  0
  1 38  1  0
  1 39  1  0
  1 40  1  0
 20 11  1  0
 31 26  1  0
 19 13  1  0
M  END
>  <plip>  (1) 
-0.03571428571428571

>  <filename>  (1) 
[H][c]1[n][c]([H])[c]([C]([H])([N]([H])[C](=[O])[c]2[n][c]3[c]([H])[c]([H])[c]([H])[c]([Br])[n]3[c]2[H])[C]([H])([C]([H])([H])[H])[C]([H])([H])[H])[c]([H])[c]1[H]

$$$$
