
     RDKit          3D

 27 29  0  0  0  0  0  0  0  0999 V2000
    5.7235    1.4275   17.2377 H   0  0  0  0  0  0  0  0  0  0  0  0
    6.0877    0.7243   17.9840 C   0  0  0  0  0  0  0  0  0  0  0  0
    7.2180    0.0679   17.6787 N   0  0  0  0  0  0  0  0  0  0  0  0
    7.7092   -0.7836   18.5790 C   0  0  0  0  0  0  0  0  0  0  0  0
    8.6385   -1.2824   18.3073 H   0  0  0  0  0  0  0  0  0  0  0  0
    7.1030   -1.0549   19.8379 C   0  0  0  0  0  0  0  0  0  0  0  0
    8.0750   -1.9980   20.9977 S   0  0  0  0  0  0  0  0  0  0  0  0
    6.9775   -3.1935   21.9089 C   0  0  0  0  0  0  0  0  0  0  0  0
    8.1810   -3.9370   22.8899 S   0  0  0  0  0  0  0  0  0  0  0  0
    5.3578   -3.5634   21.7903 C   0  0  0  0  0  0  0  0  0  0  0  0
    4.9387   -5.7924   21.3664 S   0  0  0  0  0  0  0  0  0  0  0  0
    4.0415   -5.2739   22.6797 C   0  0  0  0  0  0  0  0  0  0  0  0
    3.0326   -5.8567   23.4363 C   0  0  0  0  0  0  0  0  0  0  0  0
    2.6212   -6.8260   23.1571 H   0  0  0  0  0  0  0  0  0  0  0  0
    2.5972   -5.1980   24.5668 C   0  0  0  0  0  0  0  0  0  0  0  0
    1.8001   -5.6405   25.1657 H   0  0  0  0  0  0  0  0  0  0  0  0
    3.1735   -3.9888   24.9922 C   0  0  0  0  0  0  0  0  0  0  0  0
    2.8249   -3.5442   25.9295 H   0  0  0  0  0  0  0  0  0  0  0  0
    4.1504   -3.3702   24.2516 C   0  0  0  0  0  0  0  0  0  0  0  0
    4.6040   -2.4399   24.5732 H   0  0  0  0  0  0  0  0  0  0  0  0
    4.5284   -3.9398   22.9444 C   0  0  0  0  0  0  0  0  0  0  0  0
    5.4379   -3.4026   21.7957 C   0  0  0  0  0  0  0  0  0  0  0  0
    5.3786   -1.9969   21.8910 H   0  0  0  0  0  0  0  0  0  0  0  0
    5.9047   -0.3833   20.1172 C   0  0  0  0  0  0  0  0  0  0  0  0
    5.3852   -0.5327   21.0628 H   0  0  0  0  0  0  0  0  0  0  0  0
    5.4060    0.5340   19.1829 C   0  0  0  0  0  0  0  0  0  0  0  0
    4.4985    1.0885   19.3846 H   0  0  0  0  0  0  0  0  0  0  0  0
  1  2  1  0
  2  3  2  0
  3  4  1  0
  4  5  1  0
  4  6  2  0
  6  7  1  0
  7  8  1  0
  8  9  2  0
  8 10  1  0
 10 11  1  0
 11 12  1  0
 12 13  2  0
 13 14  1  0
 13 15  1  0
 15 16  1  0
 15 17  2  0
 17 18  1  0
 17 19  1  0
 19 20  1  0
 19 21  2  0
 21 22  1  0
 22 23  1  0
  6 24  1  0
 24 25  1  0
 24 26  2  0
 26 27  1  0
 26  2  1  0
 22 10  2  0
 21 12  1  0
M  END
>  <plip>  (1) 
-0.0

>  <filename>  (1) 
[H][c]1[n][c]([H])[c]([S][C](=[S])[c]2[s][c]3[c]([H])[c]([H])[c]([H])[c]([H])[c]3[c]2[H])[c]([H])[c]1[H]

$$$$
