
     RDKit          3D

 36 39  0  0  0  0  0  0  0  0999 V2000
    8.5121    5.6460   25.4318 H   0  0  0  0  0  0  0  0  0  0  0  0
    8.4079    4.8572   25.9758 O   0  0  0  0  0  0  0  0  0  0  0  0
    8.6519    3.7834   25.1793 C   0  0  0  0  0  0  0  0  0  0  0  0
    9.0472    3.9203   23.8430 C   0  0  0  0  0  0  0  0  0  0  0  0
    9.1511    4.9154   23.4115 H   0  0  0  0  0  0  0  0  0  0  0  0
    9.3061    2.7805   23.0797 C   0  0  0  0  0  0  0  0  0  0  0  0
    9.6193    2.8599   22.0403 H   0  0  0  0  0  0  0  0  0  0  0  0
    9.1616    1.5021   23.6488 C   0  0  0  0  0  0  0  0  0  0  0  0
    9.4609    0.4555   22.8115 O   0  0  0  0  0  0  0  0  0  0  0  0
    9.2777   -0.8693   23.2342 C   0  0  2  0  0  0  0  0  0  0  0  0
    9.9214   -1.1868   24.0537 H   0  0  0  0  0  0  0  0  0  0  0  0
    9.0201   -1.8614   22.1455 C   0  0  2  0  0  0  0  0  0  0  0  0
    9.5481   -2.8024   22.1609 H   0  0  0  0  0  0  0  0  0  0  0  0
    8.6644   -1.2928   20.7915 C   0  0  0  0  0  0  0  0  0  0  0  0
    8.5740   -2.1033   20.0796 H   0  0  0  0  0  0  0  0  0  0  0  0
    9.4301   -0.5990   20.4225 H   0  0  0  0  0  0  0  0  0  0  0  0
    7.3788   -0.6299   20.9726 N   0  0  0  0  0  0  0  0  0  0  0  0
    6.7032   -0.0055   19.9440 C   0  0  0  0  0  0  0  0  0  0  0  0
    7.1939    0.0471   18.5999 C   0  0  0  0  0  0  0  0  0  0  0  0
    8.1404   -0.4336   18.3506 H   0  0  0  0  0  0  0  0  0  0  0  0
    6.5780    0.6603   17.5798 N   0  0  0  0  0  0  0  0  0  0  0  0
    5.4169    1.2798   17.8466 C   0  0  0  0  0  0  0  0  0  0  0  0
    4.9448    1.7875   17.0100 H   0  0  0  0  0  0  0  0  0  0  0  0
    4.8237    1.2922   19.1125 C   0  0  0  0  0  0  0  0  0  0  0  0
    3.8857    1.8214   19.2711 H   0  0  0  0  0  0  0  0  0  0  0  0
    5.4620    0.6395   20.1698 C   0  0  0  0  0  0  0  0  0  0  0  0
    5.0190    0.6276   21.1646 H   0  0  0  0  0  0  0  0  0  0  0  0
    6.8564   -0.7478   22.3348 C   0  0  0  0  0  0  0  0  0  0  0  0
    6.6542    0.2338   22.7861 H   0  0  0  0  0  0  0  0  0  0  0  0
    5.9290   -1.3274   22.3298 H   0  0  0  0  0  0  0  0  0  0  0  0
    7.9176   -1.5097   23.1011 C   0  0  2  0  0  0  0  0  0  0  0  0
    7.5777   -2.1863   23.8750 H   0  0  0  0  0  0  0  0  0  0  0  0
    8.7461    1.3701   24.9858 C   0  0  0  0  0  0  0  0  0  0  0  0
    8.6219    0.3804   25.4233 H   0  0  0  0  0  0  0  0  0  0  0  0
    8.4994    2.5189   25.7487 C   0  0  0  0  0  0  0  0  0  0  0  0
    8.1898    2.4862   26.7909 H   0  0  0  0  0  0  0  0  0  0  0  0
  1  2  1  0
  2  3  1  0
  3  4  2  0
  4  5  1  0
  4  6  1  0
  6  7  1  0
  6  8  2  0
  8  9  1  0
  9 10  1  0
 10 11  1  1
 10 12  1  0
 12 13  1  6
 12 14  1  0
 14 15  1  0
 14 16  1  0
 14 17  1  0
 17 18  1  0
 18 19  2  0
 19 20  1  0
 19 21  1  0
 21 22  2  0
 22 23  1  0
 22 24  1  0
 24 25  1  0
 24 26  2  0
 26 27  1  0
 17 28  1  0
 28 29  1  0
 28 30  1  0
 28 31  1  0
 31 32  1  1
  8 33  1  0
 33 34  1  0
 33 35  2  0
 35 36  1  0
 35  3  1  0
 31 10  1  0
 31 12  1  0
 26 18  1  0
M  END
>  <plip>  (1) 
-0.07142857142857142

>  <filename>  (1) 
[H][O][c]1[c]([H])[c]([H])[c]([O][C@]2([H])[C@]3([H])[C]([H])([H])[N]([c]4[c]([H])[n][c]([H])[c]([H])[c]4[H])[C]([H])([H])[C@]23[H])[c]([H])[c]1[H]

$$$$
