
     RDKit          3D

 42 42  0  0  0  0  0  0  0  0999 V2000
    9.9868    4.2116   24.7436 C   0  0  0  0  0  0  0  0  0  0  0  0
   11.2381    3.9701   24.3568 C   0  0  0  0  0  0  0  0  0  0  0  0
   11.6615    2.8680   23.4102 C   0  0  0  0  0  0  0  0  0  0  0  0
   11.0486    1.4963   23.7217 C   0  0  0  0  0  0  0  0  0  0  0  0
   11.3964    0.4165   22.6986 C   0  0  0  0  0  0  0  0  0  0  0  0
   10.8605    0.6375   21.2826 C   0  0  0  0  0  0  0  0  0  0  0  0
    9.3941    0.6244   21.1433 N   0  0  0  0  0  0  0  0  0  0  0  0
    8.6546    1.8753   21.3237 C   0  0  0  0  0  0  0  0  0  0  0  0
    8.2190    2.2284   20.3815 H   0  0  0  0  0  0  0  0  0  0  0  0
    7.8365    1.7522   22.0469 H   0  0  0  0  0  0  0  0  0  0  0  0
    9.3271    2.6564   21.7004 H   0  0  0  0  0  0  0  0  0  0  0  0
    8.7776   -0.6155   21.2148 C   0  0  0  0  0  0  0  0  0  0  0  0
    9.3913   -1.6419   21.4798 O   0  0  0  0  0  0  0  0  0  0  0  0
    7.3868   -0.6472   20.9894 N   0  0  0  0  0  0  0  0  0  0  0  0
    6.6550   -1.7312   21.6617 C   0  0  0  0  0  0  0  0  0  0  0  0
    6.5994   -3.0152   20.8477 C   0  0  0  0  0  0  0  0  0  0  0  0
    5.9602   -3.7454   21.3525 H   0  0  0  0  0  0  0  0  0  0  0  0
    7.6001   -3.4412   20.7557 H   0  0  0  0  0  0  0  0  0  0  0  0
    6.1890   -2.8200   19.8507 H   0  0  0  0  0  0  0  0  0  0  0  0
    7.1298   -1.9147   22.6328 H   0  0  0  0  0  0  0  0  0  0  0  0
    5.6438   -1.3711   21.8619 H   0  0  0  0  0  0  0  0  0  0  0  0
    6.7152    0.0240   19.9077 C   0  0  0  0  0  0  0  0  0  0  0  0
    5.4937    0.6748   20.1535 C   0  0  0  0  0  0  0  0  0  0  0  0
    4.8368    1.3210   19.0989 C   0  0  0  0  0  0  0  0  0  0  0  0
    5.4109    1.2926   17.8247 C   0  0  0  0  0  0  0  0  0  0  0  0
    6.5645    0.6602   17.5548 N   0  0  0  0  0  0  0  0  0  0  0  0
    7.1948    0.0509   18.5710 C   0  0  0  0  0  0  0  0  0  0  0  0
    8.1279   -0.4533   18.3160 H   0  0  0  0  0  0  0  0  0  0  0  0
    4.9265    1.7888   16.9868 H   0  0  0  0  0  0  0  0  0  0  0  0
    3.8964    1.8399   19.2548 H   0  0  0  0  0  0  0  0  0  0  0  0
    5.0802    0.6710   21.1619 H   0  0  0  0  0  0  0  0  0  0  0  0
   11.2298    1.5755   20.8408 H   0  0  0  0  0  0  0  0  0  0  0  0
   11.2485   -0.1903   20.6831 H   0  0  0  0  0  0  0  0  0  0  0  0
   12.4903    0.3270   22.6150 H   0  0  0  0  0  0  0  0  0  0  0  0
   11.0223   -0.5570   23.0332 H   0  0  0  0  0  0  0  0  0  0  0  0
   11.3823    1.1633   24.7110 H   0  0  0  0  0  0  0  0  0  0  0  0
    9.9575    1.5836   23.7944 H   0  0  0  0  0  0  0  0  0  0  0  0
   11.3913    3.1538   22.3819 H   0  0  0  0  0  0  0  0  0  0  0  0
   12.7556    2.7833   23.3934 H   0  0  0  0  0  0  0  0  0  0  0  0
   12.0251    4.6185   24.7500 H   0  0  0  0  0  0  0  0  0  0  0  0
    9.1595    3.5491   24.4827 H   0  0  0  0  0  0  0  0  0  0  0  0
    9.7310    5.0828   25.3386 H   0  0  0  0  0  0  0  0  0  0  0  0
  1  2  2  3
  2  3  1  0
  3  4  1  0
  4  5  1  0
  5  6  1  0
  6  7  1  0
  7  8  1  0
  8  9  1  0
  8 10  1  0
  8 11  1  0
  7 12  1  0
 12 13  2  0
 12 14  1  0
 14 15  1  0
 15 16  1  0
 16 17  1  0
 16 18  1  0
 16 19  1  0
 15 20  1  0
 15 21  1  0
 14 22  1  0
 22 23  2  0
 23 24  1  0
 24 25  2  0
 25 26  1  0
 26 27  2  0
 27 28  1  0
 25 29  1  0
 24 30  1  0
 23 31  1  0
  6 32  1  0
  6 33  1  0
  5 34  1  0
  5 35  1  0
  4 36  1  0
  4 37  1  0
  3 38  1  0
  3 39  1  0
  2 40  1  0
  1 41  1  0
  1 42  1  0
 27 22  1  0
M  END
>  <plip>  (1) 
-0.07142857142857142

>  <filename>  (1) 
[H][C]([H])=[C]([H])[C]([H])([H])[C]([H])([H])[C]([H])([H])[C]([H])([H])[N]([C](=[O])[N]([c]1[c]([H])[n][c]([H])[c]([H])[c]1[H])[C]([H])([H])[C]([H])([H])[H])[C]([H])([H])[H]

$$$$
