
     RDKit          3D

 45 46  0  0  0  0  0  0  0  0999 V2000
   13.3908   -1.6505   21.4319 C   0  0  0  0  0  0  0  0  0  0  0  0
   12.0405   -1.9217   21.7370 O   0  0  0  0  0  0  0  0  0  0  0  0
   11.1796   -0.8378   21.4528 C   0  0  0  0  0  0  0  0  0  0  0  0
    9.7316   -1.3021   21.6504 C   0  0  0  0  0  0  0  0  0  0  0  0
    8.6920   -0.2865   21.3316 N   0  0  0  0  0  0  0  0  0  0  0  0
    7.3270   -0.7484   21.0329 C   0  0  0  0  0  0  0  0  0  0  0  0
    6.6492    0.0547   19.9530 C   0  0  0  0  0  0  0  0  0  0  0  0
    5.4176    0.7039   20.1501 C   0  0  0  0  0  0  0  0  0  0  0  0
    4.7958    1.3262   19.0656 C   0  0  0  0  0  0  0  0  0  0  0  0
    5.4341    1.2960   17.8246 C   0  0  0  0  0  0  0  0  0  0  0  0
    6.6156    0.6947   17.6205 N   0  0  0  0  0  0  0  0  0  0  0  0
    7.2049    0.1082   18.6705 C   0  0  0  0  0  0  0  0  0  0  0  0
    8.1653   -0.3666   18.4636 H   0  0  0  0  0  0  0  0  0  0  0  0
    4.9777    1.7764   16.9594 H   0  0  0  0  0  0  0  0  0  0  0  0
    3.8469    1.8403   19.1726 H   0  0  0  0  0  0  0  0  0  0  0  0
    4.9763    0.7556   21.1452 H   0  0  0  0  0  0  0  0  0  0  0  0
    6.6985   -0.7614   21.9350 H   0  0  0  0  0  0  0  0  0  0  0  0
    7.4142   -1.7943   20.6992 H   0  0  0  0  0  0  0  0  0  0  0  0
    8.7732    1.2292   22.0550 S   0  0  0  0  0  0  0  0  0  0  0  0
   10.0157    1.8402   21.6074 O   0  0  0  0  0  0  0  0  0  0  0  0
    7.5038    1.9109   21.8813 O   0  0  0  0  0  0  0  0  0  0  0  0
    8.9595    0.8566   23.8449 C   0  0  0  0  0  0  0  0  0  0  0  0
    7.8042    0.0357   24.4804 C   0  0  0  0  0  0  0  0  0  0  0  0
    8.0117   -0.1924   25.9870 C   0  0  0  0  0  0  0  0  0  0  0  0
    8.1794    1.1333   26.6899 N   0  0  0  0  0  4  0  0  0  0  0  0
    9.3791    1.8687   26.1469 C   0  0  0  0  0  0  0  0  0  0  0  0
    9.2087    2.1532   24.6526 C   0  0  0  0  0  0  0  0  0  0  0  0
    8.3554    2.8360   24.5315 H   0  0  0  0  0  0  0  0  0  0  0  0
   10.1015    2.6787   24.2974 H   0  0  0  0  0  0  0  0  0  0  0  0
   10.2786    1.2641   26.3107 H   0  0  0  0  0  0  0  0  0  0  0  0
    9.5041    2.8085   26.6823 H   0  0  0  0  0  0  0  0  0  0  0  0
    7.3312    1.7132   26.4415 H   0  0  0  0  0  0  0  0  0  0  0  0
    8.2485    1.0237   27.7225 H   0  0  0  0  0  0  0  0  0  0  0  0
    8.9052   -0.8065   26.1483 H   0  0  0  0  0  0  0  0  0  0  0  0
    7.1618   -0.7292   26.4129 H   0  0  0  0  0  0  0  0  0  0  0  0
    6.8558    0.5786   24.3469 H   0  0  0  0  0  0  0  0  0  0  0  0
    7.6808   -0.9551   24.0233 H   0  0  0  0  0  0  0  0  0  0  0  0
    9.8828    0.2662   23.8439 H   0  0  0  0  0  0  0  0  0  0  0  0
    9.5829   -2.1306   20.9459 H   0  0  0  0  0  0  0  0  0  0  0  0
    9.6257   -1.7548   22.6522 H   0  0  0  0  0  0  0  0  0  0  0  0
   11.4307    0.0346   22.0730 H   0  0  0  0  0  0  0  0  0  0  0  0
   11.2756   -0.5270   20.4093 H   0  0  0  0  0  0  0  0  0  0  0  0
   13.5320   -1.4285   20.3601 H   0  0  0  0  0  0  0  0  0  0  0  0
   13.9609   -2.5484   21.6782 H   0  0  0  0  0  0  0  0  0  0  0  0
   13.7968   -0.8087   22.0213 H   0  0  0  0  0  0  0  0  0  0  0  0
  1  2  1  0
  2  3  1  0
  3  4  1  0
  4  5  1  0
  5  6  1  0
  6  7  1  0
  7  8  2  0
  8  9  1  0
  9 10  2  0
 10 11  1  0
 11 12  2  0
 12 13  1  0
 10 14  1  0
  9 15  1  0
  8 16  1  0
  6 17  1  0
  6 18  1  0
  5 19  1  0
 19 20  2  0
 19 21  2  0
 19 22  1  0
 22 23  1  0
 23 24  1  0
 24 25  1  0
 25 26  1  0
 26 27  1  0
 27 28  1  0
 27 29  1  0
 26 30  1  0
 26 31  1  0
 25 32  1  0
 25 33  1  0
 24 34  1  0
 24 35  1  0
 23 36  1  0
 23 37  1  0
 22 38  1  0
  4 39  1  0
  4 40  1  0
  3 41  1  0
  3 42  1  0
  1 43  1  0
  1 44  1  0
  1 45  1  0
 12  7  1  0
 27 22  1  0
M  CHG  1  25   1
M  END
>  <plip>  (1) 
-0.14285714285714285

>  <filename>  (1) 
[H][c]1[n][c]([H])[c]([C]([H])([H])[N]([C]([H])([H])[C]([H])([H])[O][C]([H])([H])[H])[S](=[O])(=[O])[C]2([H])[C]([H])([H])[C]([H])([H])[N+]([H])([H])[C]([H])([H])[C]2([H])[H])[c]([H])[c]1[H]

$$$$
