
     RDKit          3D

 36 37  0  0  0  0  0  0  0  0999 V2000
    4.9200    1.7928   16.9877 H   0  0  0  0  0  0  0  0  0  0  0  0
    5.3949    1.2996   17.8306 C   0  0  0  0  0  0  0  0  0  0  0  0
    6.5577    0.6806   17.5704 N   0  0  0  0  0  0  0  0  0  0  0  0
    7.1564    0.0469   18.5870 C   0  0  0  0  0  0  0  0  0  0  0  0
    8.1112   -0.4231   18.3616 H   0  0  0  0  0  0  0  0  0  0  0  0
    6.6424   -0.0299   19.8943 C   0  0  0  0  0  0  0  0  0  0  0  0
    7.5348   -0.8499   21.1951 S   0  0  0  0  0  0  0  0  0  0  0  0
    8.7350    0.4827   21.5781 C   0  0  1  0  0  0  0  0  0  0  0  0
    9.1576    0.7651   20.6072 H   0  0  0  0  0  0  0  0  0  0  0  0
    8.0974    1.6771   22.1054 N   0  0  0  0  0  0  0  0  0  0  0  0
    8.9078    2.8768   21.9606 C   0  0  0  0  0  0  0  0  0  0  0  0
    8.2934    3.7630   22.1524 H   0  0  0  0  0  0  0  0  0  0  0  0
    9.2872    2.9456   20.9370 H   0  0  0  0  0  0  0  0  0  0  0  0
    9.7647    2.9213   22.6606 H   0  0  0  0  0  0  0  0  0  0  0  0
    7.5049    1.5444   23.4295 C   0  0  0  0  0  0  0  0  0  0  0  0
    8.2959    1.5257   24.2013 H   0  0  0  0  0  0  0  0  0  0  0  0
    7.0147    0.5626   23.4848 H   0  0  0  0  0  0  0  0  0  0  0  0
    6.5021    2.6220   23.8000 C   0  0  0  0  0  0  0  0  0  0  0  0
    6.4088    3.0463   25.1381 C   0  0  0  0  0  0  0  0  0  0  0  0
    7.0741    2.6199   25.8898 H   0  0  0  0  0  0  0  0  0  0  0  0
    5.4721    4.0120   25.5207 C   0  0  0  0  0  0  0  0  0  0  0  0
    5.4162    4.3341   26.5609 H   0  0  0  0  0  0  0  0  0  0  0  0
    4.6052    4.5602   24.5696 C   0  0  0  0  0  0  0  0  0  0  0  0
    3.8753    5.3159   24.8594 H   0  0  0  0  0  0  0  0  0  0  0  0
    4.6826    4.1359   23.2389 C   0  0  0  0  0  0  0  0  0  0  0  0
    4.0214    4.5592   22.4853 H   0  0  0  0  0  0  0  0  0  0  0  0
    5.6261    3.1783   22.8548 C   0  0  0  0  0  0  0  0  0  0  0  0
    5.7033    2.8692   21.8120 H   0  0  0  0  0  0  0  0  0  0  0  0
    9.8277   -0.0873   22.4705 C   0  0  0  0  0  0  0  0  0  0  0  0
    9.3895   -0.4590   23.4020 H   0  0  0  0  0  0  0  0  0  0  0  0
   10.3346   -0.9099   21.9619 H   0  0  0  0  0  0  0  0  0  0  0  0
   10.5593    0.6921   22.7126 H   0  0  0  0  0  0  0  0  0  0  0  0
    5.4298    0.6290   20.1527 C   0  0  0  0  0  0  0  0  0  0  0  0
    5.0216    0.6249   21.1648 H   0  0  0  0  0  0  0  0  0  0  0  0
    4.8017    1.3091   19.0987 C   0  0  0  0  0  0  0  0  0  0  0  0
    3.8728    1.8430   19.2524 H   0  0  0  0  0  0  0  0  0  0  0  0
  1  2  1  0
  2  3  2  0
  3  4  1  0
  4  5  1  0
  4  6  2  0
  6  7  1  0
  7  8  1  0
  8  9  1  6
  8 10  1  0
 10 11  1  0
 11 12  1  0
 11 13  1  0
 11 14  1  0
 10 15  1  0
 15 16  1  0
 15 17  1  0
 15 18  1  0
 18 19  2  0
 19 20  1  0
 19 21  1  0
 21 22  1  0
 21 23  2  0
 23 24  1  0
 23 25  1  0
 25 26  1  0
 25 27  2  0
 27 28  1  0
  8 29  1  0
 29 30  1  0
 29 31  1  0
 29 32  1  0
  6 33  1  0
 33 34  1  0
 33 35  2  0
 35 36  1  0
 35  2  1  0
 27 18  1  0
M  END
>  <plip>  (1) 
-0.03571428571428571

>  <filename>  (1) 
[H][c]1[n][c]([H])[c]([S][C@@]([H])([N]([C]([H])([H])[H])[C]([H])([H])[c]2[c]([H])[c]([H])[c]([H])[c]([H])[c]2[H])[C]([H])([H])[H])[c]([H])[c]1[H]

$$$$
