
     RDKit          3D

 37 39  0  0  0  0  0  0  0  0999 V2000
    4.9463    1.8136   16.9370 H   0  0  0  0  0  0  0  0  0  0  0  0
    5.4207    1.3201   17.7868 C   0  0  0  0  0  0  0  0  0  0  0  0
    6.5908    0.7119   17.5459 N   0  0  0  0  0  0  0  0  0  0  0  0
    7.1883    0.0972   18.5785 C   0  0  0  0  0  0  0  0  0  0  0  0
    8.1295   -0.4029   18.3491 H   0  0  0  0  0  0  0  0  0  0  0  0
    6.6730    0.0573   19.8820 C   0  0  0  0  0  0  0  0  0  0  0  0
    7.3306   -0.7406   20.9768 C   0  0  0  0  0  0  0  0  0  0  0  0
    7.1612   -0.2239   21.9334 H   0  0  0  0  0  0  0  0  0  0  0  0
    8.4194   -0.7630   20.8153 H   0  0  0  0  0  0  0  0  0  0  0  0
    6.8208   -2.1556   21.0709 C   0  0  0  0  0  0  0  0  0  0  0  0
    5.9822   -2.8676   20.2428 C   0  0  0  0  0  0  0  0  0  0  0  0
    5.4648   -2.4353   19.3922 H   0  0  0  0  0  0  0  0  0  0  0  0
    5.9575   -4.2078   20.7015 C   0  0  0  0  0  0  0  0  0  0  0  0
    5.4256   -5.0401   20.2557 H   0  0  0  0  0  0  0  0  0  0  0  0
    6.7703   -4.2660   21.8090 C   0  0  0  0  0  0  0  0  0  0  0  0
    7.0602   -5.1141   22.4197 H   0  0  0  0  0  0  0  0  0  0  0  0
    7.2679   -3.0070   22.0615 N   0  0  0  0  0  0  0  0  0  0  0  0
    8.2403   -2.6896   23.1246 C   0  0  0  0  0  0  0  0  0  0  0  0
    8.4344   -1.6059   23.0935 H   0  0  0  0  0  0  0  0  0  0  0  0
    9.5616   -3.4283   22.8432 C   0  0  0  0  0  0  0  0  0  0  0  0
    9.9875   -3.0500   21.9036 H   0  0  0  0  0  0  0  0  0  0  0  0
    9.3230   -4.4929   22.7356 H   0  0  0  0  0  0  0  0  0  0  0  0
   10.5669   -3.2940   23.9760 C   0  0  0  0  0  0  0  0  0  0  0  0
   10.9159   -2.2470   23.9938 H   0  0  0  0  0  0  0  0  0  0  0  0
   11.4344   -3.9366   23.7803 H   0  0  0  0  0  0  0  0  0  0  0  0
    9.9318   -3.7018   25.2233 N   0  0  0  0  0  0  0  0  0  0  0  0
   10.6056   -3.8161   25.9735 H   0  0  0  0  0  0  0  0  0  0  0  0
    8.8235   -2.8205   25.5848 C   0  0  0  0  0  0  0  0  0  0  0  0
    9.1164   -1.7477   25.6430 H   0  0  0  0  0  0  0  0  0  0  0  0
    8.4545   -3.0991   26.5770 H   0  0  0  0  0  0  0  0  0  0  0  0
    7.7158   -3.0213   24.5418 C   0  0  0  0  0  0  0  0  0  0  0  0
    7.4302   -4.0849   24.5753 H   0  0  0  0  0  0  0  0  0  0  0  0
    6.8357   -2.4070   24.7790 H   0  0  0  0  0  0  0  0  0  0  0  0
    5.4615    0.7158   20.1144 C   0  0  0  0  0  0  0  0  0  0  0  0
    5.0317    0.7333   21.1181 H   0  0  0  0  0  0  0  0  0  0  0  0
    4.8168    1.3463   19.0472 C   0  0  0  0  0  0  0  0  0  0  0  0
    3.8703    1.8551   19.1799 H   0  0  0  0  0  0  0  0  0  0  0  0
  1  2  1  0
  2  3  2  0
  3  4  1  0
  4  5  1  0
  4  6  2  0
  6  7  1  0
  7  8  1  0
  7  9  1  0
  7 10  1  0
 10 11  2  0
 11 12  1  0
 11 13  1  0
 13 14  1  0
 13 15  2  0
 15 16  1  0
 15 17  1  0
 17 18  1  0
 18 19  1  0
 18 20  1  0
 20 21  1  0
 20 22  1  0
 20 23  1  0
 23 24  1  0
 23 25  1  0
 23 26  1  0
 26 27  1  0
 26 28  1  0
 28 29  1  0
 28 30  1  0
 28 31  1  0
 31 32  1  0
 31 33  1  0
  6 34  1  0
 34 35  1  0
 34 36  2  0
 36 37  1  0
 36  2  1  0
 17 10  1  0
 31 18  1  0
M  END
>  <plip>  (1) 
-0.03571428571428571

>  <filename>  (1) 
[H][c]1[n][c]([H])[c]([C]([H])([H])[c]2[c]([H])[c]([H])[c]([H])[n]2[C]2([H])[C]([H])([H])[C]([H])([H])[N]([H])[C]([H])([H])[C]2([H])[H])[c]([H])[c]1[H]

$$$$
