
     RDKit          3D

 43 45  0  0  0  0  0  0  0  0999 V2000
    9.7182   -1.4275   22.2067 C   0  0  0  0  0  0  0  0  0  0  0  0
    8.9523   -1.0384   20.9374 C   0  0  0  0  0  0  0  0  0  0  0  0
    7.4139   -1.0261   21.1031 C   0  0  0  0  0  0  0  0  0  0  0  0
    6.9553   -2.3807   21.4059 N   0  0  0  0  0  0  0  0  0  0  0  0
    6.2217   -3.2235   20.6486 C   0  0  0  0  0  0  0  0  0  0  0  0
    5.5888   -2.9138   19.6549 O   0  0  0  0  0  0  0  0  0  0  0  0
    6.1531   -4.6618   21.1122 C   0  0  0  0  0  0  0  0  0  0  0  0
    7.1050   -5.1593   22.1423 C   0  0  0  0  0  0  0  0  0  0  0  0
    7.8945   -6.1466   21.7763 N   0  0  0  0  0  0  0  0  0  0  0  0
    8.5943   -6.5243   22.8568 N   0  0  0  0  0  0  0  0  0  0  0  0
    9.4754   -7.6572   22.7590 C   0  0  0  0  0  0  0  0  0  0  0  0
   10.0894   -7.7081   23.6572 H   0  0  0  0  0  0  0  0  0  0  0  0
    8.9061   -8.5808   22.6451 H   0  0  0  0  0  0  0  0  0  0  0  0
   10.1417   -7.5360   21.9074 H   0  0  0  0  0  0  0  0  0  0  0  0
    8.2634   -5.8033   23.9587 C   0  0  0  0  0  0  0  0  0  0  0  0
    8.7574   -5.8500   25.2840 C   0  0  0  0  0  0  0  0  0  0  0  0
    8.1890   -4.9841   26.1989 C   0  0  0  0  0  0  0  0  0  0  0  0
    7.1590   -4.0829   25.8245 C   0  0  0  0  0  0  0  0  0  0  0  0
    6.6981   -4.0133   24.5177 C   0  0  0  0  0  0  0  0  0  0  0  0
    7.2671   -4.8771   23.5452 C   0  0  0  0  0  0  0  0  0  0  0  0
    5.9276   -3.2961   24.2441 H   0  0  0  0  0  0  0  0  0  0  0  0
    6.7266   -3.4432   26.5870 H   0  0  0  0  0  0  0  0  0  0  0  0
    8.5522   -4.9787   27.2241 H   0  0  0  0  0  0  0  0  0  0  0  0
    9.5530   -6.5375   25.5595 H   0  0  0  0  0  0  0  0  0  0  0  0
    6.3220   -5.2450   20.2038 H   0  0  0  0  0  0  0  0  0  0  0  0
    5.1135   -4.8282   21.4142 H   0  0  0  0  0  0  0  0  0  0  0  0
    7.3734   -2.8049   22.2154 H   0  0  0  0  0  0  0  0  0  0  0  0
    6.6851   -0.3599   19.9520 C   0  0  0  0  0  0  0  0  0  0  0  0
    5.4997    0.3696   20.1440 C   0  0  0  0  0  0  0  0  0  0  0  0
    4.9372    1.0547   19.0631 C   0  0  0  0  0  0  0  0  0  0  0  0
    5.5645    0.9664   17.8171 C   0  0  0  0  0  0  0  0  0  0  0  0
    6.6577    0.2265   17.5926 N   0  0  0  0  0  0  0  0  0  0  0  0
    7.1763   -0.4243   18.6429 C   0  0  0  0  0  0  0  0  0  0  0  0
    8.0692   -1.0087   18.4276 H   0  0  0  0  0  0  0  0  0  0  0  0
    5.1691    1.4969   16.9555 H   0  0  0  0  0  0  0  0  0  0  0  0
    4.0428    1.6613   19.1667 H   0  0  0  0  0  0  0  0  0  0  0  0
    5.0077    0.3817   21.1179 H   0  0  0  0  0  0  0  0  0  0  0  0
    7.1933   -0.4194   21.9994 H   0  0  0  0  0  0  0  0  0  0  0  0
    9.2200   -1.7228   20.1211 H   0  0  0  0  0  0  0  0  0  0  0  0
    9.2571   -0.0330   20.6206 H   0  0  0  0  0  0  0  0  0  0  0  0
   10.7961   -1.2732   22.0837 H   0  0  0  0  0  0  0  0  0  0  0  0
    9.3912   -0.8206   23.0596 H   0  0  0  0  0  0  0  0  0  0  0  0
    9.5743   -2.4855   22.4661 H   0  0  0  0  0  0  0  0  0  0  0  0
  1  2  1  0
  2  3  1  0
  3  4  1  0
  4  5  1  0
  5  6  2  0
  5  7  1  0
  7  8  1  0
  8  9  2  0
  9 10  1  0
 10 11  1  0
 11 12  1  0
 11 13  1  0
 11 14  1  0
 10 15  1  0
 15 16  2  0
 16 17  1  0
 17 18  2  0
 18 19  1  0
 19 20  2  0
 19 21  1  0
 18 22  1  0
 17 23  1  0
 16 24  1  0
  7 25  1  0
  7 26  1  0
  4 27  1  0
  3 28  1  0
 28 29  2  0
 29 30  1  0
 30 31  2  0
 31 32  1  0
 32 33  2  0
 33 34  1  0
 31 35  1  0
 30 36  1  0
 29 37  1  0
  3 38  1  0
  2 39  1  0
  2 40  1  0
  1 41  1  0
  1 42  1  0
  1 43  1  0
 20  8  1  0
 33 28  1  0
 20 15  1  0
M  END
>  <plip>  (1) 
-0.13793103448275862

>  <filename>  (1) 
[H][c]1[n][c]([H])[c]([C]([H])([N]([H])[C](=[O])[C]([H])([H])[c]2[n][n]([C]([H])([H])[H])[c]3[c]([H])[c]([H])[c]([H])[c]([H])[c]23)[C]([H])([H])[C]([H])([H])[H])[c]([H])[c]1[H]

$$$$
