
     RDKit          3D

 40 42  0  0  0  0  0  0  0  0999 V2000
   10.7541   -1.4725   21.7003 O   0  0  0  0  0  0  0  0  0  0  0  0
   10.1002   -1.3148   22.7051 C   0  0  0  0  0  0  0  0  0  0  0  0
   10.2952   -1.9271   23.8981 N   0  0  0  0  0  0  0  0  0  0  0  0
    9.2516   -1.6154   24.8528 C   0  0  0  0  0  0  0  0  0  0  0  0
    8.4048   -2.7771   25.3474 C   0  0  0  0  0  0  0  0  0  0  0  0
    8.1153   -2.8773   26.7140 C   0  0  0  0  0  0  0  0  0  0  0  0
    7.2997   -3.9071   27.1949 C   0  0  0  0  0  0  0  0  0  0  0  0
    6.7392   -4.8163   26.3020 C   0  0  0  0  0  0  0  0  0  0  0  0
    6.9962   -4.7292   24.9344 C   0  0  0  0  0  0  0  0  0  0  0  0
    7.8333   -3.7106   24.4659 C   0  0  0  0  0  0  0  0  0  0  0  0
    8.1101   -3.5334   23.1212 O   0  0  0  0  0  0  0  0  0  0  0  0
    7.6764   -4.4159   22.1951 C   0  0  0  0  0  0  0  0  0  0  0  0
    6.3406   -4.4375   22.0712 F   0  0  0  0  0  0  0  0  0  0  0  0
    8.1917   -4.0594   21.0236 F   0  0  0  0  0  0  0  0  0  0  0  0
    8.0611   -5.6790   22.4293 F   0  0  0  0  0  0  0  0  0  0  0  0
    6.5556   -5.4393   24.2491 H   0  0  0  0  0  0  0  0  0  0  0  0
    6.0998   -5.6032   26.6922 H   0  0  0  0  0  0  0  0  0  0  0  0
    7.0937   -4.0526   28.2460 H   0  0  0  0  0  0  0  0  0  0  0  0
    8.5361   -2.1289   27.3870 H   0  0  0  0  0  0  0  0  0  0  0  0
    8.4329   -0.5668   24.0681 C   0  0  0  0  0  0  0  0  0  0  0  0
    7.4615    0.0477   24.4362 O   0  0  0  0  0  0  0  0  0  0  0  0
    9.0398   -0.4318   22.8456 N   0  0  0  0  0  0  0  0  0  0  0  0
    8.3967    0.2328   21.7255 C   0  0  0  0  0  0  0  0  0  0  0  0
    7.4149   -0.7112   21.0063 C   0  0  0  0  0  0  0  0  0  0  0  0
    6.6521   -0.0187   19.8956 C   0  0  0  0  0  0  0  0  0  0  0  0
    5.4421    0.6465   20.1429 C   0  0  0  0  0  0  0  0  0  0  0  0
    4.8017    1.3126   19.0940 C   0  0  0  0  0  0  0  0  0  0  0  0
    5.3940    1.3007   17.8275 C   0  0  0  0  0  0  0  0  0  0  0  0
    6.5554    0.6835   17.5668 N   0  0  0  0  0  0  0  0  0  0  0  0
    7.1600    0.0564   18.5854 C   0  0  0  0  0  0  0  0  0  0  0  0
    8.1089   -0.4217   18.3377 H   0  0  0  0  0  0  0  0  0  0  0  0
    4.9206    1.8025   16.9837 H   0  0  0  0  0  0  0  0  0  0  0  0
    3.8704    1.8471   19.2430 H   0  0  0  0  0  0  0  0  0  0  0  0
    5.0079    0.6381   21.1449 H   0  0  0  0  0  0  0  0  0  0  0  0
    6.7155   -1.1019   21.7599 H   0  0  0  0  0  0  0  0  0  0  0  0
    7.9729   -1.5823   20.6290 H   0  0  0  0  0  0  0  0  0  0  0  0
    7.8693    1.1049   22.1304 H   0  0  0  0  0  0  0  0  0  0  0  0
    9.1804    0.5817   21.0458 H   0  0  0  0  0  0  0  0  0  0  0  0
    9.6673   -1.1031   25.7338 H   0  0  0  0  0  0  0  0  0  0  0  0
   10.9501   -2.6831   23.9101 H   0  0  0  0  0  0  0  0  0  0  0  0
  1  2  2  0
  2  3  1  0
  3  4  1  0
  4  5  1  0
  5  6  2  0
  6  7  1  0
  7  8  2  0
  8  9  1  0
  9 10  2  0
 10 11  1  0
 11 12  1  0
 12 13  1  0
 12 14  1  0
 12 15  1  0
  9 16  1  0
  8 17  1  0
  7 18  1  0
  6 19  1  0
  4 20  1  0
 20 21  2  0
 20 22  1  0
 22 23  1  0
 23 24  1  0
 24 25  1  0
 25 26  2  0
 26 27  1  0
 27 28  2  0
 28 29  1  0
 29 30  2  0
 30 31  1  0
 28 32  1  0
 27 33  1  0
 26 34  1  0
 24 35  1  0
 24 36  1  0
 23 37  1  0
 23 38  1  0
  4 39  1  0
  3 40  1  0
 22  2  1  0
 30 25  1  0
 10  5  1  0
M  END
>  <plip>  (1) 
-0.03333333333333333

>  <filename>  (1) 
[H][c]1[n][c]([H])[c]([C]([H])([H])[C]([H])([H])[N]2[C](=[O])[N]([H])[C]([H])([c]3[c]([H])[c]([H])[c]([H])[c]([H])[c]3[O][C]([F])([F])[F])[C]2=[O])[c]([H])[c]1[H]

$$$$
