
     RDKit          3D

 27 28  0  0  0  0  0  0  0  0999 V2000
    4.9056    1.8063   16.9840 H   0  0  0  0  0  0  0  0  0  0  0  0
    5.3797    1.3051   17.8266 C   0  0  0  0  0  0  0  0  0  0  0  0
    6.5319    0.6742   17.5491 N   0  0  0  0  0  0  0  0  0  0  0  0
    7.1418    0.0519   18.5637 C   0  0  0  0  0  0  0  0  0  0  0  0
    8.1013   -0.4150   18.3456 H   0  0  0  0  0  0  0  0  0  0  0  0
    6.6537    0.0088   19.8902 C   0  0  0  0  0  0  0  0  0  0  0  0
    7.4189   -0.6734   21.0022 C   0  0  0  0  0  0  0  0  0  0  0  0
    6.8257   -0.8356   21.9059 H   0  0  0  0  0  0  0  0  0  0  0  0
    7.8646   -1.6263   20.6919 H   0  0  0  0  0  0  0  0  0  0  0  0
    8.8630    0.2287   21.5841 S   0  0  0  0  0  0  0  0  0  0  0  0
    9.4232   -0.5063   22.7143 O   0  0  0  0  0  0  0  0  0  0  0  0
    9.6516    0.5469   20.4060 O   0  0  0  0  0  0  0  0  0  0  0  0
    8.2673    1.8269   22.1911 C   0  0  0  0  0  0  0  0  0  0  0  0
    9.1920    2.3089   22.5147 H   0  0  0  0  0  0  0  0  0  0  0  0
    7.8602    2.3478   21.3278 H   0  0  0  0  0  0  0  0  0  0  0  0
    7.3185    1.7588   23.2585 N   0  0  0  0  0  0  0  0  0  0  0  0
    6.0213    2.2112   23.2981 C   0  0  0  0  0  0  0  0  0  0  0  0
    5.5807    2.7227   22.4485 H   0  0  0  0  0  0  0  0  0  0  0  0
    5.4442    1.9386   24.4384 N   0  0  0  0  0  0  0  0  0  0  0  0
    6.4062    1.2885   25.1801 C   0  0  0  0  0  0  0  0  0  0  0  0
    6.1978    0.9660   26.1919 H   0  0  0  0  0  0  0  0  0  0  0  0
    7.5674    1.1668   24.4747 C   0  0  0  0  0  0  0  0  0  0  0  0
    8.5236    0.7100   24.6973 H   0  0  0  0  0  0  0  0  0  0  0  0
    5.4450    0.6568   20.1486 C   0  0  0  0  0  0  0  0  0  0  0  0
    5.0303    0.6313   21.1602 H   0  0  0  0  0  0  0  0  0  0  0  0
    4.7993    1.3238   19.0975 C   0  0  0  0  0  0  0  0  0  0  0  0
    3.8675    1.8531   19.2476 H   0  0  0  0  0  0  0  0  0  0  0  0
  1  2  1  0
  2  3  2  0
  3  4  1  0
  4  5  1  0
  4  6  2  0
  6  7  1  0
  7  8  1  0
  7  9  1  0
  7 10  1  0
 10 11  2  0
 10 12  2  0
 10 13  1  0
 13 14  1  0
 13 15  1  0
 13 16  1  0
 16 17  1  0
 17 18  1  0
 17 19  2  0
 19 20  1  0
 20 21  1  0
 20 22  2  0
 22 23  1  0
  6 24  1  0
 24 25  1  0
 24 26  2  0
 26 27  1  0
 26  2  1  0
 22 16  1  0
M  END
>  <plip>  (1) 
-0.07142857142857142

>  <filename>  (1) 
[H][c]1[n][c]([H])[c]([C]([H])([H])[S](=[O])(=[O])[C]([H])([H])[n]2[c]([H])[n][c]([H])[c]2[H])[c]([H])[c]1[H]

$$$$
