
     RDKit          3D

 44 46  0  0  0  0  0  0  0  0999 V2000
    7.5382    0.2255   22.2774 C   0  0  0  0  0  0  0  0  0  0  0  0
    7.3829   -0.7351   21.0759 C   0  0  0  0  0  0  0  0  0  0  0  0
    8.7949   -1.2127   20.6923 C   0  0  0  0  0  0  0  0  0  0  0  0
    9.4175   -0.3885   20.3324 H   0  0  0  0  0  0  0  0  0  0  0  0
    8.7527   -1.9623   19.9146 H   0  0  0  0  0  0  0  0  0  0  0  0
    9.2937   -1.6799   21.5465 H   0  0  0  0  0  0  0  0  0  0  0  0
    6.5009   -1.9734   21.4600 C   0  0  0  0  0  0  0  0  0  0  0  0
    7.0008   -2.7856   22.5506 N   0  0  0  0  0  0  0  0  0  0  0  0
    7.6970   -3.9394   22.3581 C   0  0  0  0  0  0  0  0  0  0  0  0
    7.8662   -4.4346   21.2531 O   0  0  0  0  0  0  0  0  0  0  0  0
    8.2940   -4.5783   23.6253 C   0  0  0  0  0  0  0  0  0  0  0  0
    9.3874   -3.7265   24.3667 C   0  0  0  0  0  0  0  0  0  0  0  0
    8.7966   -3.3307   25.7489 C   0  0  0  0  0  0  0  0  0  0  0  0
    7.5305   -4.1500   25.8689 C   0  0  0  0  0  0  0  0  0  0  0  0
    6.6471   -4.2199   26.9478 C   0  0  0  0  0  0  0  0  0  0  0  0
    5.5114   -5.0270   26.8341 C   0  0  0  0  0  0  0  0  0  0  0  0
    4.4141   -5.1307   28.1836 Cl  0  0  0  0  0  0  0  0  0  0  0  0
    5.2392   -5.7550   25.6680 C   0  0  0  0  0  0  0  0  0  0  0  0
    6.1261   -5.6697   24.5872 C   0  0  0  0  0  0  0  0  0  0  0  0
    7.2687   -4.8697   24.7017 C   0  0  0  0  0  0  0  0  0  0  0  0
    5.9341   -6.2071   23.6597 H   0  0  0  0  0  0  0  0  0  0  0  0
    4.3440   -6.3699   25.6269 H   0  0  0  0  0  0  0  0  0  0  0  0
    6.8263   -3.6640   27.8601 H   0  0  0  0  0  0  0  0  0  0  0  0
    9.4849   -3.5408   26.5746 H   0  0  0  0  0  0  0  0  0  0  0  0
    8.5744   -2.2570   25.8170 H   0  0  0  0  0  0  0  0  0  0  0  0
   10.2961   -4.3241   24.4954 H   0  0  0  0  0  0  0  0  0  0  0  0
    9.6963   -2.8512   23.7816 H   0  0  0  0  0  0  0  0  0  0  0  0
    8.7181   -5.5045   23.2279 H   0  0  0  0  0  0  0  0  0  0  0  0
    6.9689   -2.4245   23.4907 H   0  0  0  0  0  0  0  0  0  0  0  0
    5.5011   -1.6130   21.7155 H   0  0  0  0  0  0  0  0  0  0  0  0
    6.3967   -2.6283   20.5868 H   0  0  0  0  0  0  0  0  0  0  0  0
    6.6689   -0.0040   19.9187 C   0  0  0  0  0  0  0  0  0  0  0  0
    5.4422    0.6466   20.1459 C   0  0  0  0  0  0  0  0  0  0  0  0
    4.8065    1.3087   19.0958 C   0  0  0  0  0  0  0  0  0  0  0  0
    5.3979    1.2931   17.8296 C   0  0  0  0  0  0  0  0  0  0  0  0
    6.5567    0.6743   17.5750 N   0  0  0  0  0  0  0  0  0  0  0  0
    7.1640    0.0562   18.6009 C   0  0  0  0  0  0  0  0  0  0  0  0
    8.1127   -0.4143   18.3475 H   0  0  0  0  0  0  0  0  0  0  0  0
    4.9250    1.7934   16.9868 H   0  0  0  0  0  0  0  0  0  0  0  0
    3.8770    1.8398   19.2495 H   0  0  0  0  0  0  0  0  0  0  0  0
    4.9946    0.6470   21.1420 H   0  0  0  0  0  0  0  0  0  0  0  0
    6.5793    0.4884   22.7387 H   0  0  0  0  0  0  0  0  0  0  0  0
    8.1784   -0.2191   23.0490 H   0  0  0  0  0  0  0  0  0  0  0  0
    8.0146    1.1525   21.9395 H   0  0  0  0  0  0  0  0  0  0  0  0
  1  2  1  0
  2  3  1  0
  3  4  1  0
  3  5  1  0
  3  6  1  0
  2  7  1  0
  7  8  1  0
  8  9  1  0
  9 10  2  0
  9 11  1  0
 11 12  1  0
 12 13  1  0
 13 14  1  0
 14 15  2  0
 15 16  1  0
 16 17  1  0
 16 18  2  0
 18 19  1  0
 19 20  2  0
 19 21  1  0
 18 22  1  0
 15 23  1  0
 13 24  1  0
 13 25  1  0
 12 26  1  0
 12 27  1  0
 11 28  1  0
  8 29  1  0
  7 30  1  0
  7 31  1  0
  2 32  1  0
 32 33  2  0
 33 34  1  0
 34 35  2  0
 35 36  1  0
 36 37  2  0
 37 38  1  0
 35 39  1  0
 34 40  1  0
 33 41  1  0
  1 42  1  0
  1 43  1  0
  1 44  1  0
 20 11  1  0
 37 32  1  0
 20 14  1  0
M  END
>  <plip>  (1) 
-0.06896551724137931

>  <filename>  (1) 
[H][c]1[n][c]([H])[c]([C]([C]([H])([H])[H])([C]([H])([H])[H])[C]([H])([H])[N]([H])[C](=[O])[C]2([H])[c]3[c]([H])[c]([H])[c]([Cl])[c]([H])[c]3[C]([H])([H])[C]2([H])[H])[c]([H])[c]1[H]

$$$$
