
     RDKit          3D

 39 42  0  0  0  0  0  0  0  0999 V2000
    2.5640   -5.0995   26.0751 H   0  0  0  0  0  0  0  0  0  0  0  0
    2.6607   -4.5984   25.2544 O   0  0  0  0  0  0  0  0  0  0  0  0
    3.8087   -5.0966   24.5834 C   0  0  2  0  0  0  0  0  0  0  0  0
    4.7036   -4.9512   25.2095 H   0  0  0  0  0  0  0  0  0  0  0  0
    3.9648   -4.2886   23.2800 C   0  0  0  0  0  0  0  0  0  0  0  0
    4.1028   -3.2330   23.5228 H   0  0  0  0  0  0  0  0  0  0  0  0
    3.0038   -4.4043   22.7618 H   0  0  0  0  0  0  0  0  0  0  0  0
    5.0507   -4.7815   22.4170 N   0  0  0  0  0  0  0  0  0  0  0  0
    6.0707   -4.0010   21.9680 C   0  0  0  0  0  0  0  0  0  0  0  0
    7.2707   -4.3696   21.6338 N   0  0  0  0  0  0  0  0  0  0  0  0
    7.9293   -3.1993   21.2711 N   0  0  0  0  0  0  0  0  0  0  0  0
    7.0799   -2.2318   21.3685 C   0  0  0  0  0  0  0  0  0  0  0  0
    7.3230   -0.7695   21.1054 C   0  0  0  0  0  0  0  0  0  0  0  0
    6.5698   -0.0760   19.9858 C   0  0  0  0  0  0  0  0  0  0  0  0
    7.1252   -0.0363   18.6944 C   0  0  0  0  0  0  0  0  0  0  0  0
    8.0725   -0.5486   18.5265 H   0  0  0  0  0  0  0  0  0  0  0  0
    6.5940    0.6061   17.6484 N   0  0  0  0  0  0  0  0  0  0  0  0
    5.4430    1.2638   17.8590 C   0  0  0  0  0  0  0  0  0  0  0  0
    5.0212    1.7696   16.9935 H   0  0  0  0  0  0  0  0  0  0  0  0
    4.7874    1.2915   19.0949 C   0  0  0  0  0  0  0  0  0  0  0  0
    3.8585    1.8463   19.1912 H   0  0  0  0  0  0  0  0  0  0  0  0
    5.3622    0.6156   20.1757 C   0  0  0  0  0  0  0  0  0  0  0  0
    4.9048    0.6403   21.1667 H   0  0  0  0  0  0  0  0  0  0  0  0
    7.7156    0.0855   22.3046 C   0  0  0  0  0  0  0  0  0  0  0  0
    7.7130   -0.3880   23.2812 H   0  0  0  0  0  0  0  0  0  0  0  0
    7.4010    1.1290   22.2949 H   0  0  0  0  0  0  0  0  0  0  0  0
    8.7585   -0.3277   21.3203 C   0  0  0  0  0  0  0  0  0  0  0  0
    9.4557   -1.1077   21.6196 H   0  0  0  0  0  0  0  0  0  0  0  0
    9.1755    0.4283   20.6581 H   0  0  0  0  0  0  0  0  0  0  0  0
    5.8577   -2.6725   21.8025 O   0  0  0  0  0  0  0  0  0  0  0  0
    5.0778   -6.2253   22.1684 C   0  0  0  0  0  0  0  0  0  0  0  0
    4.2520   -6.5028   21.5008 H   0  0  0  0  0  0  0  0  0  0  0  0
    6.0101   -6.4900   21.6621 H   0  0  0  0  0  0  0  0  0  0  0  0
    4.9381   -7.0042   23.4751 C   0  0  0  0  0  0  0  0  0  0  0  0
    5.8023   -6.7567   24.0973 H   0  0  0  0  0  0  0  0  0  0  0  0
    4.9546   -8.0795   23.2752 H   0  0  0  0  0  0  0  0  0  0  0  0
    3.6839   -6.5844   24.2413 C   0  0  0  0  0  0  0  0  0  0  0  0
    3.5541   -7.1816   25.1507 H   0  0  0  0  0  0  0  0  0  0  0  0
    2.7783   -6.7379   23.6383 H   0  0  0  0  0  0  0  0  0  0  0  0
  1  2  1  0
  2  3  1  0
  3  4  1  1
  3  5  1  0
  5  6  1  0
  5  7  1  0
  5  8  1  0
  8  9  1  0
  9 10  2  0
 10 11  1  0
 11 12  2  0
 12 13  1  0
 13 14  1  0
 14 15  2  0
 15 16  1  0
 15 17  1  0
 17 18  2  0
 18 19  1  0
 18 20  1  0
 20 21  1  0
 20 22  2  0
 22 23  1  0
 13 24  1  0
 24 25  1  0
 24 26  1  0
 24 27  1  0
 27 28  1  0
 27 29  1  0
 12 30  1  0
  8 31  1  0
 31 32  1  0
 31 33  1  0
 31 34  1  0
 34 35  1  0
 34 36  1  0
 34 37  1  0
 37 38  1  0
 37 39  1  0
 37  3  1  0
 30  9  1  0
 27 13  1  0
 22 14  1  0
M  END
>  <plip>  (1) 
-0.034482758620689655

>  <filename>  (1) 
[H][O][C@]1([H])[C]([H])([H])[N]([c]2[n][n][c]([C]3([c]4[c]([H])[n][c]([H])[c]([H])[c]4[H])[C]([H])([H])[C]3([H])[H])[o]2)[C]([H])([H])[C]([H])([H])[C]1([H])[H]

$$$$
