
     RDKit          3D

 32 35  0  0  0  0  0  0  0  0999 V2000
    4.8821    1.7225   16.8206 H   0  0  0  0  0  0  0  0  0  0  0  0
    5.4273    1.3529   17.6863 C   0  0  0  0  0  0  0  0  0  0  0  0
    6.6302    0.8148   17.4345 N   0  0  0  0  0  0  0  0  0  0  0  0
    7.3254    0.3575   18.4852 C   0  0  0  0  0  0  0  0  0  0  0  0
    8.3093   -0.0584   18.2696 H   0  0  0  0  0  0  0  0  0  0  0  0
    6.8713    0.3925   19.8141 C   0  0  0  0  0  0  0  0  0  0  0  0
    7.6946   -0.1876   20.9337 C   0  0  0  0  0  0  0  0  0  0  0  0
    7.4689   -1.6334   21.2402 C   0  0  0  0  0  0  0  0  0  0  0  0
    8.3110   -2.6140   21.3357 N   0  0  0  0  0  0  0  0  0  0  0  0
    7.6138   -3.6990   21.8342 N   0  0  0  0  0  0  0  0  0  0  0  0
    6.3989   -3.2883   22.0278 C   0  0  0  0  0  0  0  0  0  0  0  0
    5.2196   -3.9581   22.7124 C   0  0  0  0  0  0  0  0  0  0  0  0
    4.2613   -3.3150   23.0923 O   0  0  0  0  0  0  0  0  0  0  0  0
    5.2391   -5.4122   22.9396 C   0  0  0  0  0  0  0  0  0  0  0  0
    3.9778   -6.0618   23.9310 S   0  0  0  0  0  0  0  0  0  0  0  0
    4.5862   -7.6393   23.7189 C   0  0  0  0  0  0  0  0  0  0  0  0
    4.0872   -8.4442   24.2400 H   0  0  0  0  0  0  0  0  0  0  0  0
    5.6871   -7.6714   22.9097 C   0  0  0  0  0  0  0  0  0  0  0  0
    6.1675   -8.5892   22.5949 H   0  0  0  0  0  0  0  0  0  0  0  0
    6.0815   -6.3829   22.4632 C   0  0  0  0  0  0  0  0  0  0  0  0
    6.9473   -6.1506   21.8467 H   0  0  0  0  0  0  0  0  0  0  0  0
    6.2279   -2.0010   21.6351 O   0  0  0  0  0  0  0  0  0  0  0  0
    9.0709    0.3723   21.1991 C   0  0  0  0  0  0  0  0  0  0  0  0
    9.4224    1.1805   20.5607 H   0  0  0  0  0  0  0  0  0  0  0  0
    9.8310   -0.3483   21.4973 H   0  0  0  0  0  0  0  0  0  0  0  0
    7.9631    0.6706   22.1637 C   0  0  0  0  0  0  0  0  0  0  0  0
    7.5341    1.6730   22.1993 H   0  0  0  0  0  0  0  0  0  0  0  0
    7.9599    0.1577   23.1232 H   0  0  0  0  0  0  0  0  0  0  0  0
    5.6099    0.9515   20.0492 C   0  0  0  0  0  0  0  0  0  0  0  0
    5.2303    1.0066   21.0707 H   0  0  0  0  0  0  0  0  0  0  0  0
    4.8730    1.4412   18.9678 C   0  0  0  0  0  0  0  0  0  0  0  0
    3.8937    1.8856   19.1055 H   0  0  0  0  0  0  0  0  0  0  0  0
  1  2  1  0
  2  3  2  0
  3  4  1  0
  4  5  1  0
  4  6  2  0
  6  7  1  0
  7  8  1  0
  8  9  2  0
  9 10  1  0
 10 11  2  0
 11 12  1  0
 12 13  2  0
 12 14  1  0
 14 15  1  0
 15 16  1  0
 16 17  1  0
 16 18  2  0
 18 19  1  0
 18 20  1  0
 20 21  1  0
 11 22  1  0
  7 23  1  0
 23 24  1  0
 23 25  1  0
 23 26  1  0
 26 27  1  0
 26 28  1  0
  6 29  1  0
 29 30  1  0
 29 31  2  0
 31 32  1  0
 31  2  1  0
 26  7  1  0
 22  8  1  0
 20 14  2  0
M  END
>  <plip>  (1) 
-0.1

>  <filename>  (1) 
[H][c]1[n][c]([H])[c]([C]2([c]3[n][n][c]([C](=[O])[c]4[s][c]([H])[c]([H])[c]4[H])[o]3)[C]([H])([H])[C]2([H])[H])[c]([H])[c]1[H]

$$$$
