
     RDKit          3D

 50 54  0  0  0  0  0  0  0  0999 V2000
    8.2154   -3.3635   21.6479 O   0  0  0  0  0  0  0  0  0  0  0  0
    7.1042   -2.9798   21.9907 C   0  0  0  0  0  0  0  0  0  0  0  0
    6.6238   -1.7550   21.6213 N   0  0  0  0  0  0  0  0  0  0  0  0
    7.4327   -0.7246   20.9825 C   0  0  0  0  0  0  0  0  0  0  0  0
    6.6313   -0.0279   19.9049 C   0  0  0  0  0  0  0  0  0  0  0  0
    5.4158    0.6343   20.1471 C   0  0  0  0  0  0  0  0  0  0  0  0
    4.7903    1.3064   19.0925 C   0  0  0  0  0  0  0  0  0  0  0  0
    5.3959    1.2957   17.8311 C   0  0  0  0  0  0  0  0  0  0  0  0
    6.5550    0.6708   17.5762 N   0  0  0  0  0  0  0  0  0  0  0  0
    7.1455    0.0412   18.6000 C   0  0  0  0  0  0  0  0  0  0  0  0
    8.0991   -0.4336   18.3644 H   0  0  0  0  0  0  0  0  0  0  0  0
    4.9365    1.8058   16.9869 H   0  0  0  0  0  0  0  0  0  0  0  0
    3.8610    1.8507   19.2338 H   0  0  0  0  0  0  0  0  0  0  0  0
    4.9668    0.6508   21.1441 H   0  0  0  0  0  0  0  0  0  0  0  0
    8.0538    0.2908   21.9919 C   0  0  0  0  0  0  0  0  0  0  0  0
    9.1870   -0.3136   22.8429 C   0  0  0  0  0  0  0  0  0  0  0  0
    9.3312    0.6180   24.0618 C   0  0  0  0  0  0  0  0  0  0  0  0
    7.9436    1.2847   24.2648 C   0  0  0  0  0  0  0  0  0  0  0  0
    7.0859    0.9162   23.0256 C   0  0  0  0  0  0  0  0  0  0  0  0
    6.3140    0.1880   23.3194 H   0  0  0  0  0  0  0  0  0  0  0  0
    6.5549    1.7813   22.6079 H   0  0  0  0  0  0  0  0  0  0  0  0
    8.0479    2.3715   24.3729 H   0  0  0  0  0  0  0  0  0  0  0  0
    7.4512    0.9382   25.1841 H   0  0  0  0  0  0  0  0  0  0  0  0
   10.0938    1.3838   23.8684 H   0  0  0  0  0  0  0  0  0  0  0  0
    9.6734    0.0745   24.9523 H   0  0  0  0  0  0  0  0  0  0  0  0
    8.9183   -1.3312   23.1572 H   0  0  0  0  0  0  0  0  0  0  0  0
   10.1172   -0.4062   22.2659 H   0  0  0  0  0  0  0  0  0  0  0  0
    8.4748    1.1110   21.3853 H   0  0  0  0  0  0  0  0  0  0  0  0
    8.2750   -1.2452   20.5031 H   0  0  0  0  0  0  0  0  0  0  0  0
    5.6734   -1.5160   21.8631 H   0  0  0  0  0  0  0  0  0  0  0  0
    6.1757   -3.8422   22.8953 C   0  0  0  0  0  0  0  0  0  0  0  0
    6.6693   -5.2947   23.1732 C   0  0  0  0  0  0  0  0  0  0  0  0
    5.3363   -6.0076   23.5526 C   0  0  0  0  0  0  0  0  0  0  0  0
    4.3235   -4.8329   23.4105 C   0  0  0  0  0  0  0  0  0  0  0  0
    4.8757   -4.1077   22.3025 O   0  0  0  0  0  0  0  0  0  0  0  0
    4.5546   -3.8651   24.5583 C   0  0  0  0  0  0  0  0  0  0  0  0
    3.9533   -3.6559   25.7943 C   0  0  0  0  0  0  0  0  0  0  0  0
    4.5776   -2.7821   26.7017 C   0  0  0  0  0  0  0  0  0  0  0  0
    5.7844   -2.1474   26.3675 C   0  0  0  0  0  0  0  0  0  0  0  0
    6.3888   -2.3643   25.1212 C   0  0  0  0  0  0  0  0  0  0  0  0
    5.7592   -3.2250   24.2272 C   0  0  0  0  0  0  0  0  0  0  0  0
    7.3360   -1.8936   24.8723 H   0  0  0  0  0  0  0  0  0  0  0  0
    6.2608   -1.4868   27.0868 H   0  0  0  0  0  0  0  0  0  0  0  0
    4.1277   -2.6056   27.6755 H   0  0  0  0  0  0  0  0  0  0  0  0
    3.0296   -4.1613   26.0663 H   0  0  0  0  0  0  0  0  0  0  0  0
    3.2885   -5.1147   23.2019 H   0  0  0  0  0  0  0  0  0  0  0  0
    5.0906   -6.8194   22.8610 H   0  0  0  0  0  0  0  0  0  0  0  0
    5.3335   -6.4165   24.5699 H   0  0  0  0  0  0  0  0  0  0  0  0
    7.4114   -5.2914   23.9760 H   0  0  0  0  0  0  0  0  0  0  0  0
    7.1326   -5.7040   22.2709 H   0  0  0  0  0  0  0  0  0  0  0  0
  1  2  2  0
  2  3  1  0
  3  4  1  0
  4  5  1  0
  5  6  2  0
  6  7  1  0
  7  8  2  0
  8  9  1  0
  9 10  2  0
 10 11  1  0
  8 12  1  0
  7 13  1  0
  6 14  1  0
  4 15  1  0
 15 16  1  0
 16 17  1  0
 17 18  1  0
 18 19  1  0
 19 20  1  0
 19 21  1  0
 18 22  1  0
 18 23  1  0
 17 24  1  0
 17 25  1  0
 16 26  1  0
 16 27  1  0
 15 28  1  0
  4 29  1  0
  3 30  1  0
  2 31  1  0
 31 32  1  0
 32 33  1  0
 33 34  1  0
 34 35  1  0
 34 36  1  0
 36 37  2  0
 37 38  1  0
 38 39  2  0
 39 40  1  0
 40 41  2  0
 40 42  1  0
 39 43  1  0
 38 44  1  0
 37 45  1  0
 34 46  1  0
 33 47  1  0
 33 48  1  0
 32 49  1  0
 32 50  1  0
 10  5  1  0
 19 15  1  0
 35 31  1  0
 41 36  1  0
 41 31  1  0
M  END
>  <plip>  (1) 
-0.1

>  <filename>  (1) 
[H][c]1[n][c]([H])[c]([C]([H])([N]([H])[C](=[O])[C]23[O][C]([H])([c]4[c]([H])[c]([H])[c]([H])[c]([H])[c]42)[C]([H])([H])[C]3([H])[H])[C]2([H])[C]([H])([H])[C]([H])([H])[C]([H])([H])[C]2([H])[H])[c]([H])[c]1[H]

$$$$
