
     RDKit          3D

 41 44  0  0  0  0  0  0  0  0999 V2000
    5.0340    1.8141   16.6390 H   0  0  0  0  0  0  0  0  0  0  0  0
    5.5107    1.3517   17.5025 C   0  0  0  0  0  0  0  0  0  0  0  0
    6.6594    0.6944   17.2739 N   0  0  0  0  0  0  0  0  0  0  0  0
    7.2807    0.1334   18.3207 C   0  0  0  0  0  0  0  0  0  0  0  0
    8.2020   -0.3927   18.0733 H   0  0  0  0  0  0  0  0  0  0  0  0
    6.7993    0.1878   19.6446 C   0  0  0  0  0  0  0  0  0  0  0  0
    7.4675   -0.4222   20.8001 C   0  0  0  0  0  0  0  0  0  0  0  0
    6.9695   -0.6559   22.0393 C   0  0  0  0  0  0  0  0  0  0  0  0
    6.0037   -0.4405   22.4691 H   0  0  0  0  0  0  0  0  0  0  0  0
    7.9501   -1.2946   22.7855 N   0  0  0  0  0  0  0  0  0  0  0  0
    7.7382   -1.8901   24.0882 C   0  0  0  0  0  0  0  0  0  0  0  0
    8.7105   -2.0438   24.5671 H   0  0  0  0  0  0  0  0  0  0  0  0
    7.1595   -1.1836   24.7039 H   0  0  0  0  0  0  0  0  0  0  0  0
    7.0148   -3.1406   23.9785 N   0  0  0  0  0  0  0  0  0  0  0  0
    6.2397   -2.9978   23.3378 H   0  0  0  0  0  0  0  0  0  0  0  0
    7.7857   -4.2620   23.5393 C   0  0  1  0  0  0  0  0  0  0  0  0
    8.1342   -4.2814   22.5014 H   0  0  0  0  0  0  0  0  0  0  0  0
    8.7156   -4.8784   24.5364 C   0  0  0  0  0  0  0  0  0  0  0  0
    9.6943   -5.1801   24.1820 H   0  0  0  0  0  0  0  0  0  0  0  0
    8.6926   -4.4468   25.5347 H   0  0  0  0  0  0  0  0  0  0  0  0
    7.4965   -5.6382   24.0861 C   0  0  1  0  0  0  0  0  0  0  0  0
    7.6740   -6.3933   23.3192 H   0  0  0  0  0  0  0  0  0  0  0  0
    6.3333   -5.9960   24.9642 C   0  0  0  0  0  0  0  0  0  0  0  0
    6.4619   -6.2696   26.3343 C   0  0  0  0  0  0  0  0  0  0  0  0
    7.4321   -6.1529   26.8127 H   0  0  0  0  0  0  0  0  0  0  0  0
    5.3709   -6.7405   27.0743 C   0  0  0  0  0  0  0  0  0  0  0  0
    5.4900   -6.9368   28.1367 H   0  0  0  0  0  0  0  0  0  0  0  0
    4.1433   -6.9693   26.4445 C   0  0  0  0  0  0  0  0  0  0  0  0
    3.3012   -7.3614   27.0092 H   0  0  0  0  0  0  0  0  0  0  0  0
    3.9972   -6.6965   25.0821 C   0  0  0  0  0  0  0  0  0  0  0  0
    3.0487   -6.8792   24.5840 H   0  0  0  0  0  0  0  0  0  0  0  0
    5.0866   -6.2149   24.3512 C   0  0  0  0  0  0  0  0  0  0  0  0
    4.9807   -6.0278   23.2867 H   0  0  0  0  0  0  0  0  0  0  0  0
    9.0844   -1.4279   22.0443 C   0  0  0  0  0  0  0  0  0  0  0  0
   10.5719   -2.0429   22.4667 S   0  0  0  0  0  0  0  0  0  0  0  0
    8.7648   -0.9168   20.8265 N   0  0  0  0  0  0  0  0  0  0  0  0
    9.4934   -0.8578   20.1353 H   0  0  0  0  0  0  0  0  0  0  0  0
    5.5797    0.8590   19.8483 C   0  0  0  0  0  0  0  0  0  0  0  0
    5.1559    0.9261   20.8497 H   0  0  0  0  0  0  0  0  0  0  0  0
    4.9292    1.4487   18.7695 C   0  0  0  0  0  0  0  0  0  0  0  0
    3.9982    1.9890   18.9005 H   0  0  0  0  0  0  0  0  0  0  0  0
  1  2  1  0
  2  3  2  0
  3  4  1  0
  4  5  1  0
  4  6  2  0
  6  7  1  0
  7  8  2  0
  8  9  1  0
  8 10  1  0
 10 11  1  0
 11 12  1  0
 11 13  1  0
 11 14  1  0
 14 15  1  0
 14 16  1  0
 16 17  1  6
 16 18  1  0
 18 19  1  0
 18 20  1  0
 18 21  1  0
 21 22  1  6
 21 23  1  0
 23 24  2  0
 24 25  1  0
 24 26  1  0
 26 27  1  0
 26 28  2  0
 28 29  1  0
 28 30  1  0
 30 31  1  0
 30 32  2  0
 32 33  1  0
 10 34  1  0
 34 35  2  0
 34 36  1  0
 36 37  1  0
  6 38  1  0
 38 39  1  0
 38 40  2  0
 40 41  1  0
 40  2  1  0
 36  7  1  0
 21 16  1  0
 32 23  1  0
M  END
>  <plip>  (1) 
-0.10344827586206896

>  <filename>  (1) 
[H][c]1[n][c]([H])[c](-[c]2[c]([H])[n]([C]([H])([H])[N]([H])[C@@]3([H])[C]([H])([H])[C@@]3([H])[c]3[c]([H])[c]([H])[c]([H])[c]([H])[c]3[H])[c](=[S])[n]2[H])[c]([H])[c]1[H]

$$$$
