
     RDKit          3D

 37 39  0  0  0  0  0  0  0  0999 V2000
    5.6518   -2.6959   21.4002 S   0  0  0  0  0  0  0  0  0  0  0  0
    6.9138   -1.6688   21.6584 C   0  0  0  0  0  0  0  0  0  0  0  0
    7.4690   -0.8375   20.6996 N   0  0  0  0  0  0  0  0  0  0  0  0
    6.7038   -0.1749   19.6774 C   0  0  0  0  0  0  0  0  0  0  0  0
    5.4891    0.4444   19.9844 C   0  0  0  0  0  0  0  0  0  0  0  0
    4.8704    1.2221   18.9994 C   0  0  0  0  0  0  0  0  0  0  0  0
    5.4631    1.3162   17.7346 C   0  0  0  0  0  0  0  0  0  0  0  0
    6.5978    0.6751   17.4090 N   0  0  0  0  0  0  0  0  0  0  0  0
    7.1987   -0.0493   18.3620 C   0  0  0  0  0  0  0  0  0  0  0  0
    8.1249   -0.5520   18.0932 H   0  0  0  0  0  0  0  0  0  0  0  0
    5.0165    1.9284   16.9549 H   0  0  0  0  0  0  0  0  0  0  0  0
    3.9611    1.7724   19.2086 H   0  0  0  0  0  0  0  0  0  0  0  0
    5.0557    0.3275   20.9796 H   0  0  0  0  0  0  0  0  0  0  0  0
    8.0857   -0.2091   21.2013 H   0  0  0  0  0  0  0  0  0  0  0  0
    7.5988   -1.5360   22.8468 N   0  0  0  0  0  0  0  0  0  0  0  0
    6.9464   -1.2900   24.1318 C   0  0  0  0  0  0  0  0  0  0  0  0
    7.1187   -2.4689   25.0778 C   0  0  0  0  0  0  0  0  0  0  0  0
    8.6087   -2.8311   25.2365 C   0  0  0  0  0  0  0  0  0  0  0  0
    8.7706   -3.9982   26.1501 C   0  0  0  0  0  0  0  0  0  0  0  0
    7.9976   -5.0809   26.4070 C   0  0  0  0  0  0  0  0  0  0  0  0
    8.6655   -5.8111   27.4365 C   0  0  0  0  0  0  0  0  0  0  0  0
    9.8127   -5.1382   27.6936 C   0  0  0  0  0  0  0  0  0  0  0  0
    9.8900   -4.0295   26.9185 O   0  0  0  0  0  0  0  0  0  0  0  0
   10.6255   -5.2647   28.3974 H   0  0  0  0  0  0  0  0  0  0  0  0
    8.3102   -6.7050   27.9267 H   0  0  0  0  0  0  0  0  0  0  0  0
    7.0568   -5.3035   25.9211 H   0  0  0  0  0  0  0  0  0  0  0  0
    9.2644   -3.0580   23.8516 C   0  0  0  0  0  0  0  0  0  0  0  0
    9.0329   -1.8315   22.9590 C   0  0  0  0  0  0  0  0  0  0  0  0
    9.4721   -1.9774   21.9648 H   0  0  0  0  0  0  0  0  0  0  0  0
    9.5207   -0.9601   23.4238 H   0  0  0  0  0  0  0  0  0  0  0  0
    8.8499   -3.9446   23.3555 H   0  0  0  0  0  0  0  0  0  0  0  0
   10.3395   -3.2378   23.9697 H   0  0  0  0  0  0  0  0  0  0  0  0
    9.1352   -1.9879   25.7154 H   0  0  0  0  0  0  0  0  0  0  0  0
    6.6873   -2.2251   26.0586 H   0  0  0  0  0  0  0  0  0  0  0  0
    6.5470   -3.3143   24.6718 H   0  0  0  0  0  0  0  0  0  0  0  0
    7.4282   -0.4117   24.5898 H   0  0  0  0  0  0  0  0  0  0  0  0
    5.8905   -1.0590   23.9917 H   0  0  0  0  0  0  0  0  0  0  0  0
  1  2  2  0
  2  3  1  0
  3  4  1  0
  4  5  2  0
  5  6  1  0
  6  7  2  0
  7  8  1  0
  8  9  2  0
  9 10  1  0
  7 11  1  0
  6 12  1  0
  5 13  1  0
  3 14  1  0
  2 15  1  0
 15 16  1  0
 16 17  1  0
 17 18  1  0
 18 19  1  0
 19 20  2  0
 20 21  1  0
 21 22  2  0
 22 23  1  0
 22 24  1  0
 21 25  1  0
 20 26  1  0
 18 27  1  0
 27 28  1  0
 28 29  1  0
 28 30  1  0
 27 31  1  0
 27 32  1  0
 18 33  1  0
 17 34  1  0
 17 35  1  0
 16 36  1  0
 16 37  1  0
  9  4  1  0
 28 15  1  0
 23 19  1  0
M  END
>  <plip>  (1) 
-0.03571428571428571

>  <filename>  (1) 
[H][c]1[n][c]([H])[c]([N]([H])[C](=[S])[N]2[C]([H])([H])[C]([H])([H])[C]([H])([c]3[o][c]([H])[c]([H])[c]3[H])[C]([H])([H])[C]2([H])[H])[c]([H])[c]1[H]

$$$$
