
     RDKit          3D

 40 42  0  0  0  0  0  0  0  0999 V2000
    7.6487    2.4516   24.6773 C   0  0  0  0  0  0  0  0  0  0  0  0
    8.0010    2.0784   23.2296 C   0  0  0  0  0  0  0  0  0  0  0  0
    9.4868    1.8497   22.9294 C   0  0  0  0  0  0  0  0  0  0  0  0
   10.3308    3.1158   23.0670 C   0  0  0  0  0  0  0  0  0  0  0  0
   11.5630    2.8253   22.2204 C   0  0  0  0  0  0  0  0  0  0  0  0
   10.9710    2.1898   20.9634 C   0  0  0  0  0  0  0  0  0  0  0  0
    9.7331    1.4453   21.4331 N   0  0  0  0  0  4  0  0  0  0  0  0
    9.8072   -0.0296   21.1231 C   0  0  0  0  0  0  0  0  0  0  0  0
    8.6216   -0.7962   21.6088 C   0  0  0  0  0  0  0  0  0  0  0  0
    8.6206   -1.7072   22.6415 C   0  0  0  0  0  0  0  0  0  0  0  0
    7.3360   -2.0769   22.8335 N   0  0  0  0  0  0  0  0  0  0  0  0
    6.4939   -1.4862   21.9771 N   0  0  0  0  0  0  0  0  0  0  0  0
    7.2580   -0.7147   21.2066 C   0  0  0  0  0  0  0  0  0  0  0  0
    6.6485    0.0192   20.0858 C   0  0  0  0  0  0  0  0  0  0  0  0
    5.4151    0.6781   20.2167 C   0  0  0  0  0  0  0  0  0  0  0  0
    4.8924    1.3269   19.0998 C   0  0  0  0  0  0  0  0  0  0  0  0
    5.6031    1.2798   17.8936 C   0  0  0  0  0  0  0  0  0  0  0  0
    6.7702    0.6332   17.7486 N   0  0  0  0  0  0  0  0  0  0  0  0
    7.2675    0.0180   18.8305 C   0  0  0  0  0  0  0  0  0  0  0  0
    8.1950   -0.5295   18.6728 H   0  0  0  0  0  0  0  0  0  0  0  0
    5.2113    1.7796   17.0073 H   0  0  0  0  0  0  0  0  0  0  0  0
    3.9504    1.8649   19.1549 H   0  0  0  0  0  0  0  0  0  0  0  0
    4.8845    0.6617   21.1719 H   0  0  0  0  0  0  0  0  0  0  0  0
    6.9567   -2.7191   23.5104 H   0  0  0  0  0  0  0  0  0  0  0  0
    9.4363   -2.0908   23.2386 H   0  0  0  0  0  0  0  0  0  0  0  0
   10.7114   -0.4567   21.5764 H   0  0  0  0  0  0  0  0  0  0  0  0
    9.9407   -0.1789   20.0419 H   0  0  0  0  0  0  0  0  0  0  0  0
    8.8525    1.7287   20.9467 H   0  0  0  0  0  0  0  0  0  0  0  0
   11.6724    1.4985   20.4783 H   0  0  0  0  0  0  0  0  0  0  0  0
   10.6983    2.9472   20.2260 H   0  0  0  0  0  0  0  0  0  0  0  0
   12.2080    2.0955   22.7263 H   0  0  0  0  0  0  0  0  0  0  0  0
   12.1582    3.7144   21.9820 H   0  0  0  0  0  0  0  0  0  0  0  0
    9.7735    3.9649   22.6354 H   0  0  0  0  0  0  0  0  0  0  0  0
   10.5608    3.3443   24.1155 H   0  0  0  0  0  0  0  0  0  0  0  0
    9.8968    1.0261   23.5319 H   0  0  0  0  0  0  0  0  0  0  0  0
    7.4357    1.2003   22.9055 H   0  0  0  0  0  0  0  0  0  0  0  0
    7.6685    2.8980   22.5788 H   0  0  0  0  0  0  0  0  0  0  0  0
    6.5645    2.5824   24.7727 H   0  0  0  0  0  0  0  0  0  0  0  0
    8.1056    3.4023   24.9842 H   0  0  0  0  0  0  0  0  0  0  0  0
    7.9446    1.6868   25.4051 H   0  0  0  0  0  0  0  0  0  0  0  0
  1  2  1  0
  2  3  1  0
  3  4  1  0
  4  5  1  0
  5  6  1  0
  6  7  1  0
  7  8  1  0
  8  9  1  0
  9 10  2  0
 10 11  1  0
 11 12  1  0
 12 13  2  0
 13 14  1  0
 14 15  2  0
 15 16  1  0
 16 17  2  0
 17 18  1  0
 18 19  2  0
 19 20  1  0
 17 21  1  0
 16 22  1  0
 15 23  1  0
 11 24  1  0
 10 25  1  0
  8 26  1  0
  8 27  1  0
  7 28  1  0
  6 29  1  0
  6 30  1  0
  5 31  1  0
  5 32  1  0
  4 33  1  0
  4 34  1  0
  3 35  1  0
  2 36  1  0
  2 37  1  0
  1 38  1  0
  1 39  1  0
  1 40  1  0
  7  3  1  0
 13  9  1  0
 19 14  1  0
M  CHG  1   7   1
M  END
>  <plip>  (1) 
-0.07142857142857142

>  <filename>  (1) 
[H][c]1[n][c]([H])[c](-[c]2[n][n]([H])[c]([H])[c]2[C]([H])([H])[N+]2([H])[C]([H])([H])[C]([H])([H])[C]([H])([H])[C]2([H])[C]([H])([H])[C]([H])([H])[H])[c]([H])[c]1[H]

$$$$
