
     RDKit          3D

 37 38  0  0  0  0  0  0  0  0999 V2000
    8.3020   -1.9985   23.1623 O   0  0  0  0  0  0  0  0  0  0  0  0
    7.9886   -2.5989   22.1115 C   0  0  0  0  0  0  0  0  0  0  0  0
    8.2815   -3.7513   21.7679 O   0  0  0  0  0  1  0  0  0  0  0  0
    7.1051   -1.8535   21.0937 C   0  0  0  0  0  0  0  0  0  0  0  0
    7.0728   -0.3593   21.3370 C   0  0  1  0  0  0  0  0  0  0  0  0
    8.4710    0.0002   21.6152 N   0  0  0  0  0  0  0  0  0  0  0  0
    8.6458    1.5506   22.2181 S   0  0  0  0  0  0  0  0  0  0  0  0
    8.4852    1.4003   23.6513 O   0  0  0  0  0  0  0  0  0  0  0  0
    7.8536    2.4854   21.4559 O   0  0  0  0  0  0  0  0  0  0  0  0
   10.3577    1.7383   21.8211 C   0  0  0  0  0  0  0  0  0  0  0  0
   11.0134    2.9491   22.5788 C   0  0  1  0  0  0  0  0  0  0  0  0
   12.3851    3.4561   22.0917 C   0  0  0  0  0  0  0  0  0  0  0  0
   12.3539    3.4564   21.6810 C   0  0  1  0  0  0  0  0  0  0  0  0
   12.8485    4.7965   22.6033 C   0  0  0  0  0  0  0  0  0  0  0  0
   13.4203    4.5974   23.8864 F   0  0  0  0  0  0  0  0  0  0  0  0
   12.0606    5.5661   22.8045 H   0  0  0  0  0  0  0  0  0  0  0  0
   13.6513    5.3489   22.0535 H   0  0  0  0  0  0  0  0  0  0  0  0
   12.2829    3.5435   20.4833 H   0  0  0  0  0  0  0  0  0  0  0  0
   12.9937    2.3862   22.1640 H   0  0  0  0  0  0  0  0  0  0  0  0
   10.2041    3.7727   22.6390 H   0  0  0  0  0  0  0  0  0  0  0  0
   11.1887    2.5577   23.6384 H   0  0  0  0  0  0  0  0  0  0  0  0
   10.2781    1.7978   20.7313 H   0  0  0  0  0  0  0  0  0  0  0  0
   10.7318    0.7410   22.0981 H   0  0  0  0  0  0  0  0  0  0  0  0
    8.6842   -0.4949   22.5006 H   0  0  0  0  0  0  0  0  0  0  0  0
    6.5400    0.3372   20.1157 C   0  0  0  0  0  0  0  0  0  0  0  0
    5.2425    0.8630   20.0460 C   0  0  0  0  0  0  0  0  0  0  0  0
    4.7937    1.3915   18.8329 C   0  0  0  0  0  0  0  0  0  0  0  0
    5.6572    1.3758   17.7339 C   0  0  0  0  0  0  0  0  0  0  0  0
    6.9017    0.8799   17.7796 N   0  0  0  0  0  0  0  0  0  0  0  0
    7.3258    0.3970   18.9578 C   0  0  0  0  0  0  0  0  0  0  0  0
    8.3480    0.0158   18.9727 H   0  0  0  0  0  0  0  0  0  0  0  0
    5.3365    1.7707   16.7715 H   0  0  0  0  0  0  0  0  0  0  0  0
    3.8048    1.8237   18.7316 H   0  0  0  0  0  0  0  0  0  0  0  0
    4.5969    0.8633   20.9261 H   0  0  0  0  0  0  0  0  0  0  0  0
    6.4080   -0.1453   22.1983 H   0  0  0  0  0  0  0  0  0  0  0  0
    6.1097   -2.3083   21.1229 H   0  0  0  0  0  0  0  0  0  0  0  0
    7.5287   -2.0716   20.1131 H   0  0  0  0  0  0  0  0  0  0  0  0
  1  2  2  0
  2  3  1  0
  2  4  1  0
  4  5  1  0
  5  6  1  0
  6  7  1  0
  7  8  2  0
  7  9  2  0
  7 10  1  0
 10 11  1  0
 11 12  1  0
 12 13  1  0
 13 14  1  0
 14 15  1  0
 14 16  1  0
 14 17  1  0
 13 18  1  1
 12 19  1  0
 12 20  1  0
 11 21  1  6
 10 22  1  0
 10 23  1  0
  6 24  1  0
  5 25  1  0
 25 26  2  0
 26 27  1  0
 27 28  2  0
 28 29  1  0
 29 30  2  0
 30 31  1  0
 28 32  1  0
 27 33  1  0
 26 34  1  0
  5 35  1  1
  4 36  1  0
  4 37  1  0
 13 11  1  0
 30 25  1  0
M  CHG  1   3  -1
M  END
>  <plip>  (1) 
-0.10714285714285714

>  <filename>  (1) 
[H][c]1[n][c]([H])[c]([C@]([H])([N]([H])[S](=[O])(=[O])[C]([H])([H])[C@]2([H])[C]([H])([H])[C@@]2([H])[C]([H])([H])[F])[C]([H])([H])[C](=[O])[O-])[c]([H])[c]1[H]

$$$$
