
     RDKit          3D

 29 31  0  0  0  0  0  0  0  0999 V2000
    4.9198    1.7814   16.9944 H   0  0  0  0  0  0  0  0  0  0  0  0
    5.4000    1.2929   17.8389 C   0  0  0  0  0  0  0  0  0  0  0  0
    6.5671    0.6785   17.5790 N   0  0  0  0  0  0  0  0  0  0  0  0
    7.1697    0.0538   18.5975 C   0  0  0  0  0  0  0  0  0  0  0  0
    8.1205   -0.4287   18.3784 H   0  0  0  0  0  0  0  0  0  0  0  0
    6.6343   -0.0105   19.8907 C   0  0  0  0  0  0  0  0  0  0  0  0
    7.6033   -0.7707   21.1770 S   0  0  0  0  0  0  0  0  0  0  0  0
    8.4965    0.5727   21.6655 N   0  0  0  0  0  0  0  0  0  0  0  0
    9.3123    0.7762   21.1067 H   0  0  0  0  0  0  0  0  0  0  0  0
    8.0730    1.5490   22.5847 C   0  0  0  0  0  0  0  0  0  0  0  0
    6.9304    1.3593   23.4655 C   0  0  0  0  0  0  0  0  0  0  0  0
    6.3766    0.4242   23.3849 H   0  0  0  0  0  0  0  0  0  0  0  0
    6.5224    2.2128   24.3770 N   0  0  0  0  0  0  0  0  0  0  0  0
    7.2299    3.3874   24.5034 C   0  0  0  0  0  0  0  0  0  0  0  0
    6.8200    4.3401   25.4827 C   0  0  0  0  0  0  0  0  0  0  0  0
    5.9562    4.0868   26.0890 H   0  0  0  0  0  0  0  0  0  0  0  0
    7.5042    5.5296   25.6359 C   0  0  0  0  0  0  0  0  0  0  0  0
    7.1864    6.2586   26.3823 H   0  0  0  0  0  0  0  0  0  0  0  0
    8.6340    5.8213   24.8162 C   0  0  0  0  0  0  0  0  0  0  0  0
    9.1576    6.7682   24.9518 H   0  0  0  0  0  0  0  0  0  0  0  0
    9.0569    4.9249   23.8643 C   0  0  0  0  0  0  0  0  0  0  0  0
    9.9175    5.1417   23.2306 H   0  0  0  0  0  0  0  0  0  0  0  0
    8.3708    3.6860   23.6798 C   0  0  0  0  0  0  0  0  0  0  0  0
    8.7759    2.7293   22.7079 C   0  0  0  0  0  0  0  0  0  0  0  0
    9.6369    2.9390   22.0671 H   0  0  0  0  0  0  0  0  0  0  0  0
    5.4246    0.6380   20.1574 C   0  0  0  0  0  0  0  0  0  0  0  0
    5.0021    0.6327   21.1649 H   0  0  0  0  0  0  0  0  0  0  0  0
    4.7988    1.3102   19.1038 C   0  0  0  0  0  0  0  0  0  0  0  0
    3.8700    1.8477   19.2583 H   0  0  0  0  0  0  0  0  0  0  0  0
  1  2  1  0
  2  3  2  0
  3  4  1  0
  4  5  1  0
  4  6  2  0
  6  7  1  0
  7  8  1  0
  8  9  1  0
  8 10  1  0
 10 11  2  0
 11 12  1  0
 11 13  1  0
 13 14  2  0
 14 15  1  0
 15 16  1  0
 15 17  2  0
 17 18  1  0
 17 19  1  0
 19 20  1  0
 19 21  2  0
 21 22  1  0
 21 23  1  0
 23 24  2  0
 24 25  1  0
  6 26  1  0
 26 27  1  0
 26 28  2  0
 28 29  1  0
 28  2  1  0
 24 10  1  0
 23 14  1  0
M  END
>  <plip>  (1) 
-0.03571428571428571

>  <filename>  (1) 
[H][c]1[n][c]([H])[c]([S][N]([H])[c]2[c]([H])[n][c]3[c]([H])[c]([H])[c]([H])[c]([H])[c]3[c]2[H])[c]([H])[c]1[H]

$$$$
