
     RDKit          3D

 36 37  0  0  0  0  0  0  0  0999 V2000
    8.9359   -4.5301   23.1032 C   0  0  0  0  0  0  0  0  0  0  0  0
    7.5826   -4.1438   23.5002 N   0  0  0  0  0  0  0  0  0  0  0  0
    6.6881   -3.5056   22.6326 C   0  0  0  0  0  0  0  0  0  0  0  0
    5.5155   -3.3199   22.8954 O   0  0  0  0  0  0  0  0  0  0  0  0
    7.2574   -3.1036   21.4435 N   0  0  0  0  0  0  0  0  0  0  0  0
    6.7181   -2.0297   20.6140 C   0  0  0  0  0  0  0  0  0  0  0  0
    7.4389   -0.6569   20.6157 C   0  0  0  0  0  0  0  0  0  0  0  0
    7.4106   -0.1327   21.8768 F   0  0  0  0  0  0  0  0  0  0  0  0
    8.7616   -0.8003   20.2864 F   0  0  0  0  0  0  0  0  0  0  0  0
    6.7752    0.2745   19.6405 C   0  0  0  0  0  0  0  0  0  0  0  0
    5.5636    0.9084   19.9440 C   0  0  0  0  0  0  0  0  0  0  0  0
    4.8516    1.4853   18.8940 C   0  0  0  0  0  0  0  0  0  0  0  0
    5.3901    1.4361   17.6039 C   0  0  0  0  0  0  0  0  0  0  0  0
    6.5774    0.8816   17.3174 N   0  0  0  0  0  0  0  0  0  0  0  0
    7.2567    0.3340   18.3282 C   0  0  0  0  0  0  0  0  0  0  0  0
    8.2319   -0.0855   18.0877 H   0  0  0  0  0  0  0  0  0  0  0  0
    4.8520    1.8706   16.7659 H   0  0  0  0  0  0  0  0  0  0  0  0
    3.8940    1.9598   19.0663 H   0  0  0  0  0  0  0  0  0  0  0  0
    5.1903    0.9450   20.9690 H   0  0  0  0  0  0  0  0  0  0  0  0
    6.6674   -2.3529   19.5684 H   0  0  0  0  0  0  0  0  0  0  0  0
    5.6925   -1.8151   20.9246 H   0  0  0  0  0  0  0  0  0  0  0  0
    8.2395   -3.2905   21.3786 H   0  0  0  0  0  0  0  0  0  0  0  0
    7.2241   -4.3148   24.8757 C   0  0  0  0  0  0  0  0  0  0  0  0
    6.2213   -5.2283   25.2399 C   0  0  0  0  0  0  0  0  0  0  0  0
    5.9195   -5.4755   26.5846 C   0  0  0  0  0  0  0  0  0  0  0  0
    6.6258   -4.7814   27.5638 C   0  0  0  0  0  0  0  0  0  0  0  0
    6.2983   -4.9435   28.8549 F   0  0  0  0  0  0  0  0  0  0  0  0
    7.6572   -3.9033   27.2507 C   0  0  0  0  0  0  0  0  0  0  0  0
    7.9180   -3.6427   25.9056 C   0  0  0  0  0  0  0  0  0  0  0  0
    9.0828   -2.4035   25.5504 Cl  0  0  0  0  0  0  0  0  0  0  0  0
    8.2629   -3.4420   28.0163 H   0  0  0  0  0  0  0  0  0  0  0  0
    5.1513   -6.1834   26.8800 H   0  0  0  0  0  0  0  0  0  0  0  0
    5.6901   -5.7472   24.4453 H   0  0  0  0  0  0  0  0  0  0  0  0
    9.4814   -4.8981   23.9747 H   0  0  0  0  0  0  0  0  0  0  0  0
    8.9216   -5.3210   22.3394 H   0  0  0  0  0  0  0  0  0  0  0  0
    9.5009   -3.6627   22.7323 H   0  0  0  0  0  0  0  0  0  0  0  0
  1  2  1  0
  2  3  1  0
  3  4  2  0
  3  5  1  0
  5  6  1  0
  6  7  1  0
  7  8  1  0
  7  9  1  0
  7 10  1  0
 10 11  2  0
 11 12  1  0
 12 13  2  0
 13 14  1  0
 14 15  2  0
 15 16  1  0
 13 17  1  0
 12 18  1  0
 11 19  1  0
  6 20  1  0
  6 21  1  0
  5 22  1  0
  2 23  1  0
 23 24  2  0
 24 25  1  0
 25 26  2  0
 26 27  1  0
 26 28  1  0
 28 29  2  0
 29 30  1  0
 28 31  1  0
 25 32  1  0
 24 33  1  0
  1 34  1  0
  1 35  1  0
  1 36  1  0
 15 10  1  0
 29 23  1  0
M  END
>  <plip>  (1) 
-0.1

>  <filename>  (1) 
[H][c]1[n][c]([H])[c]([C]([F])([F])[C]([H])([H])[N]([H])[C](=[O])[N]([c]2[c]([H])[c]([H])[c]([F])[c]([H])[c]2[Cl])[C]([H])([H])[H])[c]([H])[c]1[H]

$$$$
