
     RDKit          3D

 35 37  0  0  0  0  0  0  0  0999 V2000
    8.3314   -6.0009   28.3454 C   0  0  0  0  0  0  0  0  0  0  0  0
    7.0295   -5.5834   28.0598 C   0  0  0  0  0  0  0  0  0  0  0  0
    6.8585   -4.3254   27.4820 C   0  0  0  0  0  0  0  0  0  0  0  0
    7.9907   -3.5442   27.2134 C   0  0  0  0  0  0  0  0  0  0  0  0
    7.8498   -2.1370   26.6937 C   0  0  0  0  0  0  0  0  0  0  0  0
    7.7313   -2.2142   25.2781 O   0  0  0  0  0  0  0  0  0  0  0  0
    7.5889   -1.1001   24.5132 C   0  0  0  0  0  0  0  0  0  0  0  0
    7.5050    0.2175   24.9896 C   0  0  0  0  0  0  0  0  0  0  0  0
    7.3661    1.2536   24.0597 C   0  0  0  0  0  0  0  0  0  0  0  0
    7.3052    0.9870   22.6917 C   0  0  0  0  0  0  0  0  0  0  0  0
    7.3690   -0.3410   22.2428 C   0  0  0  0  0  0  0  0  0  0  0  0
    7.3572   -0.6968   20.9094 O   0  0  0  0  0  0  0  0  0  0  0  0
    6.6544    0.0062   19.9581 C   0  0  0  0  0  0  0  0  0  0  0  0
    5.4294    0.6387   20.1919 C   0  0  0  0  0  0  0  0  0  0  0  0
    4.8090    1.2866   19.1158 C   0  0  0  0  0  0  0  0  0  0  0  0
    5.4267    1.2692   17.8626 C   0  0  0  0  0  0  0  0  0  0  0  0
    6.5940    0.6447   17.6259 N   0  0  0  0  0  0  0  0  0  0  0  0
    7.1873    0.0281   18.6540 C   0  0  0  0  0  0  0  0  0  0  0  0
    8.1349   -0.4693   18.4512 H   0  0  0  0  0  0  0  0  0  0  0  0
    4.9783    1.7757   17.0136 H   0  0  0  0  0  0  0  0  0  0  0  0
    3.8731    1.8210   19.2464 H   0  0  0  0  0  0  0  0  0  0  0  0
    4.9902    0.6341   21.1886 H   0  0  0  0  0  0  0  0  0  0  0  0
    7.5314   -1.3804   23.1451 C   0  0  0  0  0  0  0  0  0  0  0  0
    7.6249   -2.4077   22.8201 H   0  0  0  0  0  0  0  0  0  0  0  0
    7.1994    1.7749   21.9593 H   0  0  0  0  0  0  0  0  0  0  0  0
    7.2944    2.2833   24.4049 H   0  0  0  0  0  0  0  0  0  0  0  0
    7.5527    0.4209   26.0546 H   0  0  0  0  0  0  0  0  0  0  0  0
    6.9549   -1.6755   27.1355 H   0  0  0  0  0  0  0  0  0  0  0  0
    8.7393   -1.5682   26.9928 H   0  0  0  0  0  0  0  0  0  0  0  0
    9.2424   -3.9715   27.4328 N   0  0  0  0  0  0  0  0  0  0  0  0
    9.4041   -5.1687   28.0016 C   0  0  0  0  0  0  0  0  0  0  0  0
   10.4353   -5.4307   28.2351 H   0  0  0  0  0  0  0  0  0  0  0  0
    5.8765   -3.9049   27.2945 H   0  0  0  0  0  0  0  0  0  0  0  0
    6.1731   -6.2088   28.3189 H   0  0  0  0  0  0  0  0  0  0  0  0
    8.5174   -6.9333   28.8566 H   0  0  0  0  0  0  0  0  0  0  0  0
  1  2  2  0
  2  3  1  0
  3  4  2  0
  4  5  1  0
  5  6  1  0
  6  7  1  0
  7  8  2  0
  8  9  1  0
  9 10  2  0
 10 11  1  0
 11 12  1  0
 12 13  1  0
 13 14  2  0
 14 15  1  0
 15 16  2  0
 16 17  1  0
 17 18  2  0
 18 19  1  0
 16 20  1  0
 15 21  1  0
 14 22  1  0
 11 23  2  0
 23 24  1  0
 10 25  1  0
  9 26  1  0
  8 27  1  0
  5 28  1  0
  5 29  1  0
  4 30  1  0
 30 31  2  0
 31 32  1  0
  3 33  1  0
  2 34  1  0
  1 35  1  0
 31  1  1  0
 23  7  1  0
 18 13  1  0
M  END
>  <plip>  (1) 
-0.0

>  <filename>  (1) 
[H][c]1[n][c]([C]([H])([H])[O][c]2[c]([H])[c]([H])[c]([H])[c]([O][c]3[c]([H])[n][c]([H])[c]([H])[c]3[H])[c]2[H])[c]([H])[c]([H])[c]1[H]

$$$$
