
     RDKit          3D

 29 31  0  0  0  0  0  0  0  0999 V2000
    4.9305    1.8081   16.9871 H   0  0  0  0  0  0  0  0  0  0  0  0
    5.3925    1.2921   17.8267 C   0  0  0  0  0  0  0  0  0  0  0  0
    6.5539    0.6722   17.5615 N   0  0  0  0  0  0  0  0  0  0  0  0
    7.1771    0.0598   18.5741 C   0  0  0  0  0  0  0  0  0  0  0  0
    8.1282   -0.4036   18.3229 H   0  0  0  0  0  0  0  0  0  0  0  0
    6.6849    0.0078   19.9057 C   0  0  0  0  0  0  0  0  0  0  0  0
    7.4045   -0.6747   21.0072 C   0  0  0  0  0  0  0  0  0  0  0  0
    8.4575   -2.0179   20.8733 S   0  0  0  0  0  0  0  0  0  0  0  0
    8.7498   -2.1137   22.5178 N   0  0  0  0  0  0  0  0  0  0  0  0
    8.1106   -1.2057   23.1608 N   0  0  0  0  0  0  0  0  0  0  0  0
    7.3705   -0.3911   22.3709 C   0  0  0  0  0  0  0  0  0  0  0  0
    6.6377    0.6182   22.8700 O   0  0  0  0  0  0  0  0  0  0  0  0
    6.8093    0.9566   24.2644 C   0  0  0  0  0  0  0  0  0  0  0  0
    6.6521    0.0558   24.8690 H   0  0  0  0  0  0  0  0  0  0  0  0
    5.9945    1.6684   24.4267 H   0  0  0  0  0  0  0  0  0  0  0  0
    8.1828    1.5476   24.5596 C   0  0  0  0  0  0  0  0  0  0  0  0
    8.5961    2.7539   23.9732 C   0  0  0  0  0  0  0  0  0  0  0  0
    7.9063    3.3568   23.3909 H   0  0  0  0  0  0  0  0  0  0  0  0
    9.9138    3.1895   24.1624 C   0  0  0  0  0  0  0  0  0  0  0  0
   10.2468    4.1456   23.7540 H   0  0  0  0  0  0  0  0  0  0  0  0
   10.8210    2.5061   24.8704 N   0  0  0  0  0  0  0  0  0  0  0  0
   10.4152    1.3876   25.4847 C   0  0  0  0  0  0  0  0  0  0  0  0
   11.1481    0.8898   26.1215 H   0  0  0  0  0  0  0  0  0  0  0  0
    9.1215    0.8720   25.3575 C   0  0  0  0  0  0  0  0  0  0  0  0
    8.8662   -0.0615   25.8512 H   0  0  0  0  0  0  0  0  0  0  0  0
    5.4560    0.6600   20.1459 C   0  0  0  0  0  0  0  0  0  0  0  0
    5.0455    0.6571   21.1530 H   0  0  0  0  0  0  0  0  0  0  0  0
    4.7981    1.3055   19.0932 C   0  0  0  0  0  0  0  0  0  0  0  0
    3.8593    1.8374   19.2352 H   0  0  0  0  0  0  0  0  0  0  0  0
  1  2  1  0
  2  3  2  0
  3  4  1  0
  4  5  1  0
  4  6  2  0
  6  7  1  0
  7  8  1  0
  8  9  1  0
  9 10  2  0
 10 11  1  0
 11 12  1  0
 12 13  1  0
 13 14  1  0
 13 15  1  0
 13 16  1  0
 16 17  2  0
 17 18  1  0
 17 19  1  0
 19 20  1  0
 19 21  2  0
 21 22  1  0
 22 23  1  0
 22 24  2  0
 24 25  1  0
  6 26  1  0
 26 27  1  0
 26 28  2  0
 28 29  1  0
 28  2  1  0
 11  7  2  0
 24 16  1  0
M  END
>  <plip>  (1) 
-0.0

>  <filename>  (1) 
[H][c]1[n][c]([H])[c](-[c]2[s][n][n][c]2[O][C]([H])([H])[c]2[c]([H])[c]([H])[n][c]([H])[c]2[H])[c]([H])[c]1[H]

$$$$
