
     RDKit          3D

 47 48  0  0  0  0  0  0  0  0999 V2000
    9.4088   -1.9056   24.8722 C   0  0  0  0  0  0  0  0  0  0  0  0
    8.8851   -0.5926   24.7391 O   0  0  0  0  0  0  0  0  0  0  0  0
    9.6722    0.5160   24.7332 C   0  0  0  0  0  0  0  0  0  0  0  0
   11.0541    0.5072   24.9673 C   0  0  0  0  0  0  0  0  0  0  0  0
   11.8085    1.6636   24.7625 C   0  0  0  0  0  0  0  0  0  0  0  0
   11.1877    2.8576   24.3965 C   0  0  0  0  0  0  0  0  0  0  0  0
    9.7991    2.8835   24.2262 C   0  0  0  0  0  0  0  0  0  0  0  0
    9.0302    1.7250   24.3833 C   0  0  0  0  0  0  0  0  0  0  0  0
    7.5634    1.7043   23.9267 C   0  0  0  0  0  0  0  0  0  0  0  0
    6.6850    1.0534   24.8181 O   0  0  0  0  0  0  0  0  0  0  0  0
    6.3878    1.7986   25.9850 C   0  0  0  0  0  0  0  0  0  0  0  0
    5.7943    2.6982   25.7592 H   0  0  0  0  0  0  0  0  0  0  0  0
    7.2913    2.1109   26.5261 H   0  0  0  0  0  0  0  0  0  0  0  0
    5.8017    1.1385   26.6263 H   0  0  0  0  0  0  0  0  0  0  0  0
    7.5510    1.1140   22.4797 C   0  0  0  0  0  0  0  0  0  0  0  0
    7.9723    1.8147   21.5702 O   0  0  0  0  0  0  0  0  0  0  0  0
    7.1191   -0.1570   22.2775 N   0  0  0  0  0  0  0  0  0  0  0  0
    7.3204   -0.8033   20.9936 C   0  0  0  0  0  0  0  0  0  0  0  0
    8.8431   -0.9477   20.7637 C   0  0  0  0  0  0  0  0  0  0  0  0
    9.0580   -1.6378   19.9437 H   0  0  0  0  0  0  0  0  0  0  0  0
    9.2868    0.0276   20.5498 H   0  0  0  0  0  0  0  0  0  0  0  0
    9.3215   -1.3496   21.6624 H   0  0  0  0  0  0  0  0  0  0  0  0
    6.6290   -2.1737   21.0912 C   0  0  0  0  0  0  0  0  0  0  0  0
    7.3052   -2.9003   22.2528 C   0  0  0  0  0  0  0  0  0  0  0  0
    8.2622   -3.6417   21.9693 O   0  0  0  0  0  0  0  0  0  0  0  0
    6.8612   -2.5838   23.3878 O   0  0  0  0  0  1  0  0  0  0  0  0
    5.5680   -2.0355   21.3191 H   0  0  0  0  0  0  0  0  0  0  0  0
    6.7260   -2.7422   20.1654 H   0  0  0  0  0  0  0  0  0  0  0  0
    6.6307   -0.0067   19.8849 C   0  0  0  0  0  0  0  0  0  0  0  0
    5.4049    0.6488   20.0962 C   0  0  0  0  0  0  0  0  0  0  0  0
    4.7937    1.2977   19.0234 C   0  0  0  0  0  0  0  0  0  0  0  0
    5.4266    1.2733   17.7736 C   0  0  0  0  0  0  0  0  0  0  0  0
    6.5902    0.6547   17.5465 N   0  0  0  0  0  0  0  0  0  0  0  0
    7.1675    0.0471   18.5966 C   0  0  0  0  0  0  0  0  0  0  0  0
    8.1288   -0.4183   18.3837 H   0  0  0  0  0  0  0  0  0  0  0  0
    4.9736    1.7667   16.9171 H   0  0  0  0  0  0  0  0  0  0  0  0
    3.8611    1.8356   19.1467 H   0  0  0  0  0  0  0  0  0  0  0  0
    4.9728    0.6720   21.1019 H   0  0  0  0  0  0  0  0  0  0  0  0
    6.9924   -0.7794   23.0752 H   0  0  0  0  0  0  0  0  0  0  0  0
    7.2419    2.7457   23.7727 H   0  0  0  0  0  0  0  0  0  0  0  0
    9.3184    3.8256   23.9664 H   0  0  0  0  0  0  0  0  0  0  0  0
   11.7794    3.7514   24.2375 H   0  0  0  0  0  0  0  0  0  0  0  0
   12.8874    1.6175   24.8895 H   0  0  0  0  0  0  0  0  0  0  0  0
   11.5384   -0.4158   25.2571 H   0  0  0  0  0  0  0  0  0  0  0  0
    9.5728   -2.1342   25.9322 H   0  0  0  0  0  0  0  0  0  0  0  0
   10.3470   -2.0378   24.3192 H   0  0  0  0  0  0  0  0  0  0  0  0
    8.6533   -2.5786   24.4516 H   0  0  0  0  0  0  0  0  0  0  0  0
  1  2  1  0
  2  3  1  0
  3  4  2  0
  4  5  1  0
  5  6  2  0
  6  7  1  0
  7  8  2  0
  8  9  1  0
  9 10  1  0
 10 11  1  0
 11 12  1  0
 11 13  1  0
 11 14  1  0
  9 15  1  0
 15 16  2  0
 15 17  1  0
 17 18  1  0
 18 19  1  0
 19 20  1  0
 19 21  1  0
 19 22  1  0
 18 23  1  0
 23 24  1  0
 24 25  2  0
 24 26  1  0
 23 27  1  0
 23 28  1  0
 18 29  1  0
 29 30  2  0
 30 31  1  0
 31 32  2  0
 32 33  1  0
 33 34  2  0
 34 35  1  0
 32 36  1  0
 31 37  1  0
 30 38  1  0
 17 39  1  0
  9 40  1  0
  7 41  1  0
  6 42  1  0
  5 43  1  0
  4 44  1  0
  1 45  1  0
  1 46  1  0
  1 47  1  0
  8  3  1  0
 34 29  1  0
M  CHG  1  26  -1
M  END
>  <plip>  (1) 
-0.0967741935483871

>  <filename>  (1) 
[H][c]1[n][c]([H])[c]([C]([N]([H])[C](=[O])[C]([H])([O][C]([H])([H])[H])[c]2[c]([H])[c]([H])[c]([H])[c]([H])[c]2[O][C]([H])([H])[H])([C]([H])([H])[H])[C]([H])([H])[C](=[O])[O-])[c]([H])[c]1[H]

$$$$
