
     RDKit          3D

 46 48  0  0  0  0  0  0  0  0999 V2000
    6.7860   -2.8701   23.7071 C   0  0  0  0  0  0  0  0  0  0  0  0
    7.4415   -2.5924   22.4841 O   0  0  0  0  0  0  0  0  0  0  0  0
    6.6850   -1.9184   21.5033 C   0  0  0  0  0  0  0  0  0  0  0  0
    6.4889   -2.7226   20.3851 O   0  0  0  0  0  0  0  0  0  0  0  0
    5.7228   -3.8910   20.5737 C   0  0  0  0  0  0  0  0  0  0  0  0
    4.8140   -3.6968   21.1669 H   0  0  0  0  0  0  0  0  0  0  0  0
    5.4305   -4.2093   19.5698 H   0  0  0  0  0  0  0  0  0  0  0  0
    6.3023   -4.6881   21.0589 H   0  0  0  0  0  0  0  0  0  0  0  0
    7.4343   -0.6567   20.9864 C   0  0  0  0  0  0  0  0  0  0  0  0
    7.7617    0.2369   22.0833 N   0  0  0  0  0  0  0  0  0  0  0  0
    8.7850    1.1328   22.0540 C   0  0  0  0  0  0  0  0  0  0  0  0
    9.5411    1.2393   21.1051 O   0  0  0  0  0  0  0  0  0  0  0  0
    8.8867    1.9633   23.3092 C   0  0  0  0  0  0  0  0  0  0  0  0
    8.3031    1.7433   24.5373 C   0  0  0  0  0  0  0  0  0  0  0  0
    8.7201    2.9522   25.6777 S   0  0  0  0  0  0  0  0  0  0  0  0
    9.7265    3.7859   24.5288 C   0  0  0  0  0  0  0  0  0  0  0  0
   10.5419    4.9552   24.9126 C   0  0  0  0  0  0  0  0  0  0  0  0
   11.6395    5.3363   24.1215 C   0  0  0  0  0  0  0  0  0  0  0  0
   12.5040    6.3596   24.5166 C   0  0  0  0  0  0  0  0  0  0  0  0
   12.2652    7.0151   25.7271 C   0  0  0  0  0  0  0  0  0  0  0  0
   13.3306    8.2897   26.2390 Cl  0  0  0  0  0  0  0  0  0  0  0  0
   11.1740    6.6705   26.5298 C   0  0  0  0  0  0  0  0  0  0  0  0
   10.3066    5.6612   26.1101 C   0  0  0  0  0  0  0  0  0  0  0  0
    9.4457    5.4083   26.7206 H   0  0  0  0  0  0  0  0  0  0  0  0
   11.0038    7.1944   27.4657 H   0  0  0  0  0  0  0  0  0  0  0  0
   13.3445    6.6540   23.8957 H   0  0  0  0  0  0  0  0  0  0  0  0
   11.8251    4.8206   23.1845 H   0  0  0  0  0  0  0  0  0  0  0  0
    9.7000    3.1405   23.3260 C   0  0  0  0  0  0  0  0  0  0  0  0
   10.2221    3.5019   22.4408 H   0  0  0  0  0  0  0  0  0  0  0  0
    7.6853    0.9202   24.8871 H   0  0  0  0  0  0  0  0  0  0  0  0
    7.1281    0.3276   22.8541 H   0  0  0  0  0  0  0  0  0  0  0  0
    6.6947    0.0990   19.8863 C   0  0  0  0  0  0  0  0  0  0  0  0
    5.4686    0.7442   20.0984 C   0  0  0  0  0  0  0  0  0  0  0  0
    4.8323    1.3562   19.0170 C   0  0  0  0  0  0  0  0  0  0  0  0
    5.4557    1.3210   17.7641 C   0  0  0  0  0  0  0  0  0  0  0  0
    6.6288    0.7157   17.5377 N   0  0  0  0  0  0  0  0  0  0  0  0
    7.2224    0.1308   18.5895 C   0  0  0  0  0  0  0  0  0  0  0  0
    8.1788   -0.3528   18.3835 H   0  0  0  0  0  0  0  0  0  0  0  0
    4.9886    1.7939   16.9031 H   0  0  0  0  0  0  0  0  0  0  0  0
    3.8816    1.8639   19.1343 H   0  0  0  0  0  0  0  0  0  0  0  0
    5.0209    0.7813   21.0946 H   0  0  0  0  0  0  0  0  0  0  0  0
    8.3693   -1.0562   20.5796 H   0  0  0  0  0  0  0  0  0  0  0  0
    5.7095   -1.6072   21.9239 H   0  0  0  0  0  0  0  0  0  0  0  0
    5.8417   -3.4248   23.5717 H   0  0  0  0  0  0  0  0  0  0  0  0
    7.4853   -3.4856   24.2785 H   0  0  0  0  0  0  0  0  0  0  0  0
    6.5644   -1.9576   24.2888 H   0  0  0  0  0  0  0  0  0  0  0  0
  1  2  1  0
  2  3  1  0
  3  4  1  0
  4  5  1  0
  5  6  1  0
  5  7  1  0
  5  8  1  0
  3  9  1  0
  9 10  1  0
 10 11  1  0
 11 12  2  0
 11 13  1  0
 13 14  2  0
 14 15  1  0
 15 16  1  0
 16 17  1  0
 17 18  2  0
 18 19  1  0
 19 20  2  0
 20 21  1  0
 20 22  1  0
 22 23  2  0
 23 24  1  0
 22 25  1  0
 19 26  1  0
 18 27  1  0
 16 28  2  0
 28 29  1  0
 14 30  1  0
 10 31  1  0
  9 32  1  0
 32 33  2  0
 33 34  1  0
 34 35  2  0
 35 36  1  0
 36 37  2  0
 37 38  1  0
 35 39  1  0
 34 40  1  0
 33 41  1  0
  9 42  1  0
  3 43  1  0
  1 44  1  0
  1 45  1  0
  1 46  1  0
 28 13  1  0
 37 32  1  0
 23 17  1  0
M  END
>  <plip>  (1) 
-0.21428571428571427

>  <filename>  (1) 
[H][c]1[n][c]([H])[c]([C]([H])([N]([H])[C](=[O])[c]2[c]([H])[s][c](-[c]3[c]([H])[c]([H])[c]([Cl])[c]([H])[c]3[H])[c]2[H])[C]([H])([O][C]([H])([H])[H])[O][C]([H])([H])[H])[c]([H])[c]1[H]

$$$$
