
     RDKit          3D

 34 36  0  0  0  0  0  0  0  0999 V2000
    4.9439    1.8080   16.7893 H   0  0  0  0  0  0  0  0  0  0  0  0
    5.3405    1.3833   17.7109 C   0  0  0  0  0  0  0  0  0  0  0  0
    6.5157    0.7449   17.6110 N   0  0  0  0  0  0  0  0  0  0  0  0
    7.0195    0.2063   18.7290 C   0  0  0  0  0  0  0  0  0  0  0  0
    7.9711   -0.3140   18.6056 H   0  0  0  0  0  0  0  0  0  0  0  0
    6.4146    0.2885   19.9995 C   0  0  0  0  0  0  0  0  0  0  0  0
    7.1049   -0.3159   21.2150 C   0  0  2  0  0  0  0  0  0  0  0  0
    6.5231   -0.0606   22.1135 H   0  0  0  0  0  0  0  0  0  0  0  0
    8.5643    0.2257   21.3761 C   0  0  0  0  0  0  0  0  0  0  0  0
    8.7637    1.1233   20.7760 H   0  0  0  0  0  0  0  0  0  0  0  0
    8.7631    0.4591   22.4327 H   0  0  0  0  0  0  0  0  0  0  0  0
    9.4000   -0.8530   20.8939 N   0  0  0  0  0  0  0  0  0  0  0  0
   10.3958   -0.9340   21.0651 H   0  0  0  0  0  0  0  0  0  0  0  0
    8.7822   -2.0591   20.9556 C   0  0  0  0  0  0  0  0  0  0  0  0
    9.3995   -3.0940   20.9341 O   0  0  0  0  0  0  0  0  0  0  0  0
    7.2916   -1.8476   21.0476 C   0  0  1  0  0  0  0  0  0  0  0  0
    6.8947   -2.1777   20.0841 H   0  0  0  0  0  0  0  0  0  0  0  0
    6.6608   -2.8535   22.0263 C   0  0  1  0  0  0  0  0  0  0  0  0
    5.5831   -2.6201   22.1199 H   0  0  0  0  0  0  0  0  0  0  0  0
    6.8918   -4.1683   21.4580 N   0  0  0  0  0  0  0  0  0  0  0  0
    6.3255   -4.4276   20.6678 H   0  0  0  0  0  0  0  0  0  0  0  0
    7.1094   -5.1628   22.4792 C   0  0  0  0  0  0  0  0  0  0  0  0
    6.1799   -5.5410   22.9447 H   0  0  0  0  0  0  0  0  0  0  0  0
    7.6471   -6.0411   22.0927 H   0  0  0  0  0  0  0  0  0  0  0  0
    7.9467   -4.3555   23.4660 C   0  0  0  0  0  0  0  0  0  0  0  0
    8.9592   -4.2873   23.0602 H   0  0  0  0  0  0  0  0  0  0  0  0
    7.9770   -4.7934   24.4681 H   0  0  0  0  0  0  0  0  0  0  0  0
    7.3005   -2.9562   23.4305 C   0  0  0  0  0  0  0  0  0  0  0  0
    6.5357   -2.8562   24.2109 H   0  0  0  0  0  0  0  0  0  0  0  0
    8.0296   -2.1551   23.5915 H   0  0  0  0  0  0  0  0  0  0  0  0
    5.1796    0.9406   20.0706 C   0  0  0  0  0  0  0  0  0  0  0  0
    4.6664    1.0157   21.0290 H   0  0  0  0  0  0  0  0  0  0  0  0
    4.6309    1.4927   18.9087 C   0  0  0  0  0  0  0  0  0  0  0  0
    3.6769    2.0051   18.9218 H   0  0  0  0  0  0  0  0  0  0  0  0
  1  2  1  0
  2  3  2  0
  3  4  1  0
  4  5  1  0
  4  6  2  0
  6  7  1  0
  7  8  1  1
  7  9  1  0
  9 10  1  0
  9 11  1  0
  9 12  1  0
 12 13  1  0
 12 14  1  0
 14 15  2  0
 14 16  1  0
 16 17  1  6
 16 18  1  0
 18 19  1  1
 18 20  1  0
 20 21  1  0
 20 22  1  0
 22 23  1  0
 22 24  1  0
 22 25  1  0
 25 26  1  0
 25 27  1  0
 25 28  1  0
 28 29  1  0
 28 30  1  0
  6 31  1  0
 31 32  1  0
 31 33  2  0
 33 34  1  0
 33  2  1  0
 16  7  1  0
 28 18  1  0
M  END
>  <plip>  (1) 
-0.06666666666666667

>  <filename>  (1) 
[H][c]1[n][c]([H])[c]([C@]2([H])[C]([H])([H])[N]([H])[C](=[O])[C@@]2([H])[C@@]2([H])[N]([H])[C]([H])([H])[C]([H])([H])[C]2([H])[H])[c]([H])[c]1[H]

$$$$
