
     RDKit          3D

 31 33  0  0  0  0  0  0  0  0999 V2000
    4.9160    1.8563   16.9689 H   0  0  0  0  0  0  0  0  0  0  0  0
    5.3785    1.3186   17.7941 C   0  0  0  0  0  0  0  0  0  0  0  0
    6.5312    0.6899   17.5118 N   0  0  0  0  0  0  0  0  0  0  0  0
    7.1474    0.0548   18.5160 C   0  0  0  0  0  0  0  0  0  0  0  0
    8.1069   -0.4078   18.2905 H   0  0  0  0  0  0  0  0  0  0  0  0
    6.6305   -0.0185   19.8290 C   0  0  0  0  0  0  0  0  0  0  0  0
    7.3468   -0.6817   20.9108 N   0  0  0  0  0  0  0  0  0  0  0  0
    8.6123   -0.1854   21.3407 C   0  0  0  0  0  0  0  0  0  0  0  0
    9.0965    0.7800   20.7834 O   0  0  0  0  0  0  0  0  0  0  0  0
    9.2746   -0.8826   22.4167 C   0  0  0  0  0  0  0  0  0  0  0  0
   10.2242   -0.4745   22.7130 H   0  0  0  0  0  0  0  0  0  0  0  0
    8.7068   -1.9449   23.0007 C   0  0  0  0  0  0  0  0  0  0  0  0
    9.3016   -2.7567   23.9753 N   0  0  0  0  0  0  0  0  0  0  0  0
    8.7197   -3.2510   25.1343 C   0  0  0  0  0  0  0  0  0  0  0  0
    7.3165   -3.0155   25.6009 C   0  0  0  0  0  0  0  0  0  0  0  0
    6.9076   -2.0468   25.3052 H   0  0  0  0  0  0  0  0  0  0  0  0
    7.3068   -3.1051   26.6908 H   0  0  0  0  0  0  0  0  0  0  0  0
    6.6642   -3.7988   25.1979 H   0  0  0  0  0  0  0  0  0  0  0  0
    9.5469   -4.0205   25.7822 N   0  0  0  0  0  0  0  0  0  0  0  0
   10.7199   -4.0413   25.0619 C   0  0  0  0  0  0  0  0  0  0  0  0
   11.5717   -4.6201   25.3925 H   0  0  0  0  0  0  0  0  0  0  0  0
   10.6094   -3.2561   23.9585 C   0  0  0  0  0  0  0  0  0  0  0  0
   11.3038   -3.0298   23.1631 H   0  0  0  0  0  0  0  0  0  0  0  0
    7.4442   -2.3043   22.6148 N   0  0  0  0  0  0  0  0  0  0  0  0
    7.0670   -3.2111   22.8083 H   0  0  0  0  0  0  0  0  0  0  0  0
    6.7831   -1.7885   21.5234 C   0  0  0  0  0  0  0  0  0  0  0  0
    5.7773   -2.3441   21.1538 O   0  0  0  0  0  0  0  0  0  0  0  0
    5.4187    0.6166   20.1021 C   0  0  0  0  0  0  0  0  0  0  0  0
    5.0033    0.5841   21.1088 H   0  0  0  0  0  0  0  0  0  0  0  0
    4.7906    1.3111   19.0615 C   0  0  0  0  0  0  0  0  0  0  0  0
    3.8725    1.8577   19.2260 H   0  0  0  0  0  0  0  0  0  0  0  0
  1  2  1  0
  2  3  2  0
  3  4  1  0
  4  5  1  0
  4  6  2  0
  6  7  1  0
  7  8  1  0
  8  9  2  0
  8 10  1  0
 10 11  1  0
 10 12  2  0
 12 13  1  0
 13 14  1  0
 14 15  1  0
 15 16  1  0
 15 17  1  0
 15 18  1  0
 14 19  2  0
 19 20  1  0
 20 21  1  0
 20 22  2  0
 22 23  1  0
 12 24  1  0
 24 25  1  0
 24 26  1  0
 26 27  2  0
  6 28  1  0
 28 29  1  0
 28 30  2  0
 30 31  1  0
 30  2  1  0
 26  7  1  0
 22 13  1  0
M  END
>  <plip>  (1) 
-0.07142857142857142

>  <filename>  (1) 
[H][c]1[n][c]([H])[c](-[n]2[c](=[O])[c]([H])[c](-[n]3[c]([C]([H])([H])[H])[n][c]([H])[c]3[H])[n]([H])[c]2=[O])[c]([H])[c]1[H]

$$$$
