
     RDKit          3D

 36 36  0  0  0  0  0  0  0  0999 V2000
    4.8926    1.8192   16.8194 H   0  0  0  0  0  0  0  0  0  0  0  0
    5.3757    1.3412   17.6692 C   0  0  0  0  0  0  0  0  0  0  0  0
    6.5518    0.7404   17.4099 N   0  0  0  0  0  0  0  0  0  0  0  0
    7.1705    0.1434   18.4332 C   0  0  0  0  0  0  0  0  0  0  0  0
    8.1403   -0.3163   18.2569 H   0  0  0  0  0  0  0  0  0  0  0  0
    6.6259    0.0832   19.7292 C   0  0  0  0  0  0  0  0  0  0  0  0
    7.3645   -0.5992   20.6821 O   0  0  0  0  0  0  0  0  0  0  0  0
    6.6841   -1.3269   21.9868 S   0  0  0  0  0  0  0  0  0  0  0  0
    6.3748   -0.3096   22.9603 O   0  0  0  0  0  0  0  0  0  0  0  0
    5.7455   -2.3301   21.5802 O   0  0  0  0  0  0  0  0  0  0  0  0
    8.0294   -2.0704   22.4100 O   0  0  0  0  0  0  0  0  0  0  0  0
    9.1780   -1.1998   22.6241 C   0  0  0  0  0  0  0  0  0  0  0  0
    9.6939   -1.1016   21.6664 H   0  0  0  0  0  0  0  0  0  0  0  0
    8.8563   -0.2055   22.9503 H   0  0  0  0  0  0  0  0  0  0  0  0
   10.1249   -1.7838   23.6790 C   0  0  0  0  0  0  0  0  0  0  0  0
   11.1154   -1.3433   23.4828 H   0  0  0  0  0  0  0  0  0  0  0  0
   10.2436   -2.8590   23.4789 H   0  0  0  0  0  0  0  0  0  0  0  0
    9.6989   -1.5223   25.0594 N   0  0  0  0  0  0  0  0  0  0  0  0
   10.3895   -0.4124   25.7268 C   0  0  0  0  0  0  0  0  0  0  0  0
   10.0350   -0.3797   26.7651 H   0  0  0  0  0  0  0  0  0  0  0  0
   11.4864   -0.5763   25.7757 H   0  0  0  0  0  0  0  0  0  0  0  0
   10.1117    0.9430   25.0776 C   0  0  0  0  0  0  0  0  0  0  0  0
   10.5192    0.9953   24.0617 H   0  0  0  0  0  0  0  0  0  0  0  0
    9.0341    1.1446   25.0234 H   0  0  0  0  0  0  0  0  0  0  0  0
   10.5737    1.7497   25.6586 H   0  0  0  0  0  0  0  0  0  0  0  0
    9.4591   -2.7275   25.8566 C   0  0  0  0  0  0  0  0  0  0  0  0
    9.3758   -2.4358   26.9128 H   0  0  0  0  0  0  0  0  0  0  0  0
   10.3115   -3.4364   25.7960 H   0  0  0  0  0  0  0  0  0  0  0  0
    8.1792   -3.4266   25.4268 C   0  0  0  0  0  0  0  0  0  0  0  0
    7.3244   -2.7635   25.5798 H   0  0  0  0  0  0  0  0  0  0  0  0
    8.0271   -4.3380   26.0126 H   0  0  0  0  0  0  0  0  0  0  0  0
    8.2029   -3.6864   24.3657 H   0  0  0  0  0  0  0  0  0  0  0  0
    5.4398    0.7446   20.0224 C   0  0  0  0  0  0  0  0  0  0  0  0
    5.0627    0.7881   21.0409 H   0  0  0  0  0  0  0  0  0  0  0  0
    4.8008    1.3821   18.9423 C   0  0  0  0  0  0  0  0  0  0  0  0
    3.8681    1.9125   19.0824 H   0  0  0  0  0  0  0  0  0  0  0  0
  1  2  1  0
  2  3  2  0
  3  4  1  0
  4  5  1  0
  4  6  2  0
  6  7  1  0
  7  8  1  0
  8  9  2  0
  8 10  2  0
  8 11  1  0
 11 12  1  0
 12 13  1  0
 12 14  1  0
 12 15  1  0
 15 16  1  0
 15 17  1  0
 15 18  1  0
 18 19  1  0
 19 20  1  0
 19 21  1  0
 19 22  1  0
 22 23  1  0
 22 24  1  0
 22 25  1  0
 18 26  1  0
 26 27  1  0
 26 28  1  0
 26 29  1  0
 29 30  1  0
 29 31  1  0
 29 32  1  0
  6 33  1  0
 33 34  1  0
 33 35  2  0
 35 36  1  0
 35  2  1  0
M  END
>  <plip>  (1) 
-0.10344827586206896

>  <filename>  (1) 
[H][c]1[n][c]([H])[c]([O][S](=[O])(=[O])[O][C]([H])([H])[C]([H])([H])[N]([C]([H])([H])[C]([H])([H])[H])[C]([H])([H])[C]([H])([H])[H])[c]([H])[c]1[H]

$$$$
