
     RDKit          3D

 36 38  0  0  0  0  0  0  0  0999 V2000
    6.6793   -1.6049   21.7698 C   0  0  0  0  0  0  0  0  0  0  0  0
    7.4113   -0.6189   20.9670 N   0  0  0  0  0  0  0  0  0  0  0  0
    8.7222   -0.2308   21.2587 C   0  0  0  0  0  0  0  0  0  0  0  0
    9.2695    0.6858   20.6763 O   0  0  0  0  0  0  0  0  0  0  0  0
    9.4763   -1.0476   22.2894 C   0  0  0  0  0  0  0  0  0  0  0  0
    8.9809   -0.7685   23.6655 C   0  0  0  0  0  0  0  0  0  0  0  0
    8.6647   -1.6625   24.6479 C   0  0  0  0  0  0  0  0  0  0  0  0
    8.2524   -0.8392   26.0978 S   0  0  0  0  0  0  0  0  0  0  0  0
    8.5328    0.6626   25.2819 C   0  0  0  0  0  0  0  0  0  0  0  0
    8.3683    1.9338   26.0301 C   0  0  0  0  0  0  0  0  0  0  0  0
    8.7488    3.1641   25.4705 C   0  0  0  0  0  0  0  0  0  0  0  0
    8.5168    4.3306   26.1987 C   0  0  0  0  0  0  0  0  0  0  0  0
    7.9273    4.2211   27.4551 C   0  0  0  0  0  0  0  0  0  0  0  0
    7.6223    2.9503   27.9513 C   0  0  0  0  0  0  0  0  0  0  0  0
    7.8336    1.8290   27.2650 N   0  0  0  0  0  0  0  0  0  0  0  0
    7.2082    2.8179   28.9460 H   0  0  0  0  0  0  0  0  0  0  0  0
    7.7282    5.0949   28.0606 H   0  0  0  0  0  0  0  0  0  0  0  0
    8.7824    5.2993   25.7825 H   0  0  0  0  0  0  0  0  0  0  0  0
    9.1841    3.1911   24.4805 H   0  0  0  0  0  0  0  0  0  0  0  0
    8.8955    0.5448   24.0310 N   0  0  0  0  0  0  0  0  0  0  0  0
    8.6385   -2.7420   24.6026 H   0  0  0  0  0  0  0  0  0  0  0  0
   10.5196   -0.7352   22.2322 H   0  0  0  0  0  0  0  0  0  0  0  0
    9.4172   -2.1105   22.0542 H   0  0  0  0  0  0  0  0  0  0  0  0
    6.7102    0.0283   19.8918 C   0  0  0  0  0  0  0  0  0  0  0  0
    5.4801    0.6416   20.1438 C   0  0  0  0  0  0  0  0  0  0  0  0
    4.8269    1.2952   19.0950 C   0  0  0  0  0  0  0  0  0  0  0  0
    5.4077    1.2859   17.8235 C   0  0  0  0  0  0  0  0  0  0  0  0
    6.5683    0.6669   17.5507 N   0  0  0  0  0  0  0  0  0  0  0  0
    7.2036    0.0664   18.5665 C   0  0  0  0  0  0  0  0  0  0  0  0
    8.1500   -0.4166   18.3293 H   0  0  0  0  0  0  0  0  0  0  0  0
    4.9262    1.7931   16.9894 H   0  0  0  0  0  0  0  0  0  0  0  0
    3.8901    1.8110   19.2583 H   0  0  0  0  0  0  0  0  0  0  0  0
    5.0761    0.6169   21.1562 H   0  0  0  0  0  0  0  0  0  0  0  0
    6.4150   -1.2241   22.7662 H   0  0  0  0  0  0  0  0  0  0  0  0
    5.7525   -1.8792   21.2609 H   0  0  0  0  0  0  0  0  0  0  0  0
    7.2699   -2.5218   21.8692 H   0  0  0  0  0  0  0  0  0  0  0  0
  1  2  1  0
  2  3  1  0
  3  4  2  0
  3  5  1  0
  5  6  1  0
  6  7  2  0
  7  8  1  0
  8  9  1  0
  9 10  1  0
 10 11  2  0
 11 12  1  0
 12 13  2  0
 13 14  1  0
 14 15  2  0
 14 16  1  0
 13 17  1  0
 12 18  1  0
 11 19  1  0
  9 20  2  0
  7 21  1  0
  5 22  1  0
  5 23  1  0
  2 24  1  0
 24 25  2  0
 25 26  1  0
 26 27  2  0
 27 28  1  0
 28 29  2  0
 29 30  1  0
 27 31  1  0
 26 32  1  0
 25 33  1  0
  1 34  1  0
  1 35  1  0
  1 36  1  0
 20  6  1  0
 29 24  1  0
 15 10  1  0
M  END
>  <plip>  (1) 
-0.10714285714285714

>  <filename>  (1) 
[H][c]1[n][c](-[c]2[n][c]([C]([H])([H])[C](=[O])[N]([c]3[c]([H])[n][c]([H])[c]([H])[c]3[H])[C]([H])([H])[H])[c]([H])[s]2)[c]([H])[c]([H])[c]1[H]

$$$$
