
     RDKit          3D

 34 36  0  0  0  0  0  0  0  0999 V2000
    9.6300    0.9183   20.5466 O   0  0  0  0  0  0  0  0  0  0  0  0
    9.0266    1.0641   21.5984 C   0  0  0  0  0  0  0  0  0  0  0  0
    7.9823    0.2755   21.9392 N   0  0  0  0  0  0  0  0  0  0  0  0
    7.4100   -0.6813   21.0048 C   0  0  0  0  0  0  0  0  0  0  0  0
    6.6569    0.0094   19.8965 C   0  0  0  0  0  0  0  0  0  0  0  0
    5.4393    0.6515   20.1538 C   0  0  0  0  0  0  0  0  0  0  0  0
    4.8047    1.3095   19.1006 C   0  0  0  0  0  0  0  0  0  0  0  0
    5.4019    1.2922   17.8348 C   0  0  0  0  0  0  0  0  0  0  0  0
    6.5641    0.6801   17.5704 N   0  0  0  0  0  0  0  0  0  0  0  0
    7.1711    0.0706   18.5972 C   0  0  0  0  0  0  0  0  0  0  0  0
    8.1241   -0.4105   18.3785 H   0  0  0  0  0  0  0  0  0  0  0  0
    4.9174    1.7830   16.9931 H   0  0  0  0  0  0  0  0  0  0  0  0
    3.8733    1.8436   19.2548 H   0  0  0  0  0  0  0  0  0  0  0  0
    5.0093    0.6371   21.1602 H   0  0  0  0  0  0  0  0  0  0  0  0
    8.2063   -1.3168   20.5997 H   0  0  0  0  0  0  0  0  0  0  0  0
    6.7284   -1.3293   21.5667 H   0  0  0  0  0  0  0  0  0  0  0  0
    7.5289    0.4447   22.8175 H   0  0  0  0  0  0  0  0  0  0  0  0
    9.5209    2.1314   22.6201 C   0  0  0  0  0  0  0  0  0  0  0  0
   10.6662    1.5871   23.4886 C   0  0  0  0  0  0  0  0  0  0  0  0
   10.0361    0.3144   24.6048 S   0  0  0  0  0  0  0  0  0  0  0  0
    8.8469    1.3766   25.3927 C   0  0  0  0  0  0  0  0  0  0  0  0
    8.5598    1.1987   26.7501 C   0  0  0  0  0  0  0  0  0  0  0  0
    7.6214    2.0037   27.3985 C   0  0  0  0  0  0  0  0  0  0  0  0
    6.9363    2.9850   26.6736 C   0  0  0  0  0  0  0  0  0  0  0  0
    7.2197    3.1890   25.3224 C   0  0  0  0  0  0  0  0  0  0  0  0
    8.2038    2.4172   24.6854 C   0  0  0  0  0  0  0  0  0  0  0  0
    8.4816    2.7603   23.3851 O   0  0  0  0  0  0  0  0  0  0  0  0
    6.7056    3.9443   24.7358 H   0  0  0  0  0  0  0  0  0  0  0  0
    6.1848    3.5964   27.1651 H   0  0  0  0  0  0  0  0  0  0  0  0
    7.4291    1.8581   28.4575 H   0  0  0  0  0  0  0  0  0  0  0  0
    9.1112    0.4390   27.2995 H   0  0  0  0  0  0  0  0  0  0  0  0
   11.1001    2.3869   24.0974 H   0  0  0  0  0  0  0  0  0  0  0  0
   11.4704    1.1595   22.8843 H   0  0  0  0  0  0  0  0  0  0  0  0
    9.9258    2.9294   21.9991 H   0  0  0  0  0  0  0  0  0  0  0  0
  1  2  2  0
  2  3  1  0
  3  4  1  0
  4  5  1  0
  5  6  2  0
  6  7  1  0
  7  8  2  0
  8  9  1  0
  9 10  2  0
 10 11  1  0
  8 12  1  0
  7 13  1  0
  6 14  1  0
  4 15  1  0
  4 16  1  0
  3 17  1  0
  2 18  1  0
 18 19  1  0
 19 20  1  0
 20 21  1  0
 21 22  2  0
 22 23  1  0
 23 24  2  0
 24 25  1  0
 25 26  2  0
 26 27  1  0
 25 28  1  0
 24 29  1  0
 23 30  1  0
 22 31  1  0
 19 32  1  0
 19 33  1  0
 18 34  1  0
 10  5  1  0
 27 18  1  0
 26 21  1  0
M  END
>  <plip>  (1) 
-0.10714285714285714

>  <filename>  (1) 
[H][c]1[n][c]([H])[c]([C]([H])([H])[N]([H])[C](=[O])[C]2([H])[O][c]3[c]([H])[c]([H])[c]([H])[c]([H])[c]3[S][C]2([H])[H])[c]([H])[c]1[H]

$$$$
