
     RDKit          3D

 29 30  0  0  0  0  0  0  0  0999 V2000
    6.2259    5.3884   26.1054 H   0  0  0  0  0  0  0  0  0  0  0  0
    5.8451    4.9501   25.1827 C   0  0  0  0  0  0  0  0  0  0  0  0
    6.6340    4.0298   24.6298 N   0  0  0  0  0  0  0  0  0  0  0  0
    6.2092    3.4619   23.4850 C   0  0  0  0  0  0  0  0  0  0  0  0
    7.0644    2.4724   22.8793 C   0  0  0  0  0  0  0  0  0  0  0  0
    7.7493    1.6386   22.3324 C   0  0  0  0  0  0  0  0  0  0  0  0
    8.5700    0.6015   21.7047 C   0  0  2  0  0  0  0  0  0  0  0  0
    9.0111    1.0172   20.7946 H   0  0  0  0  0  0  0  0  0  0  0  0
    7.5521   -0.8404   21.1713 S   0  0  0  0  0  0  0  0  0  0  0  0
    6.6378   -0.0277   19.8886 C   0  0  0  0  0  0  0  0  0  0  0  0
    7.1605    0.0442   18.5828 C   0  0  0  0  0  0  0  0  0  0  0  0
    8.1160   -0.4287   18.3602 H   0  0  0  0  0  0  0  0  0  0  0  0
    6.5589    0.6797   17.5712 N   0  0  0  0  0  0  0  0  0  0  0  0
    5.3945    1.2951   17.8319 C   0  0  0  0  0  0  0  0  0  0  0  0
    4.9187    1.7896   16.9906 H   0  0  0  0  0  0  0  0  0  0  0  0
    4.7995    1.3043   19.0983 C   0  0  0  0  0  0  0  0  0  0  0  0
    3.8718    1.8444   19.2472 H   0  0  0  0  0  0  0  0  0  0  0  0
    5.4263    0.6303   20.1511 C   0  0  0  0  0  0  0  0  0  0  0  0
    5.0204    0.6240   21.1638 H   0  0  0  0  0  0  0  0  0  0  0  0
    9.6828    0.0997   22.6230 C   0  0  0  0  0  0  0  0  0  0  0  0
    9.2515   -0.3439   23.5255 H   0  0  0  0  0  0  0  0  0  0  0  0
   10.3302    0.9362   22.9154 H   0  0  0  0  0  0  0  0  0  0  0  0
   10.2945   -0.6577   22.1193 H   0  0  0  0  0  0  0  0  0  0  0  0
    4.9846    3.8010   22.8841 C   0  0  0  0  0  0  0  0  0  0  0  0
    4.7034    3.3172   21.9606 H   0  0  0  0  0  0  0  0  0  0  0  0
    4.1678    4.7654   23.4733 C   0  0  0  0  0  0  0  0  0  0  0  0
    3.2160    5.0549   23.0214 H   0  0  0  0  0  0  0  0  0  0  0  0
    4.6150    5.3542   24.6568 C   0  0  0  0  0  0  0  0  0  0  0  0
    4.0348    6.1134   25.1693 H   0  0  0  0  0  0  0  0  0  0  0  0
  1  2  1  0
  2  3  2  0
  3  4  1  0
  4  5  1  0
  5  6  3  0
  6  7  1  0
  7  8  1  6
  7  9  1  0
  9 10  1  0
 10 11  2  0
 11 12  1  0
 11 13  1  0
 13 14  2  0
 14 15  1  0
 14 16  1  0
 16 17  1  0
 16 18  2  0
 18 19  1  0
  7 20  1  0
 20 21  1  0
 20 22  1  0
 20 23  1  0
  4 24  2  0
 24 25  1  0
 24 26  1  0
 26 27  1  0
 26 28  2  0
 28 29  1  0
 28  2  1  0
 18 10  1  0
M  END
>  <plip>  (1) 
-0.0

>  <filename>  (1) 
[H][c]1[n][c]([C]#[C][C@]([H])([S][c]2[c]([H])[n][c]([H])[c]([H])[c]2[H])[C]([H])([H])[H])[c]([H])[c]([H])[c]1[H]

$$$$
