
     RDKit          3D

 26 27  0  0  0  0  0  0  0  0999 V2000
    8.9444   -0.7263   20.7945 O   0  0  0  0  0  0  0  0  0  0  0  0
    7.5457   -0.7881   21.1574 S   0  0  0  0  0  0  0  0  0  0  0  0
    6.8812   -2.0297   21.4990 O   0  0  0  0  0  0  0  0  0  0  0  0
    7.2300    0.0766   22.5199 N   0  0  0  0  0  0  0  0  0  0  0  0
    7.6664    1.3622   22.7813 C   0  0  0  0  0  0  0  0  0  0  0  0
    8.3183    2.1708   21.8990 C   0  0  0  0  0  0  0  0  0  0  0  0
    8.5501    3.4663   22.4333 C   0  0  0  0  0  0  0  0  0  0  0  0
    8.0962    3.6188   23.7082 C   0  0  0  0  0  0  0  0  0  0  0  0
    8.2571    4.8499   24.5601 C   0  0  0  0  0  0  0  0  0  0  0  0
    8.1979    5.9648   23.8035 F   0  0  0  0  0  0  0  0  0  0  0  0
    7.3226    4.9623   25.5080 F   0  0  0  0  0  0  0  0  0  0  0  0
    9.4541    4.8682   25.1762 F   0  0  0  0  0  0  0  0  0  0  0  0
    7.3477    2.1530   24.3060 S   0  0  0  0  0  0  0  0  0  0  0  0
    9.0286    4.2612   21.8787 H   0  0  0  0  0  0  0  0  0  0  0  0
    8.6219    1.8107   20.9242 H   0  0  0  0  0  0  0  0  0  0  0  0
    6.8677   -0.6251   23.1469 H   0  0  0  0  0  0  0  0  0  0  0  0
    6.6412    0.0632   19.9606 C   0  0  0  0  0  0  0  0  0  0  0  0
    5.4132    0.6793   20.2180 C   0  0  0  0  0  0  0  0  0  0  0  0
    4.8115    1.3040   19.1344 C   0  0  0  0  0  0  0  0  0  0  0  0
    5.4401    1.2605   17.8850 C   0  0  0  0  0  0  0  0  0  0  0  0
    6.6058    0.6368   17.6590 N   0  0  0  0  0  0  0  0  0  0  0  0
    7.2011    0.0433   18.6897 C   0  0  0  0  0  0  0  0  0  0  0  0
    8.1463   -0.4552   18.4697 H   0  0  0  0  0  0  0  0  0  0  0  0
    4.9862    1.7449   17.0261 H   0  0  0  0  0  0  0  0  0  0  0  0
    3.8736    1.8342   19.2478 H   0  0  0  0  0  0  0  0  0  0  0  0
    4.9378    0.6897   21.2042 H   0  0  0  0  0  0  0  0  0  0  0  0
  1  2  2  0
  2  3  2  0
  2  4  1  0
  4  5  1  0
  5  6  2  0
  6  7  1  0
  7  8  2  0
  8  9  1  0
  9 10  1  0
  9 11  1  0
  9 12  1  0
  8 13  1  0
  7 14  1  0
  6 15  1  0
  4 16  1  0
  2 17  1  0
 17 18  2  0
 18 19  1  0
 19 20  2  0
 20 21  1  0
 21 22  2  0
 22 23  1  0
 20 24  1  0
 19 25  1  0
 18 26  1  0
 13  5  1  0
 22 17  1  0
M  END
>  <plip>  (1) 
-0.10714285714285714

>  <filename>  (1) 
[H][c]1[n][c]([H])[c]([S](=[O])(=[O])[N]([H])[c]2[s][c]([C]([F])([F])[F])[c]([H])[c]2[H])[c]([H])[c]1[H]

$$$$
