
     RDKit          3D

 36 39  0  0  0  0  0  0  0  0999 V2000
   12.0041   -1.2696   21.3278 C   0  0  0  0  0  0  0  0  0  0  0  0
   10.6368   -0.6391   21.3239 C   0  0  0  0  0  0  0  0  0  0  0  0
    9.5592   -1.2781   20.9441 N   0  0  0  0  0  0  0  0  0  0  0  0
    8.5497   -0.4161   21.2264 N   0  0  0  0  0  0  0  0  0  0  0  0
    7.1234   -0.7401   21.0475 C   0  0  0  0  0  0  0  0  0  0  0  0
    6.4872    0.0209   19.9035 C   0  0  0  0  0  0  0  0  0  0  0  0
    5.2874    0.7120   20.0925 C   0  0  0  0  0  0  0  0  0  0  0  0
    4.7484    1.3935   19.0029 C   0  0  0  0  0  0  0  0  0  0  0  0
    5.4007    1.3597   17.7671 C   0  0  0  0  0  0  0  0  0  0  0  0
    6.5408    0.6732   17.5739 N   0  0  0  0  0  0  0  0  0  0  0  0
    7.0716    0.0206   18.6245 C   0  0  0  0  0  0  0  0  0  0  0  0
    7.9922   -0.5360   18.4726 H   0  0  0  0  0  0  0  0  0  0  0  0
    4.9654    1.9016   16.9324 H   0  0  0  0  0  0  0  0  0  0  0  0
    3.8317    1.9633   19.1001 H   0  0  0  0  0  0  0  0  0  0  0  0
    4.7896    0.7255   21.0619 H   0  0  0  0  0  0  0  0  0  0  0  0
    6.5834   -0.5429   21.9803 H   0  0  0  0  0  0  0  0  0  0  0  0
    7.0416   -1.8125   20.8536 H   0  0  0  0  0  0  0  0  0  0  0  0
    9.0542    0.7483   21.7926 C   0  0  0  0  0  0  0  0  0  0  0  0
    8.1848    1.8546   22.3070 C   0  0  0  0  0  0  0  0  0  0  0  0
    6.8892    1.6976   22.5432 N   0  0  0  0  0  0  0  0  0  0  0  0
    6.4353    2.8892   23.0345 N   0  0  0  0  0  0  0  0  0  0  0  0
    7.4241    3.8434   23.1196 C   0  0  0  0  0  0  0  0  0  0  0  0
    7.4142    5.1786   23.5361 C   0  0  0  0  0  0  0  0  0  0  0  0
    8.6079    5.9075   23.5021 C   0  0  0  0  0  0  0  0  0  0  0  0
    8.6332    7.7451   24.0218 Br  0  0  0  0  0  0  0  0  0  0  0  0
    9.7876    5.2850   23.0712 C   0  0  0  0  0  0  0  0  0  0  0  0
    9.7760    3.9434   22.6494 C   0  0  0  0  0  0  0  0  0  0  0  0
    8.5768    3.2246   22.6754 C   0  0  0  0  0  0  0  0  0  0  0  0
   10.6783    3.4845   22.2570 H   0  0  0  0  0  0  0  0  0  0  0  0
   10.7083    5.8591   23.0591 H   0  0  0  0  0  0  0  0  0  0  0  0
    6.4906    5.6427   23.8700 H   0  0  0  0  0  0  0  0  0  0  0  0
    5.4645    3.0676   23.2963 H   0  0  0  0  0  0  0  0  0  0  0  0
   10.3693    0.6409   21.8007 N   0  0  0  0  0  0  0  0  0  0  0  0
   12.4398   -1.2791   20.3277 H   0  0  0  0  0  0  0  0  0  0  0  0
   11.9295   -2.3094   21.6528 H   0  0  0  0  0  0  0  0  0  0  0  0
   12.6697   -0.7221   22.0057 H   0  0  0  0  0  0  0  0  0  0  0  0
  1  2  1  0
  2  3  2  0
  3  4  1  0
  4  5  1  0
  5  6  1  0
  6  7  2  0
  7  8  1  0
  8  9  2  0
  9 10  1  0
 10 11  2  0
 11 12  1  0
  9 13  1  0
  8 14  1  0
  7 15  1  0
  5 16  1  0
  5 17  1  0
  4 18  1  0
 18 19  1  0
 19 20  2  0
 20 21  1  0
 21 22  1  0
 22 23  2  0
 23 24  1  0
 24 25  1  0
 24 26  2  0
 26 27  1  0
 27 28  2  0
 27 29  1  0
 26 30  1  0
 23 31  1  0
 21 32  1  0
 18 33  2  0
  1 34  1  0
  1 35  1  0
  1 36  1  0
 33  2  1  0
 11  6  1  0
 28 19  1  0
 28 22  1  0
M  END
>  <plip>  (1) 
-0.07142857142857142

>  <filename>  (1) 
[H][c]1[n][c]([H])[c]([C]([H])([H])[n]2[n][c]([C]([H])([H])[H])[n][c]2-[c]2[n][n]([H])[c]3[c]([H])[c]([Br])[c]([H])[c]([H])[c]23)[c]([H])[c]1[H]

$$$$
