
     RDKit          3D

 36 37  0  0  0  0  0  0  0  0999 V2000
    3.6639   -8.1538   25.1358 C   0  0  0  0  0  0  0  0  0  0  0  0
    4.7243   -7.7942   24.4102 C   0  0  0  0  0  0  0  0  0  0  0  0
    5.0987   -6.4014   24.1526 C   0  0  0  0  0  0  0  0  0  0  0  0
    6.1747   -6.0195   23.4619 C   0  0  0  0  0  0  0  0  0  0  0  0
    6.5110   -4.5768   23.1900 C   0  0  0  0  0  0  0  0  0  0  0  0
    5.5083   -3.9144   22.2207 C   0  0  0  0  0  0  0  0  0  0  0  0
    5.8474   -2.5353   21.8913 N   0  0  0  0  0  0  0  0  0  0  0  0
    7.0360   -2.2475   21.2913 C   0  0  0  0  0  0  0  0  0  0  0  0
    7.8315   -3.1249   20.9945 O   0  0  0  0  0  0  0  0  0  0  0  0
    7.3394   -0.7508   21.0518 C   0  0  0  0  0  0  0  0  0  0  0  0
    6.6265   -0.0272   19.9183 C   0  0  0  0  0  0  0  0  0  0  0  0
    5.4121    0.6354   20.1408 C   0  0  0  0  0  0  0  0  0  0  0  0
    4.7833    1.3060   19.0866 C   0  0  0  0  0  0  0  0  0  0  0  0
    5.3978    1.2956   17.8310 C   0  0  0  0  0  0  0  0  0  0  0  0
    6.5588    0.6729   17.5828 N   0  0  0  0  0  0  0  0  0  0  0  0
    7.1509    0.0421   18.6080 C   0  0  0  0  0  0  0  0  0  0  0  0
    8.1048   -0.4313   18.3769 H   0  0  0  0  0  0  0  0  0  0  0  0
    4.9413    1.8092   16.9853 H   0  0  0  0  0  0  0  0  0  0  0  0
    3.8558    1.8518   19.2245 H   0  0  0  0  0  0  0  0  0  0  0  0
    4.9839    0.6538   21.1439 H   0  0  0  0  0  0  0  0  0  0  0  0
    7.7263    0.0478   22.2875 C   0  0  0  0  0  0  0  0  0  0  0  0
    8.7816   -0.3521   21.3078 C   0  0  0  0  0  0  0  0  0  0  0  0
    9.1995    0.4132   20.6579 H   0  0  0  0  0  0  0  0  0  0  0  0
    9.4693   -1.1576   21.5577 H   0  0  0  0  0  0  0  0  0  0  0  0
    7.6859   -0.4446   23.2551 H   0  0  0  0  0  0  0  0  0  0  0  0
    7.4121    1.0860   22.3276 H   0  0  0  0  0  0  0  0  0  0  0  0
    5.3673   -1.7626   22.3213 H   0  0  0  0  0  0  0  0  0  0  0  0
    5.5118   -4.4694   21.2786 H   0  0  0  0  0  0  0  0  0  0  0  0
    4.4903   -3.9658   22.6266 H   0  0  0  0  0  0  0  0  0  0  0  0
    7.5101   -4.5037   22.7621 H   0  0  0  0  0  0  0  0  0  0  0  0
    6.5284   -3.9971   24.1250 H   0  0  0  0  0  0  0  0  0  0  0  0
    6.8221   -6.7865   23.0271 H   0  0  0  0  0  0  0  0  0  0  0  0
    4.4372   -5.6393   24.5721 H   0  0  0  0  0  0  0  0  0  0  0  0
    5.3791   -8.5488   23.9688 H   0  0  0  0  0  0  0  0  0  0  0  0
    3.0005   -7.4112   25.5749 H   0  0  0  0  0  0  0  0  0  0  0  0
    3.4155   -9.1909   25.3468 H   0  0  0  0  0  0  0  0  0  0  0  0
  1  2  2  3
  2  3  1  0
  3  4  2  3
  4  5  1  0
  5  6  1  0
  6  7  1  0
  7  8  1  0
  8  9  2  0
  8 10  1  0
 10 11  1  0
 11 12  2  0
 12 13  1  0
 13 14  2  0
 14 15  1  0
 15 16  2  0
 16 17  1  0
 14 18  1  0
 13 19  1  0
 12 20  1  0
 10 21  1  0
 21 22  1  0
 22 23  1  0
 22 24  1  0
 21 25  1  0
 21 26  1  0
  7 27  1  0
  6 28  1  0
  6 29  1  0
  5 30  1  0
  5 31  1  0
  4 32  1  0
  3 33  1  0
  2 34  1  0
  1 35  1  0
  1 36  1  0
 22 10  1  0
 16 11  1  0
M  END
>  <plip>  (1) 
-0.10344827586206896

>  <filename>  (1) 
[H][C]([H])=[C]([H])[C]([H])=[C]([H])[C]([H])([H])[C]([H])([H])[N]([H])[C](=[O])[C]1([c]2[c]([H])[n][c]([H])[c]([H])[c]2[H])[C]([H])([H])[C]1([H])[H]

$$$$
