
     RDKit          3D

 29 30  0  0  0  0  0  0  0  0999 V2000
    8.1911   -6.7164   22.8616 H   0  0  0  0  0  0  0  0  0  0  0  0
    7.7870   -6.2006   23.5705 O   0  0  0  0  0  0  0  0  0  0  0  0
    8.1519   -4.8423   23.4089 C   0  0  0  0  0  0  0  0  0  0  0  0
    7.9176   -4.3414   24.3532 H   0  0  0  0  0  0  0  0  0  0  0  0
    9.2288   -4.7085   23.2319 H   0  0  0  0  0  0  0  0  0  0  0  0
    7.3492   -4.2131   22.2791 C   0  0  0  0  0  0  0  0  0  0  0  0
    7.5541   -4.7663   21.3448 H   0  0  0  0  0  0  0  0  0  0  0  0
    6.2749   -4.3361   22.4953 H   0  0  0  0  0  0  0  0  0  0  0  0
    7.7082   -2.8551   22.1588 O   0  0  0  0  0  0  0  0  0  0  0  0
    6.9882   -2.1878   21.1392 C   0  0  0  0  0  0  0  0  0  0  0  0
    7.1444   -2.6838   20.1760 H   0  0  0  0  0  0  0  0  0  0  0  0
    5.9021   -2.2533   21.3139 H   0  0  0  0  0  0  0  0  0  0  0  0
    7.3917   -0.7235   21.0013 C   0  0  0  0  0  0  0  0  0  0  0  0
    6.6507   -0.0108   19.9069 C   0  0  0  0  0  0  0  0  0  0  0  0
    7.1574    0.0526   18.5929 C   0  0  0  0  0  0  0  0  0  0  0  0
    8.1140   -0.4128   18.3676 H   0  0  0  0  0  0  0  0  0  0  0  0
    6.5564    0.6739   17.5664 N   0  0  0  0  0  0  0  0  0  0  0  0
    5.3968    1.2934   17.8289 C   0  0  0  0  0  0  0  0  0  0  0  0
    4.9224    1.7927   16.9869 H   0  0  0  0  0  0  0  0  0  0  0  0
    4.7991    1.3023   19.0961 C   0  0  0  0  0  0  0  0  0  0  0  0
    3.8763    1.8423   19.2507 H   0  0  0  0  0  0  0  0  0  0  0  0
    5.4303    0.6338   20.1470 C   0  0  0  0  0  0  0  0  0  0  0  0
    5.0194    0.6358   21.1600 H   0  0  0  0  0  0  0  0  0  0  0  0
    7.7311    0.0559   22.2444 C   0  0  0  0  0  0  0  0  0  0  0  0
    7.6798   -0.4809   23.1875 H   0  0  0  0  0  0  0  0  0  0  0  0
    7.4045    1.0930   22.2846 H   0  0  0  0  0  0  0  0  0  0  0  0
    8.8170   -0.3166   21.2740 C   0  0  0  0  0  0  0  0  0  0  0  0
    9.2412    0.4685   20.6512 H   0  0  0  0  0  0  0  0  0  0  0  0
    9.5070   -1.1044   21.5617 H   0  0  0  0  0  0  0  0  0  0  0  0
  1  2  1  0
  2  3  1  0
  3  4  1  0
  3  5  1  0
  3  6  1  0
  6  7  1  0
  6  8  1  0
  6  9  1  0
  9 10  1  0
 10 11  1  0
 10 12  1  0
 10 13  1  0
 13 14  1  0
 14 15  2  0
 15 16  1  0
 15 17  1  0
 17 18  2  0
 18 19  1  0
 18 20  1  0
 20 21  1  0
 20 22  2  0
 22 23  1  0
 13 24  1  0
 24 25  1  0
 24 26  1  0
 24 27  1  0
 27 28  1  0
 27 29  1  0
 27 13  1  0
 22 14  1  0
M  END
>  <plip>  (1) 
-0.0

>  <filename>  (1) 
[H][O][C]([H])([H])[C]([H])([H])[O][C]([H])([H])[C]1([c]2[c]([H])[n][c]([H])[c]([H])[c]2[H])[C]([H])([H])[C]1([H])[H]

$$$$
