
     RDKit          3D

 51 54  0  0  0  0  0  0  0  0999 V2000
    6.2138   -3.0108   19.7677 O   0  0  0  0  0  0  0  0  0  0  0  0
    6.0556   -2.8234   20.9616 C   0  0  0  0  0  0  0  0  0  0  0  0
    6.5342   -1.7483   21.6443 N   0  0  0  0  0  0  0  0  0  0  0  0
    7.3656   -0.7312   21.0220 C   0  0  0  0  0  0  0  0  0  0  0  0
    6.6074   -0.0145   19.9113 C   0  0  0  0  0  0  0  0  0  0  0  0
    5.3939    0.6540   20.1313 C   0  0  0  0  0  0  0  0  0  0  0  0
    4.7909    1.3155   19.0608 C   0  0  0  0  0  0  0  0  0  0  0  0
    5.4172    1.2894   17.8104 C   0  0  0  0  0  0  0  0  0  0  0  0
    6.5677    0.6431   17.5728 N   0  0  0  0  0  0  0  0  0  0  0  0
    7.1307    0.0085   18.6132 C   0  0  0  0  0  0  0  0  0  0  0  0
    8.0698   -0.5113   18.4037 H   0  0  0  0  0  0  0  0  0  0  0  0
    4.9784    1.8177   16.9670 H   0  0  0  0  0  0  0  0  0  0  0  0
    3.8684    1.8693   19.1899 H   0  0  0  0  0  0  0  0  0  0  0  0
    4.9303    0.6693   21.1212 H   0  0  0  0  0  0  0  0  0  0  0  0
    7.9024    0.2383   22.1169 C   0  0  0  0  0  0  0  0  0  0  0  0
    8.7907    1.3597   21.5228 C   0  0  0  0  0  0  0  0  0  0  0  0
   10.1604    0.8282   21.0701 C   0  0  0  0  0  0  0  0  0  0  0  0
   10.9194    0.1358   22.2115 C   0  0  0  0  0  0  0  0  0  0  0  0
   10.0614   -0.9824   22.8226 C   0  0  0  0  0  0  0  0  0  0  0  0
    8.6837   -0.4602   23.2642 C   0  0  0  0  0  0  0  0  0  0  0  0
    8.0940   -1.2745   23.7028 H   0  0  0  0  0  0  0  0  0  0  0  0
    8.8365    0.2780   24.0673 H   0  0  0  0  0  0  0  0  0  0  0  0
   10.5793   -1.4459   23.6720 H   0  0  0  0  0  0  0  0  0  0  0  0
    9.9250   -1.7773   22.0744 H   0  0  0  0  0  0  0  0  0  0  0  0
   11.1738    0.8720   22.9890 H   0  0  0  0  0  0  0  0  0  0  0  0
   11.8695   -0.2714   21.8412 H   0  0  0  0  0  0  0  0  0  0  0  0
   10.7610    1.6388   20.6381 H   0  0  0  0  0  0  0  0  0  0  0  0
    9.9945    0.0851   20.2756 H   0  0  0  0  0  0  0  0  0  0  0  0
    8.2726    1.8601   20.6936 H   0  0  0  0  0  0  0  0  0  0  0  0
    8.9398    2.1266   22.2946 H   0  0  0  0  0  0  0  0  0  0  0  0
    7.0080    0.6957   22.5666 H   0  0  0  0  0  0  0  0  0  0  0  0
    8.2136   -1.2496   20.5508 H   0  0  0  0  0  0  0  0  0  0  0  0
    5.9964   -1.4994   22.4569 H   0  0  0  0  0  0  0  0  0  0  0  0
    5.3344   -3.8001   21.7906 C   0  0  0  0  0  0  0  0  0  0  0  0
    4.7020   -3.7700   23.0164 C   0  0  0  0  0  0  0  0  0  0  0  0
    4.0606   -4.9662   23.1528 N   0  0  0  0  0  0  0  0  0  0  0  0
    3.2235   -5.3698   24.2350 C   0  0  0  0  0  0  0  0  0  0  0  0
    3.1095   -6.7191   24.6102 C   0  0  0  0  0  0  0  0  0  0  0  0
    2.3572   -7.0824   25.7301 C   0  0  0  0  0  0  0  0  0  0  0  0
    1.6883   -6.1081   26.4795 C   0  0  0  0  0  0  0  0  0  0  0  0
    1.7637   -4.7665   26.1020 C   0  0  0  0  0  0  0  0  0  0  0  0
    2.5159   -4.4163   24.9891 C   0  0  0  0  0  0  0  0  0  0  0  0
    2.5477   -3.1091   24.6417 F   0  0  0  0  0  0  0  0  0  0  0  0
    1.2713   -3.9774   26.6616 H   0  0  0  0  0  0  0  0  0  0  0  0
    1.1249   -6.3917   27.3626 H   0  0  0  0  0  0  0  0  0  0  0  0
    2.3167   -8.1249   26.0311 H   0  0  0  0  0  0  0  0  0  0  0  0
    3.6155   -7.4739   24.0137 H   0  0  0  0  0  0  0  0  0  0  0  0
    4.3074   -5.7849   22.1045 N   0  0  0  0  0  0  0  0  0  0  0  0
    5.0821   -5.0946   21.2954 C   0  0  0  0  0  0  0  0  0  0  0  0
    5.4338   -5.5140   20.3622 H   0  0  0  0  0  0  0  0  0  0  0  0
    4.6398   -3.0471   23.8222 H   0  0  0  0  0  0  0  0  0  0  0  0
  1  2  2  0
  2  3  1  0
  3  4  1  0
  4  5  1  0
  5  6  2  0
  6  7  1  0
  7  8  2  0
  8  9  1  0
  9 10  2  0
 10 11  1  0
  8 12  1  0
  7 13  1  0
  6 14  1  0
  4 15  1  0
 15 16  1  0
 16 17  1  0
 17 18  1  0
 18 19  1  0
 19 20  1  0
 20 21  1  0
 20 22  1  0
 19 23  1  0
 19 24  1  0
 18 25  1  0
 18 26  1  0
 17 27  1  0
 17 28  1  0
 16 29  1  0
 16 30  1  0
 15 31  1  0
  4 32  1  0
  3 33  1  0
  2 34  1  0
 34 35  2  0
 35 36  1  0
 36 37  1  0
 37 38  2  0
 38 39  1  0
 39 40  2  0
 40 41  1  0
 41 42  2  0
 42 43  1  0
 41 44  1  0
 40 45  1  0
 39 46  1  0
 38 47  1  0
 36 48  1  0
 48 49  2  0
 49 50  1  0
 35 51  1  0
 10  5  1  0
 20 15  1  0
 49 34  1  0
 42 37  1  0
M  END
>  <plip>  (1) 
-0.1724137931034483

>  <filename>  (1) 
[H][c]1[n][c]([H])[c]([C]([H])([N]([H])[C](=[O])[c]2[c]([H])[n][n](-[c]3[c]([H])[c]([H])[c]([H])[c]([H])[c]3[F])[c]2[H])[C]2([H])[C]([H])([H])[C]([H])([H])[C]([H])([H])[C]([H])([H])[C]2([H])[H])[c]([H])[c]1[H]

$$$$
