
     RDKit          3D

 22 23  0  0  0  0  0  0  0  0999 V2000
    4.9244    1.7760   16.9989 H   0  0  0  0  0  0  0  0  0  0  0  0
    5.4057    1.2881   17.8429 C   0  0  0  0  0  0  0  0  0  0  0  0
    6.5696    0.6712   17.5905 N   0  0  0  0  0  0  0  0  0  0  0  0
    7.1706    0.0576   18.6126 C   0  0  0  0  0  0  0  0  0  0  0  0
    8.1195   -0.4169   18.3689 H   0  0  0  0  0  0  0  0  0  0  0  0
    6.6532    0.0118   19.9175 C   0  0  0  0  0  0  0  0  0  0  0  0
    7.3669   -0.6845   20.9989 C   0  0  0  0  0  0  0  0  0  0  0  0
    7.0854   -0.3842   22.3134 N   0  0  0  0  0  0  0  0  0  0  0  0
    7.8070   -1.1196   23.1120 C   0  0  0  0  0  0  0  0  0  0  0  0
    7.7986   -1.0863   24.5999 C   0  0  0  0  0  0  0  0  0  0  0  0
    8.4995   -1.8153   25.2637 O   0  0  0  0  0  0  0  0  0  0  0  0
    6.8248   -0.0457   25.2460 C   0  0  0  0  0  0  0  0  0  0  0  0
    6.8777   -0.0844   26.5795 F   0  0  0  0  0  0  0  0  0  0  0  0
    7.1364    1.1983   24.8545 F   0  0  0  0  0  0  0  0  0  0  0  0
    5.5588   -0.2877   24.8796 F   0  0  0  0  0  0  0  0  0  0  0  0
    8.8585   -2.2504   22.3369 S   0  0  0  0  0  0  0  0  0  0  0  0
    8.3033   -1.6625   20.8374 C   0  0  0  0  0  0  0  0  0  0  0  0
    8.6846   -2.0054   19.9023 H   0  0  0  0  0  0  0  0  0  0  0  0
    5.4315    0.6579   20.1643 C   0  0  0  0  0  0  0  0  0  0  0  0
    5.0096    0.6369   21.1747 H   0  0  0  0  0  0  0  0  0  0  0  0
    4.8044    1.3083   19.1066 C   0  0  0  0  0  0  0  0  0  0  0  0
    3.8742    1.8431   19.2570 H   0  0  0  0  0  0  0  0  0  0  0  0
  1  2  1  0
  2  3  2  0
  3  4  1  0
  4  5  1  0
  4  6  2  0
  6  7  1  0
  7  8  1  0
  8  9  2  0
  9 10  1  0
 10 11  2  0
 10 12  1  0
 12 13  1  0
 12 14  1  0
 12 15  1  0
  9 16  1  0
 16 17  1  0
 17 18  1  0
  6 19  1  0
 19 20  1  0
 19 21  2  0
 21 22  1  0
 21  2  1  0
 17  7  2  0
M  END
>  <plip>  (1) 
-0.0

>  <filename>  (1) 
[H][c]1[n][c]([H])[c](-[c]2[n][c]([C](=[O])[C]([F])([F])[F])[s][c]2[H])[c]([H])[c]1[H]

$$$$
