
     RDKit          3D

 47 49  0  0  0  0  0  0  0  0999 V2000
    8.1230    1.9703   23.4841 C   0  0  0  0  0  0  0  0  0  0  0  0
    7.4207    1.1201   22.6028 O   0  0  0  0  0  0  0  0  0  0  0  0
    8.2249    0.2128   21.8724 C   0  0  0  0  0  0  0  0  0  0  0  0
    7.3748   -0.7326   20.9953 C   0  0  1  0  0  0  0  0  0  0  0  0
    6.5458   -1.5956   21.8260 N   0  0  0  0  0  0  0  0  0  0  0  0
    6.0525   -2.7912   21.3873 C   0  0  0  0  0  0  0  0  0  0  0  0
    6.2538   -3.2208   20.2630 O   0  0  0  0  0  0  0  0  0  0  0  0
    5.2792   -3.6095   22.4111 C   0  0  0  0  0  0  0  0  0  0  0  0
    6.1898   -4.4340   23.3611 C   0  0  0  0  0  0  0  0  0  0  0  0
    7.1546   -3.5557   24.1269 C   0  0  0  0  0  0  0  0  0  0  0  0
    8.5024   -3.4858   23.7396 C   0  0  0  0  0  0  0  0  0  0  0  0
    9.3793   -2.5896   24.3534 C   0  0  0  0  0  0  0  0  0  0  0  0
    8.9116   -1.7433   25.3581 C   0  0  0  0  0  0  0  0  0  0  0  0
    9.7825   -0.8095   25.8564 O   0  0  0  0  0  0  0  0  0  0  0  0
    9.3989   -0.0140   26.9809 C   0  0  0  0  0  0  0  0  0  0  0  0
    7.9102    0.0542   27.3350 C   0  0  0  0  0  0  0  0  0  0  0  0
    7.4641    0.8650   28.1197 O   0  0  0  0  0  0  0  0  0  0  0  0
    7.1138   -0.8707   26.7310 N   0  0  0  0  0  0  0  0  0  0  0  0
    7.5603   -1.7908   25.7600 C   0  0  0  0  0  0  0  0  0  0  0  0
    6.7001   -2.7009   25.1446 C   0  0  0  0  0  0  0  0  0  0  0  0
    5.6552   -2.7068   25.4376 H   0  0  0  0  0  0  0  0  0  0  0  0
    6.1326   -0.7280   26.9198 H   0  0  0  0  0  0  0  0  0  0  0  0
    9.7124    0.9965   26.7366 H   0  0  0  0  0  0  0  0  0  0  0  0
    9.9262   -0.3376   27.8853 H   0  0  0  0  0  0  0  0  0  0  0  0
   10.4150   -2.4791   24.0424 H   0  0  0  0  0  0  0  0  0  0  0  0
    8.8530   -4.1095   22.9222 H   0  0  0  0  0  0  0  0  0  0  0  0
    6.7440   -5.1910   22.7890 H   0  0  0  0  0  0  0  0  0  0  0  0
    5.5501   -4.9816   24.0624 H   0  0  0  0  0  0  0  0  0  0  0  0
    4.6132   -4.2632   21.8415 H   0  0  0  0  0  0  0  0  0  0  0  0
    4.6556   -2.9559   23.0246 H   0  0  0  0  0  0  0  0  0  0  0  0
    6.1137   -1.1766   22.6381 H   0  0  0  0  0  0  0  0  0  0  0  0
    6.5849   -0.0342   19.8912 C   0  0  0  0  0  0  0  0  0  0  0  0
    5.3807    0.6482   20.1149 C   0  0  0  0  0  0  0  0  0  0  0  0
    4.7793    1.3156   19.0465 C   0  0  0  0  0  0  0  0  0  0  0  0
    5.4047    1.2972   17.7970 C   0  0  0  0  0  0  0  0  0  0  0  0
    6.5491    0.6436   17.5560 N   0  0  0  0  0  0  0  0  0  0  0  0
    7.1076   -0.0054   18.5870 C   0  0  0  0  0  0  0  0  0  0  0  0
    8.0440   -0.5178   18.3558 H   0  0  0  0  0  0  0  0  0  0  0  0
    4.9801    1.8483   16.9600 H   0  0  0  0  0  0  0  0  0  0  0  0
    3.8593    1.8692   19.1761 H   0  0  0  0  0  0  0  0  0  0  0  0
    4.9387    0.6890   21.1119 H   0  0  0  0  0  0  0  0  0  0  0  0
    8.1033   -1.3893   20.4997 H   0  0  0  0  0  0  0  0  0  0  0  0
    8.9259    0.7539   21.2138 H   0  0  0  0  0  0  0  0  0  0  0  0
    8.8164   -0.4267   22.5539 H   0  0  0  0  0  0  0  0  0  0  0  0
    7.3763    2.6516   23.9038 H   0  0  0  0  0  0  0  0  0  0  0  0
    8.8832    2.5786   22.9637 H   0  0  0  0  0  0  0  0  0  0  0  0
    8.6060    1.4244   24.3141 H   0  0  0  0  0  0  0  0  0  0  0  0
  1  2  1  0
  2  3  1  0
  3  4  1  0
  4  5  1  0
  5  6  1  0
  6  7  2  0
  6  8  1  0
  8  9  1  0
  9 10  1  0
 10 11  2  0
 11 12  1  0
 12 13  2  0
 13 14  1  0
 14 15  1  0
 15 16  1  0
 16 17  2  0
 16 18  1  0
 18 19  1  0
 19 20  2  0
 20 21  1  0
 18 22  1  0
 15 23  1  0
 15 24  1  0
 12 25  1  0
 11 26  1  0
  9 27  1  0
  9 28  1  0
  8 29  1  0
  8 30  1  0
  5 31  1  0
  4 32  1  0
 32 33  2  0
 33 34  1  0
 34 35  2  0
 35 36  1  0
 36 37  2  0
 37 38  1  0
 35 39  1  0
 34 40  1  0
 33 41  1  0
  4 42  1  6
  3 43  1  0
  3 44  1  0
  1 45  1  0
  1 46  1  0
  1 47  1  0
 20 10  1  0
 37 32  1  0
 19 13  1  0
M  END
>  <plip>  (1) 
-0.13793103448275862

>  <filename>  (1) 
[H][c]1[n][c]([H])[c]([C@]([H])([N]([H])[C](=[O])[C]([H])([H])[C]([H])([H])[c]2[c]([H])[c]([H])[c]3[c]([c]2[H])[N]([H])[C](=[O])[C]([H])([H])[O]3)[C]([H])([H])[O][C]([H])([H])[H])[c]([H])[c]1[H]

$$$$
