
     RDKit          3D

 51 54  0  0  0  0  0  0  0  0999 V2000
   12.5196    2.0362   22.3527 O   0  0  0  0  0  0  0  0  0  0  0  0
   11.3131    1.9347   22.2098 C   0  0  0  0  0  0  0  0  0  0  0  0
   10.6507    0.7413   21.6985 C   0  0  0  0  0  0  0  0  0  0  0  0
   11.6586   -0.6358   21.3867 Cl  0  0  0  0  0  0  0  0  0  0  0  0
    9.2897    0.6682   21.5271 C   0  0  0  0  0  0  0  0  0  0  0  0
    8.6782   -0.5013   21.1228 N   0  0  0  0  0  0  0  0  0  0  0  0
    7.2234   -0.6664   21.0811 C   0  0  0  0  0  0  0  0  0  0  0  0
    6.9180   -2.1701   20.9540 C   0  0  0  0  0  0  0  0  0  0  0  0
    7.5347   -3.0106   22.0259 N   0  0  0  0  0  4  0  0  0  0  0  0
    7.5179   -4.4604   21.6815 C   0  0  0  0  0  0  0  0  0  0  0  0
    7.8665   -5.1646   22.9844 C   0  0  0  0  0  0  0  0  0  0  0  0
    7.3149   -4.2415   24.0921 C   0  0  0  0  0  0  0  0  0  0  0  0
    6.9146   -2.9287   23.3963 C   0  0  0  0  0  0  0  0  0  0  0  0
    7.2783   -2.0421   23.9230 H   0  0  0  0  0  0  0  0  0  0  0  0
    5.8260   -2.8483   23.2928 H   0  0  0  0  0  0  0  0  0  0  0  0
    6.4433   -4.6732   24.5930 H   0  0  0  0  0  0  0  0  0  0  0  0
    8.0746   -4.0606   24.8576 H   0  0  0  0  0  0  0  0  0  0  0  0
    7.4324   -6.1679   23.0181 H   0  0  0  0  0  0  0  0  0  0  0  0
    8.9519   -5.2724   23.0700 H   0  0  0  0  0  0  0  0  0  0  0  0
    6.4979   -4.7183   21.3656 H   0  0  0  0  0  0  0  0  0  0  0  0
    8.2021   -4.6639   20.8538 H   0  0  0  0  0  0  0  0  0  0  0  0
    8.5235   -2.6491   22.1210 H   0  0  0  0  0  0  0  0  0  0  0  0
    5.8346   -2.3358   20.9320 H   0  0  0  0  0  0  0  0  0  0  0  0
    7.3045   -2.4907   19.9788 H   0  0  0  0  0  0  0  0  0  0  0  0
    6.5894    0.1315   19.9523 C   0  0  0  0  0  0  0  0  0  0  0  0
    5.3527    0.7860   20.0913 C   0  0  0  0  0  0  0  0  0  0  0  0
    4.7880    1.4084   18.9733 C   0  0  0  0  0  0  0  0  0  0  0  0
    5.4798    1.3759   17.7591 C   0  0  0  0  0  0  0  0  0  0  0  0
    6.6717    0.7817   17.6122 N   0  0  0  0  0  0  0  0  0  0  0  0
    7.2131    0.2078   18.6942 C   0  0  0  0  0  0  0  0  0  0  0  0
    8.1965   -0.2260   18.5232 H   0  0  0  0  0  0  0  0  0  0  0  0
    5.0596    1.8471   16.8714 H   0  0  0  0  0  0  0  0  0  0  0  0
    3.8425    1.9347   19.0327 H   0  0  0  0  0  0  0  0  0  0  0  0
    4.8345    0.8292   21.0529 H   0  0  0  0  0  0  0  0  0  0  0  0
    6.8219   -0.3274   22.0509 H   0  0  0  0  0  0  0  0  0  0  0  0
    9.1729   -0.9699   20.3712 H   0  0  0  0  0  0  0  0  0  0  0  0
    8.5377    1.8658   21.8659 C   0  0  0  0  0  0  0  0  0  0  0  0
    9.0629    2.9480   22.3388 N   0  0  0  0  0  0  0  0  0  0  0  0
   10.4075    3.0001   22.5766 N   0  0  0  0  0  0  0  0  0  0  0  0
   10.8524    4.2124   23.2373 C   0  0  0  0  0  0  0  0  0  0  0  0
   12.0356    4.2562   23.9997 C   0  0  0  0  0  0  0  0  0  0  0  0
   12.3624    5.4235   24.7019 C   0  0  0  0  0  0  0  0  0  0  0  0
   11.5507    6.5589   24.6212 C   0  0  0  0  0  0  0  0  0  0  0  0
   10.3929    6.5335   23.8321 C   0  0  0  0  0  0  0  0  0  0  0  0
   10.0402    5.3634   23.1592 C   0  0  0  0  0  0  0  0  0  0  0  0
    9.1261    5.3088   22.5786 H   0  0  0  0  0  0  0  0  0  0  0  0
    9.7354    7.3989   23.7726 H   0  0  0  0  0  0  0  0  0  0  0  0
   11.8237    7.4696   25.1460 H   0  0  0  0  0  0  0  0  0  0  0  0
   13.2663    5.4484   25.3108 H   0  0  0  0  0  0  0  0  0  0  0  0
   12.7003    3.4025   24.0129 H   0  0  0  0  0  0  0  0  0  0  0  0
    7.4592    1.8938   21.7415 H   0  0  0  0  0  0  0  0  0  0  0  0
  1  2  2  0
  2  3  1  0
  3  4  1  0
  3  5  2  0
  5  6  1  0
  6  7  1  0
  7  8  1  0
  8  9  1  0
  9 10  1  0
 10 11  1  0
 11 12  1  0
 12 13  1  0
 13 14  1  0
 13 15  1  0
 12 16  1  0
 12 17  1  0
 11 18  1  0
 11 19  1  0
 10 20  1  0
 10 21  1  0
  9 22  1  0
  8 23  1  0
  8 24  1  0
  7 25  1  0
 25 26  2  0
 26 27  1  0
 27 28  2  0
 28 29  1  0
 29 30  2  0
 30 31  1  0
 28 32  1  0
 27 33  1  0
 26 34  1  0
  7 35  1  0
  6 36  1  0
  5 37  1  0
 37 38  2  0
 38 39  1  0
 39 40  1  0
 40 41  2  0
 41 42  1  0
 42 43  2  0
 43 44  1  0
 44 45  2  0
 45 46  1  0
 44 47  1  0
 43 48  1  0
 42 49  1  0
 41 50  1  0
 37 51  1  0
 39  2  1  0
 45 40  1  0
 13  9  1  0
 30 25  1  0
M  CHG  1   9   1
M  END
>  <plip>  (1) 
-0.16666666666666666

>  <filename>  (1) 
[H][c]1[n][c]([H])[c]([C]([H])([N]([H])[c]2[c]([H])[n][n](-[c]3[c]([H])[c]([H])[c]([H])[c]([H])[c]3[H])[c](=[O])[c]2[Cl])[C]([H])([H])[N+]2([H])[C]([H])([H])[C]([H])([H])[C]([H])([H])[C]2([H])[H])[c]([H])[c]1[H]

$$$$
