
     RDKit          3D

 39 41  0  0  0  0  0  0  0  0999 V2000
    8.7440   -0.0038   21.3086 C   0  0  0  0  0  0  0  0  0  0  0  0
    7.4046   -0.6718   21.0284 C   0  0  2  0  0  0  0  0  0  0  0  0
    7.5892   -2.1272   20.6317 N   0  0  0  0  0  4  0  0  0  0  0  0
    7.8831   -3.0535   21.7526 C   0  0  0  0  0  0  0  0  0  0  0  0
    6.6833   -3.1576   22.6562 C   0  0  0  0  0  0  0  0  0  0  0  0
    6.4401   -2.6139   23.9004 C   0  0  0  0  0  0  0  0  0  0  0  0
    5.1318   -3.0223   24.2536 C   0  0  0  0  0  0  0  0  0  0  0  0
    4.3840   -2.6766   25.4996 C   0  0  0  0  0  0  0  0  0  0  0  0
    3.0783   -3.1459   25.7417 C   0  0  0  0  0  0  0  0  0  0  0  0
    2.4330   -2.7852   26.9269 C   0  0  0  0  0  0  0  0  0  0  0  0
    2.9801   -2.0030   27.8649 N   0  0  0  0  0  0  0  0  0  0  0  0
    4.2182   -1.5522   27.6389 C   0  0  0  0  0  0  0  0  0  0  0  0
    4.9519   -1.8520   26.4891 C   0  0  0  0  0  0  0  0  0  0  0  0
    5.9467   -1.4372   26.3878 H   0  0  0  0  0  0  0  0  0  0  0  0
    4.6514   -0.9190   28.4127 H   0  0  0  0  0  0  0  0  0  0  0  0
    1.4256   -3.1430   27.1356 H   0  0  0  0  0  0  0  0  0  0  0  0
    2.5746   -3.7800   25.0231 H   0  0  0  0  0  0  0  0  0  0  0  0
    4.6012   -3.7677   23.2809 N   0  0  0  0  0  0  0  0  0  0  0  0
    5.5427   -3.8201   22.3258 N   0  0  0  0  0  0  0  0  0  0  0  0
    5.3723   -4.4247   21.5336 H   0  0  0  0  0  0  0  0  0  0  0  0
    7.0712   -1.9490   24.4765 H   0  0  0  0  0  0  0  0  0  0  0  0
    8.1997   -4.0374   21.3976 H   0  0  0  0  0  0  0  0  0  0  0  0
    8.6952   -2.6682   22.3791 H   0  0  0  0  0  0  0  0  0  0  0  0
    6.6792   -2.3959   20.1943 H   0  0  0  0  0  0  0  0  0  0  0  0
    8.3160   -2.1027   19.8883 H   0  0  0  0  0  0  0  0  0  0  0  0
    6.6407   -0.0321   19.9053 C   0  0  0  0  0  0  0  0  0  0  0  0
    5.4299    0.6318   20.1457 C   0  0  0  0  0  0  0  0  0  0  0  0
    4.8016    1.3014   19.0949 C   0  0  0  0  0  0  0  0  0  0  0  0
    5.4046    1.2815   17.8339 C   0  0  0  0  0  0  0  0  0  0  0  0
    6.5583    0.6480   17.5832 N   0  0  0  0  0  0  0  0  0  0  0  0
    7.1587    0.0180   18.6019 C   0  0  0  0  0  0  0  0  0  0  0  0
    8.1195   -0.4352   18.3509 H   0  0  0  0  0  0  0  0  0  0  0  0
    4.9478    1.7945   16.9884 H   0  0  0  0  0  0  0  0  0  0  0  0
    3.8786    1.8506   19.2391 H   0  0  0  0  0  0  0  0  0  0  0  0
    5.0014    0.6365   21.1506 H   0  0  0  0  0  0  0  0  0  0  0  0
    6.7871   -0.6623   21.9337 H   0  0  0  0  0  0  0  0  0  0  0  0
    9.4312   -0.1352   20.4655 H   0  0  0  0  0  0  0  0  0  0  0  0
    9.2148   -0.4215   22.2039 H   0  0  0  0  0  0  0  0  0  0  0  0
    8.5946    1.0663   21.4546 H   0  0  0  0  0  0  0  0  0  0  0  0
  1  2  1  0
  2  3  1  0
  3  4  1  0
  4  5  1  0
  5  6  2  0
  6  7  1  0
  7  8  1  0
  8  9  2  0
  9 10  1  0
 10 11  2  0
 11 12  1  0
 12 13  2  0
 13 14  1  0
 12 15  1  0
 10 16  1  0
  9 17  1  0
  7 18  2  0
 18 19  1  0
 19 20  1  0
  6 21  1  0
  4 22  1  0
  4 23  1  0
  3 24  1  0
  3 25  1  0
  2 26  1  0
 26 27  2  0
 27 28  1  0
 28 29  2  0
 29 30  1  0
 30 31  2  0
 31 32  1  0
 29 33  1  0
 28 34  1  0
 27 35  1  0
  2 36  1  1
  1 37  1  0
  1 38  1  0
  1 39  1  0
 19  5  1  0
 31 26  1  0
 13  8  1  0
M  CHG  1   3   1
M  END
>  <plip>  (1) 
-0.034482758620689655

>  <filename>  (1) 
[H][c]1[n][c]([H])[c]([C@]([H])([C]([H])([H])[H])[N+]([H])([H])[C]([H])([H])[c]2[c]([H])[c](-[c]3[c]([H])[c]([H])[n][c]([H])[c]3[H])[n][n]2[H])[c]([H])[c]1[H]

$$$$
