
     RDKit          3D

 41 43  0  0  0  0  0  0  0  0999 V2000
    4.9266    1.7826   16.9885 H   0  0  0  0  0  0  0  0  0  0  0  0
    5.4050    1.2923   17.8327 C   0  0  0  0  0  0  0  0  0  0  0  0
    6.5679    0.6776   17.5773 N   0  0  0  0  0  0  0  0  0  0  0  0
    7.1642    0.0593   18.6093 C   0  0  0  0  0  0  0  0  0  0  0  0
    8.1143   -0.4225   18.3875 H   0  0  0  0  0  0  0  0  0  0  0  0
    6.6351    0.0036   19.8973 C   0  0  0  0  0  0  0  0  0  0  0  0
    7.4632   -0.6707   20.9536 C   0  0  2  0  0  0  0  0  0  0  0  0
    7.9285   -1.5725   20.5115 H   0  0  0  0  0  0  0  0  0  0  0  0
    6.6201   -1.0758   22.0153 O   0  0  0  0  0  0  0  0  0  0  0  0
    7.3936   -1.1758   23.2081 C   0  0  0  0  0  0  0  0  0  0  0  0
    7.4846   -2.2256   23.5154 H   0  0  0  0  0  0  0  0  0  0  0  0
    6.8740   -0.6196   23.9961 H   0  0  0  0  0  0  0  0  0  0  0  0
    8.7629   -0.5595   22.8387 C   0  0  0  0  0  0  0  0  0  0  0  0
    9.5354   -1.3314   22.7225 H   0  0  0  0  0  0  0  0  0  0  0  0
    9.1137    0.1426   23.5969 H   0  0  0  0  0  0  0  0  0  0  0  0
    8.5361    0.1291   21.5533 N   0  0  0  0  0  0  0  0  0  0  0  0
    8.1979    1.5406   21.7348 C   0  0  0  0  0  0  0  0  0  0  0  0
    7.9267    1.9821   20.7611 H   0  0  0  0  0  0  0  0  0  0  0  0
    7.3106    1.6626   22.3901 H   0  0  0  0  0  0  0  0  0  0  0  0
    9.3340    2.2371   22.3071 N   0  0  0  0  0  0  0  0  0  0  0  0
    8.9744    3.6108   22.7057 C   0  0  0  0  0  0  0  0  0  0  0  0
    8.5823    4.2167   21.8630 H   0  0  0  0  0  0  0  0  0  0  0  0
    8.1820    3.5631   23.4590 H   0  0  0  0  0  0  0  0  0  0  0  0
   10.1698    4.3616   23.3107 C   0  0  0  0  0  0  0  0  0  0  0  0
    9.8563    5.3771   23.5736 H   0  0  0  0  0  0  0  0  0  0  0  0
   10.4630    3.8550   24.2489 H   0  0  0  0  0  0  0  0  0  0  0  0
   11.2999    4.4408   22.3796 N   0  0  0  0  0  0  0  0  0  0  0  0
   12.4282    5.1583   22.9365 C   0  0  0  0  0  0  0  0  0  0  0  0
   13.2267    5.2330   22.1882 H   0  0  0  0  0  0  0  0  0  0  0  0
   12.1265    6.1773   23.2064 H   0  0  0  0  0  0  0  0  0  0  0  0
   12.8437    4.6677   23.8417 H   0  0  0  0  0  0  0  0  0  0  0  0
   11.6651    3.0810   21.9566 C   0  0  0  0  0  0  0  0  0  0  0  0
   12.0714    2.4928   22.7972 H   0  0  0  0  0  0  0  0  0  0  0  0
   12.4470    3.1568   21.1928 H   0  0  0  0  0  0  0  0  0  0  0  0
   10.4772    2.3055   21.3745 C   0  0  0  0  0  0  0  0  0  0  0  0
   10.7880    1.3052   21.0678 H   0  0  0  0  0  0  0  0  0  0  0  0
   10.1797    2.8206   20.4638 H   0  0  0  0  0  0  0  0  0  0  0  0
    5.4219    0.6543   20.1565 C   0  0  0  0  0  0  0  0  0  0  0  0
    4.9979    0.6300   21.1662 H   0  0  0  0  0  0  0  0  0  0  0  0
    4.7999    1.3147   19.0984 C   0  0  0  0  0  0  0  0  0  0  0  0
    3.8702    1.8471   19.2472 H   0  0  0  0  0  0  0  0  0  0  0  0
  1  2  1  0
  2  3  2  0
  3  4  1  0
  4  5  1  0
  4  6  2  0
  6  7  1  0
  7  8  1  6
  7  9  1  0
  9 10  1  0
 10 11  1  0
 10 12  1  0
 10 13  1  0
 13 14  1  0
 13 15  1  0
 13 16  1  0
 16 17  1  0
 17 18  1  0
 17 19  1  0
 17 20  1  0
 20 21  1  0
 21 22  1  0
 21 23  1  0
 21 24  1  0
 24 25  1  0
 24 26  1  0
 24 27  1  0
 27 28  1  0
 28 29  1  0
 28 30  1  0
 28 31  1  0
 27 32  1  0
 32 33  1  0
 32 34  1  0
 32 35  1  0
 35 36  1  0
 35 37  1  0
  6 38  1  0
 38 39  1  0
 38 40  2  0
 40 41  1  0
 40  2  1  0
 16  7  1  0
 35 20  1  0
M  END
>  <plip>  (1) 
-0.07142857142857142

>  <filename>  (1) 
[H][c]1[n][c]([H])[c]([C@]2([H])[O][C]([H])([H])[C]([H])([H])[N]2[C]([H])([H])[N]2[C]([H])([H])[C]([H])([H])[N]([C]([H])([H])[H])[C]([H])([H])[C]2([H])[H])[c]([H])[c]1[H]

$$$$
