
     RDKit          3D

 41 43  0  0  0  0  0  0  0  0999 V2000
    3.1720   -8.2581   26.9942 H   0  0  0  0  0  0  0  0  0  0  0  0
    3.8426   -7.5700   27.0916 O   0  0  0  0  0  0  0  0  0  0  0  0
    3.6417   -6.5474   26.1277 C   0  0  0  0  0  0  0  0  0  0  0  0
    3.7327   -6.9414   25.1009 H   0  0  0  0  0  0  0  0  0  0  0  0
    2.6571   -6.0605   26.2149 H   0  0  0  0  0  0  0  0  0  0  0  0
    4.7109   -5.4806   26.3550 C   0  0  0  0  0  0  0  0  0  0  0  0
    4.6509   -5.1577   27.4021 H   0  0  0  0  0  0  0  0  0  0  0  0
    5.7123   -5.9351   26.2161 H   0  0  0  0  0  0  0  0  0  0  0  0
    4.5005   -4.3226   25.4795 N   0  0  0  0  0  0  0  0  0  0  0  0
    4.6760   -4.6788   24.0484 C   0  0  0  0  0  0  0  0  0  0  0  0
    5.4247   -5.4834   23.9280 H   0  0  0  0  0  0  0  0  0  0  0  0
    3.7163   -5.0555   23.6648 H   0  0  0  0  0  0  0  0  0  0  0  0
    5.0695   -3.4737   23.1753 C   0  0  0  0  0  0  0  0  0  0  0  0
    4.1773   -2.8497   23.1889 H   0  0  0  0  0  0  0  0  0  0  0  0
    5.2173   -3.7898   22.1417 H   0  0  0  0  0  0  0  0  0  0  0  0
    6.2820   -2.7948   23.6683 N   0  0  0  0  0  0  0  0  0  0  0  0
    7.1262   -2.1047   22.8144 C   0  0  0  0  0  0  0  0  0  0  0  0
    6.5504   -1.4895   21.7938 N   0  0  0  0  0  0  0  0  0  0  0  0
    7.3344   -0.7304   20.9564 N   0  0  0  0  0  0  0  0  0  0  0  0
    6.6533   -0.0271   19.9133 C   0  0  0  0  0  0  0  0  0  0  0  0
    7.1688    0.0395   18.6031 C   0  0  0  0  0  0  0  0  0  0  0  0
    8.1085   -0.4518   18.3587 H   0  0  0  0  0  0  0  0  0  0  0  0
    6.5639    0.6677   17.5878 N   0  0  0  0  0  0  0  0  0  0  0  0
    5.4049    1.2954   17.8433 C   0  0  0  0  0  0  0  0  0  0  0  0
    4.9375    1.7978   16.9981 H   0  0  0  0  0  0  0  0  0  0  0  0
    4.8106    1.3079   19.1126 C   0  0  0  0  0  0  0  0  0  0  0  0
    3.8759    1.8456   19.2557 H   0  0  0  0  0  0  0  0  0  0  0  0
    5.4381    0.6292   20.1644 C   0  0  0  0  0  0  0  0  0  0  0  0
    5.0188    0.5905   21.1687 H   0  0  0  0  0  0  0  0  0  0  0  0
    8.6943   -0.6280   21.1129 C   0  0  0  0  0  0  0  0  0  0  0  0
    9.1926    0.0256   20.3947 H   0  0  0  0  0  0  0  0  0  0  0  0
    9.3597   -1.2714   22.0994 C   0  0  0  0  0  0  0  0  0  0  0  0
   10.4328   -1.2182   22.2097 H   0  0  0  0  0  0  0  0  0  0  0  0
    8.6474   -2.0909   23.0604 C   0  0  0  0  0  0  0  0  0  0  0  0
    9.2403   -2.6961   23.9518 O   0  0  0  0  0  0  0  0  0  0  0  0
    6.5693   -2.9273   25.1100 C   0  0  0  0  0  0  0  0  0  0  0  0
    7.2402   -3.7810   25.2828 H   0  0  0  0  0  0  0  0  0  0  0  0
    7.0876   -2.0305   25.4644 H   0  0  0  0  0  0  0  0  0  0  0  0
    5.2532   -3.1152   25.8843 C   0  0  0  0  0  0  0  0  0  0  0  0
    4.6354   -2.2179   25.7146 H   0  0  0  0  0  0  0  0  0  0  0  0
    5.4611   -3.1571   26.9605 H   0  0  0  0  0  0  0  0  0  0  0  0
  1  2  1  0
  2  3  1  0
  3  4  1  0
  3  5  1  0
  3  6  1  0
  6  7  1  0
  6  8  1  0
  6  9  1  0
  9 10  1  0
 10 11  1  0
 10 12  1  0
 10 13  1  0
 13 14  1  0
 13 15  1  0
 13 16  1  0
 16 17  1  0
 17 18  2  0
 18 19  1  0
 19 20  1  0
 20 21  2  0
 21 22  1  0
 21 23  1  0
 23 24  2  0
 24 25  1  0
 24 26  1  0
 26 27  1  0
 26 28  2  0
 28 29  1  0
 19 30  1  0
 30 31  1  0
 30 32  2  0
 32 33  1  0
 32 34  1  0
 34 35  2  0
 16 36  1  0
 36 37  1  0
 36 38  1  0
 36 39  1  0
 39 40  1  0
 39 41  1  0
 39  9  1  0
 34 17  1  0
 28 20  1  0
M  END
>  <plip>  (1) 
-0.034482758620689655

>  <filename>  (1) 
[H][O][C]([H])([H])[C]([H])([H])[N]1[C]([H])([H])[C]([H])([H])[N]([c]2[n][n](-[c]3[c]([H])[n][c]([H])[c]([H])[c]3[H])[c]([H])[c]([H])[c]2=[O])[C]([H])([H])[C]1([H])[H]

$$$$
