
     RDKit          3D

 38 40  0  0  0  0  0  0  0  0999 V2000
    5.0252    1.7453   17.0029 H   0  0  0  0  0  0  0  0  0  0  0  0
    5.4615    1.2614   17.8744 C   0  0  0  0  0  0  0  0  0  0  0  0
    6.6245    0.6236   17.6727 N   0  0  0  0  0  0  0  0  0  0  0  0
    7.1797    0.0230   18.7265 C   0  0  0  0  0  0  0  0  0  0  0  0
    8.1128   -0.5115   18.5656 H   0  0  0  0  0  0  0  0  0  0  0  0
    6.6282    0.0423   20.0096 C   0  0  0  0  0  0  0  0  0  0  0  0
    7.4373   -0.6647   21.0404 C   0  0  0  0  0  0  0  0  0  0  0  0
    8.2078   -1.5608   20.7376 O   0  0  0  0  0  0  0  0  0  0  0  0
    7.2980   -0.2308   22.3275 N   0  0  0  0  0  0  0  0  0  0  0  0
    8.1749   -0.6255   23.4341 C   0  0  0  0  0  0  0  0  0  0  0  0
    9.2323   -0.7147   23.1714 H   0  0  0  0  0  0  0  0  0  0  0  0
    7.8215   -1.5288   23.9408 H   0  0  0  0  0  0  0  0  0  0  0  0
    7.8548    0.7094   24.1446 C   0  0  0  0  0  0  0  0  0  0  0  0
    7.2134    0.5484   25.0108 H   0  0  0  0  0  0  0  0  0  0  0  0
    8.9556    1.5845   24.5593 N   0  0  0  0  0  0  0  0  0  0  0  0
    8.9496    1.9669   25.4937 H   0  0  0  0  0  0  0  0  0  0  0  0
    9.8418    2.2028   23.7493 C   0  0  0  0  0  0  0  0  0  0  0  0
   10.3627    1.6734   22.2666 S   0  0  0  0  0  0  0  0  0  0  0  0
   10.3901    3.3514   24.2611 N   0  0  0  0  0  0  0  0  0  0  0  0
   11.0784    3.6706   23.5965 H   0  0  0  0  0  0  0  0  0  0  0  0
    9.7622    4.3702   25.0233 C   0  0  0  0  0  0  0  0  0  0  0  0
    8.3725    4.4649   25.1700 C   0  0  0  0  0  0  0  0  0  0  0  0
    7.7182    3.8309   24.5828 H   0  0  0  0  0  0  0  0  0  0  0  0
    7.8344    5.4038   26.0550 C   0  0  0  0  0  0  0  0  0  0  0  0
    6.7553    5.4777   26.1565 H   0  0  0  0  0  0  0  0  0  0  0  0
    8.6707    6.2449   26.7956 C   0  0  0  0  0  0  0  0  0  0  0  0
    8.2444    6.9441   27.5088 H   0  0  0  0  0  0  0  0  0  0  0  0
   10.0548    6.2012   26.5862 C   0  0  0  0  0  0  0  0  0  0  0  0
   10.7138    6.8618   27.1463 H   0  0  0  0  0  0  0  0  0  0  0  0
   10.5911    5.3069   25.6601 C   0  0  0  0  0  0  0  0  0  0  0  0
   11.6625    5.2580   25.4841 H   0  0  0  0  0  0  0  0  0  0  0  0
    7.0145    1.1019   22.8980 C   0  0  0  0  0  0  0  0  0  0  0  0
    5.9533    1.2575   23.1160 H   0  0  0  0  0  0  0  0  0  0  0  0
    7.4160    1.9501   22.3294 H   0  0  0  0  0  0  0  0  0  0  0  0
    5.4060    0.6962   20.2133 C   0  0  0  0  0  0  0  0  0  0  0  0
    4.9256    0.7298   21.1940 H   0  0  0  0  0  0  0  0  0  0  0  0
    4.8139    1.3128   19.1152 C   0  0  0  0  0  0  0  0  0  0  0  0
    3.8747    1.8443   19.2109 H   0  0  0  0  0  0  0  0  0  0  0  0
  1  2  1  0
  2  3  2  0
  3  4  1  0
  4  5  1  0
  4  6  2  0
  6  7  1  0
  7  8  2  0
  7  9  1  0
  9 10  1  0
 10 11  1  0
 10 12  1  0
 10 13  1  0
 13 14  1  0
 13 15  1  0
 15 16  1  0
 15 17  1  0
 17 18  2  0
 17 19  1  0
 19 20  1  0
 19 21  1  0
 21 22  2  0
 22 23  1  0
 22 24  1  0
 24 25  1  0
 24 26  2  0
 26 27  1  0
 26 28  1  0
 28 29  1  0
 28 30  2  0
 30 31  1  0
 13 32  1  0
 32 33  1  0
 32 34  1  0
  6 35  1  0
 35 36  1  0
 35 37  2  0
 37 38  1  0
 37  2  1  0
 32  9  1  0
 30 21  1  0
M  END
>  <plip>  (1) 
-0.14285714285714285

>  <filename>  (1) 
[H][c]1[n][c]([H])[c]([C](=[O])[N]2[C]([H])([H])[C]([H])([N]([H])[C](=[S])[N]([H])[c]3[c]([H])[c]([H])[c]([H])[c]([H])[c]3[H])[C]2([H])[H])[c]([H])[c]1[H]

$$$$
