
     RDKit          3D

 38 41  0  0  0  0  0  0  0  0999 V2000
    4.9634    1.8467   16.9563 H   0  0  0  0  0  0  0  0  0  0  0  0
    5.4543    1.3286   17.7798 C   0  0  0  0  0  0  0  0  0  0  0  0
    6.6329    0.7437   17.5045 N   0  0  0  0  0  0  0  0  0  0  0  0
    7.2448    0.0868   18.4951 C   0  0  0  0  0  0  0  0  0  0  0  0
    8.1999   -0.3686   18.2530 H   0  0  0  0  0  0  0  0  0  0  0  0
    6.7151   -0.0550   19.7946 C   0  0  0  0  0  0  0  0  0  0  0  0
    7.3917   -0.7969   20.7965 N   0  0  0  0  0  0  0  0  0  0  0  0
    6.8576   -1.7098   21.7254 C   0  0  0  0  0  0  0  0  0  0  0  0
    5.7241   -2.1564   21.7093 O   0  0  0  0  0  0  0  0  0  0  0  0
    7.9884   -2.0198   22.6097 C   0  0  0  0  0  0  0  0  0  0  0  0
    7.8210   -2.7581   23.9189 C   0  0  0  0  0  0  0  0  0  0  0  0
    6.9957   -3.4753   23.8240 H   0  0  0  0  0  0  0  0  0  0  0  0
    8.7131   -3.3651   24.1200 H   0  0  0  0  0  0  0  0  0  0  0  0
    7.5580   -1.8390   25.1137 C   0  0  0  0  0  0  0  0  0  0  0  0
    8.6650   -1.3229   25.8505 C   0  0  0  0  0  0  0  0  0  0  0  0
    9.6708   -1.6325   25.5775 H   0  0  0  0  0  0  0  0  0  0  0  0
    8.4898   -0.4682   26.9116 C   0  0  0  0  0  0  0  0  0  0  0  0
    9.3434   -0.0816   27.4628 H   0  0  0  0  0  0  0  0  0  0  0  0
    7.1809   -0.0823   27.3238 C   0  0  0  0  0  0  0  0  0  0  0  0
    6.9617    0.7971   28.4286 C   0  0  0  0  0  0  0  0  0  0  0  0
    7.8280    1.1889   28.9587 H   0  0  0  0  0  0  0  0  0  0  0  0
    5.6834    1.1417   28.8074 C   0  0  0  0  0  0  0  0  0  0  0  0
    5.5219    1.8187   29.6439 H   0  0  0  0  0  0  0  0  0  0  0  0
    4.5611    0.6194   28.1004 C   0  0  0  0  0  0  0  0  0  0  0  0
    3.5585    0.9058   28.4144 H   0  0  0  0  0  0  0  0  0  0  0  0
    4.7400   -0.2297   27.0320 C   0  0  0  0  0  0  0  0  0  0  0  0
    3.8843   -0.6322   26.4933 H   0  0  0  0  0  0  0  0  0  0  0  0
    6.0535   -0.6018   26.6060 C   0  0  0  0  0  0  0  0  0  0  0  0
    6.2829   -1.4755   25.4972 C   0  0  0  0  0  0  0  0  0  0  0  0
    5.4135   -1.8595   24.9656 H   0  0  0  0  0  0  0  0  0  0  0  0
    9.0789   -1.4271   22.0815 C   0  0  0  0  0  0  0  0  0  0  0  0
   10.1061   -1.4770   22.4188 H   0  0  0  0  0  0  0  0  0  0  0  0
    8.7855   -0.7698   20.8857 N   0  0  0  0  0  0  0  0  0  0  0  0
    9.1627    0.1632   20.7381 H   0  0  0  0  0  0  0  0  0  0  0  0
    5.4972    0.5808   20.0776 C   0  0  0  0  0  0  0  0  0  0  0  0
    5.0829    0.5436   21.0834 H   0  0  0  0  0  0  0  0  0  0  0  0
    4.8617    1.2824   19.0460 C   0  0  0  0  0  0  0  0  0  0  0  0
    3.9269    1.8068   19.2175 H   0  0  0  0  0  0  0  0  0  0  0  0
  1  2  1  0
  2  3  2  0
  3  4  1  0
  4  5  1  0
  4  6  2  0
  6  7  1  0
  7  8  1  0
  8  9  2  0
  8 10  1  0
 10 11  1  0
 11 12  1  0
 11 13  1  0
 11 14  1  0
 14 15  2  0
 15 16  1  0
 15 17  1  0
 17 18  1  0
 17 19  2  0
 19 20  1  0
 20 21  1  0
 20 22  2  0
 22 23  1  0
 22 24  1  0
 24 25  1  0
 24 26  2  0
 26 27  1  0
 26 28  1  0
 28 29  2  0
 29 30  1  0
 10 31  2  0
 31 32  1  0
 31 33  1  0
 33 34  1  0
  6 35  1  0
 35 36  1  0
 35 37  2  0
 37 38  1  0
 37  2  1  0
 33  7  1  0
 29 14  1  0
 28 19  1  0
M  END
>  <plip>  (1) 
-0.07142857142857142

>  <filename>  (1) 
[H][c]1[n][c]([H])[c](-[n]2[c](=[O])[c]([C]([H])([H])[c]3[c]([H])[c]([H])[c]4[c]([H])[c]([H])[c]([H])[c]([H])[c]4[c]3[H])[c]([H])[n]2[H])[c]([H])[c]1[H]

$$$$
