
     RDKit          3D

 33 34  0  0  0  0  0  0  0  0999 V2000
    4.9312    1.8320   17.0230 H   0  0  0  0  0  0  0  0  0  0  0  0
    5.4275    1.2894   17.8202 C   0  0  0  0  0  0  0  0  0  0  0  0
    6.5872    0.6559   17.5583 N   0  0  0  0  0  0  0  0  0  0  0  0
    7.2043    0.0207   18.5719 C   0  0  0  0  0  0  0  0  0  0  0  0
    8.1504   -0.4691   18.3642 H   0  0  0  0  0  0  0  0  0  0  0  0
    6.6962   -0.0047   19.8820 C   0  0  0  0  0  0  0  0  0  0  0  0
    7.4943   -0.6825   20.9806 C   0  0  2  0  0  0  0  0  0  0  0  0
    8.4313   -1.0748   20.5692 H   0  0  0  0  0  0  0  0  0  0  0  0
    6.4845   -2.2199   21.7194 Br  0  0  0  0  0  0  0  0  0  0  0  0
    7.8076    0.3176   22.1115 C   0  0  0  0  0  0  0  0  0  0  0  0
    7.9708    1.3072   21.6770 H   0  0  0  0  0  0  0  0  0  0  0  0
    6.9408    0.4000   22.7723 H   0  0  0  0  0  0  0  0  0  0  0  0
    9.0626   -0.0455   22.9295 C   0  0  1  0  0  0  0  0  0  0  0  0
    9.1577    0.6788   23.7450 H   0  0  0  0  0  0  0  0  0  0  0  0
    8.9450   -1.4263   23.5388 C   0  0  0  0  0  0  0  0  0  0  0  0
    9.3747   -2.5791   22.8625 C   0  0  0  0  0  0  0  0  0  0  0  0
    9.8483   -2.4805   21.8915 H   0  0  0  0  0  0  0  0  0  0  0  0
    9.1859   -3.8521   23.4222 C   0  0  0  0  0  0  0  0  0  0  0  0
    9.4497   -4.7419   22.8652 H   0  0  0  0  0  0  0  0  0  0  0  0
    8.6555   -3.9691   24.7122 C   0  0  0  0  0  0  0  0  0  0  0  0
    8.5723   -4.9414   25.1926 H   0  0  0  0  0  0  0  0  0  0  0  0
    8.2372   -2.8204   25.3902 C   0  0  0  0  0  0  0  0  0  0  0  0
    7.8143   -2.8994   26.3831 H   0  0  0  0  0  0  0  0  0  0  0  0
    8.3509   -1.5625   24.7959 C   0  0  0  0  0  0  0  0  0  0  0  0
    7.9780   -0.6781   25.3058 H   0  0  0  0  0  0  0  0  0  0  0  0
   10.3043    0.0988   22.0418 C   0  0  0  0  0  0  0  0  0  0  0  0
   11.2114   -0.1815   22.5843 H   0  0  0  0  0  0  0  0  0  0  0  0
   10.4090    1.1354   21.7130 H   0  0  0  0  0  0  0  0  0  0  0  0
   10.2157   -0.5336   21.1542 H   0  0  0  0  0  0  0  0  0  0  0  0
    5.4724    0.6298   20.1371 C   0  0  0  0  0  0  0  0  0  0  0  0
    5.0510    0.6506   21.1427 H   0  0  0  0  0  0  0  0  0  0  0  0
    4.8283    1.2826   19.0830 C   0  0  0  0  0  0  0  0  0  0  0  0
    3.8900    1.8134   19.2317 H   0  0  0  0  0  0  0  0  0  0  0  0
  1  2  1  0
  2  3  2  0
  3  4  1  0
  4  5  1  0
  4  6  2  0
  6  7  1  0
  7  8  1  6
  7  9  1  0
  7 10  1  0
 10 11  1  0
 10 12  1  0
 10 13  1  0
 13 14  1  1
 13 15  1  0
 15 16  2  0
 16 17  1  0
 16 18  1  0
 18 19  1  0
 18 20  2  0
 20 21  1  0
 20 22  1  0
 22 23  1  0
 22 24  2  0
 24 25  1  0
 13 26  1  0
 26 27  1  0
 26 28  1  0
 26 29  1  0
  6 30  1  0
 30 31  1  0
 30 32  2  0
 32 33  1  0
 32  2  1  0
 24 15  1  0
M  END
>  <plip>  (1) 
-0.03571428571428571

>  <filename>  (1) 
[H][c]1[n][c]([H])[c]([C@]([H])([Br])[C]([H])([H])[C@@]([H])([c]2[c]([H])[c]([H])[c]([H])[c]([H])[c]2[H])[C]([H])([H])[H])[c]([H])[c]1[H]

$$$$
