
     RDKit          3D

 47 50  0  0  0  0  0  0  0  0999 V2000
   12.0017    5.5462   24.9704 C   0  0  0  0  0  0  0  0  0  0  0  0
   11.8584    4.7544   23.7064 C   0  0  0  0  0  0  0  0  0  0  0  0
   12.6061    5.0388   22.5672 C   0  0  0  0  0  0  0  0  0  0  0  0
   12.5587    4.2284   21.3987 C   0  0  0  0  0  0  0  0  0  0  0  0
   11.7244    3.1271   21.3288 C   0  0  0  0  0  0  0  0  0  0  0  0
   10.8426    2.9127   22.4148 C   0  0  0  0  0  0  0  0  0  0  0  0
   10.9342    3.6857   23.5887 C   0  0  0  0  0  0  0  0  0  0  0  0
    9.9659    3.2129   24.4181 N   0  0  0  0  0  0  0  0  0  0  0  0
    9.2192    2.2527   23.8634 N   0  0  0  0  0  0  0  0  0  0  0  0
    9.7243    2.0549   22.6402 C   0  0  0  0  0  0  0  0  0  0  0  0
    9.1487    1.1047   21.6146 C   0  0  0  0  0  0  0  0  0  0  0  0
    9.6629    0.9435   20.5105 O   0  0  0  0  0  0  0  0  0  0  0  0
    8.0152    0.4566   21.9897 N   0  0  0  0  0  0  0  0  0  0  0  0
    7.2980   -0.5300   21.1948 C   0  0  0  0  0  0  0  0  0  0  0  0
    8.2109   -1.6944   20.8024 C   0  0  0  0  0  0  0  0  0  0  0  0
    8.8299   -2.5105   21.9439 C   0  0  0  0  0  0  0  0  0  0  0  0
    7.8418   -3.5120   22.5016 C   0  0  0  0  0  0  0  0  0  0  0  0
    8.2857   -4.7887   23.1454 C   0  0  0  0  0  0  0  0  0  0  0  0
    7.6159   -4.8246   21.7999 C   0  0  0  0  0  0  0  0  0  0  0  0
    8.2299   -5.0616   20.9320 H   0  0  0  0  0  0  0  0  0  0  0  0
    6.5966   -5.1968   21.7475 H   0  0  0  0  0  0  0  0  0  0  0  0
    7.7218   -5.1405   24.0035 H   0  0  0  0  0  0  0  0  0  0  0  0
    9.3502   -4.9947   23.1991 H   0  0  0  0  0  0  0  0  0  0  0  0
    6.9466   -3.0562   22.9295 H   0  0  0  0  0  0  0  0  0  0  0  0
    9.2215   -1.8631   22.7418 H   0  0  0  0  0  0  0  0  0  0  0  0
    9.7037   -3.0319   21.5308 H   0  0  0  0  0  0  0  0  0  0  0  0
    7.5821   -2.3665   20.2096 H   0  0  0  0  0  0  0  0  0  0  0  0
    9.0113   -1.2801   20.1835 H   0  0  0  0  0  0  0  0  0  0  0  0
    6.6003    0.0982   19.9970 C   0  0  0  0  0  0  0  0  0  0  0  0
    5.3608    0.7352   20.1580 C   0  0  0  0  0  0  0  0  0  0  0  0
    4.7639    1.3397   19.0501 C   0  0  0  0  0  0  0  0  0  0  0  0
    5.4243    1.2879   17.8166 C   0  0  0  0  0  0  0  0  0  0  0  0
    6.6004    0.6752   17.6336 N   0  0  0  0  0  0  0  0  0  0  0  0
    7.1637    0.1080   18.7114 C   0  0  0  0  0  0  0  0  0  0  0  0
    8.1235   -0.3755   18.5308 H   0  0  0  0  0  0  0  0  0  0  0  0
    4.9849    1.7522   16.9362 H   0  0  0  0  0  0  0  0  0  0  0  0
    3.8146    1.8591   19.1306 H   0  0  0  0  0  0  0  0  0  0  0  0
    4.8799    0.7696   21.1392 H   0  0  0  0  0  0  0  0  0  0  0  0
    6.5005   -0.9028   21.8574 H   0  0  0  0  0  0  0  0  0  0  0  0
    7.6646    0.6848   22.9048 H   0  0  0  0  0  0  0  0  0  0  0  0
    9.7697    3.5387   25.3568 H   0  0  0  0  0  0  0  0  0  0  0  0
   11.6719    2.4686   20.4663 H   0  0  0  0  0  0  0  0  0  0  0  0
   13.1817    4.4843   20.5472 H   0  0  0  0  0  0  0  0  0  0  0  0
   13.2476    5.9199   22.5678 H   0  0  0  0  0  0  0  0  0  0  0  0
   12.4128    4.9488   25.7884 H   0  0  0  0  0  0  0  0  0  0  0  0
   11.0330    5.9239   25.3116 H   0  0  0  0  0  0  0  0  0  0  0  0
   12.6739    6.3955   24.8271 H   0  0  0  0  0  0  0  0  0  0  0  0
  1  2  1  0
  2  3  2  0
  3  4  1  0
  4  5  2  0
  5  6  1  0
  6  7  2  0
  7  8  1  0
  8  9  1  0
  9 10  2  0
 10 11  1  0
 11 12  2  0
 11 13  1  0
 13 14  1  0
 14 15  1  0
 15 16  1  0
 16 17  1  0
 17 18  1  0
 18 19  1  0
 19 20  1  0
 19 21  1  0
 18 22  1  0
 18 23  1  0
 17 24  1  0
 16 25  1  0
 16 26  1  0
 15 27  1  0
 15 28  1  0
 14 29  1  0
 29 30  2  0
 30 31  1  0
 31 32  2  0
 32 33  1  0
 33 34  2  0
 34 35  1  0
 32 36  1  0
 31 37  1  0
 30 38  1  0
 14 39  1  0
 13 40  1  0
  8 41  1  0
  5 42  1  0
  4 43  1  0
  3 44  1  0
  1 45  1  0
  1 46  1  0
  1 47  1  0
  7  2  1  0
 19 17  1  0
 34 29  1  0
 10  6  1  0
M  END
>  <plip>  (1) 
-0.10344827586206896

>  <filename>  (1) 
[H][c]1[n][c]([H])[c]([C]([H])([N]([H])[C](=[O])[c]2[n][n]([H])[c]3[c]([C]([H])([H])[H])[c]([H])[c]([H])[c]([H])[c]23)[C]([H])([H])[C]([H])([H])[C]2([H])[C]([H])([H])[C]2([H])[H])[c]([H])[c]1[H]

$$$$
