
     RDKit          3D

 52 54  0  0  0  0  0  0  0  0999 V2000
    5.3690    0.8721   26.6705 C   0  0  0  0  0  0  0  0  0  0  0  0
    6.1787    1.2465   25.4428 C   0  0  0  0  0  0  0  0  0  0  0  0
    5.8157    2.6581   24.9626 C   0  0  0  0  0  0  0  0  0  0  0  0
    4.4054    2.8131   24.4453 C   0  0  0  0  0  0  0  0  0  0  0  0
    4.1635    2.8158   23.0666 C   0  0  0  0  0  0  0  0  0  0  0  0
    2.8650    2.9877   22.5722 C   0  0  0  0  0  0  0  0  0  0  0  0
    1.7934    3.1514   23.4563 C   0  0  0  0  0  0  0  0  0  0  0  0
    0.0144    3.3445   22.7839 Br  0  0  0  0  0  0  0  0  0  0  0  0
    2.0328    3.1741   24.8347 C   0  0  0  0  0  0  0  0  0  0  0  0
    3.3346    3.0091   25.3269 C   0  0  0  0  0  0  0  0  0  0  0  0
    3.5205    3.0480   26.3958 H   0  0  0  0  0  0  0  0  0  0  0  0
    1.2021    3.3285   25.5180 H   0  0  0  0  0  0  0  0  0  0  0  0
    2.6840    3.0014   21.5007 H   0  0  0  0  0  0  0  0  0  0  0  0
    4.9969    2.7076   22.3798 H   0  0  0  0  0  0  0  0  0  0  0  0
    5.9597    3.3515   25.7955 H   0  0  0  0  0  0  0  0  0  0  0  0
    6.5170    2.9378   24.1731 H   0  0  0  0  0  0  0  0  0  0  0  0
    5.9486    0.2185   24.4144 N   0  0  0  0  0  4  0  0  0  0  0  0
    6.8983    0.3234   23.2898 C   0  0  0  0  0  0  0  0  0  0  0  0
    6.7621   -0.8565   22.3318 C   0  0  2  0  0  0  0  0  0  0  0  0
    7.3563   -2.1538   22.8829 C   0  0  0  0  0  0  0  0  0  0  0  0
    7.6167   -2.9538   21.6286 C   0  0  0  0  0  0  0  0  0  0  0  0
    7.9944   -1.9215   20.6405 N   0  0  0  0  0  4  0  0  0  0  0  0
    9.4582   -1.9037   20.4921 C   0  0  0  0  0  0  0  0  0  0  0  0
    9.9523   -1.6707   21.4410 H   0  0  0  0  0  0  0  0  0  0  0  0
    9.8266   -2.8774   20.1554 H   0  0  0  0  0  0  0  0  0  0  0  0
    9.7572   -1.1463   19.7619 H   0  0  0  0  0  0  0  0  0  0  0  0
    7.5422   -0.5943   21.0575 C   0  0  1  0  0  0  0  0  0  0  0  0
    6.7090   -0.0031   19.9435 C   0  0  0  0  0  0  0  0  0  0  0  0
    5.4731    0.6175   20.1803 C   0  0  0  0  0  0  0  0  0  0  0  0
    4.8340    1.2567   19.1173 C   0  0  0  0  0  0  0  0  0  0  0  0
    5.4227    1.2454   17.8526 C   0  0  0  0  0  0  0  0  0  0  0  0
    6.5755    0.5983   17.6048 N   0  0  0  0  0  0  0  0  0  0  0  0
    7.2038   -0.0016   18.6303 C   0  0  0  0  0  0  0  0  0  0  0  0
    8.1580   -0.4730   18.4276 H   0  0  0  0  0  0  0  0  0  0  0  0
    4.9354    1.8004   17.0550 H   0  0  0  0  0  0  0  0  0  0  0  0
    3.9108    1.8094   19.2571 H   0  0  0  0  0  0  0  0  0  0  0  0
    5.0250    0.6491   21.1718 H   0  0  0  0  0  0  0  0  0  0  0  0
    8.4048    0.0610   21.2668 H   0  0  0  0  0  0  0  0  0  0  0  0
    7.5477   -2.1291   19.7396 H   0  0  0  0  0  0  0  0  0  0  0  0
    8.4126   -3.6923   21.7832 H   0  0  0  0  0  0  0  0  0  0  0  0
    6.7148   -3.5016   21.3306 H   0  0  0  0  0  0  0  0  0  0  0  0
    8.3107   -1.9648   23.3878 H   0  0  0  0  0  0  0  0  0  0  0  0
    6.6897   -2.6728   23.5768 H   0  0  0  0  0  0  0  0  0  0  0  0
    5.7251   -1.0133   22.0315 H   0  0  0  0  0  0  0  0  0  0  0  0
    6.7258    1.2570   22.7363 H   0  0  0  0  0  0  0  0  0  0  0  0
    7.9331    0.3544   23.6612 H   0  0  0  0  0  0  0  0  0  0  0  0
    6.0352   -0.7034   24.8483 H   0  0  0  0  0  0  0  0  0  0  0  0
    4.9919    0.2990   24.0660 H   0  0  0  0  0  0  0  0  0  0  0  0
    7.2414    1.2653   25.7228 H   0  0  0  0  0  0  0  0  0  0  0  0
    5.4562    1.6565   27.4293 H   0  0  0  0  0  0  0  0  0  0  0  0
    4.3147    0.7433   26.4141 H   0  0  0  0  0  0  0  0  0  0  0  0
    5.7440   -0.0642   27.0927 H   0  0  0  0  0  0  0  0  0  0  0  0
  1  2  1  0
  2  3  1  0
  3  4  1  0
  4  5  2  0
  5  6  1  0
  6  7  2  0
  7  8  1  0
  7  9  1  0
  9 10  2  0
 10 11  1  0
  9 12  1  0
  6 13  1  0
  5 14  1  0
  3 15  1  0
  3 16  1  0
  2 17  1  0
 17 18  1  0
 18 19  1  0
 19 20  1  0
 20 21  1  0
 21 22  1  0
 22 23  1  0
 23 24  1  0
 23 25  1  0
 23 26  1  0
 22 27  1  0
 27 28  1  0
 28 29  2  0
 29 30  1  0
 30 31  2  0
 31 32  1  0
 32 33  2  0
 33 34  1  0
 31 35  1  0
 30 36  1  0
 29 37  1  0
 27 38  1  1
 22 39  1  0
 21 40  1  0
 21 41  1  0
 20 42  1  0
 20 43  1  0
 19 44  1  6
 18 45  1  0
 18 46  1  0
 17 47  1  0
 17 48  1  0
  2 49  1  0
  1 50  1  0
  1 51  1  0
  1 52  1  0
 10  4  1  0
 27 19  1  0
 33 28  1  0
M  CHG  2  17   1  22   1
M  END
>  <plip>  (1) 
-0.06896551724137931

>  <filename>  (1) 
[H][c]1[n][c]([H])[c]([C@@]2([H])[C@]([H])([C]([H])([H])[N+]([H])([H])[C]([H])([C]([H])([H])[H])[C]([H])([H])[c]3[c]([H])[c]([H])[c]([Br])[c]([H])[c]3[H])[C]([H])([H])[C]([H])([H])[N+]2([H])[C]([H])([H])[H])[c]([H])[c]1[H]

$$$$
