
     RDKit          3D

 36 38  0  0  0  0  0  0  0  0999 V2000
    4.9141    1.8230   16.9541 H   0  0  0  0  0  0  0  0  0  0  0  0
    5.3468    1.3004   17.8073 C   0  0  0  0  0  0  0  0  0  0  0  0
    6.4930    0.6423   17.5815 N   0  0  0  0  0  0  0  0  0  0  0  0
    7.0506    0.0097   18.6245 C   0  0  0  0  0  0  0  0  0  0  0  0
    7.9834   -0.5070   18.4130 H   0  0  0  0  0  0  0  0  0  0  0  0
    6.5203   -0.0192   19.9325 C   0  0  0  0  0  0  0  0  0  0  0  0
    7.2664   -0.8302   21.0061 C   0  0  0  0  0  0  0  0  0  0  0  0
    8.7236   -0.7776   20.7342 N   0  0  0  0  0  0  0  0  0  0  0  0
    9.1517   -1.5864   21.1579 H   0  0  0  0  0  0  0  0  0  0  0  0
    9.4639    0.3704   21.1059 C   0  0  0  0  0  0  0  0  0  0  0  0
    8.8348    1.6466   21.0783 C   0  0  0  0  0  0  0  0  0  0  0  0
    7.8072    1.7248   20.7505 H   0  0  0  0  0  0  0  0  0  0  0  0
    9.4744    2.7846   21.5291 C   0  0  0  0  0  0  0  0  0  0  0  0
    8.9463    3.7303   21.6332 H   0  0  0  0  0  0  0  0  0  0  0  0
   10.8290    2.6851   21.8730 C   0  0  0  0  0  0  0  0  0  0  0  0
   11.5030    1.4400   21.8958 C   0  0  0  0  0  0  0  0  0  0  0  0
   10.8007    0.2710   21.5093 C   0  0  0  0  0  0  0  0  0  0  0  0
   11.2955   -0.6997   21.5333 H   0  0  0  0  0  0  0  0  0  0  0  0
   12.8505    1.7351   22.3228 C   0  0  0  0  0  0  0  0  0  0  0  0
   13.6565    1.0244   22.4546 H   0  0  0  0  0  0  0  0  0  0  0  0
   12.9536    3.0859   22.4755 C   0  0  0  0  0  0  0  0  0  0  0  0
   13.8021    3.7018   22.7624 H   0  0  0  0  0  0  0  0  0  0  0  0
   11.7194    3.6707   22.2448 N   0  0  0  0  0  0  0  0  0  0  0  0
   11.5863    4.6297   21.9668 H   0  0  0  0  0  0  0  0  0  0  0  0
    6.8194   -2.2954   20.8892 C   0  0  0  0  0  0  0  0  0  0  0  0
    5.8199   -2.4189   21.3201 H   0  0  0  0  0  0  0  0  0  0  0  0
    7.4996   -2.9629   21.4321 H   0  0  0  0  0  0  0  0  0  0  0  0
    6.7498   -2.6272   19.8504 H   0  0  0  0  0  0  0  0  0  0  0  0
    7.0240   -0.3745   22.4616 C   0  0  0  0  0  0  0  0  0  0  0  0
    7.7090   -0.9262   23.1184 H   0  0  0  0  0  0  0  0  0  0  0  0
    6.0142   -0.6062   22.7798 H   0  0  0  0  0  0  0  0  0  0  0  0
    7.2049    0.6910   22.6216 H   0  0  0  0  0  0  0  0  0  0  0  0
    5.2995    0.6428   20.1322 C   0  0  0  0  0  0  0  0  0  0  0  0
    4.8074    0.6543   21.1065 H   0  0  0  0  0  0  0  0  0  0  0  0
    4.7159    1.3216   19.0543 C   0  0  0  0  0  0  0  0  0  0  0  0
    3.7918    1.8765   19.1683 H   0  0  0  0  0  0  0  0  0  0  0  0
  1  2  1  0
  2  3  2  0
  3  4  1  0
  4  5  1  0
  4  6  2  0
  6  7  1  0
  7  8  1  0
  8  9  1  0
  8 10  1  0
 10 11  2  0
 11 12  1  0
 11 13  1  0
 13 14  1  0
 13 15  2  0
 15 16  1  0
 16 17  2  0
 17 18  1  0
 16 19  1  0
 19 20  1  0
 19 21  2  0
 21 22  1  0
 21 23  1  0
 23 24  1  0
  7 25  1  0
 25 26  1  0
 25 27  1  0
 25 28  1  0
  7 29  1  0
 29 30  1  0
 29 31  1  0
 29 32  1  0
  6 33  1  0
 33 34  1  0
 33 35  2  0
 35 36  1  0
 35  2  1  0
 17 10  1  0
 23 15  1  0
M  END
>  <plip>  (1) 
-0.14285714285714285

>  <filename>  (1) 
[H][c]1[n][c]([H])[c]([C]([N]([H])[c]2[c]([H])[c]([H])[c]3[c]([c]2[H])[c]([H])[c]([H])[n]3[H])([C]([H])([H])[H])[C]([H])([H])[H])[c]([H])[c]1[H]

$$$$
