
     RDKit          3D

 41 42  0  0  0  0  0  0  0  0999 V2000
   10.4656    5.4596   24.8622 C   0  0  0  0  0  0  0  0  0  0  0  0
   10.4747    4.2848   24.0691 O   0  0  0  0  0  0  0  0  0  0  0  0
   11.6586    3.7964   23.5964 C   0  0  0  0  0  0  0  0  0  0  0  0
   12.8029    4.5943   23.4675 C   0  0  0  0  0  0  0  0  0  0  0  0
   14.0094    4.0325   23.0518 C   0  0  0  0  0  0  0  0  0  0  0  0
   14.0825    2.6708   22.7577 C   0  0  0  0  0  0  0  0  0  0  0  0
   12.9416    1.8852   22.8464 C   0  0  0  0  0  0  0  0  0  0  0  0
   11.7070    2.4213   23.2450 C   0  0  0  0  0  0  0  0  0  0  0  0
   10.5201    1.5506   23.3015 C   0  0  0  0  0  0  0  0  0  0  0  0
   10.4270    0.3543   22.7019 C   0  0  0  0  0  0  0  0  0  0  0  0
    9.1919   -0.4829   22.7269 C   0  0  0  0  0  0  0  0  0  0  0  0
    8.4376   -0.0419   21.5378 N   0  0  0  0  0  4  0  0  0  0  0  0
    7.1142   -0.6343   21.2764 C   0  0  0  0  0  0  0  0  0  0  0  0
    7.1985   -2.1576   21.1210 C   0  0  0  0  0  0  0  0  0  0  0  0
    6.3801   -2.5319   20.5029 H   0  0  0  0  0  0  0  0  0  0  0  0
    7.1432   -2.6372   22.1051 H   0  0  0  0  0  0  0  0  0  0  0  0
    8.1474   -2.4564   20.6621 H   0  0  0  0  0  0  0  0  0  0  0  0
    6.5979    0.1106   20.0769 C   0  0  0  0  0  0  0  0  0  0  0  0
    5.3896    0.8169   20.1385 C   0  0  0  0  0  0  0  0  0  0  0  0
    4.9064    1.4340   18.9841 C   0  0  0  0  0  0  0  0  0  0  0  0
    5.6604    1.3387   17.8113 C   0  0  0  0  0  0  0  0  0  0  0  0
    6.8335    0.6940   17.7400 N   0  0  0  0  0  0  0  0  0  0  0  0
    7.2931    0.1194   18.8601 C   0  0  0  0  0  0  0  0  0  0  0  0
    8.2639   -0.3697   18.7624 H   0  0  0  0  0  0  0  0  0  0  0  0
    5.3021    1.7865   16.8846 H   0  0  0  0  0  0  0  0  0  0  0  0
    3.9735    1.9877   18.9804 H   0  0  0  0  0  0  0  0  0  0  0  0
    4.8519    0.8857   21.0864 H   0  0  0  0  0  0  0  0  0  0  0  0
    6.4384   -0.4204   22.1173 H   0  0  0  0  0  0  0  0  0  0  0  0
    8.3135    1.0007   21.5874 H   0  0  0  0  0  0  0  0  0  0  0  0
    9.0359   -0.2060   20.6958 H   0  0  0  0  0  0  0  0  0  0  0  0
    8.6261   -0.3111   23.6573 H   0  0  0  0  0  0  0  0  0  0  0  0
    9.4285   -1.5559   22.6758 H   0  0  0  0  0  0  0  0  0  0  0  0
   11.1961    0.0125   22.0069 H   0  0  0  0  0  0  0  0  0  0  0  0
    9.6754    1.9508   23.8614 H   0  0  0  0  0  0  0  0  0  0  0  0
   13.0091    0.8299   22.6002 H   0  0  0  0  0  0  0  0  0  0  0  0
   15.0341    2.2138   22.4998 H   0  0  0  0  0  0  0  0  0  0  0  0
   14.8963    4.6536   22.9842 H   0  0  0  0  0  0  0  0  0  0  0  0
   12.7465    5.6442   23.7316 H   0  0  0  0  0  0  0  0  0  0  0  0
   10.4651    6.3655   24.2418 H   0  0  0  0  0  0  0  0  0  0  0  0
   11.3303    5.4923   25.5386 H   0  0  0  0  0  0  0  0  0  0  0  0
    9.5450    5.4164   25.4482 H   0  0  0  0  0  0  0  0  0  0  0  0
  1  2  1  0
  2  3  1  0
  3  4  2  0
  4  5  1  0
  5  6  2  0
  6  7  1  0
  7  8  2  0
  8  9  1  0
  9 10  2  3
 10 11  1  0
 11 12  1  0
 12 13  1  0
 13 14  1  0
 14 15  1  0
 14 16  1  0
 14 17  1  0
 13 18  1  0
 18 19  2  0
 19 20  1  0
 20 21  2  0
 21 22  1  0
 22 23  2  0
 23 24  1  0
 21 25  1  0
 20 26  1  0
 19 27  1  0
 13 28  1  0
 12 29  1  0
 12 30  1  0
 11 31  1  0
 11 32  1  0
 10 33  1  0
  9 34  1  0
  7 35  1  0
  6 36  1  0
  5 37  1  0
  4 38  1  0
  1 39  1  0
  1 40  1  0
  1 41  1  0
  8  3  1  0
 23 18  1  0
M  CHG  1  12   1
M  END
>  <plip>  (1) 
-0.03571428571428571

>  <filename>  (1) 
[H][C](=[C]([H])[C]([H])([H])[N+]([H])([H])[C]([H])([c]1[c]([H])[n][c]([H])[c]([H])[c]1[H])[C]([H])([H])[H])[c]1[c]([H])[c]([H])[c]([H])[c]([H])[c]1[O][C]([H])([H])[H]

$$$$
