
     RDKit          3D

 28 30  0  0  0  0  0  0  0  0999 V2000
   10.8394   -3.7598   24.2545 H   0  0  0  0  0  0  0  0  0  0  0  0
   10.0722   -3.0260   24.0340 C   0  0  0  0  0  0  0  0  0  0  0  0
    9.6297   -2.7964   22.7715 N   0  0  0  0  0  0  0  0  0  0  0  0
    8.7141   -1.8693   22.9465 C   0  0  0  0  0  0  0  0  0  0  0  0
    7.9919   -1.2378   21.8874 C   0  0  0  0  0  0  0  0  0  0  0  0
    7.3758   -0.6921   21.0000 C   0  0  0  0  0  0  0  0  0  0  0  0
    6.6714   -0.0197   19.9395 C   0  0  0  0  0  0  0  0  0  0  0  0
    7.1985   -0.0049   18.6290 C   0  0  0  0  0  0  0  0  0  0  0  0
    8.1218   -0.5409   18.4082 H   0  0  0  0  0  0  0  0  0  0  0  0
    6.6277    0.6283   17.5982 N   0  0  0  0  0  0  0  0  0  0  0  0
    5.4753    1.2788   17.8299 C   0  0  0  0  0  0  0  0  0  0  0  0
    5.0388    1.7885   16.9742 H   0  0  0  0  0  0  0  0  0  0  0  0
    4.8469    1.3070   19.0783 C   0  0  0  0  0  0  0  0  0  0  0  0
    3.9167    1.8534   19.1937 H   0  0  0  0  0  0  0  0  0  0  0  0
    5.4472    0.6445   20.1494 C   0  0  0  0  0  0  0  0  0  0  0  0
    4.9797    0.6398   21.1367 H   0  0  0  0  0  0  0  0  0  0  0  0
    8.5926   -1.5747   24.2906 N   0  0  0  0  0  0  0  0  0  0  0  0
    7.5976   -0.8381   24.9953 C   0  0  0  0  0  0  0  0  0  0  0  0
    7.8726   -0.2890   26.2629 C   0  0  0  0  0  0  0  0  0  0  0  0
    8.8387   -0.4445   26.7370 H   0  0  0  0  0  0  0  0  0  0  0  0
    6.9779    0.4228   26.9482 N   0  0  0  0  0  0  0  0  0  0  0  0
    5.7563    0.5864   26.4237 C   0  0  0  0  0  0  0  0  0  0  0  0
    5.0647    1.1781   27.0190 H   0  0  0  0  0  0  0  0  0  0  0  0
    5.3697    0.0333   25.2020 C   0  0  0  0  0  0  0  0  0  0  0  0
    4.3512    0.1678   24.8591 H   0  0  0  0  0  0  0  0  0  0  0  0
    6.3107   -0.7014   24.4713 C   0  0  0  0  0  0  0  0  0  0  0  0
    6.0852   -1.2001   23.5322 H   0  0  0  0  0  0  0  0  0  0  0  0
    9.4988   -2.3106   24.9802 N   0  0  0  0  0  0  0  0  0  0  0  0
  1  2  1  0
  2  3  1  0
  3  4  2  0
  4  5  1  0
  5  6  3  0
  6  7  1  0
  7  8  2  0
  8  9  1  0
  8 10  1  0
 10 11  2  0
 11 12  1  0
 11 13  1  0
 13 14  1  0
 13 15  2  0
 15 16  1  0
  4 17  1  0
 17 18  1  0
 18 19  2  0
 19 20  1  0
 19 21  1  0
 21 22  2  0
 22 23  1  0
 22 24  1  0
 24 25  1  0
 24 26  2  0
 26 27  1  0
 17 28  1  0
 28  2  2  0
 15  7  1  0
 26 18  1  0
M  END
>  <plip>  (1) 
-0.07142857142857142

>  <filename>  (1) 
[H][c]1[n][c]([C]#[C][c]2[c]([H])[n][c]([H])[c]([H])[c]2[H])[n](-[c]2[c]([H])[n][c]([H])[c]([H])[c]2[H])[n]1

$$$$
