
     RDKit          3D

 24 25  0  0  0  0  0  0  0  0999 V2000
    4.9167    1.7872   16.9912 H   0  0  0  0  0  0  0  0  0  0  0  0
    5.3991    1.2973   17.8332 C   0  0  0  0  0  0  0  0  0  0  0  0
    6.5637    0.6826   17.5637 N   0  0  0  0  0  0  0  0  0  0  0  0
    7.1614    0.0524   18.5817 C   0  0  0  0  0  0  0  0  0  0  0  0
    8.1146   -0.4272   18.3613 H   0  0  0  0  0  0  0  0  0  0  0  0
    6.6381   -0.0289   19.8857 C   0  0  0  0  0  0  0  0  0  0  0  0
    7.5627   -0.8647   21.1461 S   0  0  0  0  0  0  0  0  0  0  0  0
    8.5526    0.5733   21.6757 C   0  0  1  0  0  0  0  0  0  0  0  0
    8.9820    1.0370   20.7841 H   0  0  0  0  0  0  0  0  0  0  0  0
    7.7674    1.6365   22.4520 C   0  0  0  0  0  0  0  0  0  0  0  0
    7.2814    2.3561   21.7806 H   0  0  0  0  0  0  0  0  0  0  0  0
    6.9671    1.1597   23.0333 H   0  0  0  0  0  0  0  0  0  0  0  0
    8.7429    2.2782   23.3361 N   0  0  0  0  0  0  0  0  0  0  0  0
    8.9999    3.1853   22.9729 H   0  0  0  0  0  0  0  0  0  0  0  0
    9.9366    1.4236   23.4645 C   0  0  0  0  0  0  0  0  0  0  0  0
   10.8227    1.9568   23.0947 H   0  0  0  0  0  0  0  0  0  0  0  0
   10.1236    1.1685   24.5151 H   0  0  0  0  0  0  0  0  0  0  0  0
    9.6648    0.1611   22.6327 C   0  0  0  0  0  0  0  0  0  0  0  0
   10.5484   -0.1962   22.0977 H   0  0  0  0  0  0  0  0  0  0  0  0
    9.3150   -0.6628   23.2607 H   0  0  0  0  0  0  0  0  0  0  0  0
    5.4330    0.6393   20.1606 C   0  0  0  0  0  0  0  0  0  0  0  0
    5.0170    0.6341   21.1729 H   0  0  0  0  0  0  0  0  0  0  0  0
    4.8048    1.3103   19.1026 C   0  0  0  0  0  0  0  0  0  0  0  0
    3.8731    1.8443   19.2576 H   0  0  0  0  0  0  0  0  0  0  0  0
  1  2  1  0
  2  3  2  0
  3  4  1  0
  4  5  1  0
  4  6  2  0
  6  7  1  0
  7  8  1  0
  8  9  1  6
  8 10  1  0
 10 11  1  0
 10 12  1  0
 10 13  1  0
 13 14  1  0
 13 15  1  0
 15 16  1  0
 15 17  1  0
 15 18  1  0
 18 19  1  0
 18 20  1  0
  6 21  1  0
 21 22  1  0
 21 23  2  0
 23 24  1  0
 23  2  1  0
 18  8  1  0
M  END
>  <plip>  (1) 
-0.07142857142857142

>  <filename>  (1) 
[H][c]1[n][c]([H])[c]([S][C@@]2([H])[C]([H])([H])[N]([H])[C]([H])([H])[C]2([H])[H])[c]([H])[c]1[H]

$$$$
