
     RDKit          3D

 47 49  0  0  0  0  0  0  0  0999 V2000
    5.3225   -6.4095   25.3542 C   0  0  0  0  0  0  0  0  0  0  0  0
    5.1105   -5.3935   24.4134 C   0  0  0  0  0  0  0  0  0  0  0  0
    6.1254   -4.4672   24.1503 C   0  0  0  0  0  0  0  0  0  0  0  0
    7.3690   -4.5723   24.7922 C   0  0  0  0  0  0  0  0  0  0  0  0
    8.4672   -3.5636   24.5329 C   0  0  0  0  0  0  0  0  0  0  0  0
    8.3234   -2.4668   25.4328 O   0  0  0  0  0  0  0  0  0  0  0  0
    9.1039   -1.3198   25.1106 C   0  0  2  0  0  0  0  0  0  0  0  0
    9.3006   -0.4508   26.3668 C   0  0  0  0  0  0  0  0  0  0  0  0
    8.2450    0.6749   26.2735 C   0  0  0  0  0  0  0  0  0  0  0  0
    8.1139    0.9329   24.7538 C   0  0  0  0  0  0  0  0  0  0  0  0
    8.3519   -0.4391   24.0851 C   0  0  1  0  0  0  0  0  0  0  0  0
    9.1313   -0.3047   22.7633 N   0  0  0  0  0  4  0  0  0  0  0  0
    8.3645    0.3185   21.6573 C   0  0  0  0  0  0  0  0  0  0  0  0
    7.4177   -0.6897   20.9827 C   0  0  0  0  0  0  0  0  0  0  0  0
    6.6335   -0.0313   19.8700 C   0  0  0  0  0  0  0  0  0  0  0  0
    5.4247    0.6399   20.1157 C   0  0  0  0  0  0  0  0  0  0  0  0
    4.7842    1.3180   19.0727 C   0  0  0  0  0  0  0  0  0  0  0  0
    5.3826    1.3131   17.8112 C   0  0  0  0  0  0  0  0  0  0  0  0
    6.5407    0.6889   17.5527 N   0  0  0  0  0  0  0  0  0  0  0  0
    7.1430    0.0472   18.5619 C   0  0  0  0  0  0  0  0  0  0  0  0
    8.0988   -0.4196   18.3147 H   0  0  0  0  0  0  0  0  0  0  0  0
    4.9209    1.8337   16.9699 H   0  0  0  0  0  0  0  0  0  0  0  0
    3.8573    1.8634   19.2225 H   0  0  0  0  0  0  0  0  0  0  0  0
    4.9970    0.6465   21.1175 H   0  0  0  0  0  0  0  0  0  0  0  0
    6.7374   -1.0951   21.7441 H   0  0  0  0  0  0  0  0  0  0  0  0
    8.0021   -1.5393   20.5983 H   0  0  0  0  0  0  0  0  0  0  0  0
    7.7657    1.1514   22.0450 H   0  0  0  0  0  0  0  0  0  0  0  0
    9.0378    0.7281   20.8997 H   0  0  0  0  0  0  0  0  0  0  0  0
    9.9925    0.2460   23.0034 H   0  0  0  0  0  0  0  0  0  0  0  0
    9.4582   -1.2530   22.4501 H   0  0  0  0  0  0  0  0  0  0  0  0
    7.3907   -0.9344   23.8959 H   0  0  0  0  0  0  0  0  0  0  0  0
    8.8803    1.6438   24.4074 H   0  0  0  0  0  0  0  0  0  0  0  0
    7.1413    1.3550   24.4711 H   0  0  0  0  0  0  0  0  0  0  0  0
    8.5262    1.5737   26.8371 H   0  0  0  0  0  0  0  0  0  0  0  0
    7.2871    0.3397   26.6924 H   0  0  0  0  0  0  0  0  0  0  0  0
   10.3085   -0.0153   26.3390 H   0  0  0  0  0  0  0  0  0  0  0  0
    9.2325   -1.0600   27.2741 H   0  0  0  0  0  0  0  0  0  0  0  0
   10.0753   -1.6199   24.6788 H   0  0  0  0  0  0  0  0  0  0  0  0
    9.4595   -4.0228   24.6781 H   0  0  0  0  0  0  0  0  0  0  0  0
    8.4138   -3.2191   23.4843 H   0  0  0  0  0  0  0  0  0  0  0  0
    7.5656   -5.5940   25.7339 C   0  0  0  0  0  0  0  0  0  0  0  0
    6.5324   -6.4814   26.0518 C   0  0  0  0  0  0  0  0  0  0  0  0
    6.6522   -7.2051   26.8527 H   0  0  0  0  0  0  0  0  0  0  0  0
    8.5350   -5.6933   26.2164 H   0  0  0  0  0  0  0  0  0  0  0  0
    5.9415   -3.6381   23.4637 H   0  0  0  0  0  0  0  0  0  0  0  0
    4.1524   -5.3110   23.9034 H   0  0  0  0  0  0  0  0  0  0  0  0
    4.5553   -7.1521   25.5510 H   0  0  0  0  0  0  0  0  0  0  0  0
  1  2  2  0
  2  3  1  0
  3  4  2  0
  4  5  1  0
  5  6  1  0
  6  7  1  0
  7  8  1  0
  8  9  1  0
  9 10  1  0
 10 11  1  0
 11 12  1  0
 12 13  1  0
 13 14  1  0
 14 15  1  0
 15 16  2  0
 16 17  1  0
 17 18  2  0
 18 19  1  0
 19 20  2  0
 20 21  1  0
 18 22  1  0
 17 23  1  0
 16 24  1  0
 14 25  1  0
 14 26  1  0
 13 27  1  0
 13 28  1  0
 12 29  1  0
 12 30  1  0
 11 31  1  6
 10 32  1  0
 10 33  1  0
  9 34  1  0
  9 35  1  0
  8 36  1  0
  8 37  1  0
  7 38  1  6
  5 39  1  0
  5 40  1  0
  4 41  1  0
 41 42  2  0
 42 43  1  0
 41 44  1  0
  3 45  1  0
  2 46  1  0
  1 47  1  0
 42  1  1  0
 11  7  1  0
 20 15  1  0
M  CHG  1  12   1
M  END
>  <plip>  (1) 
-0.034482758620689655

>  <filename>  (1) 
[H][c]1[n][c]([H])[c]([C]([H])([H])[C]([H])([H])[N+]([H])([H])[C@]2([H])[C]([H])([H])[C]([H])([H])[C]([H])([H])[C@@]2([H])[O][C]([H])([H])[c]2[c]([H])[c]([H])[c]([H])[c]([H])[c]2[H])[c]([H])[c]1[H]

$$$$
