
     RDKit          3D

 34 36  0  0  0  0  0  0  0  0999 V2000
    4.9759    1.7847   16.9921 H   0  0  0  0  0  0  0  0  0  0  0  0
    5.4384    1.2657   17.8287 C   0  0  0  0  0  0  0  0  0  0  0  0
    6.5973    0.6289   17.5919 N   0  0  0  0  0  0  0  0  0  0  0  0
    7.1873   -0.0111   18.6139 C   0  0  0  0  0  0  0  0  0  0  0  0
    8.1405   -0.4893   18.3781 H   0  0  0  0  0  0  0  0  0  0  0  0
    6.6575   -0.0502   19.9312 C   0  0  0  0  0  0  0  0  0  0  0  0
    7.2430   -0.7253   21.0441 N   0  0  0  0  0  0  0  0  0  0  0  0
    7.9874   -1.3839   20.9304 H   0  0  0  0  0  0  0  0  0  0  0  0
    7.4467   -0.1645   22.2832 C   0  0  0  0  0  0  0  0  0  0  0  0
    6.9945    0.9610   22.6275 N   0  0  0  0  0  0  0  0  0  0  0  0
    7.1042    1.4800   23.9109 C   0  0  0  0  0  0  0  0  0  0  0  0
    6.4919    0.8301   24.9677 C   0  0  0  0  0  0  0  0  0  0  0  0
    6.0336   -0.1339   24.7602 H   0  0  0  0  0  0  0  0  0  0  0  0
    6.4107    1.4252   26.2523 C   0  0  0  0  0  0  0  0  0  0  0  0
    5.8956    0.8912   27.0450 H   0  0  0  0  0  0  0  0  0  0  0  0
    6.9616    2.6641   26.4776 C   0  0  0  0  0  0  0  0  0  0  0  0
    6.8839    3.1322   27.4549 H   0  0  0  0  0  0  0  0  0  0  0  0
    7.6098    3.3801   25.4238 C   0  0  0  0  0  0  0  0  0  0  0  0
    8.1518    4.6843   25.6311 C   0  0  0  0  0  0  0  0  0  0  0  0
    8.0657    5.1207   26.6218 H   0  0  0  0  0  0  0  0  0  0  0  0
    8.7453    5.3747   24.6024 C   0  0  0  0  0  0  0  0  0  0  0  0
    9.1454    6.3713   24.7713 H   0  0  0  0  0  0  0  0  0  0  0  0
    8.8289    4.8001   23.3064 C   0  0  0  0  0  0  0  0  0  0  0  0
    9.2884    5.3613   22.4966 H   0  0  0  0  0  0  0  0  0  0  0  0
    8.3145    3.5440   23.0630 C   0  0  0  0  0  0  0  0  0  0  0  0
    8.3573    3.1031   22.0664 H   0  0  0  0  0  0  0  0  0  0  0  0
    7.6879    2.7940   24.1124 C   0  0  0  0  0  0  0  0  0  0  0  0
    8.2478   -1.0482   22.9850 N   0  0  0  0  0  0  0  0  0  0  0  0
    7.9004   -1.9676   22.7656 H   0  0  0  0  0  0  0  0  0  0  0  0
    8.2070   -0.8513   23.9759 H   0  0  0  0  0  0  0  0  0  0  0  0
    5.4525    0.6284   20.1513 C   0  0  0  0  0  0  0  0  0  0  0  0
    5.0728    0.6591   21.1675 H   0  0  0  0  0  0  0  0  0  0  0  0
    4.8316    1.2752   19.0848 C   0  0  0  0  0  0  0  0  0  0  0  0
    3.9074    1.8103   19.2458 H   0  0  0  0  0  0  0  0  0  0  0  0
  1  2  1  0
  2  3  2  0
  3  4  1  0
  4  5  1  0
  4  6  2  0
  6  7  1  0
  7  8  1  0
  7  9  1  0
  9 10  2  3
 10 11  1  0
 11 12  2  0
 12 13  1  0
 12 14  1  0
 14 15  1  0
 14 16  2  0
 16 17  1  0
 16 18  1  0
 18 19  2  0
 19 20  1  0
 19 21  1  0
 21 22  1  0
 21 23  2  0
 23 24  1  0
 23 25  1  0
 25 26  1  0
 25 27  2  0
  9 28  1  0
 28 29  1  0
 28 30  1  0
  6 31  1  0
 31 32  1  0
 31 33  2  0
 33 34  1  0
 33  2  1  0
 27 11  1  0
 27 18  1  0
M  END
>  <plip>  (1) 
-0.0

>  <filename>  (1) 
[H][c]1[n][c]([H])[c]([N]([H])[C](=[N][c]2[c]([H])[c]([H])[c]([H])[c]3[c]([H])[c]([H])[c]([H])[c]([H])[c]23)[N]([H])[H])[c]([H])[c]1[H]

$$$$
