
     RDKit          3D

 23 24  0  0  0  0  0  0  0  0999 V2000
    4.9639    1.7777   17.0168 H   0  0  0  0  0  0  0  0  0  0  0  0
    5.4236    1.2659   17.8586 C   0  0  0  0  0  0  0  0  0  0  0  0
    6.5872    0.6408   17.6104 N   0  0  0  0  0  0  0  0  0  0  0  0
    7.1965    0.0149   18.6285 C   0  0  0  0  0  0  0  0  0  0  0  0
    8.1480   -0.4605   18.3863 H   0  0  0  0  0  0  0  0  0  0  0  0
    6.6792   -0.0251   19.9494 C   0  0  0  0  0  0  0  0  0  0  0  0
    7.3286   -0.6637   21.0503 N   0  0  0  0  0  0  0  0  0  0  0  0
    7.9010   -1.4870   20.9602 H   0  0  0  0  0  0  0  0  0  0  0  0
    7.4203   -0.1492   22.3076 C   0  0  0  0  0  0  0  0  0  0  0  0
    7.0033    0.8898   22.7423 O   0  0  0  0  0  0  0  0  0  0  0  0
    8.1761   -1.0936   23.0444 O   0  0  0  0  0  0  0  0  0  0  0  0
    8.3977   -0.7814   24.3821 N   0  0  0  0  0  0  0  0  0  0  0  0
    8.5688   -1.6664   25.4118 C   0  0  0  0  0  0  0  0  0  0  0  0
    8.3844   -2.7254   25.3177 H   0  0  0  0  0  0  0  0  0  0  0  0
    8.9690   -1.0456   26.4935 N   0  0  0  0  0  0  0  0  0  0  0  0
    9.0713    0.2777   26.1410 C   0  0  0  0  0  0  0  0  0  0  0  0
    9.3964    1.0244   26.8503 H   0  0  0  0  0  0  0  0  0  0  0  0
    8.7252    0.4701   24.8381 C   0  0  0  0  0  0  0  0  0  0  0  0
    8.6195    1.3421   24.2173 H   0  0  0  0  0  0  0  0  0  0  0  0
    5.4627    0.6365   20.1779 C   0  0  0  0  0  0  0  0  0  0  0  0
    5.0503    0.6485   21.1830 H   0  0  0  0  0  0  0  0  0  0  0  0
    4.8210    1.2861   19.1190 C   0  0  0  0  0  0  0  0  0  0  0  0
    3.8848    1.8219   19.2652 H   0  0  0  0  0  0  0  0  0  0  0  0
  1  2  1  0
  2  3  2  0
  3  4  1  0
  4  5  1  0
  4  6  2  0
  6  7  1  0
  7  8  1  0
  7  9  1  0
  9 10  2  0
  9 11  1  0
 11 12  1  0
 12 13  1  0
 13 14  1  0
 13 15  2  0
 15 16  1  0
 16 17  1  0
 16 18  2  0
 18 19  1  0
  6 20  1  0
 20 21  1  0
 20 22  2  0
 22 23  1  0
 22  2  1  0
 18 12  1  0
M  END
>  <plip>  (1) 
-0.0

>  <filename>  (1) 
[H][c]1[n][c]([H])[c]([N]([H])[C](=[O])[O][n]2[c]([H])[n][c]([H])[c]2[H])[c]([H])[c]1[H]

$$$$
