
     RDKit          3D

 40 42  0  0  0  0  0  0  0  0999 V2000
    6.2089    1.8492   23.8769 H   0  0  0  0  0  0  0  0  0  0  0  0
    6.0326    0.8060   24.1324 C   0  0  0  0  0  0  0  0  0  0  0  0
    6.5620   -0.1400   23.3455 C   0  0  0  0  0  0  0  0  0  0  0  0
    6.3055   -1.1940   23.5077 H   0  0  0  0  0  0  0  0  0  0  0  0
    7.4204    0.0826   22.2828 N   0  0  0  0  0  0  0  0  0  0  0  0
    8.3983    1.1692   22.2650 C   0  0  0  0  0  0  0  0  0  0  0  0
    8.1596    1.9144   21.4875 H   0  0  0  0  0  0  0  0  0  0  0  0
    8.3793    1.6966   23.2221 H   0  0  0  0  0  0  0  0  0  0  0  0
    9.7969    0.6021   22.0189 C   0  0  0  0  0  0  0  0  0  0  0  0
   10.0634   -0.0231   22.8776 H   0  0  0  0  0  0  0  0  0  0  0  0
   10.5312    1.4090   21.9635 H   0  0  0  0  0  0  0  0  0  0  0  0
    9.8286   -0.2410   20.7495 C   0  0  0  0  0  0  0  0  0  0  0  0
    9.6546    0.4053   19.8793 H   0  0  0  0  0  0  0  0  0  0  0  0
   10.8078   -0.7184   20.6262 H   0  0  0  0  0  0  0  0  0  0  0  0
    8.7353   -1.3061   20.7964 C   0  0  0  0  0  0  0  0  0  0  0  0
    8.9471   -2.0156   21.6047 H   0  0  0  0  0  0  0  0  0  0  0  0
    8.7333   -1.8779   19.8785 H   0  0  0  0  0  0  0  0  0  0  0  0
    7.3347   -0.7337   21.0695 C   0  0  2  0  0  0  0  0  0  0  0  0
    6.6653   -1.5834   21.2895 H   0  0  0  0  0  0  0  0  0  0  0  0
    6.6669    0.0097   19.9139 C   0  0  0  0  0  0  0  0  0  0  0  0
    7.1724    0.0611   18.6118 C   0  0  0  0  0  0  0  0  0  0  0  0
    8.1150   -0.4194   18.3660 H   0  0  0  0  0  0  0  0  0  0  0  0
    6.5651    0.6738   17.5855 N   0  0  0  0  0  0  0  0  0  0  0  0
    5.4048    1.2929   17.8365 C   0  0  0  0  0  0  0  0  0  0  0  0
    4.9206    1.7801   16.9927 H   0  0  0  0  0  0  0  0  0  0  0  0
    4.8045    1.3112   19.0993 C   0  0  0  0  0  0  0  0  0  0  0  0
    3.8728    1.8434   19.2560 H   0  0  0  0  0  0  0  0  0  0  0  0
    5.4387    0.6505   20.1489 C   0  0  0  0  0  0  0  0  0  0  0  0
    5.0057    0.6333   21.1544 H   0  0  0  0  0  0  0  0  0  0  0  0
    5.1585    0.5559   25.2945 C   0  0  0  0  0  0  0  0  0  0  0  0
    4.3008    1.5813   25.7340 C   0  0  0  0  0  0  0  0  0  0  0  0
    4.3049    2.5337   25.2074 H   0  0  0  0  0  0  0  0  0  0  0  0
    3.4448    1.3900   26.8207 C   0  0  0  0  0  0  0  0  0  0  0  0
    2.7895    2.1947   27.1479 H   0  0  0  0  0  0  0  0  0  0  0  0
    3.4405    0.1629   27.4973 C   0  0  0  0  0  0  0  0  0  0  0  0
    2.7807    0.0105   28.3479 H   0  0  0  0  0  0  0  0  0  0  0  0
    4.2941   -0.8646   27.0789 C   0  0  0  0  0  0  0  0  0  0  0  0
    4.2997   -1.8172   27.6056 H   0  0  0  0  0  0  0  0  0  0  0  0
    5.1442   -0.6723   25.9866 C   0  0  0  0  0  0  0  0  0  0  0  0
    5.8201   -1.4681   25.6823 H   0  0  0  0  0  0  0  0  0  0  0  0
  1  2  1  0
  2  3  2  3
  3  4  1  0
  3  5  1  0
  5  6  1  0
  6  7  1  0
  6  8  1  0
  6  9  1  0
  9 10  1  0
  9 11  1  0
  9 12  1  0
 12 13  1  0
 12 14  1  0
 12 15  1  0
 15 16  1  0
 15 17  1  0
 15 18  1  0
 18 19  1  1
 18 20  1  0
 20 21  2  0
 21 22  1  0
 21 23  1  0
 23 24  2  0
 24 25  1  0
 24 26  1  0
 26 27  1  0
 26 28  2  0
 28 29  1  0
  2 30  1  0
 30 31  2  0
 31 32  1  0
 31 33  1  0
 33 34  1  0
 33 35  2  0
 35 36  1  0
 35 37  1  0
 37 38  1  0
 37 39  2  0
 39 40  1  0
 18  5  1  0
 28 20  1  0
 39 30  1  0
M  END
>  <plip>  (1) 
-0.03571428571428571

>  <filename>  (1) 
[H][C](=[C]([H])[N]1[C]([H])([H])[C]([H])([H])[C]([H])([H])[C]([H])([H])[C@]1([H])[c]1[c]([H])[n][c]([H])[c]([H])[c]1[H])[c]1[c]([H])[c]([H])[c]([H])[c]([H])[c]1[H]

$$$$
