
     RDKit          3D

 44 45  0  0  0  0  0  0  0  0999 V2000
    4.5380   -7.1655   30.4044 C   0  0  0  0  0  0  0  0  0  0  0  0
    3.7492   -6.0089   29.7662 C   0  0  0  0  0  0  0  0  0  0  0  0
    4.4379   -5.4222   28.5450 C   0  0  0  0  0  0  0  0  0  0  0  0
    5.3732   -4.3774   28.6612 C   0  0  0  0  0  0  0  0  0  0  0  0
    6.0430   -3.8682   27.5462 C   0  0  0  0  0  0  0  0  0  0  0  0
    5.8083   -4.3973   26.2630 C   0  0  0  0  0  0  0  0  0  0  0  0
    6.5531   -3.9545   25.0139 C   0  0  0  0  0  0  0  0  0  0  0  0
    6.6499   -4.6594   24.0238 O   0  0  0  0  0  0  0  0  0  0  0  0
    7.1301   -2.7071   25.0950 N   0  0  0  0  0  0  0  0  0  0  0  0
    7.8501   -2.1069   24.0415 N   0  0  0  0  0  0  0  0  0  0  0  0
    8.2885   -0.8106   24.0461 C   0  0  0  0  0  0  0  0  0  0  0  0
    7.9933   -0.0053   24.9074 O   0  0  0  0  0  0  0  0  0  0  0  0
    9.1547   -0.4374   22.8572 C   0  0  0  0  0  0  0  0  0  0  0  0
    8.3529    0.2510   21.7345 C   0  0  0  0  0  0  0  0  0  0  0  0
    7.3931   -0.7028   20.9994 C   0  0  0  0  0  0  0  0  0  0  0  0
    6.6332   -0.0227   19.8750 C   0  0  0  0  0  0  0  0  0  0  0  0
    5.4208    0.6433   20.1136 C   0  0  0  0  0  0  0  0  0  0  0  0
    4.7836    1.3181   19.0669 C   0  0  0  0  0  0  0  0  0  0  0  0
    5.3892    1.3103   17.8063 C   0  0  0  0  0  0  0  0  0  0  0  0
    6.5473    0.6877   17.5497 N   0  0  0  0  0  0  0  0  0  0  0  0
    7.1459    0.0513   18.5671 C   0  0  0  0  0  0  0  0  0  0  0  0
    8.0949   -0.4233   18.3168 H   0  0  0  0  0  0  0  0  0  0  0  0
    4.9280    1.8308   16.9683 H   0  0  0  0  0  0  0  0  0  0  0  0
    3.8538    1.8600   19.2171 H   0  0  0  0  0  0  0  0  0  0  0  0
    4.9829    0.6483   21.1146 H   0  0  0  0  0  0  0  0  0  0  0  0
    6.6763   -1.1292   21.7159 H   0  0  0  0  0  0  0  0  0  0  0  0
    7.9667   -1.5514   20.5982 H   0  0  0  0  0  0  0  0  0  0  0  0
    9.0482    0.6834   21.0021 H   0  0  0  0  0  0  0  0  0  0  0  0
    7.7857    1.0881   22.1657 H   0  0  0  0  0  0  0  0  0  0  0  0
    9.9068    0.2509   23.2544 H   0  0  0  0  0  0  0  0  0  0  0  0
    9.6856   -1.3154   22.4741 H   0  0  0  0  0  0  0  0  0  0  0  0
    8.1445   -2.7088   23.2859 H   0  0  0  0  0  0  0  0  0  0  0  0
    6.7163   -2.0640   25.7563 H   0  0  0  0  0  0  0  0  0  0  0  0
    4.8890   -5.4591   26.1423 C   0  0  0  0  0  0  0  0  0  0  0  0
    4.2181   -5.9502   27.2612 C   0  0  0  0  0  0  0  0  0  0  0  0
    3.5262   -6.7809   27.1476 H   0  0  0  0  0  0  0  0  0  0  0  0
    4.7278   -5.9067   25.1635 H   0  0  0  0  0  0  0  0  0  0  0  0
    6.7859   -3.0836   27.6841 H   0  0  0  0  0  0  0  0  0  0  0  0
    5.5857   -3.9722   29.6478 H   0  0  0  0  0  0  0  0  0  0  0  0
    3.5794   -5.2218   30.5130 H   0  0  0  0  0  0  0  0  0  0  0  0
    2.7482   -6.3632   29.4877 H   0  0  0  0  0  0  0  0  0  0  0  0
    5.5307   -6.8308   30.7247 H   0  0  0  0  0  0  0  0  0  0  0  0
    4.0303   -7.5810   31.2828 H   0  0  0  0  0  0  0  0  0  0  0  0
    4.6777   -7.9803   29.6857 H   0  0  0  0  0  0  0  0  0  0  0  0
  1  2  1  0
  2  3  1  0
  3  4  2  0
  4  5  1  0
  5  6  2  0
  6  7  1  0
  7  8  2  0
  7  9  1  0
  9 10  1  0
 10 11  1  0
 11 12  2  0
 11 13  1  0
 13 14  1  0
 14 15  1  0
 15 16  1  0
 16 17  2  0
 17 18  1  0
 18 19  2  0
 19 20  1  0
 20 21  2  0
 21 22  1  0
 19 23  1  0
 18 24  1  0
 17 25  1  0
 15 26  1  0
 15 27  1  0
 14 28  1  0
 14 29  1  0
 13 30  1  0
 13 31  1  0
 10 32  1  0
  9 33  1  0
  6 34  1  0
 34 35  2  0
 35 36  1  0
 34 37  1  0
  5 38  1  0
  4 39  1  0
  2 40  1  0
  2 41  1  0
  1 42  1  0
  1 43  1  0
  1 44  1  0
 35  3  1  0
 21 16  1  0
M  END
>  <plip>  (1) 
-0.0

>  <filename>  (1) 
[H][c]1[n][c]([H])[c]([C]([H])([H])[C]([H])([H])[C]([H])([H])[C](=[O])[N]([H])[N]([H])[C](=[O])[c]2[c]([H])[c]([H])[c]([C]([H])([H])[C]([H])([H])[H])[c]([H])[c]2[H])[c]([H])[c]1[H]

$$$$
