
     RDKit          3D

 32 34  0  0  0  0  0  0  0  0999 V2000
    4.9828    1.7910   16.9214 H   0  0  0  0  0  0  0  0  0  0  0  0
    5.4504    1.3442   17.7951 C   0  0  0  0  0  0  0  0  0  0  0  0
    6.6445    0.7701   17.5964 N   0  0  0  0  0  0  0  0  0  0  0  0
    7.2199    0.1816   18.6545 C   0  0  0  0  0  0  0  0  0  0  0  0
    8.1986   -0.2579   18.4746 H   0  0  0  0  0  0  0  0  0  0  0  0
    6.6410    0.1064   19.9271 C   0  0  0  0  0  0  0  0  0  0  0  0
    7.2701   -0.7005   21.0373 C   0  0  1  0  0  0  0  0  0  0  0  0
    7.1335   -0.1331   21.9685 H   0  0  0  0  0  0  0  0  0  0  0  0
    6.5584   -2.0606   21.2325 C   0  0  0  0  0  0  0  0  0  0  0  0
    6.2936   -2.8920   20.0985 C   0  0  0  0  0  0  0  0  0  0  0  0
    6.3975   -2.4644   19.1029 H   0  0  0  0  0  0  0  0  0  0  0  0
    5.8707   -4.1906   20.2404 C   0  0  0  0  0  0  0  0  0  0  0  0
    5.7757   -4.8481   19.3794 H   0  0  0  0  0  0  0  0  0  0  0  0
    5.5305   -4.7042   21.5252 C   0  0  0  0  0  0  0  0  0  0  0  0
    5.0726   -6.0454   21.7106 C   0  0  0  0  0  0  0  0  0  0  0  0
    5.1148   -6.7348   20.8694 H   0  0  0  0  0  0  0  0  0  0  0  0
    4.5754   -6.4491   22.9292 C   0  0  0  0  0  0  0  0  0  0  0  0
    4.1776   -7.4527   23.0516 H   0  0  0  0  0  0  0  0  0  0  0  0
    4.5559   -5.5430   24.0291 C   0  0  0  0  0  0  0  0  0  0  0  0
    4.1378   -5.8784   24.9750 H   0  0  0  0  0  0  0  0  0  0  0  0
    5.0868   -4.2779   23.9076 C   0  0  0  0  0  0  0  0  0  0  0  0
    5.1073   -3.6095   24.7658 H   0  0  0  0  0  0  0  0  0  0  0  0
    5.6133   -3.8248   22.6569 C   0  0  0  0  0  0  0  0  0  0  0  0
    6.1937   -2.5245   22.4830 C   0  0  0  0  0  0  0  0  0  0  0  0
    6.3296   -1.9033   23.3683 H   0  0  0  0  0  0  0  0  0  0  0  0
    8.7123   -0.8118   20.7807 N   0  0  0  0  0  0  0  0  0  0  0  0
    8.8520   -1.5682   20.1144 H   0  0  0  0  0  0  0  0  0  0  0  0
    9.1870   -1.1068   21.6275 H   0  0  0  0  0  0  0  0  0  0  0  0
    5.4045    0.7401   20.1220 C   0  0  0  0  0  0  0  0  0  0  0  0
    4.9384    0.7373   21.1107 H   0  0  0  0  0  0  0  0  0  0  0  0
    4.7975    1.3638   19.0331 C   0  0  0  0  0  0  0  0  0  0  0  0
    3.8335    1.8496   19.1255 H   0  0  0  0  0  0  0  0  0  0  0  0
  1  2  1  0
  2  3  2  0
  3  4  1  0
  4  5  1  0
  4  6  2  0
  6  7  1  0
  7  8  1  1
  7  9  1  0
  9 10  2  0
 10 11  1  0
 10 12  1  0
 12 13  1  0
 12 14  2  0
 14 15  1  0
 15 16  1  0
 15 17  2  0
 17 18  1  0
 17 19  1  0
 19 20  1  0
 19 21  2  0
 21 22  1  0
 21 23  1  0
 23 24  2  0
 24 25  1  0
  7 26  1  0
 26 27  1  0
 26 28  1  0
  6 29  1  0
 29 30  1  0
 29 31  2  0
 31 32  1  0
 31  2  1  0
 24  9  1  0
 23 14  1  0
M  END
>  <plip>  (1) 
-0.03333333333333333

>  <filename>  (1) 
[H][c]1[n][c]([H])[c]([C@@]([H])([c]2[c]([H])[c]([H])[c]3[c]([H])[c]([H])[c]([H])[c]([H])[c]3[c]2[H])[N]([H])[H])[c]([H])[c]1[H]

$$$$
