
     RDKit          3D

 36 39  0  0  0  0  0  0  0  0999 V2000
    4.9684    1.8048   17.0175 H   0  0  0  0  0  0  0  0  0  0  0  0
    5.4295    1.2904   17.8579 C   0  0  0  0  0  0  0  0  0  0  0  0
    6.5964    0.6682   17.6118 N   0  0  0  0  0  0  0  0  0  0  0  0
    7.1848    0.0406   18.6366 C   0  0  0  0  0  0  0  0  0  0  0  0
    8.1290   -0.4678   18.4532 H   0  0  0  0  0  0  0  0  0  0  0  0
    6.6545   -0.0019   19.9368 C   0  0  0  0  0  0  0  0  0  0  0  0
    7.3842   -0.7129   20.8577 O   0  0  0  0  0  0  0  0  0  0  0  0
    7.2972   -0.3991   22.1849 C   0  0  0  0  0  0  0  0  0  0  0  0
    7.1982   -1.3532   23.2109 C   0  0  0  0  0  0  0  0  0  0  0  0
    7.1528   -2.4318   23.1083 H   0  0  0  0  0  0  0  0  0  0  0  0
    7.1609   -0.7541   24.4021 N   0  0  0  0  0  0  0  0  0  0  0  0
    7.2420    0.5538   24.1321 N   0  0  0  0  0  0  0  0  0  0  0  0
    7.2417    1.2166   24.8948 H   0  0  0  0  0  0  0  0  0  0  0  0
    7.3568    0.8368   22.8059 C   0  0  0  0  0  0  0  0  0  0  0  0
    7.4926    2.2359   22.2796 C   0  0  0  0  0  0  0  0  0  0  0  0
    7.7988    2.2081   21.2304 H   0  0  0  0  0  0  0  0  0  0  0  0
    6.5136    2.7290   22.3047 H   0  0  0  0  0  0  0  0  0  0  0  0
    8.4421    3.0403   23.0395 N   0  0  0  0  0  0  0  0  0  0  0  0
    8.1008    3.8667   24.1003 C   0  0  0  0  0  0  0  0  0  0  0  0
    6.9652    4.0736   24.4555 O   0  0  0  0  0  0  0  0  0  0  0  0
    9.3777    4.3897   24.6693 C   0  0  0  0  0  0  0  0  0  0  0  0
    9.6200    5.3251   25.6768 C   0  0  0  0  0  0  0  0  0  0  0  0
    8.7971    5.7292   26.2620 H   0  0  0  0  0  0  0  0  0  0  0  0
   10.9480    5.7120   25.8997 C   0  0  0  0  0  0  0  0  0  0  0  0
   11.1593    6.4889   26.6303 H   0  0  0  0  0  0  0  0  0  0  0  0
   12.0028    5.1345   25.1532 C   0  0  0  0  0  0  0  0  0  0  0  0
   13.0305    5.4635   25.2896 H   0  0  0  0  0  0  0  0  0  0  0  0
   11.7524    4.1374   24.2034 C   0  0  0  0  0  0  0  0  0  0  0  0
   12.5682    3.6422   23.6752 H   0  0  0  0  0  0  0  0  0  0  0  0
   10.4196    3.7930   23.9662 C   0  0  0  0  0  0  0  0  0  0  0  0
    9.8190    2.8714   22.9588 C   0  0  0  0  0  0  0  0  0  0  0  0
   10.3818    2.1071   22.2111 O   0  0  0  0  0  0  0  0  0  0  0  0
    5.4335    0.6335   20.1876 C   0  0  0  0  0  0  0  0  0  0  0  0
    4.9985    0.6255   21.1875 H   0  0  0  0  0  0  0  0  0  0  0  0
    4.8171    1.2913   19.1148 C   0  0  0  0  0  0  0  0  0  0  0  0
    3.8757    1.8139   19.2431 H   0  0  0  0  0  0  0  0  0  0  0  0
  1  2  1  0
  2  3  2  0
  3  4  1  0
  4  5  1  0
  4  6  2  0
  6  7  1  0
  7  8  1  0
  8  9  1  0
  9 10  1  0
  9 11  2  0
 11 12  1  0
 12 13  1  0
 12 14  1  0
 14 15  1  0
 15 16  1  0
 15 17  1  0
 15 18  1  0
 18 19  1  0
 19 20  2  0
 19 21  1  0
 21 22  2  0
 22 23  1  0
 22 24  1  0
 24 25  1  0
 24 26  2  0
 26 27  1  0
 26 28  1  0
 28 29  1  0
 28 30  2  0
 30 31  1  0
 31 32  2  0
  6 33  1  0
 33 34  1  0
 33 35  2  0
 35 36  1  0
 35  2  1  0
 14  8  2  0
 31 18  1  0
 30 21  1  0
M  END
>  <plip>  (1) 
-0.07142857142857142

>  <filename>  (1) 
[H][c]1[n][c]([H])[c]([O][c]2[c]([H])[n][n]([H])[c]2[C]([H])([H])[N]2[C](=[O])[c]3[c]([H])[c]([H])[c]([H])[c]([H])[c]3[C]2=[O])[c]([H])[c]1[H]

$$$$
