
     RDKit          3D

 38 39  0  0  0  0  0  0  0  0999 V2000
    8.8717    6.0931   25.1675 N   0  0  0  0  0  0  0  0  0  0  0  0
   10.1397    6.4672   24.8588 C   0  0  0  0  0  0  0  0  0  0  0  0
   10.5086    7.5629   25.2485 O   0  0  0  0  0  0  0  0  0  0  0  0
   11.0594    5.5426   24.1192 C   0  0  0  0  0  0  0  0  0  0  0  0
   12.4456    5.7344   24.2454 C   0  0  0  0  0  0  0  0  0  0  0  0
   13.3447    4.8442   23.6596 C   0  0  0  0  0  0  0  0  0  0  0  0
   12.8595    3.7728   22.9009 C   0  0  0  0  0  0  0  0  0  0  0  0
   11.4839    3.5995   22.7089 C   0  0  0  0  0  0  0  0  0  0  0  0
   10.5859    4.4962   23.3062 C   0  0  0  0  0  0  0  0  0  0  0  0
    9.2347    4.4294   23.1558 O   0  0  0  0  0  0  0  0  0  0  0  0
    8.6076    3.3803   22.4346 C   0  0  0  0  0  0  0  0  0  0  0  0
    8.4853    2.1260   23.3036 C   0  0  0  0  0  0  0  0  0  0  0  0
    7.7451    1.0903   22.6340 O   0  0  0  0  0  0  0  0  0  0  0  0
    8.3921    0.3732   21.6945 C   0  0  0  0  0  0  0  0  0  0  0  0
    9.5554    0.5256   21.3958 O   0  0  0  0  0  0  0  0  0  0  0  0
    7.4499   -0.6265   21.0376 C   0  0  0  0  0  0  0  0  0  0  0  0
    6.6534    0.0012   19.8894 C   0  0  0  0  0  0  0  0  0  0  0  0
    5.4372    0.6567   20.1355 C   0  0  0  0  0  0  0  0  0  0  0  0
    4.7912    1.3149   19.0824 C   0  0  0  0  0  0  0  0  0  0  0  0
    5.3886    1.2964   17.8186 C   0  0  0  0  0  0  0  0  0  0  0  0
    6.5419    0.6656   17.5498 N   0  0  0  0  0  0  0  0  0  0  0  0
    7.1480    0.0454   18.5708 C   0  0  0  0  0  0  0  0  0  0  0  0
    8.0992   -0.4321   18.3362 H   0  0  0  0  0  0  0  0  0  0  0  0
    4.9303    1.8177   16.9811 H   0  0  0  0  0  0  0  0  0  0  0  0
    3.8584    1.8558   19.2247 H   0  0  0  0  0  0  0  0  0  0  0  0
    5.0109    0.6640   21.1409 H   0  0  0  0  0  0  0  0  0  0  0  0
    8.0779   -1.4534   20.6974 H   0  0  0  0  0  0  0  0  0  0  0  0
    6.7824   -1.0023   21.8197 H   0  0  0  0  0  0  0  0  0  0  0  0
    9.4747    1.7580   23.5932 H   0  0  0  0  0  0  0  0  0  0  0  0
    7.9161    2.3390   24.2080 H   0  0  0  0  0  0  0  0  0  0  0  0
    9.1182    3.1600   21.4909 H   0  0  0  0  0  0  0  0  0  0  0  0
    7.6280    3.7807   22.1775 H   0  0  0  0  0  0  0  0  0  0  0  0
   11.0926    2.7836   22.1030 H   0  0  0  0  0  0  0  0  0  0  0  0
   13.5508    3.0633   22.4502 H   0  0  0  0  0  0  0  0  0  0  0  0
   14.4148    4.9721   23.7918 H   0  0  0  0  0  0  0  0  0  0  0  0
   12.8029    6.5945   24.8120 H   0  0  0  0  0  0  0  0  0  0  0  0
    8.5891    5.1308   25.1981 H   0  0  0  0  0  0  0  0  0  0  0  0
    8.4823    6.7678   25.8004 H   0  0  0  0  0  0  0  0  0  0  0  0
  1  2  1  0
  2  3  2  0
  2  4  1  0
  4  5  2  0
  5  6  1  0
  6  7  2  0
  7  8  1  0
  8  9  2  0
  9 10  1  0
 10 11  1  0
 11 12  1  0
 12 13  1  0
 13 14  1  0
 14 15  2  0
 14 16  1  0
 16 17  1  0
 17 18  2  0
 18 19  1  0
 19 20  2  0
 20 21  1  0
 21 22  2  0
 22 23  1  0
 20 24  1  0
 19 25  1  0
 18 26  1  0
 16 27  1  0
 16 28  1  0
 12 29  1  0
 12 30  1  0
 11 31  1  0
 11 32  1  0
  8 33  1  0
  7 34  1  0
  6 35  1  0
  5 36  1  0
  1 37  1  0
  1 38  1  0
  9  4  1  0
 22 17  1  0
M  END
>  <plip>  (1) 
-0.07142857142857142

>  <filename>  (1) 
[H][c]1[n][c]([H])[c]([C]([H])([H])[C](=[O])[O][C]([H])([H])[C]([H])([H])[O][c]2[c]([H])[c]([H])[c]([H])[c]([H])[c]2[C](=[O])[N]([H])[H])[c]([H])[c]1[H]

$$$$
