
     RDKit          3D

 23 24  0  0  0  0  0  0  0  0999 V2000
    9.8799    2.0589   24.0817 H   0  0  0  0  0  0  0  0  0  0  0  0
    9.1726    2.3800   24.6869 O   0  0  0  0  0  0  0  0  0  0  0  0
    7.9446    2.2970   24.1220 N   0  0  0  0  0  0  0  0  0  0  0  0
    7.8000    1.7029   22.9929 C   0  0  0  0  0  0  0  0  0  0  0  0
    6.7764    1.6623   22.6360 H   0  0  0  0  0  0  0  0  0  0  0  0
    8.8470    1.0602   22.1965 C   0  0  0  0  0  0  0  0  0  0  0  0
   10.1334    1.3415   22.1772 N   0  0  0  0  0  0  0  0  0  0  0  0
   10.6971    0.5167   21.2781 N   0  0  0  0  0  0  0  0  0  0  0  0
    9.8126   -0.2720   20.7766 N   0  0  0  0  0  0  0  0  0  0  0  0
    8.6420    0.0255   21.3609 N   0  0  0  0  0  0  0  0  0  0  0  0
    7.4228   -0.6846   20.9973 C   0  0  0  0  0  0  0  0  0  0  0  0
    7.7577   -1.6752   20.6749 H   0  0  0  0  0  0  0  0  0  0  0  0
    6.8179   -0.8284   21.9007 H   0  0  0  0  0  0  0  0  0  0  0  0
    6.6394    0.0154   19.9044 C   0  0  0  0  0  0  0  0  0  0  0  0
    7.1633    0.0685   18.6002 C   0  0  0  0  0  0  0  0  0  0  0  0
    8.1211   -0.4046   18.3801 H   0  0  0  0  0  0  0  0  0  0  0  0
    6.5642    0.6796   17.5717 N   0  0  0  0  0  0  0  0  0  0  0  0
    5.4019    1.2996   17.8228 C   0  0  0  0  0  0  0  0  0  0  0  0
    4.9361    1.8083   16.9815 H   0  0  0  0  0  0  0  0  0  0  0  0
    4.7872    1.3157   19.0788 C   0  0  0  0  0  0  0  0  0  0  0  0
    3.8553    1.8521   19.2207 H   0  0  0  0  0  0  0  0  0  0  0  0
    5.4180    0.6560   20.1381 C   0  0  0  0  0  0  0  0  0  0  0  0
    4.9641    0.6519   21.1320 H   0  0  0  0  0  0  0  0  0  0  0  0
  1  2  1  0
  2  3  1  0
  3  4  2  3
  4  5  1  0
  4  6  1  0
  6  7  2  0
  7  8  1  0
  8  9  2  0
  9 10  1  0
 10 11  1  0
 11 12  1  0
 11 13  1  0
 11 14  1  0
 14 15  2  0
 15 16  1  0
 15 17  1  0
 17 18  2  0
 18 19  1  0
 18 20  1  0
 20 21  1  0
 20 22  2  0
 22 23  1  0
 10  6  1  0
 22 14  1  0
M  END
>  <plip>  (1) 
-0.03571428571428571

>  <filename>  (1) 
[H][O][N]=[C]([H])[c]1[n][n][n][n]1[C]([H])([H])[c]1[c]([H])[n][c]([H])[c]([H])[c]1[H]

$$$$
