
     RDKit          3D

 30 30  0  0  0  0  0  0  0  0999 V2000
    7.0210   -6.0715   24.2195 H   0  0  0  0  0  0  0  0  0  0  0  0
    6.8537   -5.1224   24.2376 O   0  0  0  0  0  0  0  0  0  0  0  0
    7.4530   -4.7806   22.8301 P   0  0  0  0  0  0  0  0  0  0  0  0
    8.5589   -5.6726   22.4609 O   0  0  0  0  0  0  0  0  0  0  0  0
    6.9289   -5.6174   21.7520 O   0  0  0  0  0  0  0  0  0  0  0  0
    7.8456   -6.0145   21.8528 H   0  0  0  0  0  0  0  0  0  0  0  0
    7.6265   -3.0324   22.5733 C   0  0  0  0  0  0  0  0  0  0  0  0
    8.2280   -2.9023   21.6801 H   0  0  0  0  0  0  0  0  0  0  0  0
    6.4965   -1.9506   22.5313 N   0  0  0  0  0  0  0  0  0  0  0  0
    5.7913   -1.9358   23.2915 H   0  0  0  0  0  0  0  0  0  0  0  0
    5.7824   -1.6613   21.0374 S   0  0  0  0  0  0  0  0  0  0  0  0
    6.9461   -0.3259   20.5965 C   0  0  0  0  0  0  0  0  0  0  0  0
    7.9246   -0.7660   20.3881 H   0  0  0  0  0  0  0  0  0  0  0  0
    7.0719    0.3421   21.4533 H   0  0  0  0  0  0  0  0  0  0  0  0
    6.4214    0.4390   19.4121 C   0  0  0  0  0  0  0  0  0  0  0  0
    7.0607    0.3643   18.1658 C   0  0  0  0  0  0  0  0  0  0  0  0
    7.9443   -0.2622   18.0777 H   0  0  0  0  0  0  0  0  0  0  0  0
    6.6341    1.0258   17.0768 N   0  0  0  0  0  0  0  0  0  0  0  0
    5.5389    1.8002   17.2012 C   0  0  0  0  0  0  0  0  0  0  0  0
    5.1840    2.3522   16.3374 H   0  0  0  0  0  0  0  0  0  0  0  0
    4.8446    1.9211   18.4077 C   0  0  0  0  0  0  0  0  0  0  0  0
    3.9685    2.5574   18.4515 H   0  0  0  0  0  0  0  0  0  0  0  0
    5.2826    1.2358   19.5379 C   0  0  0  0  0  0  0  0  0  0  0  0
    4.7576    1.3154   20.4889 H   0  0  0  0  0  0  0  0  0  0  0  0
    8.7903   -3.4688   23.8849 P   0  0  0  0  0  0  0  0  0  0  0  0
    8.0756   -3.2108   25.1253 O   0  0  0  0  0  0  0  0  0  0  0  0
   10.2850   -3.2534   23.6906 O   0  0  0  0  0  0  0  0  0  0  0  0
   10.3996   -4.2112   23.4723 H   0  0  0  0  0  0  0  0  0  0  0  0
    9.7510   -4.6637   23.9885 O   0  0  0  0  0  0  0  0  0  0  0  0
   10.4198   -3.9980   24.2896 H   0  0  0  0  0  0  0  0  0  0  0  0
  1  2  1  0
  2  3  1  0
  3  4  2  0
  3  5  1  0
  5  6  1  0
  3  7  1  0
  7  8  1  0
  7  9  1  0
  9 10  1  0
  9 11  1  0
 11 12  1  0
 12 13  1  0
 12 14  1  0
 12 15  1  0
 15 16  2  0
 16 17  1  0
 16 18  1  0
 18 19  2  0
 19 20  1  0
 19 21  1  0
 21 22  1  0
 21 23  2  0
 23 24  1  0
  7 25  1  0
 25 26  2  0
 25 27  1  0
 27 28  1  0
 25 29  1  0
 29 30  1  0
 23 15  1  0
M  END
>  <plip>  (1) 
-0.07142857142857142

>  <filename>  (1) 
[H][O][P](=[O])([O][H])[C]([H])([N]([H])[S][C]([H])([H])[c]1[c]([H])[n][c]([H])[c]([H])[c]1[H])[P](=[O])([O][H])[O][H]

$$$$
