
     RDKit          3D

 42 43  0  0  0  0  0  0  0  0999 V2000
    6.0087   -2.7898   20.4362 C   0  0  0  0  0  0  0  0  0  0  0  0
    7.3297   -2.1474   20.6577 N   0  0  0  0  0  4  0  0  0  0  0  0
    8.1046   -2.9528   21.6336 C   0  0  0  0  0  0  0  0  0  0  0  0
    8.1444   -4.0083   21.3375 H   0  0  0  0  0  0  0  0  0  0  0  0
    9.1335   -2.5788   21.7153 H   0  0  0  0  0  0  0  0  0  0  0  0
    7.6431   -2.9037   22.6284 H   0  0  0  0  0  0  0  0  0  0  0  0
    7.2012   -0.7404   21.1009 C   0  0  0  0  0  0  0  0  0  0  0  0
    8.5761   -0.0975   21.4435 C   0  0  0  0  0  0  0  0  0  0  0  0
    8.9291    0.0007   22.9037 N   0  0  0  0  0  4  0  0  0  0  0  0
   10.4081    0.2065   23.1031 C   0  0  0  0  0  0  0  0  0  0  0  0
   10.9218    1.5871   22.7167 C   0  0  0  0  0  0  0  0  0  0  0  0
   11.7696    1.8794   21.7478 N   0  0  0  0  0  0  0  0  0  0  0  0
   11.9944    3.2522   21.8195 C   0  0  0  0  0  0  0  0  0  0  0  0
   13.1000    4.3859   20.7413 Br  0  0  0  0  0  0  0  0  0  0  0  0
   11.2955    3.7656   22.8636 C   0  0  0  0  0  0  0  0  0  0  0  0
   10.5948    2.7196   23.4340 N   0  0  0  0  0  0  0  0  0  0  0  0
    9.6878    2.7610   24.5880 C   0  0  0  0  0  0  0  0  0  0  0  0
    9.6715    4.0143   25.1024 F   0  0  0  0  0  0  0  0  0  0  0  0
   10.1408    1.8892   25.5277 F   0  0  0  0  0  0  0  0  0  0  0  0
    8.4230    2.4217   24.2096 F   0  0  0  0  0  0  0  0  0  0  0  0
   11.2965    4.8096   23.1415 H   0  0  0  0  0  0  0  0  0  0  0  0
   10.9950   -0.5485   22.5650 H   0  0  0  0  0  0  0  0  0  0  0  0
   10.6499    0.1014   24.1675 H   0  0  0  0  0  0  0  0  0  0  0  0
    8.4185    0.7885   23.3261 H   0  0  0  0  0  0  0  0  0  0  0  0
    8.6387   -0.8563   23.3895 H   0  0  0  0  0  0  0  0  0  0  0  0
    9.3393   -0.6782   20.9108 H   0  0  0  0  0  0  0  0  0  0  0  0
    8.5814    0.9048   21.0002 H   0  0  0  0  0  0  0  0  0  0  0  0
    6.5800   -0.0214   19.9280 C   0  0  0  0  0  0  0  0  0  0  0  0
    5.4094    0.7254   20.0924 C   0  0  0  0  0  0  0  0  0  0  0  0
    4.8939    1.3764   18.9739 C   0  0  0  0  0  0  0  0  0  0  0  0
    5.5375    1.2621   17.7395 C   0  0  0  0  0  0  0  0  0  0  0  0
    6.6486    0.5225   17.5757 N   0  0  0  0  0  0  0  0  0  0  0  0
    7.1556   -0.1036   18.6487 C   0  0  0  0  0  0  0  0  0  0  0  0
    8.0602   -0.6873   18.5123 H   0  0  0  0  0  0  0  0  0  0  0  0
    5.1212    1.7872   16.8838 H   0  0  0  0  0  0  0  0  0  0  0  0
    4.0019    1.9869   19.0416 H   0  0  0  0  0  0  0  0  0  0  0  0
    4.9124    0.8086   21.0596 H   0  0  0  0  0  0  0  0  0  0  0  0
    6.5514   -0.6654   21.9828 H   0  0  0  0  0  0  0  0  0  0  0  0
    7.8255   -2.1309   19.7576 H   0  0  0  0  0  0  0  0  0  0  0  0
    6.1244   -3.8585   20.2155 H   0  0  0  0  0  0  0  0  0  0  0  0
    5.3726   -2.6966   21.3249 H   0  0  0  0  0  0  0  0  0  0  0  0
    5.4868   -2.3223   19.5912 H   0  0  0  0  0  0  0  0  0  0  0  0
  1  2  1  0
  2  3  1  0
  3  4  1  0
  3  5  1  0
  3  6  1  0
  2  7  1  0
  7  8  1  0
  8  9  1  0
  9 10  1  0
 10 11  1  0
 11 12  2  0
 12 13  1  0
 13 14  1  0
 13 15  2  0
 15 16  1  0
 16 17  1  0
 17 18  1  0
 17 19  1  0
 17 20  1  0
 15 21  1  0
 10 22  1  0
 10 23  1  0
  9 24  1  0
  9 25  1  0
  8 26  1  0
  8 27  1  0
  7 28  1  0
 28 29  2  0
 29 30  1  0
 30 31  2  0
 31 32  1  0
 32 33  2  0
 33 34  1  0
 31 35  1  0
 30 36  1  0
 29 37  1  0
  7 38  1  0
  2 39  1  0
  1 40  1  0
  1 41  1  0
  1 42  1  0
 16 11  1  0
 33 28  1  0
M  CHG  2   2   1   9   1
M  END
>  <plip>  (1) 
-0.10714285714285714

>  <filename>  (1) 
[H][c]1[n][c]([H])[c]([C]([H])([C]([H])([H])[N+]([H])([H])[C]([H])([H])[c]2[n][c]([Br])[c]([H])[n]2[C]([F])([F])[F])[N+]([H])([C]([H])([H])[H])[C]([H])([H])[H])[c]([H])[c]1[H]

$$$$
