
     RDKit          3D

 34 35  0  0  0  0  0  0  0  0999 V2000
    4.9120    1.7859   16.9921 H   0  0  0  0  0  0  0  0  0  0  0  0
    5.3967    1.2975   17.8325 C   0  0  0  0  0  0  0  0  0  0  0  0
    6.5587    0.6837   17.5633 N   0  0  0  0  0  0  0  0  0  0  0  0
    7.1580    0.0575   18.5824 C   0  0  0  0  0  0  0  0  0  0  0  0
    8.1132   -0.4234   18.3641 H   0  0  0  0  0  0  0  0  0  0  0  0
    6.6446   -0.0109   19.8881 C   0  0  0  0  0  0  0  0  0  0  0  0
    7.4076   -0.7041   20.9885 C   0  0  0  0  0  0  0  0  0  0  0  0
    6.6840   -1.1560   21.6806 H   0  0  0  0  0  0  0  0  0  0  0  0
    8.0016   -1.5243   20.5664 H   0  0  0  0  0  0  0  0  0  0  0  0
    8.3794    0.2136   21.8046 C   0  0  2  0  0  0  0  0  0  0  0  0
    7.6033    1.3828   22.4733 C   0  0  0  0  0  0  0  0  0  0  0  0
    7.8325    2.7384   22.1662 C   0  0  0  0  0  0  0  0  0  0  0  0
    8.5943    3.0130   21.4406 H   0  0  0  0  0  0  0  0  0  0  0  0
    7.1149    3.7685   22.7655 C   0  0  0  0  0  0  0  0  0  0  0  0
    7.3189    4.8052   22.5077 H   0  0  0  0  0  0  0  0  0  0  0  0
    6.1238    3.4527   23.7051 C   0  0  0  0  0  0  0  0  0  0  0  0
    5.3520    4.5504   24.3497 N   0  0  0  0  0  4  0  0  0  0  0  0
    4.4939    4.2494   25.1625 O   0  0  0  0  0  0  0  0  0  0  0  0
    5.6227    5.6968   24.0288 O   0  0  0  0  0  1  0  0  0  0  0  0
    5.8548    2.1160   24.0297 C   0  0  0  0  0  0  0  0  0  0  0  0
    5.0904    1.8722   24.7577 H   0  0  0  0  0  0  0  0  0  0  0  0
    6.5874    1.1030   23.4119 C   0  0  0  0  0  0  0  0  0  0  0  0
    6.3504    0.0751   23.6792 H   0  0  0  0  0  0  0  0  0  0  0  0
    9.4576    0.6377   20.8910 N   0  0  0  0  0  0  0  0  0  0  0  0
    9.0429    1.2478   20.1912 H   0  0  0  0  0  0  0  0  0  0  0  0
   10.0842    1.2403   21.4205 H   0  0  0  0  0  0  0  0  0  0  0  0
    9.0532   -0.6438   22.8823 C   0  0  0  0  0  0  0  0  0  0  0  0
    8.3163   -1.1492   23.5132 H   0  0  0  0  0  0  0  0  0  0  0  0
    9.6797   -1.4065   22.4091 H   0  0  0  0  0  0  0  0  0  0  0  0
    9.6809   -0.0259   23.5336 H   0  0  0  0  0  0  0  0  0  0  0  0
    5.4332    0.6460   20.1481 C   0  0  0  0  0  0  0  0  0  0  0  0
    5.0188    0.6355   21.1622 H   0  0  0  0  0  0  0  0  0  0  0  0
    4.8015    1.3147   19.0995 C   0  0  0  0  0  0  0  0  0  0  0  0
    3.8709    1.8474   19.2541 H   0  0  0  0  0  0  0  0  0  0  0  0
  1  2  1  0
  2  3  2  0
  3  4  1  0
  4  5  1  0
  4  6  2  0
  6  7  1  0
  7  8  1  0
  7  9  1  0
  7 10  1  0
 10 11  1  0
 11 12  2  0
 12 13  1  0
 12 14  1  0
 14 15  1  0
 14 16  2  0
 16 17  1  0
 17 18  2  0
 17 19  1  0
 16 20  1  0
 20 21  1  0
 20 22  2  0
 22 23  1  0
 10 24  1  6
 24 25  1  0
 24 26  1  0
 10 27  1  0
 27 28  1  0
 27 29  1  0
 27 30  1  0
  6 31  1  0
 31 32  1  0
 31 33  2  0
 33 34  1  0
 33  2  1  0
 22 11  1  0
M  CHG  2  17   1  19  -1
M  END
>  <plip>  (1) 
-0.03571428571428571

>  <filename>  (1) 
[H][c]1[n][c]([H])[c]([C]([H])([H])[C@]([c]2[c]([H])[c]([H])[c]([N+](=[O])[O-])[c]([H])[c]2[H])([N]([H])[H])[C]([H])([H])[H])[c]([H])[c]1[H]

$$$$
