
     RDKit          3D

 42 44  0  0  0  0  0  0  0  0999 V2000
    7.3293   -2.2766   19.9575 H   0  0  0  0  0  0  0  0  0  0  0  0
    7.6514   -1.7824   20.8504 C   0  0  0  0  0  0  0  0  0  0  0  0
    7.2771   -0.5160   21.0748 C   0  0  0  0  0  0  0  0  0  0  0  0
    6.5945    0.2630   20.0399 C   0  0  0  0  0  0  0  0  0  0  0  0
    7.1520    0.2214   18.7476 C   0  0  0  0  0  0  0  0  0  0  0  0
    8.1014   -0.2921   18.5858 H   0  0  0  0  0  0  0  0  0  0  0  0
    6.5905    0.7582   17.6634 N   0  0  0  0  0  0  0  0  0  0  0  0
    5.4024    1.3567   17.8340 C   0  0  0  0  0  0  0  0  0  0  0  0
    4.9601    1.7797   16.9358 H   0  0  0  0  0  0  0  0  0  0  0  0
    4.7464    1.4416   19.0670 C   0  0  0  0  0  0  0  0  0  0  0  0
    3.7809    1.9307   19.1213 H   0  0  0  0  0  0  0  0  0  0  0  0
    5.3567    0.9045   20.2023 C   0  0  0  0  0  0  0  0  0  0  0  0
    4.8672    0.9493   21.1792 H   0  0  0  0  0  0  0  0  0  0  0  0
    7.5571    0.0652   22.3035 N   0  0  0  0  0  0  0  0  0  0  0  0
    7.0981    0.9085   22.5905 H   0  0  0  0  0  0  0  0  0  0  0  0
    7.8087   -0.6778   23.4453 C   0  0  0  0  0  0  0  0  0  0  0  0
    7.6579   -0.1527   24.5346 O   0  0  0  0  0  0  0  0  0  0  0  0
    8.1955   -1.9902   23.1922 N   0  0  0  0  0  0  0  0  0  0  0  0
    8.3987   -2.9780   24.1598 N   0  0  0  0  0  0  0  0  0  0  0  0
    9.5891   -2.6914   24.9687 C   0  0  0  0  0  0  0  0  0  0  0  0
    9.4019   -1.8886   25.6958 H   0  0  0  0  0  0  0  0  0  0  0  0
   10.3587   -2.3197   24.2877 H   0  0  0  0  0  0  0  0  0  0  0  0
   10.1084   -3.9568   25.6320 C   0  0  0  0  0  0  0  0  0  0  0  0
    9.8763   -4.7981   24.9524 H   0  0  0  0  0  0  0  0  0  0  0  0
   11.1987   -3.9389   25.6860 H   0  0  0  0  0  0  0  0  0  0  0  0
    9.5833   -4.1711   26.9814 N   0  0  0  0  0  0  0  0  0  0  0  0
   10.1930   -5.3580   27.5402 C   0  0  0  0  0  0  0  0  0  0  0  0
    9.7319   -5.6389   28.4940 H   0  0  0  0  0  0  0  0  0  0  0  0
   10.1051   -6.2172   26.8461 H   0  0  0  0  0  0  0  0  0  0  0  0
   11.2565   -5.1738   27.7415 H   0  0  0  0  0  0  0  0  0  0  0  0
    8.1219   -4.0893   27.1039 C   0  0  0  0  0  0  0  0  0  0  0  0
    7.8166   -4.6843   27.9744 H   0  0  0  0  0  0  0  0  0  0  0  0
    7.8640   -3.0492   27.3555 H   0  0  0  0  0  0  0  0  0  0  0  0
    7.2936   -4.4960   25.8716 C   0  0  0  0  0  0  0  0  0  0  0  0
    7.7336   -5.3809   25.3965 H   0  0  0  0  0  0  0  0  0  0  0  0
    6.2822   -4.7728   26.1994 H   0  0  0  0  0  0  0  0  0  0  0  0
    7.1517   -3.3744   24.8377 C   0  0  0  0  0  0  0  0  0  0  0  0
    6.6810   -2.4955   25.3070 H   0  0  0  0  0  0  0  0  0  0  0  0
    6.4707   -3.7148   24.0514 H   0  0  0  0  0  0  0  0  0  0  0  0
    8.5403   -2.4430   21.8388 C   0  0  0  0  0  0  0  0  0  0  0  0
    9.6044   -2.2056   21.6459 H   0  0  0  0  0  0  0  0  0  0  0  0
    8.4288   -3.5344   21.7893 H   0  0  0  0  0  0  0  0  0  0  0  0
  1  2  1  0
  2  3  2  0
  3  4  1  0
  4  5  2  0
  5  6  1  0
  5  7  1  0
  7  8  2  0
  8  9  1  0
  8 10  1  0
 10 11  1  0
 10 12  2  0
 12 13  1  0
  3 14  1  0
 14 15  1  0
 14 16  1  0
 16 17  2  0
 16 18  1  0
 18 19  1  0
 19 20  1  0
 20 21  1  0
 20 22  1  0
 20 23  1  0
 23 24  1  0
 23 25  1  0
 23 26  1  0
 26 27  1  0
 27 28  1  0
 27 29  1  0
 27 30  1  0
 26 31  1  0
 31 32  1  0
 31 33  1  0
 31 34  1  0
 34 35  1  0
 34 36  1  0
 34 37  1  0
 37 38  1  0
 37 39  1  0
 18 40  1  0
 40 41  1  0
 40 42  1  0
 40  2  1  0
 12  4  1  0
 37 19  1  0
M  END
>  <plip>  (1) 
-0.03571428571428571

>  <filename>  (1) 
[H][C]1=[C]([c]2[c]([H])[n][c]([H])[c]([H])[c]2[H])[N]([H])[C](=[O])[N]([N]2[C]([H])([H])[C]([H])([H])[N]([C]([H])([H])[H])[C]([H])([H])[C]([H])([H])[C]2([H])[H])[C]1([H])[H]

$$$$
