
     RDKit          3D

 29 31  0  0  0  0  0  0  0  0999 V2000
    6.9481    0.8516   22.6318 O   0  0  0  0  0  0  0  0  0  0  0  0
    7.4359   -0.2092   22.2743 C   0  0  0  0  0  0  0  0  0  0  0  0
    7.3729   -0.6464   20.9695 N   0  0  0  0  0  0  0  0  0  0  0  0
    6.6723   -0.0056   19.9026 C   0  0  0  0  0  0  0  0  0  0  0  0
    5.4537    0.6435   20.1518 C   0  0  0  0  0  0  0  0  0  0  0  0
    4.8104    1.2958   19.0940 C   0  0  0  0  0  0  0  0  0  0  0  0
    5.4003    1.2883   17.8256 C   0  0  0  0  0  0  0  0  0  0  0  0
    6.5618    0.6650   17.5646 N   0  0  0  0  0  0  0  0  0  0  0  0
    7.1730    0.0394   18.5799 C   0  0  0  0  0  0  0  0  0  0  0  0
    8.1259   -0.4287   18.3432 H   0  0  0  0  0  0  0  0  0  0  0  0
    4.9314    1.7999   16.9860 H   0  0  0  0  0  0  0  0  0  0  0  0
    3.8810    1.8331   19.2507 H   0  0  0  0  0  0  0  0  0  0  0  0
    5.0542    0.6414   21.1646 H   0  0  0  0  0  0  0  0  0  0  0  0
    7.8235   -1.5303   20.8042 H   0  0  0  0  0  0  0  0  0  0  0  0
    8.1302   -1.1442   23.2317 C   0  0  0  0  0  0  0  0  0  0  0  0
    9.2561   -1.9545   22.9351 C   0  0  0  0  0  0  0  0  0  0  0  0
    9.8652   -2.7423   23.9282 C   0  0  0  0  0  0  0  0  0  0  0  0
    9.3811   -2.7624   25.2482 C   0  0  0  0  0  0  0  0  0  0  0  0
    8.2812   -1.9685   25.5431 C   0  0  0  0  0  0  0  0  0  0  0  0
    7.6668   -1.1738   24.5539 C   0  0  0  0  0  0  0  0  0  0  0  0
    6.6136   -0.5225   25.1767 N   0  0  0  0  0  0  0  0  0  0  0  0
    6.5299   -0.8697   26.5070 C   0  0  0  0  0  0  0  0  0  0  0  0
    5.7173   -0.4996   27.3279 O   0  0  0  0  0  0  0  0  0  0  0  0
    7.5703   -1.7456   26.7170 N   0  0  0  0  0  0  0  0  0  0  0  0
    7.6705   -2.1312   27.6368 H   0  0  0  0  0  0  0  0  0  0  0  0
    5.9657    0.1459   24.8021 H   0  0  0  0  0  0  0  0  0  0  0  0
    9.8405   -3.3729   26.0212 H   0  0  0  0  0  0  0  0  0  0  0  0
   10.7317   -3.3526   23.6715 H   0  0  0  0  0  0  0  0  0  0  0  0
    9.7071   -1.9611   21.9415 H   0  0  0  0  0  0  0  0  0  0  0  0
  1  2  2  0
  2  3  1  0
  3  4  1  0
  4  5  2  0
  5  6  1  0
  6  7  2  0
  7  8  1  0
  8  9  2  0
  9 10  1  0
  7 11  1  0
  6 12  1  0
  5 13  1  0
  3 14  1  0
  2 15  1  0
 15 16  2  0
 16 17  1  0
 17 18  2  0
 18 19  1  0
 19 20  2  0
 20 21  1  0
 21 22  1  0
 22 23  2  0
 22 24  1  0
 24 25  1  0
 21 26  1  0
 18 27  1  0
 17 28  1  0
 16 29  1  0
  9  4  1  0
 20 15  1  0
 24 19  1  0
M  END
>  <plip>  (1) 
-0.03571428571428571

>  <filename>  (1) 
[H][c]1[n][c]([H])[c]([N]([H])[C](=[O])[c]2[c]([H])[c]([H])[c]([H])[c]3[c]2[n]([H])[c](=[O])[n]3[H])[c]([H])[c]1[H]

$$$$
