
     RDKit          3D

 28 30  0  0  0  0  0  0  0  0999 V2000
    9.2201   -3.2174   21.7478 H   0  0  0  0  0  0  0  0  0  0  0  0
    8.6309   -2.3099   21.7495 C   0  0  0  0  0  0  0  0  0  0  0  0
    8.0892   -1.8286   20.6919 N   0  0  0  0  0  0  0  0  0  0  0  0
    7.3830   -0.6808   20.9776 C   0  0  0  0  0  0  0  0  0  0  0  0
    6.6519    0.0058   19.9094 C   0  0  0  0  0  0  0  0  0  0  0  0
    7.1703    0.0459   18.6012 C   0  0  0  0  0  0  0  0  0  0  0  0
    8.1209   -0.4325   18.3730 H   0  0  0  0  0  0  0  0  0  0  0  0
    6.5703    0.6730   17.5849 N   0  0  0  0  0  0  0  0  0  0  0  0
    5.4046    1.2886   17.8412 C   0  0  0  0  0  0  0  0  0  0  0  0
    4.9247    1.7795   16.9982 H   0  0  0  0  0  0  0  0  0  0  0  0
    4.8037    1.3047   19.1032 C   0  0  0  0  0  0  0  0  0  0  0  0
    3.8753    1.8407   19.2549 H   0  0  0  0  0  0  0  0  0  0  0  0
    5.4310    0.6538   20.1595 C   0  0  0  0  0  0  0  0  0  0  0  0
    5.0072    0.6425   21.1634 H   0  0  0  0  0  0  0  0  0  0  0  0
    7.4600   -0.2811   22.2860 C   0  0  0  0  0  0  0  0  0  0  0  0
    6.8771    0.8225   22.7651 O   0  0  0  0  0  0  0  0  0  0  0  0
    7.0818    1.2789   24.1074 C   0  0  0  0  0  0  0  0  0  0  0  0
    6.2894    2.0165   24.2560 H   0  0  0  0  0  0  0  0  0  0  0  0
    6.9151    0.4677   24.8243 H   0  0  0  0  0  0  0  0  0  0  0  0
    8.4259    1.9237   24.3393 C   0  0  0  0  0  0  0  0  0  0  0  0
    8.7837    2.5435   23.5204 H   0  0  0  0  0  0  0  0  0  0  0  0
    8.7349    2.4149   25.7315 C   0  0  0  0  0  0  0  0  0  0  0  0
    9.2979    3.3385   25.8430 H   0  0  0  0  0  0  0  0  0  0  0  0
    7.9878    2.2627   26.5095 H   0  0  0  0  0  0  0  0  0  0  0  0
    9.4504    1.2182   25.1831 C   0  0  0  0  0  0  0  0  0  0  0  0
   10.4988    1.3037   24.9162 H   0  0  0  0  0  0  0  0  0  0  0  0
    9.1684    0.2432   25.5802 H   0  0  0  0  0  0  0  0  0  0  0  0
    8.4023   -1.4109   23.2114 S   0  0  0  0  0  0  0  0  0  0  0  0
  1  2  1  0
  2  3  2  0
  3  4  1  0
  4  5  1  0
  5  6  2  0
  6  7  1  0
  6  8  1  0
  8  9  2  0
  9 10  1  0
  9 11  1  0
 11 12  1  0
 11 13  2  0
 13 14  1  0
  4 15  2  0
 15 16  1  0
 16 17  1  0
 17 18  1  0
 17 19  1  0
 17 20  1  0
 20 21  1  0
 20 22  1  0
 22 23  1  0
 22 24  1  0
 22 25  1  0
 25 26  1  0
 25 27  1  0
 15 28  1  0
 28  2  1  0
 13  5  1  0
 25 20  1  0
M  END
>  <plip>  (1) 
-0.034482758620689655

>  <filename>  (1) 
[H][c]1[n][c](-[c]2[c]([H])[n][c]([H])[c]([H])[c]2[H])[c]([O][C]([H])([H])[C]2([H])[C]([H])([H])[C]2([H])[H])[s]1

$$$$
