
     RDKit          3D

 39 42  0  0  0  0  0  0  0  0999 V2000
    5.9032   -2.6090   20.1257 O   0  0  0  0  0  0  0  0  0  0  0  0
    6.6971   -2.2620   21.0038 C   0  0  0  0  0  0  0  0  0  0  0  0
    6.6664   -2.9751   22.1951 N   0  0  0  0  0  0  0  0  0  0  0  0
    5.5169   -3.8262   22.4736 C   0  0  0  0  0  0  0  0  0  0  0  0
    6.0234   -4.6913   23.5624 C   0  0  0  0  0  0  0  0  0  0  0  0
    7.3595   -4.4424   23.8272 C   0  0  0  0  0  0  0  0  0  0  0  0
    7.8750   -3.3360   22.9523 C   0  0  0  0  0  0  0  0  0  0  0  0
    8.6637   -3.7284   22.3082 H   0  0  0  0  0  0  0  0  0  0  0  0
    8.2826   -2.5014   23.5362 H   0  0  0  0  0  0  0  0  0  0  0  0
    8.0254   -5.1812   24.8121 C   0  0  0  0  0  0  0  0  0  0  0  0
    9.9098   -4.9703   25.0804 Br  0  0  0  0  0  0  0  0  0  0  0  0
    7.2820   -6.0727   25.6008 C   0  0  0  0  0  0  0  0  0  0  0  0
    5.9199   -6.2979   25.3409 C   0  0  0  0  0  0  0  0  0  0  0  0
    5.2969   -5.6359   24.2820 C   0  0  0  0  0  0  0  0  0  0  0  0
    4.2564   -5.8227   24.0280 H   0  0  0  0  0  0  0  0  0  0  0  0
    5.3553   -7.0046   25.9466 H   0  0  0  0  0  0  0  0  0  0  0  0
    7.7715   -6.6035   26.4125 H   0  0  0  0  0  0  0  0  0  0  0  0
    4.6471   -3.2395   22.7942 H   0  0  0  0  0  0  0  0  0  0  0  0
    5.2541   -4.4327   21.6046 H   0  0  0  0  0  0  0  0  0  0  0  0
    7.3477   -0.8527   20.9438 C   0  0  0  0  0  0  0  0  0  0  0  0
    6.6916   -0.0082   19.8575 C   0  0  0  0  0  0  0  0  0  0  0  0
    5.4733    0.6241   20.1240 C   0  0  0  0  0  0  0  0  0  0  0  0
    4.8509    1.3050   19.0800 C   0  0  0  0  0  0  0  0  0  0  0  0
    5.4525    1.3355   17.8171 C   0  0  0  0  0  0  0  0  0  0  0  0
    6.6221    0.7240   17.5508 N   0  0  0  0  0  0  0  0  0  0  0  0
    7.2282    0.0647   18.5564 C   0  0  0  0  0  0  0  0  0  0  0  0
    8.1593   -0.4546   18.3450 H   0  0  0  0  0  0  0  0  0  0  0  0
    4.9472    1.8731   17.0221 H   0  0  0  0  0  0  0  0  0  0  0  0
    3.9104    1.8209   19.2351 H   0  0  0  0  0  0  0  0  0  0  0  0
    5.0324    0.5847   21.1218 H   0  0  0  0  0  0  0  0  0  0  0  0
    8.8873   -0.7573   20.9660 C   0  0  0  0  0  0  0  0  0  0  0  0
    8.8815   -0.0811   22.3277 C   0  0  0  0  0  0  0  0  0  0  0  0
    7.3692   -0.1408   22.3095 C   0  0  0  0  0  0  0  0  0  0  0  0
    6.9638   -0.7173   23.1477 H   0  0  0  0  0  0  0  0  0  0  0  0
    6.8954    0.8436   22.2923 H   0  0  0  0  0  0  0  0  0  0  0  0
    9.3445   -0.6674   23.1272 H   0  0  0  0  0  0  0  0  0  0  0  0
    9.2881    0.9361   22.3391 H   0  0  0  0  0  0  0  0  0  0  0  0
    9.2853   -0.1128   20.1788 H   0  0  0  0  0  0  0  0  0  0  0  0
    9.4411   -1.7003   20.9593 H   0  0  0  0  0  0  0  0  0  0  0  0
  1  2  2  0
  2  3  1  0
  3  4  1  0
  4  5  1  0
  5  6  2  0
  6  7  1  0
  7  8  1  0
  7  9  1  0
  6 10  1  0
 10 11  1  0
 10 12  2  0
 12 13  1  0
 13 14  2  0
 14 15  1  0
 13 16  1  0
 12 17  1  0
  4 18  1  0
  4 19  1  0
  2 20  1  0
 20 21  1  0
 21 22  2  0
 22 23  1  0
 23 24  2  0
 24 25  1  0
 25 26  2  0
 26 27  1  0
 24 28  1  0
 23 29  1  0
 22 30  1  0
 20 31  1  0
 31 32  1  0
 32 33  1  0
 33 34  1  0
 33 35  1  0
 32 36  1  0
 32 37  1  0
 31 38  1  0
 31 39  1  0
  7  3  1  0
 33 20  1  0
 14  5  1  0
 26 21  1  0
M  END
>  <plip>  (1) 
-0.10714285714285714

>  <filename>  (1) 
[H][c]1[n][c]([H])[c]([C]2([C](=[O])[N]3[C]([H])([H])[c]4[c]([H])[c]([H])[c]([H])[c]([Br])[c]4[C]3([H])[H])[C]([H])([H])[C]([H])([H])[C]2([H])[H])[c]([H])[c]1[H]

$$$$
