
     RDKit          3D

 35 36  0  0  0  0  0  0  0  0999 V2000
   11.3866   -1.9649   21.2736 O   0  0  0  0  0  0  0  0  0  0  0  0
   10.9428   -1.2348   22.1393 C   0  0  0  0  0  0  0  0  0  0  0  0
    9.7927   -1.5246   22.8232 N   0  0  0  0  0  0  0  0  0  0  0  0
    8.7220   -2.2457   22.1410 C   0  0  0  0  0  0  0  0  0  0  0  0
    8.1763   -1.4404   21.0054 C   0  0  0  0  0  0  0  0  0  0  0  0
    7.0327   -0.7551   21.0458 C   0  0  0  0  0  0  0  0  0  0  0  0
    6.5048    0.0339   19.9255 C   0  0  0  0  0  0  0  0  0  0  0  0
    5.3335    0.7906   20.0863 C   0  0  0  0  0  0  0  0  0  0  0  0
    4.7949    1.4446   18.9805 C   0  0  0  0  0  0  0  0  0  0  0  0
    5.4525    1.3354   17.7503 C   0  0  0  0  0  0  0  0  0  0  0  0
    6.5962    0.6561   17.5804 N   0  0  0  0  0  0  0  0  0  0  0  0
    7.1068    0.0433   18.6522 C   0  0  0  0  0  0  0  0  0  0  0  0
    8.0569   -0.4655   18.4913 H   0  0  0  0  0  0  0  0  0  0  0  0
    5.0510    1.8092   16.8594 H   0  0  0  0  0  0  0  0  0  0  0  0
    3.8979    2.0486   19.0500 H   0  0  0  0  0  0  0  0  0  0  0  0
    4.8720    0.8745   21.0701 H   0  0  0  0  0  0  0  0  0  0  0  0
    6.4333   -0.7387   21.9577 H   0  0  0  0  0  0  0  0  0  0  0  0
    8.8539   -1.3482   20.1574 H   0  0  0  0  0  0  0  0  0  0  0  0
    7.9277   -2.4528   22.8678 H   0  0  0  0  0  0  0  0  0  0  0  0
    9.1108   -3.2022   21.7870 H   0  0  0  0  0  0  0  0  0  0  0  0
    9.4613   -0.7638   23.3895 H   0  0  0  0  0  0  0  0  0  0  0  0
   11.7045    0.0080   22.5912 C   0  0  0  0  0  0  0  0  0  0  0  0
   13.0643   -0.1891   22.8893 C   0  0  0  0  0  0  0  0  0  0  0  0
   13.8530    0.8534   23.3695 C   0  0  0  0  0  0  0  0  0  0  0  0
   13.3123    2.1312   23.5036 C   0  0  0  0  0  0  0  0  0  0  0  0
   11.9861    2.3631   23.1436 C   0  0  0  0  0  0  0  0  0  0  0  0
   11.1711    1.3242   22.6672 C   0  0  0  0  0  0  0  0  0  0  0  0
    9.7763    1.6659   22.1402 C   0  0  0  0  0  0  0  0  0  0  0  0
    9.5054    2.9813   22.1562 F   0  0  0  0  0  0  0  0  0  0  0  0
    9.5958    1.2303   20.8737 F   0  0  0  0  0  0  0  0  0  0  0  0
    8.8010    1.0777   22.8780 F   0  0  0  0  0  0  0  0  0  0  0  0
   11.5801    3.3681   23.2154 H   0  0  0  0  0  0  0  0  0  0  0  0
   13.9173    2.9707   23.8309 H   0  0  0  0  0  0  0  0  0  0  0  0
   14.8889    0.6628   23.6171 H   0  0  0  0  0  0  0  0  0  0  0  0
   13.5041   -1.1752   22.7418 H   0  0  0  0  0  0  0  0  0  0  0  0
  1  2  2  0
  2  3  1  0
  3  4  1  0
  4  5  1  0
  5  6  2  3
  6  7  1  0
  7  8  2  0
  8  9  1  0
  9 10  2  0
 10 11  1  0
 11 12  2  0
 12 13  1  0
 10 14  1  0
  9 15  1  0
  8 16  1  0
  6 17  1  0
  5 18  1  0
  4 19  1  0
  4 20  1  0
  3 21  1  0
  2 22  1  0
 22 23  2  0
 23 24  1  0
 24 25  2  0
 25 26  1  0
 26 27  2  0
 27 28  1  0
 28 29  1  0
 28 30  1  0
 28 31  1  0
 26 32  1  0
 25 33  1  0
 24 34  1  0
 23 35  1  0
 12  7  1  0
 27 22  1  0
M  END
>  <plip>  (1) 
-0.07142857142857142

>  <filename>  (1) 
[H][C](=[C]([H])[C]([H])([H])[N]([H])[C](=[O])[c]1[c]([H])[c]([H])[c]([H])[c]([H])[c]1[C]([F])([F])[F])[c]1[c]([H])[n][c]([H])[c]([H])[c]1[H]

$$$$
