
     RDKit          3D

 24 26  0  0  0  0  0  0  0  0999 V2000
    4.8011    1.3139   19.0981 C   0  0  0  0  0  0  0  0  0  0  0  0
    5.3962    1.2975   17.8304 C   0  0  0  0  0  0  0  0  0  0  0  0
    6.5614    0.6847   17.5599 N   0  0  0  0  0  0  0  0  0  0  0  0
    7.1634    0.0713   18.5837 C   0  0  0  0  0  0  0  0  0  0  0  0
    6.6563    0.0139   19.8987 C   0  0  0  0  0  0  0  0  0  0  0  0
    7.3611   -0.6819   20.9877 C   0  0  0  0  0  0  0  0  0  0  0  0
    7.1895   -0.5286   22.3391 C   0  0  0  0  0  0  0  0  0  0  0  0
    8.0500   -1.3819   22.9642 N   0  0  0  0  0  0  0  0  0  0  0  0
    8.2130   -1.5425   24.3643 C   0  0  0  0  0  0  0  0  0  0  0  0
    9.0877   -2.4067   24.9546 C   0  0  0  0  0  0  0  0  0  0  0  0
    8.9790   -2.3104   26.6566 S   0  0  0  0  0  0  0  0  0  0  0  0
    7.7626   -1.1025   26.4549 C   0  0  0  0  0  0  0  0  0  0  0  0
    7.4509   -0.7915   25.2404 N   0  0  0  0  0  0  0  0  0  0  0  0
    7.3064   -0.6553   27.3283 H   0  0  0  0  0  0  0  0  0  0  0  0
    9.7642   -3.0702   24.4407 H   0  0  0  0  0  0  0  0  0  0  0  0
    8.7812   -2.0969   22.0654 N   0  0  0  0  0  0  0  0  0  0  0  0
    8.3743   -1.6685   20.8921 C   0  0  0  0  0  0  0  0  0  0  0  0
    8.8155   -2.0465   19.9873 H   0  0  0  0  0  0  0  0  0  0  0  0
    6.5370    0.1407   22.8914 H   0  0  0  0  0  0  0  0  0  0  0  0
    5.4370    0.6582   20.1496 C   0  0  0  0  0  0  0  0  0  0  0  0
    5.0041    0.6291   21.1520 H   0  0  0  0  0  0  0  0  0  0  0  0
    8.1132   -0.4134   18.3668 H   0  0  0  0  0  0  0  0  0  0  0  0
    4.9114    1.7851   16.9914 H   0  0  0  0  0  0  0  0  0  0  0  0
    3.8694    1.8456   19.2573 H   0  0  0  0  0  0  0  0  0  0  0  0
  1  2  2  0
  2  3  1  0
  3  4  2  0
  4  5  1  0
  5  6  1  0
  6  7  2  0
  7  8  1  0
  8  9  1  0
  9 10  2  0
 10 11  1  0
 11 12  1  0
 12 13  2  0
 12 14  1  0
 10 15  1  0
  8 16  1  0
 16 17  2  0
 17 18  1  0
  7 19  1  0
  5 20  2  0
 20 21  1  0
  4 22  1  0
  2 23  1  0
  1 24  1  0
 20  1  1  0
 17  6  1  0
 13  9  1  0
M  END
>  <plip>  (1) 
-0.03571428571428571

>  <filename>  (1) 
[H][c]1[n][c](-[n]2[n][c]([H])[c](-[c]3[c]([H])[n][c]([H])[c]([H])[c]3[H])[c]2[H])[c]([H])[s]1

$$$$
