
     RDKit          3D

 38 40  0  0  0  0  0  0  0  0999 V2000
    5.3120    1.7107   16.6500 H   0  0  0  0  0  0  0  0  0  0  0  0
    5.5486    1.3025   17.6356 C   0  0  0  0  0  0  0  0  0  0  0  0
    6.5842    0.4525   17.7093 N   0  0  0  0  0  0  0  0  0  0  0  0
    6.8854   -0.0694   18.8957 C   0  0  0  0  0  0  0  0  0  0  0  0
    7.7249   -0.7681   18.9032 H   0  0  0  0  0  0  0  0  0  0  0  0
    6.1695    0.2515   20.0415 C   0  0  0  0  0  0  0  0  0  0  0  0
    6.6808   -0.6060   21.4726 S   0  0  0  0  0  0  0  0  0  0  0  0
    6.4071   -2.0026   21.2338 O   0  0  0  0  0  0  0  0  0  0  0  0
    6.2214    0.1160   22.6407 O   0  0  0  0  0  0  0  0  0  0  0  0
    8.3989   -0.3164   21.4143 N   0  0  0  0  0  0  0  0  0  0  0  0
    9.2676   -1.2629   22.0553 N   0  0  0  0  0  0  0  0  0  0  0  0
    9.7302   -0.9458   23.4348 C   0  0  0  0  0  0  0  0  0  0  0  0
    9.0234   -0.2415   23.8869 H   0  0  0  0  0  0  0  0  0  0  0  0
    9.6513   -1.8638   24.0249 H   0  0  0  0  0  0  0  0  0  0  0  0
   11.1443   -0.3862   23.4768 C   0  0  0  0  0  0  0  0  0  0  0  0
   11.5172    0.6684   24.3051 C   0  0  0  0  0  0  0  0  0  0  0  0
   10.8375    1.0249   25.0810 H   0  0  0  0  0  0  0  0  0  0  0  0
   12.7659    1.2689   24.1289 C   0  0  0  0  0  0  0  0  0  0  0  0
   12.9837    2.1514   24.6927 H   0  0  0  0  0  0  0  0  0  0  0  0
   13.6927    0.7736   23.2128 C   0  0  0  0  0  0  0  0  0  0  0  0
   14.6537    1.2672   23.0765 H   0  0  0  0  0  0  0  0  0  0  0  0
   13.3577   -0.3483   22.4559 C   0  0  0  0  0  0  0  0  0  0  0  0
   14.0719   -0.7743   21.7552 H   0  0  0  0  0  0  0  0  0  0  0  0
   12.0897   -0.9186   22.5751 C   0  0  0  0  0  0  0  0  0  0  0  0
   11.6340   -2.0765   21.7386 C   0  0  0  0  0  0  0  0  0  0  0  0
   11.5165   -2.9660   22.3702 H   0  0  0  0  0  0  0  0  0  0  0  0
   12.3763   -2.3025   20.9687 H   0  0  0  0  0  0  0  0  0  0  0  0
   10.2916   -1.7274   21.0892 C   0  0  0  0  0  0  0  0  0  0  0  0
    9.8786   -2.5811   20.5373 H   0  0  0  0  0  0  0  0  0  0  0  0
   10.4528   -0.9078   20.3694 H   0  0  0  0  0  0  0  0  0  0  0  0
    8.7021    1.1052   21.6948 C   0  0  0  0  0  0  0  0  0  0  0  0
    9.7874    1.2593   21.6699 H   0  0  0  0  0  0  0  0  0  0  0  0
    8.3206    1.4191   22.6726 H   0  0  0  0  0  0  0  0  0  0  0  0
    8.2582    1.7318   20.9174 H   0  0  0  0  0  0  0  0  0  0  0  0
    5.0822    1.1290   19.9968 C   0  0  0  0  0  0  0  0  0  0  0  0
    4.4888    1.3767   20.8806 H   0  0  0  0  0  0  0  0  0  0  0  0
    4.7862    1.6723   18.7478 C   0  0  0  0  0  0  0  0  0  0  0  0
    3.9753    2.3811   18.6300 H   0  0  0  0  0  0  0  0  0  0  0  0
  1  2  1  0
  2  3  2  0
  3  4  1  0
  4  5  1  0
  4  6  2  0
  6  7  1  0
  7  8  2  0
  7  9  2  0
  7 10  1  0
 10 11  1  0
 11 12  1  0
 12 13  1  0
 12 14  1  0
 12 15  1  0
 15 16  2  0
 16 17  1  0
 16 18  1  0
 18 19  1  0
 18 20  2  0
 20 21  1  0
 20 22  1  0
 22 23  1  0
 22 24  2  0
 24 25  1  0
 25 26  1  0
 25 27  1  0
 25 28  1  0
 28 29  1  0
 28 30  1  0
 10 31  1  0
 31 32  1  0
 31 33  1  0
 31 34  1  0
  6 35  1  0
 35 36  1  0
 35 37  2  0
 37 38  1  0
 37  2  1  0
 28 11  1  0
 24 15  1  0
M  END
>  <plip>  (1) 
-0.14285714285714285

>  <filename>  (1) 
[H][c]1[n][c]([H])[c]([S](=[O])(=[O])[N]([N]2[C]([H])([H])[c]3[c]([H])[c]([H])[c]([H])[c]([H])[c]3[C]([H])([H])[C]2([H])[H])[C]([H])([H])[H])[c]([H])[c]1[H]

$$$$
