
     RDKit          3D

 27 28  0  0  0  0  0  0  0  0999 V2000
    5.0744    1.8353   16.8534 H   0  0  0  0  0  0  0  0  0  0  0  0
    5.4519    1.3166   17.7309 C   0  0  0  0  0  0  0  0  0  0  0  0
    6.5818    0.6097   17.5586 N   0  0  0  0  0  0  0  0  0  0  0  0
    7.0818   -0.0292   18.6257 C   0  0  0  0  0  0  0  0  0  0  0  0
    7.9915   -0.6073   18.4760 H   0  0  0  0  0  0  0  0  0  0  0  0
    6.5034    0.0130   19.9173 C   0  0  0  0  0  0  0  0  0  0  0  0
    7.0500   -0.6404   21.0535 N   0  0  0  0  0  0  0  0  0  0  0  0
    7.0755   -0.0627   21.8911 H   0  0  0  0  0  0  0  0  0  0  0  0
    8.2863   -1.2823   20.8732 N   0  0  0  0  0  0  0  0  0  0  0  0
    8.1658   -2.2733   21.1187 H   0  0  0  0  0  0  0  0  0  0  0  0
    9.2221   -0.7020   21.7949 N   0  0  0  0  0  0  0  0  0  0  0  0
    9.0572    0.3092   21.7886 H   0  0  0  0  0  0  0  0  0  0  0  0
   10.5881   -0.8997   21.2814 C   0  0  0  0  0  0  0  0  0  0  0  0
   10.8591   -1.9619   21.4286 H   0  0  0  0  0  0  0  0  0  0  0  0
   10.5953   -0.7006   20.2060 H   0  0  0  0  0  0  0  0  0  0  0  0
   11.6118    0.0291   21.9069 C   0  0  0  0  0  0  0  0  0  0  0  0
   11.6930    0.9892   21.3972 H   0  0  0  0  0  0  0  0  0  0  0  0
   11.9097    0.0381   23.3808 C   0  0  0  0  0  0  0  0  0  0  0  0
   11.3285   -0.6233   24.0181 H   0  0  0  0  0  0  0  0  0  0  0  0
   12.1609    0.9832   23.8610 H   0  0  0  0  0  0  0  0  0  0  0  0
   12.8967   -0.5619   22.4152 C   0  0  0  0  0  0  0  0  0  0  0  0
   13.8374   -0.0493   22.2330 H   0  0  0  0  0  0  0  0  0  0  0  0
   12.9848   -1.6466   22.3956 H   0  0  0  0  0  0  0  0  0  0  0  0
    5.3001    0.7259   20.0619 C   0  0  0  0  0  0  0  0  0  0  0  0
    4.7997    0.7404   21.0321 H   0  0  0  0  0  0  0  0  0  0  0  0
    4.7720    1.3890   18.9536 C   0  0  0  0  0  0  0  0  0  0  0  0
    3.8561    1.9722   19.0266 H   0  0  0  0  0  0  0  0  0  0  0  0
  1  2  1  0
  2  3  2  0
  3  4  1  0
  4  5  1  0
  4  6  2  0
  6  7  1  0
  7  8  1  0
  7  9  1  0
  9 10  1  0
  9 11  1  0
 11 12  1  0
 11 13  1  0
 13 14  1  0
 13 15  1  0
 13 16  1  0
 16 17  1  0
 16 18  1  0
 18 19  1  0
 18 20  1  0
 18 21  1  0
 21 22  1  0
 21 23  1  0
  6 24  1  0
 24 25  1  0
 24 26  2  0
 26 27  1  0
 26  2  1  0
 21 16  1  0
M  END
>  <plip>  (1) 
-0.07142857142857142

>  <filename>  (1) 
[H][c]1[n][c]([H])[c]([N]([H])[N]([H])[N]([H])[C]([H])([H])[C]2([H])[C]([H])([H])[C]2([H])[H])[c]([H])[c]1[H]

$$$$
