
     RDKit          3D

 51 54  0  0  0  0  0  0  0  0999 V2000
    6.3146   -3.0815   20.8536 C   0  0  0  0  0  0  0  0  0  0  0  0
    6.5557   -1.8352   21.6171 N   0  0  0  0  0  4  0  0  0  0  0  0
    7.2140   -1.9891   22.9754 C   0  0  0  0  0  0  0  0  0  0  0  0
    8.1833   -0.7913   23.0991 C   0  0  0  0  0  0  0  0  0  0  0  0
    7.8065    0.1454   21.9374 C   0  0  1  0  0  0  0  0  0  0  0  0
    8.8439    1.1580   21.4247 C   0  0  0  0  0  0  0  0  0  0  0  0
    9.1174    2.2007   22.4009 N   0  0  0  0  0  0  0  0  0  0  0  0
    9.9920    1.9723   23.4200 C   0  0  0  0  0  0  0  0  0  0  0  0
   10.8287    1.0869   23.3704 O   0  0  0  0  0  0  0  0  0  0  0  0
    9.8619    2.8133   24.6543 C   0  0  2  0  0  0  0  0  0  0  0  0
    8.5680    3.3500   25.2309 C   0  0  0  0  0  0  0  0  0  0  0  0
    9.5744    4.3035   24.6798 C   0  0  1  0  0  0  0  0  0  0  0  0
   10.3556    5.2196   25.5714 C   0  0  0  0  0  0  0  0  0  0  0  0
    9.8476    5.7824   26.7560 C   0  0  0  0  0  0  0  0  0  0  0  0
   10.6389    6.6116   27.5625 C   0  0  0  0  0  0  0  0  0  0  0  0
   11.9542    6.9075   27.1826 C   0  0  0  0  0  0  0  0  0  0  0  0
   12.4859    6.3367   26.0205 C   0  0  0  0  0  0  0  0  0  0  0  0
   11.6894    5.4982   25.2520 C   0  0  0  0  0  0  0  0  0  0  0  0
   12.2297    4.9069   24.1666 F   0  0  0  0  0  0  0  0  0  0  0  0
   13.5017    6.5105   25.6792 H   0  0  0  0  0  0  0  0  0  0  0  0
   12.5746    7.5676   27.7887 H   0  0  0  0  0  0  0  0  0  0  0  0
   10.2424    7.0281   28.4857 H   0  0  0  0  0  0  0  0  0  0  0  0
    8.8225    5.5525   27.0351 H   0  0  0  0  0  0  0  0  0  0  0  0
    9.4037    4.7369   23.6983 H   0  0  0  0  0  0  0  0  0  0  0  0
    8.4815    3.2955   26.3132 H   0  0  0  0  0  0  0  0  0  0  0  0
    7.6146    3.2224   24.7226 H   0  0  0  0  0  0  0  0  0  0  0  0
   10.5795    2.4315   25.3651 H   0  0  0  0  0  0  0  0  0  0  0  0
    8.3752    2.8456   22.6167 H   0  0  0  0  0  0  0  0  0  0  0  0
    9.7957    0.6582   21.1948 H   0  0  0  0  0  0  0  0  0  0  0  0
    8.4898    1.6397   20.5024 H   0  0  0  0  0  0  0  0  0  0  0  0
    7.3721   -0.8226   20.8477 C   0  0  2  0  0  0  0  0  0  0  0  0
    6.6140   -0.1588   19.7353 C   0  0  0  0  0  0  0  0  0  0  0  0
    5.4173    0.5455   19.9516 C   0  0  0  0  0  0  0  0  0  0  0  0
    4.8611    1.2565   18.8900 C   0  0  0  0  0  0  0  0  0  0  0  0
    5.5122    1.2431   17.6517 C   0  0  0  0  0  0  0  0  0  0  0  0
    6.6463    0.5658   17.4222 N   0  0  0  0  0  0  0  0  0  0  0  0
    7.1734   -0.1079   18.4517 C   0  0  0  0  0  0  0  0  0  0  0  0
    8.1163   -0.6197   18.2479 H   0  0  0  0  0  0  0  0  0  0  0  0
    5.1046    1.8006   16.8105 H   0  0  0  0  0  0  0  0  0  0  0  0
    3.9560    1.8416   19.0141 H   0  0  0  0  0  0  0  0  0  0  0  0
    4.9473    0.5643   20.9389 H   0  0  0  0  0  0  0  0  0  0  0  0
    8.2525   -1.3430   20.4469 H   0  0  0  0  0  0  0  0  0  0  0  0
    6.9122    0.7116   22.2495 H   0  0  0  0  0  0  0  0  0  0  0  0
    8.1009   -0.3049   24.0757 H   0  0  0  0  0  0  0  0  0  0  0  0
    9.2178   -1.1374   23.0058 H   0  0  0  0  0  0  0  0  0  0  0  0
    7.7322   -2.9522   23.0271 H   0  0  0  0  0  0  0  0  0  0  0  0
    6.4459   -1.9923   23.7543 H   0  0  0  0  0  0  0  0  0  0  0  0
    5.6491   -1.3417   21.7753 H   0  0  0  0  0  0  0  0  0  0  0  0
    5.5632   -3.7221   21.3257 H   0  0  0  0  0  0  0  0  0  0  0  0
    5.9907   -2.8319   19.8378 H   0  0  0  0  0  0  0  0  0  0  0  0
    7.2466   -3.6572   20.7653 H   0  0  0  0  0  0  0  0  0  0  0  0
  1  2  1  0
  2  3  1  0
  3  4  1  0
  4  5  1  0
  5  6  1  0
  6  7  1  0
  7  8  1  0
  8  9  2  0
  8 10  1  0
 10 11  1  0
 11 12  1  0
 12 13  1  0
 13 14  2  0
 14 15  1  0
 15 16  2  0
 16 17  1  0
 17 18  2  0
 18 19  1  0
 17 20  1  0
 16 21  1  0
 15 22  1  0
 14 23  1  0
 12 24  1  6
 11 25  1  0
 11 26  1  0
 10 27  1  1
  7 28  1  0
  6 29  1  0
  6 30  1  0
  5 31  1  0
 31 32  1  0
 32 33  2  0
 33 34  1  0
 34 35  2  0
 35 36  1  0
 36 37  2  0
 37 38  1  0
 35 39  1  0
 34 40  1  0
 33 41  1  0
 31 42  1  6
  5 43  1  1
  4 44  1  0
  4 45  1  0
  3 46  1  0
  3 47  1  0
  2 48  1  0
  1 49  1  0
  1 50  1  0
  1 51  1  0
 31  2  1  0
 37 32  1  0
 12 10  1  0
 18 13  1  0
M  CHG  1   2   1
M  END
>  <plip>  (1) 
-0.14285714285714285

>  <filename>  (1) 
[H][c]1[n][c]([H])[c]([C@@]2([H])[C@]([H])([C]([H])([H])[N]([H])[C](=[O])[C@]3([H])[C]([H])([H])[C@@]3([H])[c]3[c]([H])[c]([H])[c]([H])[c]([H])[c]3[F])[C]([H])([H])[C]([H])([H])[N+]2([H])[C]([H])([H])[H])[c]([H])[c]1[H]

$$$$
