
     RDKit          3D

 43 43  0  0  0  0  0  0  0  0999 V2000
    4.9558    1.8322   16.9666 H   0  0  0  0  0  0  0  0  0  0  0  0
    5.4112    1.3063   17.8020 C   0  0  0  0  0  0  0  0  0  0  0  0
    6.5682    0.6720   17.5411 N   0  0  0  0  0  0  0  0  0  0  0  0
    7.1640    0.0337   18.5633 C   0  0  0  0  0  0  0  0  0  0  0  0
    8.1119   -0.4600   18.3303 H   0  0  0  0  0  0  0  0  0  0  0  0
    6.6565   -0.0119   19.8891 C   0  0  0  0  0  0  0  0  0  0  0  0
    7.2823   -0.6845   20.9657 N   0  0  0  0  0  0  0  0  0  0  0  0
    7.7904   -1.5287   20.7382 H   0  0  0  0  0  0  0  0  0  0  0  0
    8.1194    0.0108   21.9423 C   0  0  0  0  0  0  0  0  0  0  0  0
    8.6533   -1.0372   22.7227 O   0  0  0  0  0  0  0  0  0  0  0  0
    7.7450   -1.7449   23.5622 C   0  0  0  0  0  0  0  0  0  0  0  0
    6.7772   -1.9236   23.0683 H   0  0  0  0  0  0  0  0  0  0  0  0
    7.5546   -1.1562   24.4725 H   0  0  0  0  0  0  0  0  0  0  0  0
    8.3785   -3.0894   23.9099 C   0  0  0  0  0  0  0  0  0  0  0  0
    8.7793   -3.5220   22.9867 H   0  0  0  0  0  0  0  0  0  0  0  0
    9.2541   -2.9115   24.5575 H   0  0  0  0  0  0  0  0  0  0  0  0
    7.4083   -4.0122   24.5089 N   0  0  0  0  0  0  0  0  0  0  0  0
    6.8571   -3.5484   25.7737 C   0  0  0  0  0  0  0  0  0  0  0  0
    6.3436   -2.5955   25.6045 H   0  0  0  0  0  0  0  0  0  0  0  0
    6.0681   -4.2479   26.0810 H   0  0  0  0  0  0  0  0  0  0  0  0
    7.8790   -3.4071   26.8942 C   0  0  0  0  0  0  0  0  0  0  0  0
    7.3541   -3.2746   27.8265 H   0  0  0  0  0  0  0  0  0  0  0  0
    8.5417   -2.5481   26.7527 H   0  0  0  0  0  0  0  0  0  0  0  0
    8.4918   -4.3088   26.9850 H   0  0  0  0  0  0  0  0  0  0  0  0
    7.8460   -5.4058   24.5255 C   0  0  0  0  0  0  0  0  0  0  0  0
    8.9153   -5.5181   24.7961 H   0  0  0  0  0  0  0  0  0  0  0  0
    7.2825   -5.9624   25.2884 H   0  0  0  0  0  0  0  0  0  0  0  0
    7.5477   -6.0335   23.1727 C   0  0  0  0  0  0  0  0  0  0  0  0
    7.9655   -5.4230   22.3689 H   0  0  0  0  0  0  0  0  0  0  0  0
    6.4654   -6.0719   23.0222 H   0  0  0  0  0  0  0  0  0  0  0  0
    7.9464   -7.0461   23.0870 H   0  0  0  0  0  0  0  0  0  0  0  0
    7.3297    1.0256   22.7660 C   0  0  0  0  0  0  0  0  0  0  0  0
    7.0354    1.8790   22.1505 H   0  0  0  0  0  0  0  0  0  0  0  0
    7.9365    1.4002   23.5968 H   0  0  0  0  0  0  0  0  0  0  0  0
    6.4258    0.5700   23.1796 H   0  0  0  0  0  0  0  0  0  0  0  0
    9.3213    0.6536   21.2666 C   0  0  0  0  0  0  0  0  0  0  0  0
    9.0027    1.4301   20.5665 H   0  0  0  0  0  0  0  0  0  0  0  0
    9.8645   -0.1178   20.7137 H   0  0  0  0  0  0  0  0  0  0  0  0
    9.9894    1.0878   22.0158 H   0  0  0  0  0  0  0  0  0  0  0  0
    5.4367    0.6443   20.1204 C   0  0  0  0  0  0  0  0  0  0  0  0
    5.0179    0.6276   21.1251 H   0  0  0  0  0  0  0  0  0  0  0  0
    4.8072    1.3080   19.0603 C   0  0  0  0  0  0  0  0  0  0  0  0
    3.8762    1.8424   19.2124 H   0  0  0  0  0  0  0  0  0  0  0  0
  1  2  1  0
  2  3  2  0
  3  4  1  0
  4  5  1  0
  4  6  2  0
  6  7  1  0
  7  8  1  0
  7  9  1  0
  9 10  1  0
 10 11  1  0
 11 12  1  0
 11 13  1  0
 11 14  1  0
 14 15  1  0
 14 16  1  0
 14 17  1  0
 17 18  1  0
 18 19  1  0
 18 20  1  0
 18 21  1  0
 21 22  1  0
 21 23  1  0
 21 24  1  0
 17 25  1  0
 25 26  1  0
 25 27  1  0
 25 28  1  0
 28 29  1  0
 28 30  1  0
 28 31  1  0
  9 32  1  0
 32 33  1  0
 32 34  1  0
 32 35  1  0
  9 36  1  0
 36 37  1  0
 36 38  1  0
 36 39  1  0
  6 40  1  0
 40 41  1  0
 40 42  2  0
 42 43  1  0
 42  2  1  0
M  END
>  <plip>  (1) 
-0.07142857142857142

>  <filename>  (1) 
[H][c]1[n][c]([H])[c]([N]([H])[C]([O][C]([H])([H])[C]([H])([H])[N]([C]([H])([H])[C]([H])([H])[H])[C]([H])([H])[C]([H])([H])[H])([C]([H])([H])[H])[C]([H])([H])[H])[c]([H])[c]1[H]

$$$$
