
     RDKit          3D

 35 37  0  0  0  0  0  0  0  0999 V2000
    6.0283   -2.6878   20.9823 O   0  0  0  0  0  0  0  0  0  0  0  0
    6.5670   -1.8612   21.6720 C   0  0  0  0  0  0  0  0  0  0  0  0
    6.4858   -1.9616   23.0157 O   0  0  0  0  0  0  0  0  0  0  0  0
    7.1713   -1.0397   23.8792 C   0  0  0  0  0  0  0  0  0  0  0  0
    7.2544    0.3787   23.3151 C   0  0  0  0  0  0  0  0  0  0  0  0
    7.9334    0.3122   22.0189 N   0  0  0  0  0  0  0  0  0  0  0  0
    8.8848    1.2190   21.5549 C   0  0  0  0  0  0  0  0  0  0  0  0
    9.7147    0.8780   20.7258 O   0  0  0  0  0  0  0  0  0  0  0  0
    8.8115    2.6325   22.0877 C   0  0  0  0  0  0  0  0  0  0  0  0
    7.5696    3.2943   22.1427 C   0  0  0  0  0  0  0  0  0  0  0  0
    7.5028    4.6477   22.4689 C   0  0  0  0  0  0  0  0  0  0  0  0
    8.6709    5.3578   22.7658 C   0  0  0  0  0  0  0  0  0  0  0  0
    9.9047    4.6992   22.7469 C   0  0  0  0  0  0  0  0  0  0  0  0
    9.9846    3.3494   22.3884 C   0  0  0  0  0  0  0  0  0  0  0  0
   10.9631    2.8851   22.2780 H   0  0  0  0  0  0  0  0  0  0  0  0
   10.8153    5.2614   22.9299 H   0  0  0  0  0  0  0  0  0  0  0  0
    8.6164    6.4281   22.9494 H   0  0  0  0  0  0  0  0  0  0  0  0
    6.5447    5.1547   22.4239 H   0  0  0  0  0  0  0  0  0  0  0  0
    6.6597    2.7723   21.8418 H   0  0  0  0  0  0  0  0  0  0  0  0
    7.4102   -0.6835   21.0472 C   0  0  0  0  0  0  0  0  0  0  0  0
    6.6578    0.0323   19.9009 C   0  0  0  0  0  0  0  0  0  0  0  0
    5.4334    0.6799   20.1267 C   0  0  0  0  0  0  0  0  0  0  0  0
    4.8046    1.3350   19.0627 C   0  0  0  0  0  0  0  0  0  0  0  0
    5.4290    1.3171   17.8090 C   0  0  0  0  0  0  0  0  0  0  0  0
    6.5998    0.7131   17.5693 N   0  0  0  0  0  0  0  0  0  0  0  0
    7.1983    0.1052   18.6072 C   0  0  0  0  0  0  0  0  0  0  0  0
    8.1611   -0.3561   18.3904 H   0  0  0  0  0  0  0  0  0  0  0  0
    4.9646    1.8086   16.9572 H   0  0  0  0  0  0  0  0  0  0  0  0
    3.8523    1.8475   19.1884 H   0  0  0  0  0  0  0  0  0  0  0  0
    4.9567    0.6731   21.1131 H   0  0  0  0  0  0  0  0  0  0  0  0
    8.2795   -1.2122   20.6306 H   0  0  0  0  0  0  0  0  0  0  0  0
    6.2432    0.8040   23.2182 H   0  0  0  0  0  0  0  0  0  0  0  0
    7.8179    1.0206   24.0009 H   0  0  0  0  0  0  0  0  0  0  0  0
    6.6032   -1.0648   24.8114 H   0  0  0  0  0  0  0  0  0  0  0  0
    8.1841   -1.4153   24.0638 H   0  0  0  0  0  0  0  0  0  0  0  0
  1  2  2  0
  2  3  1  0
  3  4  1  0
  4  5  1  0
  5  6  1  0
  6  7  1  0
  7  8  2  0
  7  9  1  0
  9 10  2  0
 10 11  1  0
 11 12  2  0
 12 13  1  0
 13 14  2  0
 14 15  1  0
 13 16  1  0
 12 17  1  0
 11 18  1  0
 10 19  1  0
  6 20  1  0
 20 21  1  0
 21 22  2  0
 22 23  1  0
 23 24  2  0
 24 25  1  0
 25 26  2  0
 26 27  1  0
 24 28  1  0
 23 29  1  0
 22 30  1  0
 20 31  1  0
  5 32  1  0
  5 33  1  0
  4 34  1  0
  4 35  1  0
 20  2  1  0
 26 21  1  0
 14  9  1  0
M  END
>  <plip>  (1) 
-0.10714285714285714

>  <filename>  (1) 
[H][c]1[n][c]([H])[c]([C]2([H])[C](=[O])[O][C]([H])([H])[C]([H])([H])[N]2[C](=[O])[c]2[c]([H])[c]([H])[c]([H])[c]([H])[c]2[H])[c]([H])[c]1[H]

$$$$
