
     RDKit          3D

 28 30  0  0  0  0  0  0  0  0999 V2000
    8.7486    0.2698   24.2801 H   0  0  0  0  0  0  0  0  0  0  0  0
    9.0181   -0.6912   24.1080 N   0  0  0  0  0  0  0  0  0  0  0  0
    8.5308   -1.0049   22.9810 C   0  0  0  0  0  0  0  0  0  0  0  0
    8.5033   -2.6103   22.2617 S   0  0  0  0  0  0  0  0  0  0  0  0
    7.5592   -2.0317   20.9176 C   0  0  0  0  0  0  0  0  0  0  0  0
    7.1554   -2.7009   20.1728 H   0  0  0  0  0  0  0  0  0  0  0  0
    7.3531   -0.7062   20.9682 C   0  0  0  0  0  0  0  0  0  0  0  0
    6.6495    0.0662   19.9234 C   0  0  0  0  0  0  0  0  0  0  0  0
    7.1604    0.0790   18.6113 C   0  0  0  0  0  0  0  0  0  0  0  0
    8.1056   -0.4136   18.3740 H   0  0  0  0  0  0  0  0  0  0  0  0
    6.5585    0.6815   17.5790 N   0  0  0  0  0  0  0  0  0  0  0  0
    5.3953    1.3046   17.8269 C   0  0  0  0  0  0  0  0  0  0  0  0
    4.9337    1.8052   16.9829 H   0  0  0  0  0  0  0  0  0  0  0  0
    4.7837    1.3378   19.0847 C   0  0  0  0  0  0  0  0  0  0  0  0
    3.8401    1.8566   19.2153 H   0  0  0  0  0  0  0  0  0  0  0  0
    5.4255    0.7163   20.1547 C   0  0  0  0  0  0  0  0  0  0  0  0
    4.9968    0.7097   21.1624 H   0  0  0  0  0  0  0  0  0  0  0  0
    7.8927   -0.1108   22.1162 N   0  0  0  0  0  0  0  0  0  0  0  0
    7.8088    1.2879   22.4883 C   0  0  0  0  0  0  0  0  0  0  0  0
    8.7876    1.6933   22.7706 H   0  0  0  0  0  0  0  0  0  0  0  0
    7.4599    1.8517   21.6240 H   0  0  0  0  0  0  0  0  0  0  0  0
    6.9102    1.5105   23.6183 N   0  0  0  0  0  0  0  0  0  0  0  0
    6.9586    2.6127   24.4055 N   0  0  0  0  0  0  0  0  0  0  0  0
    5.9206    2.4313   25.2039 C   0  0  0  0  0  0  0  0  0  0  0  0
    5.6791    3.1356   25.9895 H   0  0  0  0  0  0  0  0  0  0  0  0
    5.1998    1.3020   24.9736 N   0  0  0  0  0  0  0  0  0  0  0  0
    5.8609    0.7554   23.9798 C   0  0  0  0  0  0  0  0  0  0  0  0
    5.6796   -0.1873   23.5086 H   0  0  0  0  0  0  0  0  0  0  0  0
  1  2  1  0
  2  3  2  3
  3  4  1  0
  4  5  1  0
  5  6  1  0
  5  7  2  0
  7  8  1  0
  8  9  2  0
  9 10  1  0
  9 11  1  0
 11 12  2  0
 12 13  1  0
 12 14  1  0
 14 15  1  0
 14 16  2  0
 16 17  1  0
  7 18  1  0
 18 19  1  0
 19 20  1  0
 19 21  1  0
 19 22  1  0
 22 23  1  0
 23 24  2  0
 24 25  1  0
 24 26  1  0
 26 27  2  0
 27 28  1  0
 18  3  1  0
 27 22  1  0
 16  8  1  0
M  END
>  <plip>  (1) 
-0.07142857142857142

>  <filename>  (1) 
[H][N]=[c]1[s][c]([H])[c](-[c]2[c]([H])[n][c]([H])[c]([H])[c]2[H])[n]1[C]([H])([H])[n]1[n][c]([H])[n][c]1[H]

$$$$
