
     RDKit          3D

 42 44  0  0  0  0  0  0  0  0999 V2000
   10.1550    0.3729   22.1138 O   0  0  0  0  0  0  0  0  0  0  0  0
    8.9238    1.1410   22.0239 S   0  0  0  0  0  0  0  0  0  0  0  0
    8.6911    2.0113   20.8898 O   0  0  0  0  0  0  0  0  0  0  0  0
    8.7589    1.9846   23.4643 N   0  0  0  0  0  0  0  0  0  0  0  0
    9.9836    2.7630   23.7511 C   0  0  0  0  0  0  0  0  0  0  0  0
    9.9689    4.1544   23.1154 C   0  0  0  0  0  0  0  0  0  0  0  0
    9.3318    5.2149   24.0132 C   0  0  0  0  0  0  0  0  0  0  0  0
    7.9391    5.0832   24.2347 O   0  0  0  0  0  0  0  0  0  0  0  0
    7.4455    3.8236   24.6547 C   0  0  0  0  0  0  0  0  0  0  0  0
    7.4663    2.7261   23.5697 C   0  0  0  0  0  0  0  0  0  0  0  0
    6.7024    1.9841   23.8281 H   0  0  0  0  0  0  0  0  0  0  0  0
    7.1652    3.1978   22.6211 H   0  0  0  0  0  0  0  0  0  0  0  0
    7.9720    3.4490   25.5460 H   0  0  0  0  0  0  0  0  0  0  0  0
    6.4087    4.0203   24.9380 H   0  0  0  0  0  0  0  0  0  0  0  0
    9.8657    5.2501   24.9786 H   0  0  0  0  0  0  0  0  0  0  0  0
    9.4387    6.2018   23.5561 H   0  0  0  0  0  0  0  0  0  0  0  0
   10.9967    4.4640   22.8967 H   0  0  0  0  0  0  0  0  0  0  0  0
    9.4207    4.1125   22.1671 H   0  0  0  0  0  0  0  0  0  0  0  0
   10.0652    2.8444   24.8426 H   0  0  0  0  0  0  0  0  0  0  0  0
   10.8629    2.1862   23.4514 H   0  0  0  0  0  0  0  0  0  0  0  0
    7.6484    0.0812   22.1984 N   0  0  0  0  0  0  0  0  0  0  0  0
    7.7218   -0.7885   23.3804 C   0  0  0  0  0  0  0  0  0  0  0  0
    7.0875   -2.1326   22.9472 C   0  0  0  0  0  0  0  0  0  0  0  0
    6.8162   -2.0183   21.4308 C   0  0  0  0  0  0  0  0  0  0  0  0
    7.5013   -0.7125   20.9773 C   0  0  0  0  0  0  0  0  0  0  0  0
    6.7567    0.0811   19.9461 C   0  0  0  0  0  0  0  0  0  0  0  0
    5.5385    0.7348   20.1885 C   0  0  0  0  0  0  0  0  0  0  0  0
    4.8763    1.3332   19.1142 C   0  0  0  0  0  0  0  0  0  0  0  0
    5.4687    1.2795   17.8468 C   0  0  0  0  0  0  0  0  0  0  0  0
    6.6380    0.6742   17.6021 N   0  0  0  0  0  0  0  0  0  0  0  0
    7.2569    0.1072   18.6463 C   0  0  0  0  0  0  0  0  0  0  0  0
    8.2113   -0.3755   18.4289 H   0  0  0  0  0  0  0  0  0  0  0  0
    4.9894    1.7458   16.9886 H   0  0  0  0  0  0  0  0  0  0  0  0
    3.9344    1.8526   19.2442 H   0  0  0  0  0  0  0  0  0  0  0  0
    5.1283    0.7838   21.2027 H   0  0  0  0  0  0  0  0  0  0  0  0
    8.4941   -0.9931   20.5759 H   0  0  0  0  0  0  0  0  0  0  0  0
    5.7382   -1.9908   21.2336 H   0  0  0  0  0  0  0  0  0  0  0  0
    7.2240   -2.8547   20.8547 H   0  0  0  0  0  0  0  0  0  0  0  0
    7.7534   -2.9637   23.1952 H   0  0  0  0  0  0  0  0  0  0  0  0
    6.1594   -2.3164   23.4986 H   0  0  0  0  0  0  0  0  0  0  0  0
    7.1578   -0.3260   24.2007 H   0  0  0  0  0  0  0  0  0  0  0  0
    8.7612   -0.9143   23.7175 H   0  0  0  0  0  0  0  0  0  0  0  0
  1  2  2  0
  2  3  2  0
  2  4  1  0
  4  5  1  0
  5  6  1  0
  6  7  1  0
  7  8  1  0
  8  9  1  0
  9 10  1  0
 10 11  1  0
 10 12  1  0
  9 13  1  0
  9 14  1  0
  7 15  1  0
  7 16  1  0
  6 17  1  0
  6 18  1  0
  5 19  1  0
  5 20  1  0
  2 21  1  0
 21 22  1  0
 22 23  1  0
 23 24  1  0
 24 25  1  0
 25 26  1  0
 26 27  2  0
 27 28  1  0
 28 29  2  0
 29 30  1  0
 30 31  2  0
 31 32  1  0
 29 33  1  0
 28 34  1  0
 27 35  1  0
 25 36  1  0
 24 37  1  0
 24 38  1  0
 23 39  1  0
 23 40  1  0
 22 41  1  0
 22 42  1  0
 10  4  1  0
 25 21  1  0
 31 26  1  0
M  END
>  <plip>  (1) 
-0.07142857142857142

>  <filename>  (1) 
[H][c]1[n][c]([H])[c]([C]2([H])[N]([S](=[O])(=[O])[N]3[C]([H])([H])[C]([H])([H])[O][C]([H])([H])[C]([H])([H])[C]3([H])[H])[C]([H])([H])[C]([H])([H])[C]2([H])[H])[c]([H])[c]1[H]

$$$$
