
     RDKit          3D

 22 23  0  0  0  0  0  0  0  0999 V2000
    4.9172    1.8548   16.8371 H   0  0  0  0  0  0  0  0  0  0  0  0
    5.3269    1.3890   17.7311 C   0  0  0  0  0  0  0  0  0  0  0  0
    6.4967    0.7563   17.5673 N   0  0  0  0  0  0  0  0  0  0  0  0
    7.0319    0.1772   18.6452 C   0  0  0  0  0  0  0  0  0  0  0  0
    7.9801   -0.3318   18.4945 H   0  0  0  0  0  0  0  0  0  0  0  0
    6.4484    0.1992   19.9113 C   0  0  0  0  0  0  0  0  0  0  0  0
    7.2479   -0.5089   20.9642 C   0  0  0  0  0  0  0  0  0  0  0  0
    7.1143   -1.9683   20.7469 N   0  0  0  0  0  0  0  0  0  0  0  0
    7.6924   -2.7479   21.4736 C   0  0  0  0  0  0  0  0  0  0  0  0
    8.5374   -3.7057   22.3801 S   0  0  0  0  0  0  0  0  0  0  0  0
    6.8458   -0.1847   22.2617 O   0  0  0  0  0  0  0  0  0  0  0  0
    7.9390    0.4321   22.9341 C   0  0  0  0  0  0  0  0  0  0  0  0
    7.9502    0.0928   23.9729 H   0  0  0  0  0  0  0  0  0  0  0  0
    7.8271    1.5209   22.9169 H   0  0  0  0  0  0  0  0  0  0  0  0
    9.1555   -0.0131   22.1343 C   0  0  0  0  0  0  0  0  0  0  0  0
    9.5637   -0.9562   22.5093 H   0  0  0  0  0  0  0  0  0  0  0  0
    9.9582    0.7300   22.0642 H   0  0  0  0  0  0  0  0  0  0  0  0
    8.6049   -0.1554   20.8392 O   0  0  0  0  0  0  0  0  0  0  0  0
    5.2338    0.8739   20.0823 C   0  0  0  0  0  0  0  0  0  0  0  0
    4.7493    0.9285   21.0620 H   0  0  0  0  0  0  0  0  0  0  0  0
    4.6582    1.4691   18.9579 C   0  0  0  0  0  0  0  0  0  0  0  0
    3.7115    1.9949   19.0074 H   0  0  0  0  0  0  0  0  0  0  0  0
  1  2  1  0
  2  3  2  0
  3  4  1  0
  4  5  1  0
  4  6  2  0
  6  7  1  0
  7  8  1  0
  8  9  2  0
  9 10  2  0
  7 11  1  0
 11 12  1  0
 12 13  1  0
 12 14  1  0
 12 15  1  0
 15 16  1  0
 15 17  1  0
 15 18  1  0
  6 19  1  0
 19 20  1  0
 19 21  2  0
 21 22  1  0
 21  2  1  0
 18  7  1  0
M  END
>  <plip>  (1) 
-0.07142857142857142

>  <filename>  (1) 
[H][c]1[n][c]([H])[c]([C]2([N]=[C]=[S])[O][C]([H])([H])[C]([H])([H])[O]2)[c]([H])[c]1[H]

$$$$
