
     RDKit          3D

 28 29  0  0  0  0  0  0  0  0999 V2000
    5.7012   -1.1091   24.1678 H   0  0  0  0  0  0  0  0  0  0  0  0
    5.7447   -0.5758   24.9787 O   0  0  0  0  0  0  0  0  0  0  0  0
    5.6687    0.7899   24.5924 C   0  0  0  0  0  0  0  0  0  0  0  0
    4.9501    0.9218   23.7707 H   0  0  0  0  0  0  0  0  0  0  0  0
    5.2723    1.3388   25.4573 H   0  0  0  0  0  0  0  0  0  0  0  0
    7.0229    1.4181   24.2241 C   0  0  0  0  0  0  0  0  0  0  0  0
    7.7737    0.9981   24.9042 H   0  0  0  0  0  0  0  0  0  0  0  0
    6.9916    2.4935   24.4258 H   0  0  0  0  0  0  0  0  0  0  0  0
    7.5157    1.2685   22.8480 N   0  0  0  0  0  0  0  0  0  0  0  0
    6.9248    1.7526   22.1763 H   0  0  0  0  0  0  0  0  0  0  0  0
    7.5543   -0.0767   22.4309 N   0  0  0  0  0  0  0  0  0  0  0  0
    8.2178   -1.0368   23.1366 C   0  0  0  0  0  0  0  0  0  0  0  0
    8.6900   -0.7780   24.0727 H   0  0  0  0  0  0  0  0  0  0  0  0
    8.1832   -2.2126   22.4299 C   0  0  0  0  0  0  0  0  0  0  0  0
    8.5923   -3.1556   22.7795 H   0  0  0  0  0  0  0  0  0  0  0  0
    7.5075   -1.9237   21.2149 C   0  0  0  0  0  0  0  0  0  0  0  0
    7.3028   -2.5843   20.3851 H   0  0  0  0  0  0  0  0  0  0  0  0
    7.1453   -0.5983   21.2167 C   0  0  0  0  0  0  0  0  0  0  0  0
    6.5036    0.1449   20.1070 C   0  0  0  0  0  0  0  0  0  0  0  0
    7.1221    0.1085   18.8402 C   0  0  0  0  0  0  0  0  0  0  0  0
    8.0897   -0.3809   18.7406 H   0  0  0  0  0  0  0  0  0  0  0  0
    6.6279    0.6823   17.7340 N   0  0  0  0  0  0  0  0  0  0  0  0
    5.4600    1.3313   17.8601 C   0  0  0  0  0  0  0  0  0  0  0  0
    5.0595    1.7793   16.9532 H   0  0  0  0  0  0  0  0  0  0  0  0
    4.7544    1.4410   19.0657 C   0  0  0  0  0  0  0  0  0  0  0  0
    3.8265    2.0022   19.1051 H   0  0  0  0  0  0  0  0  0  0  0  0
    5.2894    0.8405   20.2114 C   0  0  0  0  0  0  0  0  0  0  0  0
    4.7568    0.8808   21.1642 H   0  0  0  0  0  0  0  0  0  0  0  0
  1  2  1  0
  2  3  1  0
  3  4  1  0
  3  5  1  0
  3  6  1  0
  6  7  1  0
  6  8  1  0
  6  9  1  0
  9 10  1  0
  9 11  1  0
 11 12  1  0
 12 13  1  0
 12 14  2  0
 14 15  1  0
 14 16  1  0
 16 17  1  0
 16 18  2  0
 18 19  1  0
 19 20  2  0
 20 21  1  0
 20 22  1  0
 22 23  2  0
 23 24  1  0
 23 25  1  0
 25 26  1  0
 25 27  2  0
 27 28  1  0
 18 11  1  0
 27 19  1  0
M  END
>  <plip>  (1) 
-0.10714285714285714

>  <filename>  (1) 
[H][O][C]([H])([H])[C]([H])([H])[N]([H])[n]1[c]([H])[c]([H])[c]([H])[c]1-[c]1[c]([H])[n][c]([H])[c]([H])[c]1[H]

$$$$
