
     RDKit          3D

 31 33  0  0  0  0  0  0  0  0999 V2000
    4.9408    1.7945   16.9861 H   0  0  0  0  0  0  0  0  0  0  0  0
    5.4040    1.2946   17.8361 C   0  0  0  0  0  0  0  0  0  0  0  0
    6.5716    0.6818   17.5873 N   0  0  0  0  0  0  0  0  0  0  0  0
    7.1695    0.0705   18.6187 C   0  0  0  0  0  0  0  0  0  0  0  0
    8.1255   -0.4065   18.4068 H   0  0  0  0  0  0  0  0  0  0  0  0
    6.6387    0.0038   19.9118 C   0  0  0  0  0  0  0  0  0  0  0  0
    7.4196   -0.6898   20.9813 C   0  0  0  0  0  0  0  0  0  0  0  0
    8.5904    0.0156   21.4876 N   0  0  0  0  0  0  0  0  0  0  0  0
    8.8219   -0.4261   22.3753 H   0  0  0  0  0  0  0  0  0  0  0  0
    8.4819    1.4131   21.6989 N   0  0  0  0  0  0  0  0  0  0  0  0
    8.7876    1.9916   20.9255 H   0  0  0  0  0  0  0  0  0  0  0  0
    7.5352    2.0286   22.4814 C   0  0  0  0  0  0  0  0  0  0  0  0
    6.9352    1.3956   23.5792 C   0  0  0  0  0  0  0  0  0  0  0  0
    7.1940    0.3747   23.8296 H   0  0  0  0  0  0  0  0  0  0  0  0
    6.0269    2.1112   24.3474 C   0  0  0  0  0  0  0  0  0  0  0  0
    5.5701    1.6535   25.2264 H   0  0  0  0  0  0  0  0  0  0  0  0
    5.6603    3.3742   24.0900 N   0  0  0  0  0  0  0  0  0  0  0  0
    6.2328    3.9708   23.0346 C   0  0  0  0  0  0  0  0  0  0  0  0
    5.9231    4.9992   22.8417 H   0  0  0  0  0  0  0  0  0  0  0  0
    7.1782    3.3642   22.2160 C   0  0  0  0  0  0  0  0  0  0  0  0
    7.6298    3.9357   21.4158 H   0  0  0  0  0  0  0  0  0  0  0  0
    6.7119   -1.6355   21.9205 C   0  0  0  0  0  0  0  0  0  0  0  0
    7.0237   -1.7076   22.9599 H   0  0  0  0  0  0  0  0  0  0  0  0
    5.6426   -1.7563   21.7750 H   0  0  0  0  0  0  0  0  0  0  0  0
    7.6041   -2.1662   20.8359 C   0  0  0  0  0  0  0  0  0  0  0  0
    7.0608   -2.6119   20.0116 H   0  0  0  0  0  0  0  0  0  0  0  0
    8.5779   -2.6081   21.0341 H   0  0  0  0  0  0  0  0  0  0  0  0
    5.4269    0.6608   20.1576 C   0  0  0  0  0  0  0  0  0  0  0  0
    5.0261    0.6502   21.1737 H   0  0  0  0  0  0  0  0  0  0  0  0
    4.7924    1.3143   19.0974 C   0  0  0  0  0  0  0  0  0  0  0  0
    3.8543    1.8479   19.2291 H   0  0  0  0  0  0  0  0  0  0  0  0
  1  2  1  0
  2  3  2  0
  3  4  1  0
  4  5  1  0
  4  6  2  0
  6  7  1  0
  7  8  1  0
  8  9  1  0
  8 10  1  0
 10 11  1  0
 10 12  1  0
 12 13  2  0
 13 14  1  0
 13 15  1  0
 15 16  1  0
 15 17  2  0
 17 18  1  0
 18 19  1  0
 18 20  2  0
 20 21  1  0
  7 22  1  0
 22 23  1  0
 22 24  1  0
 22 25  1  0
 25 26  1  0
 25 27  1  0
  6 28  1  0
 28 29  1  0
 28 30  2  0
 30 31  1  0
 30  2  1  0
 25  7  1  0
 20 12  1  0
M  END
>  <plip>  (1) 
-0.10714285714285714

>  <filename>  (1) 
[H][c]1[n][c]([H])[c]([C]2([N]([H])[N]([H])[c]3[c]([H])[c]([H])[n][c]([H])[c]3[H])[C]([H])([H])[C]2([H])[H])[c]([H])[c]1[H]

$$$$
