
     RDKit          3D

 25 26  0  0  0  0  0  0  0  0999 V2000
    9.0450    1.1483   20.2688 H   0  0  0  0  0  0  0  0  0  0  0  0
    9.4636    0.5973   20.9411 O   0  0  0  0  0  0  0  0  0  0  0  0
    8.3951    0.1853   21.7725 C   0  0  1  0  0  0  0  0  0  0  0  0
    8.8618   -0.4191   22.5566 H   0  0  0  0  0  0  0  0  0  0  0  0
    7.6959    1.3434   22.4402 C   0  0  0  0  0  0  0  0  0  0  0  0
    7.5128    2.5978   21.9518 C   0  0  0  0  0  0  0  0  0  0  0  0
    7.8380    3.1181   21.0704 H   0  0  0  0  0  0  0  0  0  0  0  0
    6.7402    3.3337   22.7831 O   0  0  0  0  0  0  0  0  0  0  0  0
    6.4226    2.5465   23.8396 C   0  0  0  0  0  0  0  0  0  0  0  0
    5.8311    3.0259   24.6071 H   0  0  0  0  0  0  0  0  0  0  0  0
    6.9660    1.3149   23.6871 C   0  0  0  0  0  0  0  0  0  0  0  0
    6.8756    0.4793   24.3712 H   0  0  0  0  0  0  0  0  0  0  0  0
    7.4025   -0.7255   20.9876 C   0  0  0  0  0  0  0  0  0  0  0  0
    6.6957   -1.1465   21.7139 H   0  0  0  0  0  0  0  0  0  0  0  0
    7.9905   -1.5583   20.5842 H   0  0  0  0  0  0  0  0  0  0  0  0
    6.6330   -0.0301   19.8830 C   0  0  0  0  0  0  0  0  0  0  0  0
    7.1509    0.0532   18.5766 C   0  0  0  0  0  0  0  0  0  0  0  0
    8.1109   -0.4138   18.3575 H   0  0  0  0  0  0  0  0  0  0  0  0
    6.5574    0.6870   17.5560 N   0  0  0  0  0  0  0  0  0  0  0  0
    5.3982    1.3041   17.8271 C   0  0  0  0  0  0  0  0  0  0  0  0
    4.9191    1.7972   16.9847 H   0  0  0  0  0  0  0  0  0  0  0  0
    4.8014    1.3149   19.0944 C   0  0  0  0  0  0  0  0  0  0  0  0
    3.8711    1.8488   19.2436 H   0  0  0  0  0  0  0  0  0  0  0  0
    5.4231    0.6324   20.1425 C   0  0  0  0  0  0  0  0  0  0  0  0
    5.0201    0.6408   21.1620 H   0  0  0  0  0  0  0  0  0  0  0  0
  1  2  1  0
  2  3  1  0
  3  4  1  1
  3  5  1  0
  5  6  2  0
  6  7  1  0
  6  8  1  0
  8  9  1  0
  9 10  1  0
  9 11  2  0
 11 12  1  0
  3 13  1  0
 13 14  1  0
 13 15  1  0
 13 16  1  0
 16 17  2  0
 17 18  1  0
 17 19  1  0
 19 20  2  0
 20 21  1  0
 20 22  1  0
 22 23  1  0
 22 24  2  0
 24 25  1  0
 11  5  1  0
 24 16  1  0
M  END
>  <plip>  (1) 
-0.07142857142857142

>  <filename>  (1) 
[H][O][C@@]([H])([c]1[c]([H])[o][c]([H])[c]1[H])[C]([H])([H])[c]1[c]([H])[n][c]([H])[c]([H])[c]1[H]

$$$$
