
     RDKit          3D

 30 32  0  0  0  0  0  0  0  0999 V2000
    4.9237    1.7800   16.9984 H   0  0  0  0  0  0  0  0  0  0  0  0
    5.4089    1.2924   17.8416 C   0  0  0  0  0  0  0  0  0  0  0  0
    6.5709    0.6698   17.5886 N   0  0  0  0  0  0  0  0  0  0  0  0
    7.1683    0.0437   18.6057 C   0  0  0  0  0  0  0  0  0  0  0  0
    8.1148   -0.4362   18.3761 H   0  0  0  0  0  0  0  0  0  0  0  0
    6.6580    0.0100   19.9131 C   0  0  0  0  0  0  0  0  0  0  0  0
    7.3842   -0.6979   20.9690 C   0  0  0  0  0  0  0  0  0  0  0  0
    7.8376   -1.9800   20.8079 N   0  0  0  0  0  0  0  0  0  0  0  0
    8.3672   -2.3260   21.9504 C   0  0  0  0  0  0  0  0  0  0  0  0
    8.8039   -3.2930   22.1906 H   0  0  0  0  0  0  0  0  0  0  0  0
    8.3177   -1.3048   22.8413 N   0  0  0  0  0  0  0  0  0  0  0  0
    8.6271   -1.3159   23.7954 H   0  0  0  0  0  0  0  0  0  0  0  0
    7.6803   -0.2430   22.2339 C   0  0  0  0  0  0  0  0  0  0  0  0
    7.4620    1.1178   22.8077 C   0  0  1  0  0  0  0  0  0  0  0  0
    6.3814    1.2443   22.9766 H   0  0  0  0  0  0  0  0  0  0  0  0
    8.1467    1.3240   24.0848 N   0  0  0  0  0  0  0  0  0  0  0  0
    9.0920    0.9764   23.9452 H   0  0  0  0  0  0  0  0  0  0  0  0
    8.2306    2.7750   24.2562 C   0  0  0  0  0  0  0  0  0  0  0  0
    7.3356    3.1247   24.7864 H   0  0  0  0  0  0  0  0  0  0  0  0
    9.0850    3.0278   24.8915 H   0  0  0  0  0  0  0  0  0  0  0  0
    8.3182    3.4013   22.8469 C   0  0  0  0  0  0  0  0  0  0  0  0
    9.3275    3.7679   22.6392 H   0  0  0  0  0  0  0  0  0  0  0  0
    7.6378    4.2520   22.7587 H   0  0  0  0  0  0  0  0  0  0  0  0
    7.9363    2.2645   21.8832 C   0  0  0  0  0  0  0  0  0  0  0  0
    8.7975    1.9306   21.2969 H   0  0  0  0  0  0  0  0  0  0  0  0
    7.1599    2.5444   21.1663 H   0  0  0  0  0  0  0  0  0  0  0  0
    5.4360    0.6579   20.1609 C   0  0  0  0  0  0  0  0  0  0  0  0
    4.9865    0.6385   21.1599 H   0  0  0  0  0  0  0  0  0  0  0  0
    4.8076    1.3136   19.1055 C   0  0  0  0  0  0  0  0  0  0  0  0
    3.8729    1.8427   19.2592 H   0  0  0  0  0  0  0  0  0  0  0  0
  1  2  1  0
  2  3  2  0
  3  4  1  0
  4  5  1  0
  4  6  2  0
  6  7  1  0
  7  8  1  0
  8  9  2  0
  9 10  1  0
  9 11  1  0
 11 12  1  0
 11 13  1  0
 13 14  1  0
 14 15  1  1
 14 16  1  0
 16 17  1  0
 16 18  1  0
 18 19  1  0
 18 20  1  0
 18 21  1  0
 21 22  1  0
 21 23  1  0
 21 24  1  0
 24 25  1  0
 24 26  1  0
  6 27  1  0
 27 28  1  0
 27 29  2  0
 29 30  1  0
 29  2  1  0
 13  7  2  0
 24 14  1  0
M  END
>  <plip>  (1) 
-0.0

>  <filename>  (1) 
[H][c]1[n][c]([H])[c](-[c]2[n][c]([H])[n]([H])[c]2[C@@]2([H])[N]([H])[C]([H])([H])[C]([H])([H])[C]2([H])[H])[c]([H])[c]1[H]

$$$$
