
     RDKit          3D

 30 32  0  0  0  0  0  0  0  0999 V2000
    4.9103    1.8168   16.9619 H   0  0  0  0  0  0  0  0  0  0  0  0
    5.3719    1.3112   17.8154 C   0  0  0  0  0  0  0  0  0  0  0  0
    6.5338    0.6834   17.5731 N   0  0  0  0  0  0  0  0  0  0  0  0
    7.1518    0.0909   18.6026 C   0  0  0  0  0  0  0  0  0  0  0  0
    8.0948   -0.3922   18.3464 H   0  0  0  0  0  0  0  0  0  0  0  0
    6.6700    0.0700   19.9334 C   0  0  0  0  0  0  0  0  0  0  0  0
    7.4088   -0.6224   21.0168 C   0  0  0  0  0  0  0  0  0  0  0  0
    8.0589   -1.8155   20.9891 C   0  0  0  0  0  0  0  0  0  0  0  0
    8.0806   -2.4252   20.1330 H   0  0  0  0  0  0  0  0  0  0  0  0
    8.6079   -2.1757   22.1870 N   0  0  0  0  0  0  0  0  0  0  0  0
    8.2959   -1.1949   22.9848 C   0  0  0  0  0  0  0  0  0  0  0  0
    8.5723   -1.1067   24.0324 H   0  0  0  0  0  0  0  0  0  0  0  0
    7.5578   -0.2236   22.3475 N   0  0  0  0  0  0  0  0  0  0  0  0
    7.1352    0.9356   22.8959 C   0  0  0  0  0  0  0  0  0  0  0  0
    6.7400    1.9917   23.3117 C   0  0  0  0  0  0  0  0  0  0  0  0
    6.2995    3.2394   23.8504 C   0  0  0  0  0  0  0  0  0  0  0  0
    5.3576    4.0208   23.1609 C   0  0  0  0  0  0  0  0  0  0  0  0
    4.9816    3.6677   22.2023 H   0  0  0  0  0  0  0  0  0  0  0  0
    4.9314    5.2295   23.7087 C   0  0  0  0  0  0  0  0  0  0  0  0
    4.2054    5.8301   23.1714 H   0  0  0  0  0  0  0  0  0  0  0  0
    5.4468    5.6569   24.9366 C   0  0  0  0  0  0  0  0  0  0  0  0
    5.1174    6.5977   25.3584 H   0  0  0  0  0  0  0  0  0  0  0  0
    6.3884    4.8826   25.6231 C   0  0  0  0  0  0  0  0  0  0  0  0
    6.7916    5.2129   26.5735 H   0  0  0  0  0  0  0  0  0  0  0  0
    6.8181    3.6727   25.0838 C   0  0  0  0  0  0  0  0  0  0  0  0
    7.5494    3.0493   25.5928 H   0  0  0  0  0  0  0  0  0  0  0  0
    5.4277    0.6910   20.1426 C   0  0  0  0  0  0  0  0  0  0  0  0
    4.9920    0.6494   21.1359 H   0  0  0  0  0  0  0  0  0  0  0  0
    4.7788    1.3304   19.0804 C   0  0  0  0  0  0  0  0  0  0  0  0
    3.8408    1.8573   19.2133 H   0  0  0  0  0  0  0  0  0  0  0  0
  1  2  1  0
  2  3  2  0
  3  4  1  0
  4  5  1  0
  4  6  2  0
  6  7  1  0
  7  8  2  0
  8  9  1  0
  8 10  1  0
 10 11  2  0
 11 12  1  0
 11 13  1  0
 13 14  1  0
 14 15  3  0
 15 16  1  0
 16 17  2  0
 17 18  1  0
 17 19  1  0
 19 20  1  0
 19 21  2  0
 21 22  1  0
 21 23  1  0
 23 24  1  0
 23 25  2  0
 25 26  1  0
  6 27  1  0
 27 28  1  0
 27 29  2  0
 29 30  1  0
 29  2  1  0
 13  7  1  0
 25 16  1  0
M  END
>  <plip>  (1) 
-0.0

>  <filename>  (1) 
[H][c]1[n][c]([H])[c](-[c]2[c]([H])[n][c]([H])[n]2[C]#[C][c]2[c]([H])[c]([H])[c]([H])[c]([H])[c]2[H])[c]([H])[c]1[H]

$$$$
