
     RDKit          3D

 35 37  0  0  0  0  0  0  0  0999 V2000
    4.9458    1.7974   16.9249 H   0  0  0  0  0  0  0  0  0  0  0  0
    5.4052    1.3028   17.7778 C   0  0  0  0  0  0  0  0  0  0  0  0
    6.5650    0.6726   17.5302 N   0  0  0  0  0  0  0  0  0  0  0  0
    7.1522    0.0480   18.5561 C   0  0  0  0  0  0  0  0  0  0  0  0
    8.1061   -0.4284   18.3284 H   0  0  0  0  0  0  0  0  0  0  0  0
    6.6295    0.0106   19.8678 C   0  0  0  0  0  0  0  0  0  0  0  0
    7.3302   -0.6863   20.9613 C   0  0  0  0  0  0  0  0  0  0  0  0
    7.3688   -0.4807   22.3311 C   0  0  0  0  0  0  0  0  0  0  0  0
    6.5940    0.4213   23.0295 O   0  0  0  0  0  0  0  0  0  0  0  0
    6.9683    0.4994   24.3854 N   0  0  0  0  0  0  0  0  0  0  0  0
    7.2115    1.4353   24.6645 H   0  0  0  0  0  0  0  0  0  0  0  0
    6.2596   -0.1879   25.3507 C   0  0  0  0  0  0  0  0  0  0  0  0
    6.3964    0.3640   26.9052 S   0  0  0  0  0  0  0  0  0  0  0  0
    5.6367   -1.2810   24.8801 N   0  0  0  0  0  0  0  0  0  0  0  0
    5.5477   -1.2883   23.8734 H   0  0  0  0  0  0  0  0  0  0  0  0
    4.8381   -2.2498   25.5380 C   0  0  0  0  0  0  0  0  0  0  0  0
    4.8486   -3.5488   25.0158 C   0  0  0  0  0  0  0  0  0  0  0  0
    5.4941   -3.7711   24.1713 H   0  0  0  0  0  0  0  0  0  0  0  0
    4.0598   -4.5436   25.6095 C   0  0  0  0  0  0  0  0  0  0  0  0
    4.0796   -5.5572   25.2164 H   0  0  0  0  0  0  0  0  0  0  0  0
    3.2512   -4.2353   26.7073 C   0  0  0  0  0  0  0  0  0  0  0  0
    2.6353   -5.0040   27.1711 H   0  0  0  0  0  0  0  0  0  0  0  0
    3.2157   -2.9225   27.1915 C   0  0  0  0  0  0  0  0  0  0  0  0
    2.5754   -2.6620   28.0280 H   0  0  0  0  0  0  0  0  0  0  0  0
    4.0114   -1.9272   26.6107 C   0  0  0  0  0  0  0  0  0  0  0  0
    4.0238   -0.9093   26.9844 H   0  0  0  0  0  0  0  0  0  0  0  0
    8.2857   -1.4156   22.8548 C   0  0  0  0  0  0  0  0  0  0  0  0
    8.5837   -1.5641   23.8820 H   0  0  0  0  0  0  0  0  0  0  0  0
    8.7709   -2.1864   21.8891 N   0  0  0  0  0  0  0  0  0  0  0  0
    8.1956   -1.7269   20.7720 N   0  0  0  0  0  0  0  0  0  0  0  0
    8.3426   -2.2242   19.9029 H   0  0  0  0  0  0  0  0  0  0  0  0
    5.4288    0.6995   20.1102 C   0  0  0  0  0  0  0  0  0  0  0  0
    5.0382    0.7414   21.1279 H   0  0  0  0  0  0  0  0  0  0  0  0
    4.7992    1.3395   19.0390 C   0  0  0  0  0  0  0  0  0  0  0  0
    3.8712    1.8830   19.1694 H   0  0  0  0  0  0  0  0  0  0  0  0
  1  2  1  0
  2  3  2  0
  3  4  1  0
  4  5  1  0
  4  6  2  0
  6  7  1  0
  7  8  2  0
  8  9  1  0
  9 10  1  0
 10 11  1  0
 10 12  1  0
 12 13  2  0
 12 14  1  0
 14 15  1  0
 14 16  1  0
 16 17  2  0
 17 18  1  0
 17 19  1  0
 19 20  1  0
 19 21  2  0
 21 22  1  0
 21 23  1  0
 23 24  1  0
 23 25  2  0
 25 26  1  0
  8 27  1  0
 27 28  1  0
 27 29  2  0
 29 30  1  0
 30 31  1  0
  6 32  1  0
 32 33  1  0
 32 34  2  0
 34 35  1  0
 34  2  1  0
 30  7  1  0
 25 16  1  0
M  END
>  <plip>  (1) 
-0.1

>  <filename>  (1) 
[H][c]1[n][c]([H])[c](-[c]2[c]([O][N]([H])[C](=[S])[N]([H])[c]3[c]([H])[c]([H])[c]([H])[c]([H])[c]3[H])[c]([H])[n][n]2[H])[c]([H])[c]1[H]

$$$$
