
     RDKit          3D

 31 32  0  0  0  0  0  0  0  0999 V2000
    4.9789    1.8241   17.0654 H   0  0  0  0  0  0  0  0  0  0  0  0
    5.4377    1.2685   17.8797 C   0  0  0  0  0  0  0  0  0  0  0  0
    6.5846    0.6313   17.5914 N   0  0  0  0  0  0  0  0  0  0  0  0
    7.1828   -0.0312   18.5928 C   0  0  0  0  0  0  0  0  0  0  0  0
    8.1150   -0.5345   18.3459 H   0  0  0  0  0  0  0  0  0  0  0  0
    6.6831   -0.1142   19.9231 C   0  0  0  0  0  0  0  0  0  0  0  0
    7.3524   -0.7710   20.9716 N   0  0  0  0  0  0  0  0  0  0  0  0
    6.9345   -1.5801   21.4360 H   0  0  0  0  0  0  0  0  0  0  0  0
    8.7106   -0.6870   21.1743 C   0  0  0  0  0  0  0  0  0  0  0  0
    9.7046    0.2463   20.7821 C   0  0  0  0  0  0  0  0  0  0  0  0
    9.5764    1.1102   20.1515 H   0  0  0  0  0  0  0  0  0  0  0  0
   10.9066   -0.1091   21.2268 N   0  0  0  0  0  0  0  0  0  0  0  0
   10.7050   -1.2467   21.9046 N   0  0  0  0  0  0  0  0  0  0  0  0
   11.5301   -1.7615   22.2069 H   0  0  0  0  0  0  0  0  0  0  0  0
    9.3930   -1.6138   21.8938 C   0  0  0  0  0  0  0  0  0  0  0  0
    8.6368   -2.8628   22.8523 S   0  0  0  0  0  0  0  0  0  0  0  0
    7.3263   -3.1532   22.2818 O   0  0  0  0  0  0  0  0  0  0  0  0
    9.6368   -3.8865   23.0433 O   0  0  0  0  0  0  0  0  0  0  0  0
    8.4406   -2.1326   24.3122 N   0  0  0  0  0  0  0  0  0  0  0  0
    9.6517   -1.9261   25.1083 C   0  0  0  0  0  0  0  0  0  0  0  0
   10.3164   -2.7926   25.0049 H   0  0  0  0  0  0  0  0  0  0  0  0
   10.2102   -1.0140   24.8546 H   0  0  0  0  0  0  0  0  0  0  0  0
    9.3807   -1.8596   26.1657 H   0  0  0  0  0  0  0  0  0  0  0  0
    7.2552   -1.2990   24.4882 C   0  0  0  0  0  0  0  0  0  0  0  0
    6.3797   -1.8392   24.1068 H   0  0  0  0  0  0  0  0  0  0  0  0
    7.3177   -0.3082   24.0072 H   0  0  0  0  0  0  0  0  0  0  0  0
    7.0967   -1.1460   25.5621 H   0  0  0  0  0  0  0  0  0  0  0  0
    5.4705    0.5373   20.1849 C   0  0  0  0  0  0  0  0  0  0  0  0
    5.0579    0.5155   21.1946 H   0  0  0  0  0  0  0  0  0  0  0  0
    4.8429    1.2417   19.1478 C   0  0  0  0  0  0  0  0  0  0  0  0
    3.9180    1.7868   19.3191 H   0  0  0  0  0  0  0  0  0  0  0  0
  1  2  1  0
  2  3  2  0
  3  4  1  0
  4  5  1  0
  4  6  2  0
  6  7  1  0
  7  8  1  0
  7  9  1  0
  9 10  1  0
 10 11  1  0
 10 12  2  0
 12 13  1  0
 13 14  1  0
 13 15  1  0
 15 16  1  0
 16 17  2  0
 16 18  2  0
 16 19  1  0
 19 20  1  0
 20 21  1  0
 20 22  1  0
 20 23  1  0
 19 24  1  0
 24 25  1  0
 24 26  1  0
 24 27  1  0
  6 28  1  0
 28 29  1  0
 28 30  2  0
 30 31  1  0
 30  2  1  0
 15  9  2  0
M  END
>  <plip>  (1) 
-0.06666666666666667

>  <filename>  (1) 
[H][c]1[n][c]([H])[c]([N]([H])[c]2[c]([H])[n][n]([H])[c]2[S](=[O])(=[O])[N]([C]([H])([H])[H])[C]([H])([H])[H])[c]([H])[c]1[H]

$$$$
