
     RDKit          3D

 30 31  0  0  0  0  0  0  0  0999 V2000
    7.4130   -2.2663   19.7076 H   0  0  0  0  0  0  0  0  0  0  0  0
    7.3066   -2.1668   20.6603 O   0  0  0  0  0  0  0  0  0  0  0  0
    7.4850   -0.7817   20.9456 C   0  0  2  0  0  0  0  0  0  0  0  0
    6.6792   -0.0056   19.8967 C   0  0  0  0  0  0  0  0  0  0  0  0
    7.1702    0.0207   18.5801 C   0  0  0  0  0  0  0  0  0  0  0  0
    8.1164   -0.4645   18.3453 H   0  0  0  0  0  0  0  0  0  0  0  0
    6.5818    0.6395   17.5488 N   0  0  0  0  0  0  0  0  0  0  0  0
    5.4261    1.2730   17.7975 C   0  0  0  0  0  0  0  0  0  0  0  0
    4.9613    1.7801   16.9527 H   0  0  0  0  0  0  0  0  0  0  0  0
    4.8273    1.3004   19.0598 C   0  0  0  0  0  0  0  0  0  0  0  0
    3.8912    1.8316   19.1976 H   0  0  0  0  0  0  0  0  0  0  0  0
    5.4568    0.6511   20.1268 C   0  0  0  0  0  0  0  0  0  0  0  0
    4.9971    0.6580   21.1180 H   0  0  0  0  0  0  0  0  0  0  0  0
    8.9899   -0.3822   20.9532 C   0  0  0  0  0  0  0  0  0  0  0  0
    9.9974   -1.3478   21.1522 C   0  0  0  0  0  0  0  0  0  0  0  0
    9.7485   -2.4008   21.0826 H   0  0  0  0  0  0  0  0  0  0  0  0
   11.3052   -0.9555   21.4456 C   0  0  0  0  0  0  0  0  0  0  0  0
   12.0702   -1.7082   21.6239 H   0  0  0  0  0  0  0  0  0  0  0  0
   11.6279    0.4004   21.5234 C   0  0  0  0  0  0  0  0  0  0  0  0
   12.6254    0.7375   21.7863 H   0  0  0  0  0  0  0  0  0  0  0  0
   10.6573    1.3753   21.2736 C   0  0  0  0  0  0  0  0  0  0  0  0
   10.9908    2.7162   21.3994 N   0  0  0  0  0  0  0  0  0  0  0  0
   11.9294    2.9567   21.1164 H   0  0  0  0  0  0  0  0  0  0  0  0
   10.3116    3.3516   21.0063 H   0  0  0  0  0  0  0  0  0  0  0  0
    9.3448    0.9779   20.9789 C   0  0  0  0  0  0  0  0  0  0  0  0
    8.5942    1.7396   20.7874 H   0  0  0  0  0  0  0  0  0  0  0  0
    6.9542   -0.6258   22.3721 C   0  0  0  0  0  0  0  0  0  0  0  0
    6.9041    0.4269   22.6736 H   0  0  0  0  0  0  0  0  0  0  0  0
    7.6050   -1.1628   23.0719 H   0  0  0  0  0  0  0  0  0  0  0  0
    5.9676   -1.0810   22.4313 H   0  0  0  0  0  0  0  0  0  0  0  0
  1  2  1  0
  3  2  1  6
  3  4  1  0
  4  5  2  0
  5  6  1  0
  5  7  1  0
  7  8  2  0
  8  9  1  0
  8 10  1  0
 10 11  1  0
 10 12  2  0
 12 13  1  0
  3 14  1  0
 14 15  2  0
 15 16  1  0
 15 17  1  0
 17 18  1  0
 17 19  2  0
 19 20  1  0
 19 21  1  0
 21 22  1  0
 22 23  1  0
 22 24  1  0
 21 25  2  0
 25 26  1  0
  3 27  1  0
 27 28  1  0
 27 29  1  0
 27 30  1  0
 12  4  1  0
 25 14  1  0
M  END
>  <plip>  (1) 
-0.14285714285714285

>  <filename>  (1) 
[H][O][C@]([c]1[c]([H])[n][c]([H])[c]([H])[c]1[H])([c]1[c]([H])[c]([H])[c]([H])[c]([N]([H])[H])[c]1[H])[C]([H])([H])[H]

$$$$
