
     RDKit          3D

 52 55  0  0  0  0  0  0  0  0999 V2000
    6.3337    5.3913   26.2857 C   0  0  0  0  0  0  0  0  0  0  0  0
    6.1531    4.2225   25.3511 C   0  0  0  0  0  0  0  0  0  0  0  0
    4.8995    3.6219   25.1191 C   0  0  0  0  0  0  0  0  0  0  0  0
    4.8155    2.5222   24.2650 C   0  0  0  0  0  0  0  0  0  0  0  0
    5.8646    1.9494   23.6440 N   0  0  0  0  0  0  0  0  0  0  0  0
    7.0352    2.5415   23.8726 C   0  0  0  0  0  0  0  0  0  0  0  0
    7.2329    3.6755   24.6716 C   0  0  0  0  0  0  0  0  0  0  0  0
    8.6948    4.0472   24.6324 C   0  0  0  0  0  0  0  0  0  0  0  0
    9.2952    3.0750   23.5911 C   0  0  0  0  0  0  0  0  0  0  0  0
    8.2185    2.1081   23.3331 N   0  0  0  0  0  0  0  0  0  0  0  0
    8.3085    1.2604   22.2420 C   0  0  0  0  0  0  0  0  0  0  0  0
    9.1381    1.4458   21.3716 O   0  0  0  0  0  0  0  0  0  0  0  0
    7.4878    0.1643   22.3099 N   0  0  0  0  0  0  0  0  0  0  0  0
    7.3900   -0.6216   21.0928 C   0  0  0  0  0  0  0  0  0  0  0  0
    6.6499   -1.9369   21.3670 C   0  0  0  0  0  0  0  0  0  0  0  0
    7.3117   -2.8981   22.3058 N   0  0  0  0  0  4  0  0  0  0  0  0
    8.5437   -3.5678   21.7609 C   0  0  0  0  0  0  0  0  0  0  0  0
    8.6840   -4.8846   22.5392 C   0  0  0  0  0  0  0  0  0  0  0  0
    7.3585   -5.1033   23.2831 C   0  0  0  0  0  0  0  0  0  0  0  0
    6.4178   -4.0286   22.7476 C   0  0  0  0  0  0  0  0  0  0  0  0
    5.6802   -3.6795   23.4741 H   0  0  0  0  0  0  0  0  0  0  0  0
    5.8861   -4.4083   21.8682 H   0  0  0  0  0  0  0  0  0  0  0  0
    7.4989   -4.9976   24.3633 H   0  0  0  0  0  0  0  0  0  0  0  0
    6.9464   -6.1021   23.1052 H   0  0  0  0  0  0  0  0  0  0  0  0
    9.5186   -4.8108   23.2415 H   0  0  0  0  0  0  0  0  0  0  0  0
    8.9022   -5.7082   21.8508 H   0  0  0  0  0  0  0  0  0  0  0  0
    8.3756   -3.7550   20.6982 H   0  0  0  0  0  0  0  0  0  0  0  0
    9.4170   -2.9179   21.8693 H   0  0  0  0  0  0  0  0  0  0  0  0
    7.5934   -2.3372   23.1458 H   0  0  0  0  0  0  0  0  0  0  0  0
    6.5001   -2.4243   20.4006 H   0  0  0  0  0  0  0  0  0  0  0  0
    5.6540   -1.6701   21.7431 H   0  0  0  0  0  0  0  0  0  0  0  0
    6.6658    0.1328   19.9879 C   0  0  0  0  0  0  0  0  0  0  0  0
    5.4320    0.7754   20.1903 C   0  0  0  0  0  0  0  0  0  0  0  0
    4.7952    1.3587   19.0928 C   0  0  0  0  0  0  0  0  0  0  0  0
    5.4111    1.2914   17.8388 C   0  0  0  0  0  0  0  0  0  0  0  0
    6.5761    0.6684   17.6205 N   0  0  0  0  0  0  0  0  0  0  0  0
    7.1790    0.1187   18.6846 C   0  0  0  0  0  0  0  0  0  0  0  0
    8.1247   -0.3860   18.4762 H   0  0  0  0  0  0  0  0  0  0  0  0
    4.9442    1.7535   16.9707 H   0  0  0  0  0  0  0  0  0  0  0  0
    3.8395    1.8584   19.1924 H   0  0  0  0  0  0  0  0  0  0  0  0
    4.9755    0.8287   21.1839 H   0  0  0  0  0  0  0  0  0  0  0  0
    8.4211   -0.8453   20.7718 H   0  0  0  0  0  0  0  0  0  0  0  0
    6.6211    0.4711   22.7507 H   0  0  0  0  0  0  0  0  0  0  0  0
    9.5767    3.5657   22.6523 H   0  0  0  0  0  0  0  0  0  0  0  0
   10.1914    2.5609   23.9551 H   0  0  0  0  0  0  0  0  0  0  0  0
    9.1676    3.9009   25.6108 H   0  0  0  0  0  0  0  0  0  0  0  0
    8.8669    5.0883   24.3387 H   0  0  0  0  0  0  0  0  0  0  0  0
    3.8496    2.0704   24.0685 H   0  0  0  0  0  0  0  0  0  0  0  0
    4.0021    3.9925   25.6015 H   0  0  0  0  0  0  0  0  0  0  0  0
    5.4558    5.5413   26.9176 H   0  0  0  0  0  0  0  0  0  0  0  0
    6.5196    6.3231   25.7396 H   0  0  0  0  0  0  0  0  0  0  0  0
    7.1963    5.2327   26.9411 H   0  0  0  0  0  0  0  0  0  0  0  0
  1  2  1  0
  2  3  2  0
  3  4  1  0
  4  5  2  0
  5  6  1  0
  6  7  2  0
  7  8  1  0
  8  9  1  0
  9 10  1  0
 10 11  1  0
 11 12  2  0
 11 13  1  0
 13 14  1  0
 14 15  1  0
 15 16  1  0
 16 17  1  0
 17 18  1  0
 18 19  1  0
 19 20  1  0
 20 21  1  0
 20 22  1  0
 19 23  1  0
 19 24  1  0
 18 25  1  0
 18 26  1  0
 17 27  1  0
 17 28  1  0
 16 29  1  0
 15 30  1  0
 15 31  1  0
 14 32  1  0
 32 33  2  0
 33 34  1  0
 34 35  2  0
 35 36  1  0
 36 37  2  0
 37 38  1  0
 35 39  1  0
 34 40  1  0
 33 41  1  0
 14 42  1  0
 13 43  1  0
  9 44  1  0
  9 45  1  0
  8 46  1  0
  8 47  1  0
  4 48  1  0
  3 49  1  0
  1 50  1  0
  1 51  1  0
  1 52  1  0
  7  2  1  0
 20 16  1  0
 37 32  1  0
 10  6  1  0
M  CHG  1  16   1
M  END
>  <plip>  (1) 
-0.1724137931034483

>  <filename>  (1) 
[H][c]1[n][c]([H])[c]([C]([H])([N]([H])[C](=[O])[N]2[c]3[n][c]([H])[c]([H])[c]([C]([H])([H])[H])[c]3[C]([H])([H])[C]2([H])[H])[C]([H])([H])[N+]2([H])[C]([H])([H])[C]([H])([H])[C]([H])([H])[C]2([H])[H])[c]([H])[c]1[H]

$$$$
