
     RDKit          3D

 34 36  0  0  0  0  0  0  0  0999 V2000
    6.1034   -2.5528   25.5001 C   0  0  0  0  0  0  0  0  0  0  0  0
    6.1147   -2.3093   25.3811 C   0  0  0  0  0  0  0  0  0  0  0  0
    6.6853   -2.0249   22.8285 N   0  0  0  0  0  0  0  0  0  0  0  0
    6.8713   -0.7856   22.4673 C   0  0  0  0  0  0  0  0  0  0  0  0
    6.4920    0.2010   23.1408 O   0  0  0  0  0  0  0  0  0  0  0  0
    7.6462   -0.4266   21.1079 C   0  0  0  0  0  0  0  0  0  0  0  0
    6.8187    0.2445   20.0386 C   0  0  0  0  0  0  0  0  0  0  0  0
    5.5477    0.7755   20.3142 C   0  0  0  0  0  0  0  0  0  0  0  0
    4.8174    1.3541   19.2760 C   0  0  0  0  0  0  0  0  0  0  0  0
    5.3749    1.4051   17.9952 C   0  0  0  0  0  0  0  0  0  0  0  0
    6.5987    0.9382   17.7102 N   0  0  0  0  0  0  0  0  0  0  0  0
    7.2979    0.3992   18.7143 C   0  0  0  0  0  0  0  0  0  0  0  0
    8.3032    0.0743   18.4505 H   0  0  0  0  0  0  0  0  0  0  0  0
    4.8235    1.8417   17.1664 H   0  0  0  0  0  0  0  0  0  0  0  0
    3.8342    1.7749   19.4498 H   0  0  0  0  0  0  0  0  0  0  0  0
    5.1602    0.7628   21.3328 H   0  0  0  0  0  0  0  0  0  0  0  0
    9.0916    0.0429   21.2645 C   0  0  0  0  0  0  0  0  0  0  0  0
    8.8104   -1.3131   20.7081 C   0  0  0  0  0  0  0  0  0  0  0  0
    9.0448   -2.1792   21.3265 H   0  0  0  0  0  0  0  0  0  0  0  0
    8.9714   -1.4858   19.6491 H   0  0  0  0  0  0  0  0  0  0  0  0
    9.5085    0.1216   22.2651 H   0  0  0  0  0  0  0  0  0  0  0  0
    9.4312    0.8160   20.5770 H   0  0  0  0  0  0  0  0  0  0  0  0
    6.8893   -2.5766   21.9918 H   0  0  0  0  0  0  0  0  0  0  0  0
    3.5700   -3.2746   24.7215 C   0  0  0  0  0  0  0  0  0  0  0  0
    3.3688   -4.4539   24.0393 C   0  0  0  0  0  0  0  0  0  0  0  0
    1.9504   -4.6995   23.8633 C   0  0  0  0  0  0  0  0  0  0  0  0
    1.1472   -3.8017   24.3766 N   0  0  0  0  0  0  0  0  0  0  0  0
    2.0565   -2.6117   25.1003 S   0  0  0  0  0  0  0  0  0  0  0  0
    1.5254   -5.5513   23.3355 H   0  0  0  0  0  0  0  0  0  0  0  0
    4.1087   -5.1554   23.6550 H   0  0  0  0  0  0  0  0  0  0  0  0
    5.9327   -0.6966   24.6128 H   0  0  0  0  0  0  0  0  0  0  0  0
    5.4348   -1.9592   26.4642 H   0  0  0  0  0  0  0  0  0  0  0  0
    5.8035   -3.0828   24.3471 H   0  0  0  0  0  0  0  0  0  0  0  0
    7.4329   -2.4985   25.3799 H   0  0  0  0  0  0  0  0  0  0  0  0
  1  2  1  0
  2  3  1  0
  3  4  1  0
  4  5  2  0
  4  6  1  0
  6  7  1  0
  7  8  2  0
  8  9  1  0
  9 10  2  0
 10 11  1  0
 11 12  2  0
 12 13  1  0
 10 14  1  0
  9 15  1  0
  8 16  1  0
  6 17  1  0
 17 18  1  0
 18 19  1  0
 18 20  1  0
 17 21  1  0
 17 22  1  0
  3 23  1  0
  2 24  1  0
 24 25  2  0
 25 26  1  0
 26 27  2  0
 27 28  1  0
 26 29  1  0
 25 30  1  0
  2 31  1  0
  1 32  1  0
  1 33  1  0
  1 34  1  0
 18  6  1  0
 28 24  1  0
 12  7  1  0
M  END
>  <plip>  (1) 
-0.06896551724137931

>  <filename>  (1) 
[H][c]1[n][s][c]([C]([H])([N]([H])[C](=[O])[C]2([c]3[c]([H])[n][c]([H])[c]([H])[c]3[H])[C]([H])([H])[C]2([H])[H])[C]([H])([H])[H])[c]1[H]

$$$$
