
     RDKit          3D

 31 33  0  0  0  0  0  0  0  0999 V2000
   14.1033    4.2754   22.6449 I   0  0  0  0  0  0  0  0  0  0  0  0
   12.5574    2.6885   22.3438 C   0  0  0  0  0  0  0  0  0  0  0  0
   11.5505    2.9510   21.4424 C   0  0  0  0  0  0  0  0  0  0  0  0
   10.4418    2.1105   21.3128 C   0  0  0  0  0  0  0  0  0  0  0  0
   10.4088    0.8959   22.0124 C   0  0  0  0  0  0  0  0  0  0  0  0
    9.3607   -0.0278   21.9276 C   0  0  0  0  0  0  0  0  0  0  0  0
    8.2534    0.2126   21.1446 N   0  0  0  0  0  0  0  0  0  0  0  0
    7.1611   -0.7306   20.8959 C   0  0  0  0  0  0  0  0  0  0  0  0
    6.4387   -0.0486   19.7835 C   0  0  0  0  0  0  0  0  0  0  0  0
    5.2347    0.6212   20.0008 C   0  0  0  0  0  0  0  0  0  0  0  0
    4.7100    1.3564   18.9407 C   0  0  0  0  0  0  0  0  0  0  0  0
    5.3712    1.3723   17.7065 C   0  0  0  0  0  0  0  0  0  0  0  0
    6.5253    0.7124   17.4981 N   0  0  0  0  0  0  0  0  0  0  0  0
    7.0526    0.0300   18.5274 C   0  0  0  0  0  0  0  0  0  0  0  0
    8.0079   -0.4643   18.3809 H   0  0  0  0  0  0  0  0  0  0  0  0
    4.9493    1.9583   16.8960 H   0  0  0  0  0  0  0  0  0  0  0  0
    3.8042    1.9378   19.0654 H   0  0  0  0  0  0  0  0  0  0  0  0
    4.7438    0.6027   20.9731 H   0  0  0  0  0  0  0  0  0  0  0  0
    6.5201   -0.8686   21.7794 H   0  0  0  0  0  0  0  0  0  0  0  0
    7.5377   -1.7106   20.5758 H   0  0  0  0  0  0  0  0  0  0  0  0
    8.0872    1.1789   20.8761 H   0  0  0  0  0  0  0  0  0  0  0  0
    9.4002   -1.1864   22.6819 C   0  0  0  0  0  0  0  0  0  0  0  0
   10.4857   -1.4092   23.5067 C   0  0  0  0  0  0  0  0  0  0  0  0
   11.4896   -0.5249   23.5954 N   0  0  0  0  0  0  0  0  0  0  0  0
   11.4692    0.5963   22.8742 C   0  0  0  0  0  0  0  0  0  0  0  0
   12.5197    1.4972   23.0594 C   0  0  0  0  0  0  0  0  0  0  0  0
   13.2845    1.2553   23.7828 H   0  0  0  0  0  0  0  0  0  0  0  0
   10.5090   -2.3093   24.1196 H   0  0  0  0  0  0  0  0  0  0  0  0
    8.5720   -1.8765   22.6494 H   0  0  0  0  0  0  0  0  0  0  0  0
    9.5878    2.4126   20.7196 H   0  0  0  0  0  0  0  0  0  0  0  0
   11.6723    3.8630   20.8833 H   0  0  0  0  0  0  0  0  0  0  0  0
  1  2  1  0
  2  3  2  0
  3  4  1  0
  4  5  2  0
  5  6  1  0
  6  7  1  0
  7  8  1  0
  8  9  1  0
  9 10  2  0
 10 11  1  0
 11 12  2  0
 12 13  1  0
 13 14  2  0
 14 15  1  0
 12 16  1  0
 11 17  1  0
 10 18  1  0
  8 19  1  0
  8 20  1  0
  7 21  1  0
  6 22  2  0
 22 23  1  0
 23 24  2  0
 24 25  1  0
 25 26  2  0
 26 27  1  0
 23 28  1  0
 22 29  1  0
  4 30  1  0
  3 31  1  0
 26  2  1  0
 25  5  1  0
 14  9  1  0
M  END
>  <plip>  (1) 
-0.10344827586206896

>  <filename>  (1) 
[H][c]1[n][c]([H])[c]([C]([H])([H])[N]([H])[c]2[c]([H])[c]([H])[n][c]3[c]([H])[c]([I])[c]([H])[c]([H])[c]23)[c]([H])[c]1[H]

$$$$
