
     RDKit          3D

 42 43  0  0  0  0  0  0  0  0999 V2000
    9.8008   -0.7588   20.6865 C   0  0  0  0  0  0  0  0  0  0  0  0
    8.4942   -1.5306   20.7100 N   0  0  0  0  0  4  0  0  0  0  0  0
    8.6460   -2.6480   21.6955 C   0  0  0  0  0  0  0  0  0  0  0  0
    8.8026   -2.2477   22.7018 H   0  0  0  0  0  0  0  0  0  0  0  0
    7.7486   -3.2713   21.7261 H   0  0  0  0  0  0  0  0  0  0  0  0
    9.5010   -3.2760   21.4425 H   0  0  0  0  0  0  0  0  0  0  0  0
    7.2309   -0.6848   21.1176 C   0  0  0  0  0  0  0  0  0  0  0  0
    7.4664    0.2651   22.3520 C   0  0  0  0  0  0  0  0  0  0  0  0
    7.2920   -0.1264   23.4975 O   0  0  0  0  0  0  0  0  0  0  0  0
    7.9289    1.5019   22.0023 N   0  0  0  0  0  0  0  0  0  0  0  0
    8.3686    2.5250   22.8619 N   0  0  0  0  0  0  0  0  0  0  0  0
    9.5174    2.0619   23.6642 C   0  0  0  0  0  0  0  0  0  0  0  0
   10.1904    3.2405   24.3268 C   0  0  0  0  0  0  0  0  0  0  0  0
    9.0385    4.0773   25.3902 S   0  0  0  0  0  0  0  0  0  0  0  0
    8.6273    3.1323   26.4218 O   0  0  0  0  0  0  0  0  0  0  0  0
    9.5858    5.3754   25.7451 O   0  0  0  0  0  0  0  0  0  0  0  0
    7.6310    4.3321   24.3425 C   0  0  0  0  0  0  0  0  0  0  0  0
    7.2295    3.0407   23.6560 C   0  0  0  0  0  0  0  0  0  0  0  0
    6.4186    3.2564   22.9514 H   0  0  0  0  0  0  0  0  0  0  0  0
    6.8472    2.2730   24.3475 H   0  0  0  0  0  0  0  0  0  0  0  0
    6.8671    4.7167   25.0191 H   0  0  0  0  0  0  0  0  0  0  0  0
    7.9091    5.0974   23.6170 H   0  0  0  0  0  0  0  0  0  0  0  0
   10.5544    3.9789   23.6097 H   0  0  0  0  0  0  0  0  0  0  0  0
   11.0122    2.8987   24.9492 H   0  0  0  0  0  0  0  0  0  0  0  0
   10.2490    1.6129   22.9825 H   0  0  0  0  0  0  0  0  0  0  0  0
    9.2323    1.2668   24.3738 H   0  0  0  0  0  0  0  0  0  0  0  0
    7.9517    1.7130   21.0122 H   0  0  0  0  0  0  0  0  0  0  0  0
    6.5957   -0.0459   19.8953 C   0  0  0  0  0  0  0  0  0  0  0  0
    5.3811    0.6366   20.0938 C   0  0  0  0  0  0  0  0  0  0  0  0
    4.8094    1.3105   19.0160 C   0  0  0  0  0  0  0  0  0  0  0  0
    5.4614    1.2863   17.7773 C   0  0  0  0  0  0  0  0  0  0  0  0
    6.6109    0.6314   17.5628 N   0  0  0  0  0  0  0  0  0  0  0  0
    7.1563   -0.0172   18.6026 C   0  0  0  0  0  0  0  0  0  0  0  0
    8.1029   -0.5085   18.3802 H   0  0  0  0  0  0  0  0  0  0  0  0
    5.0371    1.8167   16.9257 H   0  0  0  0  0  0  0  0  0  0  0  0
    3.8830    1.8645   19.1242 H   0  0  0  0  0  0  0  0  0  0  0  0
    4.9066    0.6684   21.0812 H   0  0  0  0  0  0  0  0  0  0  0  0
    6.5320   -1.4022   21.5564 H   0  0  0  0  0  0  0  0  0  0  0  0
    8.2488   -1.9149   19.7683 H   0  0  0  0  0  0  0  0  0  0  0  0
    9.8328   -0.0432   19.8581 H   0  0  0  0  0  0  0  0  0  0  0  0
    9.9275   -0.2282   21.6371 H   0  0  0  0  0  0  0  0  0  0  0  0
   10.6493   -1.4527   20.6029 H   0  0  0  0  0  0  0  0  0  0  0  0
  1  2  1  0
  2  3  1  0
  3  4  1  0
  3  5  1  0
  3  6  1  0
  2  7  1  0
  7  8  1  0
  8  9  2  0
  8 10  1  0
 10 11  1  0
 11 12  1  0
 12 13  1  0
 13 14  1  0
 14 15  2  0
 14 16  2  0
 14 17  1  0
 17 18  1  0
 18 19  1  0
 18 20  1  0
 17 21  1  0
 17 22  1  0
 13 23  1  0
 13 24  1  0
 12 25  1  0
 12 26  1  0
 10 27  1  0
  7 28  1  0
 28 29  2  0
 29 30  1  0
 30 31  2  0
 31 32  1  0
 32 33  2  0
 33 34  1  0
 31 35  1  0
 30 36  1  0
 29 37  1  0
  7 38  1  0
  2 39  1  0
  1 40  1  0
  1 41  1  0
  1 42  1  0
 18 11  1  0
 33 28  1  0
M  CHG  1   2   1
M  END
>  <plip>  (1) 
-0.06896551724137931

>  <filename>  (1) 
[H][c]1[n][c]([H])[c]([C]([H])([C](=[O])[N]([H])[N]2[C]([H])([H])[C]([H])([H])[S](=[O])(=[O])[C]([H])([H])[C]2([H])[H])[N+]([H])([C]([H])([H])[H])[C]([H])([H])[H])[c]([H])[c]1[H]

$$$$
