
     RDKit          3D

 51 53  0  0  0  0  0  0  0  0999 V2000
    7.5022    1.3123   22.6098 C   0  0  0  0  0  0  0  0  0  0  0  0
    8.2993    0.1942   21.9001 C   0  0  0  0  0  0  0  0  0  0  0  0
    9.3496    0.8693   20.9955 C   0  0  0  0  0  0  0  0  0  0  0  0
    8.8419    1.5369   20.2974 H   0  0  0  0  0  0  0  0  0  0  0  0
   10.0451    1.4767   21.5874 H   0  0  0  0  0  0  0  0  0  0  0  0
    9.9380    0.1346   20.4310 H   0  0  0  0  0  0  0  0  0  0  0  0
    9.0782   -0.6419   22.9310 C   0  0  0  0  0  0  0  0  0  0  0  0
    8.2102   -1.1711   23.9187 O   0  0  0  0  0  0  0  0  0  0  0  0
    8.7054   -1.7598   24.5011 H   0  0  0  0  0  0  0  0  0  0  0  0
    9.8354    0.0139   23.3942 H   0  0  0  0  0  0  0  0  0  0  0  0
    9.6191   -1.4412   22.3926 H   0  0  0  0  0  0  0  0  0  0  0  0
    7.3947   -0.7513   21.0104 C   0  0  0  0  0  0  0  0  0  0  0  0
    6.4695   -1.5652   21.7795 N   0  0  0  0  0  0  0  0  0  0  0  0
    6.1216   -2.8257   21.4098 C   0  0  0  0  0  0  0  0  0  0  0  0
    6.4907   -3.3501   20.3736 O   0  0  0  0  0  0  0  0  0  0  0  0
    5.1916   -3.5852   22.3686 C   0  0  0  0  0  0  0  0  0  0  0  0
    5.8025   -3.7705   23.6428 O   0  0  0  0  0  0  0  0  0  0  0  0
    5.1386   -4.4465   24.6287 C   0  0  0  0  0  0  0  0  0  0  0  0
    5.8874   -4.5436   25.8382 C   0  0  0  0  0  0  0  0  0  0  0  0
    5.3612   -5.1703   26.9398 C   0  0  0  0  0  0  0  0  0  0  0  0
    4.0494   -5.7444   26.8960 C   0  0  0  0  0  0  0  0  0  0  0  0
    3.4661   -6.3988   28.0222 C   0  0  0  0  0  0  0  0  0  0  0  0
    2.2009   -6.9402   27.9445 C   0  0  0  0  0  0  0  0  0  0  0  0
    1.4582   -6.8519   26.7342 C   0  0  0  0  0  0  0  0  0  0  0  0
    1.9977   -6.2257   25.6321 C   0  0  0  0  0  0  0  0  0  0  0  0
    3.3045   -5.6539   25.6762 C   0  0  0  0  0  0  0  0  0  0  0  0
    3.8792   -4.9939   24.5402 C   0  0  0  0  0  0  0  0  0  0  0  0
    3.3138   -4.9317   23.6189 H   0  0  0  0  0  0  0  0  0  0  0  0
    1.4375   -6.1533   24.7035 H   0  0  0  0  0  0  0  0  0  0  0  0
    0.4618   -7.2849   26.6900 H   0  0  0  0  0  0  0  0  0  0  0  0
    1.7639   -7.4394   28.8050 H   0  0  0  0  0  0  0  0  0  0  0  0
    4.0394   -6.4642   28.9443 H   0  0  0  0  0  0  0  0  0  0  0  0
    5.9348   -5.2351   27.8630 H   0  0  0  0  0  0  0  0  0  0  0  0
    6.8740   -4.0956   25.8264 H   0  0  0  0  0  0  0  0  0  0  0  0
    5.0040   -4.5404   21.8697 H   0  0  0  0  0  0  0  0  0  0  0  0
    4.2473   -3.0425   22.4886 H   0  0  0  0  0  0  0  0  0  0  0  0
    6.0758   -1.1929   22.6279 H   0  0  0  0  0  0  0  0  0  0  0  0
    6.6297   -0.0208   19.9075 C   0  0  0  0  0  0  0  0  0  0  0  0
    5.4177    0.6506   20.1396 C   0  0  0  0  0  0  0  0  0  0  0  0
    4.7953    1.3156   19.0821 C   0  0  0  0  0  0  0  0  0  0  0  0
    5.3980    1.2940   17.8208 C   0  0  0  0  0  0  0  0  0  0  0  0
    6.5539    0.6611   17.5702 N   0  0  0  0  0  0  0  0  0  0  0  0
    7.1415    0.0323   18.5992 C   0  0  0  0  0  0  0  0  0  0  0  0
    8.1028   -0.4360   18.3721 H   0  0  0  0  0  0  0  0  0  0  0  0
    4.9439    1.8049   16.9747 H   0  0  0  0  0  0  0  0  0  0  0  0
    3.8658    1.8554   19.2273 H   0  0  0  0  0  0  0  0  0  0  0  0
    4.9790    0.6657   21.1407 H   0  0  0  0  0  0  0  0  0  0  0  0
    8.0755   -1.4617   20.5080 H   0  0  0  0  0  0  0  0  0  0  0  0
    6.7047    0.9279   23.2570 H   0  0  0  0  0  0  0  0  0  0  0  0
    8.1763    1.9094   23.2387 H   0  0  0  0  0  0  0  0  0  0  0  0
    7.0582    1.9958   21.8771 H   0  0  0  0  0  0  0  0  0  0  0  0
  1  2  1  0
  2  3  1  0
  3  4  1  0
  3  5  1  0
  3  6  1  0
  2  7  1  0
  7  8  1  0
  8  9  1  0
  7 10  1  0
  7 11  1  0
  2 12  1  0
 12 13  1  0
 13 14  1  0
 14 15  2  0
 14 16  1  0
 16 17  1  0
 17 18  1  0
 18 19  2  0
 19 20  1  0
 20 21  2  0
 21 22  1  0
 22 23  2  0
 23 24  1  0
 24 25  2  0
 25 26  1  0
 26 27  2  0
 27 28  1  0
 25 29  1  0
 24 30  1  0
 23 31  1  0
 22 32  1  0
 20 33  1  0
 19 34  1  0
 16 35  1  0
 16 36  1  0
 13 37  1  0
 12 38  1  0
 38 39  2  0
 39 40  1  0
 40 41  2  0
 41 42  1  0
 42 43  2  0
 43 44  1  0
 41 45  1  0
 40 46  1  0
 39 47  1  0
 12 48  1  0
  1 49  1  0
  1 50  1  0
  1 51  1  0
 27 18  1  0
 43 38  1  0
 26 21  1  0
M  END
>  <plip>  (1) 
-0.14285714285714285

>  <filename>  (1) 
[H][O][C]([H])([H])[C]([C]([H])([H])[H])([C]([H])([H])[H])[C]([H])([c]1[c]([H])[n][c]([H])[c]([H])[c]1[H])[N]([H])[C](=[O])[C]([H])([H])[O][c]1[c]([H])[c]([H])[c]2[c]([H])[c]([H])[c]([H])[c]([H])[c]2[c]1[H]

$$$$
