
     RDKit          3D

 38 40  0  0  0  0  0  0  0  0999 V2000
    8.2458    0.3267   22.1383 C   0  0  0  0  0  0  0  0  0  0  0  0
    7.5175   -0.9114   21.1163 S   0  0  0  0  0  0  0  0  0  0  0  0
    8.5224   -1.7780   20.5281 O   0  0  0  0  0  0  0  0  0  0  0  0
    6.4339   -1.5879   22.1680 N   0  0  0  0  0  0  0  0  0  0  0  0
    5.7746   -2.5282   21.5109 C   0  0  0  0  0  0  0  0  0  0  0  0
    5.7847   -2.7324   20.2904 O   0  0  0  0  0  0  0  0  0  0  0  0
    4.8748   -3.4440   22.3707 C   0  0  0  0  0  0  0  0  0  0  0  0
    5.5112   -4.6740   23.0716 C   0  0  0  0  0  0  0  0  0  0  0  0
    4.5273   -5.3962   23.9643 C   0  0  0  0  0  0  0  0  0  0  0  0
    3.7742   -6.3679   23.5794 N   0  0  0  0  0  0  0  0  0  0  0  0
    2.9453   -6.7876   24.6060 C   0  0  0  0  0  0  0  0  0  0  0  0
    2.0155   -7.8305   24.4865 C   0  0  0  0  0  0  0  0  0  0  0  0
    1.2577   -8.1712   25.5994 C   0  0  0  0  0  0  0  0  0  0  0  0
    0.1083   -9.4708   25.4828 Cl  0  0  0  0  0  0  0  0  0  0  0  0
    1.3997   -7.4919   26.8266 C   0  0  0  0  0  0  0  0  0  0  0  0
    2.3146   -6.4471   26.9449 C   0  0  0  0  0  0  0  0  0  0  0  0
    3.0866   -6.0955   25.8259 C   0  0  0  0  0  0  0  0  0  0  0  0
    4.3039   -4.8745   25.6327 S   0  0  0  0  0  0  0  0  0  0  0  0
    2.4244   -5.9250   27.8921 H   0  0  0  0  0  0  0  0  0  0  0  0
    0.7915   -7.8005   27.6732 H   0  0  0  0  0  0  0  0  0  0  0  0
    1.9158   -8.3377   23.5352 H   0  0  0  0  0  0  0  0  0  0  0  0
    5.8884   -5.4021   22.3498 H   0  0  0  0  0  0  0  0  0  0  0  0
    6.3517   -4.3434   23.6894 H   0  0  0  0  0  0  0  0  0  0  0  0
    4.4290   -2.8672   23.1684 H   0  0  0  0  0  0  0  0  0  0  0  0
    4.0841   -3.7320   21.6855 H   0  0  0  0  0  0  0  0  0  0  0  0
    6.5736   -0.0735   19.9461 C   0  0  0  0  0  0  0  0  0  0  0  0
    5.3768    0.5988   20.2111 C   0  0  0  0  0  0  0  0  0  0  0  0
    4.8061    1.2769   19.1345 C   0  0  0  0  0  0  0  0  0  0  0  0
    5.4454    1.2532   17.8890 C   0  0  0  0  0  0  0  0  0  0  0  0
    6.6033    0.6093   17.6651 N   0  0  0  0  0  0  0  0  0  0  0  0
    7.1595   -0.0404   18.6838 C   0  0  0  0  0  0  0  0  0  0  0  0
    8.1147   -0.5344   18.4871 H   0  0  0  0  0  0  0  0  0  0  0  0
    5.0097    1.7762   17.0373 H   0  0  0  0  0  0  0  0  0  0  0  0
    3.8862    1.8409   19.2518 H   0  0  0  0  0  0  0  0  0  0  0  0
    4.9038    0.6124   21.1985 H   0  0  0  0  0  0  0  0  0  0  0  0
    8.7278   -0.2562   22.9182 H   0  0  0  0  0  0  0  0  0  0  0  0
    7.4494    0.9461   22.5470 H   0  0  0  0  0  0  0  0  0  0  0  0
    8.9684    0.8948   21.5536 H   0  0  0  0  0  0  0  0  0  0  0  0
  1  2  1  0
  2  3  2  0
  2  4  2  0
  4  5  1  0
  5  6  2  0
  5  7  1  0
  7  8  1  0
  8  9  1  0
  9 10  2  0
 10 11  1  0
 11 12  2  0
 12 13  1  0
 13 14  1  0
 13 15  2  0
 15 16  1  0
 16 17  2  0
 17 18  1  0
 16 19  1  0
 15 20  1  0
 12 21  1  0
  8 22  1  0
  8 23  1  0
  7 24  1  0
  7 25  1  0
  2 26  1  0
 26 27  2  0
 27 28  1  0
 28 29  2  0
 29 30  1  0
 30 31  2  0
 31 32  1  0
 29 33  1  0
 28 34  1  0
 27 35  1  0
  1 36  1  0
  1 37  1  0
  1 38  1  0
 18  9  1  0
 31 26  1  0
 17 11  1  0
M  END
>  <plip>  (1) 
-0.03225806451612903

>  <filename>  (1) 
[H][c]1[n][c]([H])[c]([S](=[O])(=[N][C](=[O])[C]([H])([H])[C]([H])([H])[c]2[n][c]3[c]([H])[c]([Cl])[c]([H])[c]([H])[c]3[s]2)[C]([H])([H])[H])[c]([H])[c]1[H]

$$$$
