
     RDKit          3D

 54 57  0  0  0  0  0  0  0  0999 V2000
    0.8652   -3.9342   24.6899 C   0  0  0  0  0  0  0  0  0  0  0  0
    1.7503   -3.6860   25.8876 C   0  0  0  0  0  0  0  0  0  0  0  0
    1.1308   -3.5089   27.1336 C   0  0  0  0  0  0  0  0  0  0  0  0
    1.8442   -3.1775   28.2853 C   0  0  0  0  0  0  0  0  0  0  0  0
    3.2292   -3.0414   28.2065 C   0  0  0  0  0  0  0  0  0  0  0  0
    3.8905   -3.2557   26.9939 C   0  0  0  0  0  0  0  0  0  0  0  0
    3.1648   -3.5870   25.8349 C   0  0  0  0  0  0  0  0  0  0  0  0
    3.8741   -3.7610   24.5937 N   0  0  0  0  0  0  0  0  0  0  0  0
    4.9007   -2.9952   24.1400 C   0  0  0  0  0  0  0  0  0  0  0  0
    5.1524   -3.3648   22.8243 C   0  0  0  0  0  0  0  0  0  0  0  0
    5.9538   -2.7807   21.7182 C   0  0  0  0  0  0  0  0  0  0  0  0
    6.0598   -3.3362   20.6327 O   0  0  0  0  0  0  0  0  0  0  0  0
    6.5172   -1.5704   21.9888 N   0  0  0  0  0  0  0  0  0  0  0  0
    7.3414   -0.8506   21.0331 C   0  0  0  0  0  0  0  0  0  0  0  0
    6.5306   -0.1634   19.9384 C   0  0  0  0  0  0  0  0  0  0  0  0
    5.3258    0.5246   20.1357 C   0  0  0  0  0  0  0  0  0  0  0  0
    4.7902    1.2584   19.0713 C   0  0  0  0  0  0  0  0  0  0  0  0
    5.4528    1.2557   17.8397 C   0  0  0  0  0  0  0  0  0  0  0  0
    6.5730    0.5532   17.6122 N   0  0  0  0  0  0  0  0  0  0  0  0
    7.0735   -0.1367   18.6429 C   0  0  0  0  0  0  0  0  0  0  0  0
    7.9749   -0.7148   18.4318 H   0  0  0  0  0  0  0  0  0  0  0  0
    5.0697    1.8269   16.9950 H   0  0  0  0  0  0  0  0  0  0  0  0
    3.8842    1.8397   19.1866 H   0  0  0  0  0  0  0  0  0  0  0  0
    4.8142    0.4911   21.1013 H   0  0  0  0  0  0  0  0  0  0  0  0
    8.3645    0.1044   21.7141 C   0  0  0  0  0  0  0  0  0  0  0  0
    7.7437    1.3464   22.3923 C   0  0  0  0  0  0  0  0  0  0  0  0
    8.8318    2.2833   22.9460 C   0  0  0  0  0  0  0  0  0  0  0  0
    9.7658    1.5487   23.9262 C   0  0  0  0  0  0  0  0  0  0  0  0
   10.3892    0.3041   23.2624 C   0  0  0  0  0  0  0  0  0  0  0  0
    9.3093   -0.6374   22.6912 C   0  0  0  0  0  0  0  0  0  0  0  0
    9.7834   -1.4911   22.1841 H   0  0  0  0  0  0  0  0  0  0  0  0
    8.7161   -1.0581   23.5194 H   0  0  0  0  0  0  0  0  0  0  0  0
   11.0297   -0.2328   23.9756 H   0  0  0  0  0  0  0  0  0  0  0  0
   11.0478    0.6276   22.4391 H   0  0  0  0  0  0  0  0  0  0  0  0
    9.1857    1.2398   24.8127 H   0  0  0  0  0  0  0  0  0  0  0  0
   10.5501    2.2280   24.2911 H   0  0  0  0  0  0  0  0  0  0  0  0
    8.3727    3.1600   23.4224 H   0  0  0  0  0  0  0  0  0  0  0  0
    9.4240    2.6712   22.1001 H   0  0  0  0  0  0  0  0  0  0  0  0
    7.0838    1.0172   23.2121 H   0  0  0  0  0  0  0  0  0  0  0  0
    7.1083    1.8901   21.6787 H   0  0  0  0  0  0  0  0  0  0  0  0
    9.0016    0.4846   20.8970 H   0  0  0  0  0  0  0  0  0  0  0  0
    7.9358   -1.6141   20.5173 H   0  0  0  0  0  0  0  0  0  0  0  0
    6.2663   -1.1433   22.8626 H   0  0  0  0  0  0  0  0  0  0  0  0
    4.2744   -4.4476   22.6176 C   0  0  0  0  0  0  0  0  0  0  0  0
    3.5014   -4.6690   23.6616 N   0  0  0  0  0  0  0  0  0  0  0  0
    4.1478   -5.0562   21.7322 H   0  0  0  0  0  0  0  0  0  0  0  0
    5.3157   -2.2399   24.7992 H   0  0  0  0  0  0  0  0  0  0  0  0
    4.9759   -3.1838   26.9527 H   0  0  0  0  0  0  0  0  0  0  0  0
    3.8033   -2.7546   29.0813 H   0  0  0  0  0  0  0  0  0  0  0  0
    1.3234   -3.0127   29.2246 H   0  0  0  0  0  0  0  0  0  0  0  0
    0.0539   -3.6428   27.1913 H   0  0  0  0  0  0  0  0  0  0  0  0
    1.0851   -3.2146   23.8968 H   0  0  0  0  0  0  0  0  0  0  0  0
   -0.1897   -3.8307   24.9647 H   0  0  0  0  0  0  0  0  0  0  0  0
    1.0308   -4.9311   24.2693 H   0  0  0  0  0  0  0  0  0  0  0  0
  1  2  1  0
  2  3  2  0
  3  4  1  0
  4  5  2  0
  5  6  1  0
  6  7  2  0
  7  8  1  0
  8  9  1  0
  9 10  2  0
 10 11  1  0
 11 12  2  0
 11 13  1  0
 13 14  1  0
 14 15  1  0
 15 16  2  0
 16 17  1  0
 17 18  2  0
 18 19  1  0
 19 20  2  0
 20 21  1  0
 18 22  1  0
 17 23  1  0
 16 24  1  0
 14 25  1  0
 25 26  1  0
 26 27  1  0
 27 28  1  0
 28 29  1  0
 29 30  1  0
 30 31  1  0
 30 32  1  0
 29 33  1  0
 29 34  1  0
 28 35  1  0
 28 36  1  0
 27 37  1  0
 27 38  1  0
 26 39  1  0
 26 40  1  0
 25 41  1  0
 14 42  1  0
 13 43  1  0
 10 44  1  0
 44 45  2  0
 44 46  1  0
  9 47  1  0
  6 48  1  0
  5 49  1  0
  4 50  1  0
  3 51  1  0
  1 52  1  0
  1 53  1  0
  1 54  1  0
  7  2  1  0
 45  8  1  0
 20 15  1  0
 30 25  1  0
M  END
>  <plip>  (1) 
-0.10714285714285714

>  <filename>  (1) 
[H][c]1[n][c]([H])[c]([C]([H])([N]([H])[C](=[O])[c]2[c]([H])[n][n](-[c]3[c]([H])[c]([H])[c]([H])[c]([H])[c]3[C]([H])([H])[H])[c]2[H])[C]2([H])[C]([H])([H])[C]([H])([H])[C]([H])([H])[C]([H])([H])[C]2([H])[H])[c]([H])[c]1[H]

$$$$
