
     RDKit          3D

 18 19  0  0  0  0  0  0  0  0999 V2000
   10.7881    3.1462   22.0102 H   0  0  0  0  0  0  0  0  0  0  0  0
    9.9565    2.4548   22.0317 C   0  0  0  0  0  0  0  0  0  0  0  0
    8.9197    2.6008   22.7955 N   0  0  0  0  0  0  0  0  0  0  0  0
    8.0559    1.5546   22.6035 C   0  0  0  0  0  0  0  0  0  0  0  0
    7.1257    1.5172   23.1568 H   0  0  0  0  0  0  0  0  0  0  0  0
    8.4529    0.6032   21.7126 C   0  0  0  0  0  0  0  0  0  0  0  0
    7.5493   -0.8134   21.1954 S   0  0  0  0  0  0  0  0  0  0  0  0
    6.6393   -0.0152   19.8882 C   0  0  0  0  0  0  0  0  0  0  0  0
    7.1699    0.0518   18.5900 C   0  0  0  0  0  0  0  0  0  0  0  0
    8.1239   -0.4296   18.3715 H   0  0  0  0  0  0  0  0  0  0  0  0
    6.5647    0.6809   17.5750 N   0  0  0  0  0  0  0  0  0  0  0  0
    5.3995    1.2940   17.8379 C   0  0  0  0  0  0  0  0  0  0  0  0
    4.9148    1.7818   16.9953 H   0  0  0  0  0  0  0  0  0  0  0  0
    4.8006    1.3111   19.1024 C   0  0  0  0  0  0  0  0  0  0  0  0
    3.8695    1.8474   19.2601 H   0  0  0  0  0  0  0  0  0  0  0  0
    5.4296    0.6385   20.1530 C   0  0  0  0  0  0  0  0  0  0  0  0
    5.0044    0.6252   21.1577 H   0  0  0  0  0  0  0  0  0  0  0  0
    9.9701    1.0454   21.0334 S   0  0  0  0  0  0  0  0  0  0  0  0
  1  2  1  0
  2  3  2  0
  3  4  1  0
  4  5  1  0
  4  6  2  0
  6  7  1  0
  7  8  1  0
  8  9  2  0
  9 10  1  0
  9 11  1  0
 11 12  2  0
 12 13  1  0
 12 14  1  0
 14 15  1  0
 14 16  2  0
 16 17  1  0
  6 18  1  0
 18  2  1  0
 16  8  1  0
M  END
>  <plip>  (1) 
-0.0

>  <filename>  (1) 
[H][c]1[n][c]([H])[c]([S][c]2[c]([H])[n][c]([H])[c]([H])[c]2[H])[s]1

$$$$
