
     RDKit          3D

 38 40  0  0  0  0  0  0  0  0999 V2000
    4.8415    1.9225   16.8959 H   0  0  0  0  0  0  0  0  0  0  0  0
    5.3223    1.4378   17.7421 C   0  0  0  0  0  0  0  0  0  0  0  0
    6.5105    0.8662   17.4858 N   0  0  0  0  0  0  0  0  0  0  0  0
    7.1414    0.2639   18.5014 C   0  0  0  0  0  0  0  0  0  0  0  0
    8.0863   -0.2201   18.2542 H   0  0  0  0  0  0  0  0  0  0  0  0
    6.6420    0.2120   19.8271 C   0  0  0  0  0  0  0  0  0  0  0  0
    7.3517   -0.4563   20.8873 N   0  0  0  0  0  0  0  0  0  0  0  0
    7.2557   -1.8572   20.9558 C   0  0  0  0  0  0  0  0  0  0  0  0
    6.2710   -2.4810   20.6148 O   0  0  0  0  0  0  0  0  0  0  0  0
    8.4210   -2.4824   21.4311 N   0  0  0  0  0  0  0  0  0  0  0  0
    8.2562   -4.1371   21.8185 S   0  0  0  0  0  0  0  0  0  0  0  0
    8.0584   -3.9644   23.5944 C   0  0  0  0  0  0  0  0  0  0  0  0
    6.7908   -3.8720   24.1846 C   0  0  0  0  0  0  0  0  0  0  0  0
    5.9031   -3.9052   23.5538 H   0  0  0  0  0  0  0  0  0  0  0  0
    6.6829   -3.7059   25.5720 C   0  0  0  0  0  0  0  0  0  0  0  0
    5.6983   -3.6436   26.0362 H   0  0  0  0  0  0  0  0  0  0  0  0
    7.8392   -3.6119   26.3590 C   0  0  0  0  0  0  0  0  0  0  0  0
    7.7533   -3.4825   27.4352 H   0  0  0  0  0  0  0  0  0  0  0  0
    9.1052   -3.6912   25.7672 C   0  0  0  0  0  0  0  0  0  0  0  0
   10.0068   -3.6190   26.3722 H   0  0  0  0  0  0  0  0  0  0  0  0
    9.2131   -3.8653   24.3834 C   0  0  0  0  0  0  0  0  0  0  0  0
   10.1812   -3.8986   23.8939 H   0  0  0  0  0  0  0  0  0  0  0  0
    9.7549   -1.8427   21.3821 C   0  0  0  0  0  0  0  0  0  0  0  0
    9.8988   -1.3924   20.3935 H   0  0  0  0  0  0  0  0  0  0  0  0
   10.4952   -2.6369   21.4913 H   0  0  0  0  0  0  0  0  0  0  0  0
    9.9861   -0.7825   22.4629 C   0  0  0  0  0  0  0  0  0  0  0  0
    9.7635   -1.2461   23.4320 H   0  0  0  0  0  0  0  0  0  0  0  0
   11.0532   -0.5251   22.4814 H   0  0  0  0  0  0  0  0  0  0  0  0
    9.1750    0.5071   22.2968 C   0  0  0  0  0  0  0  0  0  0  0  0
    9.3372    1.1278   23.1874 H   0  0  0  0  0  0  0  0  0  0  0  0
    9.5196    1.0968   21.4389 H   0  0  0  0  0  0  0  0  0  0  0  0
    7.6736    0.2660   22.1355 C   0  0  0  0  0  0  0  0  0  0  0  0
    7.3131   -0.3040   23.0062 H   0  0  0  0  0  0  0  0  0  0  0  0
    7.1398    1.2219   22.1247 H   0  0  0  0  0  0  0  0  0  0  0  0
    5.3985    0.8117   20.0665 C   0  0  0  0  0  0  0  0  0  0  0  0
    4.9784    0.7834   21.0717 H   0  0  0  0  0  0  0  0  0  0  0  0
    4.7235    1.4293   19.0042 C   0  0  0  0  0  0  0  0  0  0  0  0
    3.7641    1.9138   19.1495 H   0  0  0  0  0  0  0  0  0  0  0  0
  1  2  1  0
  2  3  2  0
  3  4  1  0
  4  5  1  0
  4  6  2  0
  6  7  1  0
  7  8  1  0
  8  9  2  0
  8 10  1  0
 10 11  1  0
 11 12  1  0
 12 13  2  0
 13 14  1  0
 13 15  1  0
 15 16  1  0
 15 17  2  0
 17 18  1  0
 17 19  1  0
 19 20  1  0
 19 21  2  0
 21 22  1  0
 10 23  1  0
 23 24  1  0
 23 25  1  0
 23 26  1  0
 26 27  1  0
 26 28  1  0
 26 29  1  0
 29 30  1  0
 29 31  1  0
 29 32  1  0
 32 33  1  0
 32 34  1  0
  6 35  1  0
 35 36  1  0
 35 37  2  0
 37 38  1  0
 37  2  1  0
 32  7  1  0
 21 12  1  0
M  END
>  <plip>  (1) 
-0.07142857142857142

>  <filename>  (1) 
[H][c]1[n][c]([H])[c]([N]2[C](=[O])[N]([S][c]3[c]([H])[c]([H])[c]([H])[c]([H])[c]3[H])[C]([H])([H])[C]([H])([H])[C]([H])([H])[C]2([H])[H])[c]([H])[c]1[H]

$$$$
