
     RDKit          3D

 52 54  0  0  0  0  0  0  0  0999 V2000
    8.7418    1.1905   22.1402 C   0  0  0  0  0  0  0  0  0  0  0  0
    8.6555   -0.0864   21.4038 N   0  0  0  0  0  4  0  0  0  0  0  0
    9.4707   -1.1964   21.9694 C   0  0  0  0  0  0  0  0  0  0  0  0
    8.9292   -2.4340   21.2579 C   0  0  0  0  0  0  0  0  0  0  0  0
    7.4610   -2.1092   20.8883 C   0  0  1  0  0  0  0  0  0  0  0  0
    6.4239   -3.0505   21.4765 C   0  0  0  0  0  0  0  0  0  0  0  0
    6.3808   -2.9993   22.9224 N   0  0  0  0  0  0  0  0  0  0  0  0
    5.6136   -3.9017   23.6022 C   0  0  0  0  0  0  0  0  0  0  0  0
    4.8871   -4.6794   23.0098 O   0  0  0  0  0  0  0  0  0  0  0  0
    5.7324   -3.8715   25.1318 C   0  0  0  0  0  0  0  0  0  0  0  0
    5.0205   -2.5907   25.6597 C   0  0  0  0  0  0  0  0  0  0  0  0
    5.0611   -2.5563   26.7527 H   0  0  0  0  0  0  0  0  0  0  0  0
    3.9656   -2.5946   25.3573 H   0  0  0  0  0  0  0  0  0  0  0  0
    5.4858   -1.6724   25.2855 H   0  0  0  0  0  0  0  0  0  0  0  0
    5.0410   -5.1073   25.7713 C   0  0  0  0  0  0  0  0  0  0  0  0
    3.9782   -5.1331   25.5065 H   0  0  0  0  0  0  0  0  0  0  0  0
    5.1311   -5.0585   26.8637 H   0  0  0  0  0  0  0  0  0  0  0  0
    5.4985   -6.0436   25.4273 H   0  0  0  0  0  0  0  0  0  0  0  0
    7.2398   -3.9567   25.3777 C   0  0  0  0  0  0  0  0  0  0  0  0
    7.9927   -5.0337   24.8493 C   0  0  0  0  0  0  0  0  0  0  0  0
    9.3231   -5.1838   25.2372 C   0  0  0  0  0  0  0  0  0  0  0  0
    9.8710   -4.2505   26.1228 C   0  0  0  0  0  0  0  0  0  0  0  0
    9.0800   -3.1690   26.5122 C   0  0  0  0  0  0  0  0  0  0  0  0
    7.8135   -2.9940   26.1030 N   0  0  0  0  0  0  0  0  0  0  0  0
    9.4718   -2.4147   27.1910 H   0  0  0  0  0  0  0  0  0  0  0  0
   10.8754   -4.3729   26.5072 H   0  0  0  0  0  0  0  0  0  0  0  0
    9.9195   -6.0154   24.8674 H   0  0  0  0  0  0  0  0  0  0  0  0
    7.5217   -5.7209   24.1506 H   0  0  0  0  0  0  0  0  0  0  0  0
    7.1536   -2.6085   23.4370 H   0  0  0  0  0  0  0  0  0  0  0  0
    5.4277   -2.8141   21.0862 H   0  0  0  0  0  0  0  0  0  0  0  0
    6.6400   -4.0764   21.1447 H   0  0  0  0  0  0  0  0  0  0  0  0
    7.2390   -0.6174   21.2170 C   0  0  2  0  0  0  0  0  0  0  0  0
    6.5679    0.1369   20.0922 C   0  0  0  0  0  0  0  0  0  0  0  0
    5.3366    0.7890   20.2160 C   0  0  0  0  0  0  0  0  0  0  0  0
    4.7777    1.3897   19.0828 C   0  0  0  0  0  0  0  0  0  0  0  0
    5.4757    1.3326   17.8734 C   0  0  0  0  0  0  0  0  0  0  0  0
    6.6602    0.7198   17.7385 N   0  0  0  0  0  0  0  0  0  0  0  0
    7.1835    0.1504   18.8263 C   0  0  0  0  0  0  0  0  0  0  0  0
    8.1305   -0.3637   18.6609 H   0  0  0  0  0  0  0  0  0  0  0  0
    5.0675    1.7939   16.9756 H   0  0  0  0  0  0  0  0  0  0  0  0
    3.8275    1.9093   19.1265 H   0  0  0  0  0  0  0  0  0  0  0  0
    4.8214    0.8268   21.1787 H   0  0  0  0  0  0  0  0  0  0  0  0
    6.6848   -0.4740   22.1547 H   0  0  0  0  0  0  0  0  0  0  0  0
    7.3134   -2.1963   19.8084 H   0  0  0  0  0  0  0  0  0  0  0  0
    9.5326   -2.6108   20.3629 H   0  0  0  0  0  0  0  0  0  0  0  0
    9.0426   -3.3315   21.8726 H   0  0  0  0  0  0  0  0  0  0  0  0
   10.5358   -1.0385   21.7721 H   0  0  0  0  0  0  0  0  0  0  0  0
    9.3406   -1.2461   23.0578 H   0  0  0  0  0  0  0  0  0  0  0  0
    8.9848    0.0723   20.4328 H   0  0  0  0  0  0  0  0  0  0  0  0
    8.1412    1.9585   21.6397 H   0  0  0  0  0  0  0  0  0  0  0  0
    9.7826    1.5291   22.2229 H   0  0  0  0  0  0  0  0  0  0  0  0
    8.3435    1.0637   23.1586 H   0  0  0  0  0  0  0  0  0  0  0  0
  1  2  1  0
  2  3  1  0
  3  4  1  0
  4  5  1  0
  5  6  1  0
  6  7  1  0
  7  8  1  0
  8  9  2  0
  8 10  1  0
 10 11  1  0
 11 12  1  0
 11 13  1  0
 11 14  1  0
 10 15  1  0
 15 16  1  0
 15 17  1  0
 15 18  1  0
 10 19  1  0
 19 20  2  0
 20 21  1  0
 21 22  2  0
 22 23  1  0
 23 24  2  0
 23 25  1  0
 22 26  1  0
 21 27  1  0
 20 28  1  0
  7 29  1  0
  6 30  1  0
  6 31  1  0
  5 32  1  0
 32 33  1  0
 33 34  2  0
 34 35  1  0
 35 36  2  0
 36 37  1  0
 37 38  2  0
 38 39  1  0
 36 40  1  0
 35 41  1  0
 34 42  1  0
 32 43  1  1
  5 44  1  6
  4 45  1  0
  4 46  1  0
  3 47  1  0
  3 48  1  0
  2 49  1  0
  1 50  1  0
  1 51  1  0
  1 52  1  0
 32  2  1  0
 38 33  1  0
 24 19  1  0
M  CHG  1   2   1
M  END
>  <plip>  (1) 
-0.13793103448275862

>  <filename>  (1) 
[H][c]1[n][c]([C]([C](=[O])[N]([H])[C]([H])([H])[C@]2([H])[C]([H])([H])[C]([H])([H])[N+]([H])([C]([H])([H])[H])[C@@]2([H])[c]2[c]([H])[n][c]([H])[c]([H])[c]2[H])([C]([H])([H])[H])[C]([H])([H])[H])[c]([H])[c]([H])[c]1[H]

$$$$
