
     RDKit          3D

 22 23  0  0  0  0  0  0  0  0999 V2000
    4.9204    1.7798   16.9990 H   0  0  0  0  0  0  0  0  0  0  0  0
    5.4009    1.2899   17.8466 C   0  0  0  0  0  0  0  0  0  0  0  0
    6.5677    0.6708   17.5955 N   0  0  0  0  0  0  0  0  0  0  0  0
    7.1792    0.0556   18.6129 C   0  0  0  0  0  0  0  0  0  0  0  0
    8.1225   -0.4353   18.3940 H   0  0  0  0  0  0  0  0  0  0  0  0
    6.6694   -0.0028   19.9320 C   0  0  0  0  0  0  0  0  0  0  0  0
    7.4162   -0.7029   20.8377 O   0  0  0  0  0  0  0  0  0  0  0  0
    7.0302   -0.7469   22.2128 C   0  0  0  0  0  0  0  0  0  0  0  0
    6.0080   -1.1245   22.3200 H   0  0  0  0  0  0  0  0  0  0  0  0
    7.6879   -1.5075   22.6423 H   0  0  0  0  0  0  0  0  0  0  0  0
    7.1892    0.5563   22.9308 C   0  0  0  0  0  0  0  0  0  0  0  0
    8.2917    1.4353   22.8492 C   0  0  0  0  0  0  0  0  0  0  0  0
    9.1986    1.3158   22.2735 H   0  0  0  0  0  0  0  0  0  0  0  0
    8.1252    2.4943   23.6277 N   0  0  0  0  0  0  0  0  0  0  0  0
    6.9265    2.3053   24.1979 N   0  0  0  0  0  0  0  0  0  0  0  0
    6.5851    3.0014   24.8434 H   0  0  0  0  0  0  0  0  0  0  0  0
    6.3281    1.1531   23.8150 C   0  0  0  0  0  0  0  0  0  0  0  0
    5.3541    0.8387   24.1801 H   0  0  0  0  0  0  0  0  0  0  0  0
    5.4501    0.6431   20.1829 C   0  0  0  0  0  0  0  0  0  0  0  0
    5.0045    0.6309   21.1762 H   0  0  0  0  0  0  0  0  0  0  0  0
    4.8185    1.3025   19.1148 C   0  0  0  0  0  0  0  0  0  0  0  0
    3.8857    1.8334   19.2607 H   0  0  0  0  0  0  0  0  0  0  0  0
  1  2  1  0
  2  3  2  0
  3  4  1  0
  4  5  1  0
  4  6  2  0
  6  7  1  0
  7  8  1  0
  8  9  1  0
  8 10  1  0
  8 11  1  0
 11 12  1  0
 12 13  1  0
 12 14  2  0
 14 15  1  0
 15 16  1  0
 15 17  1  0
 17 18  1  0
  6 19  1  0
 19 20  1  0
 19 21  2  0
 21 22  1  0
 21  2  1  0
 17 11  2  0
M  END
>  <plip>  (1) 
-0.03571428571428571

>  <filename>  (1) 
[H][c]1[n][c]([H])[c]([O][C]([H])([H])[c]2[c]([H])[n][n]([H])[c]2[H])[c]([H])[c]1[H]

$$$$
