
     RDKit          3D

 43 43  0  0  0  0  0  0  0  0999 V2000
    5.0018    1.7846   16.9200 H   0  0  0  0  0  0  0  0  0  0  0  0
    5.4370    1.3082   17.7948 C   0  0  0  0  0  0  0  0  0  0  0  0
    6.5931    0.6639   17.5926 N   0  0  0  0  0  0  0  0  0  0  0  0
    7.1513    0.0675   18.6548 C   0  0  0  0  0  0  0  0  0  0  0  0
    8.0886   -0.4478   18.4411 H   0  0  0  0  0  0  0  0  0  0  0  0
    6.6222    0.0661   19.9594 C   0  0  0  0  0  0  0  0  0  0  0  0
    7.4356   -0.5837   21.0963 C   0  0  0  0  0  0  0  0  0  0  0  0
    6.5889   -0.8152   22.3479 C   0  0  0  0  0  0  0  0  0  0  0  0
    5.8096   -1.5375   22.0935 H   0  0  0  0  0  0  0  0  0  0  0  0
    7.1857   -1.2480   23.1566 H   0  0  0  0  0  0  0  0  0  0  0  0
    6.1279    0.0979   22.7315 H   0  0  0  0  0  0  0  0  0  0  0  0
    7.9449   -1.9760   20.6794 C   0  0  0  0  0  0  0  0  0  0  0  0
    7.1369   -2.5339   20.1978 H   0  0  0  0  0  0  0  0  0  0  0  0
    8.2704   -2.5670   21.5454 H   0  0  0  0  0  0  0  0  0  0  0  0
    8.8030   -1.8997   20.0033 H   0  0  0  0  0  0  0  0  0  0  0  0
    8.6466    0.3320   21.3929 C   0  0  0  0  0  0  0  0  0  0  0  0
    9.1616    0.5141   20.4403 H   0  0  0  0  0  0  0  0  0  0  0  0
    8.2673    1.3109   21.7198 H   0  0  0  0  0  0  0  0  0  0  0  0
    9.6851   -0.1910   22.3894 C   0  0  0  0  0  0  0  0  0  0  0  0
    9.2536   -0.2846   23.3919 H   0  0  0  0  0  0  0  0  0  0  0  0
   10.0212   -1.2048   22.1340 H   0  0  0  0  0  0  0  0  0  0  0  0
   10.9317    0.6985   22.4414 C   0  0  0  0  0  0  0  0  0  0  0  0
   11.3418    0.7985   21.4256 H   0  0  0  0  0  0  0  0  0  0  0  0
   10.6454    1.7272   22.7312 H   0  0  0  0  0  0  0  0  0  0  0  0
   11.9464    0.1629   23.3424 N   0  0  0  0  0  0  0  0  0  0  0  0
   13.1891   -0.2364   22.6913 C   0  0  0  0  0  0  0  0  0  0  0  0
   13.5828    0.5641   22.0303 H   0  0  0  0  0  0  0  0  0  0  0  0
   13.9461   -0.3877   23.4662 H   0  0  0  0  0  0  0  0  0  0  0  0
   12.9749   -1.5380   21.9132 C   0  0  0  0  0  0  0  0  0  0  0  0
   13.9251   -2.0111   21.6570 H   0  0  0  0  0  0  0  0  0  0  0  0
   12.4145   -1.3969   20.9812 H   0  0  0  0  0  0  0  0  0  0  0  0
   12.3974   -2.2381   22.5251 H   0  0  0  0  0  0  0  0  0  0  0  0
   12.0687    0.8804   24.6003 C   0  0  0  0  0  0  0  0  0  0  0  0
   12.8359    0.3790   25.1986 H   0  0  0  0  0  0  0  0  0  0  0  0
   12.4150    1.9243   24.4686 H   0  0  0  0  0  0  0  0  0  0  0  0
   10.7519    0.8564   25.3693 C   0  0  0  0  0  0  0  0  0  0  0  0
    9.9353    1.2369   24.7516 H   0  0  0  0  0  0  0  0  0  0  0  0
   10.4959   -0.1718   25.6441 H   0  0  0  0  0  0  0  0  0  0  0  0
   10.7737    1.4671   26.2723 H   0  0  0  0  0  0  0  0  0  0  0  0
    5.3961    0.7350   20.1293 C   0  0  0  0  0  0  0  0  0  0  0  0
    4.9088    0.7687   21.1031 H   0  0  0  0  0  0  0  0  0  0  0  0
    4.7981    1.3629   19.0329 C   0  0  0  0  0  0  0  0  0  0  0  0
    3.8596    1.8950   19.1307 H   0  0  0  0  0  0  0  0  0  0  0  0
  1  2  1  0
  2  3  2  0
  3  4  1  0
  4  5  1  0
  4  6  2  0
  6  7  1  0
  7  8  1  0
  8  9  1  0
  8 10  1  0
  8 11  1  0
  7 12  1  0
 12 13  1  0
 12 14  1  0
 12 15  1  0
  7 16  1  0
 16 17  1  0
 16 18  1  0
 16 19  1  0
 19 20  1  0
 19 21  1  0
 19 22  1  0
 22 23  1  0
 22 24  1  0
 22 25  1  0
 25 26  1  0
 26 27  1  0
 26 28  1  0
 26 29  1  0
 29 30  1  0
 29 31  1  0
 29 32  1  0
 25 33  1  0
 33 34  1  0
 33 35  1  0
 33 36  1  0
 36 37  1  0
 36 38  1  0
 36 39  1  0
  6 40  1  0
 40 41  1  0
 40 42  2  0
 42 43  1  0
 42  2  1  0
M  END
>  <plip>  (1) 
-0.06896551724137931

>  <filename>  (1) 
[H][c]1[n][c]([H])[c]([C]([C]([H])([H])[H])([C]([H])([H])[H])[C]([H])([H])[C]([H])([H])[C]([H])([H])[N]([C]([H])([H])[C]([H])([H])[H])[C]([H])([H])[C]([H])([H])[H])[c]([H])[c]1[H]

$$$$
