
     RDKit          3D

 27 28  0  0  0  0  0  0  0  0999 V2000
    9.2258    0.3106   20.8961 H   0  0  0  0  0  0  0  0  0  0  0  0
    9.6281   -0.5361   20.6334 O   0  0  0  0  0  0  0  0  0  0  0  0
    8.5253   -1.3633   20.9370 C   0  0  1  0  0  0  0  0  0  0  0  0
    8.2711   -2.0173   20.0906 H   0  0  0  0  0  0  0  0  0  0  0  0
    8.7694   -2.3773   22.1341 C   0  0  0  0  0  0  0  0  0  0  0  0
    7.7035   -2.9613   22.7072 N   0  0  0  0  0  0  0  0  0  0  0  0
    7.9630   -3.8418   23.6613 C   0  0  0  0  0  0  0  0  0  0  0  0
    6.8848   -4.4621   24.1671 N   0  0  0  0  0  0  0  0  0  0  0  0
    7.1212   -4.6990   25.1119 H   0  0  0  0  0  0  0  0  0  0  0  0
    6.1307   -3.8117   24.0275 H   0  0  0  0  0  0  0  0  0  0  0  0
    9.1314   -4.1652   24.1986 N   0  0  0  0  0  0  0  0  0  0  0  0
   10.1760   -3.6267   23.5849 C   0  0  0  0  0  0  0  0  0  0  0  0
   11.1729   -3.9092   23.9440 H   0  0  0  0  0  0  0  0  0  0  0  0
   10.0671   -2.7375   22.5190 C   0  0  0  0  0  0  0  0  0  0  0  0
   10.9359   -2.3459   22.0092 H   0  0  0  0  0  0  0  0  0  0  0  0
    7.4425   -0.3755   21.1070 N   0  0  0  0  0  0  0  0  0  0  0  0
    6.7529   -0.6860   21.7892 H   0  0  0  0  0  0  0  0  0  0  0  0
    6.7598    0.1299   19.9609 C   0  0  0  0  0  0  0  0  0  0  0  0
    7.2467    0.1293   18.6206 C   0  0  0  0  0  0  0  0  0  0  0  0
    8.1942   -0.3522   18.3923 H   0  0  0  0  0  0  0  0  0  0  0  0
    6.6055    0.6782   17.5716 N   0  0  0  0  0  0  0  0  0  0  0  0
    5.4261    1.2713   17.8135 C   0  0  0  0  0  0  0  0  0  0  0  0
    4.9340    1.7400   16.9638 H   0  0  0  0  0  0  0  0  0  0  0  0
    4.8385    1.3012   19.0831 C   0  0  0  0  0  0  0  0  0  0  0  0
    3.8772    1.7819   19.2214 H   0  0  0  0  0  0  0  0  0  0  0  0
    5.5020    0.7177   20.1660 C   0  0  0  0  0  0  0  0  0  0  0  0
    5.0682    0.7094   21.1675 H   0  0  0  0  0  0  0  0  0  0  0  0
  1  2  1  0
  2  3  1  0
  3  4  1  6
  3  5  1  0
  5  6  2  0
  6  7  1  0
  7  8  1  0
  8  9  1  0
  8 10  1  0
  7 11  2  0
 11 12  1  0
 12 13  1  0
 12 14  2  0
 14 15  1  0
  3 16  1  0
 16 17  1  0
 16 18  1  0
 18 19  2  0
 19 20  1  0
 19 21  1  0
 21 22  2  0
 22 23  1  0
 22 24  1  0
 24 25  1  0
 24 26  2  0
 26 27  1  0
 14  5  1  0
 26 18  1  0
M  END
>  <plip>  (1) 
-0.10344827586206896

>  <filename>  (1) 
[H][O][C@@]([H])([c]1[n][c]([N]([H])[H])[n][c]([H])[c]1[H])[N]([H])[c]1[c]([H])[n][c]([H])[c]([H])[c]1[H]

$$$$
