
     RDKit          3D

 33 35  0  0  0  0  0  0  0  0999 V2000
    4.9172    1.7901   16.9866 H   0  0  0  0  0  0  0  0  0  0  0  0
    5.3962    1.2989   17.8299 C   0  0  0  0  0  0  0  0  0  0  0  0
    6.5602    0.6844   17.5680 N   0  0  0  0  0  0  0  0  0  0  0  0
    7.1607    0.0622   18.5917 C   0  0  0  0  0  0  0  0  0  0  0  0
    8.1133   -0.4191   18.3633 H   0  0  0  0  0  0  0  0  0  0  0  0
    6.6430   -0.0062   19.8958 C   0  0  0  0  0  0  0  0  0  0  0  0
    7.4179   -0.6688   21.0080 C   0  0  0  0  0  0  0  0  0  0  0  0
    6.7246   -1.0130   21.7867 H   0  0  0  0  0  0  0  0  0  0  0  0
    7.9331   -1.5613   20.6283 H   0  0  0  0  0  0  0  0  0  0  0  0
    8.4535    0.2656   21.6557 C   0  0  0  0  0  0  0  0  0  0  0  0
    7.8997    1.5383   22.2531 C   0  0  0  0  0  0  0  0  0  0  0  0
    7.8893    2.7314   21.5305 C   0  0  0  0  0  0  0  0  0  0  0  0
    8.3391    2.7066   20.5508 H   0  0  0  0  0  0  0  0  0  0  0  0
    7.3542    3.8790   22.1127 C   0  0  0  0  0  0  0  0  0  0  0  0
    7.3233    4.8219   21.5722 H   0  0  0  0  0  0  0  0  0  0  0  0
    6.8552    3.9158   23.3583 N   0  0  0  0  0  0  0  0  0  0  0  0
    6.8628    2.7759   24.0555 C   0  0  0  0  0  0  0  0  0  0  0  0
    6.2953    2.7896   25.4447 C   0  0  0  0  0  0  0  0  0  0  0  0
    6.9885    2.3360   26.1584 H   0  0  0  0  0  0  0  0  0  0  0  0
    6.0659    3.8037   25.7691 H   0  0  0  0  0  0  0  0  0  0  0  0
    5.3783    2.1955   25.4833 H   0  0  0  0  0  0  0  0  0  0  0  0
    7.3649    1.5752   23.5336 C   0  0  0  0  0  0  0  0  0  0  0  0
    7.3680    0.6803   24.1363 H   0  0  0  0  0  0  0  0  0  0  0  0
    9.8332    0.3145   21.0434 C   0  0  0  0  0  0  0  0  0  0  0  0
   10.3702    1.2623   21.0460 H   0  0  0  0  0  0  0  0  0  0  0  0
   10.0151   -0.3037   20.1670 H   0  0  0  0  0  0  0  0  0  0  0  0
    9.6203   -0.3779   22.3610 C   0  0  0  0  0  0  0  0  0  0  0  0
    9.9906    0.1108   23.2604 H   0  0  0  0  0  0  0  0  0  0  0  0
    9.6545   -1.4640   22.3972 H   0  0  0  0  0  0  0  0  0  0  0  0
    5.4284    0.6473   20.1447 C   0  0  0  0  0  0  0  0  0  0  0  0
    5.0105    0.6436   21.1574 H   0  0  0  0  0  0  0  0  0  0  0  0
    4.7978    1.3157   19.0949 C   0  0  0  0  0  0  0  0  0  0  0  0
    3.8683    1.8498   19.2472 H   0  0  0  0  0  0  0  0  0  0  0  0
  1  2  1  0
  2  3  2  0
  3  4  1  0
  4  5  1  0
  4  6  2  0
  6  7  1  0
  7  8  1  0
  7  9  1  0
  7 10  1  0
 10 11  1  0
 11 12  2  0
 12 13  1  0
 12 14  1  0
 14 15  1  0
 14 16  2  0
 16 17  1  0
 17 18  1  0
 18 19  1  0
 18 20  1  0
 18 21  1  0
 17 22  2  0
 22 23  1  0
 10 24  1  0
 24 25  1  0
 24 26  1  0
 24 27  1  0
 27 28  1  0
 27 29  1  0
  6 30  1  0
 30 31  1  0
 30 32  2  0
 32 33  1  0
 32  2  1  0
 27 10  1  0
 22 11  1  0
M  END
>  <plip>  (1) 
-0.0

>  <filename>  (1) 
[H][c]1[n][c]([H])[c]([C]([H])([H])[C]2([c]3[c]([H])[c]([H])[n][c]([C]([H])([H])[H])[c]3[H])[C]([H])([H])[C]2([H])[H])[c]([H])[c]1[H]

$$$$
