
     RDKit          3D

 38 40  0  0  0  0  0  0  0  0999 V2000
    5.3806   -3.5666   21.2875 C   0  0  0  0  0  0  0  0  0  0  0  0
    5.7225   -2.3392   21.2922 N   0  0  0  0  0  0  0  0  0  0  0  0
    7.0207   -2.1177   20.8480 O   0  0  0  0  0  0  0  0  0  0  0  0
    7.3130   -0.7214   20.9493 C   0  0  0  0  0  0  0  0  0  0  0  0
    6.6384    0.0706   19.8654 C   0  0  0  0  0  0  0  0  0  0  0  0
    5.4374    0.7502   20.0884 C   0  0  0  0  0  0  0  0  0  0  0  0
    4.8243    1.3970   19.0148 C   0  0  0  0  0  0  0  0  0  0  0  0
    5.4388    1.3373   17.7610 C   0  0  0  0  0  0  0  0  0  0  0  0
    6.5795    0.6715   17.5248 N   0  0  0  0  0  0  0  0  0  0  0  0
    7.1484    0.0445   18.5616 C   0  0  0  0  0  0  0  0  0  0  0  0
    8.0593   -0.5147   18.3439 H   0  0  0  0  0  0  0  0  0  0  0  0
    4.9992    1.8458   16.9043 H   0  0  0  0  0  0  0  0  0  0  0  0
    3.8919    1.9336   19.1345 H   0  0  0  0  0  0  0  0  0  0  0  0
    4.9890    0.7400   21.0849 H   0  0  0  0  0  0  0  0  0  0  0  0
    8.4024   -0.6722   20.8638 H   0  0  0  0  0  0  0  0  0  0  0  0
    7.0225   -0.3663   21.9456 H   0  0  0  0  0  0  0  0  0  0  0  0
    6.1885   -4.7570   20.8548 C   0  0  0  0  0  0  0  0  0  0  0  0
    7.2900   -5.0597   21.8546 C   0  0  2  0  0  0  0  0  0  0  0  0
    7.7217   -6.4629   22.1168 C   0  0  0  0  0  0  0  0  0  0  0  0
    6.8806   -5.7439   23.1414 C   0  0  1  0  0  0  0  0  0  0  0  0
    7.4388   -5.4707   24.5007 C   0  0  0  0  0  0  0  0  0  0  0  0
    8.7506   -5.0136   24.7121 C   0  0  0  0  0  0  0  0  0  0  0  0
    9.2877   -4.9433   26.0025 C   0  0  0  0  0  0  0  0  0  0  0  0
    8.5202   -5.3321   27.1053 C   0  0  0  0  0  0  0  0  0  0  0  0
    7.2015   -5.7618   26.9149 C   0  0  0  0  0  0  0  0  0  0  0  0
    6.6667   -5.8131   25.6235 C   0  0  0  0  0  0  0  0  0  0  0  0
    5.6476   -6.1634   25.4817 H   0  0  0  0  0  0  0  0  0  0  0  0
    6.5958   -6.0717   27.7640 H   0  0  0  0  0  0  0  0  0  0  0  0
    8.9417   -5.2798   28.1085 H   0  0  0  0  0  0  0  0  0  0  0  0
   10.3103   -4.5960   26.1347 H   0  0  0  0  0  0  0  0  0  0  0  0
    9.3652   -4.7462   23.8566 H   0  0  0  0  0  0  0  0  0  0  0  0
    5.8236   -6.0141   23.1676 H   0  0  0  0  0  0  0  0  0  0  0  0
    8.7622   -6.6038   22.3809 H   0  0  0  0  0  0  0  0  0  0  0  0
    7.2857   -7.2822   21.5565 H   0  0  0  0  0  0  0  0  0  0  0  0
    8.0552   -4.2878   21.9062 H   0  0  0  0  0  0  0  0  0  0  0  0
    5.5147   -5.6113   20.7454 H   0  0  0  0  0  0  0  0  0  0  0  0
    6.6036   -4.5546   19.8630 H   0  0  0  0  0  0  0  0  0  0  0  0
    4.3708   -3.7088   21.6652 H   0  0  0  0  0  0  0  0  0  0  0  0
  1  2  2  3
  2  3  1  0
  3  4  1  0
  4  5  1  0
  5  6  2  0
  6  7  1  0
  7  8  2  0
  8  9  1  0
  9 10  2  0
 10 11  1  0
  8 12  1  0
  7 13  1  0
  6 14  1  0
  4 15  1  0
  4 16  1  0
  1 17  1  0
 17 18  1  0
 18 19  1  0
 19 20  1  0
 20 21  1  0
 21 22  2  0
 22 23  1  0
 23 24  2  0
 24 25  1  0
 25 26  2  0
 26 27  1  0
 25 28  1  0
 24 29  1  0
 23 30  1  0
 22 31  1  0
 20 32  1  1
 19 33  1  0
 19 34  1  0
 18 35  1  1
 17 36  1  0
 17 37  1  0
  1 38  1  0
 10  5  1  0
 20 18  1  0
 26 21  1  0
M  END
>  <plip>  (1) 
-0.10344827586206896

>  <filename>  (1) 
[H][C](=[N][O][C]([H])([H])[c]1[c]([H])[n][c]([H])[c]([H])[c]1[H])[C]([H])([H])[C@]1([H])[C]([H])([H])[C@@]1([H])[c]1[c]([H])[c]([H])[c]([H])[c]([H])[c]1[H]

$$$$
