
     RDKit          3D

 34 35  0  0  0  0  0  0  0  0999 V2000
    7.6219    3.3770   21.6422 N   0  0  0  0  0  0  0  0  0  0  0  0
    7.2237    2.5290   22.6835 N   0  0  0  0  0  0  0  0  0  0  0  0
    7.8378    1.4360   23.2375 C   0  0  0  0  0  0  0  0  0  0  0  0
    8.9391    1.0290   22.8825 O   0  0  0  0  0  0  0  0  0  0  0  0
    6.9805    0.7794   24.3026 C   0  0  0  0  0  0  0  0  0  0  0  0
    6.3253    1.5524   25.2888 C   0  0  0  0  0  0  0  0  0  0  0  0
    5.6426    0.9388   26.3388 C   0  0  0  0  0  0  0  0  0  0  0  0
    5.5821   -0.4569   26.4080 C   0  0  0  0  0  0  0  0  0  0  0  0
    6.1933   -1.2270   25.4123 C   0  0  0  0  0  0  0  0  0  0  0  0
    6.8919   -0.6270   24.3542 C   0  0  0  0  0  0  0  0  0  0  0  0
    7.5504   -1.4894   23.2852 C   0  0  0  0  0  0  0  0  0  0  0  0
    6.8384   -1.4201   21.9336 C   0  0  0  0  0  0  0  0  0  0  0  0
    5.8320   -2.0560   21.6985 O   0  0  0  0  0  0  0  0  0  0  0  0
    7.4383   -0.6177   20.9789 N   0  0  0  0  0  0  0  0  0  0  0  0
    6.7346    0.0163   19.9036 C   0  0  0  0  0  0  0  0  0  0  0  0
    5.5070    0.6406   20.1447 C   0  0  0  0  0  0  0  0  0  0  0  0
    4.8564    1.2923   19.0880 C   0  0  0  0  0  0  0  0  0  0  0  0
    5.4536    1.2990   17.8232 C   0  0  0  0  0  0  0  0  0  0  0  0
    6.6288    0.7023   17.5691 N   0  0  0  0  0  0  0  0  0  0  0  0
    7.2494    0.0824   18.5853 C   0  0  0  0  0  0  0  0  0  0  0  0
    8.1958   -0.3986   18.3496 H   0  0  0  0  0  0  0  0  0  0  0  0
    4.9609    1.7792   16.9781 H   0  0  0  0  0  0  0  0  0  0  0  0
    3.9023    1.7873   19.2324 H   0  0  0  0  0  0  0  0  0  0  0  0
    5.0764    0.5971   21.1473 H   0  0  0  0  0  0  0  0  0  0  0  0
    8.2551   -0.1235   21.3216 H   0  0  0  0  0  0  0  0  0  0  0  0
    8.5912   -1.1894   23.1728 H   0  0  0  0  0  0  0  0  0  0  0  0
    7.5267   -2.5344   23.6026 H   0  0  0  0  0  0  0  0  0  0  0  0
    6.1469   -2.3136   25.4678 H   0  0  0  0  0  0  0  0  0  0  0  0
    5.0743   -0.9389   27.2427 H   0  0  0  0  0  0  0  0  0  0  0  0
    5.1575    1.5473   27.1016 H   0  0  0  0  0  0  0  0  0  0  0  0
    6.3639    2.6407   25.2593 H   0  0  0  0  0  0  0  0  0  0  0  0
    6.2793    2.6807   22.9995 H   0  0  0  0  0  0  0  0  0  0  0  0
    8.4795    3.8938   21.8612 H   0  0  0  0  0  0  0  0  0  0  0  0
    7.7979    2.8541   20.7797 H   0  0  0  0  0  0  0  0  0  0  0  0
  1  2  1  0
  2  3  1  0
  3  4  2  0
  3  5  1  0
  5  6  2  0
  6  7  1  0
  7  8  2  0
  8  9  1  0
  9 10  2  0
 10 11  1  0
 11 12  1  0
 12 13  2  0
 12 14  1  0
 14 15  1  0
 15 16  2  0
 16 17  1  0
 17 18  2  0
 18 19  1  0
 19 20  2  0
 20 21  1  0
 18 22  1  0
 17 23  1  0
 16 24  1  0
 14 25  1  0
 11 26  1  0
 11 27  1  0
  9 28  1  0
  8 29  1  0
  7 30  1  0
  6 31  1  0
  2 32  1  0
  1 33  1  0
  1 34  1  0
 10  5  1  0
 20 15  1  0
M  END
>  <plip>  (1) 
-0.17857142857142858

>  <filename>  (1) 
[H][c]1[n][c]([H])[c]([N]([H])[C](=[O])[C]([H])([H])[c]2[c]([H])[c]([H])[c]([H])[c]([H])[c]2[C](=[O])[N]([H])[N]([H])[H])[c]([H])[c]1[H]

$$$$
