
     RDKit          3D

 29 30  0  0  0  0  0  0  0  0999 V2000
    8.7598   -0.9669   20.8985 C   0  0  0  0  0  0  0  0  0  0  0  0
    7.2450   -0.8128   21.0180 C   0  0  0  0  0  0  0  0  0  0  0  0
    6.5897   -0.0738   19.8771 C   0  0  0  0  0  0  0  0  0  0  0  0
    5.3937    0.6205   20.1047 C   0  0  0  0  0  0  0  0  0  0  0  0
    4.8033    1.3231   19.0535 C   0  0  0  0  0  0  0  0  0  0  0  0
    5.4258    1.2960   17.8012 C   0  0  0  0  0  0  0  0  0  0  0  0
    6.5638    0.6294   17.5574 N   0  0  0  0  0  0  0  0  0  0  0  0
    7.1265   -0.0249   18.5842 C   0  0  0  0  0  0  0  0  0  0  0  0
    8.0726   -0.5201   18.3529 H   0  0  0  0  0  0  0  0  0  0  0  0
    5.0106    1.8533   16.9647 H   0  0  0  0  0  0  0  0  0  0  0  0
    3.9000    1.9056   19.2003 H   0  0  0  0  0  0  0  0  0  0  0  0
    4.9449    0.6051   21.1010 H   0  0  0  0  0  0  0  0  0  0  0  0
    6.5917   -2.1026   21.2708 N   0  0  0  0  0  0  0  0  0  0  0  0
    6.5586   -2.6672   22.5188 C   0  0  0  0  0  0  0  0  0  0  0  0
    6.8222   -2.1127   23.5598 O   0  0  0  0  0  0  0  0  0  0  0  0
    6.1540   -4.1131   22.3456 C   0  0  0  0  0  0  0  0  0  0  0  0
    6.0220   -4.2284   20.9167 N   0  0  0  0  0  0  0  0  0  0  0  0
    5.8556   -5.4708   20.2053 C   0  0  0  0  0  0  0  0  0  0  0  0
    6.8144   -5.9491   19.9710 H   0  0  0  0  0  0  0  0  0  0  0  0
    5.2645   -6.1640   20.8102 H   0  0  0  0  0  0  0  0  0  0  0  0
    5.3343   -5.2727   19.2699 H   0  0  0  0  0  0  0  0  0  0  0  0
    6.2028   -3.0177   20.2997 C   0  0  0  0  0  0  0  0  0  0  0  0
    6.0372   -2.7922   19.1270 O   0  0  0  0  0  0  0  0  0  0  0  0
    5.2193   -4.3095   22.8822 H   0  0  0  0  0  0  0  0  0  0  0  0
    6.9208   -4.7632   22.7817 H   0  0  0  0  0  0  0  0  0  0  0  0
    7.0782   -0.2226   21.9315 H   0  0  0  0  0  0  0  0  0  0  0  0
    9.1997    0.0172   20.7185 H   0  0  0  0  0  0  0  0  0  0  0  0
    9.1611   -1.3579   21.8376 H   0  0  0  0  0  0  0  0  0  0  0  0
    9.0597   -1.6376   20.0887 H   0  0  0  0  0  0  0  0  0  0  0  0
  1  2  1  0
  2  3  1  0
  3  4  2  0
  4  5  1  0
  5  6  2  0
  6  7  1  0
  7  8  2  0
  8  9  1  0
  6 10  1  0
  5 11  1  0
  4 12  1  0
  2 13  1  0
 13 14  1  0
 14 15  2  0
 14 16  1  0
 16 17  1  0
 17 18  1  0
 18 19  1  0
 18 20  1  0
 18 21  1  0
 17 22  1  0
 22 23  2  0
 16 24  1  0
 16 25  1  0
  2 26  1  0
  1 27  1  0
  1 28  1  0
  1 29  1  0
  8  3  1  0
 22 13  1  0
M  END
>  <plip>  (1) 
-0.14285714285714285

>  <filename>  (1) 
[H][c]1[n][c]([H])[c]([C]([H])([N]2[C](=[O])[N]([C]([H])([H])[H])[C]([H])([H])[C]2=[O])[C]([H])([H])[H])[c]([H])[c]1[H]

$$$$
