
     RDKit          3D

 49 50  0  0  0  0  0  0  0  0999 V2000
   11.2552   -2.4098   22.3592 C   0  0  0  0  0  0  0  0  0  0  0  0
   10.8151   -1.0799   22.4028 O   0  0  0  0  0  0  0  0  0  0  0  0
   10.5238   -0.6148   21.1063 C   0  0  0  0  0  0  0  0  0  0  0  0
    9.6234    0.6083   21.1308 C   0  0  0  0  0  0  0  0  0  0  0  0
    8.3016    0.3624   21.7252 N   0  0  0  0  0  0  0  0  0  0  0  0
    7.3420   -0.5316   21.0732 C   0  0  0  0  0  0  0  0  0  0  0  0
    6.5749    0.0927   19.9401 C   0  0  0  0  0  0  0  0  0  0  0  0
    5.3239    0.7005   20.1069 C   0  0  0  0  0  0  0  0  0  0  0  0
    4.7389    1.3381   19.0123 C   0  0  0  0  0  0  0  0  0  0  0  0
    5.3984    1.3084   17.7799 C   0  0  0  0  0  0  0  0  0  0  0  0
    6.5644    0.6773   17.5853 N   0  0  0  0  0  0  0  0  0  0  0  0
    7.1241    0.0901   18.6493 C   0  0  0  0  0  0  0  0  0  0  0  0
    8.0569   -0.4466   18.4513 H   0  0  0  0  0  0  0  0  0  0  0  0
    4.9689    1.8026   16.9090 H   0  0  0  0  0  0  0  0  0  0  0  0
    3.7929    1.8641   19.0986 H   0  0  0  0  0  0  0  0  0  0  0  0
    4.8408    0.6984   21.0872 H   0  0  0  0  0  0  0  0  0  0  0  0
    6.6623   -0.9218   21.8383 H   0  0  0  0  0  0  0  0  0  0  0  0
    7.9098   -1.3880   20.6920 H   0  0  0  0  0  0  0  0  0  0  0  0
    7.6890    1.5251   22.7271 S   0  0  0  0  0  0  0  0  0  0  0  0
    6.3493    1.1108   23.0987 O   0  0  0  0  0  0  0  0  0  0  0  0
    8.6861    1.8277   23.7334 O   0  0  0  0  0  0  0  0  0  0  0  0
    7.6246    2.9072   21.6149 C   0  0  0  0  0  0  0  0  0  0  0  0
    6.7996    4.0781   22.1307 C   0  0  0  0  0  0  0  0  0  0  0  0
    7.0870    4.3999   23.6023 C   0  0  0  0  0  0  0  0  0  0  0  0
    6.1855    5.5388   24.0634 C   0  0  0  0  0  0  0  0  0  0  0  0
    4.8203    5.2429   23.8299 O   0  0  0  0  0  0  0  0  0  0  0  0
    4.4963    4.9865   22.4637 C   0  0  0  0  0  0  0  0  0  0  0  0
    3.0021    4.7452   22.4107 C   0  0  0  0  0  0  0  0  0  0  0  0
    2.7475    3.8529   22.9929 H   0  0  0  0  0  0  0  0  0  0  0  0
    2.6638    4.5961   21.3790 H   0  0  0  0  0  0  0  0  0  0  0  0
    2.4709    5.5999   22.8347 H   0  0  0  0  0  0  0  0  0  0  0  0
    5.3061    3.8004   21.9492 C   0  0  0  0  0  0  0  0  0  0  0  0
    5.0330    2.8974   22.5092 H   0  0  0  0  0  0  0  0  0  0  0  0
    5.0775    3.6094   20.8920 H   0  0  0  0  0  0  0  0  0  0  0  0
    4.7550    5.8738   21.8532 H   0  0  0  0  0  0  0  0  0  0  0  0
    6.4715    6.4800   23.5586 H   0  0  0  0  0  0  0  0  0  0  0  0
    6.2839    5.6934   25.1420 H   0  0  0  0  0  0  0  0  0  0  0  0
    6.8751    3.5135   24.2186 H   0  0  0  0  0  0  0  0  0  0  0  0
    8.1451    4.6472   23.7490 H   0  0  0  0  0  0  0  0  0  0  0  0
    7.0611    4.9628   21.5185 H   0  0  0  0  0  0  0  0  0  0  0  0
    8.6685    3.1847   21.4561 H   0  0  0  0  0  0  0  0  0  0  0  0
    7.2097    2.4904   20.6955 H   0  0  0  0  0  0  0  0  0  0  0  0
    9.4950    0.9468   20.0927 H   0  0  0  0  0  0  0  0  0  0  0  0
   10.1586    1.4049   21.6606 H   0  0  0  0  0  0  0  0  0  0  0  0
   11.4702   -0.3520   20.6167 H   0  0  0  0  0  0  0  0  0  0  0  0
   10.0379   -1.3933   20.4952 H   0  0  0  0  0  0  0  0  0  0  0  0
   10.4235   -3.0856   22.1296 H   0  0  0  0  0  0  0  0  0  0  0  0
   12.0784   -2.5352   21.6380 H   0  0  0  0  0  0  0  0  0  0  0  0
   11.6106   -2.6939   23.3363 H   0  0  0  0  0  0  0  0  0  0  0  0
  1  2  1  0
  2  3  1  0
  3  4  1  0
  4  5  1  0
  5  6  1  0
  6  7  1  0
  7  8  2  0
  8  9  1  0
  9 10  2  0
 10 11  1  0
 11 12  2  0
 12 13  1  0
 10 14  1  0
  9 15  1  0
  8 16  1  0
  6 17  1  0
  6 18  1  0
  5 19  1  0
 19 20  2  0
 19 21  2  0
 19 22  1  0
 22 23  1  0
 23 24  1  0
 24 25  1  0
 25 26  1  0
 26 27  1  0
 27 28  1  0
 28 29  1  0
 28 30  1  0
 28 31  1  0
 27 32  1  0
 32 33  1  0
 32 34  1  0
 27 35  1  0
 25 36  1  0
 25 37  1  0
 24 38  1  0
 24 39  1  0
 23 40  1  0
 22 41  1  0
 22 42  1  0
  4 43  1  0
  4 44  1  0
  3 45  1  0
  3 46  1  0
  1 47  1  0
  1 48  1  0
  1 49  1  0
 12  7  1  0
 32 23  1  0
M  END
>  <plip>  (1) 
-0.07142857142857142

>  <filename>  (1) 
[H][c]1[n][c]([H])[c]([C]([H])([H])[N]([C]([H])([H])[C]([H])([H])[O][C]([H])([H])[H])[S](=[O])(=[O])[C]([H])([H])[C]2([H])[C]([H])([H])[C]([H])([H])[O][C]([H])([C]([H])([H])[H])[C]2([H])[H])[c]([H])[c]1[H]

$$$$
