
     RDKit          3D

 18 19  0  0  0  0  0  0  0  0999 V2000
    4.9226    1.8008   16.9828 H   0  0  0  0  0  0  0  0  0  0  0  0
    5.3910    1.2973   17.8270 C   0  0  0  0  0  0  0  0  0  0  0  0
    6.5522    0.6814   17.5508 N   0  0  0  0  0  0  0  0  0  0  0  0
    7.1475    0.0392   18.5602 C   0  0  0  0  0  0  0  0  0  0  0  0
    8.1138   -0.4189   18.3607 H   0  0  0  0  0  0  0  0  0  0  0  0
    6.6215   -0.0440   19.8588 C   0  0  0  0  0  0  0  0  0  0  0  0
    7.6160   -0.8525   21.0899 S   0  0  0  0  0  0  0  0  0  0  0  0
    8.7322    0.7696   21.7760 S   0  0  0  0  0  0  0  0  0  0  0  0
    7.6833    1.3998   23.0234 C   0  0  0  0  0  0  0  0  0  0  0  0
    6.6916    2.3133   22.8372 N   0  0  0  0  0  0  0  0  0  0  0  0
    6.0975    2.4388   23.9932 N   0  0  0  0  0  0  0  0  0  0  0  0
    6.7339    1.6362   24.8083 N   0  0  0  0  0  0  0  0  0  0  0  0
    6.4815    1.5457   25.7853 H   0  0  0  0  0  0  0  0  0  0  0  0
    7.7392    0.9753   24.2780 N   0  0  0  0  0  0  0  0  0  0  0  0
    5.4152    0.6098   20.1427 C   0  0  0  0  0  0  0  0  0  0  0  0
    5.0164    0.6267   21.1652 H   0  0  0  0  0  0  0  0  0  0  0  0
    4.7950    1.2990   19.0936 C   0  0  0  0  0  0  0  0  0  0  0  0
    3.8753    1.8484   19.2434 H   0  0  0  0  0  0  0  0  0  0  0  0
  1  2  1  0
  2  3  2  0
  3  4  1  0
  4  5  1  0
  4  6  2  0
  6  7  1  0
  7  8  1  0
  8  9  1  0
  9 10  1  0
 10 11  2  0
 11 12  1  0
 12 13  1  0
 12 14  1  0
  6 15  1  0
 15 16  1  0
 15 17  2  0
 17 18  1  0
 17  2  1  0
 14  9  2  0
M  END
>  <plip>  (1) 
-0.0

>  <filename>  (1) 
[H][c]1[n][c]([H])[c]([S][S][c]2[n][n][n]([H])[n]2)[c]([H])[c]1[H]

$$$$
