
     RDKit          3D

 29 30  0  0  0  0  0  0  0  0999 V2000
    4.9361    1.7853   16.9932 H   0  0  0  0  0  0  0  0  0  0  0  0
    5.4031    1.2871   17.8403 C   0  0  0  0  0  0  0  0  0  0  0  0
    6.5700    0.6654   17.5954 N   0  0  0  0  0  0  0  0  0  0  0  0
    7.1790    0.0538   18.6138 C   0  0  0  0  0  0  0  0  0  0  0  0
    8.1208   -0.4413   18.3832 H   0  0  0  0  0  0  0  0  0  0  0  0
    6.6557    0.0353   19.9235 C   0  0  0  0  0  0  0  0  0  0  0  0
    7.3582   -0.6242   20.9817 N   0  0  0  0  0  0  0  0  0  0  0  0
    8.1141   -1.7209   20.7245 N   0  0  0  0  0  0  0  0  0  0  0  0
    8.6027   -2.1121   21.8347 N   0  0  0  0  0  0  0  0  0  0  0  0
    8.2151   -1.3207   22.8589 N   0  0  0  0  0  0  0  0  0  0  0  0
    7.4473   -0.4069   22.3235 C   0  0  0  0  0  0  0  0  0  0  0  0
    6.8146    0.6477   22.8770 O   0  0  0  0  0  0  0  0  0  0  0  0
    6.8769    0.9042   24.2289 C   0  0  0  0  0  0  0  0  0  0  0  0
    7.5130    0.1135   24.9847 N   0  0  0  0  0  0  0  0  0  0  0  0
    7.6051    0.3046   26.3290 N   0  0  0  0  0  0  0  0  0  0  0  0
    7.2901    1.1033   26.8597 H   0  0  0  0  0  0  0  0  0  0  0  0
    8.4095   -0.4419   27.1350 C   0  0  0  0  0  0  0  0  0  0  0  0
    8.6781    0.1356   28.6587 S   0  0  0  0  0  0  0  0  0  0  0  0
    8.9156   -1.5735   26.6471 N   0  0  0  0  0  0  0  0  0  0  0  0
    8.8463   -1.7325   25.6477 H   0  0  0  0  0  0  0  0  0  0  0  0
    9.4913   -2.0833   27.2958 H   0  0  0  0  0  0  0  0  0  0  0  0
    6.1420    2.1413   24.6520 C   0  0  0  0  0  0  0  0  0  0  0  0
    6.8295    2.8394   25.1425 H   0  0  0  0  0  0  0  0  0  0  0  0
    5.3872    1.8817   25.4017 H   0  0  0  0  0  0  0  0  0  0  0  0
    5.6591    2.6475   23.8166 H   0  0  0  0  0  0  0  0  0  0  0  0
    5.4312    0.6589   20.1691 C   0  0  0  0  0  0  0  0  0  0  0  0
    4.9980    0.6450   21.1665 H   0  0  0  0  0  0  0  0  0  0  0  0
    4.8007    1.3034   19.1006 C   0  0  0  0  0  0  0  0  0  0  0  0
    3.8693    1.8383   19.2459 H   0  0  0  0  0  0  0  0  0  0  0  0
  1  2  1  0
  2  3  2  0
  3  4  1  0
  4  5  1  0
  4  6  2  0
  6  7  1  0
  7  8  1  0
  8  9  2  0
  9 10  1  0
 10 11  2  0
 11 12  1  0
 12 13  1  0
 13 14  2  3
 14 15  1  0
 15 16  1  0
 15 17  1  0
 17 18  2  0
 17 19  1  0
 19 20  1  0
 19 21  1  0
 13 22  1  0
 22 23  1  0
 22 24  1  0
 22 25  1  0
  6 26  1  0
 26 27  1  0
 26 28  2  0
 28 29  1  0
 28  2  1  0
 11  7  1  0
M  END
>  <plip>  (1) 
-0.0

>  <filename>  (1) 
[H][c]1[n][c]([H])[c](-[n]2[n][n][n][c]2[O][C](=[N][N]([H])[C](=[S])[N]([H])[H])[C]([H])([H])[H])[c]([H])[c]1[H]

$$$$
