
     RDKit          3D

 22 23  0  0  0  0  0  0  0  0999 V2000
    5.6790   -1.5472   21.7388 H   0  0  0  0  0  0  0  0  0  0  0  0
    6.7572   -1.4686   21.8512 C   0  0  0  0  0  0  0  0  0  0  0  0
    7.3818   -0.6855   20.9702 C   0  0  0  0  0  0  0  0  0  0  0  0
    9.0925   -0.3663   21.0332 Cl  0  0  0  0  0  0  0  0  0  0  0  0
    6.6696    0.0287   19.8944 C   0  0  0  0  0  0  0  0  0  0  0  0
    7.1855    0.0776   18.5891 C   0  0  0  0  0  0  0  0  0  0  0  0
    8.1235   -0.4261   18.3662 H   0  0  0  0  0  0  0  0  0  0  0  0
    6.5661    0.6769   17.5693 N   0  0  0  0  0  0  0  0  0  0  0  0
    5.4011    1.2925   17.8366 C   0  0  0  0  0  0  0  0  0  0  0  0
    4.9146    1.7792   16.9964 H   0  0  0  0  0  0  0  0  0  0  0  0
    4.8041    1.3126   19.1035 C   0  0  0  0  0  0  0  0  0  0  0  0
    3.8703    1.8441   19.2595 H   0  0  0  0  0  0  0  0  0  0  0  0
    5.4395    0.6512   20.1505 C   0  0  0  0  0  0  0  0  0  0  0  0
    5.0162    0.6378   21.1585 H   0  0  0  0  0  0  0  0  0  0  0  0
    7.3681   -2.2661   22.9173 C   0  0  0  0  0  0  0  0  0  0  0  0
    6.8253   -2.3746   24.1632 C   0  0  0  0  0  0  0  0  0  0  0  0
    5.9136   -1.9037   24.4947 H   0  0  0  0  0  0  0  0  0  0  0  0
    7.7713   -3.3556   25.1960 S   0  0  0  0  0  0  0  0  0  0  0  0
    8.9075   -3.6400   23.9356 C   0  0  0  0  0  0  0  0  0  0  0  0
    9.7681   -4.2685   24.0983 H   0  0  0  0  0  0  0  0  0  0  0  0
    8.5838   -3.0055   22.7846 C   0  0  0  0  0  0  0  0  0  0  0  0
    9.1522   -3.0576   21.8568 H   0  0  0  0  0  0  0  0  0  0  0  0
  1  2  1  0
  2  3  2  3
  3  4  1  0
  3  5  1  0
  5  6  2  0
  6  7  1  0
  6  8  1  0
  8  9  2  0
  9 10  1  0
  9 11  1  0
 11 12  1  0
 11 13  2  0
 13 14  1  0
  2 15  1  0
 15 16  2  0
 16 17  1  0
 16 18  1  0
 18 19  1  0
 19 20  1  0
 19 21  2  0
 21 22  1  0
 13  5  1  0
 21 15  1  0
M  END
>  <plip>  (1) 
-0.03571428571428571

>  <filename>  (1) 
[H][C](=[C]([Cl])[c]1[c]([H])[n][c]([H])[c]([H])[c]1[H])[c]1[c]([H])[s][c]([H])[c]1[H]

$$$$
