
     RDKit          3D

 42 44  0  0  0  0  0  0  0  0999 V2000
    7.2320   -2.4035   20.0564 H   0  0  0  0  0  0  0  0  0  0  0  0
    7.7085   -1.8201   20.8168 C   0  0  0  0  0  0  0  0  0  0  0  0
    7.3070   -0.5594   21.0504 C   0  0  0  0  0  0  0  0  0  0  0  0
    6.5998    0.2095   20.0213 C   0  0  0  0  0  0  0  0  0  0  0  0
    7.1401    0.1700   18.7226 C   0  0  0  0  0  0  0  0  0  0  0  0
    8.0891   -0.3454   18.5563 H   0  0  0  0  0  0  0  0  0  0  0  0
    6.5749    0.7248   17.6493 N   0  0  0  0  0  0  0  0  0  0  0  0
    5.4024    1.3542   17.8335 C   0  0  0  0  0  0  0  0  0  0  0  0
    4.9557    1.7985   16.9469 H   0  0  0  0  0  0  0  0  0  0  0  0
    4.7670    1.4535   19.0777 C   0  0  0  0  0  0  0  0  0  0  0  0
    3.8171    1.9742   19.1547 H   0  0  0  0  0  0  0  0  0  0  0  0
    5.3822    0.8864   20.1966 C   0  0  0  0  0  0  0  0  0  0  0  0
    4.9207    0.9377   21.1829 H   0  0  0  0  0  0  0  0  0  0  0  0
    7.6154    0.0189   22.2707 N   0  0  0  0  0  0  0  0  0  0  0  0
    7.2226    0.8982   22.5632 H   0  0  0  0  0  0  0  0  0  0  0  0
    8.2523   -0.6348   23.2725 C   0  0  0  0  0  0  0  0  0  0  0  0
    8.2772   -0.0406   24.8146 S   0  0  0  0  0  0  0  0  0  0  0  0
    8.8591   -1.7956   22.9514 N   0  0  0  0  0  0  0  0  0  0  0  0
    9.0245   -2.3439   23.7776 H   0  0  0  0  0  0  0  0  0  0  0  0
    8.5561   -2.5756   21.7585 C   0  0  1  0  0  0  0  0  0  0  0  0
    9.5098   -2.8621   21.2860 H   0  0  0  0  0  0  0  0  0  0  0  0
    7.8693   -3.8082   22.1373 N   0  0  0  0  0  0  0  0  0  0  0  0
    6.4828   -3.6227   22.6079 C   0  0  0  0  0  0  0  0  0  0  0  0
    5.7701   -3.8123   21.7918 H   0  0  0  0  0  0  0  0  0  0  0  0
    6.3049   -2.5825   22.9287 H   0  0  0  0  0  0  0  0  0  0  0  0
    6.3175   -4.5869   23.7796 C   0  0  0  0  0  0  0  0  0  0  0  0
    5.9559   -5.5594   23.4317 H   0  0  0  0  0  0  0  0  0  0  0  0
    5.6136   -4.2043   24.5258 H   0  0  0  0  0  0  0  0  0  0  0  0
    7.7318   -4.7876   24.3395 C   0  0  1  0  0  0  0  0  0  0  0  0
    8.0231   -3.8980   24.9423 H   0  0  0  0  0  0  0  0  0  0  0  0
    7.8513   -6.0053   25.1359 N   0  0  0  0  0  0  0  0  0  0  0  0
    7.0010   -5.9745   26.3229 C   0  0  0  0  0  0  0  0  0  0  0  0
    5.9454   -5.8902   26.0382 H   0  0  0  0  0  0  0  0  0  0  0  0
    7.1058   -6.9160   26.8710 H   0  0  0  0  0  0  0  0  0  0  0  0
    7.2581   -5.1443   27.0130 H   0  0  0  0  0  0  0  0  0  0  0  0
    9.2241   -6.3357   25.4909 C   0  0  0  0  0  0  0  0  0  0  0  0
    9.7387   -5.5237   26.0346 H   0  0  0  0  0  0  0  0  0  0  0  0
    9.8161   -6.5796   24.6040 H   0  0  0  0  0  0  0  0  0  0  0  0
    9.2262   -7.2256   26.1269 H   0  0  0  0  0  0  0  0  0  0  0  0
    8.5575   -4.7503   23.0289 C   0  0  0  0  0  0  0  0  0  0  0  0
    9.6060   -4.4756   23.2045 H   0  0  0  0  0  0  0  0  0  0  0  0
    8.5486   -5.7615   22.5913 H   0  0  0  0  0  0  0  0  0  0  0  0
  1  2  1  0
  2  3  2  0
  3  4  1  0
  4  5  2  0
  5  6  1  0
  5  7  1  0
  7  8  2  0
  8  9  1  0
  8 10  1  0
 10 11  1  0
 10 12  2  0
 12 13  1  0
  3 14  1  0
 14 15  1  0
 14 16  1  0
 16 17  2  0
 16 18  1  0
 18 19  1  0
 18 20  1  0
 20 21  1  6
 20 22  1  0
 22 23  1  0
 23 24  1  0
 23 25  1  0
 23 26  1  0
 26 27  1  0
 26 28  1  0
 26 29  1  0
 29 30  1  1
 29 31  1  0
 31 32  1  0
 32 33  1  0
 32 34  1  0
 32 35  1  0
 31 36  1  0
 36 37  1  0
 36 38  1  0
 36 39  1  0
 29 40  1  0
 40 41  1  0
 40 42  1  0
 20  2  1  0
 40 22  1  0
 12  4  1  0
M  END
>  <plip>  (1) 
-0.034482758620689655

>  <filename>  (1) 
[H][C]1=[C]([c]2[c]([H])[n][c]([H])[c]([H])[c]2[H])[N]([H])[C](=[S])[N]([H])[C@@]1([H])[N]1[C]([H])([H])[C]([H])([H])[C@@]([H])([N]([C]([H])([H])[H])[C]([H])([H])[H])[C]1([H])[H]

$$$$
