
     RDKit          3D

 30 32  0  0  0  0  0  0  0  0999 V2000
    6.9950    0.9559   22.5281 O   0  0  0  0  0  0  0  0  0  0  0  0
    7.3384   -0.1696   22.2129 C   0  0  0  0  0  0  0  0  0  0  0  0
    7.3257   -0.6287   20.9193 N   0  0  0  0  0  0  0  0  0  0  0  0
    6.6554    0.0020   19.8446 C   0  0  0  0  0  0  0  0  0  0  0  0
    5.4422    0.6544   20.0989 C   0  0  0  0  0  0  0  0  0  0  0  0
    4.7994    1.3066   19.0489 C   0  0  0  0  0  0  0  0  0  0  0  0
    5.3958    1.3005   17.7845 C   0  0  0  0  0  0  0  0  0  0  0  0
    6.5532    0.6704   17.5215 N   0  0  0  0  0  0  0  0  0  0  0  0
    7.1653    0.0349   18.5292 C   0  0  0  0  0  0  0  0  0  0  0  0
    8.1201   -0.4398   18.2977 H   0  0  0  0  0  0  0  0  0  0  0  0
    4.9305    1.8233   16.9540 H   0  0  0  0  0  0  0  0  0  0  0  0
    3.8715    1.8420   19.2168 H   0  0  0  0  0  0  0  0  0  0  0  0
    5.0570    0.6642   21.1155 H   0  0  0  0  0  0  0  0  0  0  0  0
    7.8442   -1.4779   20.7792 H   0  0  0  0  0  0  0  0  0  0  0  0
    7.8588   -1.2192   23.2148 C   0  0  0  0  0  0  0  0  0  0  0  0
    7.4356   -2.5408   23.2187 C   0  0  0  0  0  0  0  0  0  0  0  0
    7.8303   -3.3674   24.3001 C   0  0  0  0  0  0  0  0  0  0  0  0
    7.4820   -4.6507   24.3166 O   0  0  0  0  0  0  0  0  0  0  0  0
    7.9064   -4.8624   25.1683 H   0  0  0  0  0  0  0  0  0  0  0  0
    8.5145   -3.0194   25.3502 N   0  0  0  0  0  0  0  0  0  0  0  0
    8.9470   -1.7393   25.3694 C   0  0  0  0  0  0  0  0  0  0  0  0
    9.6165   -1.3932   26.4869 N   0  0  0  0  0  0  0  0  0  0  0  0
   10.2405   -0.2400   26.5012 C   0  0  0  0  0  0  0  0  0  0  0  0
   10.2027    0.7055   25.4379 C   0  0  0  0  0  0  0  0  0  0  0  0
    9.3986    0.4451   24.3503 C   0  0  0  0  0  0  0  0  0  0  0  0
    8.7330   -0.8140   24.2878 C   0  0  0  0  0  0  0  0  0  0  0  0
    9.2257    1.1582   23.5417 H   0  0  0  0  0  0  0  0  0  0  0  0
   10.7868    1.6180   25.5076 H   0  0  0  0  0  0  0  0  0  0  0  0
   10.8341   -0.0258   27.3886 H   0  0  0  0  0  0  0  0  0  0  0  0
    6.7581   -3.0006   22.5065 H   0  0  0  0  0  0  0  0  0  0  0  0
  1  2  2  0
  2  3  1  0
  3  4  1  0
  4  5  2  0
  5  6  1  0
  6  7  2  0
  7  8  1  0
  8  9  2  0
  9 10  1  0
  7 11  1  0
  6 12  1  0
  5 13  1  0
  3 14  1  0
  2 15  1  0
 15 16  2  0
 16 17  1  0
 17 18  1  0
 18 19  1  0
 17 20  2  0
 20 21  1  0
 21 22  2  0
 22 23  1  0
 23 24  2  0
 24 25  1  0
 25 26  2  0
 25 27  1  0
 24 28  1  0
 23 29  1  0
 16 30  1  0
  9  4  1  0
 26 15  1  0
 26 21  1  0
M  END
>  <plip>  (1) 
-0.07142857142857142

>  <filename>  (1) 
[H][O][c]1[n][c]2[n][c]([H])[c]([H])[c]([H])[c]2[c]([C](=[O])[N]([H])[c]2[c]([H])[n][c]([H])[c]([H])[c]2[H])[c]1[H]

$$$$
