
     RDKit          3D

 29 31  0  0  0  0  0  0  0  0999 V2000
    5.1664    1.7963   17.1937 H   0  0  0  0  0  0  0  0  0  0  0  0
    5.6019    1.2087   18.0005 C   0  0  0  0  0  0  0  0  0  0  0  0
    6.7348    0.5528   17.7034 N   0  0  0  0  0  0  0  0  0  0  0  0
    7.2912   -0.1900   18.6707 C   0  0  0  0  0  0  0  0  0  0  0  0
    8.2226   -0.7034   18.4326 H   0  0  0  0  0  0  0  0  0  0  0  0
    6.7412   -0.3327   19.9584 C   0  0  0  0  0  0  0  0  0  0  0  0
    7.3439   -1.1675   20.9635 N   0  0  0  0  0  0  0  0  0  0  0  0
    8.5154   -0.9148   21.6775 C   0  0  0  0  0  0  0  0  0  0  0  0
    9.3264    0.3108   21.3871 C   0  0  1  0  0  0  0  0  0  0  0  0
    9.4165    0.3647   20.2911 H   0  0  0  0  0  0  0  0  0  0  0  0
    8.6318    1.4670   21.8341 O   0  0  0  0  0  0  0  0  0  0  0  0
    9.5484    2.5389   21.7222 C   0  0  0  0  0  0  0  0  0  0  0  0
    9.3990    2.9891   20.7403 H   0  0  0  0  0  0  0  0  0  0  0  0
    9.3117    3.2816   22.4896 H   0  0  0  0  0  0  0  0  0  0  0  0
   10.9709    1.9442   21.8647 C   0  0  0  0  0  0  0  0  0  0  0  0
   11.5667    2.1681   20.9718 H   0  0  0  0  0  0  0  0  0  0  0  0
   11.4883    2.3904   22.7166 H   0  0  0  0  0  0  0  0  0  0  0  0
   10.7142    0.4317   22.0232 C   0  0  0  0  0  0  0  0  0  0  0  0
   10.6640    0.1349   23.0788 H   0  0  0  0  0  0  0  0  0  0  0  0
   11.4346   -0.2185   21.5152 H   0  0  0  0  0  0  0  0  0  0  0  0
    8.7227   -1.8237   22.5838 N   0  0  0  0  0  0  0  0  0  0  0  0
    7.6515   -2.6528   22.4585 N   0  0  0  0  0  0  0  0  0  0  0  0
    7.3993   -3.3369   23.1535 H   0  0  0  0  0  0  0  0  0  0  0  0
    6.7496   -2.2870   21.5243 C   0  0  0  0  0  0  0  0  0  0  0  0
    5.3112   -3.0561   21.2165 S   0  0  0  0  0  0  0  0  0  0  0  0
    5.5568    0.3406   20.2511 C   0  0  0  0  0  0  0  0  0  0  0  0
    5.1252    0.2289   21.2485 H   0  0  0  0  0  0  0  0  0  0  0  0
    4.9808    1.1399   19.2548 C   0  0  0  0  0  0  0  0  0  0  0  0
    4.0672    1.6973   19.4356 H   0  0  0  0  0  0  0  0  0  0  0  0
  1  2  1  0
  2  3  2  0
  3  4  1  0
  4  5  1  0
  4  6  2  0
  6  7  1  0
  7  8  1  0
  8  9  1  0
  9 10  1  6
  9 11  1  0
 11 12  1  0
 12 13  1  0
 12 14  1  0
 12 15  1  0
 15 16  1  0
 15 17  1  0
 15 18  1  0
 18 19  1  0
 18 20  1  0
  8 21  2  0
 21 22  1  0
 22 23  1  0
 22 24  1  0
 24 25  2  0
  6 26  1  0
 26 27  1  0
 26 28  2  0
 28 29  1  0
 28  2  1  0
 24  7  1  0
 18  9  1  0
M  END
>  <plip>  (1) 
-0.034482758620689655

>  <filename>  (1) 
[H][c]1[n][c]([H])[c](-[n]2[c]([C@@]3([H])[O][C]([H])([H])[C]([H])([H])[C]3([H])[H])[n][n]([H])[c]2=[S])[c]([H])[c]1[H]

$$$$
