
     RDKit          3D

 32 34  0  0  0  0  0  0  0  0999 V2000
    4.8998   -3.1423   21.6011 N   0  0  0  0  0  0  0  0  0  0  0  0
    5.7604   -2.3669   21.6165 C   0  0  0  0  0  0  0  0  0  0  0  0
    6.9691   -1.6274   21.7818 C   0  0  0  0  0  0  0  0  0  0  0  0
    7.4298   -0.7057   20.9019 C   0  0  0  0  0  0  0  0  0  0  0  0
    6.6676    0.0203   19.8731 C   0  0  0  0  0  0  0  0  0  0  0  0
    5.4351    0.6461   20.1264 C   0  0  0  0  0  0  0  0  0  0  0  0
    4.7952    1.3126   19.0770 C   0  0  0  0  0  0  0  0  0  0  0  0
    5.3963    1.3115   17.8154 C   0  0  0  0  0  0  0  0  0  0  0  0
    6.5718    0.7138   17.5440 N   0  0  0  0  0  0  0  0  0  0  0  0
    7.1869    0.1076   18.5593 C   0  0  0  0  0  0  0  0  0  0  0  0
    8.1434   -0.3636   18.3261 H   0  0  0  0  0  0  0  0  0  0  0  0
    4.9125    1.8063   16.9784 H   0  0  0  0  0  0  0  0  0  0  0  0
    3.8523    1.8334   19.2208 H   0  0  0  0  0  0  0  0  0  0  0  0
    5.0128    0.6195   21.1314 H   0  0  0  0  0  0  0  0  0  0  0  0
    8.5035   -0.4989   20.9523 H   0  0  0  0  0  0  0  0  0  0  0  0
    7.8527   -2.2035   22.8528 C   0  0  0  0  0  0  0  0  0  0  0  0
    9.0562   -2.2902   22.6484 O   0  0  0  0  0  0  0  0  0  0  0  0
    7.2443   -2.6579   24.1400 C   0  0  0  0  0  0  0  0  0  0  0  0
    6.1006   -2.2369   24.7764 C   0  0  0  0  0  0  0  0  0  0  0  0
    5.9082   -2.9595   25.9238 N   0  0  0  0  0  0  0  0  0  0  0  0
    6.9286   -3.8721   26.0704 C   0  0  0  0  0  0  0  0  0  0  0  0
    7.2004   -4.8048   27.0828 C   0  0  0  0  0  0  0  0  0  0  0  0
    8.3404   -5.5874   26.9426 C   0  0  0  0  0  0  0  0  0  0  0  0
    9.1948   -5.4632   25.8207 C   0  0  0  0  0  0  0  0  0  0  0  0
    8.9217   -4.5341   24.8246 C   0  0  0  0  0  0  0  0  0  0  0  0
    7.7854   -3.7160   24.9595 C   0  0  0  0  0  0  0  0  0  0  0  0
    9.5559   -4.4053   23.9531 H   0  0  0  0  0  0  0  0  0  0  0  0
   10.0756   -6.0940   25.7545 H   0  0  0  0  0  0  0  0  0  0  0  0
    8.5816   -6.3046   27.7193 H   0  0  0  0  0  0  0  0  0  0  0  0
    6.5493   -4.8934   27.9468 H   0  0  0  0  0  0  0  0  0  0  0  0
    5.1421   -2.8392   26.5661 H   0  0  0  0  0  0  0  0  0  0  0  0
    5.4058   -1.4549   24.5041 H   0  0  0  0  0  0  0  0  0  0  0  0
  1  2  3  0
  2  3  1  0
  3  4  2  3
  4  5  1  0
  5  6  2  0
  6  7  1  0
  7  8  2  0
  8  9  1  0
  9 10  2  0
 10 11  1  0
  8 12  1  0
  7 13  1  0
  6 14  1  0
  4 15  1  0
  3 16  1  0
 16 17  2  0
 16 18  1  0
 18 19  2  0
 19 20  1  0
 20 21  1  0
 21 22  2  0
 22 23  1  0
 23 24  2  0
 24 25  1  0
 25 26  2  0
 25 27  1  0
 24 28  1  0
 23 29  1  0
 22 30  1  0
 20 31  1  0
 19 32  1  0
 10  5  1  0
 26 18  1  0
 26 21  1  0
M  END
>  <plip>  (1) 
-0.07142857142857142

>  <filename>  (1) 
[H][C](=[C]([C]#[N])[C](=[O])[c]1[c]([H])[n]([H])[c]2[c]([H])[c]([H])[c]([H])[c]([H])[c]12)[c]1[c]([H])[n][c]([H])[c]([H])[c]1[H]

$$$$
