
     RDKit          3D

 29 29  0  0  0  0  0  0  0  0999 V2000
    8.2732   -7.6992   22.6926 H   0  0  0  0  0  0  0  0  0  0  0  0
    8.9831   -7.0705   22.9230 O   0  0  0  0  0  0  0  0  0  0  0  0
    8.2400   -6.0323   23.3267 C   0  0  0  0  0  0  0  0  0  0  0  0
    7.0371   -6.1159   23.2942 O   0  0  0  0  0  0  0  0  0  0  0  0
    9.0354   -4.7398   23.8451 C   0  0  0  0  0  0  0  0  0  0  0  0
    9.9533   -4.8392   24.6307 O   0  0  0  0  0  0  0  0  0  0  0  0
    8.5600   -3.4015   23.4225 C   0  0  0  0  0  0  0  0  0  0  0  0
    8.8817   -2.6062   24.0910 H   0  0  0  0  0  0  0  0  0  0  0  0
    7.8441   -3.2375   22.2844 C   0  0  0  0  0  0  0  0  0  0  0  0
    7.9936   -4.2052   21.3489 O   0  0  0  0  0  0  0  0  0  0  0  0
    7.2491   -4.2811   20.7293 H   0  0  0  0  0  0  0  0  0  0  0  0
    6.7131   -1.7222   21.9456 S   0  0  0  0  0  0  0  0  0  0  0  0
    5.5068   -2.2776   21.3594 O   0  0  0  0  0  0  0  0  0  0  0  0
    6.6980   -0.9124   23.1518 O   0  0  0  0  0  0  0  0  0  0  0  0
    7.5102   -0.8160   20.7320 N   0  0  0  0  0  0  0  0  0  0  0  0
    6.7607   -0.0952   19.7309 C   0  0  0  0  0  0  0  0  0  0  0  0
    7.2757    0.0752   18.4214 C   0  0  0  0  0  0  0  0  0  0  0  0
    8.2236   -0.4030   18.1726 H   0  0  0  0  0  0  0  0  0  0  0  0
    6.6609    0.7680   17.4527 N   0  0  0  0  0  0  0  0  0  0  0  0
    5.4995    1.3703   17.7554 C   0  0  0  0  0  0  0  0  0  0  0  0
    5.0326    1.9463   16.9569 H   0  0  0  0  0  0  0  0  0  0  0  0
    4.9080    1.2705   19.0158 C   0  0  0  0  0  0  0  0  0  0  0  0
    3.9788    1.7861   19.2093 H   0  0  0  0  0  0  0  0  0  0  0  0
    5.5383    0.5251   20.0192 C   0  0  0  0  0  0  0  0  0  0  0  0
    5.1032    0.4266   21.0103 H   0  0  0  0  0  0  0  0  0  0  0  0
    8.8220   -0.2680   21.1063 C   0  0  0  0  0  0  0  0  0  0  0  0
    9.0735   -0.5264   22.1395 H   0  0  0  0  0  0  0  0  0  0  0  0
    9.5975   -0.6658   20.4408 H   0  0  0  0  0  0  0  0  0  0  0  0
    8.8451    0.8243   21.0148 H   0  0  0  0  0  0  0  0  0  0  0  0
  1  2  1  0
  2  3  1  0
  3  4  2  0
  3  5  1  0
  5  6  2  0
  5  7  1  0
  7  8  1  0
  7  9  2  3
  9 10  1  0
 10 11  1  0
  9 12  1  0
 12 13  2  0
 12 14  2  0
 12 15  1  0
 15 16  1  0
 16 17  2  0
 17 18  1  0
 17 19  1  0
 19 20  2  0
 20 21  1  0
 20 22  1  0
 22 23  1  0
 22 24  2  0
 24 25  1  0
 15 26  1  0
 26 27  1  0
 26 28  1  0
 26 29  1  0
 24 16  1  0
M  END
>  <plip>  (1) 
-0.06896551724137931

>  <filename>  (1) 
[H][O][C](=[O])[C](=[O])[C]([H])=[C]([O][H])[S](=[O])(=[O])[N]([c]1[c]([H])[n][c]([H])[c]([H])[c]1[H])[C]([H])([H])[H]

$$$$
