
     RDKit          3D

 47 50  0  0  0  0  0  0  0  0999 V2000
    4.9298    1.7789   16.9930 H   0  0  0  0  0  0  0  0  0  0  0  0
    5.4085    1.2898   17.8394 C   0  0  0  0  0  0  0  0  0  0  0  0
    6.5698    0.6686   17.5892 N   0  0  0  0  0  0  0  0  0  0  0  0
    7.1631    0.0412   18.6164 C   0  0  0  0  0  0  0  0  0  0  0  0
    8.1188   -0.4226   18.3851 H   0  0  0  0  0  0  0  0  0  0  0  0
    6.6233   -0.0171   19.9039 C   0  0  0  0  0  0  0  0  0  0  0  0
    7.3995   -0.7950   20.9487 C   0  0  0  0  0  0  0  0  0  0  0  0
    7.4598   -2.1945   20.6274 N   0  0  0  0  0  0  0  0  0  0  0  0
    8.4560   -2.9818   21.3528 C   0  0  0  0  0  0  0  0  0  0  0  0
    9.3925   -2.4198   21.3937 H   0  0  0  0  0  0  0  0  0  0  0  0
    8.6552   -3.8798   20.7568 H   0  0  0  0  0  0  0  0  0  0  0  0
    7.9853   -3.4277   22.7358 C   0  0  0  0  0  0  0  0  0  0  0  0
    8.7609   -4.0625   23.1768 H   0  0  0  0  0  0  0  0  0  0  0  0
    7.8619   -2.5439   23.3674 H   0  0  0  0  0  0  0  0  0  0  0  0
    6.6521   -4.1915   22.6494 C   0  0  0  0  0  0  0  0  0  0  0  0
    6.8359   -5.1250   22.0707 H   0  0  0  0  0  0  0  0  0  0  0  0
    6.1573   -4.5476   23.9795 N   0  0  0  0  0  0  0  0  0  0  0  0
    7.0996   -5.3503   24.7700 C   0  0  0  0  0  0  0  0  0  0  0  0
    7.8597   -4.7175   25.2435 H   0  0  0  0  0  0  0  0  0  0  0  0
    7.6387   -6.0723   24.1288 H   0  0  0  0  0  0  0  0  0  0  0  0
    6.2576   -6.0898   25.8199 C   0  0  0  0  0  0  0  0  0  0  0  0
    6.3363   -5.6163   26.8003 H   0  0  0  0  0  0  0  0  0  0  0  0
    6.6113   -7.1080   25.9834 H   0  0  0  0  0  0  0  0  0  0  0  0
    4.8138   -6.0454   25.2918 C   0  0  0  0  0  0  0  0  0  0  0  0
    4.3933   -7.0425   25.1333 H   0  0  0  0  0  0  0  0  0  0  0  0
    4.1602   -5.5432   26.0083 H   0  0  0  0  0  0  0  0  0  0  0  0
    4.8856   -5.2772   23.9656 C   0  0  0  0  0  0  0  0  0  0  0  0
    4.0366   -4.5922   23.8520 H   0  0  0  0  0  0  0  0  0  0  0  0
    4.8431   -5.9876   23.1191 H   0  0  0  0  0  0  0  0  0  0  0  0
    5.6215   -3.3687   21.8637 C   0  0  0  0  0  0  0  0  0  0  0  0
    5.3598   -2.5005   22.4624 H   0  0  0  0  0  0  0  0  0  0  0  0
    4.7140   -3.9545   21.6818 H   0  0  0  0  0  0  0  0  0  0  0  0
    6.1795   -2.8899   20.5180 C   0  0  0  0  0  0  0  0  0  0  0  0
    5.4711   -2.2268   20.0112 H   0  0  0  0  0  0  0  0  0  0  0  0
    6.3159   -3.7506   19.8483 H   0  0  0  0  0  0  0  0  0  0  0  0
    8.7044   -0.2454   20.9924 O   0  0  0  0  0  0  0  0  0  0  0  0
    8.9283    0.3680   22.2556 C   0  0  0  0  0  0  0  0  0  0  0  0
    9.6515   -0.2260   22.8273 H   0  0  0  0  0  0  0  0  0  0  0  0
    9.3331    1.3750   22.1133 H   0  0  0  0  0  0  0  0  0  0  0  0
    7.5538    0.3885   22.9285 C   0  0  0  0  0  0  0  0  0  0  0  0
    7.0533    1.3629   22.8355 H   0  0  0  0  0  0  0  0  0  0  0  0
    7.5829    0.0983   23.9823 H   0  0  0  0  0  0  0  0  0  0  0  0
    6.8352   -0.6154   22.2370 O   0  0  0  0  0  0  0  0  0  0  0  0
    5.4265    0.6567   20.1609 C   0  0  0  0  0  0  0  0  0  0  0  0
    4.9997    0.6352   21.1678 H   0  0  0  0  0  0  0  0  0  0  0  0
    4.8040    1.3193   19.1035 C   0  0  0  0  0  0  0  0  0  0  0  0
    3.8706    1.8485   19.2515 H   0  0  0  0  0  0  0  0  0  0  0  0
  1  2  1  0
  2  3  2  0
  3  4  1  0
  4  5  1  0
  4  6  2  0
  6  7  1  0
  7  8  1  0
  8  9  1  0
  9 10  1  0
  9 11  1  0
  9 12  1  0
 12 13  1  0
 12 14  1  0
 12 15  1  0
 15 16  1  0
 15 17  1  0
 17 18  1  0
 18 19  1  0
 18 20  1  0
 18 21  1  0
 21 22  1  0
 21 23  1  0
 21 24  1  0
 24 25  1  0
 24 26  1  0
 24 27  1  0
 27 28  1  0
 27 29  1  0
 15 30  1  0
 30 31  1  0
 30 32  1  0
 30 33  1  0
 33 34  1  0
 33 35  1  0
  7 36  1  0
 36 37  1  0
 37 38  1  0
 37 39  1  0
 37 40  1  0
 40 41  1  0
 40 42  1  0
 40 43  1  0
  6 44  1  0
 44 45  1  0
 44 46  2  0
 46 47  1  0
 46  2  1  0
 43  7  1  0
 33  8  1  0
 27 17  1  0
M  END
>  <plip>  (1) 
-0.10344827586206896

>  <filename>  (1) 
[H][c]1[n][c]([H])[c]([C]2([N]3[C]([H])([H])[C]([H])([H])[C]([H])([N]4[C]([H])([H])[C]([H])([H])[C]([H])([H])[C]4([H])[H])[C]([H])([H])[C]3([H])[H])[O][C]([H])([H])[C]([H])([H])[O]2)[c]([H])[c]1[H]

$$$$
