
     RDKit          3D

 41 44  0  0  0  0  0  0  0  0999 V2000
    4.9179    1.7844   16.9929 H   0  0  0  0  0  0  0  0  0  0  0  0
    5.4024    1.2930   17.8339 C   0  0  0  0  0  0  0  0  0  0  0  0
    6.5622    0.6760   17.5792 N   0  0  0  0  0  0  0  0  0  0  0  0
    7.1682    0.0548   18.6033 C   0  0  0  0  0  0  0  0  0  0  0  0
    8.1171   -0.4121   18.3578 H   0  0  0  0  0  0  0  0  0  0  0  0
    6.6663   -0.0217   19.9167 C   0  0  0  0  0  0  0  0  0  0  0  0
    7.3658   -0.7546   21.0903 C   0  0  0  0  0  0  0  0  0  0  0  0
    6.4460   -1.9253   21.5538 C   0  0  0  0  0  0  0  0  0  0  0  0
    5.4789   -1.5040   21.7911 H   0  0  0  0  0  0  0  0  0  0  0  0
    6.2733   -2.5818   20.7006 H   0  0  0  0  0  0  0  0  0  0  0  0
    6.8946   -2.7454   22.6766 N   0  0  0  0  0  0  0  0  0  0  0  0
    7.5750   -3.9516   22.5288 C   0  0  0  0  0  0  0  0  0  0  0  0
    7.9509   -4.3959   21.4675 O   0  0  0  0  0  0  0  0  0  0  0  0
    7.7024   -4.5399   23.8931 C   0  0  0  0  0  0  0  0  0  0  0  0
    8.2526   -5.7463   24.3178 C   0  0  0  0  0  0  0  0  0  0  0  0
    8.7116   -6.4327   23.6091 H   0  0  0  0  0  0  0  0  0  0  0  0
    8.1851   -6.0419   25.6822 C   0  0  0  0  0  0  0  0  0  0  0  0
    8.6078   -6.9720   26.0507 H   0  0  0  0  0  0  0  0  0  0  0  0
    7.5765   -5.1504   26.5926 C   0  0  0  0  0  0  0  0  0  0  0  0
    7.5372   -5.4100   27.6475 H   0  0  0  0  0  0  0  0  0  0  0  0
    7.0245   -3.9432   26.1553 C   0  0  0  0  0  0  0  0  0  0  0  0
    6.5479   -3.2512   26.8489 H   0  0  0  0  0  0  0  0  0  0  0  0
    7.1013   -3.6601   24.7928 C   0  0  0  0  0  0  0  0  0  0  0  0
    6.5879   -2.5008   24.0157 C   0  0  0  0  0  0  0  0  0  0  0  0
    6.0142   -1.5217   24.4306 O   0  0  0  0  0  0  0  0  0  0  0  0
    7.6893    0.2758   22.2084 C   0  0  0  0  0  0  0  0  0  0  0  0
    7.8311   -0.2582   23.1500 H   0  0  0  0  0  0  0  0  0  0  0  0
    6.8834    0.9995   22.3644 H   0  0  0  0  0  0  0  0  0  0  0  0
    8.9989    0.9574   21.7774 C   0  0  0  0  0  0  0  0  0  0  0  0
    8.8060    1.8955   21.2409 H   0  0  0  0  0  0  0  0  0  0  0  0
    9.6105    1.2090   22.6468 H   0  0  0  0  0  0  0  0  0  0  0  0
    9.6974   -0.0476   20.8471 C   0  0  0  0  0  0  0  0  0  0  0  0
   10.7004   -0.3328   21.1836 H   0  0  0  0  0  0  0  0  0  0  0  0
    9.7510    0.3914   19.8533 H   0  0  0  0  0  0  0  0  0  0  0  0
    8.7819   -1.2678   20.7762 C   0  0  0  0  0  0  0  0  0  0  0  0
    8.8443   -1.7852   19.8206 H   0  0  0  0  0  0  0  0  0  0  0  0
    9.0641   -1.9909   21.5435 H   0  0  0  0  0  0  0  0  0  0  0  0
    5.4463    0.6436   20.1501 C   0  0  0  0  0  0  0  0  0  0  0  0
    5.0011    0.6463   21.1507 H   0  0  0  0  0  0  0  0  0  0  0  0
    4.8093    1.3071   19.1012 C   0  0  0  0  0  0  0  0  0  0  0  0
    3.8773    1.8419   19.2574 H   0  0  0  0  0  0  0  0  0  0  0  0
  1  2  1  0
  2  3  2  0
  3  4  1  0
  4  5  1  0
  4  6  2  0
  6  7  1  0
  7  8  1  0
  8  9  1  0
  8 10  1  0
  8 11  1  0
 11 12  1  0
 12 13  2  0
 12 14  1  0
 14 15  2  0
 15 16  1  0
 15 17  1  0
 17 18  1  0
 17 19  2  0
 19 20  1  0
 19 21  1  0
 21 22  1  0
 21 23  2  0
 23 24  1  0
 24 25  2  0
  7 26  1  0
 26 27  1  0
 26 28  1  0
 26 29  1  0
 29 30  1  0
 29 31  1  0
 29 32  1  0
 32 33  1  0
 32 34  1  0
 32 35  1  0
 35 36  1  0
 35 37  1  0
  6 38  1  0
 38 39  1  0
 38 40  2  0
 40 41  1  0
 40  2  1  0
 35  7  1  0
 24 11  1  0
 23 14  1  0
M  END
>  <plip>  (1) 
-0.06896551724137931

>  <filename>  (1) 
[H][c]1[n][c]([H])[c]([C]2([C]([H])([H])[N]3[C](=[O])[c]4[c]([H])[c]([H])[c]([H])[c]([H])[c]4[C]3=[O])[C]([H])([H])[C]([H])([H])[C]([H])([H])[C]2([H])[H])[c]([H])[c]1[H]

$$$$
