
     RDKit          3D

 38 40  0  0  0  0  0  0  0  0999 V2000
    7.2485   -2.0508   26.3020 H   0  0  0  0  0  0  0  0  0  0  0  0
    7.8349   -1.8412   27.0446 O   0  0  0  0  0  0  0  0  0  0  0  0
    9.1462   -2.2151   26.6272 C   0  0  2  0  0  0  0  0  0  0  0  0
    9.8132   -1.7102   27.3334 H   0  0  0  0  0  0  0  0  0  0  0  0
    9.4712   -1.6725   25.2076 C   0  0  0  0  0  0  0  0  0  0  0  0
   10.5457   -1.4701   25.1024 H   0  0  0  0  0  0  0  0  0  0  0  0
    8.9629   -0.7022   25.1422 H   0  0  0  0  0  0  0  0  0  0  0  0
    9.0042   -2.5170   24.0931 N   0  0  0  0  0  0  0  0  0  0  0  0
    8.2838   -1.9484   23.0752 C   0  0  0  0  0  0  0  0  0  0  0  0
    7.1000   -2.3753   22.6027 C   0  0  0  0  0  0  0  0  0  0  0  0
    6.5345   -3.1122   23.1442 H   0  0  0  0  0  0  0  0  0  0  0  0
    6.6179   -1.9279   21.2747 C   0  0  0  0  0  0  0  0  0  0  0  0
    5.5414   -1.6952   21.3176 H   0  0  0  0  0  0  0  0  0  0  0  0
    6.6975   -2.7485   20.5323 H   0  0  0  0  0  0  0  0  0  0  0  0
    7.3436   -0.7425   20.7866 N   0  0  0  0  0  0  0  0  0  0  0  0
    6.7038    0.0222   19.7613 C   0  0  0  0  0  0  0  0  0  0  0  0
    7.2026    0.0939   18.4441 C   0  0  0  0  0  0  0  0  0  0  0  0
    8.1465   -0.3950   18.2150 H   0  0  0  0  0  0  0  0  0  0  0  0
    6.5708    0.7247   17.4438 N   0  0  0  0  0  0  0  0  0  0  0  0
    5.4172    1.3466   17.7365 C   0  0  0  0  0  0  0  0  0  0  0  0
    4.9236    1.8508   16.9091 H   0  0  0  0  0  0  0  0  0  0  0  0
    4.8497    1.3631   19.0173 C   0  0  0  0  0  0  0  0  0  0  0  0
    3.9161    1.8861   19.1951 H   0  0  0  0  0  0  0  0  0  0  0  0
    5.5026    0.6789   20.0486 C   0  0  0  0  0  0  0  0  0  0  0  0
    5.1101    0.6448   21.0671 H   0  0  0  0  0  0  0  0  0  0  0  0
    8.5940   -0.3795   21.2705 C   0  0  0  0  0  0  0  0  0  0  0  0
    9.4127    0.2991   20.6857 O   0  0  0  0  0  0  0  0  0  0  0  0
    8.8918   -0.8354   22.5281 N   0  0  0  0  0  0  0  0  0  0  0  0
    9.8725   -0.6953   22.6868 H   0  0  0  0  0  0  0  0  0  0  0  0
    9.1080   -3.9722   24.2201 C   0  0  0  0  0  0  0  0  0  0  0  0
    8.5517   -4.4448   23.4028 H   0  0  0  0  0  0  0  0  0  0  0  0
   10.1582   -4.2846   24.1098 H   0  0  0  0  0  0  0  0  0  0  0  0
    8.5690   -4.4303   25.5734 C   0  0  0  0  0  0  0  0  0  0  0  0
    8.6200   -5.5157   25.6842 H   0  0  0  0  0  0  0  0  0  0  0  0
    7.5100   -4.1575   25.6231 H   0  0  0  0  0  0  0  0  0  0  0  0
    9.3028   -3.7387   26.7223 C   0  0  0  0  0  0  0  0  0  0  0  0
    8.9096   -4.0810   27.6837 H   0  0  0  0  0  0  0  0  0  0  0  0
   10.3595   -4.0278   26.6969 H   0  0  0  0  0  0  0  0  0  0  0  0
  1  2  1  0
  2  3  1  0
  3  4  1  1
  3  5  1  0
  5  6  1  0
  5  7  1  0
  5  8  1  0
  8  9  1  0
  9 10  2  0
 10 11  1  0
 10 12  1  0
 12 13  1  0
 12 14  1  0
 12 15  1  0
 15 16  1  0
 16 17  2  0
 17 18  1  0
 17 19  1  0
 19 20  2  0
 20 21  1  0
 20 22  1  0
 22 23  1  0
 22 24  2  0
 24 25  1  0
 15 26  1  0
 26 27  2  0
 26 28  1  0
 28 29  1  0
  8 30  1  0
 30 31  1  0
 30 32  1  0
 30 33  1  0
 33 34  1  0
 33 35  1  0
 33 36  1  0
 36 37  1  0
 36 38  1  0
 36  3  1  0
 28  9  1  0
 24 16  1  0
M  END
>  <plip>  (1) 
-0.07142857142857142

>  <filename>  (1) 
[H][O][C@]1([H])[C]([H])([H])[N]([C]2=[C]([H])[C]([H])([H])[N]([c]3[c]([H])[n][c]([H])[c]([H])[c]3[H])[C](=[O])[N]2[H])[C]([H])([H])[C]([H])([H])[C]1([H])[H]

$$$$
