
     RDKit          3D

 44 47  0  0  0  0  0  0  0  0999 V2000
    4.9465    1.8358   16.9624 H   0  0  0  0  0  0  0  0  0  0  0  0
    5.3981    1.3011   17.7963 C   0  0  0  0  0  0  0  0  0  0  0  0
    6.5527    0.6655   17.5429 N   0  0  0  0  0  0  0  0  0  0  0  0
    7.1483    0.0260   18.5564 C   0  0  0  0  0  0  0  0  0  0  0  0
    8.0899   -0.4682   18.3181 H   0  0  0  0  0  0  0  0  0  0  0  0
    6.6257   -0.0111   19.8656 C   0  0  0  0  0  0  0  0  0  0  0  0
    7.3378   -0.6750   20.9672 C   0  0  0  0  0  0  0  0  0  0  0  0
    8.0776   -1.7700   20.7757 N   0  0  0  0  0  0  0  0  0  0  0  0
    8.5394   -2.0549   21.9863 N   0  0  0  0  0  0  0  0  0  0  0  0
    8.2009   -1.2074   22.9670 C   0  0  0  0  0  0  0  0  0  0  0  0
    7.4036   -0.2674   22.3508 C   0  0  0  0  0  0  0  0  0  0  0  0
    6.8818    0.8236   22.9596 O   0  0  0  0  0  0  0  0  0  0  0  0
    7.3839    2.1004   22.5191 C   0  0  0  0  0  0  0  0  0  0  0  0
    7.1659    2.2055   21.4507 H   0  0  0  0  0  0  0  0  0  0  0  0
    6.6070    3.1162   23.3376 C   0  0  0  0  0  0  0  0  0  0  0  0
    5.5385    2.9192   23.2171 H   0  0  0  0  0  0  0  0  0  0  0  0
    6.7940    4.1161   22.9333 H   0  0  0  0  0  0  0  0  0  0  0  0
    6.9902    3.0606   24.8346 C   0  0  0  0  0  0  0  0  0  0  0  0
    6.1936    2.5724   25.4085 H   0  0  0  0  0  0  0  0  0  0  0  0
    7.0630    4.0959   25.2218 H   0  0  0  0  0  0  0  0  0  0  0  0
    8.2197    2.3042   25.0898 N   0  0  0  0  0  0  0  0  0  0  0  0
    8.6348    2.3916   26.4714 C   0  0  0  0  0  0  0  0  0  0  0  0
    8.9521    3.4105   26.7650 H   0  0  0  0  0  0  0  0  0  0  0  0
    7.8235    2.0827   27.1377 H   0  0  0  0  0  0  0  0  0  0  0  0
    9.4719    1.7098   26.6444 H   0  0  0  0  0  0  0  0  0  0  0  0
    9.2936    2.6368   24.1653 C   0  0  0  0  0  0  0  0  0  0  0  0
   10.1948    2.0837   24.4596 H   0  0  0  0  0  0  0  0  0  0  0  0
    9.5638    3.7110   24.2288 H   0  0  0  0  0  0  0  0  0  0  0  0
    8.9021    2.2712   22.7207 C   0  0  0  0  0  0  0  0  0  0  0  0
    9.4046    1.3513   22.4024 H   0  0  0  0  0  0  0  0  0  0  0  0
    9.2398    3.0672   22.0499 H   0  0  0  0  0  0  0  0  0  0  0  0
    8.9651   -1.5159   24.2170 C   0  0  0  0  0  0  0  0  0  0  0  0
    8.2903   -1.7509   25.0416 H   0  0  0  0  0  0  0  0  0  0  0  0
    9.5588   -0.6520   24.5434 H   0  0  0  0  0  0  0  0  0  0  0  0
    9.8248   -2.7520   23.8051 C   0  0  0  0  0  0  0  0  0  0  0  0
    9.5786   -3.6159   24.4185 H   0  0  0  0  0  0  0  0  0  0  0  0
   10.8869   -2.5500   23.9185 H   0  0  0  0  0  0  0  0  0  0  0  0
    9.5054   -3.0578   22.3199 C   0  0  0  0  0  0  0  0  0  0  0  0
   10.3719   -2.9318   21.6684 H   0  0  0  0  0  0  0  0  0  0  0  0
    9.0693   -4.0457   22.1495 H   0  0  0  0  0  0  0  0  0  0  0  0
    5.4109    0.6471   20.1031 C   0  0  0  0  0  0  0  0  0  0  0  0
    4.9902    0.6523   21.1095 H   0  0  0  0  0  0  0  0  0  0  0  0
    4.7804    1.3107   19.0519 C   0  0  0  0  0  0  0  0  0  0  0  0
    3.8553    1.8557   19.2030 H   0  0  0  0  0  0  0  0  0  0  0  0
  1  2  1  0
  2  3  2  0
  3  4  1  0
  4  5  1  0
  4  6  2  0
  6  7  1  0
  7  8  2  0
  8  9  1  0
  9 10  1  0
 10 11  2  0
 11 12  1  0
 12 13  1  0
 13 14  1  0
 13 15  1  0
 15 16  1  0
 15 17  1  0
 15 18  1  0
 18 19  1  0
 18 20  1  0
 18 21  1  0
 21 22  1  0
 22 23  1  0
 22 24  1  0
 22 25  1  0
 21 26  1  0
 26 27  1  0
 26 28  1  0
 26 29  1  0
 29 30  1  0
 29 31  1  0
 10 32  1  0
 32 33  1  0
 32 34  1  0
 32 35  1  0
 35 36  1  0
 35 37  1  0
 35 38  1  0
 38 39  1  0
 38 40  1  0
  6 41  1  0
 41 42  1  0
 41 43  2  0
 43 44  1  0
 43  2  1  0
 11  7  1  0
 29 13  1  0
 38  9  1  0
M  END
>  <plip>  (1) 
-0.0

>  <filename>  (1) 
[H][c]1[n][c]([H])[c](-[c]2[n][n]3[c]([c]2[O][C]2([H])[C]([H])([H])[C]([H])([H])[N]([C]([H])([H])[H])[C]([H])([H])[C]2([H])[H])[C]([H])([H])[C]([H])([H])[C]3([H])[H])[c]([H])[c]1[H]

$$$$
