
     RDKit          3D

 33 36  0  0  0  0  0  0  0  0999 V2000
    4.9779    1.8355   16.9699 H   0  0  0  0  0  0  0  0  0  0  0  0
    5.4460    1.3069   17.7986 C   0  0  0  0  0  0  0  0  0  0  0  0
    6.5892    0.6591   17.5268 N   0  0  0  0  0  0  0  0  0  0  0  0
    7.1888   -0.0022   18.5290 C   0  0  0  0  0  0  0  0  0  0  0  0
    8.1095   -0.5267   18.2778 H   0  0  0  0  0  0  0  0  0  0  0  0
    6.6833   -0.0454   19.8424 C   0  0  0  0  0  0  0  0  0  0  0  0
    7.2382   -0.7924   20.8613 O   0  0  0  0  0  0  0  0  0  0  0  0
    8.5911   -0.8310   21.0964 C   0  0  0  0  0  0  0  0  0  0  0  0
    9.6156    0.0548   20.7250 C   0  0  0  0  0  0  0  0  0  0  0  0
    9.5199    0.9680   20.1574 H   0  0  0  0  0  0  0  0  0  0  0  0
   10.7948   -0.3668   21.1701 N   0  0  0  0  0  0  0  0  0  0  0  0
   10.5180   -1.4885   21.8473 N   0  0  0  0  0  0  0  0  0  0  0  0
   11.2837   -2.0681   22.1578 H   0  0  0  0  0  0  0  0  0  0  0  0
    9.1944   -1.8234   21.8533 C   0  0  0  0  0  0  0  0  0  0  0  0
    8.5968   -2.9881   22.5028 C   0  0  0  0  0  0  0  0  0  0  0  0
    7.5471   -3.6428   21.8479 C   0  0  0  0  0  0  0  0  0  0  0  0
    7.2021   -3.2249   20.9118 H   0  0  0  0  0  0  0  0  0  0  0  0
    6.9199   -4.7747   22.3964 C   0  0  0  0  0  0  0  0  0  0  0  0
    6.0932   -5.2356   21.8617 H   0  0  0  0  0  0  0  0  0  0  0  0
    7.3078   -5.2687   23.6390 C   0  0  0  0  0  0  0  0  0  0  0  0
    6.8090   -6.1206   24.0890 H   0  0  0  0  0  0  0  0  0  0  0  0
    8.3205   -4.5770   24.3291 C   0  0  0  0  0  0  0  0  0  0  0  0
    8.9765   -3.4359   23.7997 C   0  0  0  0  0  0  0  0  0  0  0  0
    9.8203   -2.9291   24.8502 C   0  0  0  0  0  0  0  0  0  0  0  0
   10.4239   -2.0285   24.8039 H   0  0  0  0  0  0  0  0  0  0  0  0
    9.6619   -3.7487   25.9336 C   0  0  0  0  0  0  0  0  0  0  0  0
   10.0450   -3.6516   26.9416 H   0  0  0  0  0  0  0  0  0  0  0  0
    8.7772   -4.7558   25.6119 N   0  0  0  0  0  0  0  0  0  0  0  0
    8.5084   -5.5272   26.2019 H   0  0  0  0  0  0  0  0  0  0  0  0
    5.4872    0.6296   20.1154 C   0  0  0  0  0  0  0  0  0  0  0  0
    5.0753    0.6164   21.1244 H   0  0  0  0  0  0  0  0  0  0  0  0
    4.8576    1.3131   19.0699 C   0  0  0  0  0  0  0  0  0  0  0  0
    3.9295    1.8559   19.2310 H   0  0  0  0  0  0  0  0  0  0  0  0
  1  2  1  0
  2  3  2  0
  3  4  1  0
  4  5  1  0
  4  6  2  0
  6  7  1  0
  7  8  1  0
  8  9  1  0
  9 10  1  0
  9 11  2  0
 11 12  1  0
 12 13  1  0
 12 14  1  0
 14 15  1  0
 15 16  2  0
 16 17  1  0
 16 18  1  0
 18 19  1  0
 18 20  2  0
 20 21  1  0
 20 22  1  0
 22 23  2  0
 23 24  1  0
 24 25  1  0
 24 26  2  0
 26 27  1  0
 26 28  1  0
 28 29  1  0
  6 30  1  0
 30 31  1  0
 30 32  2  0
 32 33  1  0
 32  2  1  0
 14  8  2  0
 23 15  1  0
 28 22  1  0
M  END
>  <plip>  (1) 
-0.13793103448275862

>  <filename>  (1) 
[H][c]1[n][c]([H])[c]([O][c]2[c]([H])[n][n]([H])[c]2-[c]2[c]([H])[c]([H])[c]([H])[c]3[c]2[c]([H])[c]([H])[n]3[H])[c]([H])[c]1[H]

$$$$
