
     RDKit          3D

 20 21  0  0  0  0  0  0  0  0999 V2000
    6.8244   -0.6602   22.0064 H   0  0  0  0  0  0  0  0  0  0  0  0
    7.3042   -0.6781   21.0116 C   0  0  0  0  0  0  0  0  0  0  0  0
    8.4372   -1.2315   20.7642 N   0  0  0  0  0  0  0  0  0  0  0  0
    9.1470   -1.8164   21.7630 C   0  0  0  0  0  0  0  0  0  0  0  0
    8.5917   -2.1236   22.9849 O   0  0  0  0  0  0  0  0  0  0  0  0
    9.6139   -2.6687   23.6777 C   0  0  0  0  0  0  0  0  0  0  0  0
    9.4121   -3.0071   24.6817 H   0  0  0  0  0  0  0  0  0  0  0  0
   10.7347   -2.7362   23.0478 N   0  0  0  0  0  0  0  0  0  0  0  0
   10.4548   -2.1965   21.8123 C   0  0  0  0  0  0  0  0  0  0  0  0
   11.1711   -2.1229   21.0115 H   0  0  0  0  0  0  0  0  0  0  0  0
    6.6073   -0.0010   19.9408 C   0  0  0  0  0  0  0  0  0  0  0  0
    7.1585    0.0278   18.6402 C   0  0  0  0  0  0  0  0  0  0  0  0
    8.1096   -0.4614   18.4371 H   0  0  0  0  0  0  0  0  0  0  0  0
    6.5774    0.6477   17.6167 N   0  0  0  0  0  0  0  0  0  0  0  0
    5.4196    1.2837   17.8538 C   0  0  0  0  0  0  0  0  0  0  0  0
    4.9779    1.8002   17.0068 H   0  0  0  0  0  0  0  0  0  0  0  0
    4.7873    1.3125   19.1029 C   0  0  0  0  0  0  0  0  0  0  0  0
    3.8525    1.8500   19.2267 H   0  0  0  0  0  0  0  0  0  0  0  0
    5.3971    0.6630   20.1705 C   0  0  0  0  0  0  0  0  0  0  0  0
    4.9625    0.6780   21.1727 H   0  0  0  0  0  0  0  0  0  0  0  0
  1  2  1  0
  2  3  2  3
  3  4  1  0
  4  5  1  0
  5  6  1  0
  6  7  1  0
  6  8  2  0
  8  9  1  0
  9 10  1  0
  2 11  1  0
 11 12  2  0
 12 13  1  0
 12 14  1  0
 14 15  2  0
 15 16  1  0
 15 17  1  0
 17 18  1  0
 17 19  2  0
 19 20  1  0
  9  4  2  0
 19 11  1  0
M  END
>  <plip>  (1) 
-0.03571428571428571

>  <filename>  (1) 
[H][C](=[N][c]1[o][c]([H])[n][c]1[H])[c]1[c]([H])[n][c]([H])[c]([H])[c]1[H]

$$$$
