
     RDKit          3D

 29 30  0  0  0  0  0  0  0  0999 V2000
    9.5322   -6.7147   25.5138 H   0  0  0  0  0  0  0  0  0  0  0  0
    9.0873   -6.2692   24.7636 O   0  0  0  0  0  0  0  0  0  0  0  0
    9.8735   -5.2004   24.6137 C   0  0  0  0  0  0  0  0  0  0  0  0
   10.8449   -5.0892   25.3237 O   0  0  0  0  0  0  0  0  0  0  0  0
    9.4698   -4.1379   23.4505 C   0  0  0  0  0  0  0  0  0  0  0  0
    8.4140   -4.2136   22.8551 O   0  0  0  0  0  0  0  0  0  0  0  0
   10.5086   -3.1613   23.1523 C   0  0  0  0  0  0  0  0  0  0  0  0
   11.5047   -3.3144   23.5446 H   0  0  0  0  0  0  0  0  0  0  0  0
   10.2898   -2.1642   22.2733 C   0  0  0  0  0  0  0  0  0  0  0  0
   11.2742   -1.6313   21.5663 O   0  0  0  0  0  0  0  0  0  0  0  0
   10.8313   -1.1019   20.8755 H   0  0  0  0  0  0  0  0  0  0  0  0
    9.0379   -1.6142   22.0412 N   0  0  0  0  0  0  0  0  0  0  0  0
    8.6842   -1.0195   20.8265 N   0  0  0  0  0  0  0  0  0  0  0  0
    7.4634   -0.5868   20.9720 C   0  0  0  0  0  0  0  0  0  0  0  0
    6.7038    0.0482   19.9016 C   0  0  0  0  0  0  0  0  0  0  0  0
    7.2083    0.0474   18.5870 C   0  0  0  0  0  0  0  0  0  0  0  0
    8.1358   -0.4692   18.3444 H   0  0  0  0  0  0  0  0  0  0  0  0
    6.5963    0.6475   17.5624 N   0  0  0  0  0  0  0  0  0  0  0  0
    5.4409    1.2812   17.8097 C   0  0  0  0  0  0  0  0  0  0  0  0
    4.9798    1.7864   16.9641 H   0  0  0  0  0  0  0  0  0  0  0  0
    4.8319    1.3013   19.0664 C   0  0  0  0  0  0  0  0  0  0  0  0
    3.8925    1.8211   19.1960 H   0  0  0  0  0  0  0  0  0  0  0  0
    5.4624    0.6674   20.1305 C   0  0  0  0  0  0  0  0  0  0  0  0
    4.9942    0.6496   21.1164 H   0  0  0  0  0  0  0  0  0  0  0  0
    6.9258   -0.8095   22.3557 C   0  0  0  0  0  0  0  0  0  0  0  0
    6.6869    0.1018   22.9179 H   0  0  0  0  0  0  0  0  0  0  0  0
    6.0522   -1.4666   22.3847 H   0  0  0  0  0  0  0  0  0  0  0  0
    8.0822   -1.4867   23.0373 C   0  0  0  0  0  0  0  0  0  0  0  0
    8.1941   -1.7899   24.1969 O   0  0  0  0  0  0  0  0  0  0  0  0
  1  2  1  0
  2  3  1  0
  3  4  2  0
  3  5  1  0
  5  6  2  0
  5  7  1  0
  7  8  1  0
  7  9  2  3
  9 10  1  0
 10 11  1  0
  9 12  1  0
 12 13  1  0
 13 14  2  0
 14 15  1  0
 15 16  2  0
 16 17  1  0
 16 18  1  0
 18 19  2  0
 19 20  1  0
 19 21  1  0
 21 22  1  0
 21 23  2  0
 23 24  1  0
 14 25  1  0
 25 26  1  0
 25 27  1  0
 25 28  1  0
 28 29  2  0
 28 12  1  0
 23 15  1  0
M  END
>  <plip>  (1) 
-0.13333333333333333

>  <filename>  (1) 
[H][O][C](=[O])[C](=[O])[C]([H])=[C]([O][H])[N]1[N]=[C]([c]2[c]([H])[n][c]([H])[c]([H])[c]2[H])[C]([H])([H])[C]1=[O]

$$$$
