
     RDKit          3D

 29 30  0  0  0  0  0  0  0  0999 V2000
    4.9222    1.7807   16.9945 H   0  0  0  0  0  0  0  0  0  0  0  0
    5.4037    1.2915   17.8362 C   0  0  0  0  0  0  0  0  0  0  0  0
    6.5674    0.6768   17.5775 N   0  0  0  0  0  0  0  0  0  0  0  0
    7.1691    0.0562   18.5954 C   0  0  0  0  0  0  0  0  0  0  0  0
    8.1182   -0.4333   18.3723 H   0  0  0  0  0  0  0  0  0  0  0  0
    6.6420    0.0229   19.8973 C   0  0  0  0  0  0  0  0  0  0  0  0
    7.3913   -0.6724   20.9442 C   0  0  0  0  0  0  0  0  0  0  0  0
    8.1883   -1.7130   20.7708 N   0  0  0  0  0  0  0  0  0  0  0  0
    8.6533   -2.0535   21.9852 N   0  0  0  0  0  0  0  0  0  0  0  0
    8.1937   -1.2681   22.9007 N   0  0  0  0  0  0  0  0  0  0  0  0
    7.4126   -0.3934   22.2666 N   0  0  0  0  0  0  0  0  0  0  0  0
    6.7303    0.6317   22.8518 O   0  0  0  0  0  0  0  0  0  0  0  0
    7.0040    0.9171   24.2346 C   0  0  0  0  0  0  0  0  0  0  0  0
    6.1889    1.5947   24.4850 H   0  0  0  0  0  0  0  0  0  0  0  0
    6.8852    0.0123   24.8372 H   0  0  0  0  0  0  0  0  0  0  0  0
    8.3393    1.6141   24.4700 C   0  0  0  0  0  0  0  0  0  0  0  0
    9.1129    0.9211   24.1181 H   0  0  0  0  0  0  0  0  0  0  0  0
    8.4534    2.9234   23.6841 C   0  0  0  0  0  0  0  0  0  0  0  0
    7.6840    3.6442   23.9910 H   0  0  0  0  0  0  0  0  0  0  0  0
    8.3383    2.7559   22.6104 H   0  0  0  0  0  0  0  0  0  0  0  0
    9.4277    3.3963   23.8544 H   0  0  0  0  0  0  0  0  0  0  0  0
    8.5588    1.8628   25.9684 C   0  0  0  0  0  0  0  0  0  0  0  0
    9.5427    2.3103   26.1506 H   0  0  0  0  0  0  0  0  0  0  0  0
    8.5115    0.9324   26.5455 H   0  0  0  0  0  0  0  0  0  0  0  0
    7.8110    2.5519   26.3845 H   0  0  0  0  0  0  0  0  0  0  0  0
    5.4204    0.6600   20.1573 C   0  0  0  0  0  0  0  0  0  0  0  0
    4.9934    0.6493   21.1648 H   0  0  0  0  0  0  0  0  0  0  0  0
    4.7975    1.3099   19.0988 C   0  0  0  0  0  0  0  0  0  0  0  0
    3.8682    1.8460   19.2533 H   0  0  0  0  0  0  0  0  0  0  0  0
  1  2  1  0
  2  3  2  0
  3  4  1  0
  4  5  1  0
  4  6  2  0
  6  7  1  0
  7  8  2  0
  8  9  1  0
  9 10  2  0
 10 11  1  0
 11 12  1  0
 12 13  1  0
 13 14  1  0
 13 15  1  0
 13 16  1  0
 16 17  1  0
 16 18  1  0
 18 19  1  0
 18 20  1  0
 18 21  1  0
 16 22  1  0
 22 23  1  0
 22 24  1  0
 22 25  1  0
  6 26  1  0
 26 27  1  0
 26 28  2  0
 28 29  1  0
 28  2  1  0
 11  7  1  0
M  END
>  <plip>  (1) 
-0.034482758620689655

>  <filename>  (1) 
[H][c]1[n][c]([H])[c](-[c]2[n][n][n][n]2[O][C]([H])([H])[C]([H])([C]([H])([H])[H])[C]([H])([H])[H])[c]([H])[c]1[H]

$$$$
