
     RDKit          3D

 37 38  0  0  0  0  0  0  0  0999 V2000
    4.9768    1.7977   16.8092 H   0  0  0  0  0  0  0  0  0  0  0  0
    5.4077    1.2956   17.6741 C   0  0  0  0  0  0  0  0  0  0  0  0
    6.5590    0.6355   17.4829 N   0  0  0  0  0  0  0  0  0  0  0  0
    7.1169    0.0492   18.5455 C   0  0  0  0  0  0  0  0  0  0  0  0
    8.0632   -0.4629   18.3725 H   0  0  0  0  0  0  0  0  0  0  0  0
    6.5538    0.0651   19.8239 C   0  0  0  0  0  0  0  0  0  0  0  0
    7.3729   -0.5624   20.8989 C   0  0  0  0  0  0  0  0  0  0  0  0
    8.5518   -0.7984   20.7432 O   0  0  0  0  0  0  0  0  0  0  0  0
    6.6352   -0.7679   22.0689 N   0  0  0  0  0  0  0  0  0  0  0  0
    5.6750   -0.9985   21.8602 H   0  0  0  0  0  0  0  0  0  0  0  0
    7.1326   -1.5218   23.1377 N   0  0  0  0  0  0  0  0  0  0  0  0
    7.6305   -0.9068   23.7899 H   0  0  0  0  0  0  0  0  0  0  0  0
    7.9358   -2.5787   22.7131 N   0  0  0  0  0  0  0  0  0  0  0  0
    7.1353   -3.7738   22.3871 C   0  0  0  0  0  0  0  0  0  0  0  0
    6.9135   -3.8030   21.3121 H   0  0  0  0  0  0  0  0  0  0  0  0
    6.1845   -3.7668   22.9405 H   0  0  0  0  0  0  0  0  0  0  0  0
    7.9819   -4.9369   22.8740 C   0  0  0  0  0  0  0  0  0  0  0  0
    8.7328   -5.2162   22.1302 H   0  0  0  0  0  0  0  0  0  0  0  0
    7.3828   -5.8209   23.1139 H   0  0  0  0  0  0  0  0  0  0  0  0
    8.6921   -4.3514   24.1028 C   0  0  1  0  0  0  0  0  0  0  0  0
    7.9360   -4.2250   24.9104 H   0  0  0  0  0  0  0  0  0  0  0  0
    9.8249   -5.1495   24.5534 N   0  0  0  0  0  0  0  0  0  0  0  0
    9.4105   -6.5258   24.7785 C   0  0  0  0  0  0  0  0  0  0  0  0
    8.4640   -6.6068   25.3517 H   0  0  0  0  0  0  0  0  0  0  0  0
   10.1567   -7.0909   25.3403 H   0  0  0  0  0  0  0  0  0  0  0  0
    9.2860   -7.0296   23.8126 H   0  0  0  0  0  0  0  0  0  0  0  0
   10.4943   -4.6013   25.7237 C   0  0  0  0  0  0  0  0  0  0  0  0
   10.7848   -3.5654   25.5519 H   0  0  0  0  0  0  0  0  0  0  0  0
   11.4241   -5.1547   25.8906 H   0  0  0  0  0  0  0  0  0  0  0  0
    9.8685   -4.6344   26.6368 H   0  0  0  0  0  0  0  0  0  0  0  0
    9.0605   -2.9578   23.5784 C   0  0  0  0  0  0  0  0  0  0  0  0
    9.9810   -3.0335   22.9824 H   0  0  0  0  0  0  0  0  0  0  0  0
    9.2445   -2.2375   24.3879 H   0  0  0  0  0  0  0  0  0  0  0  0
    5.3363    0.7375   20.0098 C   0  0  0  0  0  0  0  0  0  0  0  0
    4.8734    0.8234   20.9943 H   0  0  0  0  0  0  0  0  0  0  0  0
    4.7523    1.3560   18.9077 C   0  0  0  0  0  0  0  0  0  0  0  0
    3.8293    1.9093   19.0113 H   0  0  0  0  0  0  0  0  0  0  0  0
  1  2  1  0
  2  3  2  0
  3  4  1  0
  4  5  1  0
  4  6  2  0
  6  7  1  0
  7  8  2  0
  7  9  1  0
  9 10  1  0
  9 11  1  0
 11 12  1  0
 11 13  1  0
 13 14  1  0
 14 15  1  0
 14 16  1  0
 14 17  1  0
 17 18  1  0
 17 19  1  0
 17 20  1  0
 20 21  1  1
 20 22  1  0
 22 23  1  0
 23 24  1  0
 23 25  1  0
 23 26  1  0
 22 27  1  0
 27 28  1  0
 27 29  1  0
 27 30  1  0
 20 31  1  0
 31 32  1  0
 31 33  1  0
  6 34  1  0
 34 35  1  0
 34 36  2  0
 36 37  1  0
 36  2  1  0
 31 13  1  0
M  END
>  <plip>  (1) 
-0.10344827586206896

>  <filename>  (1) 
[H][c]1[n][c]([H])[c]([C](=[O])[N]([H])[N]([H])[N]2[C]([H])([H])[C]([H])([H])[C@@]([H])([N]([C]([H])([H])[H])[C]([H])([H])[H])[C]2([H])[H])[c]([H])[c]1[H]

$$$$
