
     RDKit          3D

 36 37  0  0  0  0  0  0  0  0999 V2000
    8.6910   -2.7109   21.1265 C   0  0  0  0  0  0  0  0  0  0  0  0
    7.2280   -2.2968   20.9969 C   0  0  0  0  0  0  0  0  0  0  0  0
    6.3171   -3.1832   21.8478 C   0  0  0  0  0  0  0  0  0  0  0  0
    5.2665   -2.9153   21.7075 H   0  0  0  0  0  0  0  0  0  0  0  0
    6.4441   -4.2214   21.5123 H   0  0  0  0  0  0  0  0  0  0  0  0
    6.5631   -3.1184   22.9097 H   0  0  0  0  0  0  0  0  0  0  0  0
    7.0696   -0.8343   21.2361 N   0  0  0  0  0  0  0  0  0  0  0  0
    7.4548   -0.3208   22.4822 C   0  0  0  0  0  0  0  0  0  0  0  0
    7.5009   -1.0190   23.4805 O   0  0  0  0  0  0  0  0  0  0  0  0
    7.9765    1.1123   22.5367 C   0  0  0  0  0  0  0  0  0  0  0  0
    9.3926    1.1583   21.9481 C   0  0  1  0  0  0  0  0  0  0  0  0
   10.0427    2.5489   21.7954 C   0  0  0  0  0  0  0  0  0  0  0  0
   11.4123    2.3760   22.1746 O   0  0  0  0  0  0  0  0  0  0  0  0
   11.5634    1.1903   22.8236 C   0  0  0  0  0  0  0  0  0  0  0  0
   12.5906    0.7849   23.2885 O   0  0  0  0  0  0  0  0  0  0  0  0
   10.3517    0.5497   22.8388 N   0  0  0  0  0  0  0  0  0  0  0  0
   10.4097   -0.4329   23.0418 H   0  0  0  0  0  0  0  0  0  0  0  0
    9.5922    3.3329   22.4220 H   0  0  0  0  0  0  0  0  0  0  0  0
   10.0307    2.8455   20.7504 H   0  0  0  0  0  0  0  0  0  0  0  0
    9.4031    0.6964   20.9411 H   0  0  0  0  0  0  0  0  0  0  0  0
    8.0178    1.3952   23.5922 H   0  0  0  0  0  0  0  0  0  0  0  0
    7.3051    1.7847   21.9976 H   0  0  0  0  0  0  0  0  0  0  0  0
    6.5827   -0.0381   20.1437 C   0  0  0  0  0  0  0  0  0  0  0  0
    5.4088    0.7127   20.2921 C   0  0  0  0  0  0  0  0  0  0  0  0
    4.9019    1.3844   19.1724 C   0  0  0  0  0  0  0  0  0  0  0  0
    5.5860    1.2983   17.9544 C   0  0  0  0  0  0  0  0  0  0  0  0
    6.7287    0.6126   17.7959 N   0  0  0  0  0  0  0  0  0  0  0  0
    7.2029   -0.0363   18.8690 C   0  0  0  0  0  0  0  0  0  0  0  0
    8.1290   -0.5907   18.7262 H   0  0  0  0  0  0  0  0  0  0  0  0
    5.2057    1.8007   17.0688 H   0  0  0  0  0  0  0  0  0  0  0  0
    3.9917    1.9721   19.2339 H   0  0  0  0  0  0  0  0  0  0  0  0
    4.8991    0.7414   21.2579 H   0  0  0  0  0  0  0  0  0  0  0  0
    6.9152   -2.4602   19.9565 H   0  0  0  0  0  0  0  0  0  0  0  0
    9.3097   -2.1444   20.4228 H   0  0  0  0  0  0  0  0  0  0  0  0
    9.0650   -2.5430   22.1396 H   0  0  0  0  0  0  0  0  0  0  0  0
    8.7924   -3.7740   20.8909 H   0  0  0  0  0  0  0  0  0  0  0  0
  1  2  1  0
  2  3  1  0
  3  4  1  0
  3  5  1  0
  3  6  1  0
  2  7  1  0
  7  8  1  0
  8  9  2  0
  8 10  1  0
 10 11  1  0
 11 12  1  0
 12 13  1  0
 13 14  1  0
 14 15  2  0
 14 16  1  0
 16 17  1  0
 12 18  1  0
 12 19  1  0
 11 20  1  6
 10 21  1  0
 10 22  1  0
  7 23  1  0
 23 24  2  0
 24 25  1  0
 25 26  2  0
 26 27  1  0
 27 28  2  0
 28 29  1  0
 26 30  1  0
 25 31  1  0
 24 32  1  0
  2 33  1  0
  1 34  1  0
  1 35  1  0
  1 36  1  0
 16 11  1  0
 28 23  1  0
M  END
>  <plip>  (1) 
-0.03571428571428571

>  <filename>  (1) 
[H][c]1[n][c]([H])[c]([N]([C](=[O])[C]([H])([H])[C@]2([H])[N]([H])[C](=[O])[O][C]2([H])[H])[C]([H])([C]([H])([H])[H])[C]([H])([H])[H])[c]([H])[c]1[H]

$$$$
