
     RDKit          3D

 41 43  0  0  0  0  0  0  0  0999 V2000
    9.9703    1.5684   22.2553 C   0  0  0  0  0  0  0  0  0  0  0  0
    9.2049    0.5742   21.5667 O   0  0  0  0  0  0  0  0  0  0  0  0
    7.9652    0.2904   22.0127 C   0  0  0  0  0  0  0  0  0  0  0  0
    7.4400    0.8158   22.9633 O   0  0  0  0  0  0  0  0  0  0  0  0
    7.3547   -0.7773   21.0663 C   0  0  0  0  0  0  0  0  0  0  0  0
    6.5308   -1.6409   21.8614 O   0  0  0  0  0  0  0  0  0  0  0  0
    5.9363   -2.7173   21.2870 C   0  0  0  0  0  0  0  0  0  0  0  0
    6.0142   -2.9877   20.1156 O   0  0  0  0  0  0  0  0  0  0  0  0
    5.1539   -3.4653   22.3169 C   0  0  0  0  0  0  0  0  0  0  0  0
    4.9125   -3.2015   23.6408 C   0  0  0  0  0  0  0  0  0  0  0  0
    3.8925   -4.0976   24.0535 C   0  0  0  0  0  0  0  0  0  0  0  0
    3.6572   -4.9067   22.9832 C   0  0  0  0  0  0  0  0  0  0  0  0
    2.8392   -5.9365   22.7528 O   0  0  0  0  0  0  0  0  0  0  0  0
    2.3140   -6.6394   23.8314 C   0  0  0  0  0  0  0  0  0  0  0  0
    1.0451   -7.1931   23.6706 C   0  0  0  0  0  0  0  0  0  0  0  0
    0.4737   -7.9124   24.7273 C   0  0  0  0  0  0  0  0  0  0  0  0
    1.1724   -8.0879   25.9270 C   0  0  0  0  0  0  0  0  0  0  0  0
    2.4535   -7.5503   26.0597 C   0  0  0  0  0  0  0  0  0  0  0  0
    3.0388   -6.8401   25.0099 C   0  0  0  0  0  0  0  0  0  0  0  0
    4.0386   -6.4328   25.1056 H   0  0  0  0  0  0  0  0  0  0  0  0
    2.9997   -7.6701   26.9911 H   0  0  0  0  0  0  0  0  0  0  0  0
    0.7203   -8.6243   26.7565 H   0  0  0  0  0  0  0  0  0  0  0  0
   -0.5216   -8.3337   24.6183 H   0  0  0  0  0  0  0  0  0  0  0  0
    0.5228   -7.0538   22.7305 H   0  0  0  0  0  0  0  0  0  0  0  0
    4.3927   -4.5425   21.9281 O   0  0  0  0  0  0  0  0  0  0  0  0
    3.3171   -4.0974   24.9665 H   0  0  0  0  0  0  0  0  0  0  0  0
    5.4266   -2.4536   24.2377 H   0  0  0  0  0  0  0  0  0  0  0  0
    6.5908   -0.1021   19.9332 C   0  0  0  0  0  0  0  0  0  0  0  0
    5.4039    0.6042   20.1652 C   0  0  0  0  0  0  0  0  0  0  0  0
    4.8115    1.2815   19.0962 C   0  0  0  0  0  0  0  0  0  0  0  0
    5.4359    1.2574   17.8442 C   0  0  0  0  0  0  0  0  0  0  0  0
    6.5749    0.5925   17.6066 N   0  0  0  0  0  0  0  0  0  0  0  0
    7.1218   -0.0686   18.6382 C   0  0  0  0  0  0  0  0  0  0  0  0
    8.0597   -0.5829   18.4241 H   0  0  0  0  0  0  0  0  0  0  0  0
    5.0027    1.7931   16.9970 H   0  0  0  0  0  0  0  0  0  0  0  0
    3.8942    1.8432   19.2184 H   0  0  0  0  0  0  0  0  0  0  0  0
    4.9668    0.6545   21.1639 H   0  0  0  0  0  0  0  0  0  0  0  0
    8.1895   -1.3557   20.6532 H   0  0  0  0  0  0  0  0  0  0  0  0
   10.1276    1.2833   23.3009 H   0  0  0  0  0  0  0  0  0  0  0  0
    9.4772    2.5456   22.2000 H   0  0  0  0  0  0  0  0  0  0  0  0
   10.9255    1.5986   21.7290 H   0  0  0  0  0  0  0  0  0  0  0  0
  1  2  1  0
  2  3  1  0
  3  4  2  0
  3  5  1  0
  5  6  1  0
  6  7  1  0
  7  8  2  0
  7  9  1  0
  9 10  2  0
 10 11  1  0
 11 12  2  0
 12 13  1  0
 13 14  1  0
 14 15  2  0
 15 16  1  0
 16 17  2  0
 17 18  1  0
 18 19  2  0
 19 20  1  0
 18 21  1  0
 17 22  1  0
 16 23  1  0
 15 24  1  0
 12 25  1  0
 11 26  1  0
 10 27  1  0
  5 28  1  0
 28 29  2  0
 29 30  1  0
 30 31  2  0
 31 32  1  0
 32 33  2  0
 33 34  1  0
 31 35  1  0
 30 36  1  0
 29 37  1  0
  5 38  1  0
  1 39  1  0
  1 40  1  0
  1 41  1  0
 25  9  1  0
 33 28  1  0
 19 14  1  0
M  END
>  <plip>  (1) 
-0.10344827586206896

>  <filename>  (1) 
[H][c]1[n][c]([H])[c]([C]([H])([O][C](=[O])[c]2[o][c]([O][c]3[c]([H])[c]([H])[c]([H])[c]([H])[c]3[H])[c]([H])[c]2[H])[C](=[O])[O][C]([H])([H])[H])[c]([H])[c]1[H]

$$$$
