
     RDKit          3D

 51 54  0  0  0  0  0  0  0  0999 V2000
    6.6144   -3.0429   20.7309 C   0  0  0  0  0  0  0  0  0  0  0  0
    6.6651   -1.8328   21.5867 N   0  0  0  0  0  4  0  0  0  0  0  0
    7.2183   -2.0861   22.9601 C   0  0  0  0  0  0  0  0  0  0  0  0
    7.9446   -0.7850   23.3624 C   0  0  0  0  0  0  0  0  0  0  0  0
    7.8270    0.1897   22.1684 C   0  0  1  0  0  0  0  0  0  0  0  0
    9.0858    1.0418   21.8869 C   0  0  0  0  0  0  0  0  0  0  0  0
    9.4181    1.9634   22.9641 N   0  0  0  0  0  0  0  0  0  0  0  0
    8.6242    3.0317   23.2528 C   0  0  0  0  0  0  0  0  0  0  0  0
    7.7503    3.4112   22.4918 O   0  0  0  0  0  0  0  0  0  0  0  0
    8.9186    3.6708   24.5968 C   0  0  2  0  0  0  0  0  0  0  0  0
    8.7706    2.8817   25.8689 C   0  0  0  0  0  0  0  0  0  0  0  0
    7.7561    3.9464   25.5288 C   0  0  1  0  0  0  0  0  0  0  0  0
    7.6625    5.2057   26.3355 C   0  0  0  0  0  0  0  0  0  0  0  0
    6.4000    5.7537   26.6233 C   0  0  0  0  0  0  0  0  0  0  0  0
    6.2656    6.9069   27.4057 C   0  0  0  0  0  0  0  0  0  0  0  0
    7.4140    7.5226   27.9116 C   0  0  0  0  0  0  0  0  0  0  0  0
    7.2682    8.9628   28.8784 Cl  0  0  0  0  0  0  0  0  0  0  0  0
    8.6813    6.9973   27.6490 C   0  0  0  0  0  0  0  0  0  0  0  0
    8.7971    5.8433   26.8678 C   0  0  0  0  0  0  0  0  0  0  0  0
    9.7857    5.4280   26.6827 H   0  0  0  0  0  0  0  0  0  0  0  0
    9.5594    7.4903   28.0535 H   0  0  0  0  0  0  0  0  0  0  0  0
    5.2923    7.3344   27.6262 H   0  0  0  0  0  0  0  0  0  0  0  0
    5.5029    5.2699   26.2394 H   0  0  0  0  0  0  0  0  0  0  0  0
    6.7879    3.6047   25.1603 H   0  0  0  0  0  0  0  0  0  0  0  0
    9.4343    3.1033   26.6896 H   0  0  0  0  0  0  0  0  0  0  0  0
    8.4741    1.8340   25.8231 H   0  0  0  0  0  0  0  0  0  0  0  0
    9.7014    4.4290   24.5283 H   0  0  0  0  0  0  0  0  0  0  0  0
   10.1072    1.7335   23.6615 H   0  0  0  0  0  0  0  0  0  0  0  0
    8.9189    1.6379   20.9793 H   0  0  0  0  0  0  0  0  0  0  0  0
    9.9473    0.3801   21.7139 H   0  0  0  0  0  0  0  0  0  0  0  0
    7.4657   -0.6944   20.9696 C   0  0  2  0  0  0  0  0  0  0  0  0
    6.6639   -0.0065   19.8945 C   0  0  0  0  0  0  0  0  0  0  0  0
    5.4358    0.6353   20.1431 C   0  0  0  0  0  0  0  0  0  0  0  0
    4.7995    1.3002   19.0952 C   0  0  0  0  0  0  0  0  0  0  0  0
    5.3958    1.2908   17.8290 C   0  0  0  0  0  0  0  0  0  0  0  0
    6.5540    0.6690   17.5683 N   0  0  0  0  0  0  0  0  0  0  0  0
    7.1617    0.0496   18.5861 C   0  0  0  0  0  0  0  0  0  0  0  0
    8.1137   -0.4256   18.3463 H   0  0  0  0  0  0  0  0  0  0  0  0
    4.9275    1.8054   16.9903 H   0  0  0  0  0  0  0  0  0  0  0  0
    3.8715    1.8448   19.2429 H   0  0  0  0  0  0  0  0  0  0  0  0
    4.9964    0.6451   21.1451 H   0  0  0  0  0  0  0  0  0  0  0  0
    8.3751   -1.1281   20.5305 H   0  0  0  0  0  0  0  0  0  0  0  0
    6.9877    0.8828   22.3452 H   0  0  0  0  0  0  0  0  0  0  0  0
    8.9942   -1.0172   23.5765 H   0  0  0  0  0  0  0  0  0  0  0  0
    7.5317   -0.3465   24.2787 H   0  0  0  0  0  0  0  0  0  0  0  0
    7.9155   -2.9292   22.9047 H   0  0  0  0  0  0  0  0  0  0  0  0
    6.4181   -2.3802   23.6462 H   0  0  0  0  0  0  0  0  0  0  0  0
    5.7138   -1.3990   21.6819 H   0  0  0  0  0  0  0  0  0  0  0  0
    6.0460   -3.8603   21.1900 H   0  0  0  0  0  0  0  0  0  0  0  0
    6.1894   -2.8078   19.7500 H   0  0  0  0  0  0  0  0  0  0  0  0
    7.6401   -3.4131   20.5711 H   0  0  0  0  0  0  0  0  0  0  0  0
  1  2  1  0
  2  3  1  0
  3  4  1  0
  4  5  1  0
  5  6  1  0
  6  7  1  0
  7  8  1  0
  8  9  2  0
  8 10  1  0
 10 11  1  0
 11 12  1  0
 12 13  1  0
 13 14  2  0
 14 15  1  0
 15 16  2  0
 16 17  1  0
 16 18  1  0
 18 19  2  0
 19 20  1  0
 18 21  1  0
 15 22  1  0
 14 23  1  0
 12 24  1  6
 11 25  1  0
 11 26  1  0
 10 27  1  6
  7 28  1  0
  6 29  1  0
  6 30  1  0
  5 31  1  0
 31 32  1  0
 32 33  2  0
 33 34  1  0
 34 35  2  0
 35 36  1  0
 36 37  2  0
 37 38  1  0
 35 39  1  0
 34 40  1  0
 33 41  1  0
 31 42  1  6
  5 43  1  1
  4 44  1  0
  4 45  1  0
  3 46  1  0
  3 47  1  0
  2 48  1  0
  1 49  1  0
  1 50  1  0
  1 51  1  0
 31  2  1  0
 37 32  1  0
 12 10  1  0
 19 13  1  0
M  CHG  1   2   1
M  END
>  <plip>  (1) 
-0.07142857142857142

>  <filename>  (1) 
[H][c]1[n][c]([H])[c]([C@@]2([H])[C@]([H])([C]([H])([H])[N]([H])[C](=[O])[C@]3([H])[C]([H])([H])[C@@]3([H])[c]3[c]([H])[c]([H])[c]([Cl])[c]([H])[c]3[H])[C]([H])([H])[C]([H])([H])[N+]2([H])[C]([H])([H])[H])[c]([H])[c]1[H]

$$$$
