
     RDKit          3D

 46 48  0  0  0  0  0  0  0  0999 V2000
   10.0087    1.6357   22.3173 C   0  0  0  0  0  0  0  0  0  0  0  0
    9.2918    0.6380   21.5701 O   0  0  0  0  0  0  0  0  0  0  0  0
    8.0368    0.3541   21.9840 C   0  0  0  0  0  0  0  0  0  0  0  0
    7.5029    0.8820   22.9269 O   0  0  0  0  0  0  0  0  0  0  0  0
    7.4056   -0.7100   21.0392 C   0  0  1  0  0  0  0  0  0  0  0  0
    6.5696   -1.5860   21.8409 O   0  0  0  0  0  0  0  0  0  0  0  0
    5.9639   -2.6451   21.2369 C   0  0  0  0  0  0  0  0  0  0  0  0
    6.1388   -2.9382   20.0812 O   0  0  0  0  0  0  0  0  0  0  0  0
    5.0836   -3.4588   22.1665 C   0  0  0  0  0  0  0  0  0  0  0  0
    5.8123   -4.6411   22.8558 C   0  0  0  0  0  0  0  0  0  0  0  0
    6.9759   -4.0594   23.6963 C   0  0  0  0  0  0  0  0  0  0  0  0
    7.4744   -5.0390   24.7599 C   0  0  0  0  0  0  0  0  0  0  0  0
    6.3326   -5.3637   25.7345 C   0  0  0  0  0  0  0  0  0  0  0  0
    5.0836   -5.8611   25.0168 C   0  0  0  0  0  0  0  0  0  0  0  0
    4.1658   -6.6747   25.7056 C   0  0  0  0  0  0  0  0  0  0  0  0
    3.0380   -7.2015   25.0723 C   0  0  0  0  0  0  0  0  0  0  0  0
    2.8192   -6.9182   23.7208 C   0  0  0  0  0  0  0  0  0  0  0  0
    3.7117   -6.0910   23.0327 C   0  0  0  0  0  0  0  0  0  0  0  0
    4.8428   -5.5302   23.6653 C   0  0  0  0  0  0  0  0  0  0  0  0
    3.5399   -5.8945   21.9780 H   0  0  0  0  0  0  0  0  0  0  0  0
    1.9568   -7.3339   23.2033 H   0  0  0  0  0  0  0  0  0  0  0  0
    2.3477   -7.8350   25.6273 H   0  0  0  0  0  0  0  0  0  0  0  0
    4.3562   -6.9008   26.7521 H   0  0  0  0  0  0  0  0  0  0  0  0
    6.0680   -4.4612   26.3093 H   0  0  0  0  0  0  0  0  0  0  0  0
    6.6503   -6.1084   26.4762 H   0  0  0  0  0  0  0  0  0  0  0  0
    8.3355   -4.6220   25.2966 H   0  0  0  0  0  0  0  0  0  0  0  0
    7.8247   -5.9640   24.2770 H   0  0  0  0  0  0  0  0  0  0  0  0
    7.7826   -3.7514   23.0218 H   0  0  0  0  0  0  0  0  0  0  0  0
    6.6325   -3.1362   24.1899 H   0  0  0  0  0  0  0  0  0  0  0  0
    6.2294   -5.3000   22.0744 H   0  0  0  0  0  0  0  0  0  0  0  0
    4.6670   -2.8649   22.9716 H   0  0  0  0  0  0  0  0  0  0  0  0
    4.2540   -3.8244   21.5674 H   0  0  0  0  0  0  0  0  0  0  0  0
    6.6366   -0.0392   19.9002 C   0  0  0  0  0  0  0  0  0  0  0  0
    5.4288    0.6252   20.1468 C   0  0  0  0  0  0  0  0  0  0  0  0
    4.7988    1.2946   19.0932 C   0  0  0  0  0  0  0  0  0  0  0  0
    5.4042    1.2849   17.8324 C   0  0  0  0  0  0  0  0  0  0  0  0
    6.5588    0.6542   17.5729 N   0  0  0  0  0  0  0  0  0  0  0  0
    7.1497    0.0150   18.5953 C   0  0  0  0  0  0  0  0  0  0  0  0
    8.1049   -0.4540   18.3514 H   0  0  0  0  0  0  0  0  0  0  0  0
    4.9448    1.8081   16.9927 H   0  0  0  0  0  0  0  0  0  0  0  0
    3.8752    1.8451   19.2391 H   0  0  0  0  0  0  0  0  0  0  0  0
    5.0103    0.6348   21.1530 H   0  0  0  0  0  0  0  0  0  0  0  0
    8.2319   -1.2964   20.6290 H   0  0  0  0  0  0  0  0  0  0  0  0
   10.1111    1.3231   23.3609 H   0  0  0  0  0  0  0  0  0  0  0  0
   10.9818    1.7199   21.8286 H   0  0  0  0  0  0  0  0  0  0  0  0
    9.4714    2.5891   22.2942 H   0  0  0  0  0  0  0  0  0  0  0  0
  1  2  1  0
  2  3  1  0
  3  4  2  0
  3  5  1  0
  5  6  1  0
  6  7  1  0
  7  8  2  0
  7  9  1  0
  9 10  1  0
 10 11  1  0
 11 12  1  0
 12 13  1  0
 13 14  1  0
 14 15  2  0
 15 16  1  0
 16 17  2  0
 17 18  1  0
 18 19  2  0
 18 20  1  0
 17 21  1  0
 16 22  1  0
 15 23  1  0
 13 24  1  0
 13 25  1  0
 12 26  1  0
 12 27  1  0
 11 28  1  0
 11 29  1  0
 10 30  1  0
  9 31  1  0
  9 32  1  0
  5 33  1  0
 33 34  2  0
 34 35  1  0
 35 36  2  0
 36 37  1  0
 37 38  2  0
 38 39  1  0
 36 40  1  0
 35 41  1  0
 34 42  1  0
  5 43  1  6
  1 44  1  0
  1 45  1  0
  1 46  1  0
 19 10  1  0
 38 33  1  0
 19 14  1  0
M  END
>  <plip>  (1) 
-0.10344827586206896

>  <filename>  (1) 
[H][c]1[n][c]([H])[c]([C@]([H])([O][C](=[O])[C]([H])([H])[C]2([H])[c]3[c]([H])[c]([H])[c]([H])[c]([H])[c]3[C]([H])([H])[C]([H])([H])[C]2([H])[H])[C](=[O])[O][C]([H])([H])[H])[c]([H])[c]1[H]

$$$$
