
     RDKit          3D

 27 28  0  0  0  0  0  0  0  0999 V2000
    4.9235    1.7087   16.9482 H   0  0  0  0  0  0  0  0  0  0  0  0
    5.4417    1.2544   17.7946 C   0  0  0  0  0  0  0  0  0  0  0  0
    6.6161    0.6519   17.5411 N   0  0  0  0  0  0  0  0  0  0  0  0
    7.2925    0.1092   18.5732 C   0  0  0  0  0  0  0  0  0  0  0  0
    8.2244   -0.4094   18.3547 H   0  0  0  0  0  0  0  0  0  0  0  0
    6.8182    0.1647   19.9010 C   0  0  0  0  0  0  0  0  0  0  0  0
    7.6228   -0.3122   20.9769 O   0  0  0  0  0  0  0  0  0  0  0  0
    6.8142   -0.9208   22.3047 S   0  0  0  0  0  0  0  0  0  0  0  0
    5.8549   -1.8619   21.7753 O   0  0  0  0  0  0  0  0  0  0  0  0
    6.3858    0.1950   23.1219 O   0  0  0  0  0  0  0  0  0  0  0  0
    8.2042   -1.8562   23.1602 C   0  0  0  0  0  0  0  0  0  0  0  0
    8.9301   -1.1319   24.0057 N   0  0  0  0  0  0  0  0  0  0  0  0
    9.8442   -1.7091   24.7987 C   0  0  0  0  0  0  0  0  0  0  0  0
   10.3794   -1.0545   25.4857 H   0  0  0  0  0  0  0  0  0  0  0  0
   10.0835   -3.0783   24.7748 C   0  0  0  0  0  0  0  0  0  0  0  0
   10.7950   -3.5364   25.4467 H   0  0  0  0  0  0  0  0  0  0  0  0
    9.3558   -3.8613   23.8891 C   0  0  0  0  0  0  0  0  0  0  0  0
    9.5314   -4.9359   23.8514 H   0  0  0  0  0  0  0  0  0  0  0  0
    8.4084   -3.2666   23.0422 C   0  0  0  0  0  0  0  0  0  0  0  0
    7.5798   -4.1854   22.1658 C   0  0  0  0  0  0  0  0  0  0  0  0
    8.1353   -5.4065   22.0217 F   0  0  0  0  0  0  0  0  0  0  0  0
    6.3651   -4.3617   22.6987 F   0  0  0  0  0  0  0  0  0  0  0  0
    7.4367   -3.6868   20.9347 F   0  0  0  0  0  0  0  0  0  0  0  0
    5.5684    0.7288   20.1434 C   0  0  0  0  0  0  0  0  0  0  0  0
    5.1515    0.7216   21.1456 H   0  0  0  0  0  0  0  0  0  0  0  0
    4.8728    1.2945   19.0704 C   0  0  0  0  0  0  0  0  0  0  0  0
    3.9084    1.7565   19.2382 H   0  0  0  0  0  0  0  0  0  0  0  0
  1  2  1  0
  2  3  2  0
  3  4  1  0
  4  5  1  0
  4  6  2  0
  6  7  1  0
  7  8  1  0
  8  9  2  0
  8 10  2  0
  8 11  1  0
 11 12  2  0
 12 13  1  0
 13 14  1  0
 13 15  2  0
 15 16  1  0
 15 17  1  0
 17 18  1  0
 17 19  2  0
 19 20  1  0
 20 21  1  0
 20 22  1  0
 20 23  1  0
  6 24  1  0
 24 25  1  0
 24 26  2  0
 26 27  1  0
 26  2  1  0
 19 11  1  0
M  END
>  <plip>  (1) 
-0.034482758620689655

>  <filename>  (1) 
[H][c]1[n][c]([H])[c]([O][S](=[O])(=[O])[c]2[n][c]([H])[c]([H])[c]([H])[c]2[C]([F])([F])[F])[c]([H])[c]1[H]

$$$$
