
     RDKit          3D

 41 42  0  0  0  0  0  0  0  0999 V2000
    5.1627    1.8238   16.3784 H   0  0  0  0  0  0  0  0  0  0  0  0
    5.5593    1.4140   17.3011 C   0  0  0  0  0  0  0  0  0  0  0  0
    6.6707    0.6802   17.1857 N   0  0  0  0  0  0  0  0  0  0  0  0
    7.1636    0.1360   18.3049 C   0  0  0  0  0  0  0  0  0  0  0  0
    8.0641   -0.4570   18.1528 H   0  0  0  0  0  0  0  0  0  0  0  0
    6.5993    0.2776   19.5835 C   0  0  0  0  0  0  0  0  0  0  0  0
    7.2903   -0.3190   20.8116 C   0  0  0  0  0  0  0  0  0  0  0  0
    6.2376   -0.5468   21.8423 N   0  0  0  0  0  0  0  0  0  0  0  0
    5.6285   -1.2746   21.4629 H   0  0  0  0  0  0  0  0  0  0  0  0
    6.7876   -1.1591   22.9886 O   0  0  0  0  0  0  0  0  0  0  0  0
    6.8109   -0.2648   24.1096 C   0  0  0  0  0  0  0  0  0  0  0  0
    7.0350    0.7590   23.7757 H   0  0  0  0  0  0  0  0  0  0  0  0
    5.8205   -0.2721   24.5952 H   0  0  0  0  0  0  0  0  0  0  0  0
    7.8937   -0.7895   25.0457 C   0  0  0  0  0  0  0  0  0  0  0  0
    8.8474   -0.7320   24.4960 H   0  0  0  0  0  0  0  0  0  0  0  0
    7.6625   -2.2777   25.3885 C   0  0  0  0  0  0  0  0  0  0  0  0
    6.6524   -2.4134   25.8039 H   0  0  0  0  0  0  0  0  0  0  0  0
    7.7038   -2.8943   24.4864 H   0  0  0  0  0  0  0  0  0  0  0  0
    8.6827   -2.7668   26.4113 C   0  0  0  0  0  0  0  0  0  0  0  0
    8.4831   -3.8044   26.6990 H   0  0  0  0  0  0  0  0  0  0  0  0
    9.6899   -2.7625   25.9734 H   0  0  0  0  0  0  0  0  0  0  0  0
    8.6890   -1.9327   27.6083 N   0  0  0  0  0  0  0  0  0  0  0  0
    7.7304   -1.9232   27.9599 H   0  0  0  0  0  0  0  0  0  0  0  0
    9.0241   -0.5420   27.3085 C   0  0  0  0  0  0  0  0  0  0  0  0
    9.0447    0.0101   28.2539 H   0  0  0  0  0  0  0  0  0  0  0  0
   10.0487   -0.5016   26.9094 H   0  0  0  0  0  0  0  0  0  0  0  0
    8.0335    0.0767   26.3141 C   0  0  0  0  0  0  0  0  0  0  0  0
    7.0541    0.1666   26.8081 H   0  0  0  0  0  0  0  0  0  0  0  0
    8.3397    1.0982   26.0614 H   0  0  0  0  0  0  0  0  0  0  0  0
    8.2994    0.6791   21.3894 C   0  0  0  0  0  0  0  0  0  0  0  0
    9.0862    0.9138   20.6693 H   0  0  0  0  0  0  0  0  0  0  0  0
    8.7675    0.2780   22.2948 H   0  0  0  0  0  0  0  0  0  0  0  0
    7.7783    1.6052   21.6487 H   0  0  0  0  0  0  0  0  0  0  0  0
    7.9500   -1.6643   20.4944 C   0  0  0  0  0  0  0  0  0  0  0  0
    8.7388   -1.5562   19.7479 H   0  0  0  0  0  0  0  0  0  0  0  0
    7.1831   -2.3545   20.1245 H   0  0  0  0  0  0  0  0  0  0  0  0
    8.3943   -2.0998   21.3925 H   0  0  0  0  0  0  0  0  0  0  0  0
    5.4376    1.0691   19.6767 C   0  0  0  0  0  0  0  0  0  0  0  0
    4.9657    1.2165   20.6502 H   0  0  0  0  0  0  0  0  0  0  0  0
    4.9132    1.6410   18.5195 C   0  0  0  0  0  0  0  0  0  0  0  0
    4.0287    2.2695   18.5465 H   0  0  0  0  0  0  0  0  0  0  0  0
  1  2  1  0
  2  3  2  0
  3  4  1  0
  4  5  1  0
  4  6  2  0
  6  7  1  0
  7  8  1  0
  8  9  1  0
  8 10  1  0
 10 11  1  0
 11 12  1  0
 11 13  1  0
 11 14  1  0
 14 15  1  0
 14 16  1  0
 16 17  1  0
 16 18  1  0
 16 19  1  0
 19 20  1  0
 19 21  1  0
 19 22  1  0
 22 23  1  0
 22 24  1  0
 24 25  1  0
 24 26  1  0
 24 27  1  0
 27 28  1  0
 27 29  1  0
  7 30  1  0
 30 31  1  0
 30 32  1  0
 30 33  1  0
  7 34  1  0
 34 35  1  0
 34 36  1  0
 34 37  1  0
  6 38  1  0
 38 39  1  0
 38 40  2  0
 40 41  1  0
 40  2  1  0
 27 14  1  0
M  END
>  <plip>  (1) 
-0.034482758620689655

>  <filename>  (1) 
[H][c]1[n][c]([H])[c]([C]([N]([H])[O][C]([H])([H])[C]2([H])[C]([H])([H])[C]([H])([H])[N]([H])[C]([H])([H])[C]2([H])[H])([C]([H])([H])[H])[C]([H])([H])[H])[c]([H])[c]1[H]

$$$$
