
     RDKit          3D

 21 22  0  0  0  0  0  0  0  0999 V2000
    4.5766   -3.9411   24.1274 H   0  0  0  0  0  0  0  0  0  0  0  0
    4.5452   -3.5611   23.1788 N   0  0  0  0  0  0  0  0  0  0  0  0
    5.6529   -3.0153   22.9837 N   0  0  0  0  0  4  0  0  0  0  0  0
    5.8643   -2.2890   21.9238 N   0  0  0  0  0  0  0  0  0  0  0  0
    7.1155   -1.7432   21.8515 C   0  0  0  0  0  0  0  0  0  0  0  0
    8.2736   -1.9096   22.5973 C   0  0  0  0  0  0  0  0  0  0  0  0
    8.4235   -2.5493   23.4598 H   0  0  0  0  0  0  0  0  0  0  0  0
    9.2861   -1.1526   22.0974 N   0  0  0  0  0  0  0  0  0  0  0  0
    8.7822   -0.5101   21.0735 C   0  0  0  0  0  0  0  0  0  0  0  0
    9.2843    0.2161   20.4452 H   0  0  0  0  0  0  0  0  0  0  0  0
    7.4703   -0.8191   20.8526 N   0  0  0  0  0  0  0  0  0  0  0  0
    6.6899   -0.1810   19.8387 C   0  0  0  0  0  0  0  0  0  0  0  0
    7.1691   -0.0853   18.5118 C   0  0  0  0  0  0  0  0  0  0  0  0
    8.0918   -0.5878   18.2068 H   0  0  0  0  0  0  0  0  0  0  0  0
    6.5521    0.6107   17.5574 N   0  0  0  0  0  0  0  0  0  0  0  0
    5.4270    1.2692   17.8803 C   0  0  0  0  0  0  0  0  0  0  0  0
    4.9680    1.8586   17.0856 H   0  0  0  0  0  0  0  0  0  0  0  0
    4.8597    1.2138   19.1536 C   0  0  0  0  0  0  0  0  0  0  0  0
    3.9549    1.7724   19.3631 H   0  0  0  0  0  0  0  0  0  0  0  0
    5.4883    0.4661   20.1550 C   0  0  0  0  0  0  0  0  0  0  0  0
    5.0745    0.4048   21.1605 H   0  0  0  0  0  0  0  0  0  0  0  0
  1  2  1  0
  2  3  2  0
  3  4  2  0
  4  5  1  0
  5  6  2  0
  6  7  1  0
  6  8  1  0
  8  9  2  0
  9 10  1  0
  9 11  1  0
 11 12  1  0
 12 13  2  0
 13 14  1  0
 13 15  1  0
 15 16  2  0
 16 17  1  0
 16 18  1  0
 18 19  1  0
 18 20  2  0
 20 21  1  0
 11  5  1  0
 20 12  1  0
M  CHG  1   3   1
M  END
>  <plip>  (1) 
-0.07142857142857142

>  <filename>  (1) 
[H][N]=[N+]=[N][c]1[c]([H])[n][c]([H])[n]1-[c]1[c]([H])[n][c]([H])[c]([H])[c]1[H]

$$$$
