
     RDKit          3D

 45 47  0  0  0  0  0  0  0  0999 V2000
    4.9245    1.7918   16.9942 H   0  0  0  0  0  0  0  0  0  0  0  0
    5.4072    1.3037   17.8404 C   0  0  0  0  0  0  0  0  0  0  0  0
    6.5747    0.6850   17.5919 N   0  0  0  0  0  0  0  0  0  0  0  0
    7.1820    0.0634   18.6104 C   0  0  0  0  0  0  0  0  0  0  0  0
    8.1319   -0.4245   18.3918 H   0  0  0  0  0  0  0  0  0  0  0  0
    6.6594    0.0258   19.9205 C   0  0  0  0  0  0  0  0  0  0  0  0
    7.3185   -0.6570   20.9945 N   0  0  0  0  0  0  0  0  0  0  0  0
    7.6590   -1.9856   21.0879 C   0  0  0  0  0  0  0  0  0  0  0  0
    7.3377   -2.7252   20.3741 H   0  0  0  0  0  0  0  0  0  0  0  0
    8.3558   -2.2223   22.1628 N   0  0  0  0  0  0  0  0  0  0  0  0
    8.4615   -1.0361   22.8415 N   0  0  0  0  0  0  0  0  0  0  0  0
    7.8101   -0.1196   22.1692 C   0  0  0  0  0  0  0  0  0  0  0  0
    7.4329    1.2259   22.7342 C   0  0  0  0  0  0  0  0  0  0  0  0
    8.2410    1.5670   23.3991 H   0  0  0  0  0  0  0  0  0  0  0  0
    7.3168    1.9824   21.9482 H   0  0  0  0  0  0  0  0  0  0  0  0
    6.1889    1.1539   23.4295 O   0  0  0  0  0  0  0  0  0  0  0  0
    6.2416    0.7169   24.7939 C   0  0  0  0  0  0  0  0  0  0  0  0
    7.0573   -0.0095   24.9494 H   0  0  0  0  0  0  0  0  0  0  0  0
    5.2935    0.1907   24.9617 H   0  0  0  0  0  0  0  0  0  0  0  0
    6.3640    1.9435   25.6891 C   0  0  0  0  0  0  0  0  0  0  0  0
    7.2763    2.4813   25.3997 H   0  0  0  0  0  0  0  0  0  0  0  0
    5.5264    2.6087   25.4506 H   0  0  0  0  0  0  0  0  0  0  0  0
    6.4033    1.7347   27.2087 C   0  0  0  0  0  0  0  0  0  0  0  0
    5.5664    1.1129   27.5601 H   0  0  0  0  0  0  0  0  0  0  0  0
    7.3174    1.1892   27.4954 H   0  0  0  0  0  0  0  0  0  0  0  0
    6.3827    2.9836   27.9661 N   0  0  0  0  0  0  0  0  0  0  0  0
    7.5426    3.8425   27.7466 C   0  0  0  0  0  0  0  0  0  0  0  0
    7.5332    4.3449   26.7550 H   0  0  0  0  0  0  0  0  0  0  0  0
    8.4106    3.1779   27.7351 H   0  0  0  0  0  0  0  0  0  0  0  0
    7.6479    4.9026   28.8589 C   0  0  0  0  0  0  0  0  0  0  0  0
    7.8230    4.3848   29.8130 H   0  0  0  0  0  0  0  0  0  0  0  0
    8.5017    5.5626   28.6651 H   0  0  0  0  0  0  0  0  0  0  0  0
    6.3564    5.7218   28.9882 C   0  0  0  0  0  0  0  0  0  0  0  0
    6.4093    6.3963   29.8560 H   0  0  0  0  0  0  0  0  0  0  0  0
    6.2301    6.3593   28.0989 H   0  0  0  0  0  0  0  0  0  0  0  0
    5.1727    4.7578   29.1241 C   0  0  0  0  0  0  0  0  0  0  0  0
    4.2294    5.3111   29.1718 H   0  0  0  0  0  0  0  0  0  0  0  0
    5.2940    4.1903   30.0590 H   0  0  0  0  0  0  0  0  0  0  0  0
    5.1408    3.7527   27.9648 C   0  0  0  0  0  0  0  0  0  0  0  0
    4.2863    3.0788   28.0932 H   0  0  0  0  0  0  0  0  0  0  0  0
    4.9794    4.2960   27.0076 H   0  0  0  0  0  0  0  0  0  0  0  0
    5.4595    0.6928   20.1742 C   0  0  0  0  0  0  0  0  0  0  0  0
    5.0677    0.7170   21.1905 H   0  0  0  0  0  0  0  0  0  0  0  0
    4.8139    1.3245   19.1058 C   0  0  0  0  0  0  0  0  0  0  0  0
    3.8676    1.8297   19.2512 H   0  0  0  0  0  0  0  0  0  0  0  0
  1  2  1  0
  2  3  2  0
  3  4  1  0
  4  5  1  0
  4  6  2  0
  6  7  1  0
  7  8  1  0
  8  9  1  0
  8 10  2  0
 10 11  1  0
 11 12  2  0
 12 13  1  0
 13 14  1  0
 13 15  1  0
 13 16  1  0
 16 17  1  0
 17 18  1  0
 17 19  1  0
 17 20  1  0
 20 21  1  0
 20 22  1  0
 20 23  1  0
 23 24  1  0
 23 25  1  0
 23 26  1  0
 26 27  1  0
 27 28  1  0
 27 29  1  0
 27 30  1  0
 30 31  1  0
 30 32  1  0
 30 33  1  0
 33 34  1  0
 33 35  1  0
 33 36  1  0
 36 37  1  0
 36 38  1  0
 36 39  1  0
 39 40  1  0
 39 41  1  0
  6 42  1  0
 42 43  1  0
 42 44  2  0
 44 45  1  0
 44  2  1  0
 12  7  1  0
 39 26  1  0
M  END
>  <plip>  (1) 
-0.10344827586206896

>  <filename>  (1) 
[H][c]1[n][c]([H])[c](-[n]2[c]([H])[n][n][c]2[C]([H])([H])[O][C]([H])([H])[C]([H])([H])[C]([H])([H])[N]2[C]([H])([H])[C]([H])([H])[C]([H])([H])[C]([H])([H])[C]2([H])[H])[c]([H])[c]1[H]

$$$$
