
     RDKit          3D

 33 35  0  0  0  0  0  0  0  0999 V2000
    4.9213    1.8174   16.9596 H   0  0  0  0  0  0  0  0  0  0  0  0
    5.3782    1.3222   17.8145 C   0  0  0  0  0  0  0  0  0  0  0  0
    6.5444    0.7058   17.5748 N   0  0  0  0  0  0  0  0  0  0  0  0
    7.1467    0.1015   18.6024 C   0  0  0  0  0  0  0  0  0  0  0  0
    8.1083   -0.3628   18.3832 H   0  0  0  0  0  0  0  0  0  0  0  0
    6.6217    0.0502   19.9071 C   0  0  0  0  0  0  0  0  0  0  0  0
    7.3796   -0.6857   20.9951 C   0  0  2  0  0  0  0  0  0  0  0  0
    6.9614   -0.4581   21.9878 H   0  0  0  0  0  0  0  0  0  0  0  0
    8.8029   -0.4330   20.9203 N   0  0  0  0  0  0  0  0  0  0  0  0
    9.2750    0.4027   21.2135 H   0  0  0  0  0  0  0  0  0  0  0  0
    9.5440   -1.5595   21.1140 C   0  0  0  0  0  0  0  0  0  0  0  0
   10.7213   -1.6157   21.3239 O   0  0  0  0  0  0  0  0  0  0  0  0
    8.7250   -2.6381   21.0363 O   0  0  0  0  0  0  0  0  0  0  0  0
    7.3765   -2.2369   20.8406 C   0  0  1  0  0  0  0  0  0  0  0  0
    7.0564   -2.4820   19.8167 H   0  0  0  0  0  0  0  0  0  0  0  0
    6.5720   -2.8676   21.7733 O   0  0  0  0  0  0  0  0  0  0  0  0
    6.3167   -4.2553   21.5104 C   0  0  0  0  0  0  0  0  0  0  0  0
    5.6361   -4.3347   20.6480 H   0  0  0  0  0  0  0  0  0  0  0  0
    7.2433   -4.7895   21.2505 H   0  0  0  0  0  0  0  0  0  0  0  0
    5.6837   -4.8720   22.7454 C   0  0  0  0  0  0  0  0  0  0  0  0
    6.4606   -5.4734   23.7503 C   0  0  0  0  0  0  0  0  0  0  0  0
    7.5466   -5.5228   23.6765 H   0  0  0  0  0  0  0  0  0  0  0  0
    5.8255   -6.0000   24.8818 C   0  0  0  0  0  0  0  0  0  0  0  0
    6.4103   -6.4755   25.6703 H   0  0  0  0  0  0  0  0  0  0  0  0
    4.4973   -5.9780   25.0638 N   0  0  0  0  0  0  0  0  0  0  0  0
    3.7573   -5.3930   24.1117 C   0  0  0  0  0  0  0  0  0  0  0  0
    2.6803   -5.3788   24.2806 H   0  0  0  0  0  0  0  0  0  0  0  0
    4.2955   -4.8317   22.9485 C   0  0  0  0  0  0  0  0  0  0  0  0
    3.6341   -4.3554   22.2288 H   0  0  0  0  0  0  0  0  0  0  0  0
    5.3955    0.6911   20.1337 C   0  0  0  0  0  0  0  0  0  0  0  0
    4.9465    0.6931   21.1272 H   0  0  0  0  0  0  0  0  0  0  0  0
    4.7634    1.3408   19.0682 C   0  0  0  0  0  0  0  0  0  0  0  0
    3.8213    1.8668   19.1898 H   0  0  0  0  0  0  0  0  0  0  0  0
  1  2  1  0
  2  3  2  0
  3  4  1  0
  4  5  1  0
  4  6  2  0
  6  7  1  0
  7  8  1  1
  7  9  1  0
  9 10  1  0
  9 11  1  0
 11 12  2  0
 11 13  1  0
 13 14  1  0
 14 15  1  6
 14 16  1  0
 16 17  1  0
 17 18  1  0
 17 19  1  0
 17 20  1  0
 20 21  2  0
 21 22  1  0
 21 23  1  0
 23 24  1  0
 23 25  2  0
 25 26  1  0
 26 27  1  0
 26 28  2  0
 28 29  1  0
  6 30  1  0
 30 31  1  0
 30 32  2  0
 32 33  1  0
 32  2  1  0
 14  7  1  0
 28 20  1  0
M  END
>  <plip>  (1) 
-0.06896551724137931

>  <filename>  (1) 
[H][c]1[n][c]([H])[c]([C@]2([H])[N]([H])[C](=[O])[O][C@@]2([H])[O][C]([H])([H])[c]2[c]([H])[c]([H])[n][c]([H])[c]2[H])[c]([H])[c]1[H]

$$$$
