
     RDKit          3D

 30 32  0  0  0  0  0  0  0  0999 V2000
    5.0368    1.8206   16.9908 H   0  0  0  0  0  0  0  0  0  0  0  0
    5.4596    1.3036   17.8504 C   0  0  0  0  0  0  0  0  0  0  0  0
    6.6111    0.6495   17.6296 N   0  0  0  0  0  0  0  0  0  0  0  0
    7.1510    0.0020   18.6636 C   0  0  0  0  0  0  0  0  0  0  0  0
    8.0738   -0.5416   18.4674 H   0  0  0  0  0  0  0  0  0  0  0  0
    6.6032   -0.0120   19.9571 C   0  0  0  0  0  0  0  0  0  0  0  0
    7.3250   -0.7989   20.9648 C   0  0  0  0  0  0  0  0  0  0  0  0
    7.9179   -1.9357   20.6994 N   0  0  0  0  0  0  0  0  0  0  0  0
    8.4655   -2.4179   21.8565 N   0  0  0  0  0  0  0  0  0  0  0  0
    8.2123   -1.5407   22.7857 C   0  0  0  0  0  0  0  0  0  0  0  0
    8.5473   -1.5946   23.8118 H   0  0  0  0  0  0  0  0  0  0  0  0
    7.4917   -0.4806   22.2926 N   0  0  0  0  0  0  0  0  0  0  0  0
    7.3092    0.8079   22.9766 C   0  0  0  0  0  0  0  0  0  0  0  0
    6.6641    1.4511   22.3740 H   0  0  0  0  0  0  0  0  0  0  0  0
    6.8103    0.6658   23.9427 H   0  0  0  0  0  0  0  0  0  0  0  0
    8.6593    1.5117   23.1775 C   0  0  2  0  0  0  0  0  0  0  0  0
    9.2665    0.8962   23.8552 H   0  0  0  0  0  0  0  0  0  0  0  0
    8.5567    2.8538   23.7437 N   0  0  0  0  0  0  0  0  0  0  0  0
    9.2943    3.5682   23.0004 C   0  0  0  0  0  0  0  0  0  0  0  0
    9.4842    4.9066   23.0977 N   0  0  0  0  0  0  0  0  0  0  0  0
    8.6720    5.2209   23.6038 H   0  0  0  0  0  0  0  0  0  0  0  0
    9.5250    5.2098   22.1324 H   0  0  0  0  0  0  0  0  0  0  0  0
    9.9042    3.0395   21.9304 O   0  0  0  0  0  0  0  0  0  0  0  0
    9.4188    1.6997   21.8387 C   0  0  0  0  0  0  0  0  0  0  0  0
   10.2653    1.0256   21.7135 H   0  0  0  0  0  0  0  0  0  0  0  0
    8.7559    1.6221   20.9622 H   0  0  0  0  0  0  0  0  0  0  0  0
    5.3934    0.6638   20.1724 C   0  0  0  0  0  0  0  0  0  0  0  0
    4.9167    0.6634   21.1545 H   0  0  0  0  0  0  0  0  0  0  0  0
    4.8114    1.3278   19.0907 C   0  0  0  0  0  0  0  0  0  0  0  0
    3.8831    1.8759   19.2029 H   0  0  0  0  0  0  0  0  0  0  0  0
  1  2  1  0
  2  3  2  0
  3  4  1  0
  4  5  1  0
  4  6  2  0
  6  7  1  0
  7  8  2  0
  8  9  1  0
  9 10  2  0
 10 11  1  0
 10 12  1  0
 12 13  1  0
 13 14  1  0
 13 15  1  0
 13 16  1  0
 16 17  1  1
 16 18  1  0
 18 19  2  0
 19 20  1  0
 20 21  1  0
 20 22  1  0
 19 23  1  0
 23 24  1  0
 24 25  1  0
 24 26  1  0
  6 27  1  0
 27 28  1  0
 27 29  2  0
 29 30  1  0
 29  2  1  0
 12  7  1  0
 24 16  1  0
M  END
>  <plip>  (1) 
-0.10344827586206896

>  <filename>  (1) 
[H][c]1[n][c]([H])[c](-[c]2[n][n][c]([H])[n]2[C]([H])([H])[C@]2([H])[N]=[C]([N]([H])[H])[O][C]2([H])[H])[c]([H])[c]1[H]

$$$$
