
     RDKit          3D

 25 27  0  0  0  0  0  0  0  0999 V2000
    4.9120    1.7941   16.9814 H   0  0  0  0  0  0  0  0  0  0  0  0
    5.3919    1.3016   17.8208 C   0  0  0  0  0  0  0  0  0  0  0  0
    6.5570    0.6890   17.5504 N   0  0  0  0  0  0  0  0  0  0  0  0
    7.1625    0.0646   18.5685 C   0  0  0  0  0  0  0  0  0  0  0  0
    8.1195   -0.4024   18.3384 H   0  0  0  0  0  0  0  0  0  0  0  0
    6.6512    0.0011   19.8787 C   0  0  0  0  0  0  0  0  0  0  0  0
    7.3520   -0.6759   20.9863 C   0  0  0  0  0  0  0  0  0  0  0  0
    7.2695   -0.4579   22.3347 C   0  0  0  0  0  0  0  0  0  0  0  0
    6.6886    0.2885   22.8464 H   0  0  0  0  0  0  0  0  0  0  0  0
    8.1369   -1.3884   22.9280 C   0  0  0  0  0  0  0  0  0  0  0  0
    8.3900   -1.5411   24.3090 N   0  0  0  0  0  0  0  0  0  0  0  0
    7.7853   -0.7592   25.2378 N   0  0  0  0  0  0  0  0  0  0  0  0
    8.2518   -1.1863   26.3948 C   0  0  0  0  0  0  0  0  0  0  0  0
    7.9232   -0.7189   27.3155 H   0  0  0  0  0  0  0  0  0  0  0  0
    9.1626   -2.2551   26.2242 C   0  0  0  0  0  0  0  0  0  0  0  0
    9.6893   -2.7885   26.9996 H   0  0  0  0  0  0  0  0  0  0  0  0
    9.2322   -2.4521   24.8753 C   0  0  0  0  0  0  0  0  0  0  0  0
    9.7963   -3.1454   24.2630 H   0  0  0  0  0  0  0  0  0  0  0  0
    8.7292   -2.1538   22.0061 N   0  0  0  0  0  0  0  0  0  0  0  0
    8.2454   -1.6862   20.8435 N   0  0  0  0  0  0  0  0  0  0  0  0
    8.4982   -2.1263   19.9700 H   0  0  0  0  0  0  0  0  0  0  0  0
    5.4339    0.6555   20.1358 C   0  0  0  0  0  0  0  0  0  0  0  0
    5.0085    0.6264   21.1418 H   0  0  0  0  0  0  0  0  0  0  0  0
    4.7973    1.3175   19.0878 C   0  0  0  0  0  0  0  0  0  0  0  0
    3.8680    1.8480   19.2493 H   0  0  0  0  0  0  0  0  0  0  0  0
  1  2  1  0
  2  3  2  0
  3  4  1  0
  4  5  1  0
  4  6  2  0
  6  7  1  0
  7  8  2  0
  8  9  1  0
  8 10  1  0
 10 11  1  0
 11 12  1  0
 12 13  2  0
 13 14  1  0
 13 15  1  0
 15 16  1  0
 15 17  2  0
 17 18  1  0
 10 19  2  0
 19 20  1  0
 20 21  1  0
  6 22  1  0
 22 23  1  0
 22 24  2  0
 24 25  1  0
 24  2  1  0
 20  7  1  0
 17 11  1  0
M  END
>  <plip>  (1) 
-0.03225806451612903

>  <filename>  (1) 
[H][c]1[n][c]([H])[c](-[c]2[c]([H])[c](-[n]3[n][c]([H])[c]([H])[c]3[H])[n][n]2[H])[c]([H])[c]1[H]

$$$$
