
     RDKit          3D

 51 53  0  0  0  0  0  0  0  0999 V2000
    2.3373    1.9034   25.3380 C   0  0  0  0  0  0  0  0  0  0  0  0
    3.4469    2.7771   25.3158 O   0  0  0  0  0  0  0  0  0  0  0  0
    3.3306    4.0838   25.6695 C   0  0  0  0  0  0  0  0  0  0  0  0
    2.1113    4.6652   26.0424 C   0  0  0  0  0  0  0  0  0  0  0  0
    2.0571    6.0157   26.3898 C   0  0  0  0  0  0  0  0  0  0  0  0
    3.2171    6.7911   26.3716 C   0  0  0  0  0  0  0  0  0  0  0  0
    4.4337    6.2136   26.0006 C   0  0  0  0  0  0  0  0  0  0  0  0
    4.5171    4.8597   25.6327 C   0  0  0  0  0  0  0  0  0  0  0  0
    5.8089    4.2773   25.1745 C   0  0  0  0  0  0  0  0  0  0  0  0
    6.9850    4.7629   25.5885 N   0  0  0  0  0  0  0  0  0  0  0  0
    7.9107    4.0384   24.9733 N   0  0  0  0  0  0  0  0  0  0  0  0
    7.3976    3.0920   24.1420 C   0  0  0  0  0  0  0  0  0  0  0  0
    8.3116    2.1979   23.3523 C   0  0  0  0  0  0  0  0  0  0  0  0
    9.5266    2.3365   23.3275 O   0  0  0  0  0  0  0  0  0  0  0  0
    7.6597    1.2183   22.6786 N   0  0  0  0  0  0  0  0  0  0  0  0
    8.3623    0.3234   21.7670 C   0  0  0  0  0  0  0  0  0  0  0  0
    7.4910   -0.6919   20.9904 C   0  0  0  0  0  0  0  0  0  0  0  0
    6.6660   -0.0000   19.8971 C   0  0  0  0  0  0  0  0  0  0  0  0
    5.4411    0.6460   20.1387 C   0  0  0  0  0  0  0  0  0  0  0  0
    4.8010    1.3124   19.0871 C   0  0  0  0  0  0  0  0  0  0  0  0
    5.3938    1.3020   17.8203 C   0  0  0  0  0  0  0  0  0  0  0  0
    6.5515    0.6808   17.5567 N   0  0  0  0  0  0  0  0  0  0  0  0
    7.1580    0.0613   18.5780 C   0  0  0  0  0  0  0  0  0  0  0  0
    8.1048   -0.4189   18.3304 H   0  0  0  0  0  0  0  0  0  0  0  0
    4.9228    1.8080   16.9792 H   0  0  0  0  0  0  0  0  0  0  0  0
    3.8677    1.8461   19.2371 H   0  0  0  0  0  0  0  0  0  0  0  0
    4.9806    0.6366   21.1302 H   0  0  0  0  0  0  0  0  0  0  0  0
    6.6459   -1.6388   21.8791 C   0  0  0  0  0  0  0  0  0  0  0  0
    7.4658   -2.3292   22.9782 C   0  0  0  0  0  0  0  0  0  0  0  0
    6.8448   -3.0468   23.5273 H   0  0  0  0  0  0  0  0  0  0  0  0
    8.3099   -2.8853   22.5483 H   0  0  0  0  0  0  0  0  0  0  0  0
    7.8611   -1.6128   23.7084 H   0  0  0  0  0  0  0  0  0  0  0  0
    5.9094   -2.6879   21.0297 C   0  0  0  0  0  0  0  0  0  0  0  0
    5.3232   -2.2149   20.2386 H   0  0  0  0  0  0  0  0  0  0  0  0
    5.2458   -3.3041   21.6465 H   0  0  0  0  0  0  0  0  0  0  0  0
    6.6192   -3.3635   20.5324 H   0  0  0  0  0  0  0  0  0  0  0  0
    5.9238   -0.9828   22.3763 H   0  0  0  0  0  0  0  0  0  0  0  0
    8.2279   -1.3281   20.4739 H   0  0  0  0  0  0  0  0  0  0  0  0
    8.9011    0.9310   21.0284 H   0  0  0  0  0  0  0  0  0  0  0  0
    9.1363   -0.2080   22.3364 H   0  0  0  0  0  0  0  0  0  0  0  0
    6.6643    1.2048   22.8138 H   0  0  0  0  0  0  0  0  0  0  0  0
    6.0189    3.2296   24.2556 C   0  0  0  0  0  0  0  0  0  0  0  0
    5.1870    2.7383   23.7757 H   0  0  0  0  0  0  0  0  0  0  0  0
    8.8925    4.2507   25.1295 H   0  0  0  0  0  0  0  0  0  0  0  0
    5.3424    6.8128   25.9766 H   0  0  0  0  0  0  0  0  0  0  0  0
    3.1814    7.8408   26.6434 H   0  0  0  0  0  0  0  0  0  0  0  0
    1.1048    6.4546   26.6785 H   0  0  0  0  0  0  0  0  0  0  0  0
    1.2177    4.0530   26.0465 H   0  0  0  0  0  0  0  0  0  0  0  0
    2.7468    0.9335   25.0502 H   0  0  0  0  0  0  0  0  0  0  0  0
    1.5656    2.2092   24.6179 H   0  0  0  0  0  0  0  0  0  0  0  0
    1.8894    1.8298   26.3384 H   0  0  0  0  0  0  0  0  0  0  0  0
  1  2  1  0
  2  3  1  0
  3  4  2  0
  4  5  1  0
  5  6  2  0
  6  7  1  0
  7  8  2  0
  8  9  1  0
  9 10  2  0
 10 11  1  0
 11 12  1  0
 12 13  1  0
 13 14  2  0
 13 15  1  0
 15 16  1  0
 16 17  1  0
 17 18  1  0
 18 19  2  0
 19 20  1  0
 20 21  2  0
 21 22  1  0
 22 23  2  0
 23 24  1  0
 21 25  1  0
 20 26  1  0
 19 27  1  0
 17 28  1  0
 28 29  1  0
 29 30  1  0
 29 31  1  0
 29 32  1  0
 28 33  1  0
 33 34  1  0
 33 35  1  0
 33 36  1  0
 28 37  1  0
 17 38  1  0
 16 39  1  0
 16 40  1  0
 15 41  1  0
 12 42  2  0
 42 43  1  0
 11 44  1  0
  7 45  1  0
  6 46  1  0
  5 47  1  0
  4 48  1  0
  1 49  1  0
  1 50  1  0
  1 51  1  0
  8  3  1  0
 42  9  1  0
 23 18  1  0
M  END
>  <plip>  (1) 
-0.06896551724137931

>  <filename>  (1) 
[H][c]1[n][c]([H])[c]([C]([H])([C]([H])([H])[N]([H])[C](=[O])[c]2[c]([H])[c](-[c]3[c]([H])[c]([H])[c]([H])[c]([H])[c]3[O][C]([H])([H])[H])[n][n]2[H])[C]([H])([C]([H])([H])[H])[C]([H])([H])[H])[c]([H])[c]1[H]

$$$$
