
     RDKit          3D

 22 23  0  0  0  0  0  0  0  0999 V2000
    4.9212    1.7804   16.9965 H   0  0  0  0  0  0  0  0  0  0  0  0
    5.4058    1.2891   17.8390 C   0  0  0  0  0  0  0  0  0  0  0  0
    6.5699    0.6675   17.5753 N   0  0  0  0  0  0  0  0  0  0  0  0
    7.2029    0.0834   18.5978 C   0  0  0  0  0  0  0  0  0  0  0  0
    8.1443   -0.4165   18.3873 H   0  0  0  0  0  0  0  0  0  0  0  0
    6.6845    0.0467   19.9058 C   0  0  0  0  0  0  0  0  0  0  0  0
    7.3774   -0.6455   20.9489 N   0  0  0  0  0  0  0  0  0  0  0  0
    8.7057   -0.3384   21.0512 N   0  0  0  0  0  0  0  0  0  0  0  0
    9.3781   -0.8932   22.0051 C   0  0  0  0  0  0  0  0  0  0  0  0
   10.8168   -0.4939   22.1516 N   0  0  0  0  0  4  0  0  0  0  0  0
   11.4358   -1.0553   23.0405 O   0  0  0  0  0  0  0  0  0  0  0  0
   11.2816    0.3426   21.4073 O   0  0  0  0  0  1  0  0  0  0  0  0
    8.8438   -1.8866   22.9052 C   0  0  0  0  0  0  0  0  0  0  0  0
    9.4834   -2.3316   23.6686 H   0  0  0  0  0  0  0  0  0  0  0  0
    7.5428   -2.2445   22.7572 C   0  0  0  0  0  0  0  0  0  0  0  0
    7.0274   -2.9887   23.3580 H   0  0  0  0  0  0  0  0  0  0  0  0
    6.6940   -1.6578   21.7192 C   0  0  0  0  0  0  0  0  0  0  0  0
    5.5484   -1.9983   21.4799 O   0  0  0  0  0  0  0  0  0  0  0  0
    5.4547    0.6539   20.1687 C   0  0  0  0  0  0  0  0  0  0  0  0
    5.0172    0.6068   21.1667 H   0  0  0  0  0  0  0  0  0  0  0  0
    4.8198    1.3082   19.1089 C   0  0  0  0  0  0  0  0  0  0  0  0
    3.8841    1.8346   19.2605 H   0  0  0  0  0  0  0  0  0  0  0  0
  1  2  1  0
  2  3  2  0
  3  4  1  0
  4  5  1  0
  4  6  2  0
  6  7  1  0
  7  8  1  0
  8  9  2  0
  9 10  1  0
 10 11  2  0
 10 12  1  0
  9 13  1  0
 13 14  1  0
 13 15  2  0
 15 16  1  0
 15 17  1  0
 17 18  2  0
  6 19  1  0
 19 20  1  0
 19 21  2  0
 21 22  1  0
 21  2  1  0
 17  7  1  0
M  CHG  2  10   1  12  -1
M  END
>  <plip>  (1) 
-0.10714285714285714

>  <filename>  (1) 
[H][c]1[n][c]([H])[c](-[n]2[n][c]([N+](=[O])[O-])[c]([H])[c]([H])[c]2=[O])[c]([H])[c]1[H]

$$$$
