
     RDKit          3D

 26 27  0  0  0  0  0  0  0  0999 V2000
    5.6872   -1.5459   21.4565 H   0  0  0  0  0  0  0  0  0  0  0  0
    6.6815   -1.6426   21.6776 N   0  0  0  0  0  0  0  0  0  0  0  0
    7.3121   -0.7661   21.0009 C   0  0  0  0  0  0  0  0  0  0  0  0
    6.5985    0.0282   19.9546 C   0  0  0  0  0  0  0  0  0  0  0  0
    7.1320    0.0170   18.6635 C   0  0  0  0  0  0  0  0  0  0  0  0
    8.0611   -0.5213   18.4768 H   0  0  0  0  0  0  0  0  0  0  0  0
    6.5691    0.6228   17.6132 N   0  0  0  0  0  0  0  0  0  0  0  0
    5.4208    1.2839   17.8187 C   0  0  0  0  0  0  0  0  0  0  0  0
    4.9929    1.8093   16.9627 H   0  0  0  0  0  0  0  0  0  0  0  0
    4.7897    1.3378   19.0668 C   0  0  0  0  0  0  0  0  0  0  0  0
    3.8585    1.8812   19.1688 H   0  0  0  0  0  0  0  0  0  0  0  0
    5.3711    0.6811   20.1507 C   0  0  0  0  0  0  0  0  0  0  0  0
    4.8768    0.6963   21.1239 H   0  0  0  0  0  0  0  0  0  0  0  0
    8.8100   -0.5542   21.2191 C   0  0  0  0  0  0  0  0  0  0  0  0
    9.6426   -1.5711   21.7455 C   0  0  0  0  0  0  0  0  0  0  0  0
    9.2735   -2.5529   22.0113 H   0  0  0  0  0  0  0  0  0  0  0  0
   10.9945   -1.3050   21.9712 C   0  0  0  0  0  0  0  0  0  0  0  0
   11.6578   -2.0812   22.3473 H   0  0  0  0  0  0  0  0  0  0  0  0
   11.5783   -0.1198   21.7582 N   0  0  0  0  0  0  0  0  0  0  0  0
   10.8131    0.8699   21.2861 C   0  0  0  0  0  0  0  0  0  0  0  0
   11.5107    2.1852   21.0804 C   0  0  0  0  0  0  0  0  0  0  0  0
   11.5069    2.4770   20.0291 H   0  0  0  0  0  0  0  0  0  0  0  0
   11.0332    2.9876   21.6498 H   0  0  0  0  0  0  0  0  0  0  0  0
   12.5508    2.1080   21.4017 H   0  0  0  0  0  0  0  0  0  0  0  0
    9.4509    0.6785   20.9773 C   0  0  0  0  0  0  0  0  0  0  0  0
    8.8895    1.5077   20.5681 H   0  0  0  0  0  0  0  0  0  0  0  0
  1  2  1  0
  2  3  2  3
  3  4  1  0
  4  5  2  0
  5  6  1  0
  5  7  1  0
  7  8  2  0
  8  9  1  0
  8 10  1  0
 10 11  1  0
 10 12  2  0
 12 13  1  0
  3 14  1  0
 14 15  2  0
 15 16  1  0
 15 17  1  0
 17 18  1  0
 17 19  2  0
 19 20  1  0
 20 21  1  0
 21 22  1  0
 21 23  1  0
 21 24  1  0
 20 25  2  0
 25 26  1  0
 12  4  1  0
 25 14  1  0
M  END
>  <plip>  (1) 
-0.10714285714285714

>  <filename>  (1) 
[H][N]=[C]([c]1[c]([H])[n][c]([H])[c]([H])[c]1[H])[c]1[c]([H])[c]([H])[n][c]([C]([H])([H])[H])[c]1[H]

$$$$
