
     RDKit          3D

 23 24  0  0  0  0  0  0  0  0999 V2000
    5.0088    1.8034   16.9784 H   0  0  0  0  0  0  0  0  0  0  0  0
    5.4403    1.2875   17.8358 C   0  0  0  0  0  0  0  0  0  0  0  0
    6.5706    0.6052   17.6087 N   0  0  0  0  0  0  0  0  0  0  0  0
    7.1245   -0.0419   18.6299 C   0  0  0  0  0  0  0  0  0  0  0  0
    8.0179   -0.6275   18.4172 H   0  0  0  0  0  0  0  0  0  0  0  0
    6.6147    0.0476   19.9163 C   0  0  0  0  0  0  0  0  0  0  0  0
    7.4283   -0.9369   21.1514 S   0  0  0  0  0  0  0  0  0  0  0  0
    6.8747   -0.4957   22.4321 O   0  0  0  0  0  0  0  0  0  0  0  0
    7.2413   -2.3013   20.6828 O   0  0  0  0  0  0  0  0  0  0  0  0
    9.3403   -0.5273   21.1928 C   0  0  0  0  0  0  0  0  0  0  0  0
   10.1866   -1.3596   21.0123 O   0  0  0  0  0  0  0  0  0  0  0  0
    9.6330    0.8852   21.4899 C   0  0  0  0  0  0  0  0  0  0  0  0
   11.2930    1.3805   21.5694 S   0  0  0  0  0  0  0  0  0  0  0  0
   10.8283    2.9691   22.0170 C   0  0  0  0  0  0  0  0  0  0  0  0
   11.5796    3.7424   22.1563 H   0  0  0  0  0  0  0  0  0  0  0  0
    9.4726    3.1137   22.1022 C   0  0  0  0  0  0  0  0  0  0  0  0
    8.9871    4.0353   22.4186 H   0  0  0  0  0  0  0  0  0  0  0  0
    8.7808    1.9174   21.7762 C   0  0  0  0  0  0  0  0  0  0  0  0
    7.7003    1.8244   21.8048 H   0  0  0  0  0  0  0  0  0  0  0  0
    5.4153    0.7066   20.1693 C   0  0  0  0  0  0  0  0  0  0  0  0
    4.9664    0.7184   21.1633 H   0  0  0  0  0  0  0  0  0  0  0  0
    4.8178    1.3427   19.0860 C   0  0  0  0  0  0  0  0  0  0  0  0
    3.8827    1.8725   19.1898 H   0  0  0  0  0  0  0  0  0  0  0  0
  1  2  1  0
  2  3  2  0
  3  4  1  0
  4  5  1  0
  4  6  2  0
  6  7  1  0
  7  8  2  0
  7  9  2  0
  7 10  1  0
 10 11  2  0
 10 12  1  0
 12 13  1  0
 13 14  1  0
 14 15  1  0
 14 16  2  0
 16 17  1  0
 16 18  1  0
 18 19  1  0
  6 20  1  0
 20 21  1  0
 20 22  2  0
 22 23  1  0
 22  2  1  0
 18 12  2  0
M  END
>  <plip>  (1) 
-0.03571428571428571

>  <filename>  (1) 
[H][c]1[n][c]([H])[c]([S](=[O])(=[O])[C](=[O])[c]2[s][c]([H])[c]([H])[c]2[H])[c]([H])[c]1[H]

$$$$
