
     RDKit          3D

 31 33  0  0  0  0  0  0  0  0999 V2000
    4.9286    1.8065   16.9862 H   0  0  0  0  0  0  0  0  0  0  0  0
    5.3984    1.2947   17.8246 C   0  0  0  0  0  0  0  0  0  0  0  0
    6.5510    0.6606   17.5642 N   0  0  0  0  0  0  0  0  0  0  0  0
    7.1667    0.0490   18.5859 C   0  0  0  0  0  0  0  0  0  0  0  0
    8.1019   -0.4494   18.3318 H   0  0  0  0  0  0  0  0  0  0  0  0
    6.6838    0.0292   19.9048 C   0  0  0  0  0  0  0  0  0  0  0  0
    7.4281   -0.7134   21.0151 C   0  0  0  0  0  0  0  0  0  0  0  0
    7.3725   -1.7942   20.8597 H   0  0  0  0  0  0  0  0  0  0  0  0
    6.9599   -0.4981   21.9764 H   0  0  0  0  0  0  0  0  0  0  0  0
    8.8627   -0.4430   21.1633 N   0  0  0  0  0  0  0  0  0  0  0  0
    9.7399   -1.3787   20.7579 N   0  0  0  0  0  0  0  0  0  0  0  0
   10.9414   -0.8414   20.9147 C   0  0  0  0  0  0  0  0  0  0  0  0
   11.8235   -1.4157   20.6477 H   0  0  0  0  0  0  0  0  0  0  0  0
   10.8538    0.4665   21.4209 C   0  0  0  0  0  0  0  0  0  0  0  0
   11.6411    1.1910   21.5866 H   0  0  0  0  0  0  0  0  0  0  0  0
    9.5061    0.6657   21.6306 C   0  0  0  0  0  0  0  0  0  0  0  0
    8.8213    1.8225   22.2816 C   0  0  2  0  0  0  0  0  0  0  0  0
    9.6043    2.3688   22.8216 H   0  0  0  0  0  0  0  0  0  0  0  0
    7.7732    1.4681   23.2392 N   0  0  0  0  0  0  0  0  0  0  0  0
    6.7484    2.0979   22.8400 C   0  0  0  0  0  0  0  0  0  0  0  0
    5.5067    1.9788   23.3661 N   0  0  0  0  0  0  0  0  0  0  0  0
    5.6490    1.6888   24.3192 H   0  0  0  0  0  0  0  0  0  0  0  0
    5.0859    2.8907   23.2616 H   0  0  0  0  0  0  0  0  0  0  0  0
    6.8218    2.9642   21.8279 O   0  0  0  0  0  0  0  0  0  0  0  0
    8.1336    2.7634   21.2734 C   0  0  0  0  0  0  0  0  0  0  0  0
    8.6345    3.7230   21.1948 H   0  0  0  0  0  0  0  0  0  0  0  0
    8.0129    2.3120   20.2855 H   0  0  0  0  0  0  0  0  0  0  0  0
    5.4609    0.6720   20.1485 C   0  0  0  0  0  0  0  0  0  0  0  0
    5.0351    0.6968   21.1542 H   0  0  0  0  0  0  0  0  0  0  0  0
    4.8089    1.3147   19.0898 C   0  0  0  0  0  0  0  0  0  0  0  0
    3.8729    1.8436   19.2286 H   0  0  0  0  0  0  0  0  0  0  0  0
  1  2  1  0
  2  3  2  0
  3  4  1  0
  4  5  1  0
  4  6  2  0
  6  7  1  0
  7  8  1  0
  7  9  1  0
  7 10  1  0
 10 11  1  0
 11 12  2  0
 12 13  1  0
 12 14  1  0
 14 15  1  0
 14 16  2  0
 16 17  1  0
 17 18  1  1
 17 19  1  0
 19 20  2  0
 20 21  1  0
 21 22  1  0
 21 23  1  0
 20 24  1  0
 24 25  1  0
 25 26  1  0
 25 27  1  0
  6 28  1  0
 28 29  1  0
 28 30  2  0
 30 31  1  0
 30  2  1  0
 16 10  1  0
 25 17  1  0
M  END
>  <plip>  (1) 
-0.14285714285714285

>  <filename>  (1) 
[H][c]1[n][c]([H])[c]([C]([H])([H])[n]2[n][c]([H])[c]([H])[c]2[C@]2([H])[N]=[C]([N]([H])[H])[O][C]2([H])[H])[c]([H])[c]1[H]

$$$$
