
     RDKit          3D

 24 25  0  0  0  0  0  0  0  0999 V2000
    4.9130    1.7952   16.9716 H   0  0  0  0  0  0  0  0  0  0  0  0
    5.3882    1.2948   17.8144 C   0  0  0  0  0  0  0  0  0  0  0  0
    6.5144    0.6202   17.5363 N   0  0  0  0  0  0  0  0  0  0  0  0
    7.1288    0.0123   18.5575 C   0  0  0  0  0  0  0  0  0  0  0  0
    8.0224   -0.5580   18.3034 H   0  0  0  0  0  0  0  0  0  0  0  0
    6.6958    0.0595   19.9029 C   0  0  0  0  0  0  0  0  0  0  0  0
    7.4351   -0.6247   21.0411 C   0  0  0  0  0  0  0  0  0  0  0  0
    7.9922   -1.5106   20.7151 H   0  0  0  0  0  0  0  0  0  0  0  0
    6.7549   -0.9152   21.8493 H   0  0  0  0  0  0  0  0  0  0  0  0
    8.7330    0.2658   21.9755 S   0  0  0  0  0  0  0  0  0  0  0  0
    9.0088   -0.5679   23.1265 O   0  0  0  0  0  0  0  0  0  0  0  0
    9.7882    0.6672   21.0525 O   0  0  0  0  0  0  0  0  0  0  0  0
    7.9498    1.7644   22.4559 N   0  0  0  0  0  0  0  0  0  0  0  0
    7.0353    1.8637   23.4791 N   0  0  0  0  0  0  0  0  0  0  0  0
    6.4960    3.0546   23.3247 C   0  0  0  0  0  0  0  0  0  0  0  0
    5.7658    3.3987   24.0488 H   0  0  0  0  0  0  0  0  0  0  0  0
    7.0141    3.7413   22.1946 C   0  0  0  0  0  0  0  0  0  0  0  0
    6.7078    4.7160   21.8258 H   0  0  0  0  0  0  0  0  0  0  0  0
    7.9560    2.9027   21.6769 C   0  0  0  0  0  0  0  0  0  0  0  0
    8.6536    3.0315   20.8530 H   0  0  0  0  0  0  0  0  0  0  0  0
    5.4926    0.7344   20.1527 C   0  0  0  0  0  0  0  0  0  0  0  0
    5.0729    0.7423   21.1596 H   0  0  0  0  0  0  0  0  0  0  0  0
    4.8262    1.3589   19.0912 C   0  0  0  0  0  0  0  0  0  0  0  0
    3.8894    1.8865   19.2370 H   0  0  0  0  0  0  0  0  0  0  0  0
  1  2  1  0
  2  3  2  0
  3  4  1  0
  4  5  1  0
  4  6  2  0
  6  7  1  0
  7  8  1  0
  7  9  1  0
  7 10  1  0
 10 11  2  0
 10 12  2  0
 10 13  1  0
 13 14  1  0
 14 15  2  0
 15 16  1  0
 15 17  1  0
 17 18  1  0
 17 19  2  0
 19 20  1  0
  6 21  1  0
 21 22  1  0
 21 23  2  0
 23 24  1  0
 23  2  1  0
 19 13  1  0
M  END
>  <plip>  (1) 
-0.07142857142857142

>  <filename>  (1) 
[H][c]1[n][c]([H])[c]([C]([H])([H])[S](=[O])(=[O])[n]2[n][c]([H])[c]([H])[c]2[H])[c]([H])[c]1[H]

$$$$
