
     RDKit          3D

 28 29  0  0  0  0  0  0  0  0999 V2000
    7.5368   -1.7821   23.9888 O   0  0  0  0  0  0  0  0  0  0  0  0
    7.6607   -1.5282   22.8220 C   0  0  0  0  0  0  0  0  0  0  0  0
    6.7883   -0.7601   22.0839 O   0  0  0  0  0  0  0  0  0  0  0  0
    7.2862   -0.6950   20.8347 C   0  0  0  0  0  0  0  0  0  0  0  0
    6.5535    0.0319   19.8110 C   0  0  0  0  0  0  0  0  0  0  0  0
    5.3523    0.7366   20.0198 C   0  0  0  0  0  0  0  0  0  0  0  0
    4.7983    1.4114   18.9341 C   0  0  0  0  0  0  0  0  0  0  0  0
    5.4508    1.3465   17.6963 C   0  0  0  0  0  0  0  0  0  0  0  0
    6.5820    0.6569   17.4884 N   0  0  0  0  0  0  0  0  0  0  0  0
    7.1208    0.0259   18.5322 C   0  0  0  0  0  0  0  0  0  0  0  0
    8.0552   -0.5106   18.3628 H   0  0  0  0  0  0  0  0  0  0  0  0
    5.0487    1.8709   16.8331 H   0  0  0  0  0  0  0  0  0  0  0  0
    3.8996    2.0111   19.0377 H   0  0  0  0  0  0  0  0  0  0  0  0
    4.8827    0.7633   21.0052 H   0  0  0  0  0  0  0  0  0  0  0  0
    8.4131   -1.3201   20.6928 N   0  0  0  0  0  0  0  0  0  0  0  0
    8.6292   -1.8928   21.9279 N   0  0  0  0  0  0  0  0  0  0  0  0
    9.9068   -2.4938   22.2944 C   0  0  0  0  0  0  0  0  0  0  0  0
   10.6232   -1.6604   23.3425 C   0  0  0  0  0  0  0  0  0  0  0  0
   11.1811   -0.4773   23.0747 C   0  0  0  0  0  0  0  0  0  0  0  0
   11.5693    0.0461   21.7169 C   0  0  0  0  0  0  0  0  0  0  0  0
   10.9253    1.2731   21.4272 O   0  0  0  0  0  0  0  0  0  0  0  0
    9.9709    1.0997   21.4250 H   0  0  0  0  0  0  0  0  0  0  0  0
   11.3961   -0.7134   20.9347 H   0  0  0  0  0  0  0  0  0  0  0  0
   12.6374    0.2837   21.7330 H   0  0  0  0  0  0  0  0  0  0  0  0
   11.3703    0.2255   23.8882 H   0  0  0  0  0  0  0  0  0  0  0  0
   10.5184   -1.9908   24.3751 H   0  0  0  0  0  0  0  0  0  0  0  0
   10.4922   -2.5601   21.3690 H   0  0  0  0  0  0  0  0  0  0  0  0
    9.7207   -3.5031   22.6779 H   0  0  0  0  0  0  0  0  0  0  0  0
  1  2  2  0
  2  3  1  0
  3  4  1  0
  4  5  1  0
  5  6  2  0
  6  7  1  0
  7  8  2  0
  8  9  1  0
  9 10  2  0
 10 11  1  0
  8 12  1  0
  7 13  1  0
  6 14  1  0
  4 15  2  0
 15 16  1  0
 16 17  1  0
 17 18  1  0
 18 19  2  3
 19 20  1  0
 20 21  1  0
 21 22  1  0
 20 23  1  0
 20 24  1  0
 19 25  1  0
 18 26  1  0
 17 27  1  0
 17 28  1  0
 16  2  1  0
 10  5  1  0
M  END
>  <plip>  (1) 
-0.07142857142857142

>  <filename>  (1) 
[H][O][C]([H])([H])[C]([H])=[C]([H])[C]([H])([H])[n]1[n][c](-[c]2[c]([H])[n][c]([H])[c]([H])[c]2[H])[o][c]1=[O]

$$$$
