
     RDKit          3D

 40 42  0  0  0  0  0  0  0  0999 V2000
    6.8878   -0.7929   22.3570 C   0  0  0  0  0  0  0  0  0  0  0  0
    7.5093   -0.6868   20.9661 C   0  0  1  0  0  0  0  0  0  0  0  0
    6.6718    0.0649   19.9284 C   0  0  0  0  0  0  0  0  0  0  0  0
    5.4263    0.6788   20.1372 C   0  0  0  0  0  0  0  0  0  0  0  0
    4.7926    1.3274   19.0668 C   0  0  0  0  0  0  0  0  0  0  0  0
    5.4115    1.3182   17.8157 C   0  0  0  0  0  0  0  0  0  0  0  0
    6.5742    0.6930   17.5813 N   0  0  0  0  0  0  0  0  0  0  0  0
    7.1705    0.0894   18.6147 C   0  0  0  0  0  0  0  0  0  0  0  0
    8.1009   -0.4275   18.3844 H   0  0  0  0  0  0  0  0  0  0  0  0
    4.9541    1.8167   16.9613 H   0  0  0  0  0  0  0  0  0  0  0  0
    3.8529    1.8555   19.1908 H   0  0  0  0  0  0  0  0  0  0  0  0
    4.9493    0.6701   21.1195 H   0  0  0  0  0  0  0  0  0  0  0  0
    8.9141   -0.2331   20.9907 N   0  0  0  0  0  0  0  0  0  0  0  0
    9.9727   -1.2385   21.1930 C   0  0  0  0  0  0  0  0  0  0  0  0
   10.2500   -1.3270   22.2575 H   0  0  0  0  0  0  0  0  0  0  0  0
   10.8673   -0.9286   20.6423 H   0  0  0  0  0  0  0  0  0  0  0  0
    9.6491   -2.2228   20.8316 H   0  0  0  0  0  0  0  0  0  0  0  0
    9.3093    1.0927   21.1327 C   0  0  0  0  0  0  0  0  0  0  0  0
   10.4573    1.4278   20.8863 O   0  0  0  0  0  0  0  0  0  0  0  0
    8.3650    2.1190   21.7529 C   0  0  0  0  0  0  0  0  0  0  0  0
    8.5116    2.1264   23.2623 C   0  0  0  0  0  0  0  0  0  0  0  0
    9.4793    1.4984   23.9945 C   0  0  0  0  0  0  0  0  0  0  0  0
    9.2581    1.6992   25.3369 N   0  0  0  0  0  0  0  0  0  0  0  0
    8.1464    2.4668   25.5060 C   0  0  0  0  0  0  0  0  0  0  0  0
    7.6454    2.7722   24.2130 C   0  0  0  0  0  0  0  0  0  0  0  0
    6.5006    3.5804   24.2047 C   0  0  0  0  0  0  0  0  0  0  0  0
    5.7445    4.0609   22.7126 Cl  0  0  0  0  0  0  0  0  0  0  0  0
    5.9523    4.0028   25.4101 C   0  0  0  0  0  0  0  0  0  0  0  0
    6.5668    3.6039   26.6117 C   0  0  0  0  0  0  0  0  0  0  0  0
    7.6601    2.8386   26.6938 N   0  0  0  0  0  0  0  0  0  0  0  0
    6.1453    3.9336   27.5601 H   0  0  0  0  0  0  0  0  0  0  0  0
    5.0679    4.6275   25.4284 H   0  0  0  0  0  0  0  0  0  0  0  0
    9.7565    1.3292   26.1230 H   0  0  0  0  0  0  0  0  0  0  0  0
   10.3289    0.9419   23.6147 H   0  0  0  0  0  0  0  0  0  0  0  0
    8.6424    3.0975   21.3486 H   0  0  0  0  0  0  0  0  0  0  0  0
    7.3264    1.9346   21.4743 H   0  0  0  0  0  0  0  0  0  0  0  0
    7.5523   -1.7222   20.5808 H   0  0  0  0  0  0  0  0  0  0  0  0
    6.6482    0.1716   22.8182 H   0  0  0  0  0  0  0  0  0  0  0  0
    5.9733   -1.3833   22.2578 H   0  0  0  0  0  0  0  0  0  0  0  0
    7.5674   -1.3235   23.0309 H   0  0  0  0  0  0  0  0  0  0  0  0
  1  2  1  0
  2  3  1  0
  3  4  2  0
  4  5  1  0
  5  6  2  0
  6  7  1  0
  7  8  2  0
  8  9  1  0
  6 10  1  0
  5 11  1  0
  4 12  1  0
  2 13  1  0
 13 14  1  0
 14 15  1  0
 14 16  1  0
 14 17  1  0
 13 18  1  0
 18 19  2  0
 18 20  1  0
 20 21  1  0
 21 22  2  0
 22 23  1  0
 23 24  1  0
 24 25  2  0
 25 26  1  0
 26 27  1  0
 26 28  2  0
 28 29  1  0
 29 30  2  0
 29 31  1  0
 28 32  1  0
 23 33  1  0
 22 34  1  0
 20 35  1  0
 20 36  1  0
  2 37  1  6
  1 38  1  0
  1 39  1  0
  1 40  1  0
  8  3  1  0
 25 21  1  0
 30 24  1  0
M  END
>  <plip>  (1) 
-0.06896551724137931

>  <filename>  (1) 
[H][c]1[n][c]([H])[c]([C@@]([H])([N]([C](=[O])[C]([H])([H])[c]2[c]([H])[n]([H])[c]3[n][c]([H])[c]([H])[c]([Cl])[c]23)[C]([H])([H])[H])[C]([H])([H])[H])[c]([H])[c]1[H]

$$$$
