
     RDKit          3D

 34 36  0  0  0  0  0  0  0  0999 V2000
    4.9208    1.7772   16.9982 H   0  0  0  0  0  0  0  0  0  0  0  0
    5.4039    1.2905   17.8388 C   0  0  0  0  0  0  0  0  0  0  0  0
    6.5677    0.6744   17.5793 N   0  0  0  0  0  0  0  0  0  0  0  0
    7.1759    0.0651   18.6002 C   0  0  0  0  0  0  0  0  0  0  0  0
    8.1239   -0.4242   18.3833 H   0  0  0  0  0  0  0  0  0  0  0  0
    6.6459    0.0151   19.8986 C   0  0  0  0  0  0  0  0  0  0  0  0
    7.3993   -0.6954   20.9193 C   0  0  0  0  0  0  0  0  0  0  0  0
    8.6585   -1.0556   20.8249 N   0  0  0  0  0  0  0  0  0  0  0  0
    8.9490   -1.6775   22.0017 C   0  0  0  0  0  0  0  0  0  0  0  0
    9.9263   -2.0820   22.2093 H   0  0  0  0  0  0  0  0  0  0  0  0
    7.8587   -1.7201   22.8210 C   0  0  0  0  0  0  0  0  0  0  0  0
    7.6985   -2.3213   24.1673 C   0  0  0  0  0  0  0  0  0  0  0  0
    6.6706   -2.1434   24.5166 H   0  0  0  0  0  0  0  0  0  0  0  0
    7.9152   -3.8467   24.1042 C   0  0  0  0  0  0  0  0  0  0  0  0
    8.9090   -4.0400   23.6787 H   0  0  0  0  0  0  0  0  0  0  0  0
    7.1962   -4.2932   23.4075 H   0  0  0  0  0  0  0  0  0  0  0  0
    7.8057   -4.4821   25.4901 C   0  0  0  0  0  0  0  0  0  0  0  0
    6.7711   -4.3756   25.8424 H   0  0  0  0  0  0  0  0  0  0  0  0
    8.0061   -5.5569   25.4247 H   0  0  0  0  0  0  0  0  0  0  0  0
    8.7537   -3.8118   26.4934 C   0  0  0  0  0  0  0  0  0  0  0  0
    8.6259   -4.2530   27.4866 H   0  0  0  0  0  0  0  0  0  0  0  0
    9.7896   -4.0146   26.1906 H   0  0  0  0  0  0  0  0  0  0  0  0
    8.5456   -2.2934   26.5572 C   0  0  0  0  0  0  0  0  0  0  0  0
    7.5466   -2.0813   26.9606 H   0  0  0  0  0  0  0  0  0  0  0  0
    9.2653   -1.8303   27.2405 H   0  0  0  0  0  0  0  0  0  0  0  0
    8.6569   -1.6541   25.1728 C   0  0  0  0  0  0  0  0  0  0  0  0
    8.4539   -0.5777   25.2192 H   0  0  0  0  0  0  0  0  0  0  0  0
    9.6832   -1.7517   24.7948 H   0  0  0  0  0  0  0  0  0  0  0  0
    6.8686   -1.0788   22.1148 N   0  0  0  0  0  0  0  0  0  0  0  0
    5.9167   -0.9599   22.4015 H   0  0  0  0  0  0  0  0  0  0  0  0
    5.4262    0.6562   20.1548 C   0  0  0  0  0  0  0  0  0  0  0  0
    4.9881    0.6520   21.1610 H   0  0  0  0  0  0  0  0  0  0  0  0
    4.8006    1.3135   19.1038 C   0  0  0  0  0  0  0  0  0  0  0  0
    3.8694    1.8458   19.2594 H   0  0  0  0  0  0  0  0  0  0  0  0
  1  2  1  0
  2  3  2  0
  3  4  1  0
  4  5  1  0
  4  6  2  0
  6  7  1  0
  7  8  2  0
  8  9  1  0
  9 10  1  0
  9 11  2  0
 11 12  1  0
 12 13  1  0
 12 14  1  0
 14 15  1  0
 14 16  1  0
 14 17  1  0
 17 18  1  0
 17 19  1  0
 17 20  1  0
 20 21  1  0
 20 22  1  0
 20 23  1  0
 23 24  1  0
 23 25  1  0
 23 26  1  0
 26 27  1  0
 26 28  1  0
 11 29  1  0
 29 30  1  0
  6 31  1  0
 31 32  1  0
 31 33  2  0
 33 34  1  0
 33  2  1  0
 29  7  1  0
 26 12  1  0
M  END
>  <plip>  (1) 
-0.07142857142857142

>  <filename>  (1) 
[H][c]1[n][c]([H])[c](-[c]2[n][c]([H])[c]([C]3([H])[C]([H])([H])[C]([H])([H])[C]([H])([H])[C]([H])([H])[C]3([H])[H])[n]2[H])[c]([H])[c]1[H]

$$$$
