
     RDKit          3D

 34 36  0  0  0  0  0  0  0  0999 V2000
    6.7936    0.1471   22.2367 O   0  0  0  0  0  0  0  0  0  0  0  0
    7.1074   -0.2935   21.1449 C   0  0  0  0  0  0  0  0  0  0  0  0
    8.0855   -1.2400   20.9990 N   0  0  0  0  0  0  0  0  0  0  0  0
    8.5980   -1.9291   22.1734 C   0  0  0  0  0  0  0  0  0  0  0  0
   10.0756   -2.2420   21.9812 C   0  0  0  0  0  0  0  0  0  0  0  0
   10.6415   -2.9383   23.0884 O   0  0  0  0  0  0  0  0  0  0  0  0
    9.8790   -3.8599   23.7489 C   0  0  0  0  0  0  0  0  0  0  0  0
   10.5704   -4.6299   24.6758 C   0  0  0  0  0  0  0  0  0  0  0  0
    9.8872   -5.5893   25.4071 C   0  0  0  0  0  0  0  0  0  0  0  0
   10.5544   -6.4215   26.2378 O   0  0  0  0  0  0  0  0  0  0  0  0
   11.4436   -6.5325   25.8808 H   0  0  0  0  0  0  0  0  0  0  0  0
    8.4961   -5.7071   25.3213 C   0  0  0  0  0  0  0  0  0  0  0  0
    7.8114   -4.9237   24.3928 C   0  0  0  0  0  0  0  0  0  0  0  0
    8.4904   -4.0283   23.5458 C   0  0  0  0  0  0  0  0  0  0  0  0
    7.8000   -3.2088   22.4753 C   0  0  0  0  0  0  0  0  0  0  0  0
    7.6907   -3.7969   21.5497 H   0  0  0  0  0  0  0  0  0  0  0  0
    6.7871   -2.9236   22.7860 H   0  0  0  0  0  0  0  0  0  0  0  0
    6.7287   -5.0229   24.3223 H   0  0  0  0  0  0  0  0  0  0  0  0
    8.0087   -6.3889   26.0085 H   0  0  0  0  0  0  0  0  0  0  0  0
   11.6363   -4.4711   24.7839 H   0  0  0  0  0  0  0  0  0  0  0  0
   10.6588   -1.3220   21.8794 H   0  0  0  0  0  0  0  0  0  0  0  0
   10.1806   -2.8141   21.0543 H   0  0  0  0  0  0  0  0  0  0  0  0
    8.5180   -1.2653   23.0410 H   0  0  0  0  0  0  0  0  0  0  0  0
    8.0296   -1.7909   20.1571 H   0  0  0  0  0  0  0  0  0  0  0  0
    6.4533    0.1700   19.8964 C   0  0  0  0  0  0  0  0  0  0  0  0
    5.2163    0.8211   20.0140 C   0  0  0  0  0  0  0  0  0  0  0  0
    4.6692    1.4080   18.8820 C   0  0  0  0  0  0  0  0  0  0  0  0
    5.3713    1.3213   17.6760 C   0  0  0  0  0  0  0  0  0  0  0  0
    6.5343    0.6631   17.5436 N   0  0  0  0  0  0  0  0  0  0  0  0
    7.0544    0.0965   18.6383 C   0  0  0  0  0  0  0  0  0  0  0  0
    8.0058   -0.4157   18.4738 H   0  0  0  0  0  0  0  0  0  0  0  0
    4.9840    1.8022   16.7805 H   0  0  0  0  0  0  0  0  0  0  0  0
    3.7349    1.9548   18.9359 H   0  0  0  0  0  0  0  0  0  0  0  0
    4.7297    0.8684   20.9895 H   0  0  0  0  0  0  0  0  0  0  0  0
  1  2  2  0
  2  3  1  0
  3  4  1  0
  4  5  1  0
  5  6  1  0
  6  7  1  0
  7  8  2  0
  8  9  1  0
  9 10  1  0
 10 11  1  0
  9 12  2  0
 12 13  1  0
 13 14  2  0
 14 15  1  0
 15 16  1  0
 15 17  1  0
 13 18  1  0
 12 19  1  0
  8 20  1  0
  5 21  1  0
  5 22  1  0
  4 23  1  0
  3 24  1  0
  2 25  1  0
 25 26  2  0
 26 27  1  0
 27 28  2  0
 28 29  1  0
 29 30  2  0
 30 31  1  0
 28 32  1  0
 27 33  1  0
 26 34  1  0
 15  4  1  0
 30 25  1  0
 14  7  1  0
M  END
>  <plip>  (1) 
-0.13333333333333333

>  <filename>  (1) 
[H][O][c]1[c]([H])[c]([H])[c]2[c]([c]1[H])[O][C]([H])([H])[C]([H])([N]([H])[C](=[O])[c]1[c]([H])[n][c]([H])[c]([H])[c]1[H])[C]2([H])[H]

$$$$
