
     RDKit          3D

 27 28  0  0  0  0  0  0  0  0999 V2000
    5.0027    1.7639   16.9880 H   0  0  0  0  0  0  0  0  0  0  0  0
    5.4304    1.2583   17.8528 C   0  0  0  0  0  0  0  0  0  0  0  0
    6.5892    0.6122   17.6478 N   0  0  0  0  0  0  0  0  0  0  0  0
    7.1575    0.0066   18.6942 C   0  0  0  0  0  0  0  0  0  0  0  0
    8.1163   -0.4760   18.5159 H   0  0  0  0  0  0  0  0  0  0  0  0
    6.5881    0.0184   19.9657 C   0  0  0  0  0  0  0  0  0  0  0  0
    7.5450   -0.7789   21.2443 S   0  0  0  0  0  4  0  0  0  0  0  0
    8.9790   -0.5705   20.8765 O   0  0  0  0  0  0  0  0  0  0  0  0
    7.4151   -2.3578   20.6571 N   0  0  0  0  0  0  0  0  0  0  0  0
    8.3660   -2.5348   20.3397 H   0  0  0  0  0  0  0  0  0  0  0  0
    6.8480   -3.4485   21.3536 C   0  0  0  0  0  0  0  0  0  0  0  0
    7.1993   -4.7338   20.9237 C   0  0  0  0  0  0  0  0  0  0  0  0
    7.9641   -4.8742   20.1760 H   0  0  0  0  0  0  0  0  0  0  0  0
    6.5849   -5.8473   21.4857 C   0  0  0  0  0  0  0  0  0  0  0  0
    6.8543   -6.8382   21.1435 H   0  0  0  0  0  0  0  0  0  0  0  0
    5.6454   -5.7083   22.5060 C   0  0  0  0  0  0  0  0  0  0  0  0
    5.1435   -6.5707   22.9323 H   0  0  0  0  0  0  0  0  0  0  0  0
    5.3767   -4.4226   22.9915 C   0  0  0  0  0  0  0  0  0  0  0  0
    4.4776   -4.2725   24.1725 N   0  0  0  0  0  4  0  0  0  0  0  0
    3.9594   -5.2758   24.6289 O   0  0  0  0  0  0  0  0  0  0  0  0
    4.3104   -3.1541   24.6280 O   0  0  0  0  0  1  0  0  0  0  0  0
    5.9689   -3.2872   22.4240 C   0  0  0  0  0  0  0  0  0  0  0  0
    5.8046   -2.3001   22.8363 H   0  0  0  0  0  0  0  0  0  0  0  0
    5.3675    0.6576   20.1883 C   0  0  0  0  0  0  0  0  0  0  0  0
    4.8896    0.6552   21.1680 H   0  0  0  0  0  0  0  0  0  0  0  0
    4.7856    1.3010   19.0925 C   0  0  0  0  0  0  0  0  0  0  0  0
    3.8543    1.8435   19.1950 H   0  0  0  0  0  0  0  0  0  0  0  0
  1  2  1  0
  2  3  2  0
  3  4  1  0
  4  5  1  0
  4  6  2  0
  6  7  1  0
  7  8  2  0
  7  9  1  6
  9 10  1  0
  9 11  1  0
 11 12  2  0
 12 13  1  0
 12 14  1  0
 14 15  1  0
 14 16  2  0
 16 17  1  0
 16 18  1  0
 18 19  1  0
 19 20  2  0
 19 21  1  0
 18 22  2  0
 22 23  1  0
  6 24  1  0
 24 25  1  0
 24 26  2  0
 26 27  1  0
 26  2  1  0
 22 11  1  0
M  CHG  2  19   1  21  -1
M  END
>  <plip>  (1) 
-0.03333333333333333

>  <filename>  (1) 
[H][c]1[n][c]([H])[c]([S@](=[O])[N]([H])[c]2[c]([H])[c]([H])[c]([H])[c]([N+](=[O])[O-])[c]2[H])[c]([H])[c]1[H]

$$$$
