
     RDKit          3D

 26 27  0  0  0  0  0  0  0  0999 V2000
    4.9566    1.6864   17.0211 H   0  0  0  0  0  0  0  0  0  0  0  0
    5.4653    1.2176   17.8638 C   0  0  0  0  0  0  0  0  0  0  0  0
    6.6422    0.6268   17.5943 N   0  0  0  0  0  0  0  0  0  0  0  0
    7.3118    0.0780   18.6181 C   0  0  0  0  0  0  0  0  0  0  0  0
    8.2462   -0.4210   18.3763 H   0  0  0  0  0  0  0  0  0  0  0  0
    6.8347    0.0997   19.9505 C   0  0  0  0  0  0  0  0  0  0  0  0
    7.6244   -0.4033   20.9823 O   0  0  0  0  0  0  0  0  0  0  0  0
    6.9607   -1.1081   22.3211 S   0  0  0  0  0  0  0  0  0  0  0  0
    6.5229   -0.0667   23.2179 O   0  0  0  0  0  0  0  0  0  0  0  0
    6.1250   -2.2035   21.9252 O   0  0  0  0  0  0  0  0  0  0  0  0
    8.3100   -1.7429   22.8383 O   0  0  0  0  0  0  0  0  0  0  0  0
    9.4466   -0.8596   22.9829 C   0  0  0  0  0  0  0  0  0  0  0  0
    9.5191   -0.1661   22.1434 H   0  0  0  0  0  0  0  0  0  0  0  0
   10.2973   -1.5500   22.9423 H   0  0  0  0  0  0  0  0  0  0  0  0
    9.4142   -0.1292   24.2976 C   0  0  0  0  0  0  0  0  0  0  0  0
    8.6746    0.6702   24.3429 H   0  0  0  0  0  0  0  0  0  0  0  0
   10.7183    0.0226   25.0445 C   0  0  0  0  0  0  0  0  0  0  0  0
   10.9224    0.9185   25.6244 H   0  0  0  0  0  0  0  0  0  0  0  0
   11.6129   -0.3887   24.5793 H   0  0  0  0  0  0  0  0  0  0  0  0
    9.6652   -0.9254   25.5473 C   0  0  0  0  0  0  0  0  0  0  0  0
    9.8130   -1.9979   25.4299 H   0  0  0  0  0  0  0  0  0  0  0  0
    9.0989   -0.6541   26.4345 H   0  0  0  0  0  0  0  0  0  0  0  0
    5.5981    0.6759   20.2213 C   0  0  0  0  0  0  0  0  0  0  0  0
    5.2122    0.6875   21.2385 H   0  0  0  0  0  0  0  0  0  0  0  0
    4.9038    1.2505   19.1449 C   0  0  0  0  0  0  0  0  0  0  0  0
    3.9496    1.7396   19.3028 H   0  0  0  0  0  0  0  0  0  0  0  0
  1  2  1  0
  2  3  2  0
  3  4  1  0
  4  5  1  0
  4  6  2  0
  6  7  1  0
  7  8  1  0
  8  9  2  0
  8 10  2  0
  8 11  1  0
 11 12  1  0
 12 13  1  0
 12 14  1  0
 12 15  1  0
 15 16  1  0
 15 17  1  0
 17 18  1  0
 17 19  1  0
 17 20  1  0
 20 21  1  0
 20 22  1  0
  6 23  1  0
 23 24  1  0
 23 25  2  0
 25 26  1  0
 25  2  1  0
 20 15  1  0
M  END
>  <plip>  (1) 
-0.06896551724137931

>  <filename>  (1) 
[H][c]1[n][c]([H])[c]([O][S](=[O])(=[O])[O][C]([H])([H])[C]2([H])[C]([H])([H])[C]2([H])[H])[c]([H])[c]1[H]

$$$$
