
     RDKit          3D

 30 31  0  0  0  0  0  0  0  0999 V2000
    5.0030    1.8170   16.9149 H   0  0  0  0  0  0  0  0  0  0  0  0
    5.3918    1.3101   17.7936 C   0  0  0  0  0  0  0  0  0  0  0  0
    6.5298    0.6154   17.6179 N   0  0  0  0  0  0  0  0  0  0  0  0
    7.0477   -0.0064   18.6877 C   0  0  0  0  0  0  0  0  0  0  0  0
    7.9775   -0.5554   18.5228 H   0  0  0  0  0  0  0  0  0  0  0  0
    6.4825    0.0350   19.9918 C   0  0  0  0  0  0  0  0  0  0  0  0
    7.0695   -0.5695   21.1245 N   0  0  0  0  0  0  0  0  0  0  0  0
    7.2179    0.1570   22.3708 C   0  0  0  0  0  0  0  0  0  0  0  0
    8.2118   -0.0231   22.8023 H   0  0  0  0  0  0  0  0  0  0  0  0
    6.4795   -0.1373   23.1365 H   0  0  0  0  0  0  0  0  0  0  0  0
    7.1361    1.2314   22.1836 H   0  0  0  0  0  0  0  0  0  0  0  0
    7.3419   -1.9959   21.2106 C   0  0  0  0  0  0  0  0  0  0  0  0
    7.1245   -2.4468   20.2367 H   0  0  0  0  0  0  0  0  0  0  0  0
    6.6582   -2.4786   21.9308 H   0  0  0  0  0  0  0  0  0  0  0  0
    8.7769   -2.2701   21.6357 C   0  0  0  0  0  0  0  0  0  0  0  0
    9.8265   -1.6062   20.9827 C   0  0  0  0  0  0  0  0  0  0  0  0
    9.6109   -0.9727   20.1233 H   0  0  0  0  0  0  0  0  0  0  0  0
   11.1389   -1.7273   21.4425 C   0  0  0  0  0  0  0  0  0  0  0  0
   11.9280   -1.1499   20.9763 H   0  0  0  0  0  0  0  0  0  0  0  0
   11.4406   -2.5584   22.5190 C   0  0  0  0  0  0  0  0  0  0  0  0
   12.4791   -2.7266   22.7718 H   0  0  0  0  0  0  0  0  0  0  0  0
   10.3966   -3.2082   23.2030 C   0  0  0  0  0  0  0  0  0  0  0  0
   10.6595   -3.9633   24.4039 C   0  0  0  0  0  0  0  0  0  0  0  0
   10.8395   -4.5362   25.3948 N   0  0  0  0  0  0  0  0  0  0  0  0
    9.0677   -3.0614   22.7555 C   0  0  0  0  0  0  0  0  0  0  0  0
    8.2702   -3.5630   23.3044 H   0  0  0  0  0  0  0  0  0  0  0  0
    5.2926    0.7708   20.1378 C   0  0  0  0  0  0  0  0  0  0  0  0
    4.8421    0.8182   21.1279 H   0  0  0  0  0  0  0  0  0  0  0  0
    4.7346    1.4026   19.0247 C   0  0  0  0  0  0  0  0  0  0  0  0
    3.8206    1.9810   19.1086 H   0  0  0  0  0  0  0  0  0  0  0  0
  1  2  1  0
  2  3  2  0
  3  4  1  0
  4  5  1  0
  4  6  2  0
  6  7  1  0
  7  8  1  0
  8  9  1  0
  8 10  1  0
  8 11  1  0
  7 12  1  0
 12 13  1  0
 12 14  1  0
 12 15  1  0
 15 16  2  0
 16 17  1  0
 16 18  1  0
 18 19  1  0
 18 20  2  0
 20 21  1  0
 20 22  1  0
 22 23  1  0
 23 24  3  0
 22 25  2  0
 25 26  1  0
  6 27  1  0
 27 28  1  0
 27 29  2  0
 29 30  1  0
 29  2  1  0
 25 15  1  0
M  END
>  <plip>  (1) 
-0.10714285714285714

>  <filename>  (1) 
[H][c]1[n][c]([H])[c]([N]([C]([H])([H])[H])[C]([H])([H])[c]2[c]([H])[c]([H])[c]([H])[c]([C]#[N])[c]2[H])[c]([H])[c]1[H]

$$$$
