
     RDKit          3D

 16 16  0  0  0  0  0  0  0  0999 V2000
    6.4010    0.1584   22.6087 H   0  0  0  0  0  0  0  0  0  0  0  0
    7.1129   -0.5119   22.1217 C   0  0  0  0  0  0  0  0  0  0  0  0
    7.8612   -1.2226   23.0490 N   0  0  0  0  0  0  0  0  0  0  0  0
    8.8880   -1.8660   23.0340 C   0  0  0  0  0  0  0  0  0  0  0  0
   10.2130   -2.6859   23.2058 S   0  0  0  0  0  0  0  0  0  0  0  0
    7.3427   -0.6640   20.8801 N   0  0  0  0  0  0  0  0  0  0  0  0
    6.6114    0.0417   19.8901 C   0  0  0  0  0  0  0  0  0  0  0  0
    7.1413    0.0799   18.5735 C   0  0  0  0  0  0  0  0  0  0  0  0
    8.0829   -0.4370   18.3825 H   0  0  0  0  0  0  0  0  0  0  0  0
    6.5537    0.7013   17.5502 N   0  0  0  0  0  0  0  0  0  0  0  0
    5.3868    1.3311   17.7859 C   0  0  0  0  0  0  0  0  0  0  0  0
    4.9478    1.8407   16.9372 H   0  0  0  0  0  0  0  0  0  0  0  0
    4.7699    1.3433   19.0367 C   0  0  0  0  0  0  0  0  0  0  0  0
    3.8361    1.8747   19.1688 H   0  0  0  0  0  0  0  0  0  0  0  0
    5.3843    0.6889   20.1048 C   0  0  0  0  0  0  0  0  0  0  0  0
    4.9128    0.6770   21.0872 H   0  0  0  0  0  0  0  0  0  0  0  0
  1  2  1  0
  2  3  1  0
  3  4  2  0
  4  5  2  0
  2  6  2  3
  6  7  1  0
  7  8  2  0
  8  9  1  0
  8 10  1  0
 10 11  2  0
 11 12  1  0
 11 13  1  0
 13 14  1  0
 13 15  2  0
 15 16  1  0
 15  7  1  0
M  END
>  <plip>  (1) 
-0.03571428571428571

>  <filename>  (1) 
[H][C]([N]=[C]=[S])=[N][c]1[c]([H])[n][c]([H])[c]([H])[c]1[H]

$$$$
