
     RDKit          3D

 50 51  0  0  0  0  0  0  0  0999 V2000
    9.5962   -1.2733   24.0134 C   0  0  0  0  0  0  0  0  0  0  0  0
   10.5755   -0.1968   23.5861 C   0  0  0  0  0  0  0  0  0  0  0  0
   10.3871    0.5739   22.4098 C   0  0  0  0  0  0  0  0  0  0  0  0
    9.3172    0.1809   21.4186 C   0  0  0  0  0  0  0  0  0  0  0  0
    9.6210   -0.1942   20.2966 O   0  0  0  0  0  0  0  0  0  0  0  0
    7.9861    0.2539   21.8327 N   0  0  0  0  0  0  0  0  0  0  0  0
    7.4855    1.4218   22.5732 C   0  0  0  0  0  0  0  0  0  0  0  0
    7.7873    2.7171   21.8095 C   0  0  0  0  0  0  0  0  0  0  0  0
    7.1097    3.9570   22.3424 N   0  0  0  0  0  4  0  0  0  0  0  0
    7.8732    5.1879   21.9582 C   0  0  0  0  0  0  0  0  0  0  0  0
    8.9127    5.1239   22.2968 H   0  0  0  0  0  0  0  0  0  0  0  0
    7.4046    6.0806   22.3814 H   0  0  0  0  0  0  0  0  0  0  0  0
    7.8800    5.2780   20.8635 H   0  0  0  0  0  0  0  0  0  0  0  0
    5.7092    4.0664   21.8135 C   0  0  0  0  0  0  0  0  0  0  0  0
    5.7596    4.1566   20.7227 H   0  0  0  0  0  0  0  0  0  0  0  0
    5.1260    3.1731   22.0528 H   0  0  0  0  0  0  0  0  0  0  0  0
    5.2092    4.9539   22.2135 H   0  0  0  0  0  0  0  0  0  0  0  0
    7.0925    3.8635   23.3819 H   0  0  0  0  0  0  0  0  0  0  0  0
    8.8603    2.8873   21.8743 H   0  0  0  0  0  0  0  0  0  0  0  0
    7.5120    2.5873   20.7554 H   0  0  0  0  0  0  0  0  0  0  0  0
    6.4042    1.3036   22.7322 H   0  0  0  0  0  0  0  0  0  0  0  0
    7.9450    1.4717   23.5701 H   0  0  0  0  0  0  0  0  0  0  0  0
    7.0106   -0.5596   21.0886 C   0  0  0  0  0  0  0  0  0  0  0  0
    6.4085    0.1511   19.8971 C   0  0  0  0  0  0  0  0  0  0  0  0
    5.1487    0.7644   19.9394 C   0  0  0  0  0  0  0  0  0  0  0  0
    4.6858    1.4359   18.8036 C   0  0  0  0  0  0  0  0  0  0  0  0
    5.4986    1.4701   17.6675 C   0  0  0  0  0  0  0  0  0  0  0  0
    6.6952    0.8704   17.5954 N   0  0  0  0  0  0  0  0  0  0  0  0
    7.1270    0.2291   18.6899 C   0  0  0  0  0  0  0  0  0  0  0  0
    8.0924   -0.2635   18.6106 H   0  0  0  0  0  0  0  0  0  0  0  0
    5.1768    2.0053   16.7761 H   0  0  0  0  0  0  0  0  0  0  0  0
    3.7225    1.9348   18.7824 H   0  0  0  0  0  0  0  0  0  0  0  0
    4.5329    0.7096   20.8406 H   0  0  0  0  0  0  0  0  0  0  0  0
    7.5260   -1.4720   20.7634 H   0  0  0  0  0  0  0  0  0  0  0  0
    6.2152   -0.8726   21.7820 H   0  0  0  0  0  0  0  0  0  0  0  0
   11.3227    1.5691   22.0379 C   0  0  0  0  0  0  0  0  0  0  0  0
   11.1451    2.4881   20.8617 C   0  0  0  0  0  0  0  0  0  0  0  0
   11.6679    3.4341   21.0358 H   0  0  0  0  0  0  0  0  0  0  0  0
   11.5744    2.0487   19.9667 H   0  0  0  0  0  0  0  0  0  0  0  0
   10.0973    2.6804   20.6557 H   0  0  0  0  0  0  0  0  0  0  0  0
   12.5217    1.6515   22.7382 C   0  0  0  0  0  0  0  0  0  0  0  0
   12.7574    0.8203   23.8186 C   0  0  0  0  0  0  0  0  0  0  0  0
   13.9726    0.7993   24.4081 O   0  0  0  0  0  0  0  0  0  0  0  0
   14.5044    1.4370   23.9129 H   0  0  0  0  0  0  0  0  0  0  0  0
   11.7567   -0.0141   24.3129 C   0  0  0  0  0  0  0  0  0  0  0  0
   11.9497   -0.5684   25.2247 H   0  0  0  0  0  0  0  0  0  0  0  0
   13.3122    2.3176   22.3899 H   0  0  0  0  0  0  0  0  0  0  0  0
    8.5936   -0.8725   24.1918 H   0  0  0  0  0  0  0  0  0  0  0  0
    9.5105   -2.0434   23.2371 H   0  0  0  0  0  0  0  0  0  0  0  0
    9.9133   -1.7772   24.9304 H   0  0  0  0  0  0  0  0  0  0  0  0
  1  2  1  0
  2  3  2  0
  3  4  1  0
  4  5  2  0
  4  6  1  0
  6  7  1  0
  7  8  1  0
  8  9  1  0
  9 10  1  0
 10 11  1  0
 10 12  1  0
 10 13  1  0
  9 14  1  0
 14 15  1  0
 14 16  1  0
 14 17  1  0
  9 18  1  0
  8 19  1  0
  8 20  1  0
  7 21  1  0
  7 22  1  0
  6 23  1  0
 23 24  1  0
 24 25  2  0
 25 26  1  0
 26 27  2  0
 27 28  1  0
 28 29  2  0
 29 30  1  0
 27 31  1  0
 26 32  1  0
 25 33  1  0
 23 34  1  0
 23 35  1  0
  3 36  1  0
 36 37  1  0
 37 38  1  0
 37 39  1  0
 37 40  1  0
 36 41  2  0
 41 42  1  0
 42 43  1  0
 43 44  1  0
 42 45  2  0
 45 46  1  0
 41 47  1  0
  1 48  1  0
  1 49  1  0
  1 50  1  0
 45  2  1  0
 29 24  1  0
M  CHG  1   9   1
M  END
>  <plip>  (1) 
-0.13333333333333333

>  <filename>  (1) 
[H][O][c]1[c]([H])[c]([C]([H])([H])[H])[c]([C](=[O])[N]([C]([H])([H])[c]2[c]([H])[n][c]([H])[c]([H])[c]2[H])[C]([H])([H])[C]([H])([H])[N+]([H])([C]([H])([H])[H])[C]([H])([H])[H])[c]([C]([H])([H])[H])[c]1[H]

$$$$
