
     RDKit          3D

 42 44  0  0  0  0  0  0  0  0999 V2000
    6.5216   -8.0198   27.5775 H   0  0  0  0  0  0  0  0  0  0  0  0
    5.8881   -7.2873   27.6008 O   0  0  0  0  0  0  0  0  0  0  0  0
    5.8484   -6.6815   26.3187 C   0  0  0  0  0  0  0  0  0  0  0  0
    5.0973   -5.8898   26.3989 H   0  0  0  0  0  0  0  0  0  0  0  0
    5.4927   -7.3734   25.5416 H   0  0  0  0  0  0  0  0  0  0  0  0
    7.1658   -6.0330   25.8513 C   0  0  0  0  0  0  0  0  0  0  0  0
    7.4748   -5.2720   26.5918 H   0  0  0  0  0  0  0  0  0  0  0  0
    7.9685   -6.7791   25.8347 H   0  0  0  0  0  0  0  0  0  0  0  0
    7.0481   -5.4862   24.4929 N   0  0  0  0  0  0  0  0  0  0  0  0
    6.0049   -4.4433   24.4008 C   0  0  0  0  0  0  0  0  0  0  0  0
    5.9821   -3.8116   25.3106 H   0  0  0  0  0  0  0  0  0  0  0  0
    5.0200   -4.9203   24.3331 H   0  0  0  0  0  0  0  0  0  0  0  0
    6.1943   -3.5142   23.1930 C   0  0  0  0  0  0  0  0  0  0  0  0
    5.3912   -2.7737   23.1892 H   0  0  0  0  0  0  0  0  0  0  0  0
    6.0932   -4.1018   22.2684 H   0  0  0  0  0  0  0  0  0  0  0  0
    7.4988   -2.8182   23.2262 N   0  0  0  0  0  0  0  0  0  0  0  0
    7.4283   -1.4223   23.3530 C   0  0  0  0  0  0  0  0  0  0  0  0
    6.7518   -0.8426   22.2763 O   0  0  0  0  0  0  0  0  0  0  0  0
    7.4246   -0.8077   21.1095 C   0  0  0  0  0  0  0  0  0  0  0  0
    8.5399   -1.2509   20.9539 O   0  0  0  0  0  0  0  0  0  0  0  0
    6.6451   -0.1072   20.0624 C   0  0  0  0  0  0  0  0  0  0  0  0
    7.2227   -0.0934   18.7872 C   0  0  0  0  0  0  0  0  0  0  0  0
    8.1579   -0.6193   18.6098 H   0  0  0  0  0  0  0  0  0  0  0  0
    6.6848    0.5362   17.7395 N   0  0  0  0  0  0  0  0  0  0  0  0
    5.5349    1.1945   17.9338 C   0  0  0  0  0  0  0  0  0  0  0  0
    5.1202    1.7007   17.0645 H   0  0  0  0  0  0  0  0  0  0  0  0
    4.8704    1.2394   19.1687 C   0  0  0  0  0  0  0  0  0  0  0  0
    3.9459    1.7978   19.2581 H   0  0  0  0  0  0  0  0  0  0  0  0
    5.4284    0.5737   20.2571 C   0  0  0  0  0  0  0  0  0  0  0  0
    4.9435    0.5788   21.2364 H   0  0  0  0  0  0  0  0  0  0  0  0
    7.1302   -0.7232   24.6402 C   0  0  0  0  0  0  0  0  0  0  0  0
    6.4581    0.1243   24.5796 H   0  0  0  0  0  0  0  0  0  0  0  0
    7.0426   -1.3145   25.5470 H   0  0  0  0  0  0  0  0  0  0  0  0
    8.4791   -0.5798   23.9883 C   0  0  0  0  0  0  0  0  0  0  0  0
    9.3426   -1.0674   24.4310 H   0  0  0  0  0  0  0  0  0  0  0  0
    8.6795    0.3593   23.4865 H   0  0  0  0  0  0  0  0  0  0  0  0
    8.5969   -3.5509   23.8778 C   0  0  0  0  0  0  0  0  0  0  0  0
    9.5343   -3.3550   23.3366 H   0  0  0  0  0  0  0  0  0  0  0  0
    8.7529   -3.2305   24.9230 H   0  0  0  0  0  0  0  0  0  0  0  0
    8.3303   -5.0748   23.8751 C   0  0  0  0  0  0  0  0  0  0  0  0
    8.3555   -5.4041   22.8262 H   0  0  0  0  0  0  0  0  0  0  0  0
    9.1549   -5.5872   24.3832 H   0  0  0  0  0  0  0  0  0  0  0  0
  1  2  1  0
  2  3  1  0
  3  4  1  0
  3  5  1  0
  3  6  1  0
  6  7  1  0
  6  8  1  0
  6  9  1  0
  9 10  1  0
 10 11  1  0
 10 12  1  0
 10 13  1  0
 13 14  1  0
 13 15  1  0
 13 16  1  0
 16 17  1  0
 17 18  1  0
 18 19  1  0
 19 20  2  0
 19 21  1  0
 21 22  2  0
 22 23  1  0
 22 24  1  0
 24 25  2  0
 25 26  1  0
 25 27  1  0
 27 28  1  0
 27 29  2  0
 29 30  1  0
 17 31  1  0
 31 32  1  0
 31 33  1  0
 31 34  1  0
 34 35  1  0
 34 36  1  0
 16 37  1  0
 37 38  1  0
 37 39  1  0
 37 40  1  0
 40 41  1  0
 40 42  1  0
 40  9  1  0
 34 17  1  0
 29 21  1  0
M  END
>  <plip>  (1) 
-0.03571428571428571

>  <filename>  (1) 
[H][O][C]([H])([H])[C]([H])([H])[N]1[C]([H])([H])[C]([H])([H])[N]([C]2([O][C](=[O])[c]3[c]([H])[n][c]([H])[c]([H])[c]3[H])[C]([H])([H])[C]2([H])[H])[C]([H])([H])[C]1([H])[H]

$$$$
