
     RDKit          3D

 24 25  0  0  0  0  0  0  0  0999 V2000
    4.9432    1.8188   16.9699 H   0  0  0  0  0  0  0  0  0  0  0  0
    5.3879    1.2930   17.8114 C   0  0  0  0  0  0  0  0  0  0  0  0
    6.5432    0.6566   17.5652 N   0  0  0  0  0  0  0  0  0  0  0  0
    7.1362    0.0323   18.5890 C   0  0  0  0  0  0  0  0  0  0  0  0
    8.0906   -0.4538   18.3810 H   0  0  0  0  0  0  0  0  0  0  0  0
    6.6051    0.0106   19.8917 C   0  0  0  0  0  0  0  0  0  0  0  0
    7.5114   -0.7568   21.2383 S   0  0  0  0  0  0  0  0  0  0  0  0
    8.6319    0.5525   21.7286 C   0  0  0  0  0  0  0  0  0  0  0  0
   10.0792    0.7877   21.0396 S   0  0  0  0  0  0  0  0  0  0  0  0
    8.1214    1.5398   22.7798 C   0  0  2  0  0  0  0  0  0  0  0  0
    9.0064    1.7798   23.3778 H   0  0  0  0  0  0  0  0  0  0  0  0
    7.0371    1.0896   23.6272 N   0  0  0  0  0  0  0  0  0  0  0  0
    6.0763    1.8835   23.3828 C   0  0  0  0  0  0  0  0  0  0  0  0
    4.8064    1.7017   23.8099 N   0  0  0  0  0  0  0  0  0  0  0  0
    4.4336    2.6164   24.0009 H   0  0  0  0  0  0  0  0  0  0  0  0
    4.8889    1.0988   24.6113 H   0  0  0  0  0  0  0  0  0  0  0  0
    6.2720    2.9873   22.6563 O   0  0  0  0  0  0  0  0  0  0  0  0
    7.5784    2.8271   22.0754 C   0  0  0  0  0  0  0  0  0  0  0  0
    7.4426    2.7028   20.9981 H   0  0  0  0  0  0  0  0  0  0  0  0
    8.1915    3.7117   22.2563 H   0  0  0  0  0  0  0  0  0  0  0  0
    5.3836    0.6466   20.1308 C   0  0  0  0  0  0  0  0  0  0  0  0
    4.9566    0.6546   21.1375 H   0  0  0  0  0  0  0  0  0  0  0  0
    4.7688    1.3118   19.0663 C   0  0  0  0  0  0  0  0  0  0  0  0
    3.8424    1.8591   19.1995 H   0  0  0  0  0  0  0  0  0  0  0  0
  1  2  1  0
  2  3  2  0
  3  4  1  0
  4  5  1  0
  4  6  2  0
  6  7  1  0
  7  8  1  0
  8  9  2  0
  8 10  1  0
 10 11  1  1
 10 12  1  0
 12 13  2  0
 13 14  1  0
 14 15  1  0
 14 16  1  0
 13 17  1  0
 17 18  1  0
 18 19  1  0
 18 20  1  0
  6 21  1  0
 21 22  1  0
 21 23  2  0
 23 24  1  0
 23  2  1  0
 18 10  1  0
M  END
>  <plip>  (1) 
-0.03571428571428571

>  <filename>  (1) 
[H][c]1[n][c]([H])[c]([S][C](=[S])[C@]2([H])[N]=[C]([N]([H])[H])[O][C]2([H])[H])[c]([H])[c]1[H]

$$$$
