
     RDKit          3D

 30 32  0  0  0  0  0  0  0  0999 V2000
    4.8356    2.6556   24.3195 H   0  0  0  0  0  0  0  0  0  0  0  0
    5.6549    2.1342   24.8064 C   0  0  0  0  0  0  0  0  0  0  0  0
    5.6238    0.8024   24.6981 N   0  0  0  0  0  0  0  0  0  0  0  0
    6.6533    0.1099   25.2050 C   0  0  0  0  0  0  0  0  0  0  0  0
    6.6771   -1.3744   24.9683 C   0  0  0  0  0  0  0  0  0  0  0  0
    5.7315   -1.7212   24.5601 H   0  0  0  0  0  0  0  0  0  0  0  0
    6.8636   -1.9000   25.9016 H   0  0  0  0  0  0  0  0  0  0  0  0
    7.8032   -1.8411   24.1716 O   0  0  0  0  0  0  0  0  0  0  0  0
    7.8208   -1.4877   22.8577 N   0  0  0  0  0  0  0  0  0  0  0  0
    6.8661   -0.8011   22.2277 N   0  0  0  0  0  0  0  0  0  0  0  0
    7.3585   -0.7014   20.9986 C   0  0  0  0  0  0  0  0  0  0  0  0
    6.6504    0.0050   19.9315 C   0  0  0  0  0  0  0  0  0  0  0  0
    7.1816    0.0464   18.6308 C   0  0  0  0  0  0  0  0  0  0  0  0
    8.1277   -0.4330   18.3866 H   0  0  0  0  0  0  0  0  0  0  0  0
    6.5775    0.6602   17.6052 N   0  0  0  0  0  0  0  0  0  0  0  0
    5.4134    1.2815   17.8503 C   0  0  0  0  0  0  0  0  0  0  0  0
    4.9357    1.7720   17.0027 H   0  0  0  0  0  0  0  0  0  0  0  0
    4.8082    1.3064   19.1119 C   0  0  0  0  0  0  0  0  0  0  0  0
    3.8773    1.8406   19.2553 H   0  0  0  0  0  0  0  0  0  0  0  0
    5.4287    0.6550   20.1741 C   0  0  0  0  0  0  0  0  0  0  0  0
    4.9964    0.6393   21.1791 H   0  0  0  0  0  0  0  0  0  0  0  0
    8.5611   -1.3028   20.8281 N   0  0  0  0  0  0  0  0  0  0  0  0
    8.8294   -1.7887   22.0268 C   0  0  0  0  0  0  0  0  0  0  0  0
    9.6932   -2.3535   22.3506 H   0  0  0  0  0  0  0  0  0  0  0  0
    7.6882    0.7202   25.9336 C   0  0  0  0  0  0  0  0  0  0  0  0
    8.4761    0.1081   26.3569 H   0  0  0  0  0  0  0  0  0  0  0  0
    7.6922    2.1088   26.0807 C   0  0  0  0  0  0  0  0  0  0  0  0
    8.4870    2.6128   26.6347 H   0  0  0  0  0  0  0  0  0  0  0  0
    6.6531    2.8320   25.4909 C   0  0  0  0  0  0  0  0  0  0  0  0
    6.5958    3.9114   25.5627 H   0  0  0  0  0  0  0  0  0  0  0  0
  1  2  1  0
  2  3  2  0
  3  4  1  0
  4  5  1  0
  5  6  1  0
  5  7  1  0
  5  8  1  0
  8  9  1  0
  9 10  1  0
 10 11  2  0
 11 12  1  0
 12 13  2  0
 13 14  1  0
 13 15  1  0
 15 16  2  0
 16 17  1  0
 16 18  1  0
 18 19  1  0
 18 20  2  0
 20 21  1  0
 11 22  1  0
 22 23  2  0
 23 24  1  0
  4 25  2  0
 25 26  1  0
 25 27  1  0
 27 28  1  0
 27 29  2  0
 29 30  1  0
 29  2  1  0
 23  9  1  0
 20 12  1  0
M  END
>  <plip>  (1) 
-0.07142857142857142

>  <filename>  (1) 
[H][c]1[n][c]([C]([H])([H])[O][n]2[n][c](-[c]3[c]([H])[n][c]([H])[c]([H])[c]3[H])[n][c]2[H])[c]([H])[c]([H])[c]1[H]

$$$$
