
     RDKit          3D

 37 39  0  0  0  0  0  0  0  0999 V2000
    8.7065   -0.3694   20.9820 O   0  0  0  0  0  0  0  0  0  0  0  0
    7.3059   -0.5052   21.1244 C   0  0  0  0  0  0  0  0  0  0  0  0
    6.9806   -2.0083   21.0359 C   0  0  0  0  0  0  0  0  0  0  0  0
    7.5473   -2.8287   22.0906 N   0  0  0  0  0  0  0  0  0  0  0  0
    7.0298   -3.0984   23.3042 C   0  0  0  0  0  0  0  0  0  0  0  0
    8.0183   -3.7959   23.9579 C   0  0  0  0  0  0  0  0  0  0  0  0
    8.0202   -4.2818   25.3368 C   0  0  0  0  0  0  0  0  0  0  0  0
    9.1470   -4.8509   25.9573 C   0  0  0  0  0  0  0  0  0  0  0  0
    9.0519   -5.3131   27.2726 C   0  0  0  0  0  0  0  0  0  0  0  0
    7.8188   -5.2788   27.9268 C   0  0  0  0  0  0  0  0  0  0  0  0
    7.6872   -5.8341   29.1361 F   0  0  0  0  0  0  0  0  0  0  0  0
    6.7030   -4.6838   27.3433 C   0  0  0  0  0  0  0  0  0  0  0  0
    5.3947   -4.6468   28.0877 C   0  0  0  0  0  0  0  0  0  0  0  0
    4.4716   -3.9375   27.4027 F   0  0  0  0  0  0  0  0  0  0  0  0
    4.8879   -5.8767   28.2822 F   0  0  0  0  0  0  0  0  0  0  0  0
    5.5200   -4.0813   29.2997 F   0  0  0  0  0  0  0  0  0  0  0  0
    6.8302   -4.1428   26.0666 C   0  0  0  0  0  0  0  0  0  0  0  0
    5.9957   -3.5761   25.6578 H   0  0  0  0  0  0  0  0  0  0  0  0
    9.9124   -5.6848   27.8086 H   0  0  0  0  0  0  0  0  0  0  0  0
   10.0878   -4.9425   25.4119 H   0  0  0  0  0  0  0  0  0  0  0  0
    9.0531   -3.9580   23.0831 N   0  0  0  0  0  0  0  0  0  0  0  0
    8.7576   -3.3760   21.9683 N   0  0  0  0  0  0  0  0  0  0  0  0
    6.0141   -2.8545   23.5739 H   0  0  0  0  0  0  0  0  0  0  0  0
    5.8980   -2.1410   21.0336 H   0  0  0  0  0  0  0  0  0  0  0  0
    7.3826   -2.3790   20.0977 H   0  0  0  0  0  0  0  0  0  0  0  0
    6.5863    0.2021   20.0003 C   0  0  0  0  0  0  0  0  0  0  0  0
    5.3337    0.8090   20.1472 C   0  0  0  0  0  0  0  0  0  0  0  0
    4.7383    1.3826   19.0213 C   0  0  0  0  0  0  0  0  0  0  0  0
    5.4075    1.3201   17.7946 C   0  0  0  0  0  0  0  0  0  0  0  0
    6.5881    0.7050   17.6296 N   0  0  0  0  0  0  0  0  0  0  0  0
    7.1481    0.1591   18.7136 C   0  0  0  0  0  0  0  0  0  0  0  0
    8.0905   -0.3648   18.5651 H   0  0  0  0  0  0  0  0  0  0  0  0
    4.9717    1.7738   16.9060 H   0  0  0  0  0  0  0  0  0  0  0  0
    3.7779    1.8803   19.0799 H   0  0  0  0  0  0  0  0  0  0  0  0
    4.8285    0.8274   21.1157 H   0  0  0  0  0  0  0  0  0  0  0  0
    6.9599   -0.1162   22.0998 H   0  0  0  0  0  0  0  0  0  0  0  0
    8.9353    0.5559   21.1121 H   0  0  0  0  0  0  0  0  0  0  0  0
  1  2  1  0
  2  3  1  0
  3  4  1  0
  4  5  1  0
  5  6  2  0
  6  7  1  0
  7  8  2  0
  8  9  1  0
  9 10  2  0
 10 11  1  0
 10 12  1  0
 12 13  1  0
 13 14  1  0
 13 15  1  0
 13 16  1  0
 12 17  2  0
 17 18  1  0
  9 19  1  0
  8 20  1  0
  6 21  1  0
 21 22  2  0
  5 23  1  0
  3 24  1  0
  3 25  1  0
  2 26  1  0
 26 27  2  0
 27 28  1  0
 28 29  2  0
 29 30  1  0
 30 31  2  0
 31 32  1  0
 29 33  1  0
 28 34  1  0
 27 35  1  0
  2 36  1  0
  1 37  1  0
 22  4  1  0
 31 26  1  0
 17  7  1  0
M  END
>  <plip>  (1) 
-0.06896551724137931

>  <filename>  (1) 
[H][O][C]([H])([c]1[c]([H])[n][c]([H])[c]([H])[c]1[H])[C]([H])([H])[n]1[n][n][c](-[c]2[c]([H])[c]([H])[c]([F])[c]([C]([F])([F])[F])[c]2[H])[c]1[H]

$$$$
