
     RDKit          3D

 25 26  0  0  0  0  0  0  0  0999 V2000
    5.0183    1.7345   16.9961 H   0  0  0  0  0  0  0  0  0  0  0  0
    5.5039    1.2444   17.8362 C   0  0  0  0  0  0  0  0  0  0  0  0
    6.6703    0.6343   17.5627 N   0  0  0  0  0  0  0  0  0  0  0  0
    7.3045    0.0402   18.5781 C   0  0  0  0  0  0  0  0  0  0  0  0
    8.2294   -0.4820   18.3602 H   0  0  0  0  0  0  0  0  0  0  0  0
    6.8347    0.0504   19.9072 C   0  0  0  0  0  0  0  0  0  0  0  0
    7.5912   -0.4607   21.0161 N   0  0  0  0  0  0  0  0  0  0  0  0
    8.1589   -1.5442   20.7594 N   0  0  0  0  0  0  0  0  0  0  0  0
    8.9419   -2.0215   21.8700 C   0  0  0  0  0  0  0  0  0  0  0  0
   10.2506   -1.9719   21.6525 N   0  0  0  0  0  0  0  0  0  0  0  0
   11.0592   -2.5303   22.5562 C   0  0  0  0  0  0  0  0  0  0  0  0
   12.1262   -2.5112   22.3324 H   0  0  0  0  0  0  0  0  0  0  0  0
   10.5870   -3.1413   23.7212 C   0  0  0  0  0  0  0  0  0  0  0  0
   11.2818   -3.5971   24.4097 H   0  0  0  0  0  0  0  0  0  0  0  0
    9.2188   -3.1643   23.9704 C   0  0  0  0  0  0  0  0  0  0  0  0
    8.8265   -3.6322   24.8731 H   0  0  0  0  0  0  0  0  0  0  0  0
    8.3664   -2.5893   23.0186 C   0  0  0  0  0  0  0  0  0  0  0  0
    6.8759   -2.5742   23.1898 C   0  0  0  0  0  0  0  0  0  0  0  0
    6.4310   -1.3600   23.5577 F   0  0  0  0  0  0  0  0  0  0  0  0
    6.4799   -3.4439   24.1385 F   0  0  0  0  0  0  0  0  0  0  0  0
    6.2307   -2.9159   22.0627 F   0  0  0  0  0  0  0  0  0  0  0  0
    5.5977    0.6453   20.1706 C   0  0  0  0  0  0  0  0  0  0  0  0
    5.2090    0.6100   21.1913 H   0  0  0  0  0  0  0  0  0  0  0  0
    4.9193    1.2540   19.1113 C   0  0  0  0  0  0  0  0  0  0  0  0
    3.9629    1.7493   19.2587 H   0  0  0  0  0  0  0  0  0  0  0  0
  1  2  1  0
  2  3  2  0
  3  4  1  0
  4  5  1  0
  4  6  2  0
  6  7  1  0
  7  8  2  3
  8  9  1  0
  9 10  2  0
 10 11  1  0
 11 12  1  0
 11 13  2  0
 13 14  1  0
 13 15  1  0
 15 16  1  0
 15 17  2  0
 17 18  1  0
 18 19  1  0
 18 20  1  0
 18 21  1  0
  6 22  1  0
 22 23  1  0
 22 24  2  0
 24 25  1  0
 24  2  1  0
 17  9  1  0
M  END
>  <plip>  (1) 
-0.10344827586206896

>  <filename>  (1) 
[H][c]1[n][c]([H])[c]([N]=[N][c]2[n][c]([H])[c]([H])[c]([H])[c]2[C]([F])([F])[F])[c]([H])[c]1[H]

$$$$
