
     RDKit          3D

 46 48  0  0  0  0  0  0  0  0999 V2000
    7.0965    7.4171   27.8375 C   0  0  0  0  0  0  0  0  0  0  0  0
    7.3891    6.1293   27.1147 C   0  0  0  0  0  0  0  0  0  0  0  0
    7.6025    4.9448   27.8286 C   0  0  0  0  0  0  0  0  0  0  0  0
    7.9728    3.7791   27.1688 C   0  0  0  0  0  0  0  0  0  0  0  0
    8.0999    3.7644   25.7769 C   0  0  0  0  0  0  0  0  0  0  0  0
    8.6270    2.5826   25.1697 N   0  0  0  0  0  0  0  0  0  0  0  0
    9.6382    1.9183   25.7272 N   0  0  0  0  0  0  0  0  0  0  0  0
    9.7994    0.8412   24.9852 C   0  0  0  0  0  0  0  0  0  0  0  0
   10.8112   -0.2131   25.2678 C   0  0  0  0  0  0  0  0  0  0  0  0
   11.2932   -0.0210   26.2271 H   0  0  0  0  0  0  0  0  0  0  0  0
   10.3140   -1.1877   25.2718 H   0  0  0  0  0  0  0  0  0  0  0  0
   11.5630   -0.2407   24.4742 H   0  0  0  0  0  0  0  0  0  0  0  0
    8.8403    0.8781   23.9654 C   0  0  0  0  0  0  0  0  0  0  0  0
    8.6891   -0.1661   22.9275 C   0  0  0  0  0  0  0  0  0  0  0  0
    9.3408   -1.2070   22.9341 O   0  0  0  0  0  0  0  0  0  0  0  0
    7.7892    0.1239   21.9660 N   0  0  0  0  0  0  0  0  0  0  0  0
    7.4364   -0.7937   20.9023 C   0  0  1  0  0  0  0  0  0  0  0  0
    6.6700   -2.0047   21.4392 C   0  0  0  0  0  0  0  0  0  0  0  0
    7.2891   -2.5186   22.1785 H   0  0  0  0  0  0  0  0  0  0  0  0
    6.4302   -2.6957   20.6266 H   0  0  0  0  0  0  0  0  0  0  0  0
    5.7426   -1.6914   21.9255 H   0  0  0  0  0  0  0  0  0  0  0  0
    6.6853   -0.0034   19.8629 C   0  0  0  0  0  0  0  0  0  0  0  0
    5.4773    0.6637   20.1235 C   0  0  0  0  0  0  0  0  0  0  0  0
    4.8383    1.3228   19.0724 C   0  0  0  0  0  0  0  0  0  0  0  0
    5.4422    1.3213   17.8099 C   0  0  0  0  0  0  0  0  0  0  0  0
    6.6105    0.7169   17.5486 N   0  0  0  0  0  0  0  0  0  0  0  0
    7.2041    0.0845   18.5671 C   0  0  0  0  0  0  0  0  0  0  0  0
    8.1598   -0.3926   18.3435 H   0  0  0  0  0  0  0  0  0  0  0  0
    4.9686    1.8232   16.9694 H   0  0  0  0  0  0  0  0  0  0  0  0
    3.9019    1.8506   19.2203 H   0  0  0  0  0  0  0  0  0  0  0  0
    5.0468    0.6774   21.1301 H   0  0  0  0  0  0  0  0  0  0  0  0
    8.3684   -1.1725   20.4589 H   0  0  0  0  0  0  0  0  0  0  0  0
    7.2836    0.9946   22.0576 H   0  0  0  0  0  0  0  0  0  0  0  0
    8.1105    1.9972   24.0997 N   0  0  0  0  0  0  0  0  0  0  0  0
    7.7662    4.9071   25.0117 C   0  0  0  0  0  0  0  0  0  0  0  0
    7.7636    4.8946   23.5025 C   0  0  0  0  0  0  0  0  0  0  0  0
    7.0022    4.2102   23.1105 H   0  0  0  0  0  0  0  0  0  0  0  0
    7.5711    5.8894   23.0875 H   0  0  0  0  0  0  0  0  0  0  0  0
    8.7251    4.5286   23.1256 H   0  0  0  0  0  0  0  0  0  0  0  0
    7.4590    6.0847   25.7130 C   0  0  0  0  0  0  0  0  0  0  0  0
    7.2951    7.0007   25.1418 H   0  0  0  0  0  0  0  0  0  0  0  0
    8.2262    2.8778   27.7200 H   0  0  0  0  0  0  0  0  0  0  0  0
    7.4864    4.9286   28.9090 H   0  0  0  0  0  0  0  0  0  0  0  0
    6.2550    7.9491   27.3783 H   0  0  0  0  0  0  0  0  0  0  0  0
    6.8509    7.2377   28.8889 H   0  0  0  0  0  0  0  0  0  0  0  0
    7.9749    8.0727   27.8113 H   0  0  0  0  0  0  0  0  0  0  0  0
  1  2  1  0
  2  3  2  0
  3  4  1  0
  4  5  2  0
  5  6  1  0
  6  7  1  0
  7  8  2  0
  8  9  1  0
  9 10  1  0
  9 11  1  0
  9 12  1  0
  8 13  1  0
 13 14  1  0
 14 15  2  0
 14 16  1  0
 16 17  1  0
 17 18  1  0
 18 19  1  0
 18 20  1  0
 18 21  1  0
 17 22  1  0
 22 23  2  0
 23 24  1  0
 24 25  2  0
 25 26  1  0
 26 27  2  0
 27 28  1  0
 25 29  1  0
 24 30  1  0
 23 31  1  0
 17 32  1  6
 16 33  1  0
 13 34  2  0
  5 35  1  0
 35 36  1  0
 36 37  1  0
 36 38  1  0
 36 39  1  0
 35 40  2  0
 40 41  1  0
  4 42  1  0
  3 43  1  0
  1 44  1  0
  1 45  1  0
  1 46  1  0
 40  2  1  0
 34  6  1  0
 27 22  1  0
M  END
>  <plip>  (1) 
-0.06666666666666667

>  <filename>  (1) 
[H][c]1[n][c]([H])[c]([C@@]([H])([N]([H])[C](=[O])[c]2[n][n](-[c]3[c]([H])[c]([H])[c]([C]([H])([H])[H])[c]([H])[c]3[C]([H])([H])[H])[n][c]2[C]([H])([H])[H])[C]([H])([H])[H])[c]([H])[c]1[H]

$$$$
