
     RDKit          3D

 40 43  0  0  0  0  0  0  0  0999 V2000
    7.9537    0.6855   24.4329 C   0  0  0  0  0  0  0  0  0  0  0  0
    8.0718   -0.3716   23.3411 C   0  0  0  0  0  0  0  0  0  0  0  0
    8.0653    0.2616   21.9471 C   0  0  0  0  0  0  0  0  0  0  0  0
    7.4555   -0.7966   21.0362 C   0  0  0  0  0  0  0  0  0  0  0  0
    6.6541   -0.1416   19.9346 C   0  0  0  0  0  0  0  0  0  0  0  0
    5.4554    0.5398   20.1771 C   0  0  0  0  0  0  0  0  0  0  0  0
    4.8794    1.2392   19.1156 C   0  0  0  0  0  0  0  0  0  0  0  0
    5.4829    1.2175   17.8540 C   0  0  0  0  0  0  0  0  0  0  0  0
    6.6139    0.5330   17.6107 N   0  0  0  0  0  0  0  0  0  0  0  0
    7.1830   -0.1230   18.6379 C   0  0  0  0  0  0  0  0  0  0  0  0
    8.1213   -0.6381   18.4611 H   0  0  0  0  0  0  0  0  0  0  0  0
    5.0303    1.7934   17.0519 H   0  0  0  0  0  0  0  0  0  0  0  0
    3.9773    1.8225   19.2547 H   0  0  0  0  0  0  0  0  0  0  0  0
    5.0024    0.5525   21.1686 H   0  0  0  0  0  0  0  0  0  0  0  0
    6.6493   -1.5964   21.9464 N   0  0  0  0  0  0  0  0  0  0  0  0
    6.1301   -2.8238   21.5567 C   0  0  0  0  0  0  0  0  0  0  0  0
    6.3022   -3.1808   20.3917 O   0  0  0  0  0  0  0  0  0  0  0  0
    5.2412   -3.6467   22.4186 C   0  0  0  0  0  0  0  0  0  0  0  0
    4.7746   -4.8882   22.0534 C   0  0  0  0  0  0  0  0  0  0  0  0
    5.4155   -5.8983   20.5556 Br  0  0  0  0  0  0  0  0  0  0  0  0
    3.7426   -5.1874   22.9171 N   0  0  0  0  0  0  0  0  0  0  0  0
    2.7830   -6.1585   22.7851 N   0  0  0  0  0  0  0  0  0  0  0  0
    1.7580   -6.0848   23.6143 C   0  0  0  0  0  0  0  0  0  0  0  0
    1.6222   -5.0364   24.6503 C   0  0  0  0  0  0  0  0  0  0  0  0
    2.6152   -4.0858   24.7875 C   0  0  0  0  0  0  0  0  0  0  0  0
    3.6994   -4.1371   23.8252 C   0  0  0  0  0  0  0  0  0  0  0  0
    4.6271   -3.2373   23.6056 N   0  0  0  0  0  0  0  0  0  0  0  0
    2.5732   -3.2741   25.5094 H   0  0  0  0  0  0  0  0  0  0  0  0
    0.7326   -5.0076   25.2744 H   0  0  0  0  0  0  0  0  0  0  0  0
    0.9769   -6.8315   23.5343 H   0  0  0  0  0  0  0  0  0  0  0  0
    6.8586   -1.2870   23.3548 C   0  0  0  0  0  0  0  0  0  0  0  0
    6.0016   -0.7772   23.8047 H   0  0  0  0  0  0  0  0  0  0  0  0
    7.0667   -2.1893   23.9380 H   0  0  0  0  0  0  0  0  0  0  0  0
    8.2490   -1.4237   20.6113 H   0  0  0  0  0  0  0  0  0  0  0  0
    9.0634    0.5649   21.6176 H   0  0  0  0  0  0  0  0  0  0  0  0
    7.4288    1.1516   21.9476 H   0  0  0  0  0  0  0  0  0  0  0  0
    8.9728   -0.9777   23.4859 H   0  0  0  0  0  0  0  0  0  0  0  0
    7.8489    0.2071   25.4104 H   0  0  0  0  0  0  0  0  0  0  0  0
    8.8359    1.3301   24.4471 H   0  0  0  0  0  0  0  0  0  0  0  0
    7.0689    1.3029   24.2486 H   0  0  0  0  0  0  0  0  0  0  0  0
  1  2  1  0
  2  3  1  0
  3  4  1  0
  4  5  1  0
  5  6  2  0
  6  7  1  0
  7  8  2  0
  8  9  1  0
  9 10  2  0
 10 11  1  0
  8 12  1  0
  7 13  1  0
  6 14  1  0
  4 15  1  0
 15 16  1  0
 16 17  2  0
 16 18  1  0
 18 19  2  0
 19 20  1  0
 19 21  1  0
 21 22  1  0
 22 23  2  0
 23 24  1  0
 24 25  2  0
 25 26  1  0
 26 27  2  0
 25 28  1  0
 24 29  1  0
 23 30  1  0
 15 31  1  0
 31 32  1  0
 31 33  1  0
  4 34  1  0
  3 35  1  0
  3 36  1  0
  2 37  1  0
  1 38  1  0
  1 39  1  0
  1 40  1  0
 31  2  1  0
 10  5  1  0
 27 18  1  0
 26 21  1  0
M  END
>  <plip>  (1) 
-0.13793103448275862

>  <filename>  (1) 
[H][c]1[n][c]([H])[c]([C]2([H])[N]([C](=[O])[c]3[n][c]4[c]([H])[c]([H])[c]([H])[n][n]4[c]3[Br])[C]([H])([H])[C]([H])([C]([H])([H])[H])[C]2([H])[H])[c]([H])[c]1[H]

$$$$
