
     RDKit          3D

 31 33  0  0  0  0  0  0  0  0999 V2000
    4.9629    1.8005   16.9831 H   0  0  0  0  0  0  0  0  0  0  0  0
    5.4030    1.2765   17.8315 C   0  0  0  0  0  0  0  0  0  0  0  0
    6.5709    0.6578   17.5943 N   0  0  0  0  0  0  0  0  0  0  0  0
    7.1646    0.0295   18.6137 C   0  0  0  0  0  0  0  0  0  0  0  0
    8.1176   -0.4443   18.3772 H   0  0  0  0  0  0  0  0  0  0  0  0
    6.6469   -0.0135   19.9256 C   0  0  0  0  0  0  0  0  0  0  0  0
    7.3902   -0.6920   21.0246 C   0  0  0  0  0  0  0  0  0  0  0  0
    8.2145   -2.0830   20.8476 S   0  0  0  0  0  0  0  0  0  0  0  0
    7.3906   -0.0485   22.3997 C   0  0  0  0  0  0  0  0  0  0  0  0
    6.3791   -0.0484   22.8155 H   0  0  0  0  0  0  0  0  0  0  0  0
    8.0257   -0.6626   23.0417 H   0  0  0  0  0  0  0  0  0  0  0  0
    7.9118    1.3627   22.3902 C   0  0  0  0  0  0  0  0  0  0  0  0
    7.0424    2.3259   22.5567 N   0  0  0  0  0  0  0  0  0  0  0  0
    7.5000    3.6146   22.5113 C   0  0  0  0  0  0  0  0  0  0  0  0
    6.5244    4.6489   22.5692 C   0  0  0  0  0  0  0  0  0  0  0  0
    5.4951    4.3143   22.6365 H   0  0  0  0  0  0  0  0  0  0  0  0
    6.9083    5.9678   22.5226 C   0  0  0  0  0  0  0  0  0  0  0  0
    6.1679    6.7651   22.5534 H   0  0  0  0  0  0  0  0  0  0  0  0
    8.2897    6.2998   22.4286 C   0  0  0  0  0  0  0  0  0  0  0  0
    8.5860    7.3354   22.3402 H   0  0  0  0  0  0  0  0  0  0  0  0
    9.2524    5.3202   22.3881 C   0  0  0  0  0  0  0  0  0  0  0  0
   10.3070    5.5730   22.2952 H   0  0  0  0  0  0  0  0  0  0  0  0
    8.8816    3.9457   22.3867 C   0  0  0  0  0  0  0  0  0  0  0  0
    9.7965    2.8654   22.2057 C   0  0  0  0  0  0  0  0  0  0  0  0
   10.8508    3.0788   22.0435 H   0  0  0  0  0  0  0  0  0  0  0  0
    9.3110    1.5807   22.2097 C   0  0  0  0  0  0  0  0  0  0  0  0
    9.9390    0.7046   22.1004 H   0  0  0  0  0  0  0  0  0  0  0  0
    5.4171    0.6390   20.1465 C   0  0  0  0  0  0  0  0  0  0  0  0
    4.9713    0.6742   21.1412 H   0  0  0  0  0  0  0  0  0  0  0  0
    4.7860    1.2860   19.0828 C   0  0  0  0  0  0  0  0  0  0  0  0
    3.8566    1.8291   19.2181 H   0  0  0  0  0  0  0  0  0  0  0  0
  1  2  1  0
  2  3  2  0
  3  4  1  0
  4  5  1  0
  4  6  2  0
  6  7  1  0
  7  8  2  0
  7  9  1  0
  9 10  1  0
  9 11  1  0
  9 12  1  0
 12 13  2  0
 13 14  1  0
 14 15  2  0
 15 16  1  0
 15 17  1  0
 17 18  1  0
 17 19  2  0
 19 20  1  0
 19 21  1  0
 21 22  1  0
 21 23  2  0
 23 24  1  0
 24 25  1  0
 24 26  2  0
 26 27  1  0
  6 28  1  0
 28 29  1  0
 28 30  2  0
 30 31  1  0
 30  2  1  0
 26 12  1  0
 23 14  1  0
M  END
>  <plip>  (1) 
-0.03571428571428571

>  <filename>  (1) 
[H][c]1[n][c]([H])[c]([C](=[S])[C]([H])([H])[c]2[n][c]3[c]([H])[c]([H])[c]([H])[c]([H])[c]3[c]([H])[c]2[H])[c]([H])[c]1[H]

$$$$
