
     RDKit          3D

 34 36  0  0  0  0  0  0  0  0999 V2000
    7.6860   -1.9601   20.8526 O   0  0  0  0  0  0  0  0  0  0  0  0
    7.1689   -0.8884   21.1427 C   0  0  0  0  0  0  0  0  0  0  0  0
    7.1519   -0.4333   22.4274 N   0  0  0  0  0  0  0  0  0  0  0  0
    7.5263   -1.2044   23.5122 C   0  0  0  0  0  0  0  0  0  0  0  0
    7.6223   -0.8485   24.7625 N   0  0  0  0  0  0  0  0  0  0  0  0
    7.9247   -2.0078   25.4686 N   0  0  0  0  0  0  0  0  0  0  0  0
    7.9772   -2.9962   24.6106 C   0  0  0  0  0  0  0  0  0  0  0  0
    8.1271   -4.4573   24.9283 C   0  0  0  0  0  0  0  0  0  0  0  0
    6.9571   -4.9940   25.7840 C   0  0  0  0  0  0  0  0  0  0  0  0
    7.2781   -4.4893   27.2054 C   0  0  0  0  0  0  0  0  0  0  0  0
    8.7174   -4.0383   27.1184 N   0  0  0  0  0  4  0  0  0  0  0  0
    9.2995   -4.6489   25.8854 C   0  0  0  0  0  0  0  0  0  0  0  0
    9.5270   -5.7178   26.0126 H   0  0  0  0  0  0  0  0  0  0  0  0
   10.2013   -4.1355   25.5500 H   0  0  0  0  0  0  0  0  0  0  0  0
    9.2581   -4.2084   27.9759 H   0  0  0  0  0  0  0  0  0  0  0  0
    8.6766   -2.9953   26.9315 H   0  0  0  0  0  0  0  0  0  0  0  0
    7.1458   -5.2697   27.9606 H   0  0  0  0  0  0  0  0  0  0  0  0
    6.6416   -3.6426   27.4826 H   0  0  0  0  0  0  0  0  0  0  0  0
    6.9427   -6.0924   25.7531 H   0  0  0  0  0  0  0  0  0  0  0  0
    5.9799   -4.6546   25.4238 H   0  0  0  0  0  0  0  0  0  0  0  0
    8.2424   -4.9771   23.9774 H   0  0  0  0  0  0  0  0  0  0  0  0
    7.7726   -2.5193   23.3629 N   0  0  0  0  0  0  0  0  0  0  0  0
    7.9024   -2.8724   22.4261 H   0  0  0  0  0  0  0  0  0  0  0  0
    6.8582    0.4996   22.6352 H   0  0  0  0  0  0  0  0  0  0  0  0
    6.5565   -0.0259   20.1103 C   0  0  0  0  0  0  0  0  0  0  0  0
    5.3785    0.7220   20.2380 C   0  0  0  0  0  0  0  0  0  0  0  0
    4.9059    1.3837   19.1071 C   0  0  0  0  0  0  0  0  0  0  0  0
    5.6093    1.2812   17.9051 C   0  0  0  0  0  0  0  0  0  0  0  0
    6.7336    0.5637   17.7785 N   0  0  0  0  0  0  0  0  0  0  0  0
    7.1829   -0.0763   18.8592 C   0  0  0  0  0  0  0  0  0  0  0  0
    8.0863   -0.6696   18.7332 H   0  0  0  0  0  0  0  0  0  0  0  0
    5.2597    1.7928   17.0068 H   0  0  0  0  0  0  0  0  0  0  0  0
    4.0006    1.9737   19.1373 H   0  0  0  0  0  0  0  0  0  0  0  0
    4.8103    0.7626   21.1709 H   0  0  0  0  0  0  0  0  0  0  0  0
  1  2  2  0
  2  3  1  0
  3  4  1  0
  4  5  2  0
  5  6  1  0
  6  7  2  0
  7  8  1  0
  8  9  1  0
  9 10  1  0
 10 11  1  0
 11 12  1  0
 12 13  1  0
 12 14  1  0
 11 15  1  0
 11 16  1  0
 10 17  1  0
 10 18  1  0
  9 19  1  0
  9 20  1  0
  8 21  1  0
  7 22  1  0
 22 23  1  0
  3 24  1  0
  2 25  1  0
 25 26  2  0
 26 27  1  0
 27 28  2  0
 28 29  1  0
 29 30  2  0
 30 31  1  0
 28 32  1  0
 27 33  1  0
 26 34  1  0
 22  4  1  0
 30 25  1  0
 12  8  1  0
M  CHG  1  11   1
M  END
>  <plip>  (1) 
-0.07142857142857142

>  <filename>  (1) 
[H][c]1[n][c]([H])[c]([C](=[O])[N]([H])[c]2[n][n][c]([C]3([H])[C]([H])([H])[C]([H])([H])[N+]([H])([H])[C]3([H])[H])[n]2[H])[c]([H])[c]1[H]

$$$$
