
     RDKit          3D

 35 37  0  0  0  0  0  0  0  0999 V2000
    9.1186   -3.0978   22.7986 H   0  0  0  0  0  0  0  0  0  0  0  0
    8.6235   -2.2309   22.3897 C   0  0  0  0  0  0  0  0  0  0  0  0
    8.5567   -1.0784   22.9754 N   0  0  0  0  0  0  0  0  0  0  0  0
    7.8471   -0.1905   22.1882 C   0  0  0  0  0  0  0  0  0  0  0  0
    7.6196    1.2285   22.6252 C   0  0  0  0  0  0  0  0  0  0  0  0
    8.4467    1.5111   23.3006 H   0  0  0  0  0  0  0  0  0  0  0  0
    7.7151    1.8728   21.7396 H   0  0  0  0  0  0  0  0  0  0  0  0
    6.3003    1.4576   23.2407 N   0  0  0  0  0  0  0  0  0  0  0  0
    5.9152    2.8689   23.2218 C   0  0  0  0  0  0  0  0  0  0  0  0
    6.6210    3.4885   23.8137 H   0  0  0  0  0  0  0  0  0  0  0  0
    5.9622    3.2327   22.1866 H   0  0  0  0  0  0  0  0  0  0  0  0
    4.4983    3.0496   23.7631 C   0  0  0  0  0  0  0  0  0  0  0  0
    3.7984    2.5498   23.0821 H   0  0  0  0  0  0  0  0  0  0  0  0
    4.2412    4.1145   23.7575 H   0  0  0  0  0  0  0  0  0  0  0  0
    4.3642    2.4655   25.1735 C   0  0  0  0  0  0  0  0  0  0  0  0
    3.3257    2.5213   25.5181 H   0  0  0  0  0  0  0  0  0  0  0  0
    4.9640    3.0650   25.8733 H   0  0  0  0  0  0  0  0  0  0  0  0
    4.8606    1.0173   25.1978 C   0  0  0  0  0  0  0  0  0  0  0  0
    4.1837    0.3794   24.6208 H   0  0  0  0  0  0  0  0  0  0  0  0
    4.8672    0.6231   26.2206 H   0  0  0  0  0  0  0  0  0  0  0  0
    6.2583    0.9058   24.6004 C   0  0  0  0  0  0  0  0  0  0  0  0
    6.5801   -0.1386   24.5675 H   0  0  0  0  0  0  0  0  0  0  0  0
    6.9805    1.4264   25.2609 H   0  0  0  0  0  0  0  0  0  0  0  0
    7.3947   -0.6899   20.9844 C   0  0  0  0  0  0  0  0  0  0  0  0
    6.6663    0.0057   19.9015 C   0  0  0  0  0  0  0  0  0  0  0  0
    7.1659    0.0559   18.5831 C   0  0  0  0  0  0  0  0  0  0  0  0
    8.1167   -0.4227   18.3628 H   0  0  0  0  0  0  0  0  0  0  0  0
    6.5610    0.6798   17.5693 N   0  0  0  0  0  0  0  0  0  0  0  0
    5.3970    1.2964   17.8376 C   0  0  0  0  0  0  0  0  0  0  0  0
    4.9139    1.7858   16.9957 H   0  0  0  0  0  0  0  0  0  0  0  0
    4.8045    1.3101   19.1039 C   0  0  0  0  0  0  0  0  0  0  0  0
    3.8712    1.8440   19.2561 H   0  0  0  0  0  0  0  0  0  0  0  0
    5.4467    0.6532   20.1561 C   0  0  0  0  0  0  0  0  0  0  0  0
    5.0339    0.6358   21.1695 H   0  0  0  0  0  0  0  0  0  0  0  0
    7.8530   -2.3352   20.8718 S   0  0  0  0  0  0  0  0  0  0  0  0
  1  2  1  0
  2  3  2  0
  3  4  1  0
  4  5  1  0
  5  6  1  0
  5  7  1  0
  5  8  1  0
  8  9  1  0
  9 10  1  0
  9 11  1  0
  9 12  1  0
 12 13  1  0
 12 14  1  0
 12 15  1  0
 15 16  1  0
 15 17  1  0
 15 18  1  0
 18 19  1  0
 18 20  1  0
 18 21  1  0
 21 22  1  0
 21 23  1  0
  4 24  2  0
 24 25  1  0
 25 26  2  0
 26 27  1  0
 26 28  1  0
 28 29  2  0
 29 30  1  0
 29 31  1  0
 31 32  1  0
 31 33  2  0
 33 34  1  0
 24 35  1  0
 35  2  1  0
 21  8  1  0
 33 25  1  0
M  END
>  <plip>  (1) 
-0.07142857142857142

>  <filename>  (1) 
[H][c]1[n][c]([C]([H])([H])[N]2[C]([H])([H])[C]([H])([H])[C]([H])([H])[C]([H])([H])[C]2([H])[H])[c](-[c]2[c]([H])[n][c]([H])[c]([H])[c]2[H])[s]1

$$$$
