
     RDKit          3D

 51 53  0  0  0  0  0  0  0  0999 V2000
    5.6008   -6.3007   19.7212 C   0  0  0  0  0  0  0  0  0  0  0  0
    5.3588   -6.1009   21.2845 C   0  0  0  0  0  0  0  0  0  0  0  0
    5.2004   -6.4212   21.3374 C   0  0  0  0  0  0  0  0  0  0  0  0
    4.4325   -5.0538   21.9668 C   0  0  0  0  0  0  0  0  0  0  0  0
    4.8855   -3.8197   22.2686 C   0  0  0  0  0  0  0  0  0  0  0  0
    6.2620   -3.5701   22.0228 N   0  0  0  0  0  0  0  0  0  0  0  0
    7.2617   -2.8864   22.7017 C   0  0  0  0  0  0  0  0  0  0  0  0
    6.9444   -1.5169   23.1961 C   0  0  0  0  0  0  0  0  0  0  0  0
    6.4072   -0.7878   22.0290 N   0  0  0  0  0  4  0  0  0  0  0  0
    7.4030   -0.2798   21.0397 C   0  0  0  0  0  0  0  0  0  0  0  0
    8.3731    0.7349   21.6422 C   0  0  0  0  0  0  0  0  0  0  0  0
    7.7234    1.9214   22.3493 C   0  0  0  0  0  0  0  0  0  0  0  0
    8.7136    2.6198   23.2519 N   0  0  0  0  0  4  0  0  0  0  0  0
    9.8023    3.3138   22.4855 C   0  0  0  0  0  0  0  0  0  0  0  0
   10.3867    2.6141   21.8838 H   0  0  0  0  0  0  0  0  0  0  0  0
   10.4775    3.8437   23.1648 H   0  0  0  0  0  0  0  0  0  0  0  0
    9.3412    4.0510   21.8181 H   0  0  0  0  0  0  0  0  0  0  0  0
    8.0328    3.6188   24.1224 C   0  0  0  0  0  0  0  0  0  0  0  0
    8.7410    4.0776   24.8185 H   0  0  0  0  0  0  0  0  0  0  0  0
    7.6018    4.4106   23.4950 H   0  0  0  0  0  0  0  0  0  0  0  0
    7.2174    3.1566   24.6873 H   0  0  0  0  0  0  0  0  0  0  0  0
    9.1389    1.8758   23.8501 H   0  0  0  0  0  0  0  0  0  0  0  0
    6.8821    1.6181   22.9859 H   0  0  0  0  0  0  0  0  0  0  0  0
    7.3248    2.6359   21.6161 H   0  0  0  0  0  0  0  0  0  0  0  0
    9.0194    1.0833   20.8333 H   0  0  0  0  0  0  0  0  0  0  0  0
    9.0091    0.2039   22.3587 H   0  0  0  0  0  0  0  0  0  0  0  0
    6.6072    0.2338   19.8695 C   0  0  0  0  0  0  0  0  0  0  0  0
    5.5407    1.1440   19.9711 C   0  0  0  0  0  0  0  0  0  0  0  0
    4.9634    1.6441   18.8020 C   0  0  0  0  0  0  0  0  0  0  0  0
    5.4619    1.2187   17.5682 C   0  0  0  0  0  0  0  0  0  0  0  0
    6.4599    0.3338   17.4454 N   0  0  0  0  0  0  0  0  0  0  0  0
    6.9990   -0.1412   18.5752 C   0  0  0  0  0  0  0  0  0  0  0  0
    7.7986   -0.8700   18.4348 H   0  0  0  0  0  0  0  0  0  0  0  0
    5.0430    1.6044   16.6387 H   0  0  0  0  0  0  0  0  0  0  0  0
    4.1516    2.3644   18.8286 H   0  0  0  0  0  0  0  0  0  0  0  0
    5.1682    1.4777   20.9436 H   0  0  0  0  0  0  0  0  0  0  0  0
    7.9876   -1.1463   20.7027 H   0  0  0  0  0  0  0  0  0  0  0  0
    5.8969   -1.5186   21.4798 H   0  0  0  0  0  0  0  0  0  0  0  0
    5.7185   -0.0544   22.2448 H   0  0  0  0  0  0  0  0  0  0  0  0
    7.8497   -1.0494   23.5870 H   0  0  0  0  0  0  0  0  0  0  0  0
    6.2225   -1.5469   24.0196 H   0  0  0  0  0  0  0  0  0  0  0  0
    8.3835   -3.6376   22.5453 C   0  0  0  0  0  0  0  0  0  0  0  0
    8.1464   -4.8055   21.8149 N   0  0  0  0  0  0  0  0  0  0  0  0
    6.8963   -4.7229   21.5621 C   0  0  0  0  0  0  0  0  0  0  0  0
    9.3804   -3.4095   22.8990 H   0  0  0  0  0  0  0  0  0  0  0  0
    4.2794   -3.0500   22.7096 H   0  0  0  0  0  0  0  0  0  0  0  0
    3.4056   -5.3019   22.2324 H   0  0  0  0  0  0  0  0  0  0  0  0
    4.4464   -7.1728   21.6948 H   0  0  0  0  0  0  0  0  0  0  0  0
    5.0759   -7.0407   19.0299 H   0  0  0  0  0  0  0  0  0  0  0  0
    5.4880   -5.3249   19.1983 H   0  0  0  0  0  0  0  0  0  0  0  0
    6.6758   -6.4868   19.4908 H   0  0  0  0  0  0  0  0  0  0  0  0
  1  2  1  0
  2  3  2  0
  3  4  1  0
  4  5  2  0
  5  6  1  0
  6  7  1  0
  7  8  1  0
  8  9  1  0
  9 10  1  0
 10 11  1  0
 11 12  1  0
 12 13  1  0
 13 14  1  0
 14 15  1  0
 14 16  1  0
 14 17  1  0
 13 18  1  0
 18 19  1  0
 18 20  1  0
 18 21  1  0
 13 22  1  0
 12 23  1  0
 12 24  1  0
 11 25  1  0
 11 26  1  0
 10 27  1  0
 27 28  2  0
 28 29  1  0
 29 30  2  0
 30 31  1  0
 31 32  2  0
 32 33  1  0
 30 34  1  0
 29 35  1  0
 28 36  1  0
 10 37  1  0
  9 38  1  0
  9 39  1  0
  8 40  1  0
  8 41  1  0
  7 42  2  0
 42 43  1  0
 43 44  2  0
 42 45  1  0
  5 46  1  0
  4 47  1  0
  3 48  1  0
  1 49  1  0
  1 50  1  0
  1 51  1  0
 44  2  1  0
 44  6  1  0
 32 27  1  0
M  CHG  2   9   1  13   1
M  END
>  <plip>  (1) 
-0.0967741935483871

>  <filename>  (1) 
[H][c]1[n][c]([H])[c]([C]([H])([C]([H])([H])[C]([H])([H])[N+]([H])([C]([H])([H])[H])[C]([H])([H])[H])[N+]([H])([H])[C]([H])([H])[c]2[c]([H])[n][c]3[c]([C]([H])([H])[H])[c]([H])[c]([H])[c]([H])[n]23)[c]([H])[c]1[H]

$$$$
