
     RDKit          3D

 47 49  0  0  0  0  0  0  0  0999 V2000
    6.0656   -2.9492   19.8529 O   0  0  0  0  0  0  0  0  0  0  0  0
    6.0203   -2.7874   21.0606 C   0  0  0  0  0  0  0  0  0  0  0  0
    5.3230   -3.7956   21.9759 C   0  0  0  0  0  0  0  0  0  0  0  0
    6.1966   -4.9786   22.5201 C   0  0  0  0  0  0  0  0  0  0  0  0
    7.5296   -4.3038   23.5824 S   0  0  0  0  0  0  0  0  0  0  0  0
    6.4566   -3.6860   24.8585 C   0  0  0  0  0  0  0  0  0  0  0  0
    6.6598   -2.4328   25.4483 C   0  0  0  0  0  0  0  0  0  0  0  0
    5.8056   -1.9683   26.4535 C   0  0  0  0  0  0  0  0  0  0  0  0
    4.7335   -2.7626   26.8770 C   0  0  0  0  0  0  0  0  0  0  0  0
    4.5030   -4.0006   26.2746 C   0  0  0  0  0  0  0  0  0  0  0  0
    5.3387   -4.4580   25.2500 C   0  0  0  0  0  0  0  0  0  0  0  0
    5.0129   -5.6436   24.5863 N   0  0  0  0  0  0  0  0  0  0  0  0
    5.3505   -6.0003   23.3117 C   0  0  0  0  0  0  0  0  0  0  0  0
    4.9432   -7.0376   22.8363 O   0  0  0  0  0  0  0  0  0  0  0  0
    4.3240   -6.2611   24.9841 H   0  0  0  0  0  0  0  0  0  0  0  0
    3.6524   -4.6098   26.5664 H   0  0  0  0  0  0  0  0  0  0  0  0
    4.0784   -2.4107   27.6695 H   0  0  0  0  0  0  0  0  0  0  0  0
    5.9814   -0.9933   26.8972 H   0  0  0  0  0  0  0  0  0  0  0  0
    7.4948   -1.8189   25.1184 H   0  0  0  0  0  0  0  0  0  0  0  0
    6.6634   -5.5678   21.7255 H   0  0  0  0  0  0  0  0  0  0  0  0
    4.9030   -3.2646   22.8404 H   0  0  0  0  0  0  0  0  0  0  0  0
    4.4910   -4.2025   21.4093 H   0  0  0  0  0  0  0  0  0  0  0  0
    6.5517   -1.7066   21.6804 N   0  0  0  0  0  0  0  0  0  0  0  0
    7.3837   -0.7371   20.9889 C   0  0  0  0  0  0  0  0  0  0  0  0
    7.9869    0.2416   22.0189 C   0  0  0  0  0  0  0  0  0  0  0  0
    9.0403    1.1991   21.4325 C   0  0  0  0  0  0  0  0  0  0  0  0
    9.6603    2.1522   22.4566 C   0  0  0  0  0  0  0  0  0  0  0  0
   10.6792    2.9512   21.8836 O   0  0  0  0  0  0  0  0  0  0  0  0
   10.2808    3.5781   21.2567 H   0  0  0  0  0  0  0  0  0  0  0  0
   10.1593    1.5742   23.2468 H   0  0  0  0  0  0  0  0  0  0  0  0
    8.8833    2.7712   22.9424 H   0  0  0  0  0  0  0  0  0  0  0  0
    8.5768    1.7818   20.6211 H   0  0  0  0  0  0  0  0  0  0  0  0
    9.8611    0.6221   20.9799 H   0  0  0  0  0  0  0  0  0  0  0  0
    8.4273   -0.3619   22.8279 H   0  0  0  0  0  0  0  0  0  0  0  0
    7.1630    0.8198   22.4681 H   0  0  0  0  0  0  0  0  0  0  0  0
    6.6025   -0.0377   19.8841 C   0  0  0  0  0  0  0  0  0  0  0  0
    5.3921    0.6361   20.1143 C   0  0  0  0  0  0  0  0  0  0  0  0
    4.7934    1.3191   19.0513 C   0  0  0  0  0  0  0  0  0  0  0  0
    5.4184    1.3073   17.7982 C   0  0  0  0  0  0  0  0  0  0  0  0
    6.5622    0.6538   17.5488 N   0  0  0  0  0  0  0  0  0  0  0  0
    7.1161   -0.0008   18.5807 C   0  0  0  0  0  0  0  0  0  0  0  0
    8.0535   -0.5160   18.3632 H   0  0  0  0  0  0  0  0  0  0  0  0
    4.9845    1.8483   16.9582 H   0  0  0  0  0  0  0  0  0  0  0  0
    3.8699    1.8749   19.1805 H   0  0  0  0  0  0  0  0  0  0  0  0
    4.9337    0.6442   21.1068 H   0  0  0  0  0  0  0  0  0  0  0  0
    8.2053   -1.2859   20.4998 H   0  0  0  0  0  0  0  0  0  0  0  0
    6.3856   -1.5979   22.6682 H   0  0  0  0  0  0  0  0  0  0  0  0
  1  2  2  0
  2  3  1  0
  3  4  1  0
  4  5  1  0
  5  6  1  0
  6  7  2  0
  7  8  1  0
  8  9  2  0
  9 10  1  0
 10 11  2  0
 11 12  1  0
 12 13  1  0
 13 14  2  0
 12 15  1  0
 10 16  1  0
  9 17  1  0
  8 18  1  0
  7 19  1  0
  4 20  1  0
  3 21  1  0
  3 22  1  0
  2 23  1  0
 23 24  1  0
 24 25  1  0
 25 26  1  0
 26 27  1  0
 27 28  1  0
 28 29  1  0
 27 30  1  0
 27 31  1  0
 26 32  1  0
 26 33  1  0
 25 34  1  0
 25 35  1  0
 24 36  1  0
 36 37  2  0
 37 38  1  0
 38 39  2  0
 39 40  1  0
 40 41  2  0
 41 42  1  0
 39 43  1  0
 38 44  1  0
 37 45  1  0
 24 46  1  0
 23 47  1  0
 13  4  1  0
 41 36  1  0
 11  6  1  0
M  END
>  <plip>  (1) 
-0.23333333333333334

>  <filename>  (1) 
[H][O][C]([H])([H])[C]([H])([H])[C]([H])([H])[C]([H])([c]1[c]([H])[n][c]([H])[c]([H])[c]1[H])[N]([H])[C](=[O])[C]([H])([H])[C]1([H])[S][c]2[c]([H])[c]([H])[c]([H])[c]([H])[c]2[N]([H])[C]1=[O]

$$$$
