
     RDKit          3D

 29 30  0  0  0  0  0  0  0  0999 V2000
   10.0830   -2.4274   21.5170 H   0  0  0  0  0  0  0  0  0  0  0  0
    9.1305   -1.9356   21.7306 C   0  0  0  0  0  0  0  0  0  0  0  0
    8.6778   -2.0323   22.9746 N   0  0  0  0  0  0  0  0  0  0  0  0
    7.5324   -1.3882   23.1655 C   0  0  0  0  0  0  0  0  0  0  0  0
    6.9866   -1.3925   24.3726 O   0  0  0  0  0  0  0  0  0  0  0  0
    7.5666   -2.1067   25.4915 C   0  0  0  0  0  0  0  0  0  0  0  0
    7.0523   -1.6396   26.3329 H   0  0  0  0  0  0  0  0  0  0  0  0
    8.6478   -1.9258   25.5724 H   0  0  0  0  0  0  0  0  0  0  0  0
    7.2468   -3.6004   25.4178 C   0  0  0  0  0  0  0  0  0  0  0  0
    7.6897   -4.0155   24.4969 H   0  0  0  0  0  0  0  0  0  0  0  0
    6.1509   -3.7185   25.3560 H   0  0  0  0  0  0  0  0  0  0  0  0
    7.7524   -4.2503   26.5654 O   0  0  0  0  0  0  0  0  0  0  0  0
    7.5200   -5.6424   26.5326 C   0  0  0  0  0  0  0  0  0  0  0  0
    7.9501   -6.0828   27.4344 H   0  0  0  0  0  0  0  0  0  0  0  0
    7.9914   -6.1106   25.6558 H   0  0  0  0  0  0  0  0  0  0  0  0
    6.4450   -5.8781   26.5026 H   0  0  0  0  0  0  0  0  0  0  0  0
    6.8391   -0.7183   22.2612 N   0  0  0  0  0  0  0  0  0  0  0  0
    7.3789   -0.7181   21.0568 C   0  0  0  0  0  0  0  0  0  0  0  0
    6.6572   -0.0145   19.9841 C   0  0  0  0  0  0  0  0  0  0  0  0
    7.1919    0.0189   18.6844 C   0  0  0  0  0  0  0  0  0  0  0  0
    8.1398   -0.4561   18.4373 H   0  0  0  0  0  0  0  0  0  0  0  0
    6.6004    0.6285   17.6534 N   0  0  0  0  0  0  0  0  0  0  0  0
    5.4397    1.2550   17.8850 C   0  0  0  0  0  0  0  0  0  0  0  0
    4.9874    1.7519   17.0303 H   0  0  0  0  0  0  0  0  0  0  0  0
    4.8222    1.2879   19.1381 C   0  0  0  0  0  0  0  0  0  0  0  0
    3.8900    1.8269   19.2620 H   0  0  0  0  0  0  0  0  0  0  0  0
    5.4324    0.6424   20.2099 C   0  0  0  0  0  0  0  0  0  0  0  0
    4.9769    0.6485   21.2029 H   0  0  0  0  0  0  0  0  0  0  0  0
    8.5339   -1.3107   20.7312 N   0  0  0  0  0  0  0  0  0  0  0  0
  1  2  1  0
  2  3  2  0
  3  4  1  0
  4  5  1  0
  5  6  1  0
  6  7  1  0
  6  8  1  0
  6  9  1  0
  9 10  1  0
  9 11  1  0
  9 12  1  0
 12 13  1  0
 13 14  1  0
 13 15  1  0
 13 16  1  0
  4 17  2  0
 17 18  1  0
 18 19  1  0
 19 20  2  0
 20 21  1  0
 20 22  1  0
 22 23  2  0
 23 24  1  0
 23 25  1  0
 25 26  1  0
 25 27  2  0
 27 28  1  0
 18 29  2  0
 29  2  1  0
 27 19  1  0
M  END
>  <plip>  (1) 
-0.0

>  <filename>  (1) 
[H][c]1[n][c]([O][C]([H])([H])[C]([H])([H])[O][C]([H])([H])[H])[n][c](-[c]2[c]([H])[n][c]([H])[c]([H])[c]2[H])[n]1

$$$$
