
     RDKit          3D

 42 44  0  0  0  0  0  0  0  0999 V2000
    5.1960   -3.5213   22.3231 C   0  0  0  0  0  0  0  0  0  0  0  0
    5.7766   -2.2505   22.0039 O   0  0  0  0  0  0  0  0  0  0  0  0
    6.9424   -2.2277   21.3519 C   0  0  0  0  0  0  0  0  0  0  0  0
    7.5875   -3.2161   21.0909 O   0  0  0  0  0  0  0  0  0  0  0  0
    7.4267   -0.7812   20.9917 C   0  0  0  0  0  0  0  0  0  0  0  0
    7.5195   -0.0122   22.2059 O   0  0  0  0  0  0  0  0  0  0  0  0
    8.2097    1.1548   22.1694 C   0  0  0  0  0  0  0  0  0  0  0  0
    8.8267    1.5371   21.2006 O   0  0  0  0  0  0  0  0  0  0  0  0
    8.0798    1.8404   23.4722 C   0  0  0  0  0  0  0  0  0  0  0  0
    8.6511    3.0331   23.7092 C   0  0  0  0  0  0  0  0  0  0  0  0
    8.5336    3.8118   24.9509 C   0  0  0  0  0  0  0  0  0  0  0  0
    7.9461    3.2824   26.1176 C   0  0  0  0  0  0  0  0  0  0  0  0
    7.8230    4.0320   27.2876 C   0  0  0  0  0  0  0  0  0  0  0  0
    8.3090    5.3354   27.2688 C   0  0  0  0  0  0  0  0  0  0  0  0
    8.2787    6.1741   28.3320 O   0  0  0  0  0  0  0  0  0  0  0  0
    8.9208    7.4080   27.9525 C   0  0  0  0  0  0  0  0  0  0  0  0
    9.2663    7.3252   26.4450 C   0  0  0  0  0  0  0  0  0  0  0  0
    8.8938    5.8994   26.1309 C   0  0  0  0  0  0  0  0  0  0  0  0
    9.0014    5.1464   24.9723 C   0  0  0  0  0  0  0  0  0  0  0  0
    9.4213    5.5778   24.0656 H   0  0  0  0  0  0  0  0  0  0  0  0
   10.3221    7.5442   26.2586 H   0  0  0  0  0  0  0  0  0  0  0  0
    8.6864    8.0422   25.8524 H   0  0  0  0  0  0  0  0  0  0  0  0
    8.2209    8.2129   28.1950 H   0  0  0  0  0  0  0  0  0  0  0  0
    9.8157    7.5165   28.5740 H   0  0  0  0  0  0  0  0  0  0  0  0
    7.3964    3.6168   28.1941 H   0  0  0  0  0  0  0  0  0  0  0  0
    7.5686    2.2630   26.1169 H   0  0  0  0  0  0  0  0  0  0  0  0
    9.2401    3.4846   22.9036 H   0  0  0  0  0  0  0  0  0  0  0  0
    7.4736    1.3217   24.2085 H   0  0  0  0  0  0  0  0  0  0  0  0
    6.6561   -0.0241   19.9150 C   0  0  0  0  0  0  0  0  0  0  0  0
    5.4548    0.6619   20.1403 C   0  0  0  0  0  0  0  0  0  0  0  0
    4.8496    1.3164   19.0596 C   0  0  0  0  0  0  0  0  0  0  0  0
    5.4792    1.2865   17.8101 C   0  0  0  0  0  0  0  0  0  0  0  0
    6.6414    0.6569   17.5868 N   0  0  0  0  0  0  0  0  0  0  0  0
    7.2154    0.0500   18.6312 C   0  0  0  0  0  0  0  0  0  0  0  0
    8.1831   -0.4191   18.4334 H   0  0  0  0  0  0  0  0  0  0  0  0
    5.0421    1.7858   16.9441 H   0  0  0  0  0  0  0  0  0  0  0  0
    3.9205    1.8648   19.1679 H   0  0  0  0  0  0  0  0  0  0  0  0
    5.0240    0.7031   21.1429 H   0  0  0  0  0  0  0  0  0  0  0  0
    8.4334   -0.9706   20.6066 H   0  0  0  0  0  0  0  0  0  0  0  0
    4.4378   -3.3261   23.0811 H   0  0  0  0  0  0  0  0  0  0  0  0
    5.9329   -4.2361   22.6963 H   0  0  0  0  0  0  0  0  0  0  0  0
    4.7291   -3.9479   21.4348 H   0  0  0  0  0  0  0  0  0  0  0  0
  1  2  1  0
  2  3  1  0
  3  4  2  0
  3  5  1  0
  5  6  1  0
  6  7  1  0
  7  8  2  0
  7  9  1  0
  9 10  2  3
 10 11  1  0
 11 12  2  0
 12 13  1  0
 13 14  2  0
 14 15  1  0
 15 16  1  0
 16 17  1  0
 17 18  1  0
 18 19  2  0
 19 20  1  0
 17 21  1  0
 17 22  1  0
 16 23  1  0
 16 24  1  0
 13 25  1  0
 12 26  1  0
 10 27  1  0
  9 28  1  0
  5 29  1  0
 29 30  2  0
 30 31  1  0
 31 32  2  0
 32 33  1  0
 33 34  2  0
 34 35  1  0
 32 36  1  0
 31 37  1  0
 30 38  1  0
  5 39  1  0
  1 40  1  0
  1 41  1  0
  1 42  1  0
 19 11  1  0
 34 29  1  0
 18 14  1  0
M  END
>  <plip>  (1) 
-0.14285714285714285

>  <filename>  (1) 
[H][C]([C](=[O])[O][C]([H])([C](=[O])[O][C]([H])([H])[H])[c]1[c]([H])[n][c]([H])[c]([H])[c]1[H])=[C]([H])[c]1[c]([H])[c]([H])[c]2[c]([c]1[H])[C]([H])([H])[C]([H])([H])[O]2

$$$$
