
     RDKit          3D

 44 44  0  0  0  0  0  0  0  0999 V2000
    9.0510   -6.3887   26.2055 C   0  0  0  0  0  0  0  0  0  0  0  0
    8.1580   -5.5087   25.3342 C   0  0  0  0  0  0  0  0  0  0  0  0
    7.8099   -4.1541   25.9760 C   0  0  0  0  0  0  0  0  0  0  0  0
    9.0383   -3.2876   26.2701 C   0  0  0  0  0  0  0  0  0  0  0  0
    8.7253   -1.7345   27.1443 S   0  0  0  0  0  0  0  0  0  0  0  0
    8.0070   -0.7078   25.8311 C   0  0  0  0  0  0  0  0  0  0  0  0
    8.9257   -0.3327   24.6846 C   0  0  0  0  0  0  0  0  0  0  0  0
    9.6247    0.6675   24.7185 O   0  0  0  0  0  0  0  0  0  0  0  0
    8.8708   -1.1549   23.5998 N   0  0  0  0  0  0  0  0  0  0  0  0
    9.4994   -0.8272   22.3297 C   0  0  0  0  0  0  0  0  0  0  0  0
    8.6380    0.0487   21.4009 C   0  0  0  0  0  0  0  0  0  0  0  0
    8.3277    1.4038   22.0407 C   0  0  0  0  0  0  0  0  0  0  0  0
    7.9808    2.3059   21.0097 O   0  0  0  0  0  0  0  0  0  0  0  0
    7.6414    3.1157   21.4146 H   0  0  0  0  0  0  0  0  0  0  0  0
    7.5118    1.2830   22.7718 H   0  0  0  0  0  0  0  0  0  0  0  0
    9.2000    1.7591   22.6078 H   0  0  0  0  0  0  0  0  0  0  0  0
    7.3673   -0.7016   20.9301 C   0  0  0  0  0  0  0  0  0  0  0  0
    6.6303   -0.0199   19.7990 C   0  0  0  0  0  0  0  0  0  0  0  0
    5.3864    0.6053   19.9767 C   0  0  0  0  0  0  0  0  0  0  0  0
    4.8016    1.2832   18.9028 C   0  0  0  0  0  0  0  0  0  0  0  0
    5.4790    1.2984   17.6797 C   0  0  0  0  0  0  0  0  0  0  0  0
    6.6615    0.6967   17.4739 N   0  0  0  0  0  0  0  0  0  0  0  0
    7.2163    0.0783   18.5254 C   0  0  0  0  0  0  0  0  0  0  0  0
    8.1983   -0.3698   18.3481 H   0  0  0  0  0  0  0  0  0  0  0  0
    5.0648    1.8255   16.8227 H   0  0  0  0  0  0  0  0  0  0  0  0
    3.8561    1.8140   19.0044 H   0  0  0  0  0  0  0  0  0  0  0  0
    4.9088    0.5893   20.9606 H   0  0  0  0  0  0  0  0  0  0  0  0
    6.6896   -0.8370   21.7847 H   0  0  0  0  0  0  0  0  0  0  0  0
    7.6535   -1.7154   20.6146 H   0  0  0  0  0  0  0  0  0  0  0  0
    9.2470    0.2741   20.5166 H   0  0  0  0  0  0  0  0  0  0  0  0
   10.4291   -0.2985   22.5509 H   0  0  0  0  0  0  0  0  0  0  0  0
    9.7794   -1.7565   21.8201 H   0  0  0  0  0  0  0  0  0  0  0  0
    8.3638   -2.0173   23.6962 H   0  0  0  0  0  0  0  0  0  0  0  0
    7.0950   -1.1686   25.4453 H   0  0  0  0  0  0  0  0  0  0  0  0
    7.7284    0.2254   26.3204 H   0  0  0  0  0  0  0  0  0  0  0  0
    9.5791   -3.0569   25.3469 H   0  0  0  0  0  0  0  0  0  0  0  0
    9.7300   -3.8164   26.9321 H   0  0  0  0  0  0  0  0  0  0  0  0
    7.1180   -3.6013   25.3234 H   0  0  0  0  0  0  0  0  0  0  0  0
    7.2596   -4.3075   26.9169 H   0  0  0  0  0  0  0  0  0  0  0  0
    7.2194   -6.0423   25.1347 H   0  0  0  0  0  0  0  0  0  0  0  0
    8.6464   -5.3553   24.3591 H   0  0  0  0  0  0  0  0  0  0  0  0
    8.5330   -6.6851   27.1249 H   0  0  0  0  0  0  0  0  0  0  0  0
    9.3641   -7.2921   25.6804 H   0  0  0  0  0  0  0  0  0  0  0  0
    9.9728   -5.8794   26.5017 H   0  0  0  0  0  0  0  0  0  0  0  0
  1  2  1  0
  2  3  1  0
  3  4  1  0
  4  5  1  0
  5  6  1  0
  6  7  1  0
  7  8  2  0
  7  9  1  0
  9 10  1  0
 10 11  1  0
 11 12  1  0
 12 13  1  0
 13 14  1  0
 12 15  1  0
 12 16  1  0
 11 17  1  0
 17 18  1  0
 18 19  2  0
 19 20  1  0
 20 21  2  0
 21 22  1  0
 22 23  2  0
 23 24  1  0
 21 25  1  0
 20 26  1  0
 19 27  1  0
 17 28  1  0
 17 29  1  0
 11 30  1  0
 10 31  1  0
 10 32  1  0
  9 33  1  0
  6 34  1  0
  6 35  1  0
  4 36  1  0
  4 37  1  0
  3 38  1  0
  3 39  1  0
  2 40  1  0
  2 41  1  0
  1 42  1  0
  1 43  1  0
  1 44  1  0
 23 18  1  0
M  END
>  <plip>  (1) 
-0.07142857142857142

>  <filename>  (1) 
[H][O][C]([H])([H])[C]([H])([C]([H])([H])[c]1[c]([H])[n][c]([H])[c]([H])[c]1[H])[C]([H])([H])[N]([H])[C](=[O])[C]([H])([H])[S][C]([H])([H])[C]([H])([H])[C]([H])([H])[C]([H])([H])[H]

$$$$
