
     RDKit          3D

 34 36  0  0  0  0  0  0  0  0999 V2000
    5.6670   -6.7952   18.5505 Cl  0  0  0  0  0  0  0  0  0  0  0  0
    5.7467   -6.0132   20.1103 C   0  0  0  0  0  0  0  0  0  0  0  0
    5.8057   -6.7439   21.3130 C   0  0  0  0  0  0  0  0  0  0  0  0
    5.8993   -6.1005   22.5422 C   0  0  0  0  0  0  0  0  0  0  0  0
    5.9431   -4.7114   22.5881 C   0  0  0  0  0  0  0  0  0  0  0  0
    5.8728   -3.9737   21.4008 C   0  0  0  0  0  0  0  0  0  0  0  0
    5.9086   -2.4954   21.4100 C   0  0  0  0  0  0  0  0  0  0  0  0
    7.2605   -2.1330   20.9855 N   0  0  0  0  0  4  0  0  0  0  0  0
    7.4215   -0.7107   20.9645 C   0  0  0  0  0  0  0  0  0  0  0  0
    6.6618   -0.0129   19.9013 C   0  0  0  0  0  0  0  0  0  0  0  0
    5.4493    0.6326   20.1599 C   0  0  0  0  0  0  0  0  0  0  0  0
    4.8291    1.2917   19.0983 C   0  0  0  0  0  0  0  0  0  0  0  0
    5.4220    1.2789   17.8295 C   0  0  0  0  0  0  0  0  0  0  0  0
    6.5719    0.6229   17.5805 N   0  0  0  0  0  0  0  0  0  0  0  0
    7.1771   -0.0050   18.6032 C   0  0  0  0  0  0  0  0  0  0  0  0
    8.1153   -0.5167   18.4072 H   0  0  0  0  0  0  0  0  0  0  0  0
    4.9374    1.8281   17.0252 H   0  0  0  0  0  0  0  0  0  0  0  0
    3.9002    1.8340   19.2427 H   0  0  0  0  0  0  0  0  0  0  0  0
    5.0076    0.6305   21.1567 H   0  0  0  0  0  0  0  0  0  0  0  0
    7.6164   -0.0699   22.3140 C   0  0  0  0  0  0  0  0  0  0  0  0
    8.7900   -0.2178   21.3468 C   0  0  0  0  0  0  0  0  0  0  0  0
    9.5374   -0.9856   21.5476 H   0  0  0  0  0  0  0  0  0  0  0  0
    9.1520    0.6578   20.8100 H   0  0  0  0  0  0  0  0  0  0  0  0
    7.5689   -0.7377   23.1754 H   0  0  0  0  0  0  0  0  0  0  0  0
    7.1580    0.9092   22.4548 H   0  0  0  0  0  0  0  0  0  0  0  0
    7.9409   -2.5431   21.6201 H   0  0  0  0  0  0  0  0  0  0  0  0
    7.4218   -2.4877   20.0422 H   0  0  0  0  0  0  0  0  0  0  0  0
    5.6419   -2.1116   22.4017 H   0  0  0  0  0  0  0  0  0  0  0  0
    5.1734   -2.1242   20.6904 H   0  0  0  0  0  0  0  0  0  0  0  0
    5.7470   -4.6173   20.1697 C   0  0  0  0  0  0  0  0  0  0  0  0
    5.5454   -3.5220   18.6064 Br  0  0  0  0  0  0  0  0  0  0  0  0
    6.0310   -4.2128   23.5493 H   0  0  0  0  0  0  0  0  0  0  0  0
    5.9265   -6.6827   23.4613 H   0  0  0  0  0  0  0  0  0  0  0  0
    5.7834   -7.8223   21.3446 H   0  0  0  0  0  0  0  0  0  0  0  0
  1  2  1  0
  2  3  2  0
  3  4  1  0
  4  5  2  0
  5  6  1  0
  6  7  1  0
  7  8  1  0
  8  9  1  0
  9 10  1  0
 10 11  2  0
 11 12  1  0
 12 13  2  0
 13 14  1  0
 14 15  2  0
 15 16  1  0
 13 17  1  0
 12 18  1  0
 11 19  1  0
  9 20  1  0
 20 21  1  0
 21 22  1  0
 21 23  1  0
 20 24  1  0
 20 25  1  0
  8 26  1  0
  8 27  1  0
  7 28  1  0
  7 29  1  0
  6 30  2  0
 30 31  1  0
  5 32  1  0
  4 33  1  0
  3 34  1  0
 30  2  1  0
 21  9  1  0
 15 10  1  0
M  CHG  1   8   1
M  END
>  <plip>  (1) 
-0.0625

>  <filename>  (1) 
[H][c]1[n][c]([H])[c]([C]2([N+]([H])([H])[C]([H])([H])[c]3[c]([H])[c]([H])[c]([H])[c]([Cl])[c]3[Br])[C]([H])([H])[C]2([H])[H])[c]([H])[c]1[H]

$$$$
