
     RDKit          3D

 29 30  0  0  0  0  0  0  0  0999 V2000
    7.5662   -3.6143   21.5968 C   0  0  0  0  0  0  0  0  0  0  0  0
    7.8917   -3.0319   22.9060 N   0  0  0  0  0  0  0  0  0  0  0  0
    7.8143   -1.6673   23.1127 C   0  0  0  0  0  0  0  0  0  0  0  0
    8.3495   -1.1220   24.0748 O   0  0  0  0  0  0  0  0  0  0  0  0
    6.9514   -0.8220   22.1689 C   0  0  0  0  0  0  0  0  0  0  0  0
    7.4507   -0.7854   20.8251 O   0  0  0  0  0  0  0  0  0  0  0  0
    6.7234   -0.0754   19.9050 C   0  0  0  0  0  0  0  0  0  0  0  0
    5.5154    0.5896   20.1665 C   0  0  0  0  0  0  0  0  0  0  0  0
    4.8770    1.2700   19.1201 C   0  0  0  0  0  0  0  0  0  0  0  0
    5.4634    1.2737   17.8543 C   0  0  0  0  0  0  0  0  0  0  0  0
    6.6168    0.6344   17.5860 N   0  0  0  0  0  0  0  0  0  0  0  0
    7.2245   -0.0170   18.5852 C   0  0  0  0  0  0  0  0  0  0  0  0
    8.1561   -0.5226   18.3384 H   0  0  0  0  0  0  0  0  0  0  0  0
    4.9955    1.8039   17.0254 H   0  0  0  0  0  0  0  0  0  0  0  0
    3.9424    1.7998   19.2912 H   0  0  0  0  0  0  0  0  0  0  0  0
    5.0884    0.5731   21.1663 H   0  0  0  0  0  0  0  0  0  0  0  0
    6.9279    0.1834   22.6054 H   0  0  0  0  0  0  0  0  0  0  0  0
    5.9393   -1.2432   22.1749 H   0  0  0  0  0  0  0  0  0  0  0  0
    8.5470   -3.8398   23.8447 C   0  0  0  0  0  0  0  0  0  0  0  0
    8.9830   -5.0440   23.5928 N   0  0  0  0  0  0  0  0  0  0  0  0
    9.5722   -5.4563   24.7655 C   0  0  0  0  0  0  0  0  0  0  0  0
    9.4550   -4.4997   25.7298 C   0  0  0  0  0  0  0  0  0  0  0  0
    8.7717   -3.4549   25.1261 N   0  0  0  0  0  0  0  0  0  0  0  0
    8.7493   -2.4561   25.3019 H   0  0  0  0  0  0  0  0  0  0  0  0
    9.7937   -4.4836   26.7580 H   0  0  0  0  0  0  0  0  0  0  0  0
   10.0892   -6.4069   24.8427 H   0  0  0  0  0  0  0  0  0  0  0  0
    8.3101   -3.3245   20.8512 H   0  0  0  0  0  0  0  0  0  0  0  0
    6.5926   -3.2579   21.2535 H   0  0  0  0  0  0  0  0  0  0  0  0
    7.5497   -4.7015   21.6861 H   0  0  0  0  0  0  0  0  0  0  0  0
  1  2  1  0
  2  3  1  0
  3  4  2  0
  3  5  1  0
  5  6  1  0
  6  7  1  0
  7  8  2  0
  8  9  1  0
  9 10  2  0
 10 11  1  0
 11 12  2  0
 12 13  1  0
 10 14  1  0
  9 15  1  0
  8 16  1  0
  5 17  1  0
  5 18  1  0
  2 19  1  0
 19 20  2  0
 20 21  1  0
 21 22  2  0
 22 23  1  0
 23 24  1  0
 22 25  1  0
 21 26  1  0
  1 27  1  0
  1 28  1  0
  1 29  1  0
 12  7  1  0
 23 19  1  0
M  END
>  <plip>  (1) 
-0.03571428571428571

>  <filename>  (1) 
[H][c]1[n][c]([H])[c]([O][C]([H])([H])[C](=[O])[N]([c]2[n][c]([H])[c]([H])[n]2[H])[C]([H])([H])[H])[c]([H])[c]1[H]

$$$$
