
     RDKit          3D

 34 36  0  0  0  0  0  0  0  0999 V2000
   11.3182    2.2620   21.3504 C   0  0  0  0  0  0  0  0  0  0  0  0
   10.1180    1.4750   21.7617 C   0  0  0  0  0  0  0  0  0  0  0  0
    9.3244    0.8584   20.8961 N   0  0  0  0  0  0  0  0  0  0  0  0
    8.3970    0.2269   21.6456 N   0  0  0  0  0  0  0  0  0  0  0  0
    7.4451   -0.6670   20.9825 C   0  0  0  0  0  0  0  0  0  0  0  0
    6.6438   -0.0006   19.8888 C   0  0  0  0  0  0  0  0  0  0  0  0
    5.4310    0.6450   20.1477 C   0  0  0  0  0  0  0  0  0  0  0  0
    4.7994    1.3141   19.0958 C   0  0  0  0  0  0  0  0  0  0  0  0
    5.3930    1.2983   17.8279 C   0  0  0  0  0  0  0  0  0  0  0  0
    6.5492    0.6761   17.5562 N   0  0  0  0  0  0  0  0  0  0  0  0
    7.1498    0.0565   18.5777 C   0  0  0  0  0  0  0  0  0  0  0  0
    8.1136   -0.4025   18.3670 H   0  0  0  0  0  0  0  0  0  0  0  0
    4.9185    1.7952   16.9849 H   0  0  0  0  0  0  0  0  0  0  0  0
    3.8702    1.8483   19.2480 H   0  0  0  0  0  0  0  0  0  0  0  0
    4.9968    0.6382   21.1558 H   0  0  0  0  0  0  0  0  0  0  0  0
    8.0100   -1.5203   20.5892 H   0  0  0  0  0  0  0  0  0  0  0  0
    6.7798   -1.0499   21.7578 H   0  0  0  0  0  0  0  0  0  0  0  0
    8.6068    0.4183   22.9805 C   0  0  0  0  0  0  0  0  0  0  0  0
    7.7888   -0.1498   24.0624 C   0  0  0  0  0  0  0  0  0  0  0  0
    8.4405   -0.8578   25.0803 C   0  0  0  0  0  0  0  0  0  0  0  0
    7.7137   -1.3879   26.1461 C   0  0  0  0  0  0  0  0  0  0  0  0
    6.3303   -1.1972   26.2124 C   0  0  0  0  0  0  0  0  0  0  0  0
    5.6907   -0.4662   25.2094 C   0  0  0  0  0  0  0  0  0  0  0  0
    3.9772   -0.1911   25.3381 Cl  0  0  0  0  0  0  0  0  0  0  0  0
    6.4023    0.0528   24.1270 C   0  0  0  0  0  0  0  0  0  0  0  0
    5.8992    0.6358   23.3612 H   0  0  0  0  0  0  0  0  0  0  0  0
    5.7419   -1.5964   27.0325 H   0  0  0  0  0  0  0  0  0  0  0  0
    8.2305   -1.9316   26.9304 H   0  0  0  0  0  0  0  0  0  0  0  0
    9.5184   -0.9818   25.0123 H   0  0  0  0  0  0  0  0  0  0  0  0
    9.7174    1.2183   23.0820 C   0  0  0  0  0  0  0  0  0  0  0  0
   10.1717    1.5650   23.9976 H   0  0  0  0  0  0  0  0  0  0  0  0
   11.2220    2.6951   20.3553 H   0  0  0  0  0  0  0  0  0  0  0  0
   12.2068    1.6249   21.3687 H   0  0  0  0  0  0  0  0  0  0  0  0
   11.5033    3.0665   22.0658 H   0  0  0  0  0  0  0  0  0  0  0  0
  1  2  1  0
  2  3  2  0
  3  4  1  0
  4  5  1  0
  5  6  1  0
  6  7  2  0
  7  8  1  0
  8  9  2  0
  9 10  1  0
 10 11  2  0
 11 12  1  0
  9 13  1  0
  8 14  1  0
  7 15  1  0
  5 16  1  0
  5 17  1  0
  4 18  1  0
 18 19  1  0
 19 20  2  0
 20 21  1  0
 21 22  2  0
 22 23  1  0
 23 24  1  0
 23 25  2  0
 25 26  1  0
 22 27  1  0
 21 28  1  0
 20 29  1  0
 18 30  2  0
 30 31  1  0
  1 32  1  0
  1 33  1  0
  1 34  1  0
 30  2  1  0
 11  6  1  0
 25 19  1  0
M  END
>  <plip>  (1) 
-0.10714285714285714

>  <filename>  (1) 
[H][c]1[n][c]([H])[c]([C]([H])([H])[n]2[n][c]([C]([H])([H])[H])[c]([H])[c]2-[c]2[c]([H])[c]([H])[c]([H])[c]([Cl])[c]2[H])[c]([H])[c]1[H]

$$$$
