
     RDKit          3D

 43 45  0  0  0  0  0  0  0  0999 V2000
    7.9833   -1.7556   22.8825 C   0  0  0  0  0  0  0  0  0  0  0  0
    7.0906   -0.7082   22.2316 C   0  0  0  0  0  0  0  0  0  0  0  0
    7.4557   -0.7016   20.8353 O   0  0  0  0  0  0  0  0  0  0  0  0
    6.6975   -0.0229   19.9216 C   0  0  0  0  0  0  0  0  0  0  0  0
    5.4869    0.6318   20.1805 C   0  0  0  0  0  0  0  0  0  0  0  0
    4.8484    1.2824   19.1138 C   0  0  0  0  0  0  0  0  0  0  0  0
    5.4370    1.2739   17.8482 C   0  0  0  0  0  0  0  0  0  0  0  0
    6.5950    0.6405   17.5844 N   0  0  0  0  0  0  0  0  0  0  0  0
    7.1980    0.0110   18.5979 C   0  0  0  0  0  0  0  0  0  0  0  0
    8.1342   -0.4976   18.3763 H   0  0  0  0  0  0  0  0  0  0  0  0
    4.9681    1.7948   17.0165 H   0  0  0  0  0  0  0  0  0  0  0  0
    3.9102    1.8059   19.2686 H   0  0  0  0  0  0  0  0  0  0  0  0
    5.0699    0.6476   21.1886 H   0  0  0  0  0  0  0  0  0  0  0  0
    7.1631    0.6957   22.9063 C   0  0  0  0  0  0  0  0  0  0  0  0
    6.2621    1.0933   23.6321 O   0  0  0  0  0  0  0  0  0  0  0  0
    8.2484    1.4510   22.6081 N   0  0  0  0  0  0  0  0  0  0  0  0
    8.5098    2.7634   23.1922 C   0  0  0  0  0  0  0  0  0  0  0  0
    8.9106    2.7211   24.6867 C   0  0  0  0  0  0  0  0  0  0  0  0
   10.1158    1.9362   24.9577 N   0  0  0  0  0  0  0  0  0  0  0  0
    9.9983    0.5706   25.1881 C   0  0  0  0  0  0  0  0  0  0  0  0
    8.9864    0.0031   25.5423 O   0  0  0  0  0  0  0  0  0  0  0  0
   11.3258   -0.0841   24.8582 C   0  0  0  0  0  0  0  0  0  0  0  0
   12.1433    1.0506   24.2963 C   0  0  0  0  0  0  0  0  0  0  0  0
   13.3950    1.1019   23.6818 C   0  0  0  0  0  0  0  0  0  0  0  0
   13.8241    2.3112   23.1201 C   0  0  0  0  0  0  0  0  0  0  0  0
   13.0424    3.4714   23.2280 C   0  0  0  0  0  0  0  0  0  0  0  0
   11.8065    3.4397   23.8851 C   0  0  0  0  0  0  0  0  0  0  0  0
   11.3663    2.2183   24.3880 C   0  0  0  0  0  0  0  0  0  0  0  0
   11.1949    4.3307   23.9938 H   0  0  0  0  0  0  0  0  0  0  0  0
   13.3796    4.3819   22.7434 H   0  0  0  0  0  0  0  0  0  0  0  0
   14.7847    2.3572   22.6123 H   0  0  0  0  0  0  0  0  0  0  0  0
   14.0261    0.2171   23.6131 H   0  0  0  0  0  0  0  0  0  0  0  0
   11.7290   -0.5333   25.7646 H   0  0  0  0  0  0  0  0  0  0  0  0
   11.1077   -0.8924   24.1533 H   0  0  0  0  0  0  0  0  0  0  0  0
    9.0435    3.7416   25.0637 H   0  0  0  0  0  0  0  0  0  0  0  0
    8.0998    2.2519   25.2493 H   0  0  0  0  0  0  0  0  0  0  0  0
    7.6060    3.3822   23.1060 H   0  0  0  0  0  0  0  0  0  0  0  0
    9.3137    3.2296   22.6056 H   0  0  0  0  0  0  0  0  0  0  0  0
    8.9389    1.0284   22.0076 H   0  0  0  0  0  0  0  0  0  0  0  0
    6.0433   -1.0131   22.3253 H   0  0  0  0  0  0  0  0  0  0  0  0
    7.8195   -2.7179   22.3899 H   0  0  0  0  0  0  0  0  0  0  0  0
    7.7513   -1.8554   23.9463 H   0  0  0  0  0  0  0  0  0  0  0  0
    9.0425   -1.4980   22.7743 H   0  0  0  0  0  0  0  0  0  0  0  0
  1  2  1  0
  2  3  1  0
  3  4  1  0
  4  5  2  0
  5  6  1  0
  6  7  2  0
  7  8  1  0
  8  9  2  0
  9 10  1  0
  7 11  1  0
  6 12  1  0
  5 13  1  0
  2 14  1  0
 14 15  2  0
 14 16  1  0
 16 17  1  0
 17 18  1  0
 18 19  1  0
 19 20  1  0
 20 21  2  0
 20 22  1  0
 22 23  1  0
 23 24  2  0
 24 25  1  0
 25 26  2  0
 26 27  1  0
 27 28  2  0
 27 29  1  0
 26 30  1  0
 25 31  1  0
 24 32  1  0
 22 33  1  0
 22 34  1  0
 18 35  1  0
 18 36  1  0
 17 37  1  0
 17 38  1  0
 16 39  1  0
  2 40  1  0
  1 41  1  0
  1 42  1  0
  1 43  1  0
  9  4  1  0
 28 19  1  0
 28 23  1  0
M  END
>  <plip>  (1) 
-0.1

>  <filename>  (1) 
[H][c]1[n][c]([H])[c]([O][C]([H])([C](=[O])[N]([H])[C]([H])([H])[C]([H])([H])[N]2[C](=[O])[C]([H])([H])[c]3[c]([H])[c]([H])[c]([H])[c]([H])[c]32)[C]([H])([H])[H])[c]([H])[c]1[H]

$$$$
