
     RDKit          3D

 20 21  0  0  0  0  0  0  0  0999 V2000
    4.3385   -4.2089   23.7002 H   0  0  0  0  0  0  0  0  0  0  0  0
    4.4513   -3.7447   22.8569 O   0  0  0  0  0  0  0  0  0  0  0  0
    5.7288   -3.2278   22.9577 N   0  0  0  0  0  0  0  0  0  0  0  0
    5.9878   -2.4334   21.9904 C   0  0  0  0  0  0  0  0  0  0  0  0
    5.2450   -2.2285   21.2138 H   0  0  0  0  0  0  0  0  0  0  0  0
    7.2757   -1.7463   21.8657 C   0  0  0  0  0  0  0  0  0  0  0  0
    8.3465   -2.0568   22.6655 N   0  0  0  0  0  0  0  0  0  0  0  0
    9.3847   -1.3544   22.4737 N   0  0  0  0  0  0  0  0  0  0  0  0
    9.1503   -0.2155   21.2279 S   0  0  0  0  0  0  0  0  0  0  0  0
    7.5566   -0.7425   20.9441 C   0  0  0  0  0  0  0  0  0  0  0  0
    6.7345   -0.1255   19.8862 C   0  0  0  0  0  0  0  0  0  0  0  0
    7.1990   -0.0489   18.5506 C   0  0  0  0  0  0  0  0  0  0  0  0
    8.1287   -0.5468   18.2852 H   0  0  0  0  0  0  0  0  0  0  0  0
    6.5687    0.6038   17.5690 N   0  0  0  0  0  0  0  0  0  0  0  0
    5.4293    1.2392   17.8930 C   0  0  0  0  0  0  0  0  0  0  0  0
    4.9543    1.8079   17.0946 H   0  0  0  0  0  0  0  0  0  0  0  0
    4.8600    1.2065   19.1711 C   0  0  0  0  0  0  0  0  0  0  0  0
    3.9410    1.7512   19.3633 H   0  0  0  0  0  0  0  0  0  0  0  0
    5.5197    0.5049   20.1854 C   0  0  0  0  0  0  0  0  0  0  0  0
    5.1260    0.4667   21.2049 H   0  0  0  0  0  0  0  0  0  0  0  0
  1  2  1  0
  2  3  1  0
  3  4  2  3
  4  5  1  0
  4  6  1  0
  6  7  1  0
  7  8  2  0
  8  9  1  0
  9 10  1  0
 10 11  1  0
 11 12  2  0
 12 13  1  0
 12 14  1  0
 14 15  2  0
 15 16  1  0
 15 17  1  0
 17 18  1  0
 17 19  2  0
 19 20  1  0
 10  6  2  0
 19 11  1  0
M  END
>  <plip>  (1) 
-0.06896551724137931

>  <filename>  (1) 
[H][O][N]=[C]([H])[c]1[n][n][s][c]1-[c]1[c]([H])[n][c]([H])[c]([H])[c]1[H]

$$$$
