
     RDKit          3D

 56 59  0  0  0  0  0  0  0  0999 V2000
    6.4989    0.0092   23.5213 O   0  0  0  0  0  0  0  0  0  0  0  0
    7.4136    0.6742   23.0543 C   0  0  0  0  0  0  0  0  0  0  0  0
    7.8394    1.9634   23.7348 C   0  0  0  0  0  0  0  0  0  0  0  0
    7.0619    3.1907   23.2231 C   0  0  0  0  0  0  0  0  0  0  0  0
    5.5678    3.1011   23.5490 C   0  0  0  0  0  0  0  0  0  0  0  0
    4.8689    4.3263   23.2464 N   0  0  0  0  0  0  0  0  0  0  0  0
    4.2243    4.5439   22.0404 C   0  0  0  0  0  0  0  0  0  0  0  0
    3.9986    3.7305   21.1856 O   0  0  0  0  0  0  0  0  0  0  0  0
    3.8240    5.8578   22.0109 O   0  0  0  0  0  0  0  0  0  0  0  0
    4.1454    6.4232   23.2210 C   0  0  0  0  0  0  0  0  0  0  0  0
    3.8490    7.6988   23.6669 C   0  0  0  0  0  0  0  0  0  0  0  0
    4.2284    8.0106   24.9838 C   0  0  0  0  0  0  0  0  0  0  0  0
    4.8851    7.0685   25.7979 C   0  0  0  0  0  0  0  0  0  0  0  0
    5.1888    5.7807   25.3247 C   0  0  0  0  0  0  0  0  0  0  0  0
    4.8045    5.4793   24.0210 C   0  0  0  0  0  0  0  0  0  0  0  0
    5.6907    5.0507   25.9602 H   0  0  0  0  0  0  0  0  0  0  0  0
    5.1607    7.3427   26.8133 H   0  0  0  0  0  0  0  0  0  0  0  0
    4.0026    8.9995   25.3793 H   0  0  0  0  0  0  0  0  0  0  0  0
    3.3368    8.4097   23.0222 H   0  0  0  0  0  0  0  0  0  0  0  0
    5.4318    2.8539   24.6092 H   0  0  0  0  0  0  0  0  0  0  0  0
    5.0968    2.2994   22.9748 H   0  0  0  0  0  0  0  0  0  0  0  0
    7.1811    3.3264   22.1383 H   0  0  0  0  0  0  0  0  0  0  0  0
    7.4743    4.0896   23.6968 H   0  0  0  0  0  0  0  0  0  0  0  0
    7.6455    1.8253   24.8012 H   0  0  0  0  0  0  0  0  0  0  0  0
    8.9139    2.1065   23.6042 H   0  0  0  0  0  0  0  0  0  0  0  0
    8.0658    0.3268   21.8923 N   0  0  0  0  0  0  0  0  0  0  0  0
    7.4332   -0.6768   21.0281 C   0  0  0  0  0  0  0  0  0  0  0  0
    6.6547   -0.0134   19.9141 C   0  0  0  0  0  0  0  0  0  0  0  0
    5.4414    0.6472   20.1559 C   0  0  0  0  0  0  0  0  0  0  0  0
    4.8194    1.3247   19.1053 C   0  0  0  0  0  0  0  0  0  0  0  0
    5.4188    1.3031   17.8429 C   0  0  0  0  0  0  0  0  0  0  0  0
    6.5692    0.6653   17.5869 N   0  0  0  0  0  0  0  0  0  0  0  0
    7.1675    0.0386   18.6080 C   0  0  0  0  0  0  0  0  0  0  0  0
    8.1165   -0.4467   18.3665 H   0  0  0  0  0  0  0  0  0  0  0  0
    4.9583    1.8193   17.0017 H   0  0  0  0  0  0  0  0  0  0  0  0
    3.9133    1.8950   19.2629 H   0  0  0  0  0  0  0  0  0  0  0  0
    4.9937    0.6346   21.1539 H   0  0  0  0  0  0  0  0  0  0  0  0
    6.7815   -1.2829   21.6683 H   0  0  0  0  0  0  0  0  0  0  0  0
    8.2188   -1.3369   20.6352 H   0  0  0  0  0  0  0  0  0  0  0  0
    9.2904    0.9825   21.4341 C   0  0  0  0  0  0  0  0  0  0  0  0
   10.5447    0.4266   22.1225 C   0  0  0  0  0  0  0  0  0  0  0  0
   10.8760   -1.0270   21.7646 C   0  0  0  0  0  0  0  0  0  0  0  0
   12.3793   -1.1827   22.0166 C   0  0  0  0  0  0  0  0  0  0  0  0
   12.9414    0.2296   22.0872 N   0  0  0  0  0  4  0  0  0  0  0  0
   11.8159    1.1820   21.7563 C   0  0  0  0  0  0  0  0  0  0  0  0
   11.9219    2.1171   22.3095 H   0  0  0  0  0  0  0  0  0  0  0  0
   11.8219    1.4169   20.6863 H   0  0  0  0  0  0  0  0  0  0  0  0
   13.2910    0.4330   23.0577 H   0  0  0  0  0  0  0  0  0  0  0  0
   13.7279    0.3420   21.4106 H   0  0  0  0  0  0  0  0  0  0  0  0
   12.8778   -1.7571   21.2340 H   0  0  0  0  0  0  0  0  0  0  0  0
   12.5654   -1.7037   22.9491 H   0  0  0  0  0  0  0  0  0  0  0  0
   10.6558   -1.2134   20.7073 H   0  0  0  0  0  0  0  0  0  0  0  0
   10.2881   -1.7374   22.3586 H   0  0  0  0  0  0  0  0  0  0  0  0
   10.4213    0.4816   23.2128 H   0  0  0  0  0  0  0  0  0  0  0  0
    9.1972    2.0704   21.5710 H   0  0  0  0  0  0  0  0  0  0  0  0
    9.3752    0.8468   20.3480 H   0  0  0  0  0  0  0  0  0  0  0  0
  1  2  2  0
  2  3  1  0
  3  4  1  0
  4  5  1  0
  5  6  1  0
  6  7  1  0
  7  8  2  0
  7  9  1  0
  9 10  1  0
 10 11  2  0
 11 12  1  0
 12 13  2  0
 13 14  1  0
 14 15  2  0
 14 16  1  0
 13 17  1  0
 12 18  1  0
 11 19  1  0
  5 20  1  0
  5 21  1  0
  4 22  1  0
  4 23  1  0
  3 24  1  0
  3 25  1  0
  2 26  1  0
 26 27  1  0
 27 28  1  0
 28 29  2  0
 29 30  1  0
 30 31  2  0
 31 32  1  0
 32 33  2  0
 33 34  1  0
 31 35  1  0
 30 36  1  0
 29 37  1  0
 27 38  1  0
 27 39  1  0
 26 40  1  0
 40 41  1  0
 41 42  1  0
 42 43  1  0
 43 44  1  0
 44 45  1  0
 45 46  1  0
 45 47  1  0
 44 48  1  0
 44 49  1  0
 43 50  1  0
 43 51  1  0
 42 52  1  0
 42 53  1  0
 41 54  1  0
 40 55  1  0
 40 56  1  0
 15  6  1  0
 33 28  1  0
 45 41  1  0
 15 10  1  0
M  CHG  1  44   1
M  END
>  <plip>  (1) 
-0.07142857142857142

>  <filename>  (1) 
[H][c]1[n][c]([H])[c]([C]([H])([H])[N]([C](=[O])[C]([H])([H])[C]([H])([H])[C]([H])([H])[n]2[c](=[O])[o][c]3[c]([H])[c]([H])[c]([H])[c]([H])[c]32)[C]([H])([H])[C]2([H])[C]([H])([H])[C]([H])([H])[N+]([H])([H])[C]2([H])[H])[c]([H])[c]1[H]

$$$$
