
     RDKit          3D

 35 37  0  0  0  0  0  0  0  0999 V2000
    8.7297   -0.5945   21.0933 C   0  0  0  0  0  0  0  0  0  0  0  0
    7.3939   -0.6733   20.9743 C   0  0  0  0  0  0  0  0  0  0  0  0
    6.6491    0.0319   19.8879 C   0  0  0  0  0  0  0  0  0  0  0  0
    5.4154    0.6748   20.1035 C   0  0  0  0  0  0  0  0  0  0  0  0
    4.7909    1.3368   19.0447 C   0  0  0  0  0  0  0  0  0  0  0  0
    5.3987    1.3226   17.7880 C   0  0  0  0  0  0  0  0  0  0  0  0
    6.5566    0.6909   17.5397 N   0  0  0  0  0  0  0  0  0  0  0  0
    7.1586    0.0818   18.5673 C   0  0  0  0  0  0  0  0  0  0  0  0
    8.0970   -0.4190   18.3265 H   0  0  0  0  0  0  0  0  0  0  0  0
    4.9331    1.8335   16.9466 H   0  0  0  0  0  0  0  0  0  0  0  0
    3.8541    1.8646   19.1777 H   0  0  0  0  0  0  0  0  0  0  0  0
    4.9647    0.6906   21.0957 H   0  0  0  0  0  0  0  0  0  0  0  0
    6.5792   -1.4753   21.9773 C   0  0  0  0  0  0  0  0  0  0  0  0
    7.4331   -2.5589   22.7224 N   0  0  0  0  0  4  0  0  0  0  0  0
    6.6191   -3.3408   23.7267 C   0  0  0  0  0  0  0  0  0  0  0  0
    5.5469   -4.2084   23.1033 C   0  0  0  0  0  0  0  0  0  0  0  0
    5.7697   -5.3670   22.4192 C   0  0  0  0  0  0  0  0  0  0  0  0
    4.3197   -6.1216   21.8982 S   0  0  0  0  0  0  0  0  0  0  0  0
    3.3750   -4.8654   22.5839 C   0  0  0  0  0  0  0  0  0  0  0  0
    4.1447   -3.9419   23.2205 C   0  0  0  0  0  0  0  0  0  0  0  0
    3.7638   -3.0754   23.7546 H   0  0  0  0  0  0  0  0  0  0  0  0
    2.3007   -4.8481   22.4490 H   0  0  0  0  0  0  0  0  0  0  0  0
    6.7150   -5.8264   22.1668 H   0  0  0  0  0  0  0  0  0  0  0  0
    6.1593   -2.6416   24.4385 H   0  0  0  0  0  0  0  0  0  0  0  0
    7.2969   -3.9774   24.3033 H   0  0  0  0  0  0  0  0  0  0  0  0
    8.6815   -1.8996   23.2641 C   0  0  0  0  0  0  0  0  0  0  0  0
    9.5343   -1.3768   22.1106 C   0  0  0  0  0  0  0  0  0  0  0  0
   10.0495   -2.2096   21.6130 H   0  0  0  0  0  0  0  0  0  0  0  0
   10.3284   -0.7412   22.5204 H   0  0  0  0  0  0  0  0  0  0  0  0
    8.3862   -1.0545   23.8984 H   0  0  0  0  0  0  0  0  0  0  0  0
    9.2480   -2.6110   23.8757 H   0  0  0  0  0  0  0  0  0  0  0  0
    7.7116   -3.2467   21.9873 H   0  0  0  0  0  0  0  0  0  0  0  0
    5.7599   -1.9870   21.4761 H   0  0  0  0  0  0  0  0  0  0  0  0
    6.1602   -0.8162   22.7471 H   0  0  0  0  0  0  0  0  0  0  0  0
    9.2906    0.0666   20.4324 H   0  0  0  0  0  0  0  0  0  0  0  0
  1  2  2  0
  2  3  1  0
  3  4  2  0
  4  5  1  0
  5  6  2  0
  6  7  1  0
  7  8  2  0
  8  9  1  0
  6 10  1  0
  5 11  1  0
  4 12  1  0
  2 13  1  0
 13 14  1  0
 14 15  1  0
 15 16  1  0
 16 17  2  0
 17 18  1  0
 18 19  1  0
 19 20  2  0
 20 21  1  0
 19 22  1  0
 17 23  1  0
 15 24  1  0
 15 25  1  0
 14 26  1  0
 26 27  1  0
 27 28  1  0
 27 29  1  0
 26 30  1  0
 26 31  1  0
 14 32  1  0
 13 33  1  0
 13 34  1  0
  1 35  1  0
 27  1  1  0
  8  3  1  0
 20 16  1  0
M  CHG  1  14   1
M  END
>  <plip>  (1) 
-0.034482758620689655

>  <filename>  (1) 
[H][C]1=[C]([c]2[c]([H])[n][c]([H])[c]([H])[c]2[H])[C]([H])([H])[N+]([H])([C]([H])([H])[c]2[c]([H])[s][c]([H])[c]2[H])[C]([H])([H])[C]1([H])[H]

$$$$
