
     RDKit          3D

 37 37  0  0  0  0  0  0  0  0999 V2000
    2.6657   -5.5347   23.5490 C   0  0  0  0  0  0  0  0  0  0  0  0
    3.9981   -6.1837   23.2699 C   0  0  0  0  0  0  0  0  0  0  0  0
    5.1665   -5.8569   23.7701 C   0  0  0  0  0  0  0  0  0  0  0  0
    6.3876   -5.5076   24.0953 C   0  0  0  0  0  0  0  0  0  0  0  0
    7.0855   -4.4362   23.2760 C   0  0  0  0  0  0  0  0  0  0  0  0
    6.7063   -3.0115   23.7118 C   0  0  0  0  0  0  0  0  0  0  0  0
    7.2453   -1.9961   22.8120 N   0  0  0  0  0  0  0  0  0  0  0  0
    6.6748   -1.6623   21.6079 C   0  0  0  0  0  0  0  0  0  0  0  0
    5.6838   -2.2306   21.1788 O   0  0  0  0  0  0  0  0  0  0  0  0
    7.3242   -0.6160   20.9139 N   0  0  0  0  0  0  0  0  0  0  0  0
    8.7366   -0.2772   21.1544 C   0  0  0  0  0  0  0  0  0  0  0  0
    9.6684   -1.4671   20.9688 C   0  0  0  0  0  0  0  0  0  0  0  0
    9.5111   -2.2353   21.7295 H   0  0  0  0  0  0  0  0  0  0  0  0
   10.7132   -1.1481   21.0176 H   0  0  0  0  0  0  0  0  0  0  0  0
    9.4863   -1.9193   19.9914 H   0  0  0  0  0  0  0  0  0  0  0  0
    9.0143    0.5064   20.4428 H   0  0  0  0  0  0  0  0  0  0  0  0
    8.8657    0.1871   22.1432 H   0  0  0  0  0  0  0  0  0  0  0  0
    6.6635    0.0245   19.8085 C   0  0  0  0  0  0  0  0  0  0  0  0
    5.3992    0.6076   19.9782 C   0  0  0  0  0  0  0  0  0  0  0  0
    4.8285    1.3024   18.9055 C   0  0  0  0  0  0  0  0  0  0  0  0
    5.5148    1.3674   17.6893 C   0  0  0  0  0  0  0  0  0  0  0  0
    6.7095    0.7886   17.4917 N   0  0  0  0  0  0  0  0  0  0  0  0
    7.2643    0.1512   18.5317 C   0  0  0  0  0  0  0  0  0  0  0  0
    8.2416   -0.2935   18.3478 H   0  0  0  0  0  0  0  0  0  0  0  0
    5.0923    1.8998   16.8390 H   0  0  0  0  0  0  0  0  0  0  0  0
    3.8686    1.7985   19.0022 H   0  0  0  0  0  0  0  0  0  0  0  0
    4.8915    0.5186   20.9368 H   0  0  0  0  0  0  0  0  0  0  0  0
    7.8749   -1.3161   23.1875 H   0  0  0  0  0  0  0  0  0  0  0  0
    5.6123   -2.9382   23.7567 H   0  0  0  0  0  0  0  0  0  0  0  0
    7.0827   -2.8149   24.7227 H   0  0  0  0  0  0  0  0  0  0  0  0
    6.7681   -4.5256   22.2308 H   0  0  0  0  0  0  0  0  0  0  0  0
    8.1754   -4.5596   23.3155 H   0  0  0  0  0  0  0  0  0  0  0  0
    6.8742   -5.9534   24.9615 H   0  0  0  0  0  0  0  0  0  0  0  0
    4.0107   -7.0078   22.5596 H   0  0  0  0  0  0  0  0  0  0  0  0
    2.7793   -4.6865   24.2336 H   0  0  0  0  0  0  0  0  0  0  0  0
    1.9559   -6.2496   23.9891 H   0  0  0  0  0  0  0  0  0  0  0  0
    2.2050   -5.1869   22.6137 H   0  0  0  0  0  0  0  0  0  0  0  0
  1  2  1  0
  2  3  2  0
  3  4  2  0
  4  5  1  0
  5  6  1  0
  6  7  1  0
  7  8  1  0
  8  9  2  0
  8 10  1  0
 10 11  1  0
 11 12  1  0
 12 13  1  0
 12 14  1  0
 12 15  1  0
 11 16  1  0
 11 17  1  0
 10 18  1  0
 18 19  2  0
 19 20  1  0
 20 21  2  0
 21 22  1  0
 22 23  2  0
 23 24  1  0
 21 25  1  0
 20 26  1  0
 19 27  1  0
  7 28  1  0
  6 29  1  0
  6 30  1  0
  5 31  1  0
  5 32  1  0
  4 33  1  0
  2 34  1  0
  1 35  1  0
  1 36  1  0
  1 37  1  0
 23 18  1  0
M  END
>  <plip>  (1) 
-0.10344827586206896

>  <filename>  (1) 
[H][C](=[C]=[C]([H])[C]([H])([H])[C]([H])([H])[N]([H])[C](=[O])[N]([c]1[c]([H])[n][c]([H])[c]([H])[c]1[H])[C]([H])([H])[C]([H])([H])[H])[C]([H])([H])[H]

$$$$
