
     RDKit          3D

 31 32  0  0  0  0  0  0  0  0999 V2000
    6.4865   -2.6802   20.2322 O   0  0  0  0  0  0  0  0  0  0  0  0
    6.9447   -1.8088   20.9502 C   0  0  0  0  0  0  0  0  0  0  0  0
    7.8324   -2.1836   22.1350 C   0  0  0  0  0  0  0  0  0  0  0  0
    9.2224   -1.5456   22.0065 C   0  0  0  0  0  0  0  0  0  0  0  0
    9.8739   -1.2297   23.6943 S   0  0  0  0  0  0  0  0  0  0  0  0
   11.4790   -0.7005   23.2099 C   0  0  0  0  0  0  0  0  0  0  0  0
   12.1544   -1.3550   22.1809 C   0  0  0  0  0  0  0  0  0  0  0  0
   13.4274   -0.9223   21.8311 C   0  0  0  0  0  0  0  0  0  0  0  0
   14.3433   -1.7955   20.3915 Br  0  0  0  0  0  0  0  0  0  0  0  0
   13.9973    0.1431   22.5461 C   0  0  0  0  0  0  0  0  0  0  0  0
   13.3710    0.7478   23.5785 N   0  0  0  0  0  0  0  0  0  0  0  0
   12.1322    0.3325   23.8978 C   0  0  0  0  0  0  0  0  0  0  0  0
   11.6302    0.8218   24.7267 H   0  0  0  0  0  0  0  0  0  0  0  0
   14.9795    0.4905   22.2473 H   0  0  0  0  0  0  0  0  0  0  0  0
   11.6856   -2.1898   21.6676 H   0  0  0  0  0  0  0  0  0  0  0  0
    9.8936   -2.2143   21.4516 H   0  0  0  0  0  0  0  0  0  0  0  0
    9.1807   -0.5935   21.4609 H   0  0  0  0  0  0  0  0  0  0  0  0
    7.3375   -1.8288   23.0420 H   0  0  0  0  0  0  0  0  0  0  0  0
    7.9377   -3.2719   22.2059 H   0  0  0  0  0  0  0  0  0  0  0  0
    6.6755   -0.4683   20.7423 N   0  0  0  0  0  0  0  0  0  0  0  0
    6.1736    0.1550   19.5801 C   0  0  0  0  0  0  0  0  0  0  0  0
    5.1636    1.0880   19.7709 C   0  0  0  0  0  0  0  0  0  0  0  0
    4.7585    1.8651   18.6871 C   0  0  0  0  0  0  0  0  0  0  0  0
    5.3432    1.6786   17.4295 C   0  0  0  0  0  0  0  0  0  0  0  0
    6.3032    0.7562   17.2152 N   0  0  0  0  0  0  0  0  0  0  0  0
    6.7124    0.0125   18.2715 C   0  0  0  0  0  0  0  0  0  0  0  0
    7.5292   -0.6894   18.1162 H   0  0  0  0  0  0  0  0  0  0  0  0
    5.0216    2.3170   16.6103 H   0  0  0  0  0  0  0  0  0  0  0  0
    4.0014    2.6257   18.8255 H   0  0  0  0  0  0  0  0  0  0  0  0
    4.7183    1.1886   20.7575 H   0  0  0  0  0  0  0  0  0  0  0  0
    6.7797    0.1180   21.5680 H   0  0  0  0  0  0  0  0  0  0  0  0
  1  2  2  0
  2  3  1  0
  3  4  1  0
  4  5  1  0
  5  6  1  0
  6  7  2  0
  7  8  1  0
  8  9  1  0
  8 10  2  0
 10 11  1  0
 11 12  2  0
 12 13  1  0
 10 14  1  0
  7 15  1  0
  4 16  1  0
  4 17  1  0
  3 18  1  0
  3 19  1  0
  2 20  1  0
 20 21  1  0
 21 22  2  0
 22 23  1  0
 23 24  2  0
 24 25  1  0
 25 26  2  0
 26 27  1  0
 24 28  1  0
 23 29  1  0
 22 30  1  0
 20 31  1  0
 12  6  1  0
 26 21  1  0
M  END
>  <plip>  (1) 
-0.10714285714285714

>  <filename>  (1) 
[H][c]1[n][c]([H])[c]([N]([H])[C](=[O])[C]([H])([H])[C]([H])([H])[S][c]2[c]([H])[n][c]([H])[c]([Br])[c]2[H])[c]([H])[c]1[H]

$$$$
