
     RDKit          3D

 33 35  0  0  0  0  0  0  0  0999 V2000
    9.3641    0.8983   24.6574 H   0  0  0  0  0  0  0  0  0  0  0  0
    9.8554    1.0113   23.6930 C   0  0  0  0  0  0  0  0  0  0  0  0
    9.1835    0.8071   22.5454 C   0  0  0  0  0  0  0  0  0  0  0  0
    7.7063    0.4816   22.5314 C   0  0  0  0  0  0  0  0  0  0  0  0
    6.9543    0.8836   23.3981 O   0  0  0  0  0  0  0  0  0  0  0  0
    7.1764   -0.4199   21.3878 C   0  0  0  0  0  0  0  0  0  0  0  0
    6.5694    0.2679   20.1700 C   0  0  0  0  0  0  0  0  0  0  0  0
    7.1112    0.1382   18.8674 C   0  0  0  0  0  0  0  0  0  0  0  0
    8.0456   -0.4039   18.7072 H   0  0  0  0  0  0  0  0  0  0  0  0
    6.5735    0.6469   17.7512 N   0  0  0  0  0  0  0  0  0  0  0  0
    5.4257    1.3282   17.8871 C   0  0  0  0  0  0  0  0  0  0  0  0
    4.9964    1.7236   16.9658 H   0  0  0  0  0  0  0  0  0  0  0  0
    4.8064    1.5383   19.1204 C   0  0  0  0  0  0  0  0  0  0  0  0
    3.8813    2.1019   19.1516 H   0  0  0  0  0  0  0  0  0  0  0  0
    5.3926    1.0206   20.2836 C   0  0  0  0  0  0  0  0  0  0  0  0
    4.9449    1.1817   21.2669 H   0  0  0  0  0  0  0  0  0  0  0  0
    6.5310   -1.7213   21.8513 C   0  0  0  0  0  0  0  0  0  0  0  0
    6.5325   -1.9448   22.9186 H   0  0  0  0  0  0  0  0  0  0  0  0
    5.6161   -2.0439   21.3496 H   0  0  0  0  0  0  0  0  0  0  0  0
    7.8255   -1.7495   21.0988 C   0  0  0  0  0  0  0  0  0  0  0  0
    8.7636   -2.0327   21.5772 H   0  0  0  0  0  0  0  0  0  0  0  0
    7.7455   -2.0535   20.0622 H   0  0  0  0  0  0  0  0  0  0  0  0
    9.9426    0.8965   21.2255 C   0  0  0  0  0  0  0  0  0  0  0  0
    9.2514    1.1104   20.4090 H   0  0  0  0  0  0  0  0  0  0  0  0
   10.3991   -0.0810   21.0016 H   0  0  0  0  0  0  0  0  0  0  0  0
   11.0862    1.9128   21.3436 C   0  0  0  0  0  0  0  0  0  0  0  0
   10.6755    2.9150   21.5199 H   0  0  0  0  0  0  0  0  0  0  0  0
   11.6668    1.9755   20.4200 H   0  0  0  0  0  0  0  0  0  0  0  0
   11.9839    1.5535   22.4474 N   0  0  0  0  0  0  0  0  0  0  0  0
   12.3424    0.6261   22.2344 H   0  0  0  0  0  0  0  0  0  0  0  0
   11.3019    1.4699   23.7425 C   0  0  0  0  0  0  0  0  0  0  0  0
   11.8738    0.7943   24.3905 H   0  0  0  0  0  0  0  0  0  0  0  0
   11.3399    2.4427   24.2508 H   0  0  0  0  0  0  0  0  0  0  0  0
  1  2  1  0
  2  3  2  0
  3  4  1  0
  4  5  2  0
  4  6  1  0
  6  7  1  0
  7  8  2  0
  8  9  1  0
  8 10  1  0
 10 11  2  0
 11 12  1  0
 11 13  1  0
 13 14  1  0
 13 15  2  0
 15 16  1  0
  6 17  1  0
 17 18  1  0
 17 19  1  0
 17 20  1  0
 20 21  1  0
 20 22  1  0
  3 23  1  0
 23 24  1  0
 23 25  1  0
 23 26  1  0
 26 27  1  0
 26 28  1  0
 26 29  1  0
 29 30  1  0
 29 31  1  0
 31 32  1  0
 31 33  1  0
 31  2  1  0
 20  6  1  0
 15  7  1  0
M  END
>  <plip>  (1) 
-0.03571428571428571

>  <filename>  (1) 
[H][C]1=[C]([C](=[O])[C]2([c]3[c]([H])[n][c]([H])[c]([H])[c]3[H])[C]([H])([H])[C]2([H])[H])[C]([H])([H])[C]([H])([H])[N]([H])[C]1([H])[H]

$$$$
