
     RDKit          3D

 33 35  0  0  0  0  0  0  0  0999 V2000
    4.9144    1.7874   16.9967 H   0  0  0  0  0  0  0  0  0  0  0  0
    5.3981    1.2921   17.8381 C   0  0  0  0  0  0  0  0  0  0  0  0
    6.5517    0.6661   17.5712 N   0  0  0  0  0  0  0  0  0  0  0  0
    7.1882    0.0595   18.5810 C   0  0  0  0  0  0  0  0  0  0  0  0
    8.1350   -0.4201   18.3568 H   0  0  0  0  0  0  0  0  0  0  0  0
    6.6887    0.0284   19.8997 C   0  0  0  0  0  0  0  0  0  0  0  0
    7.2965   -0.6611   20.9631 O   0  0  0  0  0  0  0  0  0  0  0  0
    8.6330   -0.7598   21.0848 C   0  0  0  0  0  0  0  0  0  0  0  0
    9.5571   -0.0691   20.4633 N   0  0  0  0  0  0  0  0  0  0  0  0
   10.7293   -0.5096   20.9819 N   0  0  0  0  0  0  0  0  0  0  0  0
   10.5489   -1.4242   21.8508 N   0  0  0  0  0  0  0  0  0  0  0  0
    9.2073   -1.6295   21.9300 N   0  0  0  0  0  0  0  0  0  0  0  0
    8.6574   -2.5552   22.9298 C   0  0  1  0  0  0  0  0  0  0  0  0
    9.4526   -3.2991   23.0478 H   0  0  0  0  0  0  0  0  0  0  0  0
    8.4575   -1.8536   24.2690 C   0  0  0  0  0  0  0  0  0  0  0  0
    7.6243   -0.7288   24.3672 C   0  0  0  0  0  0  0  0  0  0  0  0
    7.1259   -0.3497   23.4743 H   0  0  0  0  0  0  0  0  0  0  0  0
    7.4229   -0.0997   25.5992 C   0  0  0  0  0  0  0  0  0  0  0  0
    6.7771    0.7721   25.6565 H   0  0  0  0  0  0  0  0  0  0  0  0
    8.0472   -0.5907   26.7520 C   0  0  0  0  0  0  0  0  0  0  0  0
    7.8961   -0.0978   27.7121 H   0  0  0  0  0  0  0  0  0  0  0  0
    8.8732   -1.7152   26.6614 C   0  0  0  0  0  0  0  0  0  0  0  0
    9.3721   -2.0962   27.5450 H   0  0  0  0  0  0  0  0  0  0  0  0
    9.0770   -2.3453   25.4268 C   0  0  0  0  0  0  0  0  0  0  0  0
    9.7211   -3.2233   25.3682 H   0  0  0  0  0  0  0  0  0  0  0  0
    7.3897   -3.2387   22.4247 C   0  0  0  0  0  0  0  0  0  0  0  0
    7.1237   -4.0648   23.0899 H   0  0  0  0  0  0  0  0  0  0  0  0
    6.5549   -2.5322   22.3861 H   0  0  0  0  0  0  0  0  0  0  0  0
    7.5500   -3.6322   21.4171 H   0  0  0  0  0  0  0  0  0  0  0  0
    5.4674    0.6422   20.1711 C   0  0  0  0  0  0  0  0  0  0  0  0
    5.0412    0.6075   21.1781 H   0  0  0  0  0  0  0  0  0  0  0  0
    4.8217    1.2993   19.1165 C   0  0  0  0  0  0  0  0  0  0  0  0
    3.8889    1.8294   19.2673 H   0  0  0  0  0  0  0  0  0  0  0  0
  1  2  1  0
  2  3  2  0
  3  4  1  0
  4  5  1  0
  4  6  2  0
  6  7  1  0
  7  8  1  0
  8  9  2  0
  9 10  1  0
 10 11  2  0
 11 12  1  0
 12 13  1  0
 13 14  1  1
 13 15  1  0
 15 16  2  0
 16 17  1  0
 16 18  1  0
 18 19  1  0
 18 20  2  0
 20 21  1  0
 20 22  1  0
 22 23  1  0
 22 24  2  0
 24 25  1  0
 13 26  1  0
 26 27  1  0
 26 28  1  0
 26 29  1  0
  6 30  1  0
 30 31  1  0
 30 32  2  0
 32 33  1  0
 32  2  1  0
 12  8  1  0
 24 15  1  0
M  END
>  <plip>  (1) 
-0.06896551724137931

>  <filename>  (1) 
[H][c]1[n][c]([H])[c]([O][c]2[n][n][n][n]2[C@@]([H])([c]2[c]([H])[c]([H])[c]([H])[c]([H])[c]2[H])[C]([H])([H])[H])[c]([H])[c]1[H]

$$$$
