
     RDKit          3D

 27 29  0  0  0  0  0  0  0  0999 V2000
    9.5535    0.0237   20.3908 O   0  0  0  0  0  0  0  0  0  0  0  0
    8.7940   -0.6131   21.0995 C   0  0  0  0  0  0  0  0  0  0  0  0
    7.4383   -0.6436   20.9165 N   0  0  0  0  0  0  0  0  0  0  0  0
    6.7018   -0.0114   19.8819 C   0  0  0  0  0  0  0  0  0  0  0  0
    5.4767    0.6135   20.1534 C   0  0  0  0  0  0  0  0  0  0  0  0
    4.8141    1.2844   19.1155 C   0  0  0  0  0  0  0  0  0  0  0  0
    5.3934    1.2849   17.8412 C   0  0  0  0  0  0  0  0  0  0  0  0
    6.5543    0.6694   17.5551 N   0  0  0  0  0  0  0  0  0  0  0  0
    7.1900    0.0510   18.5552 C   0  0  0  0  0  0  0  0  0  0  0  0
    8.1450   -0.4167   18.3297 H   0  0  0  0  0  0  0  0  0  0  0  0
    4.9154    1.8091   17.0183 H   0  0  0  0  0  0  0  0  0  0  0  0
    3.8808    1.8217   19.2854 H   0  0  0  0  0  0  0  0  0  0  0  0
    5.0640    0.5978   21.1606 H   0  0  0  0  0  0  0  0  0  0  0  0
    6.9311   -1.1747   21.6021 H   0  0  0  0  0  0  0  0  0  0  0  0
    9.2729   -1.4649   22.2125 C   0  0  0  0  0  0  0  0  0  0  0  0
   10.6043   -1.9005   22.0636 C   0  0  0  0  0  0  0  0  0  0  0  0
   11.2322   -2.7056   22.9088 N   0  0  0  0  0  0  0  0  0  0  0  0
   10.5188   -3.0466   23.9698 C   0  0  0  0  0  0  0  0  0  0  0  0
   11.0101   -3.8323   24.9525 O   0  0  0  0  0  0  0  0  0  0  0  0
   10.0312   -3.9270   25.9077 C   0  0  0  0  0  0  0  0  0  0  0  0
    8.9183   -3.2494   25.5658 C   0  0  0  0  0  0  0  0  0  0  0  0
    9.2024   -2.6513   24.2799 C   0  0  0  0  0  0  0  0  0  0  0  0
    8.5530   -1.8426   23.3555 C   0  0  0  0  0  0  0  0  0  0  0  0
    7.5341   -1.5133   23.5653 H   0  0  0  0  0  0  0  0  0  0  0  0
    8.0028   -3.1759   26.1370 H   0  0  0  0  0  0  0  0  0  0  0  0
   10.3223   -4.4951   26.7856 H   0  0  0  0  0  0  0  0  0  0  0  0
   11.1748   -1.5663   21.2006 H   0  0  0  0  0  0  0  0  0  0  0  0
  1  2  2  0
  2  3  1  0
  3  4  1  0
  4  5  2  0
  5  6  1  0
  6  7  2  0
  7  8  1  0
  8  9  2  0
  9 10  1  0
  7 11  1  0
  6 12  1  0
  5 13  1  0
  3 14  1  0
  2 15  1  0
 15 16  2  0
 16 17  1  0
 17 18  2  0
 18 19  1  0
 19 20  1  0
 20 21  2  0
 21 22  1  0
 22 23  2  0
 23 24  1  0
 21 25  1  0
 20 26  1  0
 16 27  1  0
  9  4  1  0
 23 15  1  0
 22 18  1  0
M  END
>  <plip>  (1) 
-0.07142857142857142

>  <filename>  (1) 
[H][c]1[n][c]([H])[c]([N]([H])[C](=[O])[c]2[c]([H])[n][c]3[o][c]([H])[c]([H])[c]3[c]2[H])[c]([H])[c]1[H]

$$$$
