
     RDKit          3D

 33 34  0  0  0  0  0  0  0  0999 V2000
    4.9143    1.7866   16.9929 H   0  0  0  0  0  0  0  0  0  0  0  0
    5.3976    1.2973   17.8354 C   0  0  0  0  0  0  0  0  0  0  0  0
    6.5626    0.6856   17.5693 N   0  0  0  0  0  0  0  0  0  0  0  0
    7.1681    0.0647   18.5824 C   0  0  0  0  0  0  0  0  0  0  0  0
    8.1187   -0.4179   18.3601 H   0  0  0  0  0  0  0  0  0  0  0  0
    6.6612    0.0039   19.8974 C   0  0  0  0  0  0  0  0  0  0  0  0
    7.3630   -0.7309   20.9640 C   0  0  0  0  0  0  0  0  0  0  0  0
    7.9503   -2.3147   20.8417 S   0  0  0  0  0  0  0  0  0  0  0  0
    8.5300   -2.3658   22.3962 N   0  0  0  0  0  0  0  0  0  0  0  0
    8.3025   -1.2651   23.0010 N   0  0  0  0  0  0  0  0  0  0  0  0
    7.6697   -0.3108   22.2489 C   0  0  0  0  0  0  0  0  0  0  0  0
    7.4062    1.0546   22.8313 C   0  0  0  0  0  0  0  0  0  0  0  0
    6.5629    0.9702   23.5334 H   0  0  0  0  0  0  0  0  0  0  0  0
    7.0539    1.7206   22.0411 H   0  0  0  0  0  0  0  0  0  0  0  0
    8.5046    1.7193   23.5138 N   0  0  0  0  0  0  0  0  0  0  0  0
    8.9779    1.0532   24.7211 C   0  0  0  0  0  0  0  0  0  0  0  0
    9.8954    0.4711   24.5366 H   0  0  0  0  0  0  0  0  0  0  0  0
    8.2368    0.3197   25.0519 H   0  0  0  0  0  0  0  0  0  0  0  0
    9.2085    2.0466   25.8328 C   0  0  0  0  0  0  0  0  0  0  0  0
   10.0092    2.7369   25.5664 H   0  0  0  0  0  0  0  0  0  0  0  0
    8.3015    2.6222   26.0289 H   0  0  0  0  0  0  0  0  0  0  0  0
    9.4765    1.4997   26.7332 H   0  0  0  0  0  0  0  0  0  0  0  0
    9.5466    2.2610   22.6460 C   0  0  0  0  0  0  0  0  0  0  0  0
    9.0861    3.0199   22.0008 H   0  0  0  0  0  0  0  0  0  0  0  0
   10.2569    2.8073   23.2756 H   0  0  0  0  0  0  0  0  0  0  0  0
   10.3062    1.2596   21.7705 C   0  0  0  0  0  0  0  0  0  0  0  0
   11.2031    1.7241   21.3471 H   0  0  0  0  0  0  0  0  0  0  0  0
   10.6201    0.3872   22.3493 H   0  0  0  0  0  0  0  0  0  0  0  0
    9.6827    0.9027   20.9445 H   0  0  0  0  0  0  0  0  0  0  0  0
    5.4432    0.6517   20.1541 C   0  0  0  0  0  0  0  0  0  0  0  0
    5.0072    0.6239   21.1562 H   0  0  0  0  0  0  0  0  0  0  0  0
    4.8037    1.3086   19.1016 C   0  0  0  0  0  0  0  0  0  0  0  0
    3.8734    1.8428   19.2584 H   0  0  0  0  0  0  0  0  0  0  0  0
  1  2  1  0
  2  3  2  0
  3  4  1  0
  4  5  1  0
  4  6  2  0
  6  7  1  0
  7  8  1  0
  8  9  1  0
  9 10  2  0
 10 11  1  0
 11 12  1  0
 12 13  1  0
 12 14  1  0
 12 15  1  0
 15 16  1  0
 16 17  1  0
 16 18  1  0
 16 19  1  0
 19 20  1  0
 19 21  1  0
 19 22  1  0
 15 23  1  0
 23 24  1  0
 23 25  1  0
 23 26  1  0
 26 27  1  0
 26 28  1  0
 26 29  1  0
  6 30  1  0
 30 31  1  0
 30 32  2  0
 32 33  1  0
 32  2  1  0
 11  7  2  0
M  END
>  <plip>  (1) 
-0.06896551724137931

>  <filename>  (1) 
[H][c]1[n][c]([H])[c](-[c]2[s][n][n][c]2[C]([H])([H])[N]([C]([H])([H])[C]([H])([H])[H])[C]([H])([H])[C]([H])([H])[H])[c]([H])[c]1[H]

$$$$
