
     RDKit          3D

 33 34  0  0  0  0  0  0  0  0999 V2000
    7.9685    1.9558   21.6554 O   0  0  0  0  0  0  0  0  0  0  0  0
    7.5867    1.3996   22.6526 C   0  0  0  0  0  0  0  0  0  0  0  0
    7.3619    2.1049   23.9551 C   0  0  0  0  0  0  0  0  0  0  0  0
    5.7354    2.8321   23.6947 S   0  0  0  0  0  0  0  0  0  0  0  0
    4.8565    1.6024   23.7016 O   0  0  0  0  0  0  0  0  0  0  0  0
    5.5510    3.7293   25.2611 C   0  0  0  0  0  0  0  0  0  0  0  0
    5.3756    5.1157   25.1608 C   0  0  0  0  0  0  0  0  0  0  0  0
    5.1441    5.8878   26.3029 C   0  0  0  0  0  0  0  0  0  0  0  0
    5.0921    5.2609   27.5500 C   0  0  0  0  0  0  0  0  0  0  0  0
    4.8060    6.2156   28.9784 Cl  0  0  0  0  0  0  0  0  0  0  0  0
    5.2677    3.8779   27.6638 C   0  0  0  0  0  0  0  0  0  0  0  0
    5.4834    3.1038   26.5143 C   0  0  0  0  0  0  0  0  0  0  0  0
    5.5867    2.0243   26.6082 H   0  0  0  0  0  0  0  0  0  0  0  0
    5.2241    3.4157   28.6448 H   0  0  0  0  0  0  0  0  0  0  0  0
    4.9902    6.9591   26.2320 H   0  0  0  0  0  0  0  0  0  0  0  0
    5.4145    5.5856   24.1813 H   0  0  0  0  0  0  0  0  0  0  0  0
    7.2975    1.3885   24.7723 H   0  0  0  0  0  0  0  0  0  0  0  0
    8.1417    2.8454   24.1139 H   0  0  0  0  0  0  0  0  0  0  0  0
    7.2988    0.0599   22.6888 N   0  0  0  0  0  0  0  0  0  0  0  0
    7.5293   -0.7330   21.2815 S   0  0  0  0  0  0  0  0  0  0  0  0
    8.9224   -0.6063   20.9336 O   0  0  0  0  0  0  0  0  0  0  0  0
    6.8880   -2.0091   21.5195 O   0  0  0  0  0  0  0  0  0  0  0  0
    6.6114    0.1801   20.1288 C   0  0  0  0  0  0  0  0  0  0  0  0
    5.3730    0.8166   20.3093 C   0  0  0  0  0  0  0  0  0  0  0  0
    4.7992    1.3432   19.1517 C   0  0  0  0  0  0  0  0  0  0  0  0
    5.4763    1.2336   17.9316 C   0  0  0  0  0  0  0  0  0  0  0  0
    6.6633    0.6296   17.7881 N   0  0  0  0  0  0  0  0  0  0  0  0
    7.2166    0.1154   18.8805 C   0  0  0  0  0  0  0  0  0  0  0  0
    8.1860   -0.3615   18.7496 H   0  0  0  0  0  0  0  0  0  0  0  0
    5.0473    1.6503   17.0233 H   0  0  0  0  0  0  0  0  0  0  0  0
    3.8408    1.8527   19.1765 H   0  0  0  0  0  0  0  0  0  0  0  0
    4.8715    0.9425   21.2812 H   0  0  0  0  0  0  0  0  0  0  0  0
    6.4809   -0.3022   23.1514 H   0  0  0  0  0  0  0  0  0  0  0  0
  1  2  2  0
  2  3  1  0
  3  4  1  0
  4  5  2  0
  4  6  1  0
  6  7  2  0
  7  8  1  0
  8  9  2  0
  9 10  1  0
  9 11  1  0
 11 12  2  0
 12 13  1  0
 11 14  1  0
  8 15  1  0
  7 16  1  0
  3 17  1  0
  3 18  1  0
  2 19  1  0
 19 20  1  0
 20 21  2  0
 20 22  2  0
 20 23  1  0
 23 24  2  0
 24 25  1  0
 25 26  2  0
 26 27  1  0
 27 28  2  0
 28 29  1  0
 26 30  1  0
 25 31  1  0
 24 32  1  0
 19 33  1  0
 12  6  1  0
 28 23  1  0
M  END
>  <plip>  (1) 
-0.14285714285714285

>  <filename>  (1) 
[H][c]1[n][c]([H])[c]([S](=[O])(=[O])[N]([H])[C](=[O])[C]([H])([H])[S](=[O])[c]2[c]([H])[c]([H])[c]([Cl])[c]([H])[c]2[H])[c]([H])[c]1[H]

$$$$
