
     RDKit          3D

 29 31  0  0  0  0  0  0  0  0999 V2000
    4.9920    1.7995   16.9717 H   0  0  0  0  0  0  0  0  0  0  0  0
    5.4145    1.2621   17.8168 C   0  0  0  0  0  0  0  0  0  0  0  0
    6.5744    0.6244   17.5866 N   0  0  0  0  0  0  0  0  0  0  0  0
    7.1552    0.0158   18.6217 C   0  0  0  0  0  0  0  0  0  0  0  0
    8.1040   -0.4802   18.4195 H   0  0  0  0  0  0  0  0  0  0  0  0
    6.6156    0.0039   19.9033 C   0  0  0  0  0  0  0  0  0  0  0  0
    7.4177   -0.6375   20.9618 C   0  0  0  0  0  0  0  0  0  0  0  0
    7.7050   -0.2204   22.1213 N   0  0  0  0  0  0  0  0  0  0  0  0
    7.5542    1.1234   22.4718 C   0  0  0  0  0  0  0  0  0  0  0  0
    7.7848    2.2011   21.6774 C   0  0  0  0  0  0  0  0  0  0  0  0
    8.0244    2.1124   20.6284 H   0  0  0  0  0  0  0  0  0  0  0  0
    7.5661    3.7185   22.4877 S   0  0  0  0  0  0  0  0  0  0  0  0
    7.1529    2.9024   23.9773 C   0  0  0  0  0  0  0  0  0  0  0  0
    6.8250    3.4895   25.2113 C   0  0  0  0  0  0  0  0  0  0  0  0
    6.8090    4.5697   25.3262 H   0  0  0  0  0  0  0  0  0  0  0  0
    6.5354    2.6527   26.2823 C   0  0  0  0  0  0  0  0  0  0  0  0
    6.2958    3.0925   27.2461 H   0  0  0  0  0  0  0  0  0  0  0  0
    6.5535    1.2499   26.1434 C   0  0  0  0  0  0  0  0  0  0  0  0
    6.3248    0.6234   27.0023 H   0  0  0  0  0  0  0  0  0  0  0  0
    6.8752    0.6666   24.9227 C   0  0  0  0  0  0  0  0  0  0  0  0
    6.8860   -0.4148   24.7962 H   0  0  0  0  0  0  0  0  0  0  0  0
    7.1930    1.4963   23.8268 C   0  0  0  0  0  0  0  0  0  0  0  0
    7.8984   -1.8757   20.6340 N   0  0  0  0  0  0  0  0  0  0  0  0
    7.3338   -2.3486   19.9509 H   0  0  0  0  0  0  0  0  0  0  0  0
    8.1058   -2.3665   21.4942 H   0  0  0  0  0  0  0  0  0  0  0  0
    5.3854    0.6413   20.1396 C   0  0  0  0  0  0  0  0  0  0  0  0
    4.9344    0.6515   21.1348 H   0  0  0  0  0  0  0  0  0  0  0  0
    4.7763    1.2829   19.0640 C   0  0  0  0  0  0  0  0  0  0  0  0
    3.8555    1.8454   19.1901 H   0  0  0  0  0  0  0  0  0  0  0  0
  1  2  1  0
  2  3  2  0
  3  4  1  0
  4  5  1  0
  4  6  2  0
  6  7  1  0
  7  8  2  3
  8  9  1  0
  9 10  2  0
 10 11  1  0
 10 12  1  0
 12 13  1  0
 13 14  2  0
 14 15  1  0
 14 16  1  0
 16 17  1  0
 16 18  2  0
 18 19  1  0
 18 20  1  0
 20 21  1  0
 20 22  2  0
  7 23  1  0
 23 24  1  0
 23 25  1  0
  6 26  1  0
 26 27  1  0
 26 28  2  0
 28 29  1  0
 28  2  1  0
 22  9  1  0
 22 13  1  0
M  END
>  <plip>  (1) 
-0.0

>  <filename>  (1) 
[H][c]1[n][c]([H])[c]([C](=[N][c]2[c]([H])[s][c]3[c]([H])[c]([H])[c]([H])[c]([H])[c]23)[N]([H])[H])[c]([H])[c]1[H]

$$$$
