
     RDKit          3D

 41 43  0  0  0  0  0  0  0  0999 V2000
    5.9585   -4.2386   23.4021 C   0  0  0  0  0  0  0  0  0  0  0  0
    5.1714   -3.5599   22.2955 C   0  0  0  0  0  0  0  0  0  0  0  0
    5.7100   -2.2877   21.8799 O   0  0  0  0  0  0  0  0  0  0  0  0
    6.9312   -2.2616   21.3397 C   0  0  0  0  0  0  0  0  0  0  0  0
    7.6185   -3.2369   21.1313 O   0  0  0  0  0  0  0  0  0  0  0  0
    7.4147   -0.8137   20.9837 C   0  0  0  0  0  0  0  0  0  0  0  0
    7.4920   -0.0293   22.2054 O   0  0  0  0  0  0  0  0  0  0  0  0
    8.2113    1.1205   22.1461 C   0  0  0  0  0  0  0  0  0  0  0  0
    8.9508    1.3923   21.2301 O   0  0  0  0  0  0  0  0  0  0  0  0
    8.0178    1.9785   23.3957 C   0  0  0  0  0  0  0  0  0  0  0  0
    9.3545    2.0905   24.1724 C   0  0  0  0  0  0  0  0  0  0  0  0
    9.3143    3.6618   25.0856 S   0  0  0  0  0  0  0  0  0  0  0  0
    8.1613    4.3502   23.9515 C   0  0  0  0  0  0  0  0  0  0  0  0
    7.8790    5.7142   23.8442 C   0  0  0  0  0  0  0  0  0  0  0  0
    6.9137    6.1306   22.9255 C   0  0  0  0  0  0  0  0  0  0  0  0
    6.2385    5.1871   22.1321 C   0  0  0  0  0  0  0  0  0  0  0  0
    6.5533    3.8258   22.2288 C   0  0  0  0  0  0  0  0  0  0  0  0
    7.5397    3.4016   23.1320 C   0  0  0  0  0  0  0  0  0  0  0  0
    6.0411    3.1093   21.5877 H   0  0  0  0  0  0  0  0  0  0  0  0
    5.4803    5.5234   21.4281 H   0  0  0  0  0  0  0  0  0  0  0  0
    6.6813    7.1906   22.8416 H   0  0  0  0  0  0  0  0  0  0  0  0
    8.4141    6.4167   24.4783 H   0  0  0  0  0  0  0  0  0  0  0  0
   10.1966    2.1112   23.4734 H   0  0  0  0  0  0  0  0  0  0  0  0
    9.5011    1.2624   24.8702 H   0  0  0  0  0  0  0  0  0  0  0  0
    7.2843    1.4771   24.0344 H   0  0  0  0  0  0  0  0  0  0  0  0
    6.6538   -0.0229   19.9233 C   0  0  0  0  0  0  0  0  0  0  0  0
    5.4552    0.6644   20.1634 C   0  0  0  0  0  0  0  0  0  0  0  0
    4.8351    1.3080   19.0852 C   0  0  0  0  0  0  0  0  0  0  0  0
    5.4721    1.2946   17.8382 C   0  0  0  0  0  0  0  0  0  0  0  0
    6.6472    0.6998   17.6043 N   0  0  0  0  0  0  0  0  0  0  0  0
    7.2172    0.0785   18.6442 C   0  0  0  0  0  0  0  0  0  0  0  0
    8.1887   -0.3820   18.4652 H   0  0  0  0  0  0  0  0  0  0  0  0
    5.0313    1.8008   16.9852 H   0  0  0  0  0  0  0  0  0  0  0  0
    3.8955    1.8376   19.1965 H   0  0  0  0  0  0  0  0  0  0  0  0
    5.0211    0.7077   21.1661 H   0  0  0  0  0  0  0  0  0  0  0  0
    8.4316   -0.9842   20.6133 H   0  0  0  0  0  0  0  0  0  0  0  0
    4.1634   -3.2970   22.6153 H   0  0  0  0  0  0  0  0  0  0  0  0
    5.1156   -4.2161   21.4222 H   0  0  0  0  0  0  0  0  0  0  0  0
    6.9360   -4.5606   23.0375 H   0  0  0  0  0  0  0  0  0  0  0  0
    5.3999   -5.1141   23.7487 H   0  0  0  0  0  0  0  0  0  0  0  0
    6.1013   -3.5771   24.2589 H   0  0  0  0  0  0  0  0  0  0  0  0
  1  2  1  0
  2  3  1  0
  3  4  1  0
  4  5  2  0
  4  6  1  0
  6  7  1  0
  7  8  1  0
  8  9  2  0
  8 10  1  0
 10 11  1  0
 11 12  1  0
 12 13  1  0
 13 14  2  0
 14 15  1  0
 15 16  2  0
 16 17  1  0
 17 18  2  0
 17 19  1  0
 16 20  1  0
 15 21  1  0
 14 22  1  0
 11 23  1  0
 11 24  1  0
 10 25  1  0
  6 26  1  0
 26 27  2  0
 27 28  1  0
 28 29  2  0
 29 30  1  0
 30 31  2  0
 31 32  1  0
 29 33  1  0
 28 34  1  0
 27 35  1  0
  6 36  1  0
  2 37  1  0
  2 38  1  0
  1 39  1  0
  1 40  1  0
  1 41  1  0
 18 10  1  0
 31 26  1  0
 18 13  1  0
M  END
>  <plip>  (1) 
-0.07142857142857142

>  <filename>  (1) 
[H][c]1[n][c]([H])[c]([C]([H])([O][C](=[O])[C]2([H])[c]3[c]([H])[c]([H])[c]([H])[c]([H])[c]3[S][C]2([H])[H])[C](=[O])[O][C]([H])([H])[C]([H])([H])[H])[c]([H])[c]1[H]

$$$$
