
     RDKit          3D

 31 33  0  0  0  0  0  0  0  0999 V2000
    9.4250    0.4063   20.5062 F   0  0  0  0  0  0  0  0  0  0  0  0
    8.7377   -0.4937   21.2368 C   0  0  0  0  0  0  0  0  0  0  0  0
    9.4175   -1.1753   22.2421 C   0  0  0  0  0  0  0  0  0  0  0  0
    8.7065   -2.0928   23.0187 C   0  0  0  0  0  0  0  0  0  0  0  0
    7.3415   -2.3210   22.7925 C   0  0  0  0  0  0  0  0  0  0  0  0
    6.5830   -3.3661   23.5814 C   0  0  0  0  0  0  0  0  0  0  0  0
    6.6269   -4.6729   22.9461 N   0  0  0  0  0  0  0  0  0  0  0  0
    7.6284   -5.5791   23.0441 C   0  0  0  0  0  0  0  0  0  0  0  0
    7.3216   -6.6063   22.1807 C   0  0  0  0  0  0  0  0  0  0  0  0
    6.1049   -6.2081   21.5818 C   0  0  0  0  0  0  0  0  0  0  0  0
    5.7050   -5.0314   22.0437 N   0  0  0  0  0  0  0  0  0  0  0  0
    5.4978   -6.7210   20.8408 H   0  0  0  0  0  0  0  0  0  0  0  0
    7.8556   -7.5326   22.0549 H   0  0  0  0  0  0  0  0  0  0  0  0
    8.4612   -5.4100   23.7088 H   0  0  0  0  0  0  0  0  0  0  0  0
    5.5272   -3.1005   23.6962 H   0  0  0  0  0  0  0  0  0  0  0  0
    7.0163   -3.4745   24.5795 H   0  0  0  0  0  0  0  0  0  0  0  0
    6.6961   -1.6190   21.7728 C   0  0  0  0  0  0  0  0  0  0  0  0
    7.3735   -0.6966   20.9659 C   0  0  0  0  0  0  0  0  0  0  0  0
    6.6528    0.0213   19.8882 C   0  0  0  0  0  0  0  0  0  0  0  0
    5.4281    0.6537   20.1420 C   0  0  0  0  0  0  0  0  0  0  0  0
    4.7968    1.3197   19.0920 C   0  0  0  0  0  0  0  0  0  0  0  0
    5.3864    1.3003   17.8228 C   0  0  0  0  0  0  0  0  0  0  0  0
    6.5455    0.6808   17.5548 N   0  0  0  0  0  0  0  0  0  0  0  0
    7.1625    0.0738   18.5764 C   0  0  0  0  0  0  0  0  0  0  0  0
    8.1091   -0.4116   18.3523 H   0  0  0  0  0  0  0  0  0  0  0  0
    4.9127    1.7963   16.9804 H   0  0  0  0  0  0  0  0  0  0  0  0
    3.8685    1.8488   19.2439 H   0  0  0  0  0  0  0  0  0  0  0  0
    5.0124    0.6324   21.1536 H   0  0  0  0  0  0  0  0  0  0  0  0
    5.6435   -1.8107   21.5612 H   0  0  0  0  0  0  0  0  0  0  0  0
    9.2303   -2.6421   23.8017 H   0  0  0  0  0  0  0  0  0  0  0  0
   10.4766   -0.9717   22.3821 H   0  0  0  0  0  0  0  0  0  0  0  0
  1  2  1  0
  2  3  2  0
  3  4  1  0
  4  5  2  0
  5  6  1  0
  6  7  1  0
  7  8  1  0
  8  9  2  0
  9 10  1  0
 10 11  2  0
 10 12  1  0
  9 13  1  0
  8 14  1  0
  6 15  1  0
  6 16  1  0
  5 17  1  0
 17 18  2  0
 18 19  1  0
 19 20  2  0
 20 21  1  0
 21 22  2  0
 22 23  1  0
 23 24  2  0
 24 25  1  0
 22 26  1  0
 21 27  1  0
 20 28  1  0
 17 29  1  0
  4 30  1  0
  3 31  1  0
 18  2  1  0
 24 19  1  0
 11  7  1  0
M  END
>  <plip>  (1) 
-0.10344827586206896

>  <filename>  (1) 
[H][c]1[n][c]([H])[c](-[c]2[c]([H])[c]([C]([H])([H])[n]3[n][c]([H])[c]([H])[c]3[H])[c]([H])[c]([H])[c]2[F])[c]([H])[c]1[H]

$$$$
