
     RDKit          3D

 47 50  0  0  0  0  0  0  0  0999 V2000
    6.9642   -6.4343   22.6615 O   0  0  0  0  0  0  0  0  0  0  0  0
    5.8572   -5.9545   22.7482 C   0  0  0  0  0  0  0  0  0  0  0  0
    4.7556   -6.6853   22.3946 N   0  0  0  0  0  0  0  0  0  0  0  0
    3.4123   -6.4057   22.6724 C   0  0  0  0  0  0  0  0  0  0  0  0
    2.4089   -7.1484   22.0421 C   0  0  0  0  0  0  0  0  0  0  0  0
    1.0648   -6.8257   22.2295 C   0  0  0  0  0  0  0  0  0  0  0  0
    0.7141   -5.7425   23.0414 C   0  0  0  0  0  0  0  0  0  0  0  0
    1.7078   -5.0171   23.7064 C   0  0  0  0  0  0  0  0  0  0  0  0
    3.0572   -5.3655   23.5568 C   0  0  0  0  0  0  0  0  0  0  0  0
    4.3080   -4.5334   24.5076 S   0  0  0  0  0  0  0  0  0  0  0  0
    5.5934   -4.5044   23.2054 C   0  0  0  0  0  0  0  0  0  0  0  0
    5.1082   -3.5331   22.0740 C   0  0  0  0  0  0  0  0  0  0  0  0
    6.0471   -2.7321   21.1765 C   0  0  0  0  0  0  0  0  0  0  0  0
    6.1034   -2.9777   19.9815 O   0  0  0  0  0  0  0  0  0  0  0  0
    6.7523   -1.7000   21.7487 N   0  0  0  0  0  0  0  0  0  0  0  0
    6.8236   -1.4227   23.1918 C   0  0  0  0  0  0  0  0  0  0  0  0
    6.6274    0.0760   23.4567 C   0  0  0  0  0  0  0  0  0  0  0  0
    7.6581    0.9528   22.7116 N   0  0  0  0  0  4  0  0  0  0  0  0
    8.4236    0.1664   21.6056 C   0  0  0  0  0  0  0  0  0  0  0  0
    7.5536   -0.8600   20.8385 C   0  0  0  0  0  0  0  0  0  0  0  0
    6.7212   -0.1663   19.7710 C   0  0  0  0  0  0  0  0  0  0  0  0
    5.5770    0.5858   20.0651 C   0  0  0  0  0  0  0  0  0  0  0  0
    4.9936    1.3450   19.0489 C   0  0  0  0  0  0  0  0  0  0  0  0
    5.5478    1.2950   17.7656 C   0  0  0  0  0  0  0  0  0  0  0  0
    6.6223    0.5532   17.4559 N   0  0  0  0  0  0  0  0  0  0  0  0
    7.1778   -0.1545   18.4482 C   0  0  0  0  0  0  0  0  0  0  0  0
    8.0660   -0.7296   18.1773 H   0  0  0  0  0  0  0  0  0  0  0  0
    5.1149    1.8789   16.9539 H   0  0  0  0  0  0  0  0  0  0  0  0
    4.1301    1.9714   19.2430 H   0  0  0  0  0  0  0  0  0  0  0  0
    5.1378    0.5794   21.0634 H   0  0  0  0  0  0  0  0  0  0  0  0
    8.2590   -1.5168   20.3167 H   0  0  0  0  0  0  0  0  0  0  0  0
    8.8300    0.8636   20.8756 H   0  0  0  0  0  0  0  0  0  0  0  0
    9.2571   -0.3728   22.0543 H   0  0  0  0  0  0  0  0  0  0  0  0
    8.3249    1.3513   23.4059 H   0  0  0  0  0  0  0  0  0  0  0  0
    7.1729    1.7490   22.2329 H   0  0  0  0  0  0  0  0  0  0  0  0
    6.6729    0.2780   24.5275 H   0  0  0  0  0  0  0  0  0  0  0  0
    5.6223    0.3422   23.1236 H   0  0  0  0  0  0  0  0  0  0  0  0
    6.0478   -1.9771   23.7207 H   0  0  0  0  0  0  0  0  0  0  0  0
    7.7975   -1.7421   23.5920 H   0  0  0  0  0  0  0  0  0  0  0  0
    4.4951   -4.1205   21.4084 H   0  0  0  0  0  0  0  0  0  0  0  0
    4.3929   -2.8334   22.4973 H   0  0  0  0  0  0  0  0  0  0  0  0
    6.5187   -4.2073   23.6970 H   0  0  0  0  0  0  0  0  0  0  0  0
    1.4403   -4.1705   24.3342 H   0  0  0  0  0  0  0  0  0  0  0  0
   -0.3299   -5.4695   23.1614 H   0  0  0  0  0  0  0  0  0  0  0  0
    0.3033   -7.4202   21.7277 H   0  0  0  0  0  0  0  0  0  0  0  0
    2.6985   -7.9677   21.3947 H   0  0  0  0  0  0  0  0  0  0  0  0
    5.0067   -7.6053   22.0705 H   0  0  0  0  0  0  0  0  0  0  0  0
  1  2  2  0
  2  3  1  0
  3  4  1  0
  4  5  2  0
  5  6  1  0
  6  7  2  0
  7  8  1  0
  8  9  2  0
  9 10  1  0
 10 11  1  0
 11 12  1  0
 12 13  1  0
 13 14  2  0
 13 15  1  0
 15 16  1  0
 16 17  1  0
 17 18  1  0
 18 19  1  0
 19 20  1  0
 20 21  1  0
 21 22  2  0
 22 23  1  0
 23 24  2  0
 24 25  1  0
 25 26  2  0
 26 27  1  0
 24 28  1  0
 23 29  1  0
 22 30  1  0
 20 31  1  0
 19 32  1  0
 19 33  1  0
 18 34  1  0
 18 35  1  0
 17 36  1  0
 17 37  1  0
 16 38  1  0
 16 39  1  0
 12 40  1  0
 12 41  1  0
 11 42  1  0
  8 43  1  0
  7 44  1  0
  6 45  1  0
  5 46  1  0
  3 47  1  0
 11  2  1  0
 20 15  1  0
 26 21  1  0
  9  4  1  0
M  CHG  1  18   1
M  END
>  <plip>  (1) 
-0.1724137931034483

>  <filename>  (1) 
[H][c]1[n][c]([H])[c]([C]2([H])[N]([C](=[O])[C]([H])([H])[C]3([H])[S][c]4[c]([H])[c]([H])[c]([H])[c]([H])[c]4[N]([H])[C]3=[O])[C]([H])([H])[C]([H])([H])[N+]([H])([H])[C]2([H])[H])[c]([H])[c]1[H]

$$$$
