
     RDKit          3D

 25 27  0  0  0  0  0  0  0  0999 V2000
    8.9034   -3.0435   22.1877 H   0  0  0  0  0  0  0  0  0  0  0  0
    8.3636   -2.1267   21.9796 C   0  0  0  0  0  0  0  0  0  0  0  0
    8.0406   -1.2250   22.9485 N   0  0  0  0  0  0  0  0  0  0  0  0
    7.4667   -0.2856   22.2520 C   0  0  0  0  0  0  0  0  0  0  0  0
    6.9999    0.8312   22.8786 N   0  0  0  0  0  0  0  0  0  0  0  0
    6.8572    0.6489   23.8546 H   0  0  0  0  0  0  0  0  0  0  0  0
    7.2992    2.1428   22.6078 C   0  0  0  0  0  0  0  0  0  0  0  0
    6.6399    3.0578   23.2419 N   0  0  0  0  0  0  0  0  0  0  0  0
    6.9941    4.3079   22.7763 C   0  0  0  0  0  0  0  0  0  0  0  0
    6.4773    5.1885   23.1492 H   0  0  0  0  0  0  0  0  0  0  0  0
    7.9984    4.3423   21.8710 C   0  0  0  0  0  0  0  0  0  0  0  0
    8.4328    5.2077   21.3945 H   0  0  0  0  0  0  0  0  0  0  0  0
    8.5009    2.7196   21.4812 S   0  0  0  0  0  0  0  0  0  0  0  0
    7.3684   -0.6193   20.9353 N   0  0  0  0  0  0  0  0  0  0  0  0
    6.6511    0.0131   19.8699 C   0  0  0  0  0  0  0  0  0  0  0  0
    7.1718    0.0018   18.5597 C   0  0  0  0  0  0  0  0  0  0  0  0
    8.0888   -0.5359   18.3358 H   0  0  0  0  0  0  0  0  0  0  0  0
    6.5970    0.6401   17.5359 N   0  0  0  0  0  0  0  0  0  0  0  0
    5.4443    1.2917   17.7675 C   0  0  0  0  0  0  0  0  0  0  0  0
    4.9935    1.7971   16.9150 H   0  0  0  0  0  0  0  0  0  0  0  0
    4.8213    1.3148   19.0183 C   0  0  0  0  0  0  0  0  0  0  0  0
    3.8758    1.8365   19.1329 H   0  0  0  0  0  0  0  0  0  0  0  0
    5.4320    0.6683   20.0995 C   0  0  0  0  0  0  0  0  0  0  0  0
    4.9644    0.6733   21.0850 H   0  0  0  0  0  0  0  0  0  0  0  0
    7.9962   -1.8268   20.7542 N   0  0  0  0  0  0  0  0  0  0  0  0
  1  2  1  0
  2  3  1  0
  3  4  2  0
  4  5  1  0
  5  6  1  0
  5  7  1  0
  7  8  2  0
  8  9  1  0
  9 10  1  0
  9 11  2  0
 11 12  1  0
 11 13  1  0
  4 14  1  0
 14 15  1  0
 15 16  2  0
 16 17  1  0
 16 18  1  0
 18 19  2  0
 19 20  1  0
 19 21  1  0
 21 22  1  0
 21 23  2  0
 23 24  1  0
 14 25  1  0
 25  2  2  0
 13  7  1  0
 23 15  1  0
M  END
>  <plip>  (1) 
-0.03333333333333333

>  <filename>  (1) 
[H][c]1[n][c]([N]([H])[c]2[n][c]([H])[c]([H])[s]2)[n](-[c]2[c]([H])[n][c]([H])[c]([H])[c]2[H])[n]1

$$$$
