
     RDKit          3D

 42 43  0  0  0  0  0  0  0  0999 V2000
    7.5592   -5.6379   28.6674 N   0  0  0  0  0  0  0  0  0  0  0  0
    7.8470   -4.9237   27.8019 C   0  0  0  0  0  0  0  0  0  0  0  0
    8.2102   -4.0538   26.7023 C   0  0  0  0  0  0  0  0  0  0  0  0
    8.4533   -2.6837   26.9208 C   0  0  0  0  0  0  0  0  0  0  0  0
    8.8254   -1.8639   25.8599 C   0  0  0  0  0  0  0  0  0  0  0  0
    8.9346   -2.3734   24.5521 C   0  0  0  0  0  0  0  0  0  0  0  0
    9.2937   -1.4662   23.3912 C   0  0  0  0  0  0  0  0  0  0  0  0
   10.5971   -0.8973   23.5905 O   0  0  0  0  0  0  0  0  0  0  0  0
   10.8876   -1.2117   24.4579 H   0  0  0  0  0  0  0  0  0  0  0  0
    8.2396   -0.3471   23.2283 C   0  0  0  0  0  0  0  0  0  0  0  0
    8.0265    0.2025   21.8172 N   0  0  0  0  0  4  0  0  0  0  0  0
    9.3385    0.7268   21.2145 C   0  0  0  0  0  0  0  0  0  0  0  0
    9.8975    1.9532   21.9310 C   0  0  0  0  0  0  0  0  0  0  0  0
   10.8153    2.5789   21.0443 O   0  0  0  0  0  0  0  0  0  0  0  0
   10.6654    3.5390   21.0448 H   0  0  0  0  0  0  0  0  0  0  0  0
    9.0619    2.6172   22.1988 H   0  0  0  0  0  0  0  0  0  0  0  0
   10.3980    1.6514   22.8633 H   0  0  0  0  0  0  0  0  0  0  0  0
   10.0899   -0.0650   21.2290 H   0  0  0  0  0  0  0  0  0  0  0  0
    9.1729    1.0004   20.1728 H   0  0  0  0  0  0  0  0  0  0  0  0
    7.3187   -0.7641   20.8912 C   0  0  0  0  0  0  0  0  0  0  0  0
    6.5863   -0.0032   19.8217 C   0  0  0  0  0  0  0  0  0  0  0  0
    5.3864    0.6798   20.0718 C   0  0  0  0  0  0  0  0  0  0  0  0
    4.7938    1.3858   19.0170 C   0  0  0  0  0  0  0  0  0  0  0  0
    5.4218    1.3845   17.7653 C   0  0  0  0  0  0  0  0  0  0  0  0
    6.5640    0.7290   17.5124 N   0  0  0  0  0  0  0  0  0  0  0  0
    7.1230    0.0652   18.5298 C   0  0  0  0  0  0  0  0  0  0  0  0
    8.0467   -0.4728   18.3072 H   0  0  0  0  0  0  0  0  0  0  0  0
    4.9905    1.9274   16.9226 H   0  0  0  0  0  0  0  0  0  0  0  0
    3.8709    1.9454   19.1472 H   0  0  0  0  0  0  0  0  0  0  0  0
    4.9197    0.6472   21.0602 H   0  0  0  0  0  0  0  0  0  0  0  0
    6.6309   -1.3718   21.4856 H   0  0  0  0  0  0  0  0  0  0  0  0
    8.0633   -1.4321   20.4426 H   0  0  0  0  0  0  0  0  0  0  0  0
    7.3763    1.0249   21.8505 H   0  0  0  0  0  0  0  0  0  0  0  0
    8.5514    0.4633   23.8921 H   0  0  0  0  0  0  0  0  0  0  0  0
    7.2809   -0.7230   23.6038 H   0  0  0  0  0  0  0  0  0  0  0  0
    9.3037   -2.0618   22.4685 H   0  0  0  0  0  0  0  0  0  0  0  0
    8.6668   -3.7334   24.3378 C   0  0  0  0  0  0  0  0  0  0  0  0
    8.3128   -4.5730   25.3966 C   0  0  0  0  0  0  0  0  0  0  0  0
    8.1288   -5.6301   25.2245 H   0  0  0  0  0  0  0  0  0  0  0  0
    8.7596   -4.1521   23.3367 H   0  0  0  0  0  0  0  0  0  0  0  0
    9.0406   -0.8161   26.0634 H   0  0  0  0  0  0  0  0  0  0  0  0
    8.3713   -2.2545   27.9119 H   0  0  0  0  0  0  0  0  0  0  0  0
  1  2  3  0
  2  3  1  0
  3  4  2  0
  4  5  1  0
  5  6  2  0
  6  7  1  0
  7  8  1  0
  8  9  1  0
  7 10  1  0
 10 11  1  0
 11 12  1  0
 12 13  1  0
 13 14  1  0
 14 15  1  0
 13 16  1  0
 13 17  1  0
 12 18  1  0
 12 19  1  0
 11 20  1  0
 20 21  1  0
 21 22  2  0
 22 23  1  0
 23 24  2  0
 24 25  1  0
 25 26  2  0
 26 27  1  0
 24 28  1  0
 23 29  1  0
 22 30  1  0
 20 31  1  0
 20 32  1  0
 11 33  1  0
 10 34  1  0
 10 35  1  0
  7 36  1  0
  6 37  1  0
 37 38  2  0
 38 39  1  0
 37 40  1  0
  5 41  1  0
  4 42  1  0
 38  3  1  0
 26 21  1  0
M  CHG  1  11   1
M  END
>  <plip>  (1) 
-0.10344827586206896

>  <filename>  (1) 
[H][O][C]([H])([H])[C]([H])([H])[N+]([H])([C]([H])([H])[c]1[c]([H])[n][c]([H])[c]([H])[c]1[H])[C]([H])([H])[C]([H])([O][H])[c]1[c]([H])[c]([H])[c]([C]#[N])[c]([H])[c]1[H]

$$$$
