
     RDKit          3D

 31 33  0  0  0  0  0  0  0  0999 V2000
   13.8994   -1.9684   22.3118 H   0  0  0  0  0  0  0  0  0  0  0  0
   13.0749   -1.2554   22.3638 C   0  0  0  0  0  0  0  0  0  0  0  0
   13.4188    0.0237   22.4909 N   0  0  0  0  0  0  0  0  0  0  0  0
   12.3908    0.8474   22.6069 C   0  0  0  0  0  0  0  0  0  0  0  0
   12.7151    2.1180   22.8874 N   0  0  0  0  0  0  0  0  0  0  0  0
   13.6686    2.2131   22.5926 H   0  0  0  0  0  0  0  0  0  0  0  0
   12.0239    2.6984   22.4540 H   0  0  0  0  0  0  0  0  0  0  0  0
   11.1053    0.6057   22.4276 N   0  0  0  0  0  0  0  0  0  0  0  0
   10.8208   -0.6765   22.3373 C   0  0  0  0  0  0  0  0  0  0  0  0
    9.4749   -0.9735   22.1454 N   0  0  0  0  0  0  0  0  0  0  0  0
    8.7288   -0.3367   21.1616 C   0  0  0  0  0  0  0  0  0  0  0  0
    9.2494    0.4339   20.5921 H   0  0  0  0  0  0  0  0  0  0  0  0
    7.4368   -0.6511   20.9315 C   0  0  0  0  0  0  0  0  0  0  0  0
    6.6781    0.0316   19.8444 C   0  0  0  0  0  0  0  0  0  0  0  0
    7.1798    0.1129   18.5230 C   0  0  0  0  0  0  0  0  0  0  0  0
    8.1223   -0.3740   18.2736 H   0  0  0  0  0  0  0  0  0  0  0  0
    6.5572    0.7259   17.5109 N   0  0  0  0  0  0  0  0  0  0  0  0
    5.3904    1.3299   17.7876 C   0  0  0  0  0  0  0  0  0  0  0  0
    4.9059    1.8352   16.9547 H   0  0  0  0  0  0  0  0  0  0  0  0
    4.8019    1.3191   19.0552 C   0  0  0  0  0  0  0  0  0  0  0  0
    3.8665    1.8409   19.2120 H   0  0  0  0  0  0  0  0  0  0  0  0
    5.4444    0.6481   20.0981 C   0  0  0  0  0  0  0  0  0  0  0  0
    5.0183    0.6024   21.1012 H   0  0  0  0  0  0  0  0  0  0  0  0
    6.8238   -1.7052   21.7807 C   0  0  0  0  0  0  0  0  0  0  0  0
    5.7439   -2.2415   21.6552 O   0  0  0  0  0  0  0  0  0  0  0  0
    7.6235   -2.1477   22.8106 N   0  0  0  0  0  0  0  0  0  0  0  0
    7.2375   -2.8838   23.3655 H   0  0  0  0  0  0  0  0  0  0  0  0
    8.9328   -1.9159   23.0132 C   0  0  0  0  0  0  0  0  0  0  0  0
    9.5366   -2.5000   23.8838 O   0  0  0  0  0  0  0  0  0  0  0  0
   11.7638   -1.6965   22.3507 C   0  0  0  0  0  0  0  0  0  0  0  0
   11.4905   -2.7378   22.3706 H   0  0  0  0  0  0  0  0  0  0  0  0
  1  2  1  0
  2  3  2  0
  3  4  1  0
  4  5  1  0
  5  6  1  0
  5  7  1  0
  4  8  2  0
  8  9  1  0
  9 10  1  0
 10 11  1  0
 11 12  1  0
 11 13  2  0
 13 14  1  0
 14 15  2  0
 15 16  1  0
 15 17  1  0
 17 18  2  0
 18 19  1  0
 18 20  1  0
 20 21  1  0
 20 22  2  0
 22 23  1  0
 13 24  1  0
 24 25  2  0
 24 26  1  0
 26 27  1  0
 26 28  1  0
 28 29  2  0
  9 30  2  0
 30 31  1  0
 30  2  1  0
 28 10  1  0
 22 14  1  0
M  END
>  <plip>  (1) 
-0.06896551724137931

>  <filename>  (1) 
[H][c]1[n][c]([N]([H])[H])[n][c](-[n]2[c]([H])[c](-[c]3[c]([H])[n][c]([H])[c]([H])[c]3[H])[c](=[O])[n]([H])[c]2=[O])[c]1[H]

$$$$
