
     RDKit          3D

 31 33  0  0  0  0  0  0  0  0999 V2000
    4.9086    1.7837   16.9922 H   0  0  0  0  0  0  0  0  0  0  0  0
    5.3962    1.2980   17.8342 C   0  0  0  0  0  0  0  0  0  0  0  0
    6.5610    0.6837   17.5696 N   0  0  0  0  0  0  0  0  0  0  0  0
    7.1801    0.0759   18.5870 C   0  0  0  0  0  0  0  0  0  0  0  0
    8.1211   -0.4256   18.3684 H   0  0  0  0  0  0  0  0  0  0  0  0
    6.6788    0.0006   19.9051 C   0  0  0  0  0  0  0  0  0  0  0  0
    7.3921   -0.7325   20.8902 N   0  0  0  0  0  0  0  0  0  0  0  0
    6.6423   -1.5918   21.8048 C   0  0  0  0  0  0  0  0  0  0  0  0
    6.1350   -1.0319   22.6069 H   0  0  0  0  0  0  0  0  0  0  0  0
    5.8761   -2.1139   21.2202 H   0  0  0  0  0  0  0  0  0  0  0  0
    7.5908   -2.6087   22.4307 C   0  0  0  0  0  0  0  0  0  0  0  0
    7.9524   -3.2990   21.6550 H   0  0  0  0  0  0  0  0  0  0  0  0
    7.0751   -3.1829   23.2017 H   0  0  0  0  0  0  0  0  0  0  0  0
    8.6928   -1.9610   23.0489 O   0  0  0  0  0  0  0  0  0  0  0  0
    9.4738   -1.2807   22.0783 C   0  0  0  0  0  0  0  0  0  0  0  0
   10.3265   -0.8259   22.5859 H   0  0  0  0  0  0  0  0  0  0  0  0
    9.8538   -1.9963   21.3327 H   0  0  0  0  0  0  0  0  0  0  0  0
    8.6721   -0.1897   21.3489 C   0  0  2  0  0  0  0  0  0  0  0  0
    9.2371    0.0907   20.4589 H   0  0  0  0  0  0  0  0  0  0  0  0
    8.5529    1.0381   22.1430 N   0  0  0  0  0  0  0  0  0  0  0  0
    8.0364    1.1375   23.4048 C   0  0  0  0  0  0  0  0  0  0  0  0
    7.7357    0.2822   24.0012 H   0  0  0  0  0  0  0  0  0  0  0  0
    7.9773    2.3798   23.8159 N   0  0  0  0  0  0  0  0  0  0  0  0
    8.4560    3.1380   22.7725 C   0  0  0  0  0  0  0  0  0  0  0  0
    8.5237    4.2185   22.8080 H   0  0  0  0  0  0  0  0  0  0  0  0
    8.8144    2.3357   21.7267 C   0  0  0  0  0  0  0  0  0  0  0  0
    9.1919    2.5805   20.7433 H   0  0  0  0  0  0  0  0  0  0  0  0
    5.4491    0.6433   20.1581 C   0  0  0  0  0  0  0  0  0  0  0  0
    5.0230    0.6190   21.1664 H   0  0  0  0  0  0  0  0  0  0  0  0
    4.8096    1.3112   19.1059 C   0  0  0  0  0  0  0  0  0  0  0  0
    3.8741    1.8427   19.2618 H   0  0  0  0  0  0  0  0  0  0  0  0
  1  2  1  0
  2  3  2  0
  3  4  1  0
  4  5  1  0
  4  6  2  0
  6  7  1  0
  7  8  1  0
  8  9  1  0
  8 10  1  0
  8 11  1  0
 11 12  1  0
 11 13  1  0
 11 14  1  0
 14 15  1  0
 15 16  1  0
 15 17  1  0
 15 18  1  0
 18 19  1  6
 18 20  1  0
 20 21  1  0
 21 22  1  0
 21 23  2  0
 23 24  1  0
 24 25  1  0
 24 26  2  0
 26 27  1  0
  6 28  1  0
 28 29  1  0
 28 30  2  0
 30 31  1  0
 30  2  1  0
 18  7  1  0
 26 20  1  0
M  END
>  <plip>  (1) 
-0.03571428571428571

>  <filename>  (1) 
[H][c]1[n][c]([H])[c]([N]2[C]([H])([H])[C]([H])([H])[O][C]([H])([H])[C@]2([H])[n]2[c]([H])[n][c]([H])[c]2[H])[c]([H])[c]1[H]

$$$$
