
     RDKit          3D

 31 33  0  0  0  0  0  0  0  0999 V2000
    9.2681   -1.0663   20.6688 H   0  0  0  0  0  0  0  0  0  0  0  0
    8.6368   -0.6269   21.2729 O   0  0  0  0  0  0  0  0  0  0  0  0
    7.3480   -1.0827   20.9230 N   0  0  0  0  0  0  0  0  0  0  0  0
    6.5956   -1.9347   21.7902 C   0  0  0  0  0  0  0  0  0  0  0  0
    5.4990   -2.3400   21.4674 O   0  0  0  0  0  0  0  0  0  0  0  0
    7.2437   -2.2922   22.9404 N   0  0  0  0  0  0  0  0  0  0  0  0
    8.1046   -1.8084   23.1302 H   0  0  0  0  0  0  0  0  0  0  0  0
    6.5996   -2.8661   24.0166 C   0  0  0  0  0  0  0  0  0  0  0  0
    7.4697   -3.2117   24.9980 O   0  0  0  0  0  0  0  0  0  0  0  0
    6.6967   -3.6940   26.0199 C   0  0  0  0  0  0  0  0  0  0  0  0
    7.1483   -4.1690   27.2448 C   0  0  0  0  0  0  0  0  0  0  0  0
    8.2076   -4.2065   27.4785 H   0  0  0  0  0  0  0  0  0  0  0  0
    6.1633   -4.5584   28.1557 C   0  0  0  0  0  0  0  0  0  0  0  0
    6.4720   -4.9477   29.1224 H   0  0  0  0  0  0  0  0  0  0  0  0
    4.7888   -4.4494   27.8505 C   0  0  0  0  0  0  0  0  0  0  0  0
    4.0600   -4.7180   28.6089 H   0  0  0  0  0  0  0  0  0  0  0  0
    4.3639   -3.9930   26.6054 C   0  0  0  0  0  0  0  0  0  0  0  0
    3.3082   -3.9046   26.3658 H   0  0  0  0  0  0  0  0  0  0  0  0
    5.3375   -3.6233   25.6626 C   0  0  0  0  0  0  0  0  0  0  0  0
    5.3071   -3.1062   24.3185 C   0  0  0  0  0  0  0  0  0  0  0  0
    4.4610   -2.9615   23.6685 H   0  0  0  0  0  0  0  0  0  0  0  0
    6.7195   -0.2556   19.9434 C   0  0  0  0  0  0  0  0  0  0  0  0
    7.3461   -0.0874   18.6937 C   0  0  0  0  0  0  0  0  0  0  0  0
    8.3010   -0.5805   18.5153 H   0  0  0  0  0  0  0  0  0  0  0  0
    6.8244    0.6223   17.6912 N   0  0  0  0  0  0  0  0  0  0  0  0
    5.6566    1.2452   17.9254 C   0  0  0  0  0  0  0  0  0  0  0  0
    5.2646    1.8398   17.1064 H   0  0  0  0  0  0  0  0  0  0  0  0
    4.9614    1.1600   19.1369 C   0  0  0  0  0  0  0  0  0  0  0  0
    4.0349    1.7101   19.2611 H   0  0  0  0  0  0  0  0  0  0  0  0
    5.4817    0.3764   20.1710 C   0  0  0  0  0  0  0  0  0  0  0  0
    4.9480    0.2548   21.1164 H   0  0  0  0  0  0  0  0  0  0  0  0
  1  2  1  0
  2  3  1  0
  3  4  1  0
  4  5  2  0
  4  6  1  0
  6  7  1  0
  6  8  1  0
  8  9  1  0
  9 10  1  0
 10 11  2  0
 11 12  1  0
 11 13  1  0
 13 14  1  0
 13 15  2  0
 15 16  1  0
 15 17  1  0
 17 18  1  0
 17 19  2  0
 19 20  1  0
 20 21  1  0
  3 22  1  0
 22 23  2  0
 23 24  1  0
 23 25  1  0
 25 26  2  0
 26 27  1  0
 26 28  1  0
 28 29  1  0
 28 30  2  0
 30 31  1  0
 20  8  2  0
 30 22  1  0
 19 10  1  0
M  END
>  <plip>  (1) 
-0.06896551724137931

>  <filename>  (1) 
[H][O][N]([C](=[O])[N]([H])[c]1[o][c]2[c]([H])[c]([H])[c]([H])[c]([H])[c]2[c]1[H])[c]1[c]([H])[n][c]([H])[c]([H])[c]1[H]

$$$$
