
     RDKit          3D

 34 36  0  0  0  0  0  0  0  0999 V2000
    4.9547    1.8491   16.9490 H   0  0  0  0  0  0  0  0  0  0  0  0
    5.4239    1.3255   17.7826 C   0  0  0  0  0  0  0  0  0  0  0  0
    6.5925    0.7160   17.5305 N   0  0  0  0  0  0  0  0  0  0  0  0
    7.1889    0.0716   18.5447 C   0  0  0  0  0  0  0  0  0  0  0  0
    8.1463   -0.3877   18.2905 H   0  0  0  0  0  0  0  0  0  0  0  0
    6.6650   -0.0176   19.8554 C   0  0  0  0  0  0  0  0  0  0  0  0
    7.3794   -0.7212   21.0102 C   0  0  2  0  0  0  0  0  0  0  0  0
    8.1493   -1.3940   20.6095 H   0  0  0  0  0  0  0  0  0  0  0  0
    6.4830   -1.6528   21.8636 C   0  0  0  0  0  0  0  0  0  0  0  0
    5.7232   -2.5285   21.4937 O   0  0  0  0  0  0  0  0  0  0  0  0
    6.7528   -1.3659   23.1587 N   0  0  0  0  0  0  0  0  0  0  0  0
    6.2178   -1.8757   23.8405 H   0  0  0  0  0  0  0  0  0  0  0  0
    7.7527   -0.3644   23.4376 C   0  0  0  0  0  0  0  0  0  0  0  0
    8.6642   -0.8224   23.8521 H   0  0  0  0  0  0  0  0  0  0  0  0
    7.3859    0.3796   24.1662 H   0  0  0  0  0  0  0  0  0  0  0  0
    8.0209    0.2685   22.0441 C   0  0  1  0  0  0  0  0  0  0  0  0
    7.4969    1.2278   21.9681 H   0  0  0  0  0  0  0  0  0  0  0  0
    9.5164    0.5509   21.8154 C   0  0  0  0  0  0  0  0  0  0  0  0
   10.2351   -0.3595   21.4486 O   0  0  0  0  0  0  0  0  0  0  0  0
   10.0906    1.9383   22.0496 C   0  0  0  0  0  0  0  0  0  0  0  0
   11.3095    2.2762   21.4170 C   0  0  0  0  0  0  0  0  0  0  0  0
   11.7893    1.5489   20.7671 H   0  0  0  0  0  0  0  0  0  0  0  0
   11.9143    3.5156   21.6203 C   0  0  0  0  0  0  0  0  0  0  0  0
   12.8357    3.8018   21.1200 H   0  0  0  0  0  0  0  0  0  0  0  0
   11.2870    4.4305   22.4654 C   0  0  0  0  0  0  0  0  0  0  0  0
   11.8684    5.6215   22.6728 F   0  0  0  0  0  0  0  0  0  0  0  0
   10.0665    4.1571   23.0777 C   0  0  0  0  0  0  0  0  0  0  0  0
    9.5938    4.9247   23.6820 H   0  0  0  0  0  0  0  0  0  0  0  0
    9.4726    2.9089   22.8667 C   0  0  0  0  0  0  0  0  0  0  0  0
    8.5180    2.7055   23.3517 H   0  0  0  0  0  0  0  0  0  0  0  0
    5.4458    0.6341   20.0857 C   0  0  0  0  0  0  0  0  0  0  0  0
    5.0114    0.6327   21.0858 H   0  0  0  0  0  0  0  0  0  0  0  0
    4.8153    1.3091   19.0383 C   0  0  0  0  0  0  0  0  0  0  0  0
    3.8838    1.8380   19.1888 H   0  0  0  0  0  0  0  0  0  0  0  0
  1  2  1  0
  2  3  2  0
  3  4  1  0
  4  5  1  0
  4  6  2  0
  6  7  1  0
  7  8  1  6
  7  9  1  0
  9 10  2  0
  9 11  1  0
 11 12  1  0
 11 13  1  0
 13 14  1  0
 13 15  1  0
 13 16  1  0
 16 17  1  1
 16 18  1  0
 18 19  2  0
 18 20  1  0
 20 21  2  0
 21 22  1  0
 21 23  1  0
 23 24  1  0
 23 25  2  0
 25 26  1  0
 25 27  1  0
 27 28  1  0
 27 29  2  0
 29 30  1  0
  6 31  1  0
 31 32  1  0
 31 33  2  0
 33 34  1  0
 33  2  1  0
 16  7  1  0
 29 20  1  0
M  END
>  <plip>  (1) 
-0.10714285714285714

>  <filename>  (1) 
[H][c]1[n][c]([H])[c]([C@]2([H])[C](=[O])[N]([H])[C]([H])([H])[C@@]2([H])[C](=[O])[c]2[c]([H])[c]([H])[c]([F])[c]([H])[c]2[H])[c]([H])[c]1[H]

$$$$
