
     RDKit          3D

 28 29  0  0  0  0  0  0  0  0999 V2000
    4.9433    1.7811   17.0000 H   0  0  0  0  0  0  0  0  0  0  0  0
    5.4198    1.2776   17.8365 C   0  0  0  0  0  0  0  0  0  0  0  0
    6.5867    0.6547   17.5756 N   0  0  0  0  0  0  0  0  0  0  0  0
    7.2127    0.0659   18.6028 C   0  0  0  0  0  0  0  0  0  0  0  0
    8.1590   -0.4300   18.3748 H   0  0  0  0  0  0  0  0  0  0  0  0
    6.7182    0.0557   19.9313 C   0  0  0  0  0  0  0  0  0  0  0  0
    7.4896   -0.5193   20.9919 N   0  0  0  0  0  0  0  0  0  0  0  0
    7.9228   -1.4163   20.7849 H   0  0  0  0  0  0  0  0  0  0  0  0
    6.8410   -0.8682   22.5321 S   0  0  0  0  0  4  0  0  0  0  0  0
    7.1705   -2.3197   22.5781 O   0  0  0  0  0  0  0  0  0  0  0  0
    8.1105   -0.0088   23.5150 C   0  0  0  0  0  0  0  0  0  0  0  0
    9.0210   -0.5766   23.3045 H   0  0  0  0  0  0  0  0  0  0  0  0
    8.1907    0.9982   23.0949 H   0  0  0  0  0  0  0  0  0  0  0  0
    7.7590   -0.0185   24.9743 C   0  0  0  0  0  0  0  0  0  0  0  0
    8.1747   -1.0809   25.7906 C   0  0  0  0  0  0  0  0  0  0  0  0
    8.7616   -1.8934   25.3669 H   0  0  0  0  0  0  0  0  0  0  0  0
    7.8103   -1.1045   27.1398 C   0  0  0  0  0  0  0  0  0  0  0  0
    8.1381   -1.9304   27.7626 H   0  0  0  0  0  0  0  0  0  0  0  0
    7.0282   -0.0826   27.6834 C   0  0  0  0  0  0  0  0  0  0  0  0
    6.7314   -0.0935   28.7287 H   0  0  0  0  0  0  0  0  0  0  0  0
    6.6197    0.9688   26.8578 C   0  0  0  0  0  0  0  0  0  0  0  0
    5.6306    2.2388   27.5156 Cl  0  0  0  0  0  0  0  0  0  0  0  0
    6.9814    1.0130   25.5109 C   0  0  0  0  0  0  0  0  0  0  0  0
    6.6417    1.8408   24.8909 H   0  0  0  0  0  0  0  0  0  0  0  0
    5.4779    0.6669   20.1720 C   0  0  0  0  0  0  0  0  0  0  0  0
    5.0524    0.6422   21.1758 H   0  0  0  0  0  0  0  0  0  0  0  0
    4.8277    1.2913   19.1036 C   0  0  0  0  0  0  0  0  0  0  0  0
    3.8806    1.8028   19.2568 H   0  0  0  0  0  0  0  0  0  0  0  0
  1  2  1  0
  2  3  2  0
  3  4  1  0
  4  5  1  0
  4  6  2  0
  6  7  1  0
  7  8  1  0
  9  7  1  6
  9 10  2  0
  9 11  1  0
 11 12  1  0
 11 13  1  0
 11 14  1  0
 14 15  2  0
 15 16  1  0
 15 17  1  0
 17 18  1  0
 17 19  2  0
 19 20  1  0
 19 21  1  0
 21 22  1  0
 21 23  2  0
 23 24  1  0
  6 25  1  0
 25 26  1  0
 25 27  2  0
 27 28  1  0
 27  2  1  0
 23 14  1  0
M  END
>  <plip>  (1) 
-0.03571428571428571

>  <filename>  (1) 
[H][c]1[n][c]([H])[c]([N]([H])[S@@](=[O])[C]([H])([H])[c]2[c]([H])[c]([H])[c]([H])[c]([Cl])[c]2[H])[c]([H])[c]1[H]

$$$$
