
     RDKit          3D

 30 32  0  0  0  0  0  0  0  0999 V2000
    4.9563    1.7847   17.0053 H   0  0  0  0  0  0  0  0  0  0  0  0
    5.4215    1.2714   17.8421 C   0  0  0  0  0  0  0  0  0  0  0  0
    6.5826    0.6430   17.5870 N   0  0  0  0  0  0  0  0  0  0  0  0
    7.2124    0.0552   18.6169 C   0  0  0  0  0  0  0  0  0  0  0  0
    8.1553   -0.4441   18.4053 H   0  0  0  0  0  0  0  0  0  0  0  0
    6.6874    0.0475   19.9220 C   0  0  0  0  0  0  0  0  0  0  0  0
    7.4285   -0.4955   20.9733 O   0  0  0  0  0  0  0  0  0  0  0  0
    6.8686   -1.4512   21.8014 C   0  0  0  0  0  0  0  0  0  0  0  0
    5.8310   -2.0020   21.5256 O   0  0  0  0  0  0  0  0  0  0  0  0
    7.7303   -1.6966   23.0119 C   0  0  0  0  0  0  0  0  0  0  0  0
    8.6037   -0.7224   23.4782 C   0  0  0  0  0  0  0  0  0  0  0  0
    8.7213    0.2157   22.9427 H   0  0  0  0  0  0  0  0  0  0  0  0
    9.3485   -0.9047   24.6717 C   0  0  0  0  0  0  0  0  0  0  0  0
   10.0514   -0.1392   24.9848 H   0  0  0  0  0  0  0  0  0  0  0  0
    9.2048   -2.0505   25.4143 C   0  0  0  0  0  0  0  0  0  0  0  0
    9.6757   -2.1700   26.3863 H   0  0  0  0  0  0  0  0  0  0  0  0
    8.3809   -3.1067   24.9431 C   0  0  0  0  0  0  0  0  0  0  0  0
    8.3131   -4.3357   25.6578 C   0  0  0  0  0  0  0  0  0  0  0  0
    8.9274   -4.4465   26.5469 H   0  0  0  0  0  0  0  0  0  0  0  0
    7.4919   -5.3522   25.2364 C   0  0  0  0  0  0  0  0  0  0  0  0
    7.4322   -6.2760   25.8054 H   0  0  0  0  0  0  0  0  0  0  0  0
    6.7037   -5.1844   24.0707 C   0  0  0  0  0  0  0  0  0  0  0  0
    6.0405   -5.9888   23.7587 H   0  0  0  0  0  0  0  0  0  0  0  0
    6.7578   -4.0144   23.3478 C   0  0  0  0  0  0  0  0  0  0  0  0
    6.1326   -3.8743   22.4797 H   0  0  0  0  0  0  0  0  0  0  0  0
    7.6118   -2.9370   23.7451 C   0  0  0  0  0  0  0  0  0  0  0  0
    5.4549    0.6535   20.1699 C   0  0  0  0  0  0  0  0  0  0  0  0
    5.0244    0.5992   21.1692 H   0  0  0  0  0  0  0  0  0  0  0  0
    4.8173    1.2988   19.1058 C   0  0  0  0  0  0  0  0  0  0  0  0
    3.8815    1.8321   19.2556 H   0  0  0  0  0  0  0  0  0  0  0  0
  1  2  1  0
  2  3  2  0
  3  4  1  0
  4  5  1  0
  4  6  2  0
  6  7  1  0
  7  8  1  0
  8  9  2  0
  8 10  1  0
 10 11  2  0
 11 12  1  0
 11 13  1  0
 13 14  1  0
 13 15  2  0
 15 16  1  0
 15 17  1  0
 17 18  2  0
 18 19  1  0
 18 20  1  0
 20 21  1  0
 20 22  2  0
 22 23  1  0
 22 24  1  0
 24 25  1  0
 24 26  2  0
  6 27  1  0
 27 28  1  0
 27 29  2  0
 29 30  1  0
 29  2  1  0
 26 10  1  0
 26 17  1  0
M  END
>  <plip>  (1) 
-0.10714285714285714

>  <filename>  (1) 
[H][c]1[n][c]([H])[c]([O][C](=[O])[c]2[c]([H])[c]([H])[c]([H])[c]3[c]([H])[c]([H])[c]([H])[c]([H])[c]23)[c]([H])[c]1[H]

$$$$
