
     RDKit          3D

 37 38  0  0  0  0  0  0  0  0999 V2000
    5.0045    1.7908   17.0006 H   0  0  0  0  0  0  0  0  0  0  0  0
    5.4214    1.2627   17.8534 C   0  0  0  0  0  0  0  0  0  0  0  0
    6.5798    0.6220   17.6415 N   0  0  0  0  0  0  0  0  0  0  0  0
    7.1366    0.0049   18.6838 C   0  0  0  0  0  0  0  0  0  0  0  0
    8.1076   -0.4609   18.5187 H   0  0  0  0  0  0  0  0  0  0  0  0
    6.5505   -0.0568   19.9502 C   0  0  0  0  0  0  0  0  0  0  0  0
    7.3796   -0.7580   20.9533 C   0  0  0  0  0  0  0  0  0  0  0  0
    8.5940   -0.8559   20.8356 O   0  0  0  0  0  0  0  0  0  0  0  0
    6.7089   -1.2462   22.0312 N   0  0  0  0  0  0  0  0  0  0  0  0
    5.7103   -1.3245   21.9355 H   0  0  0  0  0  0  0  0  0  0  0  0
    7.3650   -1.7615   23.2541 C   0  0  0  0  0  0  0  0  0  0  0  0
    8.3378   -0.7165   23.9589 C   0  0  0  0  0  0  0  0  0  0  0  0
    9.3653   -1.0720   24.5036 O   0  0  0  0  0  0  0  0  0  0  0  0
    7.9198    0.5869   23.9419 N   0  0  0  0  0  0  0  0  0  0  0  0
    7.0042    0.7406   23.5573 H   0  0  0  0  0  0  0  0  0  0  0  0
    8.7405    1.7086   24.0891 C   0  0  0  0  0  0  0  0  0  0  0  0
    8.2008    2.8870   24.5948 C   0  0  0  0  0  0  0  0  0  0  0  0
    7.1535    2.9424   24.8671 H   0  0  0  0  0  0  0  0  0  0  0  0
    9.0619    3.9694   24.7548 C   0  0  0  0  0  0  0  0  0  0  0  0
    8.6884    4.8999   25.1839 H   0  0  0  0  0  0  0  0  0  0  0  0
   10.3570    3.9537   24.4144 N   0  0  0  0  0  0  0  0  0  0  0  0
   10.8377    2.8159   23.8938 C   0  0  0  0  0  0  0  0  0  0  0  0
   11.8924    2.8191   23.6156 H   0  0  0  0  0  0  0  0  0  0  0  0
   10.0804    1.6651   23.7107 C   0  0  0  0  0  0  0  0  0  0  0  0
   10.4908    0.7607   23.2810 H   0  0  0  0  0  0  0  0  0  0  0  0
    8.1492   -3.0328   22.9009 C   0  0  0  0  0  0  0  0  0  0  0  0
    8.9507   -2.8044   22.1970 H   0  0  0  0  0  0  0  0  0  0  0  0
    7.4679   -3.7509   22.4340 H   0  0  0  0  0  0  0  0  0  0  0  0
    8.5791   -3.4669   23.8089 H   0  0  0  0  0  0  0  0  0  0  0  0
    6.2599   -2.1188   24.2510 C   0  0  0  0  0  0  0  0  0  0  0  0
    6.6939   -2.5386   25.1659 H   0  0  0  0  0  0  0  0  0  0  0  0
    5.6562   -1.2502   24.5309 H   0  0  0  0  0  0  0  0  0  0  0  0
    5.5960   -2.8689   23.8081 H   0  0  0  0  0  0  0  0  0  0  0  0
    5.3363    0.6204   20.1681 C   0  0  0  0  0  0  0  0  0  0  0  0
    4.8637    0.6829   21.1538 H   0  0  0  0  0  0  0  0  0  0  0  0
    4.7666    1.2935   19.0907 C   0  0  0  0  0  0  0  0  0  0  0  0
    3.8534    1.8671   19.2063 H   0  0  0  0  0  0  0  0  0  0  0  0
  1  2  1  0
  2  3  2  0
  3  4  1  0
  4  5  1  0
  4  6  2  0
  6  7  1  0
  7  8  2  0
  7  9  1  0
  9 10  1  0
  9 11  1  0
 11 12  1  0
 12 13  2  0
 12 14  1  0
 14 15  1  0
 14 16  1  0
 16 17  2  0
 17 18  1  0
 17 19  1  0
 19 20  1  0
 19 21  2  0
 21 22  1  0
 22 23  1  0
 22 24  2  0
 24 25  1  0
 11 26  1  0
 26 27  1  0
 26 28  1  0
 26 29  1  0
 11 30  1  0
 30 31  1  0
 30 32  1  0
 30 33  1  0
  6 34  1  0
 34 35  1  0
 34 36  2  0
 36 37  1  0
 36  2  1  0
 24 16  1  0
M  END
>  <plip>  (1) 
-0.03571428571428571

>  <filename>  (1) 
[H][c]1[n][c]([H])[c]([C](=[O])[N]([H])[C]([C](=[O])[N]([H])[c]2[c]([H])[c]([H])[n][c]([H])[c]2[H])([C]([H])([H])[H])[C]([H])([H])[H])[c]([H])[c]1[H]

$$$$
