
     RDKit          3D

 47 49  0  0  0  0  0  0  0  0999 V2000
    5.1347   -3.3761   22.0807 C   0  0  0  0  0  0  0  0  0  0  0  0
    5.6298   -2.1468   21.6122 O   0  0  0  0  0  0  0  0  0  0  0  0
    6.9799   -2.1388   21.2073 C   0  0  0  0  0  0  0  0  0  0  0  0
    7.4969   -0.7153   20.9384 C   0  0  2  0  0  0  0  0  0  0  0  0
    7.6579    0.0710   22.1578 N   0  0  0  0  0  0  0  0  0  0  0  0
    8.3765    1.2471   22.0781 C   0  0  0  0  0  0  0  0  0  0  0  0
    9.1331    1.4803   21.1544 O   0  0  0  0  0  0  0  0  0  0  0  0
    8.2595    2.1786   23.2962 C   0  0  0  0  0  0  0  0  0  0  0  0
    7.9417    3.5358   23.0054 O   0  0  0  0  0  0  0  0  0  0  0  0
    6.6975    3.8934   22.5637 C   0  0  0  0  0  0  0  0  0  0  0  0
    6.6118    5.1780   21.9925 C   0  0  0  0  0  0  0  0  0  0  0  0
    5.3988    5.6412   21.5146 C   0  0  0  0  0  0  0  0  0  0  0  0
    4.2308    4.8352   21.5613 C   0  0  0  0  0  0  0  0  0  0  0  0
    2.9563    5.1665   20.9047 C   0  0  0  0  0  0  0  0  0  0  0  0
    2.8004    6.4304   20.1000 C   0  0  0  0  0  0  0  0  0  0  0  0
    3.4820    6.4244   19.2455 H   0  0  0  0  0  0  0  0  0  0  0  0
    1.7835    6.5285   19.7144 H   0  0  0  0  0  0  0  0  0  0  0  0
    3.0258    7.3184   20.6920 H   0  0  0  0  0  0  0  0  0  0  0  0
    1.9474    4.2734   20.9752 C   0  0  0  0  0  0  0  0  0  0  0  0
    2.0859    2.9871   21.6567 C   0  0  0  0  0  0  0  0  0  0  0  0
    1.2265    2.1459   21.7062 O   0  0  0  0  0  0  0  0  0  0  0  0
    3.2859    2.7265   22.2836 O   0  0  0  0  0  0  0  0  0  0  0  0
    4.3517    3.5727   22.1699 C   0  0  0  0  0  0  0  0  0  0  0  0
    5.5666    3.0860   22.6571 C   0  0  0  0  0  0  0  0  0  0  0  0
    5.5856    2.0749   23.0434 H   0  0  0  0  0  0  0  0  0  0  0  0
    0.9817    4.4137   20.5110 H   0  0  0  0  0  0  0  0  0  0  0  0
    5.3475    6.6175   21.0391 H   0  0  0  0  0  0  0  0  0  0  0  0
    7.5312    5.7485   21.8962 H   0  0  0  0  0  0  0  0  0  0  0  0
    9.2541    2.2295   23.7470 H   0  0  0  0  0  0  0  0  0  0  0  0
    7.5797    1.7568   24.0466 H   0  0  0  0  0  0  0  0  0  0  0  0
    6.8498    0.0555   22.7673 H   0  0  0  0  0  0  0  0  0  0  0  0
    6.6958    0.0460   19.8945 C   0  0  0  0  0  0  0  0  0  0  0  0
    5.4708    0.6812   20.1421 C   0  0  0  0  0  0  0  0  0  0  0  0
    4.8258    1.3174   19.0768 C   0  0  0  0  0  0  0  0  0  0  0  0
    5.4233    1.3026   17.8098 C   0  0  0  0  0  0  0  0  0  0  0  0
    6.5962    0.7084   17.5568 N   0  0  0  0  0  0  0  0  0  0  0  0
    7.2040    0.1154   18.5923 C   0  0  0  0  0  0  0  0  0  0  0  0
    8.1638   -0.3544   18.3722 H   0  0  0  0  0  0  0  0  0  0  0  0
    4.9392    1.7827   16.9607 H   0  0  0  0  0  0  0  0  0  0  0  0
    3.8791    1.8283   19.2190 H   0  0  0  0  0  0  0  0  0  0  0  0
    5.0146    0.6931   21.1397 H   0  0  0  0  0  0  0  0  0  0  0  0
    8.5093   -0.8460   20.5366 H   0  0  0  0  0  0  0  0  0  0  0  0
    7.6357   -2.5843   21.9722 H   0  0  0  0  0  0  0  0  0  0  0  0
    7.1033   -2.7171   20.2841 H   0  0  0  0  0  0  0  0  0  0  0  0
    5.8116   -3.8446   22.8084 H   0  0  0  0  0  0  0  0  0  0  0  0
    4.9211   -4.0853   21.2680 H   0  0  0  0  0  0  0  0  0  0  0  0
    4.2045   -3.1538   22.6026 H   0  0  0  0  0  0  0  0  0  0  0  0
  1  2  1  0
  2  3  1  0
  3  4  1  0
  4  5  1  0
  5  6  1  0
  6  7  2  0
  6  8  1  0
  8  9  1  0
  9 10  1  0
 10 11  2  0
 11 12  1  0
 12 13  2  0
 13 14  1  0
 14 15  1  0
 15 16  1  0
 15 17  1  0
 15 18  1  0
 14 19  2  0
 19 20  1  0
 20 21  2  0
 20 22  1  0
 22 23  1  0
 23 24  2  0
 24 25  1  0
 19 26  1  0
 12 27  1  0
 11 28  1  0
  8 29  1  0
  8 30  1  0
  5 31  1  0
  4 32  1  0
 32 33  2  0
 33 34  1  0
 34 35  2  0
 35 36  1  0
 36 37  2  0
 37 38  1  0
 35 39  1  0
 34 40  1  0
 33 41  1  0
  4 42  1  6
  3 43  1  0
  3 44  1  0
  1 45  1  0
  1 46  1  0
  1 47  1  0
 24 10  1  0
 37 32  1  0
 23 13  1  0
M  END
>  <plip>  (1) 
-0.1724137931034483

>  <filename>  (1) 
[H][c]1[n][c]([H])[c]([C@@]([H])([N]([H])[C](=[O])[C]([H])([H])[O][c]2[c]([H])[c]([H])[c]3[c]([C]([H])([H])[H])[c]([H])[c](=[O])[o][c]3[c]2[H])[C]([H])([H])[O][C]([H])([H])[H])[c]([H])[c]1[H]

$$$$
