
     RDKit          3D

 28 30  0  0  0  0  0  0  0  0999 V2000
    4.9120    1.7821   16.9944 H   0  0  0  0  0  0  0  0  0  0  0  0
    5.3988    1.2955   17.8361 C   0  0  0  0  0  0  0  0  0  0  0  0
    6.5620    0.6780   17.5740 N   0  0  0  0  0  0  0  0  0  0  0  0
    7.1744    0.0634   18.5884 C   0  0  0  0  0  0  0  0  0  0  0  0
    8.1135   -0.4340   18.3640 H   0  0  0  0  0  0  0  0  0  0  0  0
    6.6668    0.0124   19.8990 C   0  0  0  0  0  0  0  0  0  0  0  0
    7.3675   -0.6692   20.9291 N   0  0  0  0  0  0  0  0  0  0  0  0
    8.7281   -0.8463   21.0795 C   0  0  0  0  0  0  0  0  0  0  0  0
    9.4267   -0.4285   20.3621 H   0  0  0  0  0  0  0  0  0  0  0  0
    9.0324   -1.5145   22.1518 N   0  0  0  0  0  0  0  0  0  0  0  0
    7.8284   -1.8130   22.7518 C   0  0  0  0  0  0  0  0  0  0  0  0
    7.7291   -2.5664   24.0065 C   0  0  0  0  0  0  0  0  0  0  0  0
    6.6133   -3.3550   24.3253 C   0  0  0  0  0  0  0  0  0  0  0  0
    5.6119   -3.4638   23.4312 F   0  0  0  0  0  0  0  0  0  0  0  0
    6.4776   -4.0543   25.5162 C   0  0  0  0  0  0  0  0  0  0  0  0
    5.5849   -4.6432   25.6933 H   0  0  0  0  0  0  0  0  0  0  0  0
    7.5099   -3.9796   26.4497 C   0  0  0  0  0  0  0  0  0  0  0  0
    7.4304   -4.5224   27.3826 H   0  0  0  0  0  0  0  0  0  0  0  0
    8.6471   -3.2182   26.1909 C   0  0  0  0  0  0  0  0  0  0  0  0
    9.4657   -3.1505   26.8974 H   0  0  0  0  0  0  0  0  0  0  0  0
    8.7345   -2.5296   24.9868 C   0  0  0  0  0  0  0  0  0  0  0  0
    9.8287   -1.7989   24.7726 F   0  0  0  0  0  0  0  0  0  0  0  0
    6.7999   -1.3014   22.0125 C   0  0  0  0  0  0  0  0  0  0  0  0
    5.7428   -1.3559   22.1789 H   0  0  0  0  0  0  0  0  0  0  0  0
    5.4447    0.6478   20.1616 C   0  0  0  0  0  0  0  0  0  0  0  0
    5.0156    0.6388   21.1667 H   0  0  0  0  0  0  0  0  0  0  0  0
    4.8095    1.3091   19.1066 C   0  0  0  0  0  0  0  0  0  0  0  0
    3.8758    1.8410   19.2643 H   0  0  0  0  0  0  0  0  0  0  0  0
  1  2  1  0
  2  3  2  0
  3  4  1  0
  4  5  1  0
  4  6  2  0
  6  7  1  0
  7  8  1  0
  8  9  1  0
  8 10  2  0
 10 11  1  0
 11 12  1  0
 12 13  2  0
 13 14  1  0
 13 15  1  0
 15 16  1  0
 15 17  2  0
 17 18  1  0
 17 19  1  0
 19 20  1  0
 19 21  2  0
 21 22  1  0
 11 23  2  0
 23 24  1  0
  6 25  1  0
 25 26  1  0
 25 27  2  0
 27 28  1  0
 27  2  1  0
 23  7  1  0
 21 12  1  0
M  END
>  <plip>  (1) 
-0.03571428571428571

>  <filename>  (1) 
[H][c]1[n][c]([H])[c](-[n]2[c]([H])[n][c](-[c]3[c]([F])[c]([H])[c]([H])[c]([H])[c]3[F])[c]2[H])[c]([H])[c]1[H]

$$$$
