
     RDKit          3D

 48 50  0  0  0  0  0  0  0  0999 V2000
    6.2794   -4.2232   27.2593 C   0  0  0  0  0  0  0  0  0  0  0  0
    7.5443   -5.0758   27.2100 C   0  0  0  0  0  0  0  0  0  0  0  0
    8.6360   -4.4571   26.5366 O   0  0  0  0  0  0  0  0  0  0  0  0
    8.5781   -4.1642   25.2101 C   0  0  0  0  0  0  0  0  0  0  0  0
    9.6888   -3.4410   24.7455 C   0  0  0  0  0  0  0  0  0  0  0  0
    9.7747   -3.0357   23.4215 C   0  0  0  0  0  0  0  0  0  0  0  0
    8.7539   -3.3554   22.5260 C   0  0  0  0  0  0  0  0  0  0  0  0
    8.7594   -3.0287   21.0624 C   0  0  0  0  0  0  0  0  0  0  0  0
    7.5572   -2.2250   20.7396 N   0  0  0  0  0  4  0  0  0  0  0  0
    7.5103   -0.7181   21.0724 C   0  0  0  0  0  0  0  0  0  0  0  0
    6.6497   -0.1029   19.9749 C   0  0  0  0  0  0  0  0  0  0  0  0
    5.4524    0.6129   20.1645 C   0  0  0  0  0  0  0  0  0  0  0  0
    4.8664    1.2610   19.0743 C   0  0  0  0  0  0  0  0  0  0  0  0
    5.4931    1.1873   17.8292 C   0  0  0  0  0  0  0  0  0  0  0  0
    6.6129    0.4843   17.6135 N   0  0  0  0  0  0  0  0  0  0  0  0
    7.1498   -0.1568   18.6584 C   0  0  0  0  0  0  0  0  0  0  0  0
    8.0633   -0.7105   18.4278 H   0  0  0  0  0  0  0  0  0  0  0  0
    5.0740    1.7092   16.9696 H   0  0  0  0  0  0  0  0  0  0  0  0
    3.9491    1.8297   19.1823 H   0  0  0  0  0  0  0  0  0  0  0  0
    4.9794    0.6717   21.1462 H   0  0  0  0  0  0  0  0  0  0  0  0
    8.8914   -0.0368   21.1837 C   0  0  0  0  0  0  0  0  0  0  0  0
    8.6406    1.2553   21.9853 C   0  0  0  0  0  0  0  0  0  0  0  0
    7.4462    0.9302   22.9155 C   0  0  0  0  0  0  0  0  0  0  0  0
    6.9860   -0.4792   22.4976 C   0  0  0  0  0  0  0  0  0  0  0  0
    5.9106   -0.6013   22.5448 H   0  0  0  0  0  0  0  0  0  0  0  0
    7.4280   -1.2291   23.1586 H   0  0  0  0  0  0  0  0  0  0  0  0
    6.6384    1.6610   22.7891 H   0  0  0  0  0  0  0  0  0  0  0  0
    7.7193    0.9550   23.9781 H   0  0  0  0  0  0  0  0  0  0  0  0
    8.3952    2.0879   21.3160 H   0  0  0  0  0  0  0  0  0  0  0  0
    9.5290    1.5654   22.5478 H   0  0  0  0  0  0  0  0  0  0  0  0
    9.5340   -0.6940   21.7754 H   0  0  0  0  0  0  0  0  0  0  0  0
    9.3735    0.1337   20.2155 H   0  0  0  0  0  0  0  0  0  0  0  0
    6.7966   -2.6566   21.3021 H   0  0  0  0  0  0  0  0  0  0  0  0
    7.2586   -2.3055   19.7595 H   0  0  0  0  0  0  0  0  0  0  0  0
    8.7236   -3.9766   20.5165 H   0  0  0  0  0  0  0  0  0  0  0  0
    9.6859   -2.5414   20.7415 H   0  0  0  0  0  0  0  0  0  0  0  0
    7.6368   -4.0437   23.0218 C   0  0  0  0  0  0  0  0  0  0  0  0
    6.5712   -4.1852   22.1657 O   0  0  0  0  0  0  0  0  0  0  0  0
    6.0595   -4.9204   22.5156 H   0  0  0  0  0  0  0  0  0  0  0  0
    7.5520   -4.5208   24.3242 C   0  0  0  0  0  0  0  0  0  0  0  0
    6.7133   -5.1362   24.6370 H   0  0  0  0  0  0  0  0  0  0  0  0
   10.6335   -2.4483   23.0903 H   0  0  0  0  0  0  0  0  0  0  0  0
   10.4734   -3.2399   25.4540 H   0  0  0  0  0  0  0  0  0  0  0  0
    7.9217   -5.2368   28.2221 H   0  0  0  0  0  0  0  0  0  0  0  0
    7.3405   -6.0705   26.7843 H   0  0  0  0  0  0  0  0  0  0  0  0
    6.5283   -3.1766   27.4549 H   0  0  0  0  0  0  0  0  0  0  0  0
    5.6202   -4.5678   28.0595 H   0  0  0  0  0  0  0  0  0  0  0  0
    5.7015   -4.2711   26.3340 H   0  0  0  0  0  0  0  0  0  0  0  0
  1  2  1  0
  2  3  1  0
  3  4  1  0
  4  5  2  0
  5  6  1  0
  6  7  2  0
  7  8  1  0
  8  9  1  0
  9 10  1  0
 10 11  1  0
 11 12  2  0
 12 13  1  0
 13 14  2  0
 14 15  1  0
 15 16  2  0
 16 17  1  0
 14 18  1  0
 13 19  1  0
 12 20  1  0
 10 21  1  0
 21 22  1  0
 22 23  1  0
 23 24  1  0
 24 25  1  0
 24 26  1  0
 23 27  1  0
 23 28  1  0
 22 29  1  0
 22 30  1  0
 21 31  1  0
 21 32  1  0
  9 33  1  0
  9 34  1  0
  8 35  1  0
  8 36  1  0
  7 37  1  0
 37 38  1  0
 38 39  1  0
 37 40  2  0
 40 41  1  0
  6 42  1  0
  5 43  1  0
  2 44  1  0
  2 45  1  0
  1 46  1  0
  1 47  1  0
  1 48  1  0
 40  4  1  0
 24 10  1  0
 16 11  1  0
M  CHG  1   9   1
M  END
>  <plip>  (1) 
-0.06896551724137931

>  <filename>  (1) 
[H][O][c]1[c]([H])[c]([O][C]([H])([H])[C]([H])([H])[H])[c]([H])[c]([H])[c]1[C]([H])([H])[N+]([H])([H])[C]1([c]2[c]([H])[n][c]([H])[c]([H])[c]2[H])[C]([H])([H])[C]([H])([H])[C]([H])([H])[C]1([H])[H]

$$$$
