
     RDKit          3D

 29 31  0  0  0  0  0  0  0  0999 V2000
    4.9214    1.9458   16.6436 H   0  0  0  0  0  0  0  0  0  0  0  0
    5.3610    1.3981   17.4745 C   0  0  0  0  0  0  0  0  0  0  0  0
    6.4790    0.7034   17.2037 N   0  0  0  0  0  0  0  0  0  0  0  0
    7.0656    0.0597   18.2224 C   0  0  0  0  0  0  0  0  0  0  0  0
    7.9616   -0.5052   17.9667 H   0  0  0  0  0  0  0  0  0  0  0  0
    6.5979    0.0712   19.5577 C   0  0  0  0  0  0  0  0  0  0  0  0
    7.3681   -0.5053   20.6837 C   0  0  0  0  0  0  0  0  0  0  0  0
    6.9592   -0.6348   22.0437 C   0  0  0  0  0  0  0  0  0  0  0  0
    5.9792   -0.4394   22.4532 H   0  0  0  0  0  0  0  0  0  0  0  0
    7.9369   -1.0655   22.8245 N   0  0  0  0  0  0  0  0  0  0  0  0
    8.9791   -1.1898   22.0119 N   0  0  0  0  0  0  0  0  0  0  0  0
   10.1212   -1.7172   22.5758 N   0  0  0  0  0  0  0  0  0  0  0  0
    9.8264   -1.7986   23.5432 H   0  0  0  0  0  0  0  0  0  0  0  0
   11.3219   -0.9605   22.4701 C   0  0  0  0  0  0  0  0  0  0  0  0
   12.5210   -1.6137   22.2233 C   0  0  0  0  0  0  0  0  0  0  0  0
   12.5409   -2.6887   22.1480 H   0  0  0  0  0  0  0  0  0  0  0  0
   13.6843   -0.8585   22.1595 C   0  0  0  0  0  0  0  0  0  0  0  0
   14.6293   -1.3638   21.9675 H   0  0  0  0  0  0  0  0  0  0  0  0
   13.7242    0.4636   22.3736 N   0  0  0  0  0  0  0  0  0  0  0  0
   12.5610    1.0711   22.6479 C   0  0  0  0  0  0  0  0  0  0  0  0
   12.6329    2.1342   22.8776 H   0  0  0  0  0  0  0  0  0  0  0  0
   11.3309    0.4153   22.6827 C   0  0  0  0  0  0  0  0  0  0  0  0
   10.4078    0.9344   22.8964 H   0  0  0  0  0  0  0  0  0  0  0  0
    8.6970   -0.9174   20.7189 C   0  0  0  0  0  0  0  0  0  0  0  0
    9.5016   -1.0273   20.0102 H   0  0  0  0  0  0  0  0  0  0  0  0
    5.3873    0.7499   19.7879 C   0  0  0  0  0  0  0  0  0  0  0  0
    4.9546    0.7672   20.7875 H   0  0  0  0  0  0  0  0  0  0  0  0
    4.7685    1.4273   18.7408 C   0  0  0  0  0  0  0  0  0  0  0  0
    3.8555    1.9919   18.8985 H   0  0  0  0  0  0  0  0  0  0  0  0
  1  2  1  0
  2  3  2  0
  3  4  1  0
  4  5  1  0
  4  6  2  0
  6  7  1  0
  7  8  1  0
  8  9  1  0
  8 10  2  0
 10 11  1  0
 11 12  1  0
 12 13  1  0
 12 14  1  0
 14 15  2  0
 15 16  1  0
 15 17  1  0
 17 18  1  0
 17 19  2  0
 19 20  1  0
 20 21  1  0
 20 22  2  0
 22 23  1  0
 11 24  1  0
 24 25  1  0
  6 26  1  0
 26 27  1  0
 26 28  2  0
 28 29  1  0
 28  2  1  0
 24  7  2  0
 22 14  1  0
M  END
>  <plip>  (1) 
-0.07142857142857142

>  <filename>  (1) 
[H][c]1[n][c]([H])[c](-[c]2[c]([H])[n][n]([N]([H])[c]3[c]([H])[c]([H])[n][c]([H])[c]3[H])[c]2[H])[c]([H])[c]1[H]

$$$$
