
     RDKit          3D

 46 48  0  0  0  0  0  0  0  0999 V2000
    8.9121    7.5531   29.0440 C   0  0  0  0  0  0  0  0  0  0  0  0
    9.3320    6.5619   28.1301 O   0  0  0  0  0  0  0  0  0  0  0  0
    8.4669    6.0136   27.2323 C   0  0  0  0  0  0  0  0  0  0  0  0
    7.1801    6.4726   26.9423 C   0  0  0  0  0  0  0  0  0  0  0  0
    6.4219    5.7931   25.9748 C   0  0  0  0  0  0  0  0  0  0  0  0
    6.9269    4.6753   25.3136 C   0  0  0  0  0  0  0  0  0  0  0  0
    8.1997    4.1704   25.6442 C   0  0  0  0  0  0  0  0  0  0  0  0
    8.6746    2.8883   25.0610 C   0  0  0  0  0  0  0  0  0  0  0  0
    8.2492    2.3007   23.9695 N   0  0  0  0  0  0  0  0  0  0  0  0
    8.9303    1.0926   23.8957 C   0  0  0  0  0  0  0  0  0  0  0  0
    8.6771   -0.0240   22.9224 C   0  0  0  0  0  0  0  0  0  0  0  0
    9.2678   -1.1062   22.9711 O   0  0  0  0  0  0  0  0  0  0  0  0
    7.7274    0.1966   21.9846 N   0  0  0  0  0  0  0  0  0  0  0  0
    7.4019   -0.7605   20.9301 C   0  0  0  0  0  0  0  0  0  0  0  0
    6.6487   -1.9873   21.4937 C   0  0  0  0  0  0  0  0  0  0  0  0
    6.4111   -2.9174   20.4491 O   0  0  0  0  0  0  0  0  0  0  0  0
    5.9550   -3.6745   20.8329 H   0  0  0  0  0  0  0  0  0  0  0  0
    7.2847   -2.4008   22.2887 H   0  0  0  0  0  0  0  0  0  0  0  0
    5.7127   -1.6396   21.9493 H   0  0  0  0  0  0  0  0  0  0  0  0
    6.6648   -0.0030   19.8488 C   0  0  0  0  0  0  0  0  0  0  0  0
    5.4543    0.6626   20.0911 C   0  0  0  0  0  0  0  0  0  0  0  0
    4.8400    1.3461   19.0407 C   0  0  0  0  0  0  0  0  0  0  0  0
    5.4601    1.3492   17.7840 C   0  0  0  0  0  0  0  0  0  0  0  0
    6.6225    0.7304   17.5315 N   0  0  0  0  0  0  0  0  0  0  0  0
    7.1961    0.0823   18.5545 C   0  0  0  0  0  0  0  0  0  0  0  0
    8.1492   -0.3991   18.3348 H   0  0  0  0  0  0  0  0  0  0  0  0
    5.0087    1.8771   16.9466 H   0  0  0  0  0  0  0  0  0  0  0  0
    3.9120    1.8887   19.1842 H   0  0  0  0  0  0  0  0  0  0  0  0
    5.0109    0.6616   21.0926 H   0  0  0  0  0  0  0  0  0  0  0  0
    8.3351   -1.1686   20.5198 H   0  0  0  0  0  0  0  0  0  0  0  0
    7.3435    1.1340   21.9560 H   0  0  0  0  0  0  0  0  0  0  0  0
    9.8062    0.9758   24.9473 C   0  0  0  0  0  0  0  0  0  0  0  0
   10.7973   -0.0975   25.2228 C   0  0  0  0  0  0  0  0  0  0  0  0
   11.2731   -0.0204   26.1990 H   0  0  0  0  0  0  0  0  0  0  0  0
   10.3135   -1.0694   25.1291 H   0  0  0  0  0  0  0  0  0  0  0  0
   11.5680   -0.0872   24.4503 H   0  0  0  0  0  0  0  0  0  0  0  0
    9.6167    2.1093   25.6826 N   0  0  0  0  0  0  0  0  0  0  0  0
    9.9140    2.2328   26.6371 H   0  0  0  0  0  0  0  0  0  0  0  0
    8.9693    4.8894   26.5725 C   0  0  0  0  0  0  0  0  0  0  0  0
    9.9903    4.6402   26.8116 H   0  0  0  0  0  0  0  0  0  0  0  0
    6.3545    4.1672   24.5393 H   0  0  0  0  0  0  0  0  0  0  0  0
    5.4230    6.1494   25.7384 H   0  0  0  0  0  0  0  0  0  0  0  0
    6.7888    7.3429   27.4560 H   0  0  0  0  0  0  0  0  0  0  0  0
    9.6939    7.5912   29.8065 H   0  0  0  0  0  0  0  0  0  0  0  0
    8.8271    8.5364   28.5637 H   0  0  0  0  0  0  0  0  0  0  0  0
    7.9578    7.2970   29.5208 H   0  0  0  0  0  0  0  0  0  0  0  0
  1  2  1  0
  2  3  1  0
  3  4  2  0
  4  5  1  0
  5  6  2  0
  6  7  1  0
  7  8  1  0
  8  9  2  0
  9 10  1  0
 10 11  1  0
 11 12  2  0
 11 13  1  0
 13 14  1  0
 14 15  1  0
 15 16  1  0
 16 17  1  0
 15 18  1  0
 15 19  1  0
 14 20  1  0
 20 21  2  0
 21 22  1  0
 22 23  2  0
 23 24  1  0
 24 25  2  0
 25 26  1  0
 23 27  1  0
 22 28  1  0
 21 29  1  0
 14 30  1  0
 13 31  1  0
 10 32  2  0
 32 33  1  0
 33 34  1  0
 33 35  1  0
 33 36  1  0
 32 37  1  0
 37 38  1  0
  7 39  2  0
 39 40  1  0
  6 41  1  0
  5 42  1  0
  4 43  1  0
  1 44  1  0
  1 45  1  0
  1 46  1  0
 39  3  1  0
 37  8  1  0
 25 20  1  0
M  END
>  <plip>  (1) 
-0.16666666666666666

>  <filename>  (1) 
[H][O][C]([H])([H])[C]([H])([c]1[c]([H])[n][c]([H])[c]([H])[c]1[H])[N]([H])[C](=[O])[c]1[n][c](-[c]2[c]([H])[c]([H])[c]([H])[c]([O][C]([H])([H])[H])[c]2[H])[n]([H])[c]1[C]([H])([H])[H]

$$$$
