
     RDKit          3D

 36 39  0  0  0  0  0  0  0  0999 V2000
   10.6188    6.4309   21.9376 F   0  0  0  0  0  0  0  0  0  0  0  0
    9.6877    5.7746   22.6316 C   0  0  0  0  0  0  0  0  0  0  0  0
    8.4094    6.3152   22.6932 C   0  0  0  0  0  0  0  0  0  0  0  0
    7.4362    5.5303   23.3020 C   0  0  0  0  0  0  0  0  0  0  0  0
    6.1794    5.9925   23.3360 F   0  0  0  0  0  0  0  0  0  0  0  0
    7.7124    4.2802   23.8553 C   0  0  0  0  0  0  0  0  0  0  0  0
    9.0340    3.8184   23.8546 C   0  0  0  0  0  0  0  0  0  0  0  0
    9.3839    2.4320   24.3441 C   0  0  0  0  0  0  0  0  0  0  0  0
    9.2418    1.4714   23.2112 C   0  0  0  0  0  0  0  0  0  0  0  0
   10.2163    1.1082   22.4234 N   0  0  0  0  0  0  0  0  0  0  0  0
    9.5874    0.2519   21.5224 O   0  0  0  0  0  0  0  0  0  0  0  0
    8.2983    0.1952   21.8656 C   0  0  0  0  0  0  0  0  0  0  0  0
    7.3444   -0.6487   21.0681 C   0  0  0  0  0  0  0  0  0  0  0  0
    6.6429    0.0306   19.9203 C   0  0  0  0  0  0  0  0  0  0  0  0
    5.4380    0.7029   20.1495 C   0  0  0  0  0  0  0  0  0  0  0  0
    4.8010    1.3376   19.0849 C   0  0  0  0  0  0  0  0  0  0  0  0
    5.4084    1.2945   17.8264 C   0  0  0  0  0  0  0  0  0  0  0  0
    6.5659    0.6613   17.5765 N   0  0  0  0  0  0  0  0  0  0  0  0
    7.1610    0.0468   18.6074 C   0  0  0  0  0  0  0  0  0  0  0  0
    8.1082   -0.4504   18.3787 H   0  0  0  0  0  0  0  0  0  0  0  0
    4.9442    1.7938   16.9825 H   0  0  0  0  0  0  0  0  0  0  0  0
    3.8637    1.8660   19.2194 H   0  0  0  0  0  0  0  0  0  0  0  0
    5.0164    0.7172   21.1549 H   0  0  0  0  0  0  0  0  0  0  0  0
    7.6252   -2.1179   20.8909 C   0  0  0  0  0  0  0  0  0  0  0  0
    6.5988   -1.6885   21.8938 C   0  0  0  0  0  0  0  0  0  0  0  0
    5.5563   -1.8894   21.6430 H   0  0  0  0  0  0  0  0  0  0  0  0
    6.8307   -1.7087   22.9554 H   0  0  0  0  0  0  0  0  0  0  0  0
    7.1639   -2.5400   20.0080 H   0  0  0  0  0  0  0  0  0  0  0  0
    8.6147   -2.4904   21.1471 H   0  0  0  0  0  0  0  0  0  0  0  0
    8.0213    0.9293   22.9047 N   0  0  0  0  0  0  0  0  0  0  0  0
    8.7172    2.0981   25.1397 H   0  0  0  0  0  0  0  0  0  0  0  0
   10.3978    2.4083   24.7481 H   0  0  0  0  0  0  0  0  0  0  0  0
   10.0291    4.5627   23.2184 C   0  0  0  0  0  0  0  0  0  0  0  0
   11.0457    4.1907   23.1379 H   0  0  0  0  0  0  0  0  0  0  0  0
    6.8916    3.6696   24.2113 H   0  0  0  0  0  0  0  0  0  0  0  0
    8.1706    7.2794   22.2584 H   0  0  0  0  0  0  0  0  0  0  0  0
  1  2  1  0
  2  3  2  0
  3  4  1  0
  4  5  1  0
  4  6  2  0
  6  7  1  0
  7  8  1  0
  8  9  1  0
  9 10  2  0
 10 11  1  0
 11 12  1  0
 12 13  1  0
 13 14  1  0
 14 15  2  0
 15 16  1  0
 16 17  2  0
 17 18  1  0
 18 19  2  0
 19 20  1  0
 17 21  1  0
 16 22  1  0
 15 23  1  0
 13 24  1  0
 24 25  1  0
 25 26  1  0
 25 27  1  0
 24 28  1  0
 24 29  1  0
 12 30  2  0
  8 31  1  0
  8 32  1  0
  7 33  2  0
 33 34  1  0
  6 35  1  0
  3 36  1  0
 33  2  1  0
 30  9  1  0
 25 13  1  0
 19 14  1  0
M  END
>  <plip>  (1) 
-0.07142857142857142

>  <filename>  (1) 
[H][c]1[n][c]([H])[c]([C]2([c]3[n][c]([C]([H])([H])[c]4[c]([H])[c]([F])[c]([H])[c]([F])[c]4[H])[n][o]3)[C]([H])([H])[C]2([H])[H])[c]([H])[c]1[H]

$$$$
