
     RDKit          3D

 36 38  0  0  0  0  0  0  0  0999 V2000
    4.9212    1.8055   16.9747 H   0  0  0  0  0  0  0  0  0  0  0  0
    5.3939    1.3057   17.8169 C   0  0  0  0  0  0  0  0  0  0  0  0
    6.5606    0.6998   17.5620 N   0  0  0  0  0  0  0  0  0  0  0  0
    7.1710    0.0802   18.5840 C   0  0  0  0  0  0  0  0  0  0  0  0
    8.1189   -0.3989   18.3345 H   0  0  0  0  0  0  0  0  0  0  0  0
    6.6594    0.0123   19.8969 C   0  0  0  0  0  0  0  0  0  0  0  0
    7.3272   -0.7887   21.0322 C   0  0  0  0  0  0  0  0  0  0  0  0
    6.5686   -2.1299   21.2181 C   0  0  0  0  0  0  0  0  0  0  0  0
    6.1685   -2.4988   22.4424 N   0  0  0  0  0  0  0  0  0  0  0  0
    5.4932   -3.6435   22.5988 C   0  0  0  0  0  0  0  0  0  0  0  0
    4.9167   -3.9758   23.9917 C   0  0  0  0  0  0  0  0  0  0  0  0
    5.4571   -5.1263   24.4492 F   0  0  0  0  0  0  0  0  0  0  0  0
    3.5804   -4.1741   23.9294 F   0  0  0  0  0  0  0  0  0  0  0  0
    5.1275   -3.0408   24.9211 F   0  0  0  0  0  0  0  0  0  0  0  0
    5.3138   -4.5593   21.5532 C   0  0  0  0  0  0  0  0  0  0  0  0
    4.8029   -5.4957   21.7324 H   0  0  0  0  0  0  0  0  0  0  0  0
    5.7668   -4.2110   20.2788 C   0  0  0  0  0  0  0  0  0  0  0  0
    5.6873   -4.9020   19.4454 H   0  0  0  0  0  0  0  0  0  0  0  0
    6.3202   -2.9478   20.0985 C   0  0  0  0  0  0  0  0  0  0  0  0
    6.5319   -2.5417   19.1154 H   0  0  0  0  0  0  0  0  0  0  0  0
    8.8518   -1.0280   20.7931 C   0  0  0  0  0  0  0  0  0  0  0  0
    9.2766   -0.1176   20.3446 H   0  0  0  0  0  0  0  0  0  0  0  0
    9.0380   -1.8564   20.0988 H   0  0  0  0  0  0  0  0  0  0  0  0
    9.4650   -1.2688   22.1843 C   0  0  0  0  0  0  0  0  0  0  0  0
   10.5201   -0.9661   22.2223 H   0  0  0  0  0  0  0  0  0  0  0  0
    9.4397   -2.3386   22.4289 H   0  0  0  0  0  0  0  0  0  0  0  0
    8.5721   -0.4792   23.1738 C   0  0  0  0  0  0  0  0  0  0  0  0
    9.1071    0.3392   23.6711 H   0  0  0  0  0  0  0  0  0  0  0  0
    8.1948   -1.1392   23.9626 H   0  0  0  0  0  0  0  0  0  0  0  0
    7.3913    0.0587   22.3383 C   0  0  0  0  0  0  0  0  0  0  0  0
    6.4424    0.0047   22.8822 H   0  0  0  0  0  0  0  0  0  0  0  0
    7.5595    1.1063   22.0571 H   0  0  0  0  0  0  0  0  0  0  0  0
    5.4346    0.6542   20.1320 C   0  0  0  0  0  0  0  0  0  0  0  0
    4.9963    0.6482   21.1316 H   0  0  0  0  0  0  0  0  0  0  0  0
    4.7949    1.3146   19.0817 C   0  0  0  0  0  0  0  0  0  0  0  0
    3.8656    1.8475   19.2364 H   0  0  0  0  0  0  0  0  0  0  0  0
  1  2  1  0
  2  3  2  0
  3  4  1  0
  4  5  1  0
  4  6  2  0
  6  7  1  0
  7  8  1  0
  8  9  2  0
  9 10  1  0
 10 11  1  0
 11 12  1  0
 11 13  1  0
 11 14  1  0
 10 15  2  0
 15 16  1  0
 15 17  1  0
 17 18  1  0
 17 19  2  0
 19 20  1  0
  7 21  1  0
 21 22  1  0
 21 23  1  0
 21 24  1  0
 24 25  1  0
 24 26  1  0
 24 27  1  0
 27 28  1  0
 27 29  1  0
 27 30  1  0
 30 31  1  0
 30 32  1  0
  6 33  1  0
 33 34  1  0
 33 35  2  0
 35 36  1  0
 35  2  1  0
 30  7  1  0
 19  8  1  0
M  END
>  <plip>  (1) 
-0.0

>  <filename>  (1) 
[H][c]1[n][c]([H])[c]([C]2([c]3[n][c]([C]([F])([F])[F])[c]([H])[c]([H])[c]3[H])[C]([H])([H])[C]([H])([H])[C]([H])([H])[C]2([H])[H])[c]([H])[c]1[H]

$$$$
