
     RDKit          3D

 30 31  0  0  0  0  0  0  0  0999 V2000
    7.8326   -4.1222   19.9405 H   0  0  0  0  0  0  0  0  0  0  0  0
    7.1226   -4.3367   20.5697 O   0  0  0  0  0  0  0  0  0  0  0  0
    6.4300   -3.0899   20.6814 C   0  0  0  0  0  0  0  0  0  0  0  0
    7.4734   -2.0583   21.1541 C   0  0  0  0  0  0  0  0  0  0  0  0
    8.3777   -2.5168   22.1383 C   0  0  0  0  0  0  0  0  0  0  0  0
    8.3761   -3.5651   22.4214 H   0  0  0  0  0  0  0  0  0  0  0  0
    9.2610   -1.7602   22.7935 N   0  0  0  0  0  0  0  0  0  0  0  0
    9.2994   -0.4620   22.4767 C   0  0  0  0  0  0  0  0  0  0  0  0
   10.0052    0.1533   23.0279 H   0  0  0  0  0  0  0  0  0  0  0  0
    8.5063    0.1003   21.4844 C   0  0  0  0  0  0  0  0  0  0  0  0
    8.6140    1.1467   21.2309 H   0  0  0  0  0  0  0  0  0  0  0  0
    7.5862   -0.7092   20.8043 C   0  0  0  0  0  0  0  0  0  0  0  0
    6.7909   -0.0480   19.7376 C   0  0  0  0  0  0  0  0  0  0  0  0
    7.3394    0.1285   18.4618 C   0  0  0  0  0  0  0  0  0  0  0  0
    8.3246   -0.2806   18.2324 H   0  0  0  0  0  0  0  0  0  0  0  0
    6.7328    0.7958   17.4667 N   0  0  0  0  0  0  0  0  0  0  0  0
    5.5397    1.3425   17.7442 C   0  0  0  0  0  0  0  0  0  0  0  0
    5.0626    1.9028   16.9423 H   0  0  0  0  0  0  0  0  0  0  0  0
    4.9013    1.2213   18.9834 C   0  0  0  0  0  0  0  0  0  0  0  0
    3.9395    1.6913   19.1436 H   0  0  0  0  0  0  0  0  0  0  0  0
    5.5420    0.5153   20.0034 C   0  0  0  0  0  0  0  0  0  0  0  0
    5.0727    0.3875   20.9830 H   0  0  0  0  0  0  0  0  0  0  0  0
    5.7168   -2.8540   19.3365 C   0  0  0  0  0  0  0  0  0  0  0  0
    6.4134   -2.7050   18.5093 H   0  0  0  0  0  0  0  0  0  0  0  0
    5.0436   -1.9963   19.3471 H   0  0  0  0  0  0  0  0  0  0  0  0
    5.1223   -3.7495   19.1172 H   0  0  0  0  0  0  0  0  0  0  0  0
    5.3900   -3.3348   21.7704 C   0  0  0  0  0  0  0  0  0  0  0  0
    4.6991   -2.4937   21.8319 H   0  0  0  0  0  0  0  0  0  0  0  0
    4.8236   -4.2427   21.5441 H   0  0  0  0  0  0  0  0  0  0  0  0
    5.8520   -3.4513   22.7560 H   0  0  0  0  0  0  0  0  0  0  0  0
  1  2  1  0
  2  3  1  0
  3  4  1  0
  4  5  2  0
  5  6  1  0
  5  7  1  0
  7  8  2  0
  8  9  1  0
  8 10  1  0
 10 11  1  0
 10 12  2  0
 12 13  1  0
 13 14  2  0
 14 15  1  0
 14 16  1  0
 16 17  2  0
 17 18  1  0
 17 19  1  0
 19 20  1  0
 19 21  2  0
 21 22  1  0
  3 23  1  0
 23 24  1  0
 23 25  1  0
 23 26  1  0
  3 27  1  0
 27 28  1  0
 27 29  1  0
 27 30  1  0
 12  4  1  0
 21 13  1  0
M  END
>  <plip>  (1) 
-0.1

>  <filename>  (1) 
[H][O][C]([c]1[c]([H])[n][c]([H])[c]([H])[c]1-[c]1[c]([H])[n][c]([H])[c]([H])[c]1[H])([C]([H])([H])[H])[C]([H])([H])[H]

$$$$
