
     RDKit          3D

 32 34  0  0  0  0  0  0  0  0999 V2000
    4.9687    1.8300   16.9519 H   0  0  0  0  0  0  0  0  0  0  0  0
    5.4049    1.3112   17.8040 C   0  0  0  0  0  0  0  0  0  0  0  0
    6.5612    0.6701   17.5761 N   0  0  0  0  0  0  0  0  0  0  0  0
    7.1269    0.0479   18.6155 C   0  0  0  0  0  0  0  0  0  0  0  0
    8.0576   -0.4781   18.4159 H   0  0  0  0  0  0  0  0  0  0  0  0
    6.6021    0.0240   19.9215 C   0  0  0  0  0  0  0  0  0  0  0  0
    7.4798   -0.6363   20.9931 C   0  0  1  0  0  0  0  0  0  0  0  0
    7.9417   -1.8081   20.3904 F   0  0  0  0  0  0  0  0  0  0  0  0
    8.6920    0.2177   21.3856 C   0  0  0  0  0  0  0  0  0  0  0  0
    8.6067    1.5957   21.4387 C   0  0  0  0  0  0  0  0  0  0  0  0
    7.6857    2.1009   21.1487 H   0  0  0  0  0  0  0  0  0  0  0  0
    9.6982    2.3953   21.8385 C   0  0  0  0  0  0  0  0  0  0  0  0
    9.5567    3.4656   21.9284 H   0  0  0  0  0  0  0  0  0  0  0  0
   10.9194    1.8354   22.1274 C   0  0  0  0  0  0  0  0  0  0  0  0
   11.7580    2.4590   22.4259 H   0  0  0  0  0  0  0  0  0  0  0  0
   11.0746    0.4239   22.0740 C   0  0  0  0  0  0  0  0  0  0  0  0
   12.3285   -0.2318   22.2563 C   0  0  0  0  0  0  0  0  0  0  0  0
   13.2430    0.3519   22.3827 H   0  0  0  0  0  0  0  0  0  0  0  0
   12.3538   -1.6018   22.2774 C   0  0  0  0  0  0  0  0  0  0  0  0
   13.2821   -2.1493   22.3375 H   0  0  0  0  0  0  0  0  0  0  0  0
   11.1336   -2.3174   22.2389 C   0  0  0  0  0  0  0  0  0  0  0  0
   11.1440   -3.3953   22.3859 H   0  0  0  0  0  0  0  0  0  0  0  0
    9.9616   -1.7565   22.0384 N   0  0  0  0  0  0  0  0  0  0  0  0
    9.9173   -0.4022   21.8292 C   0  0  0  0  0  0  0  0  0  0  0  0
    6.7236   -1.0763   22.2382 C   0  0  0  0  0  0  0  0  0  0  0  0
    6.3842   -0.2080   22.8132 H   0  0  0  0  0  0  0  0  0  0  0  0
    5.8620   -1.6873   21.9528 H   0  0  0  0  0  0  0  0  0  0  0  0
    7.4049   -1.6699   22.8562 H   0  0  0  0  0  0  0  0  0  0  0  0
    5.3694    0.6588   20.1285 C   0  0  0  0  0  0  0  0  0  0  0  0
    4.8788    0.6547   21.1026 H   0  0  0  0  0  0  0  0  0  0  0  0
    4.7712    1.3215   19.0490 C   0  0  0  0  0  0  0  0  0  0  0  0
    3.8366    1.8568   19.1600 H   0  0  0  0  0  0  0  0  0  0  0  0
  1  2  1  0
  2  3  2  0
  3  4  1  0
  4  5  1  0
  4  6  2  0
  6  7  1  0
  7  8  1  6
  7  9  1  0
  9 10  2  0
 10 11  1  0
 10 12  1  0
 12 13  1  0
 12 14  2  0
 14 15  1  0
 14 16  1  0
 16 17  2  0
 17 18  1  0
 17 19  1  0
 19 20  1  0
 19 21  2  0
 21 22  1  0
 21 23  1  0
 23 24  2  0
  7 25  1  0
 25 26  1  0
 25 27  1  0
 25 28  1  0
  6 29  1  0
 29 30  1  0
 29 31  2  0
 31 32  1  0
 31  2  1  0
 24  9  1  0
 24 16  1  0
M  END
>  <plip>  (1) 
-0.03571428571428571

>  <filename>  (1) 
[H][c]1[n][c]([H])[c]([C@@]([F])([c]2[c]([H])[c]([H])[c]([H])[c]3[c]([H])[c]([H])[c]([H])[n][c]23)[C]([H])([H])[H])[c]([H])[c]1[H]

$$$$
