
     RDKit          3D

 32 33  0  0  0  0  0  0  0  0999 V2000
    4.9391    1.8521   17.0438 H   0  0  0  0  0  0  0  0  0  0  0  0
    5.4351    1.3123   17.8473 C   0  0  0  0  0  0  0  0  0  0  0  0
    6.5993    0.7189   17.5380 N   0  0  0  0  0  0  0  0  0  0  0  0
    7.2190    0.0345   18.5093 C   0  0  0  0  0  0  0  0  0  0  0  0
    8.1677   -0.4385   18.2615 H   0  0  0  0  0  0  0  0  0  0  0  0
    6.7058   -0.1264   19.8203 C   0  0  0  0  0  0  0  0  0  0  0  0
    7.3929   -0.9448   20.7870 N   0  0  0  0  0  0  0  0  0  0  0  0
    8.7662   -0.5717   21.1516 C   0  0  0  0  0  0  0  0  0  0  0  0
    9.4790   -0.9955   20.4402 H   0  0  0  0  0  0  0  0  0  0  0  0
    9.0317   -0.9285   22.1484 H   0  0  0  0  0  0  0  0  0  0  0  0
    8.8856    0.5142   21.1344 H   0  0  0  0  0  0  0  0  0  0  0  0
    6.5115   -1.5691   22.0595 S   0  0  0  0  0  0  0  0  0  0  0  0
    5.2945   -2.1497   21.5484 O   0  0  0  0  0  0  0  0  0  0  0  0
    6.5506   -0.6384   23.1624 O   0  0  0  0  0  0  0  0  0  0  0  0
    7.4910   -2.8152   22.3888 O   0  0  0  0  0  0  0  0  0  0  0  0
    6.9548   -3.6686   23.4404 C   0  0  0  0  0  0  0  0  0  0  0  0
    5.8739   -3.8064   23.3158 H   0  0  0  0  0  0  0  0  0  0  0  0
    7.4378   -4.6364   23.2725 H   0  0  0  0  0  0  0  0  0  0  0  0
    7.2953   -3.1549   24.8224 C   0  0  0  0  0  0  0  0  0  0  0  0
    6.3055   -2.7639   25.7338 C   0  0  0  0  0  0  0  0  0  0  0  0
    5.2516   -2.7949   25.4818 H   0  0  0  0  0  0  0  0  0  0  0  0
    6.6800   -2.3032   27.0002 C   0  0  0  0  0  0  0  0  0  0  0  0
    5.9309   -1.9255   27.6885 H   0  0  0  0  0  0  0  0  0  0  0  0
    7.9440   -2.2835   27.4329 N   0  0  0  0  0  0  0  0  0  0  0  0
    8.8835   -2.6977   26.5803 C   0  0  0  0  0  0  0  0  0  0  0  0
    9.8970   -2.7165   26.9602 H   0  0  0  0  0  0  0  0  0  0  0  0
    8.6247   -3.1061   25.2719 C   0  0  0  0  0  0  0  0  0  0  0  0
    9.4584   -3.3536   24.6234 H   0  0  0  0  0  0  0  0  0  0  0  0
    5.5124    0.5379   20.1356 C   0  0  0  0  0  0  0  0  0  0  0  0
    5.1158    0.4899   21.1504 H   0  0  0  0  0  0  0  0  0  0  0  0
    4.8699    1.2615   19.1246 C   0  0  0  0  0  0  0  0  0  0  0  0
    3.9427    1.7805   19.3244 H   0  0  0  0  0  0  0  0  0  0  0  0
  1  2  1  0
  2  3  2  0
  3  4  1  0
  4  5  1  0
  4  6  2  0
  6  7  1  0
  7  8  1  0
  8  9  1  0
  8 10  1  0
  8 11  1  0
  7 12  1  0
 12 13  2  0
 12 14  2  0
 12 15  1  0
 15 16  1  0
 16 17  1  0
 16 18  1  0
 16 19  1  0
 19 20  2  0
 20 21  1  0
 20 22  1  0
 22 23  1  0
 22 24  2  0
 24 25  1  0
 25 26  1  0
 25 27  2  0
 27 28  1  0
  6 29  1  0
 29 30  1  0
 29 31  2  0
 31 32  1  0
 31  2  1  0
 27 19  1  0
M  END
>  <plip>  (1) 
-0.06896551724137931

>  <filename>  (1) 
[H][c]1[n][c]([H])[c]([N]([C]([H])([H])[H])[S](=[O])(=[O])[O][C]([H])([H])[c]2[c]([H])[c]([H])[n][c]([H])[c]2[H])[c]([H])[c]1[H]

$$$$
