
     RDKit          3D

 41 43  0  0  0  0  0  0  0  0999 V2000
    6.7099   -1.4213   21.5527 H   0  0  0  0  0  0  0  0  0  0  0  0
    7.3298   -0.7124   20.9954 C   0  0  0  0  0  0  0  0  0  0  0  0
    8.5859   -0.4608   21.3691 C   0  0  0  0  0  0  0  0  0  0  0  0
    9.3326   -1.0603   22.4934 C   0  0  0  0  0  0  0  0  0  0  0  0
    8.7728   -2.1607   23.3591 C   0  0  0  0  0  0  0  0  0  0  0  0
    8.0051   -2.7371   22.8297 H   0  0  0  0  0  0  0  0  0  0  0  0
    9.5928   -2.8532   23.5651 H   0  0  0  0  0  0  0  0  0  0  0  0
    8.1985   -1.6345   24.6872 C   0  0  0  0  0  0  0  0  0  0  0  0
    8.9743   -1.0130   25.1583 H   0  0  0  0  0  0  0  0  0  0  0  0
    7.8960   -2.7906   25.6557 C   0  0  0  0  0  0  0  0  0  0  0  0
    8.8072   -3.3784   25.8350 H   0  0  0  0  0  0  0  0  0  0  0  0
    7.1757   -3.4749   25.1843 H   0  0  0  0  0  0  0  0  0  0  0  0
    7.3219   -2.2968   26.9883 C   0  0  0  0  0  0  0  0  0  0  0  0
    8.0906   -1.7137   27.5143 H   0  0  0  0  0  0  0  0  0  0  0  0
    7.0797   -3.1561   27.6219 H   0  0  0  0  0  0  0  0  0  0  0  0
    6.0823   -1.4182   26.7786 C   0  0  0  0  0  0  0  0  0  0  0  0
    5.7144   -1.0389   27.7396 H   0  0  0  0  0  0  0  0  0  0  0  0
    5.2764   -2.0344   26.3581 H   0  0  0  0  0  0  0  0  0  0  0  0
    6.3738   -0.2575   25.8190 C   0  0  0  0  0  0  0  0  0  0  0  0
    5.4644    0.3297   25.6428 H   0  0  0  0  0  0  0  0  0  0  0  0
    7.0950    0.4240   26.2892 H   0  0  0  0  0  0  0  0  0  0  0  0
    6.9548   -0.7500   24.4863 C   0  0  0  0  0  0  0  0  0  0  0  0
    7.1910    0.1082   23.8444 H   0  0  0  0  0  0  0  0  0  0  0  0
    6.1842   -1.3326   23.9609 H   0  0  0  0  0  0  0  0  0  0  0  0
   10.4670   -0.5225   22.7268 N   0  0  0  0  0  0  0  0  0  0  0  0
   10.6994    0.5537   21.7557 C   0  0  0  0  0  0  0  0  0  0  0  0
   11.6294    0.3443   21.2267 H   0  0  0  0  0  0  0  0  0  0  0  0
   10.8321    1.4909   22.3007 H   0  0  0  0  0  0  0  0  0  0  0  0
    9.4800    0.6187   20.8092 C   0  0  0  0  0  0  0  0  0  0  0  0
    8.9898    1.5970   20.8047 H   0  0  0  0  0  0  0  0  0  0  0  0
    9.7026    0.3798   19.7711 H   0  0  0  0  0  0  0  0  0  0  0  0
    6.6399   -0.0077   19.8931 C   0  0  0  0  0  0  0  0  0  0  0  0
    7.1641    0.0678   18.5899 C   0  0  0  0  0  0  0  0  0  0  0  0
    8.1080   -0.4285   18.3742 H   0  0  0  0  0  0  0  0  0  0  0  0
    6.5620    0.6858   17.5670 N   0  0  0  0  0  0  0  0  0  0  0  0
    5.3990    1.2995   17.8333 C   0  0  0  0  0  0  0  0  0  0  0  0
    4.9134    1.7849   16.9921 H   0  0  0  0  0  0  0  0  0  0  0  0
    4.7994    1.3151   19.0998 C   0  0  0  0  0  0  0  0  0  0  0  0
    3.8677    1.8493   19.2555 H   0  0  0  0  0  0  0  0  0  0  0  0
    5.4226    0.6380   20.1457 C   0  0  0  0  0  0  0  0  0  0  0  0
    5.0078    0.6237   21.1598 H   0  0  0  0  0  0  0  0  0  0  0  0
  1  2  1  0
  2  3  2  3
  3  4  1  0
  4  5  1  0
  5  6  1  0
  5  7  1  0
  5  8  1  0
  8  9  1  0
  8 10  1  0
 10 11  1  0
 10 12  1  0
 10 13  1  0
 13 14  1  0
 13 15  1  0
 13 16  1  0
 16 17  1  0
 16 18  1  0
 16 19  1  0
 19 20  1  0
 19 21  1  0
 19 22  1  0
 22 23  1  0
 22 24  1  0
  4 25  2  0
 25 26  1  0
 26 27  1  0
 26 28  1  0
 26 29  1  0
 29 30  1  0
 29 31  1  0
  2 32  1  0
 32 33  2  0
 33 34  1  0
 33 35  1  0
 35 36  2  0
 36 37  1  0
 36 38  1  0
 38 39  1  0
 38 40  2  0
 40 41  1  0
 29  3  1  0
 40 32  1  0
 22  8  1  0
M  END
>  <plip>  (1) 
-0.03571428571428571

>  <filename>  (1) 
[H][C](=[C]1[C]([C]([H])([H])[C]2([H])[C]([H])([H])[C]([H])([H])[C]([H])([H])[C]([H])([H])[C]2([H])[H])=[N][C]([H])([H])[C]1([H])[H])[c]1[c]([H])[n][c]([H])[c]([H])[c]1[H]

$$$$
