
     RDKit          3D

 31 32  0  0  0  0  0  0  0  0999 V2000
    9.2473    0.2101   20.5528 H   0  0  0  0  0  0  0  0  0  0  0  0
    8.6853   -0.4748   21.1759 C   0  0  0  0  0  0  0  0  0  0  0  0
    7.3900   -0.7110   21.0030 C   0  0  0  0  0  0  0  0  0  0  0  0
    6.6721    0.0154   19.9153 C   0  0  0  0  0  0  0  0  0  0  0  0
    7.1863    0.0730   18.6098 C   0  0  0  0  0  0  0  0  0  0  0  0
    8.1226   -0.4283   18.3755 H   0  0  0  0  0  0  0  0  0  0  0  0
    6.5685    0.6731   17.5845 N   0  0  0  0  0  0  0  0  0  0  0  0
    5.4052    1.2908   17.8401 C   0  0  0  0  0  0  0  0  0  0  0  0
    4.9173    1.7776   16.9971 H   0  0  0  0  0  0  0  0  0  0  0  0
    4.8085    1.3134   19.1060 C   0  0  0  0  0  0  0  0  0  0  0  0
    3.8745    1.8437   19.2573 H   0  0  0  0  0  0  0  0  0  0  0  0
    5.4408    0.6489   20.1545 C   0  0  0  0  0  0  0  0  0  0  0  0
    5.0084    0.6308   21.1607 H   0  0  0  0  0  0  0  0  0  0  0  0
    6.5673   -1.6182   21.8893 C   0  0  0  0  0  0  0  0  0  0  0  0
    5.6192   -1.8744   21.4070 H   0  0  0  0  0  0  0  0  0  0  0  0
    7.1223   -2.5344   22.1162 H   0  0  0  0  0  0  0  0  0  0  0  0
    6.3446   -1.1053   22.8338 H   0  0  0  0  0  0  0  0  0  0  0  0
    9.6967   -1.2370   22.4185 S   0  0  0  0  0  0  0  0  0  0  0  0
    9.6093   -2.6860   22.2412 O   0  0  0  0  0  0  0  0  0  0  0  0
   10.9771   -0.5359   22.3732 O   0  0  0  0  0  0  0  0  0  0  0  0
    8.9047   -0.8450   23.9967 C   0  0  0  0  0  0  0  0  0  0  0  0
    8.6343    0.4867   24.3461 C   0  0  0  0  0  0  0  0  0  0  0  0
    8.8642    1.3144   23.6776 H   0  0  0  0  0  0  0  0  0  0  0  0
    8.0634    0.7846   25.5870 C   0  0  0  0  0  0  0  0  0  0  0  0
    7.8394    1.8091   25.8690 H   0  0  0  0  0  0  0  0  0  0  0  0
    7.7718   -0.2485   26.4815 C   0  0  0  0  0  0  0  0  0  0  0  0
    7.0468    0.1225   28.0212 Cl  0  0  0  0  0  0  0  0  0  0  0  0
    8.0519   -1.5765   26.1503 C   0  0  0  0  0  0  0  0  0  0  0  0
    7.8177   -2.3646   26.8603 H   0  0  0  0  0  0  0  0  0  0  0  0
    8.6207   -1.8742   24.9082 C   0  0  0  0  0  0  0  0  0  0  0  0
    8.8410   -2.9120   24.6686 H   0  0  0  0  0  0  0  0  0  0  0  0
  1  2  1  0
  2  3  2  3
  3  4  1  0
  4  5  2  0
  5  6  1  0
  5  7  1  0
  7  8  2  0
  8  9  1  0
  8 10  1  0
 10 11  1  0
 10 12  2  0
 12 13  1  0
  3 14  1  0
 14 15  1  0
 14 16  1  0
 14 17  1  0
  2 18  1  0
 18 19  2  0
 18 20  2  0
 18 21  1  0
 21 22  2  0
 22 23  1  0
 22 24  1  0
 24 25  1  0
 24 26  2  0
 26 27  1  0
 26 28  1  0
 28 29  1  0
 28 30  2  0
 30 31  1  0
 12  4  1  0
 30 21  1  0
M  END
>  <plip>  (1) 
-0.03571428571428571

>  <filename>  (1) 
[H][C](=[C]([c]1[c]([H])[n][c]([H])[c]([H])[c]1[H])[C]([H])([H])[H])[S](=[O])(=[O])[c]1[c]([H])[c]([H])[c]([Cl])[c]([H])[c]1[H]

$$$$
