
     RDKit          3D

 31 32  0  0  0  0  0  0  0  0999 V2000
    4.8412    1.7017   16.9668 H   0  0  0  0  0  0  0  0  0  0  0  0
    5.3638    1.2865   17.8229 C   0  0  0  0  0  0  0  0  0  0  0  0
    6.5663    0.7372   17.5570 N   0  0  0  0  0  0  0  0  0  0  0  0
    7.2585    0.2432   18.5825 C   0  0  0  0  0  0  0  0  0  0  0  0
    8.2267   -0.2105   18.3647 H   0  0  0  0  0  0  0  0  0  0  0  0
    6.8115    0.2660   19.9329 C   0  0  0  0  0  0  0  0  0  0  0  0
    7.6651   -0.2607   20.9051 N   0  0  0  0  0  0  0  0  0  0  0  0
    7.7072   -0.0608   22.1455 C   0  0  0  0  0  0  0  0  0  0  0  0
    7.3659    1.1394   22.7962 N   0  0  0  0  0  0  0  0  0  0  0  0
    7.2340    1.9321   22.1847 H   0  0  0  0  0  0  0  0  0  0  0  0
    7.2512    1.4224   24.1502 C   0  0  0  0  0  0  0  0  0  0  0  0
    7.2265    0.5744   25.0214 O   0  0  0  0  0  0  0  0  0  0  0  0
    7.1279    2.8952   24.4881 C   0  0  0  0  0  0  0  0  0  0  0  0
    7.5981    3.5066   23.7085 H   0  0  0  0  0  0  0  0  0  0  0  0
    7.7019    3.0455   25.4088 H   0  0  0  0  0  0  0  0  0  0  0  0
    5.6698    3.3434   24.7124 C   0  0  0  0  0  0  0  0  0  0  0  0
    5.2108    2.7054   25.4808 H   0  0  0  0  0  0  0  0  0  0  0  0
    5.6736    4.3613   25.1257 H   0  0  0  0  0  0  0  0  0  0  0  0
    4.8258    3.3223   23.4382 C   0  0  0  0  0  0  0  0  0  0  0  0
    4.7147    2.3087   23.0331 H   0  0  0  0  0  0  0  0  0  0  0  0
    3.8172    3.7056   23.6278 H   0  0  0  0  0  0  0  0  0  0  0  0
    5.2758    3.9455   22.6547 H   0  0  0  0  0  0  0  0  0  0  0  0
    8.3731   -1.1207   22.9948 C   0  0  0  0  0  0  0  0  0  0  0  0
    8.4915   -0.8493   24.0551 H   0  0  0  0  0  0  0  0  0  0  0  0
    8.7521   -2.1526   22.4974 O   0  0  0  0  0  0  0  0  0  0  0  0
    6.8221   -2.6611   21.0198 C   0  0  0  0  0  0  0  0  0  0  0  0
    6.5921   -2.9605   20.8943 O   0  0  0  0  0  0  0  0  0  0  0  0
    5.5382    0.7988   20.1765 C   0  0  0  0  0  0  0  0  0  0  0  0
    5.1590    0.8155   21.1985 H   0  0  0  0  0  0  0  0  0  0  0  0
    4.8082    1.3255   19.1040 C   0  0  0  0  0  0  0  0  0  0  0  0
    3.8420    1.7946   19.2605 H   0  0  0  0  0  0  0  0  0  0  0  0
  1  2  1  0
  2  3  2  0
  3  4  1  0
  4  5  1  0
  4  6  2  0
  6  7  1  0
  7  8  1  0
  8  9  1  0
  9 10  1  0
  9 11  1  0
 11 12  2  0
 11 13  1  0
 13 14  1  0
 13 15  1  0
 13 16  1  0
 16 17  1  0
 16 18  1  0
 16 19  1  0
 19 20  1  0
 19 21  1  0
 19 22  1  0
  8 23  2  0
 23 24  1  0
 23 25  1  0
 25 26  1  0
 26 27  2  0
  6 28  1  0
 28 29  1  0
 28 30  2  0
 30 31  1  0
 30  2  1  0
 26  7  1  0
M  END
>  <plip>  (1) 
-0.07142857142857142

>  <filename>  (1) 
[H][c]1[n][c]([H])[c](-[n]2[c]([N]([H])[C](=[O])[C]([H])([H])[C]([H])([H])[C]([H])([H])[H])[c]([H])[o][c]2=[O])[c]([H])[c]1[H]

$$$$
