
     RDKit          3D

 44 46  0  0  0  0  0  0  0  0999 V2000
    8.4746   -2.3949   23.1512 O   0  0  0  0  0  0  0  0  0  0  0  0
    7.7472   -3.0276   22.0148 S   0  0  0  0  0  0  0  0  0  0  0  0
    6.6814   -1.8263   21.4467 N   0  0  0  0  0  0  0  0  0  0  0  0
    7.4206   -0.6471   20.9315 C   0  0  0  0  0  0  0  0  0  0  0  0
    7.8197    0.3486   22.0577 C   0  0  0  0  0  0  0  0  0  0  0  0
    9.2322    0.2072   22.5407 N   0  0  0  0  0  4  0  0  0  0  0  0
    9.6258    1.2548   23.5321 C   0  0  0  0  0  0  0  0  0  0  0  0
   11.1409    1.0820   23.6465 C   0  0  0  0  0  0  0  0  0  0  0  0
   11.5840    0.5531   22.2629 C   0  0  0  0  0  0  0  0  0  0  0  0
   10.2844    0.3473   21.4763 C   0  0  0  0  0  0  0  0  0  0  0  0
   10.0479    1.2250   20.8551 H   0  0  0  0  0  0  0  0  0  0  0  0
   10.3166   -0.5295   20.8191 H   0  0  0  0  0  0  0  0  0  0  0  0
   12.1089   -0.4005   22.3686 H   0  0  0  0  0  0  0  0  0  0  0  0
   12.2414    1.2478   21.7307 H   0  0  0  0  0  0  0  0  0  0  0  0
   11.3743    0.3580   24.4349 H   0  0  0  0  0  0  0  0  0  0  0  0
   11.6245    2.0221   23.9198 H   0  0  0  0  0  0  0  0  0  0  0  0
    9.0854    1.1487   24.4786 H   0  0  0  0  0  0  0  0  0  0  0  0
    9.3713    2.2413   23.1128 H   0  0  0  0  0  0  0  0  0  0  0  0
    9.3098   -0.7452   22.9854 H   0  0  0  0  0  0  0  0  0  0  0  0
    7.1297    0.1870   22.8942 H   0  0  0  0  0  0  0  0  0  0  0  0
    7.6631    1.3729   21.6827 H   0  0  0  0  0  0  0  0  0  0  0  0
    6.5867   -0.0191   19.8422 C   0  0  0  0  0  0  0  0  0  0  0  0
    5.3859    0.6656   20.0704 C   0  0  0  0  0  0  0  0  0  0  0  0
    4.7726    1.3039   18.9870 C   0  0  0  0  0  0  0  0  0  0  0  0
    5.3672    1.2125   17.7242 C   0  0  0  0  0  0  0  0  0  0  0  0
    6.4755    0.5029   17.4763 N   0  0  0  0  0  0  0  0  0  0  0  0
    7.0509   -0.1004   18.5215 C   0  0  0  0  0  0  0  0  0  0  0  0
    7.9531   -0.6722   18.2990 H   0  0  0  0  0  0  0  0  0  0  0  0
    4.9416    1.7370   16.8690 H   0  0  0  0  0  0  0  0  0  0  0  0
    3.8722    1.8921   19.1143 H   0  0  0  0  0  0  0  0  0  0  0  0
    4.9333    0.6988   21.0651 H   0  0  0  0  0  0  0  0  0  0  0  0
    8.3582   -0.9754   20.4536 H   0  0  0  0  0  0  0  0  0  0  0  0
    6.0858   -2.2011   20.7112 H   0  0  0  0  0  0  0  0  0  0  0  0
    6.5538   -4.2334   22.6210 C   0  0  0  0  0  0  0  0  0  0  0  0
    5.3881   -3.8919   23.3284 C   0  0  0  0  0  0  0  0  0  0  0  0
    4.4191   -4.8696   23.5867 C   0  0  0  0  0  0  0  0  0  0  0  0
    4.6201   -6.1913   23.1710 C   0  0  0  0  0  0  0  0  0  0  0  0
    5.8182   -6.5487   22.5431 C   0  0  0  0  0  0  0  0  0  0  0  0
    6.7895   -5.5787   22.3148 C   0  0  0  0  0  0  0  0  0  0  0  0
    7.9545   -5.9657   21.7817 F   0  0  0  0  0  0  0  0  0  0  0  0
    6.0312   -7.5663   22.2341 H   0  0  0  0  0  0  0  0  0  0  0  0
    3.8523   -6.9471   23.3292 H   0  0  0  0  0  0  0  0  0  0  0  0
    3.5095   -4.6093   24.1235 H   0  0  0  0  0  0  0  0  0  0  0  0
    5.2312   -2.8734   23.6819 H   0  0  0  0  0  0  0  0  0  0  0  0
  1  2  2  0
  2  3  1  0
  3  4  1  0
  4  5  1  0
  5  6  1  0
  6  7  1  0
  7  8  1  0
  8  9  1  0
  9 10  1  0
 10 11  1  0
 10 12  1  0
  9 13  1  0
  9 14  1  0
  8 15  1  0
  8 16  1  0
  7 17  1  0
  7 18  1  0
  6 19  1  0
  5 20  1  0
  5 21  1  0
  4 22  1  0
 22 23  2  0
 23 24  1  0
 24 25  2  0
 25 26  1  0
 26 27  2  0
 27 28  1  0
 25 29  1  0
 24 30  1  0
 23 31  1  0
  4 32  1  0
  3 33  1  0
  2 34  1  0
 34 35  2  0
 35 36  1  0
 36 37  2  0
 37 38  1  0
 38 39  2  0
 39 40  1  0
 38 41  1  0
 37 42  1  0
 36 43  1  0
 35 44  1  0
 10  6  1  0
 27 22  1  0
 39 34  1  0
M  CHG  1   6   1
M  END
>  <plip>  (1) 
-0.06896551724137931

>  <filename>  (1) 
[H][c]1[n][c]([H])[c]([C]([H])([N]([H])[S](=[O])[c]2[c]([H])[c]([H])[c]([H])[c]([H])[c]2[F])[C]([H])([H])[N+]2([H])[C]([H])([H])[C]([H])([H])[C]([H])([H])[C]2([H])[H])[c]([H])[c]1[H]

$$$$
