
     RDKit          3D

 24 25  0  0  0  0  0  0  0  0999 V2000
    4.9613    1.7755   16.9944 H   0  0  0  0  0  0  0  0  0  0  0  0
    5.4126    1.2781   17.8504 C   0  0  0  0  0  0  0  0  0  0  0  0
    6.5776    0.6475   17.6211 N   0  0  0  0  0  0  0  0  0  0  0  0
    7.1801    0.0498   18.6510 C   0  0  0  0  0  0  0  0  0  0  0  0
    8.1115   -0.4688   18.4375 H   0  0  0  0  0  0  0  0  0  0  0  0
    6.6559    0.0633   19.9543 C   0  0  0  0  0  0  0  0  0  0  0  0
    7.3634   -0.5825   20.9947 N   0  0  0  0  0  0  0  0  0  0  0  0
    8.0526   -1.7264   20.7365 N   0  0  0  0  0  0  0  0  0  0  0  0
    8.5478   -2.0893   21.9031 C   0  0  0  0  0  0  0  0  0  0  0  0
    9.1340   -3.0036   21.9465 H   0  0  0  0  0  0  0  0  0  0  0  0
    8.2209   -1.1907   22.9537 C   0  0  0  0  0  0  0  0  0  0  0  0
    8.4979   -1.2377   23.9983 H   0  0  0  0  0  0  0  0  0  0  0  0
    7.4714   -0.2498   22.3234 C   0  0  0  0  0  0  0  0  0  0  0  0
    6.8643    0.8886   22.8307 O   0  0  0  0  0  0  0  0  0  0  0  0
    7.1153    1.1288   24.4263 S   0  0  0  0  0  0  0  0  0  0  0  0
    8.4782    1.5304   24.6350 O   0  0  0  0  0  0  0  0  0  0  0  0
    6.4729    0.1337   25.2282 O   0  0  0  0  0  0  0  0  0  0  0  0
    6.2680    2.5143   24.5064 N   0  0  0  0  0  0  0  0  0  0  0  0
    6.4419    2.6924   25.4867 H   0  0  0  0  0  0  0  0  0  0  0  0
    6.9021    3.1279   24.0093 H   0  0  0  0  0  0  0  0  0  0  0  0
    5.4258    0.6920   20.1885 C   0  0  0  0  0  0  0  0  0  0  0  0
    4.9822    0.6908   21.1844 H   0  0  0  0  0  0  0  0  0  0  0  0
    4.7948    1.3103   19.1055 C   0  0  0  0  0  0  0  0  0  0  0  0
    3.8521    1.8393   19.2302 H   0  0  0  0  0  0  0  0  0  0  0  0
  1  2  1  0
  2  3  2  0
  3  4  1  0
  4  5  1  0
  4  6  2  0
  6  7  1  0
  7  8  1  0
  8  9  2  0
  9 10  1  0
  9 11  1  0
 11 12  1  0
 11 13  2  0
 13 14  1  0
 14 15  1  0
 15 16  2  0
 15 17  2  0
 15 18  1  0
 18 19  1  0
 18 20  1  0
  6 21  1  0
 21 22  1  0
 21 23  2  0
 23 24  1  0
 23  2  1  0
 13  7  1  0
M  END
>  <plip>  (1) 
-0.034482758620689655

>  <filename>  (1) 
[H][c]1[n][c]([H])[c](-[n]2[n][c]([H])[c]([H])[c]2[O][S](=[O])(=[O])[N]([H])[H])[c]([H])[c]1[H]

$$$$
