
     RDKit          3D

 38 40  0  0  0  0  0  0  0  0999 V2000
    7.1858    1.9407   21.9496 O   0  0  0  0  0  0  0  0  0  0  0  0
    8.0609    1.0842   21.9684 C   0  0  0  0  0  0  0  0  0  0  0  0
    7.8469   -0.2051   21.6196 N   0  0  0  0  0  0  0  0  0  0  0  0
    6.5328   -0.7170   21.2909 C   0  0  2  0  0  0  0  0  0  0  0  0
    6.6231   -2.2414   21.1067 C   0  0  0  0  0  0  0  0  0  0  0  0
    7.3979   -3.0166   22.1708 C   0  0  0  0  0  0  0  0  0  0  0  0
    8.8048   -2.7935   21.9916 O   0  0  0  0  0  0  0  0  0  0  0  0
    9.2754   -3.1221   22.7700 H   0  0  0  0  0  0  0  0  0  0  0  0
    7.0870   -2.7042   23.1801 H   0  0  0  0  0  0  0  0  0  0  0  0
    7.1718   -4.0874   22.0553 H   0  0  0  0  0  0  0  0  0  0  0  0
    7.0896   -2.4497   20.1408 H   0  0  0  0  0  0  0  0  0  0  0  0
    5.6066   -2.6444   21.0426 H   0  0  0  0  0  0  0  0  0  0  0  0
    6.0333   -0.0377   20.0323 C   0  0  0  0  0  0  0  0  0  0  0  0
    4.8501    0.7082   19.9935 C   0  0  0  0  0  0  0  0  0  0  0  0
    4.5301    1.4027   18.8236 C   0  0  0  0  0  0  0  0  0  0  0  0
    5.3949    1.3041   17.7293 C   0  0  0  0  0  0  0  0  0  0  0  0
    6.5185    0.5689   17.7354 N   0  0  0  0  0  0  0  0  0  0  0  0
    6.8184   -0.0706   18.8723 C   0  0  0  0  0  0  0  0  0  0  0  0
    7.7504   -0.6421   18.8547 H   0  0  0  0  0  0  0  0  0  0  0  0
    5.1764    1.8263   16.8000 H   0  0  0  0  0  0  0  0  0  0  0  0
    3.6512    2.0367   18.7605 H   0  0  0  0  0  0  0  0  0  0  0  0
    4.2196    0.7714   20.8822 H   0  0  0  0  0  0  0  0  0  0  0  0
    5.8433   -0.4695   22.1133 H   0  0  0  0  0  0  0  0  0  0  0  0
    8.5757   -0.8969   21.7085 H   0  0  0  0  0  0  0  0  0  0  0  0
    9.4599    1.3737   22.3734 C   0  0  0  0  0  0  0  0  0  0  0  0
   10.5239    0.5349   22.5456 C   0  0  0  0  0  0  0  0  0  0  0  0
   11.7641    1.2382   22.6456 C   0  0  0  0  0  0  0  0  0  0  0  0
   11.5490    2.6374   22.6538 C   0  0  0  0  0  0  0  0  0  0  0  0
    9.8867    3.0602   22.5062 S   0  0  0  0  0  0  0  0  0  0  0  0
   12.6406    3.5113   22.7215 C   0  0  0  0  0  0  0  0  0  0  0  0
   12.4540    4.8343   22.7473 F   0  0  0  0  0  0  0  0  0  0  0  0
   13.9220    3.0068   22.7571 C   0  0  0  0  0  0  0  0  0  0  0  0
   14.1404    1.6100   22.7356 C   0  0  0  0  0  0  0  0  0  0  0  0
   13.0809    0.7212   22.6863 C   0  0  0  0  0  0  0  0  0  0  0  0
   13.2615   -0.3519   22.6743 H   0  0  0  0  0  0  0  0  0  0  0  0
   15.1565    1.2338   22.6806 H   0  0  0  0  0  0  0  0  0  0  0  0
   14.7309    3.7272   22.7625 H   0  0  0  0  0  0  0  0  0  0  0  0
   10.4632   -0.5515   22.6596 H   0  0  0  0  0  0  0  0  0  0  0  0
  1  2  2  0
  2  3  1  0
  3  4  1  0
  4  5  1  0
  5  6  1  0
  6  7  1  0
  7  8  1  0
  6  9  1  0
  6 10  1  0
  5 11  1  0
  5 12  1  0
  4 13  1  0
 13 14  2  0
 14 15  1  0
 15 16  2  0
 16 17  1  0
 17 18  2  0
 18 19  1  0
 16 20  1  0
 15 21  1  0
 14 22  1  0
  4 23  1  1
  3 24  1  0
  2 25  1  0
 25 26  2  0
 26 27  1  0
 27 28  2  0
 28 29  1  0
 28 30  1  0
 30 31  1  0
 30 32  2  0
 32 33  1  0
 33 34  2  0
 34 35  1  0
 33 36  1  0
 32 37  1  0
 26 38  1  0
 18 13  1  0
 29 25  1  0
 34 27  1  0
M  END
>  <plip>  (1) 
-0.0

>  <filename>  (1) 
[H][O][C]([H])([H])[C]([H])([H])[C@]([H])([c]1[c]([H])[n][c]([H])[c]([H])[c]1[H])[N]([H])[C](=[O])[c]1[s][c]2[c]([F])[c]([H])[c]([H])[c]([H])[c]2[c]1[H]

$$$$
