
     RDKit          3D

 43 46  0  0  0  0  0  0  0  0999 V2000
    4.7992    1.3153   19.0946 C   0  0  0  0  0  0  0  0  0  0  0  0
    5.3967    1.3012   17.8270 C   0  0  0  0  0  0  0  0  0  0  0  0
    6.5601    0.6920   17.5558 N   0  0  0  0  0  0  0  0  0  0  0  0
    7.1588    0.0625   18.5747 C   0  0  0  0  0  0  0  0  0  0  0  0
    6.6310   -0.0244   19.8736 C   0  0  0  0  0  0  0  0  0  0  0  0
    7.3782   -0.6977   20.9941 C   0  0  0  0  0  0  0  0  0  0  0  0
    8.1313    0.3268   21.8582 C   0  0  0  0  0  0  0  0  0  0  0  0
    9.2898    1.0261   21.1430 C   0  0  0  0  0  0  0  0  0  0  0  0
   10.4318    1.1685   22.1628 C   0  0  0  0  0  0  0  0  0  0  0  0
    9.9368    0.5308   23.4654 C   0  0  0  0  0  0  0  0  0  0  0  0
    8.7387   -0.3055   23.0706 N   0  0  0  0  0  4  0  0  0  0  0  0
    7.7654   -0.5033   24.1759 C   0  0  0  0  0  0  0  0  0  0  0  0
    8.3862   -1.2604   25.2828 C   0  0  0  0  0  0  0  0  0  0  0  0
    8.9282   -0.8180   26.4623 C   0  0  0  0  0  0  0  0  0  0  0  0
    9.4158   -1.8343   27.2149 N   0  0  0  0  0  0  0  0  0  0  0  0
    9.1897   -2.9294   26.5098 C   0  0  0  0  0  0  0  0  0  0  0  0
    9.4993   -4.2988   26.7965 C   0  0  0  0  0  0  0  0  0  0  0  0
    9.1564   -5.2713   25.8942 C   0  0  0  0  0  0  0  0  0  0  0  0
    8.4846   -4.9279   24.6582 C   0  0  0  0  0  0  0  0  0  0  0  0
    8.1975   -3.6192   24.3866 C   0  0  0  0  0  0  0  0  0  0  0  0
    8.5561   -2.6349   25.2955 N   0  0  0  0  0  0  0  0  0  0  0  0
    7.6910   -3.2650   23.4955 H   0  0  0  0  0  0  0  0  0  0  0  0
    8.2109   -5.7098   23.9512 H   0  0  0  0  0  0  0  0  0  0  0  0
    9.3879   -6.3184   26.1043 H   0  0  0  0  0  0  0  0  0  0  0  0
   10.0058   -4.4949   27.7366 H   0  0  0  0  0  0  0  0  0  0  0  0
    9.0073    0.2117   26.8123 H   0  0  0  0  0  0  0  0  0  0  0  0
    6.8453   -0.9931   23.8177 H   0  0  0  0  0  0  0  0  0  0  0  0
    7.4606    0.4787   24.5588 H   0  0  0  0  0  0  0  0  0  0  0  0
    9.0822   -1.2634   22.8337 H   0  0  0  0  0  0  0  0  0  0  0  0
   10.6904   -0.0893   23.9607 H   0  0  0  0  0  0  0  0  0  0  0  0
    9.6041    1.2965   24.1742 H   0  0  0  0  0  0  0  0  0  0  0  0
   11.3379    0.6706   21.8091 H   0  0  0  0  0  0  0  0  0  0  0  0
   10.6918    2.2158   22.3379 H   0  0  0  0  0  0  0  0  0  0  0  0
    8.9486    1.9874   20.7545 H   0  0  0  0  0  0  0  0  0  0  0  0
    9.6058    0.4425   20.2736 H   0  0  0  0  0  0  0  0  0  0  0  0
    7.4175    1.0818   22.2149 H   0  0  0  0  0  0  0  0  0  0  0  0
    8.1123   -1.4193   20.6123 H   0  0  0  0  0  0  0  0  0  0  0  0
    6.6760   -1.2547   21.6315 H   0  0  0  0  0  0  0  0  0  0  0  0
    5.4292    0.6453   20.1425 C   0  0  0  0  0  0  0  0  0  0  0  0
    5.0155    0.6343   21.1586 H   0  0  0  0  0  0  0  0  0  0  0  0
    8.1123   -0.4196   18.3580 H   0  0  0  0  0  0  0  0  0  0  0  0
    4.9123    1.7917   16.9873 H   0  0  0  0  0  0  0  0  0  0  0  0
    3.8697    1.8501   19.2511 H   0  0  0  0  0  0  0  0  0  0  0  0
  1  2  2  0
  2  3  1  0
  3  4  2  0
  4  5  1  0
  5  6  1  0
  6  7  1  0
  7  8  1  0
  8  9  1  0
  9 10  1  0
 10 11  1  0
 11 12  1  0
 12 13  1  0
 13 14  2  0
 14 15  1  0
 15 16  2  0
 16 17  1  0
 17 18  2  0
 18 19  1  0
 19 20  2  0
 20 21  1  0
 20 22  1  0
 19 23  1  0
 18 24  1  0
 17 25  1  0
 14 26  1  0
 12 27  1  0
 12 28  1  0
 11 29  1  0
 10 30  1  0
 10 31  1  0
  9 32  1  0
  9 33  1  0
  8 34  1  0
  8 35  1  0
  7 36  1  0
  6 37  1  0
  6 38  1  0
  5 39  2  0
 39 40  1  0
  4 41  1  0
  2 42  1  0
  1 43  1  0
 39  1  1  0
 11  7  1  0
 21 13  1  0
 21 16  1  0
M  CHG  1  11   1
M  END
>  <plip>  (1) 
-0.07142857142857142

>  <filename>  (1) 
[H][c]1[n][c]([H])[c]([C]([H])([H])[C]2([H])[C]([H])([H])[C]([H])([H])[C]([H])([H])[N+]2([H])[C]([H])([H])[c]2[c]([H])[n][c]3[c]([H])[c]([H])[c]([H])[c]([H])[n]23)[c]([H])[c]1[H]

$$$$
