
     RDKit          3D

 26 27  0  0  0  0  0  0  0  0999 V2000
    4.9135    1.7872   16.9891 H   0  0  0  0  0  0  0  0  0  0  0  0
    5.3946    1.2981   17.8316 C   0  0  0  0  0  0  0  0  0  0  0  0
    6.5583    0.6836   17.5635 N   0  0  0  0  0  0  0  0  0  0  0  0
    7.1639    0.0672   18.5867 C   0  0  0  0  0  0  0  0  0  0  0  0
    8.1134   -0.4202   18.3605 H   0  0  0  0  0  0  0  0  0  0  0  0
    6.6531    0.0126   19.8946 C   0  0  0  0  0  0  0  0  0  0  0  0
    7.3949   -0.7009   20.9862 C   0  0  0  0  0  0  0  0  0  0  0  0
    6.7078   -1.1089   21.7381 H   0  0  0  0  0  0  0  0  0  0  0  0
    8.0054   -1.5215   20.5949 H   0  0  0  0  0  0  0  0  0  0  0  0
    8.5187    0.4314   21.8729 S   0  0  0  0  0  0  0  0  0  0  0  0
    9.0155   -0.6274   23.0845 N   0  0  0  0  0  0  0  0  0  0  0  0
    9.7969   -1.2282   22.8928 H   0  0  0  0  0  0  0  0  0  0  0  0
    8.3538   -0.8505   24.2692 C   0  0  0  0  0  0  0  0  0  0  0  0
    8.8513   -1.8118   25.1545 C   0  0  0  0  0  0  0  0  0  0  0  0
    9.7231   -2.3988   24.9092 H   0  0  0  0  0  0  0  0  0  0  0  0
    8.1854   -1.9769   26.3574 C   0  0  0  0  0  0  0  0  0  0  0  0
    8.5382   -2.7081   27.0774 H   0  0  0  0  0  0  0  0  0  0  0  0
    7.1021   -1.2896   26.7259 N   0  0  0  0  0  0  0  0  0  0  0  0
    6.6473   -0.3858   25.8572 C   0  0  0  0  0  0  0  0  0  0  0  0
    5.7688    0.1721   26.1649 H   0  0  0  0  0  0  0  0  0  0  0  0
    7.2191   -0.1260   24.6249 C   0  0  0  0  0  0  0  0  0  0  0  0
    6.8156    0.6225   23.9632 H   0  0  0  0  0  0  0  0  0  0  0  0
    5.4378    0.6554   20.1494 C   0  0  0  0  0  0  0  0  0  0  0  0
    5.0049    0.6367   21.1532 H   0  0  0  0  0  0  0  0  0  0  0  0
    4.8005    1.3167   19.0982 C   0  0  0  0  0  0  0  0  0  0  0  0
    3.8692    1.8471   19.2527 H   0  0  0  0  0  0  0  0  0  0  0  0
  1  2  1  0
  2  3  2  0
  3  4  1  0
  4  5  1  0
  4  6  2  0
  6  7  1  0
  7  8  1  0
  7  9  1  0
  7 10  1  0
 10 11  1  0
 11 12  1  0
 11 13  1  0
 13 14  2  0
 14 15  1  0
 14 16  1  0
 16 17  1  0
 16 18  2  0
 18 19  1  0
 19 20  1  0
 19 21  2  0
 21 22  1  0
  6 23  1  0
 23 24  1  0
 23 25  2  0
 25 26  1  0
 25  2  1  0
 21 13  1  0
M  END
>  <plip>  (1) 
-0.03571428571428571

>  <filename>  (1) 
[H][c]1[n][c]([H])[c]([C]([H])([H])[S][N]([H])[c]2[c]([H])[c]([H])[n][c]([H])[c]2[H])[c]([H])[c]1[H]

$$$$
