
     RDKit          3D

 30 31  0  0  0  0  0  0  0  0999 V2000
    9.6490    1.9391   21.8627 C   0  0  0  0  0  0  0  0  0  0  0  0
    8.1865    1.5037   22.0387 C   0  0  0  0  0  0  0  0  0  0  0  0
    7.5877    2.0827   23.3240 C   0  0  0  0  0  0  0  0  0  0  0  0
    6.2237    1.7137   23.4333 O   0  0  0  0  0  0  0  0  0  0  0  0
    5.8957    2.0851   24.2638 H   0  0  0  0  0  0  0  0  0  0  0  0
    8.1647    1.7187   24.1909 H   0  0  0  0  0  0  0  0  0  0  0  0
    7.6868    3.1795   23.2909 H   0  0  0  0  0  0  0  0  0  0  0  0
    8.0669   -0.0164   21.9883 C   0  0  0  0  0  0  0  0  0  0  0  0
    8.6964   -0.7964   22.9594 C   0  0  0  0  0  0  0  0  0  0  0  0
    8.6188   -2.1902   22.8840 C   0  0  0  0  0  0  0  0  0  0  0  0
    7.9751   -2.8591   21.9204 N   0  0  0  0  0  0  0  0  0  0  0  0
    7.3720   -2.1068   20.9926 C   0  0  0  0  0  0  0  0  0  0  0  0
    7.3776   -0.7040   20.9748 C   0  0  0  0  0  0  0  0  0  0  0  0
    6.6539    0.0159   19.8922 C   0  0  0  0  0  0  0  0  0  0  0  0
    5.4374    0.6539   20.1538 C   0  0  0  0  0  0  0  0  0  0  0  0
    4.7972    1.3129   19.1025 C   0  0  0  0  0  0  0  0  0  0  0  0
    5.3991    1.2945   17.8361 C   0  0  0  0  0  0  0  0  0  0  0  0
    6.5648    0.6858   17.5656 N   0  0  0  0  0  0  0  0  0  0  0  0
    7.1696    0.0655   18.5871 C   0  0  0  0  0  0  0  0  0  0  0  0
    8.1184   -0.4266   18.3769 H   0  0  0  0  0  0  0  0  0  0  0  0
    4.9086    1.7797   16.9975 H   0  0  0  0  0  0  0  0  0  0  0  0
    3.8672    1.8477   19.2602 H   0  0  0  0  0  0  0  0  0  0  0  0
    5.0244    0.6326   21.1694 H   0  0  0  0  0  0  0  0  0  0  0  0
    6.8347   -2.6253   20.1992 H   0  0  0  0  0  0  0  0  0  0  0  0
    9.1064   -2.7937   23.6393 H   0  0  0  0  0  0  0  0  0  0  0  0
    9.2506   -0.3375   23.7695 H   0  0  0  0  0  0  0  0  0  0  0  0
    7.6184    1.9293   21.2053 H   0  0  0  0  0  0  0  0  0  0  0  0
   10.0699    1.5182   20.9422 H   0  0  0  0  0  0  0  0  0  0  0  0
   10.2738    1.6006   22.6980 H   0  0  0  0  0  0  0  0  0  0  0  0
    9.7218    3.0292   21.8012 H   0  0  0  0  0  0  0  0  0  0  0  0
  1  2  1  0
  2  3  1  0
  3  4  1  0
  4  5  1  0
  3  6  1  0
  3  7  1  0
  2  8  1  0
  8  9  2  0
  9 10  1  0
 10 11  2  0
 11 12  1  0
 12 13  2  0
 13 14  1  0
 14 15  2  0
 15 16  1  0
 16 17  2  0
 17 18  1  0
 18 19  2  0
 19 20  1  0
 17 21  1  0
 16 22  1  0
 15 23  1  0
 12 24  1  0
 10 25  1  0
  9 26  1  0
  2 27  1  0
  1 28  1  0
  1 29  1  0
  1 30  1  0
 13  8  1  0
 19 14  1  0
M  END
>  <plip>  (1) 
-0.034482758620689655

>  <filename>  (1) 
[H][O][C]([H])([H])[C]([H])([c]1[c]([H])[c]([H])[n][c]([H])[c]1-[c]1[c]([H])[n][c]([H])[c]([H])[c]1[H])[C]([H])([H])[H]

$$$$
