
     RDKit          3D

 38 42  0  0  0  0  0  0  0  0999 V2000
    4.9601    1.4509   19.1565 C   0  0  0  0  0  0  0  0  0  0  0  0
    5.5492    1.4089   17.8918 C   0  0  0  0  0  0  0  0  0  0  0  0
    6.7904    0.9458   17.6778 N   0  0  0  0  0  0  0  0  0  0  0  0
    7.4776    0.5195   18.7444 C   0  0  0  0  0  0  0  0  0  0  0  0
    6.9749    0.4812   20.0726 C   0  0  0  0  0  0  0  0  0  0  0  0
    7.7943   -0.0952   21.2152 C   0  0  0  0  0  0  0  0  0  0  0  0
    7.1712   -0.2242   22.5931 C   0  0  0  0  0  0  0  0  0  0  0  0
    7.0174    0.8213   23.3593 N   0  0  0  0  0  0  0  0  0  0  0  0
    6.3735    0.3126   24.4764 O   0  0  0  0  0  0  0  0  0  0  0  0
    6.2282   -1.0022   24.2899 C   0  0  0  0  0  0  0  0  0  0  0  0
    5.3669   -1.7218   25.2609 C   0  0  0  0  0  0  0  0  0  0  0  0
    4.6591   -2.9767   24.7948 C   0  0  0  0  0  0  0  0  0  0  0  0
    5.6797   -3.0815   25.8804 C   0  0  0  0  0  0  0  0  0  0  0  0
    7.0307   -3.7542   25.6971 C   0  0  0  0  0  0  0  0  0  0  0  0
    7.5655   -3.8000   27.1295 C   0  0  0  0  0  0  0  0  0  0  0  0
    6.4100   -4.0577   27.9169 O   0  0  0  0  0  0  0  0  0  0  0  0
    5.2886   -3.4059   27.3326 C   0  0  0  0  0  0  0  0  0  0  0  0
    4.4524   -4.1187   27.3830 H   0  0  0  0  0  0  0  0  0  0  0  0
    5.0171   -2.4991   27.9049 H   0  0  0  0  0  0  0  0  0  0  0  0
    8.0561   -2.8494   27.4139 H   0  0  0  0  0  0  0  0  0  0  0  0
    8.2775   -4.6112   27.3230 H   0  0  0  0  0  0  0  0  0  0  0  0
    7.6780   -3.2294   24.9910 H   0  0  0  0  0  0  0  0  0  0  0  0
    6.8748   -4.7797   25.3368 H   0  0  0  0  0  0  0  0  0  0  0  0
    4.9271   -3.3660   23.8116 H   0  0  0  0  0  0  0  0  0  0  0  0
    3.6095   -3.0762   25.0562 H   0  0  0  0  0  0  0  0  0  0  0  0
    4.7902   -1.0360   25.8796 H   0  0  0  0  0  0  0  0  0  0  0  0
    6.7437   -1.4060   23.1571 N   0  0  0  0  0  0  0  0  0  0  0  0
    8.8059   -1.1717   20.8726 C   0  0  0  0  0  0  0  0  0  0  0  0
    9.2891    0.1939   21.2169 C   0  0  0  0  0  0  0  0  0  0  0  0
    9.7655    0.3327   22.1834 H   0  0  0  0  0  0  0  0  0  0  0  0
    9.6859    0.8409   20.4384 H   0  0  0  0  0  0  0  0  0  0  0  0
    8.9501   -1.9664   21.6014 H   0  0  0  0  0  0  0  0  0  0  0  0
    8.8659   -1.4934   19.8363 H   0  0  0  0  0  0  0  0  0  0  0  0
    5.6776    0.9815   20.2598 C   0  0  0  0  0  0  0  0  0  0  0  0
    5.2349    1.0138   21.2567 H   0  0  0  0  0  0  0  0  0  0  0  0
    8.4901    0.1863   18.5180 H   0  0  0  0  0  0  0  0  0  0  0  0
    5.0107    1.7692   17.0174 H   0  0  0  0  0  0  0  0  0  0  0  0
    3.9603    1.8592   19.2649 H   0  0  0  0  0  0  0  0  0  0  0  0
  1  2  2  0
  2  3  1  0
  3  4  2  0
  4  5  1  0
  5  6  1  0
  6  7  1  0
  7  8  2  0
  8  9  1  0
  9 10  1  0
 10 11  1  0
 11 12  1  0
 12 13  1  0
 13 14  1  0
 14 15  1  0
 15 16  1  0
 16 17  1  0
 17 18  1  0
 17 19  1  0
 15 20  1  0
 15 21  1  0
 14 22  1  0
 14 23  1  0
 12 24  1  0
 12 25  1  0
 11 26  1  0
 10 27  2  0
  6 28  1  0
 28 29  1  0
 29 30  1  0
 29 31  1  0
 28 32  1  0
 28 33  1  0
  5 34  2  0
 34 35  1  0
  4 36  1  0
  2 37  1  0
  1 38  1  0
 34  1  1  0
 29  6  1  0
 27  7  1  0
 13 11  1  0
 17 13  1  0
M  END
>  <plip>  (1) 
-0.03333333333333333

>  <filename>  (1) 
[H][c]1[n][c]([H])[c]([C]2([c]3[n][o][c]([C]4([H])[C]([H])([H])[C]45[C]([H])([H])[O][C]([H])([H])[C]5([H])[H])[n]3)[C]([H])([H])[C]2([H])[H])[c]([H])[c]1[H]

$$$$
