
     RDKit          3D

 29 30  0  0  0  0  0  0  0  0999 V2000
    4.9902    1.8565   16.9759 H   0  0  0  0  0  0  0  0  0  0  0  0
    5.4472    1.3071   17.7997 C   0  0  0  0  0  0  0  0  0  0  0  0
    6.6058    0.6825   17.5443 N   0  0  0  0  0  0  0  0  0  0  0  0
    7.2034    0.0266   18.5494 C   0  0  0  0  0  0  0  0  0  0  0  0
    8.1405   -0.4621   18.3055 H   0  0  0  0  0  0  0  0  0  0  0  0
    6.6806   -0.0743   19.8725 C   0  0  0  0  0  0  0  0  0  0  0  0
    7.3397   -0.8227   20.8710 N   0  0  0  0  0  0  0  0  0  0  0  0
    8.7453   -0.8766   20.8526 N   0  0  0  0  0  0  0  0  0  0  0  0
    9.0498   -1.7597   21.2651 H   0  0  0  0  0  0  0  0  0  0  0  0
    9.5116    0.1429   21.5941 C   0  0  1  0  0  0  0  0  0  0  0  0
    9.1153    1.1350   21.3449 H   0  0  0  0  0  0  0  0  0  0  0  0
    9.4191   -0.0481   23.0032 O   0  0  0  0  0  0  0  0  0  0  0  0
   10.7112   -0.2072   23.5913 C   0  0  0  0  0  0  0  0  0  0  0  0
   11.0866    0.7506   23.9917 H   0  0  0  0  0  0  0  0  0  0  0  0
   10.5941   -0.9037   24.4255 H   0  0  0  0  0  0  0  0  0  0  0  0
   11.6200   -0.7207   22.4776 C   0  0  0  0  0  0  0  0  0  0  0  0
   12.6641   -0.4246   22.6370 H   0  0  0  0  0  0  0  0  0  0  0  0
   11.5712   -1.8176   22.4030 H   0  0  0  0  0  0  0  0  0  0  0  0
   11.0020   -0.0445   21.2429 C   0  0  0  0  0  0  0  0  0  0  0  0
   11.0964   -0.6771   20.3623 H   0  0  0  0  0  0  0  0  0  0  0  0
   11.4693    0.9270   21.0424 H   0  0  0  0  0  0  0  0  0  0  0  0
    6.6942   -1.1356   22.1434 C   0  0  0  0  0  0  0  0  0  0  0  0
    5.7733   -1.7003   21.9600 H   0  0  0  0  0  0  0  0  0  0  0  0
    7.3554   -1.7718   22.7425 H   0  0  0  0  0  0  0  0  0  0  0  0
    6.4775   -0.2282   22.7270 H   0  0  0  0  0  0  0  0  0  0  0  0
    5.4523    0.5883   20.1065 C   0  0  0  0  0  0  0  0  0  0  0  0
    5.0039    0.5762   21.0971 H   0  0  0  0  0  0  0  0  0  0  0  0
    4.8412    1.2861   19.0577 C   0  0  0  0  0  0  0  0  0  0  0  0
    3.9122    1.8248   19.2136 H   0  0  0  0  0  0  0  0  0  0  0  0
  1  2  1  0
  2  3  2  0
  3  4  1  0
  4  5  1  0
  4  6  2  0
  6  7  1  0
  7  8  1  0
  8  9  1  0
  8 10  1  0
 10 11  1  1
 10 12  1  0
 12 13  1  0
 13 14  1  0
 13 15  1  0
 13 16  1  0
 16 17  1  0
 16 18  1  0
 16 19  1  0
 19 20  1  0
 19 21  1  0
  7 22  1  0
 22 23  1  0
 22 24  1  0
 22 25  1  0
  6 26  1  0
 26 27  1  0
 26 28  2  0
 28 29  1  0
 28  2  1  0
 19 10  1  0
M  END
>  <plip>  (1) 
-0.07142857142857142

>  <filename>  (1) 
[H][c]1[n][c]([H])[c]([N]([N]([H])[C@@]2([H])[O][C]([H])([H])[C]([H])([H])[C]2([H])[H])[C]([H])([H])[H])[c]([H])[c]1[H]

$$$$
