
     RDKit          3D

 35 37  0  0  0  0  0  0  0  0999 V2000
    8.0266    1.4554   22.7269 H   0  0  0  0  0  0  0  0  0  0  0  0
    8.9136    1.6920   22.1413 C   0  0  0  0  0  0  0  0  0  0  0  0
    9.3968    0.8058   21.2594 C   0  0  0  0  0  0  0  0  0  0  0  0
   10.2079    1.1059   20.5988 H   0  0  0  0  0  0  0  0  0  0  0  0
    8.9255   -0.6330   21.1314 C   0  0  2  0  0  0  0  0  0  0  0  0
    9.5018   -1.0987   20.3224 H   0  0  0  0  0  0  0  0  0  0  0  0
    7.4899   -0.7873   20.8342 N   0  0  0  0  0  0  0  0  0  0  0  0
    6.7917   -0.0855   19.8174 C   0  0  0  0  0  0  0  0  0  0  0  0
    7.2901    0.0553   18.5004 C   0  0  0  0  0  0  0  0  0  0  0  0
    8.2343   -0.4112   18.2147 H   0  0  0  0  0  0  0  0  0  0  0  0
    6.6421    0.7155   17.5322 N   0  0  0  0  0  0  0  0  0  0  0  0
    5.4713    1.2975   17.8359 C   0  0  0  0  0  0  0  0  0  0  0  0
    4.9820    1.8420   17.0297 H   0  0  0  0  0  0  0  0  0  0  0  0
    4.8943    1.2223   19.1080 C   0  0  0  0  0  0  0  0  0  0  0  0
    3.9519    1.7241   19.2989 H   0  0  0  0  0  0  0  0  0  0  0  0
    5.5512    0.5046   20.1103 C   0  0  0  0  0  0  0  0  0  0  0  0
    5.1213    0.3898   21.1057 H   0  0  0  0  0  0  0  0  0  0  0  0
    6.8611   -1.6326   21.7391 C   0  0  0  0  0  0  0  0  0  0  0  0
    5.7780   -2.1714   21.6546 O   0  0  0  0  0  0  0  0  0  0  0  0
    7.7340   -1.8146   22.7838 N   0  0  0  0  0  0  0  0  0  0  0  0
    7.4969   -2.6509   23.2884 H   0  0  0  0  0  0  0  0  0  0  0  0
    9.0987   -1.4619   22.4411 C   0  0  0  0  0  0  0  0  0  0  0  0
    9.7348   -2.3398   22.2664 H   0  0  0  0  0  0  0  0  0  0  0  0
    9.5767   -0.8832   23.2457 H   0  0  0  0  0  0  0  0  0  0  0  0
    9.4547    3.0369   22.4464 C   0  0  0  0  0  0  0  0  0  0  0  0
    8.5534    4.0564   22.8064 C   0  0  0  0  0  0  0  0  0  0  0  0
    7.4985    3.8025   22.9153 H   0  0  0  0  0  0  0  0  0  0  0  0
    8.9911    5.3673   23.0099 C   0  0  0  0  0  0  0  0  0  0  0  0
    8.2743    6.1547   23.2338 H   0  0  0  0  0  0  0  0  0  0  0  0
   10.3567    5.6696   22.8980 C   0  0  0  0  0  0  0  0  0  0  0  0
   10.7057    6.6905   23.0220 H   0  0  0  0  0  0  0  0  0  0  0  0
   11.2727    4.6528   22.6015 C   0  0  0  0  0  0  0  0  0  0  0  0
   12.3331    4.8746   22.5182 H   0  0  0  0  0  0  0  0  0  0  0  0
   10.8280    3.3420   22.3894 C   0  0  0  0  0  0  0  0  0  0  0  0
   11.5448    2.5475   22.1936 H   0  0  0  0  0  0  0  0  0  0  0  0
  1  2  1  0
  2  3  2  3
  3  4  1  0
  3  5  1  0
  5  6  1  6
  5  7  1  0
  7  8  1  0
  8  9  2  0
  9 10  1  0
  9 11  1  0
 11 12  2  0
 12 13  1  0
 12 14  1  0
 14 15  1  0
 14 16  2  0
 16 17  1  0
  7 18  1  0
 18 19  2  0
 18 20  1  0
 20 21  1  0
 20 22  1  0
 22 23  1  0
 22 24  1  0
  2 25  1  0
 25 26  2  0
 26 27  1  0
 26 28  1  0
 28 29  1  0
 28 30  2  0
 30 31  1  0
 30 32  1  0
 32 33  1  0
 32 34  2  0
 34 35  1  0
 22  5  1  0
 34 25  1  0
 16  8  1  0
M  END
>  <plip>  (1) 
-0.10714285714285714

>  <filename>  (1) 
[H][C](=[C]([H])[C@]1([H])[N]([c]2[c]([H])[n][c]([H])[c]([H])[c]2[H])[C](=[O])[N]([H])[C]1([H])[H])[c]1[c]([H])[c]([H])[c]([H])[c]([H])[c]1[H]

$$$$
