
     RDKit          3D

 34 35  0  0  0  0  0  0  0  0999 V2000
   10.7564    0.2715   22.8512 C   0  0  0  0  0  0  0  0  0  0  0  0
    9.4320   -0.4419   22.6104 C   0  0  0  0  0  0  0  0  0  0  0  0
    8.8185   -0.0604   21.2597 C   0  0  0  0  0  0  0  0  0  0  0  0
    7.3978   -0.5588   21.0642 C   0  0  0  0  0  0  0  0  0  0  0  0
    7.4328   -2.0324   20.8083 N   0  0  0  0  0  4  0  0  0  0  0  0
    6.0721   -2.6405   20.7348 C   0  0  0  0  0  0  0  0  0  0  0  0
    6.0374   -4.1334   20.5223 C   0  0  0  0  0  0  0  0  0  0  0  0
    5.6560   -4.6043   19.3572 N   0  0  0  0  0  0  0  0  0  0  0  0
    5.7442   -6.2398   19.4099 S   0  0  0  0  0  0  0  0  0  0  0  0
    6.2629   -6.3791   20.9642 N   0  0  0  0  0  0  0  0  0  0  0  0
    6.3722   -5.1702   21.4531 C   0  0  0  0  0  0  0  0  0  0  0  0
    6.6822   -5.0382   22.4899 H   0  0  0  0  0  0  0  0  0  0  0  0
    5.4838   -2.3397   21.6098 H   0  0  0  0  0  0  0  0  0  0  0  0
    5.5661   -2.2101   19.8692 H   0  0  0  0  0  0  0  0  0  0  0  0
    7.8543   -2.0933   19.8452 H   0  0  0  0  0  0  0  0  0  0  0  0
    8.0520   -2.5065   21.4978 H   0  0  0  0  0  0  0  0  0  0  0  0
    6.6621    0.0886   19.9142 C   0  0  0  0  0  0  0  0  0  0  0  0
    5.4233    0.6996   20.1298 C   0  0  0  0  0  0  0  0  0  0  0  0
    4.7826    1.3271   19.0610 C   0  0  0  0  0  0  0  0  0  0  0  0
    5.3990    1.2861   17.8048 C   0  0  0  0  0  0  0  0  0  0  0  0
    6.5478    0.6396   17.5641 N   0  0  0  0  0  0  0  0  0  0  0  0
    7.1544    0.0463   18.6026 C   0  0  0  0  0  0  0  0  0  0  0  0
    8.0981   -0.4461   18.3518 H   0  0  0  0  0  0  0  0  0  0  0  0
    4.9478    1.8055   16.9611 H   0  0  0  0  0  0  0  0  0  0  0  0
    3.8513    1.8667   19.1982 H   0  0  0  0  0  0  0  0  0  0  0  0
    4.9806    0.6766   21.1280 H   0  0  0  0  0  0  0  0  0  0  0  0
    6.8227   -0.3629   21.9787 H   0  0  0  0  0  0  0  0  0  0  0  0
    8.8025    1.0301   21.1652 H   0  0  0  0  0  0  0  0  0  0  0  0
    9.4461   -0.4250   20.4370 H   0  0  0  0  0  0  0  0  0  0  0  0
    8.7175   -0.1885   23.4032 H   0  0  0  0  0  0  0  0  0  0  0  0
    9.5792   -1.5279   22.6795 H   0  0  0  0  0  0  0  0  0  0  0  0
   11.4902    0.0030   22.0843 H   0  0  0  0  0  0  0  0  0  0  0  0
   11.1904    0.0304   23.8257 H   0  0  0  0  0  0  0  0  0  0  0  0
   10.6150    1.3566   22.8099 H   0  0  0  0  0  0  0  0  0  0  0  0
  1  2  1  0
  2  3  1  0
  3  4  1  0
  4  5  1  0
  5  6  1  0
  6  7  1  0
  7  8  2  0
  8  9  1  0
  9 10  1  0
 10 11  2  0
 11 12  1  0
  6 13  1  0
  6 14  1  0
  5 15  1  0
  5 16  1  0
  4 17  1  0
 17 18  2  0
 18 19  1  0
 19 20  2  0
 20 21  1  0
 21 22  2  0
 22 23  1  0
 20 24  1  0
 19 25  1  0
 18 26  1  0
  4 27  1  0
  3 28  1  0
  3 29  1  0
  2 30  1  0
  2 31  1  0
  1 32  1  0
  1 33  1  0
  1 34  1  0
 11  7  1  0
 22 17  1  0
M  CHG  1   5   1
M  END
>  <plip>  (1) 
-0.10714285714285714

>  <filename>  (1) 
[H][c]1[n][s][n][c]1[C]([H])([H])[N+]([H])([H])[C]([H])([c]1[c]([H])[n][c]([H])[c]([H])[c]1[H])[C]([H])([H])[C]([H])([H])[C]([H])([H])[H]

$$$$
