
     RDKit          3D

 50 51  0  0  0  0  0  0  0  0999 V2000
    8.9778    3.6111   24.8365 C   0  0  0  0  0  0  0  0  0  0  0  0
    8.4805    2.7461   23.6932 C   0  0  0  0  0  0  0  0  0  0  0  0
    9.3323    1.9838   22.9900 C   0  0  0  0  0  0  0  0  0  0  0  0
    9.0399    0.9949   21.9044 C   0  0  0  0  0  0  0  0  0  0  0  0
    9.8434    0.7813   21.0114 O   0  0  0  0  0  0  0  0  0  0  0  0
    7.8686    0.2957   22.0385 N   0  0  0  0  0  0  0  0  0  0  0  0
    7.4190   -0.6370   21.0240 C   0  0  0  0  0  0  0  0  0  0  0  0
    6.5665   -1.7644   21.6465 C   0  0  0  0  0  0  0  0  0  0  0  0
    7.3535   -2.9299   22.2723 N   0  0  0  0  0  4  0  0  0  0  0  0
    6.4560   -4.0960   22.5384 C   0  0  0  0  0  0  0  0  0  0  0  0
    5.6653   -3.7857   23.2347 H   0  0  0  0  0  0  0  0  0  0  0  0
    7.0187   -4.9158   22.9949 H   0  0  0  0  0  0  0  0  0  0  0  0
    5.9924   -4.4557   21.6154 H   0  0  0  0  0  0  0  0  0  0  0  0
    8.0395   -2.5334   23.5537 C   0  0  0  0  0  0  0  0  0  0  0  0
    8.8069   -1.7822   23.3600 H   0  0  0  0  0  0  0  0  0  0  0  0
    8.5051   -3.4084   24.0196 H   0  0  0  0  0  0  0  0  0  0  0  0
    7.2964   -2.1260   24.2514 H   0  0  0  0  0  0  0  0  0  0  0  0
    8.0777   -3.1891   21.5656 H   0  0  0  0  0  0  0  0  0  0  0  0
    5.9424   -1.3281   22.4317 H   0  0  0  0  0  0  0  0  0  0  0  0
    5.9055   -2.1833   20.8847 H   0  0  0  0  0  0  0  0  0  0  0  0
    6.6703    0.0848   19.9170 C   0  0  0  0  0  0  0  0  0  0  0  0
    5.4062    0.6622   20.1083 C   0  0  0  0  0  0  0  0  0  0  0  0
    4.7911    1.3029   19.0326 C   0  0  0  0  0  0  0  0  0  0  0  0
    5.4472    1.3197   17.7952 C   0  0  0  0  0  0  0  0  0  0  0  0
    6.6463    0.7631   17.5857 N   0  0  0  0  0  0  0  0  0  0  0  0
    7.2412    0.1874   18.6403 C   0  0  0  0  0  0  0  0  0  0  0  0
    8.2305   -0.2358   18.4595 H   0  0  0  0  0  0  0  0  0  0  0  0
    4.9814    1.7983   16.9375 H   0  0  0  0  0  0  0  0  0  0  0  0
    3.8434    1.8259   19.1415 H   0  0  0  0  0  0  0  0  0  0  0  0
    4.9375    0.6925   21.0958 H   0  0  0  0  0  0  0  0  0  0  0  0
    8.3206   -1.0970   20.6038 H   0  0  0  0  0  0  0  0  0  0  0  0
    7.1577    0.8344   22.5053 H   0  0  0  0  0  0  0  0  0  0  0  0
   10.4046    2.1070   23.1190 H   0  0  0  0  0  0  0  0  0  0  0  0
    7.0402    2.8838   23.2757 C   0  0  0  0  0  0  0  0  0  0  0  0
    6.8172    3.3099   21.9583 C   0  0  0  0  0  0  0  0  0  0  0  0
    5.5267    3.4176   21.4572 C   0  0  0  0  0  0  0  0  0  0  0  0
    4.4302    3.1688   22.2860 C   0  0  0  0  0  0  0  0  0  0  0  0
    4.6500    2.7854   23.6090 C   0  0  0  0  0  0  0  0  0  0  0  0
    5.9389    2.5871   24.1201 C   0  0  0  0  0  0  0  0  0  0  0  0
    6.0776    2.0318   25.5203 C   0  0  0  0  0  0  0  0  0  0  0  0
    6.3460    2.8153   26.2394 H   0  0  0  0  0  0  0  0  0  0  0  0
    5.1361    1.5757   25.8501 H   0  0  0  0  0  0  0  0  0  0  0  0
    6.8493    1.2572   25.5644 H   0  0  0  0  0  0  0  0  0  0  0  0
    3.8205    2.6358   24.2925 H   0  0  0  0  0  0  0  0  0  0  0  0
    3.4172    3.2322   21.8913 H   0  0  0  0  0  0  0  0  0  0  0  0
    5.3994    3.5698   20.3989 H   0  0  0  0  0  0  0  0  0  0  0  0
    7.6937    3.5071   21.3479 H   0  0  0  0  0  0  0  0  0  0  0  0
    9.7475    4.3196   24.4874 H   0  0  0  0  0  0  0  0  0  0  0  0
    9.4244    2.9977   25.6348 H   0  0  0  0  0  0  0  0  0  0  0  0
    8.1630    4.2138   25.2556 H   0  0  0  0  0  0  0  0  0  0  0  0
  1  2  1  0
  2  3  2  3
  3  4  1  0
  4  5  2  0
  4  6  1  0
  6  7  1  0
  7  8  1  0
  8  9  1  0
  9 10  1  0
 10 11  1  0
 10 12  1  0
 10 13  1  0
  9 14  1  0
 14 15  1  0
 14 16  1  0
 14 17  1  0
  9 18  1  0
  8 19  1  0
  8 20  1  0
  7 21  1  0
 21 22  2  0
 22 23  1  0
 23 24  2  0
 24 25  1  0
 25 26  2  0
 26 27  1  0
 24 28  1  0
 23 29  1  0
 22 30  1  0
  7 31  1  0
  6 32  1  0
  3 33  1  0
  2 34  1  0
 34 35  2  0
 35 36  1  0
 36 37  2  0
 37 38  1  0
 38 39  2  0
 39 40  1  0
 40 41  1  0
 40 42  1  0
 40 43  1  0
 38 44  1  0
 37 45  1  0
 36 46  1  0
 35 47  1  0
  1 48  1  0
  1 49  1  0
  1 50  1  0
 26 21  1  0
 39 34  1  0
M  CHG  1   9   1
M  END
>  <plip>  (1) 
-0.13793103448275862

>  <filename>  (1) 
[H][C]([C](=[O])[N]([H])[C]([H])([c]1[c]([H])[n][c]([H])[c]([H])[c]1[H])[C]([H])([H])[N+]([H])([C]([H])([H])[H])[C]([H])([H])[H])=[C]([c]1[c]([H])[c]([H])[c]([H])[c]([H])[c]1[C]([H])([H])[H])[C]([H])([H])[H]

$$$$
