
     RDKit          3D

 22 22  0  0  0  0  0  0  0  0999 V2000
    8.3528   -1.9156   25.0923 H   0  0  0  0  0  0  0  0  0  0  0  0
    7.4894   -1.7232   24.6952 O   0  0  0  0  0  0  0  0  0  0  0  0
    7.9034   -1.7538   23.1761 P   0  0  0  0  0  0  0  0  0  0  0  0
    9.2392   -1.1251   23.2025 O   0  0  0  0  0  0  0  0  0  0  0  0
    8.1455   -3.2887   22.8751 O   0  0  0  0  0  0  0  0  0  0  0  0
    8.7760   -3.5104   23.5759 H   0  0  0  0  0  0  0  0  0  0  0  0
    6.7260   -0.9709   21.9992 C   0  0  0  0  0  0  0  0  0  0  0  0
    6.0657    0.0939   22.5529 F   0  0  0  0  0  0  0  0  0  0  0  0
    5.7957   -1.8557   21.5044 F   0  0  0  0  0  0  0  0  0  0  0  0
    7.6742   -0.5081   20.9038 C   0  0  0  0  0  0  0  0  0  0  0  0
    8.5676    0.3900   21.3933 F   0  0  0  0  0  0  0  0  0  0  0  0
    8.3877   -1.5683   20.4303 F   0  0  0  0  0  0  0  0  0  0  0  0
    6.9209    0.1387   19.7677 C   0  0  0  0  0  0  0  0  0  0  0  0
    7.4977    0.1132   18.4949 C   0  0  0  0  0  0  0  0  0  0  0  0
    8.4560   -0.3825   18.3674 H   0  0  0  0  0  0  0  0  0  0  0  0
    6.9054    0.6434   17.4136 N   0  0  0  0  0  0  0  0  0  0  0  0
    5.7116    1.2422   17.5644 C   0  0  0  0  0  0  0  0  0  0  0  0
    5.2231    1.6869   16.7009 H   0  0  0  0  0  0  0  0  0  0  0  0
    5.0697    1.3159   18.8011 C   0  0  0  0  0  0  0  0  0  0  0  0
    4.1009    1.7990   18.8737 H   0  0  0  0  0  0  0  0  0  0  0  0
    5.6705    0.7626   19.9275 C   0  0  0  0  0  0  0  0  0  0  0  0
    5.1531    0.8223   20.8861 H   0  0  0  0  0  0  0  0  0  0  0  0
  1  2  1  0
  2  3  1  0
  3  4  2  0
  3  5  1  0
  5  6  1  0
  3  7  1  0
  7  8  1  0
  7  9  1  0
  7 10  1  0
 10 11  1  0
 10 12  1  0
 10 13  1  0
 13 14  2  0
 14 15  1  0
 14 16  1  0
 16 17  2  0
 17 18  1  0
 17 19  1  0
 19 20  1  0
 19 21  2  0
 21 22  1  0
 21 13  1  0
M  END
>  <plip>  (1) 
-0.03333333333333333

>  <filename>  (1) 
[H][O][P](=[O])([O][H])[C]([F])([F])[C]([F])([F])[c]1[c]([H])[n][c]([H])[c]([H])[c]1[H]

$$$$
