
     RDKit          3D

 30 32  0  0  0  0  0  0  0  0999 V2000
   11.3090   -1.7161   21.2029 N   0  0  0  0  0  0  0  0  0  0  0  0
   10.5106   -2.0015   22.2504 C   0  0  0  0  0  0  0  0  0  0  0  0
   11.0286   -2.8810   23.1977 C   0  0  0  0  0  0  0  0  0  0  0  0
   10.3111   -3.0709   24.3585 C   0  0  0  0  0  0  0  0  0  0  0  0
    9.0975   -2.4054   24.6329 C   0  0  0  0  0  0  0  0  0  0  0  0
    8.5434   -1.5716   23.6381 C   0  0  0  0  0  0  0  0  0  0  0  0
    9.2157   -1.4120   22.4061 C   0  0  0  0  0  0  0  0  0  0  0  0
    8.7265   -0.6485   21.2202 C   0  0  0  0  0  0  0  0  0  0  0  0
    9.4706   -0.0576   20.4429 O   0  0  0  0  0  0  0  0  0  0  0  0
    7.3704   -0.6610   20.9907 N   0  0  0  0  0  0  0  0  0  0  0  0
    6.6871   -0.0198   19.9099 C   0  0  0  0  0  0  0  0  0  0  0  0
    5.4553    0.5989   20.1634 C   0  0  0  0  0  0  0  0  0  0  0  0
    4.8050    1.2710   19.1196 C   0  0  0  0  0  0  0  0  0  0  0  0
    5.3910    1.2784   17.8492 C   0  0  0  0  0  0  0  0  0  0  0  0
    6.5506    0.6595   17.5713 N   0  0  0  0  0  0  0  0  0  0  0  0
    7.1803    0.0368   18.5776 C   0  0  0  0  0  0  0  0  0  0  0  0
    8.1188   -0.4496   18.3288 H   0  0  0  0  0  0  0  0  0  0  0  0
    4.9197    1.8024   17.0206 H   0  0  0  0  0  0  0  0  0  0  0  0
    3.8703    1.7994   19.2858 H   0  0  0  0  0  0  0  0  0  0  0  0
    5.0381    0.5668   21.1703 H   0  0  0  0  0  0  0  0  0  0  0  0
    6.8107   -1.0831   21.7110 H   0  0  0  0  0  0  0  0  0  0  0  0
    7.6182   -1.0472   23.8889 H   0  0  0  0  0  0  0  0  0  0  0  0
    8.6409   -2.7879   25.8933 N   0  0  0  0  0  0  0  0  0  0  0  0
    9.5296   -3.6348   26.3316 C   0  0  0  0  0  0  0  0  0  0  0  0
   10.5556   -3.8685   25.4469 N   0  0  0  0  0  0  0  0  0  0  0  0
   11.4121   -4.3705   25.6144 H   0  0  0  0  0  0  0  0  0  0  0  0
    9.5107   -4.0858   27.3176 H   0  0  0  0  0  0  0  0  0  0  0  0
   11.9950   -3.3311   23.0381 H   0  0  0  0  0  0  0  0  0  0  0  0
   10.9365   -1.0935   20.5010 H   0  0  0  0  0  0  0  0  0  0  0  0
   12.0458   -2.3712   21.0086 H   0  0  0  0  0  0  0  0  0  0  0  0
  1  2  1  0
  2  3  2  0
  3  4  1  0
  4  5  2  0
  5  6  1  0
  6  7  2  0
  7  8  1  0
  8  9  2  0
  8 10  1  0
 10 11  1  0
 11 12  2  0
 12 13  1  0
 13 14  2  0
 14 15  1  0
 15 16  2  0
 16 17  1  0
 14 18  1  0
 13 19  1  0
 12 20  1  0
 10 21  1  0
  6 22  1  0
  5 23  1  0
 23 24  2  0
 24 25  1  0
 25 26  1  0
 24 27  1  0
  3 28  1  0
  1 29  1  0
  1 30  1  0
  7  2  1  0
 16 11  1  0
 25  4  1  0
M  END
>  <plip>  (1) 
-0.13793103448275862

>  <filename>  (1) 
[H][c]1[n][c]([H])[c]([N]([H])[C](=[O])[c]2[c]([N]([H])[H])[c]([H])[c]3[c]([n][c]([H])[n]3[H])[c]2[H])[c]([H])[c]1[H]

$$$$
