
     RDKit          3D

 40 42  0  0  0  0  0  0  0  0999 V2000
    4.9669    1.7671   17.0009 H   0  0  0  0  0  0  0  0  0  0  0  0
    5.4401    1.2734   17.8489 C   0  0  0  0  0  0  0  0  0  0  0  0
    6.6089    0.6528   17.6081 N   0  0  0  0  0  0  0  0  0  0  0  0
    7.2311    0.0497   18.6345 C   0  0  0  0  0  0  0  0  0  0  0  0
    8.1774   -0.4465   18.4318 H   0  0  0  0  0  0  0  0  0  0  0  0
    6.7001    0.0279   19.9350 C   0  0  0  0  0  0  0  0  0  0  0  0
    7.4334   -0.5452   20.9695 O   0  0  0  0  0  0  0  0  0  0  0  0
    6.8476   -1.4844   21.7839 C   0  0  0  0  0  0  0  0  0  0  0  0
    5.8168   -2.0611   21.5112 O   0  0  0  0  0  0  0  0  0  0  0  0
    7.6213   -1.6520   22.9292 N   0  0  0  0  0  0  0  0  0  0  0  0
    7.1210   -2.3156   24.0610 N   0  0  0  0  0  0  0  0  0  0  0  0
    6.2083   -1.5198   24.9047 C   0  0  0  0  0  0  0  0  0  0  0  0
    5.7549   -0.7091   24.3232 H   0  0  0  0  0  0  0  0  0  0  0  0
    6.7726   -1.0502   25.7222 H   0  0  0  0  0  0  0  0  0  0  0  0
    5.1528   -2.5106   25.4133 C   0  0  0  0  0  0  0  0  0  0  0  0
    5.4372   -2.8566   26.4142 H   0  0  0  0  0  0  0  0  0  0  0  0
    4.1566   -2.0627   25.4879 H   0  0  0  0  0  0  0  0  0  0  0  0
    5.1803   -3.6759   24.4079 C   0  0  2  0  0  0  0  0  0  0  0  0
    4.4968   -3.4701   23.5782 H   0  0  0  0  0  0  0  0  0  0  0  0
    4.9816   -5.0741   25.0145 C   0  0  0  0  0  0  0  0  0  0  0  0
    4.5649   -4.9962   26.0348 H   0  0  0  0  0  0  0  0  0  0  0  0
    4.2707   -5.6805   24.4368 H   0  0  0  0  0  0  0  0  0  0  0  0
    6.3008   -5.7226   25.0084 N   0  0  0  0  0  0  0  0  0  0  0  0
    6.6028   -6.5143   26.1830 C   0  0  0  0  0  0  0  0  0  0  0  0
    5.8781   -7.3287   26.2951 H   0  0  0  0  0  0  0  0  0  0  0  0
    6.6130   -5.9230   27.1198 H   0  0  0  0  0  0  0  0  0  0  0  0
    7.5940   -6.9649   26.0691 H   0  0  0  0  0  0  0  0  0  0  0  0
    7.3321   -4.7306   24.6985 C   0  0  0  0  0  0  0  0  0  0  0  0
    8.1558   -5.1935   24.1382 H   0  0  0  0  0  0  0  0  0  0  0  0
    7.7647   -4.2565   25.5985 H   0  0  0  0  0  0  0  0  0  0  0  0
    6.6140   -3.6712   23.8614 C   0  0  2  0  0  0  0  0  0  0  0  0
    6.6392   -3.9542   22.8031 H   0  0  0  0  0  0  0  0  0  0  0  0
    9.0489   -1.3219   22.9981 C   0  0  0  0  0  0  0  0  0  0  0  0
    9.4299   -1.6972   23.9522 H   0  0  0  0  0  0  0  0  0  0  0  0
    9.6086   -1.8004   22.1871 H   0  0  0  0  0  0  0  0  0  0  0  0
    9.2136   -0.2413   22.9541 H   0  0  0  0  0  0  0  0  0  0  0  0
    5.4720    0.6391   20.1778 C   0  0  0  0  0  0  0  0  0  0  0  0
    5.0459    0.5883   21.1762 H   0  0  0  0  0  0  0  0  0  0  0  0
    4.8407    1.2923   19.1135 C   0  0  0  0  0  0  0  0  0  0  0  0
    3.8994    1.8109   19.2553 H   0  0  0  0  0  0  0  0  0  0  0  0
  1  2  1  0
  2  3  2  0
  3  4  1  0
  4  5  1  0
  4  6  2  0
  6  7  1  0
  7  8  1  0
  8  9  2  0
  8 10  1  0
 10 11  1  0
 11 12  1  0
 12 13  1  0
 12 14  1  0
 12 15  1  0
 15 16  1  0
 15 17  1  0
 15 18  1  0
 18 19  1  6
 18 20  1  0
 20 21  1  0
 20 22  1  0
 20 23  1  0
 23 24  1  0
 24 25  1  0
 24 26  1  0
 24 27  1  0
 23 28  1  0
 28 29  1  0
 28 30  1  0
 28 31  1  0
 31 32  1  6
 10 33  1  0
 33 34  1  0
 33 35  1  0
 33 36  1  0
  6 37  1  0
 37 38  1  0
 37 39  2  0
 39 40  1  0
 39  2  1  0
 31 11  1  0
 31 18  1  0
M  END
>  <plip>  (1) 
-0.07142857142857142

>  <filename>  (1) 
[H][c]1[n][c]([H])[c]([O][C](=[O])[N]([N]2[C]([H])([H])[C]([H])([H])[C@]3([H])[C]([H])([H])[N]([C]([H])([H])[H])[C]([H])([H])[C@]23[H])[C]([H])([H])[H])[c]([H])[c]1[H]

$$$$
