
     RDKit          3D

 17 17  0  0  0  0  0  0  0  0999 V2000
    7.2819   -1.9420   22.6867 H   0  0  0  0  0  0  0  0  0  0  0  0
    6.7366   -1.4383   21.8935 C   0  0  0  0  0  0  0  0  0  0  0  0
    5.6626   -1.5106   21.8312 H   0  0  0  0  0  0  0  0  0  0  0  0
    7.3853   -0.7171   20.9865 C   0  0  0  0  0  0  0  0  0  0  0  0
    8.8034   -0.6686   20.9719 N   0  0  0  0  0  0  0  0  0  0  0  0
    9.5912   -1.1382   21.7559 C   0  0  0  0  0  0  0  0  0  0  0  0
   10.5591   -1.8293   22.7824 S   0  0  0  0  0  0  0  0  0  0  0  0
    6.6909    0.0359   19.9144 C   0  0  0  0  0  0  0  0  0  0  0  0
    7.1965    0.0737   18.6060 C   0  0  0  0  0  0  0  0  0  0  0  0
    8.1317   -0.4263   18.3760 H   0  0  0  0  0  0  0  0  0  0  0  0
    6.5705    0.6648   17.5804 N   0  0  0  0  0  0  0  0  0  0  0  0
    5.4101    1.2868   17.8401 C   0  0  0  0  0  0  0  0  0  0  0  0
    4.9240    1.7778   16.9975 H   0  0  0  0  0  0  0  0  0  0  0  0
    4.8150    1.3092   19.1078 C   0  0  0  0  0  0  0  0  0  0  0  0
    3.8777    1.8390   19.2579 H   0  0  0  0  0  0  0  0  0  0  0  0
    5.4545    0.6572   20.1578 C   0  0  0  0  0  0  0  0  0  0  0  0
    5.0150    0.6479   21.1595 H   0  0  0  0  0  0  0  0  0  0  0  0
  1  2  1  0
  2  3  1  0
  2  4  2  3
  4  5  1  0
  5  6  2  0
  6  7  2  0
  4  8  1  0
  8  9  2  0
  9 10  1  0
  9 11  1  0
 11 12  2  0
 12 13  1  0
 12 14  1  0
 14 15  1  0
 14 16  2  0
 16 17  1  0
 16  8  1  0
M  END
>  <plip>  (1) 
-0.03571428571428571

>  <filename>  (1) 
[H][C]([H])=[C]([N]=[C]=[S])[c]1[c]([H])[n][c]([H])[c]([H])[c]1[H]

$$$$
