
     RDKit          3D

 51 54  0  0  0  0  0  0  0  0999 V2000
    9.1287    1.1464   20.9670 C   0  0  0  0  0  0  0  0  0  0  0  0
    8.3074    0.2833   21.9044 N   0  0  0  0  0  4  0  0  0  0  0  0
    9.1697   -0.7014   22.6806 C   0  0  0  0  0  0  0  0  0  0  0  0
    8.7875   -2.1159   22.1959 C   0  0  0  0  0  0  0  0  0  0  0  0
    7.8130   -1.9001   21.0285 C   0  0  1  0  0  0  0  0  0  0  0  0
    6.8252   -3.0201   20.6892 C   0  0  0  0  0  0  0  0  0  0  0  0
    5.8432   -3.2988   21.7204 N   0  0  0  0  0  0  0  0  0  0  0  0
    6.0590   -4.3040   22.6207 C   0  0  0  0  0  0  0  0  0  0  0  0
    6.9490   -5.1225   22.4729 O   0  0  0  0  0  0  0  0  0  0  0  0
    5.1200   -4.2777   23.8244 C   0  0  2  0  0  0  0  0  0  0  0  0
    3.9233   -4.9093   23.5592 F   0  0  0  0  0  0  0  0  0  0  0  0
    5.0581   -3.1058   24.7460 C   0  0  0  0  0  0  0  0  0  0  0  0
    5.6823   -4.4104   25.2095 C   0  0  1  0  0  0  0  0  0  0  0  0
    4.9898   -5.2085   26.2779 C   0  0  0  0  0  0  0  0  0  0  0  0
    4.5227   -4.5929   27.4521 C   0  0  0  0  0  0  0  0  0  0  0  0
    3.8744   -5.3364   28.4437 C   0  0  0  0  0  0  0  0  0  0  0  0
    3.6872   -6.7117   28.2695 C   0  0  0  0  0  0  0  0  0  0  0  0
    4.1506   -7.3283   27.1020 C   0  0  0  0  0  0  0  0  0  0  0  0
    4.8123   -6.5878   26.1210 C   0  0  0  0  0  0  0  0  0  0  0  0
    5.1751   -7.0763   25.2182 H   0  0  0  0  0  0  0  0  0  0  0  0
    3.9935   -8.3848   26.9459 H   0  0  0  0  0  0  0  0  0  0  0  0
    3.1644   -7.2939   29.0245 H   0  0  0  0  0  0  0  0  0  0  0  0
    3.5160   -4.8419   29.3449 H   0  0  0  0  0  0  0  0  0  0  0  0
    4.6696   -3.5217   27.5687 H   0  0  0  0  0  0  0  0  0  0  0  0
    6.7703   -4.4702   25.2565 H   0  0  0  0  0  0  0  0  0  0  0  0
    4.0733   -2.8727   25.1429 H   0  0  0  0  0  0  0  0  0  0  0  0
    5.6914   -2.2405   24.5538 H   0  0  0  0  0  0  0  0  0  0  0  0
    5.2110   -2.5770   22.0289 H   0  0  0  0  0  0  0  0  0  0  0  0
    6.2994   -2.7875   19.7576 H   0  0  0  0  0  0  0  0  0  0  0  0
    7.3685   -3.9548   20.5271 H   0  0  0  0  0  0  0  0  0  0  0  0
    7.1433   -0.5555   21.3016 C   0  0  2  0  0  0  0  0  0  0  0  0
    6.4765    0.0751   20.1093 C   0  0  0  0  0  0  0  0  0  0  0  0
    5.2576    0.7706   20.1861 C   0  0  0  0  0  0  0  0  0  0  0  0
    4.7731    1.3895   19.0283 C   0  0  0  0  0  0  0  0  0  0  0  0
    5.5053    1.2831   17.8415 C   0  0  0  0  0  0  0  0  0  0  0  0
    6.6537    0.6024   17.7450 N   0  0  0  0  0  0  0  0  0  0  0  0
    7.1127    0.0190   18.8555 C   0  0  0  0  0  0  0  0  0  0  0  0
    8.0584   -0.5124   18.7383 H   0  0  0  0  0  0  0  0  0  0  0  0
    5.1643    1.7613   16.9257 H   0  0  0  0  0  0  0  0  0  0  0  0
    3.8566    1.9667   19.0300 H   0  0  0  0  0  0  0  0  0  0  0  0
    4.7015    0.8366   21.1264 H   0  0  0  0  0  0  0  0  0  0  0  0
    6.4281   -0.6379   22.1277 H   0  0  0  0  0  0  0  0  0  0  0  0
    8.4275   -1.7332   20.1381 H   0  0  0  0  0  0  0  0  0  0  0  0
    9.6698   -2.6760   21.8636 H   0  0  0  0  0  0  0  0  0  0  0  0
    8.3251   -2.6866   23.0090 H   0  0  0  0  0  0  0  0  0  0  0  0
    8.9815   -0.5783   23.7492 H   0  0  0  0  0  0  0  0  0  0  0  0
   10.2188   -0.4607   22.4953 H   0  0  0  0  0  0  0  0  0  0  0  0
    7.8341    0.9398   22.5506 H   0  0  0  0  0  0  0  0  0  0  0  0
    9.6011    0.5431   20.1835 H   0  0  0  0  0  0  0  0  0  0  0  0
    8.4950    1.8932   20.4830 H   0  0  0  0  0  0  0  0  0  0  0  0
    9.9258    1.6616   21.5181 H   0  0  0  0  0  0  0  0  0  0  0  0
  1  2  1  0
  2  3  1  0
  3  4  1  0
  4  5  1  0
  5  6  1  0
  6  7  1  0
  7  8  1  0
  8  9  2  0
  8 10  1  0
 10 11  1  6
 10 12  1  0
 12 13  1  0
 13 14  1  0
 14 15  2  0
 15 16  1  0
 16 17  2  0
 17 18  1  0
 18 19  2  0
 19 20  1  0
 18 21  1  0
 17 22  1  0
 16 23  1  0
 15 24  1  0
 13 25  1  6
 12 26  1  0
 12 27  1  0
  7 28  1  0
  6 29  1  0
  6 30  1  0
  5 31  1  0
 31 32  1  0
 32 33  2  0
 33 34  1  0
 34 35  2  0
 35 36  1  0
 36 37  2  0
 37 38  1  0
 35 39  1  0
 34 40  1  0
 33 41  1  0
 31 42  1  1
  5 43  1  6
  4 44  1  0
  4 45  1  0
  3 46  1  0
  3 47  1  0
  2 48  1  0
  1 49  1  0
  1 50  1  0
  1 51  1  0
 31  2  1  0
 37 32  1  0
 13 10  1  0
 19 14  1  0
M  CHG  1   2   1
M  END
>  <plip>  (1) 
-0.13793103448275862

>  <filename>  (1) 
[H][c]1[n][c]([H])[c]([C@@]2([H])[C@]([H])([C]([H])([H])[N]([H])[C](=[O])[C@]3([F])[C]([H])([H])[C@@]3([H])[c]3[c]([H])[c]([H])[c]([H])[c]([H])[c]3[H])[C]([H])([H])[C]([H])([H])[N+]2([H])[C]([H])([H])[H])[c]([H])[c]1[H]

$$$$
