
     RDKit          3D

 32 34  0  0  0  0  0  0  0  0999 V2000
    5.0266    1.7710   17.0004 H   0  0  0  0  0  0  0  0  0  0  0  0
    5.5031    1.2572   17.8339 C   0  0  0  0  0  0  0  0  0  0  0  0
    6.6588    0.6261   17.5610 N   0  0  0  0  0  0  0  0  0  0  0  0
    7.2644   -0.0120   18.5718 C   0  0  0  0  0  0  0  0  0  0  0  0
    8.2113   -0.5023   18.3513 H   0  0  0  0  0  0  0  0  0  0  0  0
    6.7695   -0.0853   19.8879 C   0  0  0  0  0  0  0  0  0  0  0  0
    7.5142   -0.7754   20.8882 N   0  0  0  0  0  0  0  0  0  0  0  0
    8.1321   -0.1682   21.4208 H   0  0  0  0  0  0  0  0  0  0  0  0
    6.9354   -1.7171   21.7595 C   0  0  0  0  0  0  0  0  0  0  0  0
    5.8664   -2.6270   21.5676 C   0  0  0  0  0  0  0  0  0  0  0  0
    5.2503   -2.7709   20.6916 H   0  0  0  0  0  0  0  0  0  0  0  0
    5.6702   -3.3858   22.6476 N   0  0  0  0  0  0  0  0  0  0  0  0
    6.6120   -2.9711   23.5151 N   0  0  0  0  0  0  0  0  0  0  0  0
    6.7122   -3.4137   24.4189 H   0  0  0  0  0  0  0  0  0  0  0  0
    7.4356   -2.0025   23.0277 C   0  0  0  0  0  0  0  0  0  0  0  0
    8.6645   -1.5543   23.6740 C   0  0  0  0  0  0  0  0  0  0  0  0
    9.9282   -1.4227   22.9945 C   0  0  0  0  0  0  0  0  0  0  0  0
   10.2824   -1.8671   21.6115 C   0  0  0  0  0  0  0  0  0  0  0  0
   11.3387   -2.1372   21.5538 H   0  0  0  0  0  0  0  0  0  0  0  0
    9.6700   -2.7173   21.3146 H   0  0  0  0  0  0  0  0  0  0  0  0
   10.1095   -1.0790   20.8775 H   0  0  0  0  0  0  0  0  0  0  0  0
   10.8310   -0.8944   23.7647 N   0  0  0  0  0  0  0  0  0  0  0  0
   10.2172   -0.6917   24.9825 O   0  0  0  0  0  0  0  0  0  0  0  0
    8.9423   -1.1017   24.9436 C   0  0  0  0  0  0  0  0  0  0  0  0
    8.1907   -1.0063   26.2355 C   0  0  0  0  0  0  0  0  0  0  0  0
    7.2460   -0.4672   26.1200 H   0  0  0  0  0  0  0  0  0  0  0  0
    7.9421   -2.0018   26.6195 H   0  0  0  0  0  0  0  0  0  0  0  0
    8.8054   -0.5060   26.9897 H   0  0  0  0  0  0  0  0  0  0  0  0
    5.5619    0.5824   20.1559 C   0  0  0  0  0  0  0  0  0  0  0  0
    5.1463    0.5761   21.1652 H   0  0  0  0  0  0  0  0  0  0  0  0
    4.9262    1.2607   19.1082 C   0  0  0  0  0  0  0  0  0  0  0  0
    4.0018    1.8060   19.2704 H   0  0  0  0  0  0  0  0  0  0  0  0
  1  2  1  0
  2  3  2  0
  3  4  1  0
  4  5  1  0
  4  6  2  0
  6  7  1  0
  7  8  1  0
  7  9  1  0
  9 10  1  0
 10 11  1  0
 10 12  2  0
 12 13  1  0
 13 14  1  0
 13 15  1  0
 15 16  1  0
 16 17  1  0
 17 18  1  0
 18 19  1  0
 18 20  1  0
 18 21  1  0
 17 22  2  0
 22 23  1  0
 23 24  1  0
 24 25  1  0
 25 26  1  0
 25 27  1  0
 25 28  1  0
  6 29  1  0
 29 30  1  0
 29 31  2  0
 31 32  1  0
 31  2  1  0
 15  9  2  0
 24 16  2  0
M  END
>  <plip>  (1) 
-0.07142857142857142

>  <filename>  (1) 
[H][c]1[n][c]([H])[c]([N]([H])[c]2[c]([H])[n][n]([H])[c]2-[c]2[c]([C]([H])([H])[H])[n][o][c]2[C]([H])([H])[H])[c]([H])[c]1[H]

$$$$
