
     RDKit          3D

 38 40  0  0  0  0  0  0  0  0999 V2000
    6.2079   -2.1839   19.3266 H   0  0  0  0  0  0  0  0  0  0  0  0
    6.2661   -2.8431   20.0390 O   0  0  0  0  0  0  0  0  0  0  0  0
    6.4288   -2.1028   21.2375 C   0  0  1  0  0  0  0  0  0  0  0  0
    5.4364   -1.7732   21.5900 H   0  0  0  0  0  0  0  0  0  0  0  0
    6.9439   -3.0269   22.3510 C   0  0  0  0  0  0  0  0  0  0  0  0
    8.1530   -3.7458   22.2372 C   0  0  0  0  0  0  0  0  0  0  0  0
    8.7271   -3.7123   21.3233 H   0  0  0  0  0  0  0  0  0  0  0  0
    8.5979   -4.5037   23.3074 C   0  0  0  0  0  0  0  0  0  0  0  0
    9.5472   -5.0276   23.2513 H   0  0  0  0  0  0  0  0  0  0  0  0
    7.9166   -4.6578   24.4531 N   0  0  0  0  0  0  0  0  0  0  0  0
    6.7660   -4.0103   24.5544 C   0  0  0  0  0  0  0  0  0  0  0  0
    6.0303   -4.1057   25.6761 O   0  0  0  0  0  0  0  0  0  0  0  0
    6.4992   -4.9062   26.7587 C   0  0  0  0  0  0  0  0  0  0  0  0
    7.4754   -4.5598   27.1148 H   0  0  0  0  0  0  0  0  0  0  0  0
    6.5912   -5.9570   26.4620 H   0  0  0  0  0  0  0  0  0  0  0  0
    5.7504   -4.7967   27.5434 H   0  0  0  0  0  0  0  0  0  0  0  0
    6.2278   -3.1908   23.5388 C   0  0  0  0  0  0  0  0  0  0  0  0
    5.2774   -2.6983   23.7286 H   0  0  0  0  0  0  0  0  0  0  0  0
    7.2339   -0.7682   21.0174 C   0  0  0  0  0  0  0  0  0  0  0  0
    6.6040    0.0227   19.8722 C   0  0  0  0  0  0  0  0  0  0  0  0
    7.1406    0.0600   18.5689 C   0  0  0  0  0  0  0  0  0  0  0  0
    8.0849   -0.4424   18.3483 H   0  0  0  0  0  0  0  0  0  0  0  0
    6.5760    0.6935   17.5295 N   0  0  0  0  0  0  0  0  0  0  0  0
    5.4170    1.3304   17.7599 C   0  0  0  0  0  0  0  0  0  0  0  0
    4.9773    1.8466   16.9094 H   0  0  0  0  0  0  0  0  0  0  0  0
    4.7824    1.3519   19.0056 C   0  0  0  0  0  0  0  0  0  0  0  0
    3.8492    1.8893   19.1343 H   0  0  0  0  0  0  0  0  0  0  0  0
    5.3859    0.6882   20.0756 C   0  0  0  0  0  0  0  0  0  0  0  0
    4.9338    0.6878   21.0687 H   0  0  0  0  0  0  0  0  0  0  0  0
    7.3540    0.0307   22.3536 C   0  0  0  0  0  0  0  0  0  0  0  0
    6.8074   -0.4092   23.1966 H   0  0  0  0  0  0  0  0  0  0  0  0
    7.0379    1.0731   22.2632 H   0  0  0  0  0  0  0  0  0  0  0  0
    8.8813   -0.1874   22.3648 C   0  0  0  0  0  0  0  0  0  0  0  0
    9.4816    0.7224   22.4409 H   0  0  0  0  0  0  0  0  0  0  0  0
    9.2154   -0.8785   23.1404 H   0  0  0  0  0  0  0  0  0  0  0  0
    8.8009   -0.8154   20.9549 C   0  0  0  0  0  0  0  0  0  0  0  0
    9.1749   -0.1137   20.2030 H   0  0  0  0  0  0  0  0  0  0  0  0
    9.2992   -1.7726   20.7729 H   0  0  0  0  0  0  0  0  0  0  0  0
  1  2  1  0
  2  3  1  0
  3  4  1  1
  3  5  1  0
  5  6  2  0
  6  7  1  0
  6  8  1  0
  8  9  1  0
  8 10  2  0
 10 11  1  0
 11 12  1  0
 12 13  1  0
 13 14  1  0
 13 15  1  0
 13 16  1  0
 11 17  2  0
 17 18  1  0
  3 19  1  0
 19 20  1  0
 20 21  2  0
 21 22  1  0
 21 23  1  0
 23 24  2  0
 24 25  1  0
 24 26  1  0
 26 27  1  0
 26 28  2  0
 28 29  1  0
 19 30  1  0
 30 31  1  0
 30 32  1  0
 30 33  1  0
 33 34  1  0
 33 35  1  0
 33 36  1  0
 36 37  1  0
 36 38  1  0
 17  5  1  0
 36 19  1  0
 28 20  1  0
M  END
>  <plip>  (1) 
-0.10344827586206896

>  <filename>  (1) 
[H][O][C@@]([H])([c]1[c]([H])[c]([H])[n][c]([O][C]([H])([H])[H])[c]1[H])[C]1([c]2[c]([H])[n][c]([H])[c]([H])[c]2[H])[C]([H])([H])[C]([H])([H])[C]1([H])[H]

$$$$
