
     RDKit          3D

 28 30  0  0  0  0  0  0  0  0999 V2000
    4.9171    1.7847   16.9916 H   0  0  0  0  0  0  0  0  0  0  0  0
    5.3989    1.2958   17.8348 C   0  0  0  0  0  0  0  0  0  0  0  0
    6.5617    0.6799   17.5742 N   0  0  0  0  0  0  0  0  0  0  0  0
    7.1666    0.0705   18.5988 C   0  0  0  0  0  0  0  0  0  0  0  0
    8.1123   -0.4177   18.3719 H   0  0  0  0  0  0  0  0  0  0  0  0
    6.6496    0.0151   19.9021 C   0  0  0  0  0  0  0  0  0  0  0  0
    7.4104   -0.7089   20.9836 C   0  0  0  0  0  0  0  0  0  0  0  0
    6.8570   -0.6725   21.9318 H   0  0  0  0  0  0  0  0  0  0  0  0
    7.4990   -1.7725   20.7298 H   0  0  0  0  0  0  0  0  0  0  0  0
    8.7595   -0.1746   21.1580 N   0  0  0  0  0  0  0  0  0  0  0  0
    9.9351   -0.7984   20.8553 C   0  0  0  0  0  0  0  0  0  0  0  0
    9.9699   -1.8116   20.4818 H   0  0  0  0  0  0  0  0  0  0  0  0
   10.9510    0.0012   21.0251 N   0  0  0  0  0  0  0  0  0  0  0  0
   10.4447    1.2233   21.3773 N   0  0  0  0  0  0  0  0  0  0  0  0
    9.1402    1.1084   21.4756 C   0  0  0  0  0  0  0  0  0  0  0  0
    8.2305    2.1579   21.9253 C   0  0  0  0  0  0  0  0  0  0  0  0
    7.0889    2.1123   22.6941 C   0  0  0  0  0  0  0  0  0  0  0  0
    6.6513    1.2141   23.1050 H   0  0  0  0  0  0  0  0  0  0  0  0
    6.6149    3.4379   22.8438 C   0  0  0  0  0  0  0  0  0  0  0  0
    5.7352    3.7454   23.3846 H   0  0  0  0  0  0  0  0  0  0  0  0
    7.4919    4.2682   22.1893 C   0  0  0  0  0  0  0  0  0  0  0  0
    7.4945    5.3472   22.0715 H   0  0  0  0  0  0  0  0  0  0  0  0
    8.4715    3.4802   21.6561 N   0  0  0  0  0  0  0  0  0  0  0  0
    9.2664    3.8036   21.1303 H   0  0  0  0  0  0  0  0  0  0  0  0
    5.4253    0.6445   20.1489 C   0  0  0  0  0  0  0  0  0  0  0  0
    4.9968    0.6363   21.1590 H   0  0  0  0  0  0  0  0  0  0  0  0
    4.7956    1.3127   19.0965 C   0  0  0  0  0  0  0  0  0  0  0  0
    3.8666    1.8500   19.2501 H   0  0  0  0  0  0  0  0  0  0  0  0
  1  2  1  0
  2  3  2  0
  3  4  1  0
  4  5  1  0
  4  6  2  0
  6  7  1  0
  7  8  1  0
  7  9  1  0
  7 10  1  0
 10 11  1  0
 11 12  1  0
 11 13  2  0
 13 14  1  0
 14 15  2  0
 15 16  1  0
 16 17  2  0
 17 18  1  0
 17 19  1  0
 19 20  1  0
 19 21  2  0
 21 22  1  0
 21 23  1  0
 23 24  1  0
  6 25  1  0
 25 26  1  0
 25 27  2  0
 27 28  1  0
 27  2  1  0
 15 10  1  0
 23 16  1  0
M  END
>  <plip>  (1) 
-0.07142857142857142

>  <filename>  (1) 
[H][c]1[n][c]([H])[c]([C]([H])([H])[n]2[c]([H])[n][n][c]2-[c]2[c]([H])[c]([H])[c]([H])[n]2[H])[c]([H])[c]1[H]

$$$$
