
     RDKit          3D

 28 29  0  0  0  0  0  0  0  0999 V2000
    4.9443    1.7789   17.0003 H   0  0  0  0  0  0  0  0  0  0  0  0
    5.4204    1.2765   17.8362 C   0  0  0  0  0  0  0  0  0  0  0  0
    6.5866    0.6568   17.5763 N   0  0  0  0  0  0  0  0  0  0  0  0
    7.2134    0.0655   18.6016 C   0  0  0  0  0  0  0  0  0  0  0  0
    8.1600   -0.4317   18.3816 H   0  0  0  0  0  0  0  0  0  0  0  0
    6.7151    0.0557   19.9277 C   0  0  0  0  0  0  0  0  0  0  0  0
    7.4900   -0.5256   20.9835 N   0  0  0  0  0  0  0  0  0  0  0  0
    7.9211   -1.4242   20.7758 H   0  0  0  0  0  0  0  0  0  0  0  0
    6.8419   -0.8735   22.5278 S   0  0  0  0  0  4  0  0  0  0  0  0
    7.1682   -2.3270   22.5735 O   0  0  0  0  0  0  0  0  0  0  0  0
    8.1231   -0.0173   23.5076 C   0  0  0  0  0  0  0  0  0  0  0  0
    8.2065    0.9888   23.0832 H   0  0  0  0  0  0  0  0  0  0  0  0
    9.0319   -0.5924   23.3019 H   0  0  0  0  0  0  0  0  0  0  0  0
    7.7698   -0.0130   24.9673 C   0  0  0  0  0  0  0  0  0  0  0  0
    6.9971    1.0232   25.5053 C   0  0  0  0  0  0  0  0  0  0  0  0
    6.6881    1.8435   24.8623 H   0  0  0  0  0  0  0  0  0  0  0  0
    6.6040    1.0107   26.8427 C   0  0  0  0  0  0  0  0  0  0  0  0
    5.9907    1.7989   27.2719 H   0  0  0  0  0  0  0  0  0  0  0  0
    7.0048   -0.0599   27.6385 C   0  0  0  0  0  0  0  0  0  0  0  0
    6.6040   -0.0874   28.9179 F   0  0  0  0  0  0  0  0  0  0  0  0
    7.7895   -1.1021   27.1462 C   0  0  0  0  0  0  0  0  0  0  0  0
    8.0922   -1.9137   27.7980 H   0  0  0  0  0  0  0  0  0  0  0  0
    8.1625   -1.0690   25.8015 C   0  0  0  0  0  0  0  0  0  0  0  0
    8.7490   -1.8871   25.3921 H   0  0  0  0  0  0  0  0  0  0  0  0
    5.4764    0.6663   20.1719 C   0  0  0  0  0  0  0  0  0  0  0  0
    5.0503    0.6429   21.1742 H   0  0  0  0  0  0  0  0  0  0  0  0
    4.8289    1.2906   19.1019 C   0  0  0  0  0  0  0  0  0  0  0  0
    3.8830    1.7992   19.2554 H   0  0  0  0  0  0  0  0  0  0  0  0
  1  2  1  0
  2  3  2  0
  3  4  1  0
  4  5  1  0
  4  6  2  0
  6  7  1  0
  7  8  1  0
  9  7  1  6
  9 10  2  0
  9 11  1  0
 11 12  1  0
 11 13  1  0
 11 14  1  0
 14 15  2  0
 15 16  1  0
 15 17  1  0
 17 18  1  0
 17 19  2  0
 19 20  1  0
 19 21  1  0
 21 22  1  0
 21 23  2  0
 23 24  1  0
  6 25  1  0
 25 26  1  0
 25 27  2  0
 27 28  1  0
 27  2  1  0
 23 14  1  0
M  END
>  <plip>  (1) 
-0.03571428571428571

>  <filename>  (1) 
[H][c]1[n][c]([H])[c]([N]([H])[S@@](=[O])[C]([H])([H])[c]2[c]([H])[c]([H])[c]([F])[c]([H])[c]2[H])[c]([H])[c]1[H]

$$$$
