
     RDKit          3D

 53 56  0  0  0  0  0  0  0  0999 V2000
    6.6641   -5.6950   25.6923 O   0  0  0  0  0  0  0  0  0  0  0  0
    6.1819   -4.7385   25.1544 C   0  0  0  0  0  0  0  0  0  0  0  0
    6.4232   -4.4133   23.8530 O   0  0  0  0  0  0  0  0  0  0  0  0
    5.7536   -3.2055   23.4573 C   0  0  0  0  0  0  0  0  0  0  0  0
    6.7615   -2.1104   23.0745 C   0  0  0  0  0  0  0  0  0  0  0  0
    6.8519   -1.9035   21.5855 N   0  0  0  0  0  4  0  0  0  0  0  0
    7.7437   -0.8070   20.9739 C   0  0  0  0  0  0  0  0  0  0  0  0
    6.8747   -0.1989   19.8938 C   0  0  0  0  0  0  0  0  0  0  0  0
    5.6158    0.3742   20.1698 C   0  0  0  0  0  0  0  0  0  0  0  0
    4.9538    1.0665   19.1556 C   0  0  0  0  0  0  0  0  0  0  0  0
    5.5299    1.1017   17.8819 C   0  0  0  0  0  0  0  0  0  0  0  0
    6.6902    0.5040   17.5816 N   0  0  0  0  0  0  0  0  0  0  0  0
    7.3365   -0.1222   18.5740 C   0  0  0  0  0  0  0  0  0  0  0  0
    8.2752   -0.6082   18.2997 H   0  0  0  0  0  0  0  0  0  0  0  0
    5.0453    1.6518   17.0764 H   0  0  0  0  0  0  0  0  0  0  0  0
    4.0051    1.5649   19.3226 H   0  0  0  0  0  0  0  0  0  0  0  0
    5.1765    0.3276   21.1716 H   0  0  0  0  0  0  0  0  0  0  0  0
    8.3958    0.1846   21.9689 C   0  0  0  0  0  0  0  0  0  0  0  0
    7.5148    1.3256   22.5194 C   0  0  0  0  0  0  0  0  0  0  0  0
    8.2846    2.1073   23.6104 C   0  0  0  0  0  0  0  0  0  0  0  0
    9.6978    2.0031   23.5023 O   0  0  0  0  0  0  0  0  0  0  0  0
   10.1814    2.0365   22.1741 C   0  0  0  0  0  0  0  0  0  0  0  0
    9.6541    0.8396   21.3411 C   0  0  0  0  0  0  0  0  0  0  0  0
   10.4466    0.0904   21.2167 H   0  0  0  0  0  0  0  0  0  0  0  0
    9.3878    1.2032   20.3442 H   0  0  0  0  0  0  0  0  0  0  0  0
    9.9079    2.9948   21.7011 H   0  0  0  0  0  0  0  0  0  0  0  0
   11.2717    2.0234   22.2575 H   0  0  0  0  0  0  0  0  0  0  0  0
    8.0600    1.7115   24.6071 H   0  0  0  0  0  0  0  0  0  0  0  0
    7.9856    3.1683   23.5989 H   0  0  0  0  0  0  0  0  0  0  0  0
    6.5623    0.9711   22.9290 H   0  0  0  0  0  0  0  0  0  0  0  0
    7.2565    2.0020   21.6896 H   0  0  0  0  0  0  0  0  0  0  0  0
    8.7204   -0.4329   22.8142 H   0  0  0  0  0  0  0  0  0  0  0  0
    8.5762   -1.3294   20.4923 H   0  0  0  0  0  0  0  0  0  0  0  0
    5.9215   -1.6733   21.1713 H   0  0  0  0  0  0  0  0  0  0  0  0
    7.1480   -2.7920   21.1196 H   0  0  0  0  0  0  0  0  0  0  0  0
    7.7346   -2.3629   23.5014 H   0  0  0  0  0  0  0  0  0  0  0  0
    6.4586   -1.1696   23.5418 H   0  0  0  0  0  0  0  0  0  0  0  0
    4.8241   -2.9005   24.6441 C   0  0  0  0  0  0  0  0  0  0  0  0
    5.3063   -3.8017   25.6724 N   0  0  0  0  0  0  0  0  0  0  0  0
    4.8434   -3.7580   27.0087 C   0  0  0  0  0  0  0  0  0  0  0  0
    3.5246   -3.3446   27.2537 C   0  0  0  0  0  0  0  0  0  0  0  0
    3.0482   -3.2353   28.5611 C   0  0  0  0  0  0  0  0  0  0  0  0
    3.8895   -3.5267   29.6380 C   0  0  0  0  0  0  0  0  0  0  0  0
    5.2082   -3.9344   29.3963 C   0  0  0  0  0  0  0  0  0  0  0  0
    5.6867   -4.0657   28.0859 C   0  0  0  0  0  0  0  0  0  0  0  0
    6.6980   -4.4063   27.8845 H   0  0  0  0  0  0  0  0  0  0  0  0
    5.8746   -4.1390   30.2322 H   0  0  0  0  0  0  0  0  0  0  0  0
    3.5268   -3.4367   30.6595 H   0  0  0  0  0  0  0  0  0  0  0  0
    2.0263   -2.9019   28.7311 H   0  0  0  0  0  0  0  0  0  0  0  0
    2.8908   -3.1044   26.4087 H   0  0  0  0  0  0  0  0  0  0  0  0
    4.8635   -1.8635   24.9926 H   0  0  0  0  0  0  0  0  0  0  0  0
    3.7801   -3.1295   24.3774 H   0  0  0  0  0  0  0  0  0  0  0  0
    5.1556   -3.4410   22.5756 H   0  0  0  0  0  0  0  0  0  0  0  0
  1  2  2  0
  2  3  1  0
  3  4  1  0
  4  5  1  0
  5  6  1  0
  6  7  1  0
  7  8  1  0
  8  9  2  0
  9 10  1  0
 10 11  2  0
 11 12  1  0
 12 13  2  0
 13 14  1  0
 11 15  1  0
 10 16  1  0
  9 17  1  0
  7 18  1  0
 18 19  1  0
 19 20  1  0
 20 21  1  0
 21 22  1  0
 22 23  1  0
 23 24  1  0
 23 25  1  0
 22 26  1  0
 22 27  1  0
 20 28  1  0
 20 29  1  0
 19 30  1  0
 19 31  1  0
 18 32  1  0
  7 33  1  0
  6 34  1  0
  6 35  1  0
  5 36  1  0
  5 37  1  0
  4 38  1  0
 38 39  1  0
 39 40  1  0
 40 41  2  0
 41 42  1  0
 42 43  2  0
 43 44  1  0
 44 45  2  0
 45 46  1  0
 44 47  1  0
 43 48  1  0
 42 49  1  0
 41 50  1  0
 38 51  1  0
 38 52  1  0
  4 53  1  0
 39  2  1  0
 45 40  1  0
 13  8  1  0
 23 18  1  0
M  CHG  1   6   1
M  END
>  <plip>  (1) 
-0.03571428571428571

>  <filename>  (1) 
[H][c]1[n][c]([H])[c]([C]([H])([C]2([H])[C]([H])([H])[C]([H])([H])[O][C]([H])([H])[C]2([H])[H])[N+]([H])([H])[C]([H])([H])[C]2([H])[O][C](=[O])[N]([c]3[c]([H])[c]([H])[c]([H])[c]([H])[c]3[H])[C]2([H])[H])[c]([H])[c]1[H]

$$$$
