
     RDKit          3D

 39 41  0  0  0  0  0  0  0  0999 V2000
   10.1711    0.2552   22.1002 O   0  0  0  0  0  0  0  0  0  0  0  0
    8.9725    1.0760   22.0432 S   0  0  0  0  0  0  0  0  0  0  0  0
    8.7724    1.9483   20.9097 O   0  0  0  0  0  0  0  0  0  0  0  0
    8.8358    1.8678   23.5197 N   0  0  0  0  0  0  0  0  0  0  0  0
    7.7395    2.8616   23.5619 C   0  0  0  0  0  0  0  0  0  0  0  0
    8.1009    4.2031   22.9561 C   0  0  0  0  0  0  0  0  0  0  0  0
    9.3684    4.5831   22.7566 C   0  0  0  0  0  0  0  0  0  0  0  0
   10.5411    3.6626   23.0432 C   0  0  0  0  0  0  0  0  0  0  0  0
   10.1260    2.4691   23.9241 C   0  0  0  0  0  0  0  0  0  0  0  0
   10.8990    1.6938   23.9311 H   0  0  0  0  0  0  0  0  0  0  0  0
   10.0000    2.7956   24.9652 H   0  0  0  0  0  0  0  0  0  0  0  0
   11.3595    4.2152   23.5302 H   0  0  0  0  0  0  0  0  0  0  0  0
   10.9335    3.2862   22.0862 H   0  0  0  0  0  0  0  0  0  0  0  0
    9.5842    5.5598   22.3221 H   0  0  0  0  0  0  0  0  0  0  0  0
    7.2720    4.8659   22.7099 H   0  0  0  0  0  0  0  0  0  0  0  0
    6.8254    2.4515   23.1163 H   0  0  0  0  0  0  0  0  0  0  0  0
    7.5039    3.0095   24.6282 H   0  0  0  0  0  0  0  0  0  0  0  0
    7.6480    0.0675   22.2066 N   0  0  0  0  0  0  0  0  0  0  0  0
    7.7006   -0.8110   23.3860 C   0  0  0  0  0  0  0  0  0  0  0  0
    7.0099   -2.1254   22.9580 C   0  0  0  0  0  0  0  0  0  0  0  0
    6.7751   -2.0237   21.4343 C   0  0  0  0  0  0  0  0  0  0  0  0
    7.4769   -0.7228   20.9831 C   0  0  0  0  0  0  0  0  0  0  0  0
    6.7409    0.0744   19.9477 C   0  0  0  0  0  0  0  0  0  0  0  0
    5.5206    0.7281   20.1816 C   0  0  0  0  0  0  0  0  0  0  0  0
    4.8623    1.3307   19.1075 C   0  0  0  0  0  0  0  0  0  0  0  0
    5.4603    1.2822   17.8423 C   0  0  0  0  0  0  0  0  0  0  0  0
    6.6363    0.6863   17.6061 N   0  0  0  0  0  0  0  0  0  0  0  0
    7.2487    0.1119   18.6492 C   0  0  0  0  0  0  0  0  0  0  0  0
    8.2036   -0.3690   18.4322 H   0  0  0  0  0  0  0  0  0  0  0  0
    4.9816    1.7490   16.9831 H   0  0  0  0  0  0  0  0  0  0  0  0
    3.9158    1.8432   19.2333 H   0  0  0  0  0  0  0  0  0  0  0  0
    5.0995    0.7697   21.1890 H   0  0  0  0  0  0  0  0  0  0  0  0
    8.4623   -1.0141   20.5712 H   0  0  0  0  0  0  0  0  0  0  0  0
    7.2043   -2.8677   20.8819 H   0  0  0  0  0  0  0  0  0  0  0  0
    5.6991   -1.9978   21.2135 H   0  0  0  0  0  0  0  0  0  0  0  0
    6.0600   -2.2419   23.4860 H   0  0  0  0  0  0  0  0  0  0  0  0
    7.6311   -2.9853   23.2347 H   0  0  0  0  0  0  0  0  0  0  0  0
    8.7407   -0.9933   23.6970 H   0  0  0  0  0  0  0  0  0  0  0  0
    7.1786   -0.3310   24.2222 H   0  0  0  0  0  0  0  0  0  0  0  0
  1  2  2  0
  2  3  2  0
  2  4  1  0
  4  5  1  0
  5  6  1  0
  6  7  2  0
  7  8  1  0
  8  9  1  0
  9 10  1  0
  9 11  1  0
  8 12  1  0
  8 13  1  0
  7 14  1  0
  6 15  1  0
  5 16  1  0
  5 17  1  0
  2 18  1  0
 18 19  1  0
 19 20  1  0
 20 21  1  0
 21 22  1  0
 22 23  1  0
 23 24  2  0
 24 25  1  0
 25 26  2  0
 26 27  1  0
 27 28  2  0
 28 29  1  0
 26 30  1  0
 25 31  1  0
 24 32  1  0
 22 33  1  0
 21 34  1  0
 21 35  1  0
 20 36  1  0
 20 37  1  0
 19 38  1  0
 19 39  1  0
  9  4  1  0
 22 18  1  0
 28 23  1  0
M  END
>  <plip>  (1) 
-0.07142857142857142

>  <filename>  (1) 
[H][C]1=[C]([H])[C]([H])([H])[C]([H])([H])[N]([S](=[O])(=[O])[N]2[C]([H])([H])[C]([H])([H])[C]([H])([H])[C]2([H])[c]2[c]([H])[n][c]([H])[c]([H])[c]2[H])[C]1([H])[H]

$$$$
