
     RDKit          3D

 36 37  0  0  0  0  0  0  0  0999 V2000
    9.0176   -2.4152   21.0957 C   0  0  0  0  0  0  0  0  0  0  0  0
    7.5616   -2.0134   20.8796 C   0  0  0  0  0  0  0  0  0  0  0  0
    6.6124   -2.8411   21.7456 C   0  0  0  0  0  0  0  0  0  0  0  0
    6.8299   -2.7278   22.8093 H   0  0  0  0  0  0  0  0  0  0  0  0
    5.5694   -2.5599   21.5721 H   0  0  0  0  0  0  0  0  0  0  0  0
    6.7485   -3.8931   21.4688 H   0  0  0  0  0  0  0  0  0  0  0  0
    7.3703   -0.5605   20.9965 N   0  0  0  0  0  0  0  0  0  0  0  0
    7.7031    0.0404   22.2139 C   0  0  0  0  0  0  0  0  0  0  0  0
    7.9650   -0.5777   23.2367 O   0  0  0  0  0  0  0  0  0  0  0  0
    7.7414    1.4074   22.1572 N   0  0  0  0  0  0  0  0  0  0  0  0
    8.1181    2.1982   23.3055 C   0  0  2  0  0  0  0  0  0  0  0  0
    8.0800    3.7122   23.0473 C   0  0  0  0  0  0  0  0  0  0  0  0
    9.1773    4.2777   23.7671 O   0  0  0  0  0  0  0  0  0  0  0  0
   10.1257    3.3339   24.0049 C   0  0  0  0  0  0  0  0  0  0  0  0
   11.2332    3.6051   24.3646 O   0  0  0  0  0  0  0  0  0  0  0  0
    9.5525    1.9603   23.7711 C   0  0  0  0  0  0  0  0  0  0  0  0
    9.5976    1.3647   24.6825 H   0  0  0  0  0  0  0  0  0  0  0  0
   10.1619    1.4454   23.0262 H   0  0  0  0  0  0  0  0  0  0  0  0
    8.2093    3.9369   21.9827 H   0  0  0  0  0  0  0  0  0  0  0  0
    7.1576    4.1892   23.3873 H   0  0  0  0  0  0  0  0  0  0  0  0
    7.4239    1.9579   24.1207 H   0  0  0  0  0  0  0  0  0  0  0  0
    7.7942    1.7609   21.2170 H   0  0  0  0  0  0  0  0  0  0  0  0
    6.6815    0.0992   19.9137 C   0  0  0  0  0  0  0  0  0  0  0  0
    5.4473    0.7172   20.1417 C   0  0  0  0  0  0  0  0  0  0  0  0
    4.7879    1.3350   19.0744 C   0  0  0  0  0  0  0  0  0  0  0  0
    5.3862    1.3124   17.8108 C   0  0  0  0  0  0  0  0  0  0  0  0
    6.5539    0.7008   17.5619 N   0  0  0  0  0  0  0  0  0  0  0  0
    7.1760    0.1024   18.5859 C   0  0  0  0  0  0  0  0  0  0  0  0
    8.1132   -0.3994   18.3416 H   0  0  0  0  0  0  0  0  0  0  0  0
    4.9131    1.8066   16.9671 H   0  0  0  0  0  0  0  0  0  0  0  0
    3.8388    1.8400   19.2149 H   0  0  0  0  0  0  0  0  0  0  0  0
    5.0255    0.6899   21.1468 H   0  0  0  0  0  0  0  0  0  0  0  0
    7.2942   -2.2410   19.8482 H   0  0  0  0  0  0  0  0  0  0  0  0
    9.3067   -2.2765   22.1388 H   0  0  0  0  0  0  0  0  0  0  0  0
    9.6857   -1.8198   20.4659 H   0  0  0  0  0  0  0  0  0  0  0  0
    9.1267   -3.4697   20.8337 H   0  0  0  0  0  0  0  0  0  0  0  0
  1  2  1  0
  2  3  1  0
  3  4  1  0
  3  5  1  0
  3  6  1  0
  2  7  1  0
  7  8  1  0
  8  9  2  0
  8 10  1  0
 10 11  1  0
 11 12  1  0
 12 13  1  0
 13 14  1  0
 14 15  2  0
 14 16  1  0
 16 17  1  0
 16 18  1  0
 12 19  1  0
 12 20  1  0
 11 21  1  1
 10 22  1  0
  7 23  1  0
 23 24  2  0
 24 25  1  0
 25 26  2  0
 26 27  1  0
 27 28  2  0
 28 29  1  0
 26 30  1  0
 25 31  1  0
 24 32  1  0
  2 33  1  0
  1 34  1  0
  1 35  1  0
  1 36  1  0
 16 11  1  0
 28 23  1  0
M  END
>  <plip>  (1) 
-0.03571428571428571

>  <filename>  (1) 
[H][c]1[n][c]([H])[c]([N]([C](=[O])[N]([H])[C@]2([H])[C]([H])([H])[O][C](=[O])[C]2([H])[H])[C]([H])([C]([H])([H])[H])[C]([H])([H])[H])[c]([H])[c]1[H]

$$$$
