
     RDKit          3D

 50 53  0  0  0  0  0  0  0  0999 V2000
    9.0055    1.5842   21.1957 O   0  0  0  0  0  0  0  0  0  0  0  0
    8.2718    1.3129   22.1248 C   0  0  0  0  0  0  0  0  0  0  0  0
    7.5640    0.1445   22.1970 N   0  0  0  0  0  0  0  0  0  0  0  0
    7.3958   -0.6930   21.0165 C   0  0  0  0  0  0  0  0  0  0  0  0
    6.6413   -1.9863   21.3672 C   0  0  0  0  0  0  0  0  0  0  0  0
    7.2562   -2.9353   22.4085 C   0  0  0  0  0  0  0  0  0  0  0  0
    6.3482   -4.1439   22.6882 C   0  0  0  0  0  0  0  0  0  0  0  0
    7.2540   -5.1754   23.3697 C   0  0  0  0  0  0  0  0  0  0  0  0
    8.6548   -4.9522   22.7623 C   0  0  0  0  0  0  0  0  0  0  0  0
    8.5703   -3.6146   21.9765 C   0  0  0  0  0  0  0  0  0  0  0  0
    8.5044   -3.8448   20.9051 H   0  0  0  0  0  0  0  0  0  0  0  0
    9.4530   -2.9776   22.1208 H   0  0  0  0  0  0  0  0  0  0  0  0
    8.9118   -5.7865   22.0981 H   0  0  0  0  0  0  0  0  0  0  0  0
    9.4221   -4.9166   23.5449 H   0  0  0  0  0  0  0  0  0  0  0  0
    7.2842   -5.0029   24.4520 H   0  0  0  0  0  0  0  0  0  0  0  0
    6.8968   -6.1991   23.2171 H   0  0  0  0  0  0  0  0  0  0  0  0
    5.4880   -3.8799   23.3129 H   0  0  0  0  0  0  0  0  0  0  0  0
    5.9695   -4.5459   21.7329 H   0  0  0  0  0  0  0  0  0  0  0  0
    7.4150   -2.3923   23.3568 H   0  0  0  0  0  0  0  0  0  0  0  0
    5.6300   -1.6976   21.6891 H   0  0  0  0  0  0  0  0  0  0  0  0
    6.5024   -2.5464   20.4324 H   0  0  0  0  0  0  0  0  0  0  0  0
    6.6559    0.0724   19.9208 C   0  0  0  0  0  0  0  0  0  0  0  0
    5.4401    0.7386   20.1358 C   0  0  0  0  0  0  0  0  0  0  0  0
    4.8074    1.3584   19.0521 C   0  0  0  0  0  0  0  0  0  0  0  0
    5.4197    1.3071   17.7927 C   0  0  0  0  0  0  0  0  0  0  0  0
    6.5845    0.6882   17.5661 N   0  0  0  0  0  0  0  0  0  0  0  0
    7.1730    0.1015   18.6217 C   0  0  0  0  0  0  0  0  0  0  0  0
    8.1204   -0.3937   18.4168 H   0  0  0  0  0  0  0  0  0  0  0  0
    4.9475    1.7794   16.9308 H   0  0  0  0  0  0  0  0  0  0  0  0
    3.8694    1.8892   19.1733 H   0  0  0  0  0  0  0  0  0  0  0  0
    4.9930    0.8084   21.1325 H   0  0  0  0  0  0  0  0  0  0  0  0
    8.4004   -0.9347   20.6414 H   0  0  0  0  0  0  0  0  0  0  0  0
    6.7545    0.2003   22.7903 H   0  0  0  0  0  0  0  0  0  0  0  0
    8.0793    2.2381   23.3160 C   0  0  0  0  0  0  0  0  0  0  0  0
    9.3930    2.7987   23.9334 C   0  0  0  0  0  0  0  0  0  0  0  0
    9.5266    4.2601   23.4187 C   0  0  0  0  0  0  0  0  0  0  0  0
    8.1835    4.5700   22.7855 C   0  0  0  0  0  0  0  0  0  0  0  0
    7.6428    5.7497   22.2702 C   0  0  0  0  0  0  0  0  0  0  0  0
    6.3411    5.6853   21.7427 C   0  0  0  0  0  0  0  0  0  0  0  0
    5.6612    4.4569   21.7259 C   0  0  0  0  0  0  0  0  0  0  0  0
    6.1750    3.3133   22.2039 N   0  0  0  0  0  0  0  0  0  0  0  0
    7.3951    3.4192   22.7365 C   0  0  0  0  0  0  0  0  0  0  0  0
    4.6562    4.3797   21.3090 H   0  0  0  0  0  0  0  0  0  0  0  0
    5.8535    6.5626   21.3344 H   0  0  0  0  0  0  0  0  0  0  0  0
    8.1939    6.6942   22.2715 H   0  0  0  0  0  0  0  0  0  0  0  0
   10.3407    4.3512   22.6883 H   0  0  0  0  0  0  0  0  0  0  0  0
    9.7648    4.9498   24.2342 H   0  0  0  0  0  0  0  0  0  0  0  0
    9.3217    2.7746   25.0263 H   0  0  0  0  0  0  0  0  0  0  0  0
   10.2682    2.1959   23.6692 H   0  0  0  0  0  0  0  0  0  0  0  0
    7.4576    1.7445   24.0698 H   0  0  0  0  0  0  0  0  0  0  0  0
  1  2  2  0
  2  3  1  0
  3  4  1  0
  4  5  1  0
  5  6  1  0
  6  7  1  0
  7  8  1  0
  8  9  1  0
  9 10  1  0
 10 11  1  0
 10 12  1  0
  9 13  1  0
  9 14  1  0
  8 15  1  0
  8 16  1  0
  7 17  1  0
  7 18  1  0
  6 19  1  0
  5 20  1  0
  5 21  1  0
  4 22  1  0
 22 23  2  0
 23 24  1  0
 24 25  2  0
 25 26  1  0
 26 27  2  0
 27 28  1  0
 25 29  1  0
 24 30  1  0
 23 31  1  0
  4 32  1  0
  3 33  1  0
  2 34  1  0
 34 35  1  0
 35 36  1  0
 36 37  1  0
 37 38  2  0
 38 39  1  0
 39 40  2  0
 40 41  1  0
 41 42  2  0
 40 43  1  0
 39 44  1  0
 38 45  1  0
 36 46  1  0
 36 47  1  0
 35 48  1  0
 35 49  1  0
 34 50  1  0
 10  6  1  0
 27 22  1  0
 42 34  1  0
 42 37  1  0
M  END
>  <plip>  (1) 
-0.1724137931034483

>  <filename>  (1) 
[H][c]1[n][c]2[c]([c]([H])[c]1[H])[C]([H])([H])[C]([H])([H])[C]2([H])[C](=[O])[N]([H])[C]([H])([c]1[c]([H])[n][c]([H])[c]([H])[c]1[H])[C]([H])([H])[C]1([H])[C]([H])([H])[C]([H])([H])[C]([H])([H])[C]1([H])[H]

$$$$
