
     RDKit          3D

 32 35  0  0  0  0  0  0  0  0999 V2000
    4.9069    1.8249   16.9483 H   0  0  0  0  0  0  0  0  0  0  0  0
    5.3782    1.3180   17.7910 C   0  0  0  0  0  0  0  0  0  0  0  0
    6.5385    0.6973   17.5246 N   0  0  0  0  0  0  0  0  0  0  0  0
    7.1622    0.0865   18.5387 C   0  0  0  0  0  0  0  0  0  0  0  0
    8.0958   -0.4065   18.2751 H   0  0  0  0  0  0  0  0  0  0  0  0
    6.6825    0.0398   19.8591 C   0  0  0  0  0  0  0  0  0  0  0  0
    7.3891   -0.6815   20.9368 C   0  0  0  0  0  0  0  0  0  0  0  0
    6.8713   -1.2486   22.0723 C   0  0  0  0  0  0  0  0  0  0  0  0
    5.8379   -1.3145   22.3280 H   0  0  0  0  0  0  0  0  0  0  0  0
    7.9458   -1.8066   22.7860 C   0  0  0  0  0  0  0  0  0  0  0  0
    7.8768   -2.5170   24.0918 C   0  0  0  0  0  0  0  0  0  0  0  0
    9.0702   -3.0386   24.6636 C   0  0  0  0  0  0  0  0  0  0  0  0
    9.9957   -2.8894   24.1133 H   0  0  0  0  0  0  0  0  0  0  0  0
    9.0569   -3.7120   25.8721 C   0  0  0  0  0  0  0  0  0  0  0  0
    9.9852   -4.1012   26.2823 H   0  0  0  0  0  0  0  0  0  0  0  0
    7.8301   -3.8879   26.5566 C   0  0  0  0  0  0  0  0  0  0  0  0
    7.4467   -4.5215   27.7883 C   0  0  0  0  0  0  0  0  0  0  0  0
    8.1141   -5.0299   28.4701 H   0  0  0  0  0  0  0  0  0  0  0  0
    6.0973   -4.3610   27.9217 C   0  0  0  0  0  0  0  0  0  0  0  0
    5.4241   -4.6771   28.7079 H   0  0  0  0  0  0  0  0  0  0  0  0
    5.6094   -3.6624   26.8363 N   0  0  0  0  0  0  0  0  0  0  0  0
    4.6509   -3.4043   26.6783 H   0  0  0  0  0  0  0  0  0  0  0  0
    6.6450   -3.3607   25.9828 C   0  0  0  0  0  0  0  0  0  0  0  0
    6.6545   -2.6780   24.7596 C   0  0  0  0  0  0  0  0  0  0  0  0
    5.7398   -2.2760   24.3320 H   0  0  0  0  0  0  0  0  0  0  0  0
    9.0839   -1.6125   22.1119 N   0  0  0  0  0  0  0  0  0  0  0  0
    8.7252   -0.9463   21.0028 N   0  0  0  0  0  0  0  0  0  0  0  0
    9.4441   -0.6385   20.3642 H   0  0  0  0  0  0  0  0  0  0  0  0
    5.4521    0.6780   20.1087 C   0  0  0  0  0  0  0  0  0  0  0  0
    5.0294    0.6656   21.1138 H   0  0  0  0  0  0  0  0  0  0  0  0
    4.7946    1.3294   19.0639 C   0  0  0  0  0  0  0  0  0  0  0  0
    3.8568    1.8541   19.2176 H   0  0  0  0  0  0  0  0  0  0  0  0
  1  2  1  0
  2  3  2  0
  3  4  1  0
  4  5  1  0
  4  6  2  0
  6  7  1  0
  7  8  2  0
  8  9  1  0
  8 10  1  0
 10 11  1  0
 11 12  2  0
 12 13  1  0
 12 14  1  0
 14 15  1  0
 14 16  2  0
 16 17  1  0
 17 18  1  0
 17 19  2  0
 19 20  1  0
 19 21  1  0
 21 22  1  0
 21 23  1  0
 23 24  2  0
 24 25  1  0
 10 26  2  0
 26 27  1  0
 27 28  1  0
  6 29  1  0
 29 30  1  0
 29 31  2  0
 31 32  1  0
 31  2  1  0
 27  7  1  0
 24 11  1  0
 23 16  1  0
M  END
>  <plip>  (1) 
-0.034482758620689655

>  <filename>  (1) 
[H][c]1[n][c]([H])[c](-[c]2[c]([H])[c](-[c]3[c]([H])[c]([H])[c]4[c]([H])[c]([H])[n]([H])[c]4[c]3[H])[n][n]2[H])[c]([H])[c]1[H]

$$$$
