
     RDKit          3D

 31 33  0  0  0  0  0  0  0  0999 V2000
    7.4064   -0.0681   22.4691 O   0  0  0  0  0  0  0  0  0  0  0  0
    7.6710   -0.6507   21.1700 S   0  0  0  0  0  0  0  0  0  0  0  0
    9.0229   -0.7182   20.6483 O   0  0  0  0  0  0  0  0  0  0  0  0
    6.6409    0.0348   19.9566 C   0  0  0  0  0  0  0  0  0  0  0  0
    5.4085    0.6446   20.2019 C   0  0  0  0  0  0  0  0  0  0  0  0
    4.8194    1.2672   19.1028 C   0  0  0  0  0  0  0  0  0  0  0  0
    5.4637    1.2231   17.8610 C   0  0  0  0  0  0  0  0  0  0  0  0
    6.6121    0.5651   17.6441 N   0  0  0  0  0  0  0  0  0  0  0  0
    7.1870   -0.0290   18.6843 C   0  0  0  0  0  0  0  0  0  0  0  0
    8.1239   -0.5498   18.4986 H   0  0  0  0  0  0  0  0  0  0  0  0
    5.0348    1.7299   16.9989 H   0  0  0  0  0  0  0  0  0  0  0  0
    3.8887    1.8146   19.1921 H   0  0  0  0  0  0  0  0  0  0  0  0
    4.9301    0.6470   21.1860 H   0  0  0  0  0  0  0  0  0  0  0  0
    7.1334   -2.2752   21.1804 N   0  0  0  0  0  0  0  0  0  0  0  0
    7.8812   -3.0694   22.1734 C   0  0  0  0  0  0  0  0  0  0  0  0
    7.3794   -4.4994   22.1538 C   0  0  0  0  0  0  0  0  0  0  0  0
    8.1914   -5.5570   22.5692 C   0  0  0  0  0  0  0  0  0  0  0  0
    7.7107   -6.8661   22.5482 C   0  0  0  0  0  0  0  0  0  0  0  0
    6.3843   -7.1148   22.1864 C   0  0  0  0  0  0  0  0  0  0  0  0
    5.5467   -6.0566   21.8180 C   0  0  0  0  0  0  0  0  0  0  0  0
    6.0545   -4.7519   21.7495 C   0  0  0  0  0  0  0  0  0  0  0  0
    5.2410   -3.6058   21.1791 C   0  0  0  0  0  0  0  0  0  0  0  0
    5.7610   -2.3271   21.5583 O   0  0  0  0  0  0  0  0  0  0  0  0
    5.2214   -3.6537   20.0813 H   0  0  0  0  0  0  0  0  0  0  0  0
    4.2288   -3.6073   21.5818 H   0  0  0  0  0  0  0  0  0  0  0  0
    4.5010   -6.2679   21.5946 H   0  0  0  0  0  0  0  0  0  0  0  0
    6.0252   -8.1392   22.1861 H   0  0  0  0  0  0  0  0  0  0  0  0
    8.3843   -7.6815   22.7920 H   0  0  0  0  0  0  0  0  0  0  0  0
    9.1962   -5.3542   22.9262 H   0  0  0  0  0  0  0  0  0  0  0  0
    7.7095   -2.6244   23.1604 H   0  0  0  0  0  0  0  0  0  0  0  0
    8.9462   -3.0317   21.9304 H   0  0  0  0  0  0  0  0  0  0  0  0
  1  2  2  0
  2  3  2  0
  2  4  1  0
  4  5  2  0
  5  6  1  0
  6  7  2  0
  7  8  1  0
  8  9  2  0
  9 10  1  0
  7 11  1  0
  6 12  1  0
  5 13  1  0
  2 14  1  0
 14 15  1  0
 15 16  1  0
 16 17  2  0
 17 18  1  0
 18 19  2  0
 19 20  1  0
 20 21  2  0
 21 22  1  0
 22 23  1  0
 22 24  1  0
 22 25  1  0
 20 26  1  0
 19 27  1  0
 18 28  1  0
 17 29  1  0
 15 30  1  0
 15 31  1  0
  9  4  1  0
 23 14  1  0
 21 16  1  0
M  END
>  <plip>  (1) 
-0.1

>  <filename>  (1) 
[H][c]1[n][c]([H])[c]([S](=[O])(=[O])[N]2[O][C]([H])([H])[c]3[c]([H])[c]([H])[c]([H])[c]([H])[c]3[C]2([H])[H])[c]([H])[c]1[H]

$$$$
