
     RDKit          3D

 47 48  0  0  0  0  0  0  0  0999 V2000
   10.0009   -0.2203   25.4742 C   0  0  0  0  0  0  0  0  0  0  0  0
   10.9060    0.0971   24.3109 C   0  0  0  0  0  0  0  0  0  0  0  0
   12.2187    0.5269   24.5353 C   0  0  0  0  0  0  0  0  0  0  0  0
   12.9384    1.0202   23.4537 C   0  0  0  0  0  0  0  0  0  0  0  0
   14.1891    1.4510   23.6025 F   0  0  0  0  0  0  0  0  0  0  0  0
   12.3657    1.0828   22.1886 C   0  0  0  0  0  0  0  0  0  0  0  0
   11.1519    0.5796   21.9389 N   0  0  0  0  0  0  0  0  0  0  0  0
   10.4799    0.0102   22.9629 C   0  0  0  0  0  0  0  0  0  0  0  0
    9.2400   -0.7418   22.5311 C   0  0  0  0  0  0  0  0  0  0  0  0
    8.3910    0.1099   21.6105 N   0  0  0  0  0  4  0  0  0  0  0  0
    7.9447    1.4172   22.3033 C   0  0  0  0  0  0  0  0  0  0  0  0
    8.2049    2.6530   21.4319 C   0  0  0  0  0  0  0  0  0  0  0  0
    7.4946    3.8672   22.0057 N   0  0  0  0  0  4  0  0  0  0  0  0
    8.1012    5.1843   21.6324 C   0  0  0  0  0  0  0  0  0  0  0  0
    8.0003    5.3564   20.5527 H   0  0  0  0  0  0  0  0  0  0  0  0
    9.1698    5.2247   21.8747 H   0  0  0  0  0  0  0  0  0  0  0  0
    7.5748    5.9852   22.1639 H   0  0  0  0  0  0  0  0  0  0  0  0
    6.0326    3.8876   21.6262 C   0  0  0  0  0  0  0  0  0  0  0  0
    5.9242    3.9484   20.5371 H   0  0  0  0  0  0  0  0  0  0  0  0
    5.5297    4.7559   22.0597 H   0  0  0  0  0  0  0  0  0  0  0  0
    5.5105    2.9938   21.9767 H   0  0  0  0  0  0  0  0  0  0  0  0
    7.5666    3.7717   23.0413 H   0  0  0  0  0  0  0  0  0  0  0  0
    7.8606    2.4672   20.4090 H   0  0  0  0  0  0  0  0  0  0  0  0
    9.2841    2.8434   21.3875 H   0  0  0  0  0  0  0  0  0  0  0  0
    8.5097    1.5191   23.2355 H   0  0  0  0  0  0  0  0  0  0  0  0
    6.8887    1.3316   22.5762 H   0  0  0  0  0  0  0  0  0  0  0  0
    7.2653   -0.6776   21.0286 C   0  0  0  0  0  0  0  0  0  0  0  0
    6.6232    0.0669   19.9044 C   0  0  0  0  0  0  0  0  0  0  0  0
    5.3800    0.6830   20.0719 C   0  0  0  0  0  0  0  0  0  0  0  0
    4.8129    1.3491   18.9866 C   0  0  0  0  0  0  0  0  0  0  0  0
    5.5106    1.3694   17.7745 C   0  0  0  0  0  0  0  0  0  0  0  0
    6.7063    0.7845   17.6012 N   0  0  0  0  0  0  0  0  0  0  0  0
    7.2444    0.1545   18.6530 C   0  0  0  0  0  0  0  0  0  0  0  0
    8.2047   -0.3370   18.4809 H   0  0  0  0  0  0  0  0  0  0  0  0
    5.0882    1.8730   16.9055 H   0  0  0  0  0  0  0  0  0  0  0  0
    3.8566    1.8543   19.0661 H   0  0  0  0  0  0  0  0  0  0  0  0
    4.8690    0.6141   21.0347 H   0  0  0  0  0  0  0  0  0  0  0  0
    6.5287   -0.8685   21.8235 H   0  0  0  0  0  0  0  0  0  0  0  0
    7.6380   -1.6526   20.6851 H   0  0  0  0  0  0  0  0  0  0  0  0
    9.0452    0.3946   20.8319 H   0  0  0  0  0  0  0  0  0  0  0  0
    8.6496   -1.0887   23.3852 H   0  0  0  0  0  0  0  0  0  0  0  0
    9.5629   -1.6298   21.9713 H   0  0  0  0  0  0  0  0  0  0  0  0
   12.9160    1.5462   21.3799 H   0  0  0  0  0  0  0  0  0  0  0  0
   12.6790    0.4712   25.5194 H   0  0  0  0  0  0  0  0  0  0  0  0
    9.0601    0.3388   25.4133 H   0  0  0  0  0  0  0  0  0  0  0  0
    9.7479   -1.2825   25.5316 H   0  0  0  0  0  0  0  0  0  0  0  0
   10.4744    0.0549   26.4206 H   0  0  0  0  0  0  0  0  0  0  0  0
  1  2  1  0
  2  3  2  0
  3  4  1  0
  4  5  1  0
  4  6  2  0
  6  7  1  0
  7  8  2  0
  8  9  1  0
  9 10  1  0
 10 11  1  0
 11 12  1  0
 12 13  1  0
 13 14  1  0
 14 15  1  0
 14 16  1  0
 14 17  1  0
 13 18  1  0
 18 19  1  0
 18 20  1  0
 18 21  1  0
 13 22  1  0
 12 23  1  0
 12 24  1  0
 11 25  1  0
 11 26  1  0
 10 27  1  0
 27 28  1  0
 28 29  2  0
 29 30  1  0
 30 31  2  0
 31 32  1  0
 32 33  2  0
 33 34  1  0
 31 35  1  0
 30 36  1  0
 29 37  1  0
 27 38  1  0
 27 39  1  0
 10 40  1  0
  9 41  1  0
  9 42  1  0
  6 43  1  0
  3 44  1  0
  1 45  1  0
  1 46  1  0
  1 47  1  0
  8  2  1  0
 33 28  1  0
M  CHG  2  10   1  13   1
M  END
>  <plip>  (1) 
-0.10714285714285714

>  <filename>  (1) 
[H][c]1[n][c]([H])[c]([C]([H])([H])[N+]([H])([C]([H])([H])[c]2[n][c]([H])[c]([F])[c]([H])[c]2[C]([H])([H])[H])[C]([H])([H])[C]([H])([H])[N+]([H])([C]([H])([H])[H])[C]([H])([H])[H])[c]([H])[c]1[H]

$$$$
