
     RDKit          3D

 36 37  0  0  0  0  0  0  0  0999 V2000
    4.9236    1.8007   16.9792 H   0  0  0  0  0  0  0  0  0  0  0  0
    5.3893    1.3020   17.8279 C   0  0  0  0  0  0  0  0  0  0  0  0
    6.5527    0.6837   17.5751 N   0  0  0  0  0  0  0  0  0  0  0  0
    7.1549    0.0692   18.6005 C   0  0  0  0  0  0  0  0  0  0  0  0
    8.1066   -0.4124   18.3650 H   0  0  0  0  0  0  0  0  0  0  0  0
    6.6367    0.0087   19.9066 C   0  0  0  0  0  0  0  0  0  0  0  0
    7.4093   -0.7000   20.9985 C   0  0  0  0  0  0  0  0  0  0  0  0
    7.6686   -1.7224   20.7005 H   0  0  0  0  0  0  0  0  0  0  0  0
    6.8084   -0.7844   21.9088 H   0  0  0  0  0  0  0  0  0  0  0  0
    8.6675   -0.0362   21.3328 N   0  0  0  0  0  0  0  0  0  0  0  0
    8.8543    1.1027   22.0702 C   0  0  0  0  0  0  0  0  0  0  0  0
    7.7768    1.7788   22.8595 C   0  0  0  0  0  0  0  0  0  0  0  0
    6.8846    1.8773   22.2317 H   0  0  0  0  0  0  0  0  0  0  0  0
    8.1338    2.7939   23.0563 H   0  0  0  0  0  0  0  0  0  0  0  0
    7.3953    1.0872   24.1840 C   0  0  0  0  0  0  0  0  0  0  0  0
    6.5513    1.6432   24.6152 H   0  0  0  0  0  0  0  0  0  0  0  0
    7.0180    0.0763   23.9692 H   0  0  0  0  0  0  0  0  0  0  0  0
    8.5001    0.9803   25.2645 C   0  0  0  0  0  0  0  0  0  0  0  0
    7.9668    0.7311   26.1965 H   0  0  0  0  0  0  0  0  0  0  0  0
    9.5128   -0.1557   25.0272 C   0  0  0  0  0  0  0  0  0  0  0  0
   10.2043    0.0725   24.2105 H   0  0  0  0  0  0  0  0  0  0  0  0
   10.1197   -0.3228   25.9264 H   0  0  0  0  0  0  0  0  0  0  0  0
    9.0119   -1.1008   24.7867 H   0  0  0  0  0  0  0  0  0  0  0  0
    9.2256    2.3132   25.4934 C   0  0  0  0  0  0  0  0  0  0  0  0
    9.8662    2.2390   26.3744 H   0  0  0  0  0  0  0  0  0  0  0  0
    9.8642    2.5708   24.6364 H   0  0  0  0  0  0  0  0  0  0  0  0
    8.5259    3.1430   25.6597 H   0  0  0  0  0  0  0  0  0  0  0  0
   10.1050    1.5037   22.0225 N   0  0  0  0  0  0  0  0  0  0  0  0
   10.7598    0.6076   21.2257 C   0  0  0  0  0  0  0  0  0  0  0  0
   11.8156    0.7308   21.0189 H   0  0  0  0  0  0  0  0  0  0  0  0
    9.8892   -0.3439   20.7740 C   0  0  0  0  0  0  0  0  0  0  0  0
    9.9805   -1.1771   20.0982 H   0  0  0  0  0  0  0  0  0  0  0  0
    5.4180    0.6516   20.1442 C   0  0  0  0  0  0  0  0  0  0  0  0
    4.9789    0.6429   21.1447 H   0  0  0  0  0  0  0  0  0  0  0  0
    4.7874    1.3152   19.0888 C   0  0  0  0  0  0  0  0  0  0  0  0
    3.8604    1.8538   19.2358 H   0  0  0  0  0  0  0  0  0  0  0  0
  1  2  1  0
  2  3  2  0
  3  4  1  0
  4  5  1  0
  4  6  2  0
  6  7  1  0
  7  8  1  0
  7  9  1  0
  7 10  1  0
 10 11  1  0
 11 12  1  0
 12 13  1  0
 12 14  1  0
 12 15  1  0
 15 16  1  0
 15 17  1  0
 15 18  1  0
 18 19  1  0
 18 20  1  0
 20 21  1  0
 20 22  1  0
 20 23  1  0
 18 24  1  0
 24 25  1  0
 24 26  1  0
 24 27  1  0
 11 28  2  0
 28 29  1  0
 29 30  1  0
 29 31  2  0
 31 32  1  0
  6 33  1  0
 33 34  1  0
 33 35  2  0
 35 36  1  0
 35  2  1  0
 31 10  1  0
M  END
>  <plip>  (1) 
-0.07142857142857142

>  <filename>  (1) 
[H][c]1[n][c]([H])[c]([C]([H])([H])[n]2[c]([C]([H])([H])[C]([H])([H])[C]([H])([C]([H])([H])[H])[C]([H])([H])[H])[n][c]([H])[c]2[H])[c]([H])[c]1[H]

$$$$
