
     RDKit          3D

 29 30  0  0  0  0  0  0  0  0999 V2000
   12.5663    3.1206   21.5807 H   0  0  0  0  0  0  0  0  0  0  0  0
   11.6690    2.5442   21.5136 C   0  0  0  0  0  0  0  0  0  0  0  0
   10.6673    1.8807   21.4216 C   0  0  0  0  0  0  0  0  0  0  0  0
    9.4169    1.1159   21.3392 C   0  0  0  0  0  0  0  0  0  0  0  0
    8.6368    1.7107   20.8475 H   0  0  0  0  0  0  0  0  0  0  0  0
    9.0589    0.8950   22.3548 H   0  0  0  0  0  0  0  0  0  0  0  0
    9.6388   -0.0785   20.5987 O   0  0  0  0  0  0  0  0  0  0  0  0
    8.7371   -1.1378   20.8552 C   0  0  2  0  0  0  0  0  0  0  0  0
    8.8687   -1.8116   20.0049 H   0  0  0  0  0  0  0  0  0  0  0  0
    7.3429   -0.7468   20.9401 N   0  0  0  0  0  0  0  0  0  0  0  0
    6.6838   -0.0319   19.9329 C   0  0  0  0  0  0  0  0  0  0  0  0
    7.1853    0.0627   18.6037 C   0  0  0  0  0  0  0  0  0  0  0  0
    8.1311   -0.4089   18.3568 H   0  0  0  0  0  0  0  0  0  0  0  0
    6.5688    0.6771   17.5835 N   0  0  0  0  0  0  0  0  0  0  0  0
    5.4050    1.2918   17.8398 C   0  0  0  0  0  0  0  0  0  0  0  0
    4.9192    1.7834   16.9966 H   0  0  0  0  0  0  0  0  0  0  0  0
    4.8278    1.2989   19.1129 C   0  0  0  0  0  0  0  0  0  0  0  0
    3.8933    1.8282   19.2663 H   0  0  0  0  0  0  0  0  0  0  0  0
    5.4610    0.6345   20.1719 C   0  0  0  0  0  0  0  0  0  0  0  0
    5.0196    0.6253   21.1688 H   0  0  0  0  0  0  0  0  0  0  0  0
    6.7164   -1.0736   22.2119 C   0  0  0  0  0  0  0  0  0  0  0  0
    5.7587   -1.5564   22.0040 H   0  0  0  0  0  0  0  0  0  0  0  0
    6.5078   -0.1801   22.8232 H   0  0  0  0  0  0  0  0  0  0  0  0
    7.6916   -2.0378   22.8960 C   0  0  0  0  0  0  0  0  0  0  0  0
    7.7573   -1.8314   23.9654 H   0  0  0  0  0  0  0  0  0  0  0  0
    7.3392   -3.0656   22.7789 H   0  0  0  0  0  0  0  0  0  0  0  0
    9.0366   -1.8431   22.1880 C   0  0  0  0  0  0  0  0  0  0  0  0
    9.5443   -2.7881   21.9941 H   0  0  0  0  0  0  0  0  0  0  0  0
    9.7321   -1.2400   22.7766 H   0  0  0  0  0  0  0  0  0  0  0  0
  1  2  1  0
  2  3  3  0
  3  4  1  0
  4  5  1  0
  4  6  1  0
  4  7  1  0
  7  8  1  0
  8  9  1  6
  8 10  1  0
 10 11  1  0
 11 12  2  0
 12 13  1  0
 12 14  1  0
 14 15  2  0
 15 16  1  0
 15 17  1  0
 17 18  1  0
 17 19  2  0
 19 20  1  0
 10 21  1  0
 21 22  1  0
 21 23  1  0
 21 24  1  0
 24 25  1  0
 24 26  1  0
 24 27  1  0
 27 28  1  0
 27 29  1  0
 27  8  1  0
 19 11  1  0
M  END
>  <plip>  (1) 
-0.10714285714285714

>  <filename>  (1) 
[H][C]#[C][C]([H])([H])[O][C@]1([H])[N]([c]2[c]([H])[n][c]([H])[c]([H])[c]2[H])[C]([H])([H])[C]([H])([H])[C]1([H])[H]

$$$$
