
     RDKit          3D

 32 33  0  0  0  0  0  0  0  0999 V2000
    4.9857    1.8103   16.9604 H   0  0  0  0  0  0  0  0  0  0  0  0
    5.4299    1.2920   17.8119 C   0  0  0  0  0  0  0  0  0  0  0  0
    6.5892    0.6657   17.5789 N   0  0  0  0  0  0  0  0  0  0  0  0
    7.1642    0.0507   18.6245 C   0  0  0  0  0  0  0  0  0  0  0  0
    8.1083   -0.4532   18.4045 H   0  0  0  0  0  0  0  0  0  0  0  0
    6.6329    0.0113   19.9157 C   0  0  0  0  0  0  0  0  0  0  0  0
    7.4080   -0.7101   20.9972 C   0  0  2  0  0  0  0  0  0  0  0  0
    8.2091   -1.3167   20.5351 H   0  0  0  0  0  0  0  0  0  0  0  0
    6.5527   -1.5433   21.7458 O   0  0  0  0  0  0  0  0  0  0  0  0
    6.9406   -1.5531   23.1165 C   0  0  0  0  0  0  0  0  0  0  0  0
    7.3065   -2.5517   23.4031 H   0  0  0  0  0  0  0  0  0  0  0  0
    6.0598   -1.3317   23.7243 H   0  0  0  0  0  0  0  0  0  0  0  0
    8.0257   -0.4647   23.2731 C   0  0  0  0  0  0  0  0  0  0  0  0
    9.0120   -0.8995   23.4831 H   0  0  0  0  0  0  0  0  0  0  0  0
    7.7969    0.2307   24.0923 H   0  0  0  0  0  0  0  0  0  0  0  0
    7.9794    0.2155   21.9796 N   0  0  0  0  0  0  0  0  0  0  0  0
    9.2524    0.6739   21.5789 O   0  0  0  0  0  0  0  0  0  0  0  0
    9.2394    2.1016   21.3998 C   0  0  0  0  0  0  0  0  0  0  0  0
   10.1843    2.3200   20.8923 H   0  0  0  0  0  0  0  0  0  0  0  0
    8.4024    2.3748   20.7424 H   0  0  0  0  0  0  0  0  0  0  0  0
    9.1613    2.8253   22.7640 C   0  0  0  0  0  0  0  0  0  0  0  0
    9.8787    2.3385   23.4446 H   0  0  0  0  0  0  0  0  0  0  0  0
    8.1602    2.6725   23.1803 H   0  0  0  0  0  0  0  0  0  0  0  0
    9.3376    4.2273   22.6937 O   0  0  0  0  0  0  0  0  0  0  0  0
   10.6624    4.7197   22.7382 C   0  0  0  0  0  0  0  0  0  0  0  0
   10.6189    5.7515   22.3734 H   0  0  0  0  0  0  0  0  0  0  0  0
   11.0695    4.7303   23.7607 H   0  0  0  0  0  0  0  0  0  0  0  0
   11.3598    4.1570   22.0940 H   0  0  0  0  0  0  0  0  0  0  0  0
    5.4096    0.6639   20.1400 C   0  0  0  0  0  0  0  0  0  0  0  0
    4.9460    0.6602   21.1315 H   0  0  0  0  0  0  0  0  0  0  0  0
    4.8052    1.3132   19.0650 C   0  0  0  0  0  0  0  0  0  0  0  0
    3.8704    1.8474   19.1785 H   0  0  0  0  0  0  0  0  0  0  0  0
  1  2  1  0
  2  3  2  0
  3  4  1  0
  4  5  1  0
  4  6  2  0
  6  7  1  0
  7  8  1  6
  7  9  1  0
  9 10  1  0
 10 11  1  0
 10 12  1  0
 10 13  1  0
 13 14  1  0
 13 15  1  0
 13 16  1  0
 16 17  1  0
 17 18  1  0
 18 19  1  0
 18 20  1  0
 18 21  1  0
 21 22  1  0
 21 23  1  0
 21 24  1  0
 24 25  1  0
 25 26  1  0
 25 27  1  0
 25 28  1  0
  6 29  1  0
 29 30  1  0
 29 31  2  0
 31 32  1  0
 31  2  1  0
 16  7  1  0
M  END
>  <plip>  (1) 
-0.07142857142857142

>  <filename>  (1) 
[H][c]1[n][c]([H])[c]([C@]2([H])[O][C]([H])([H])[C]([H])([H])[N]2[O][C]([H])([H])[C]([H])([H])[O][C]([H])([H])[H])[c]([H])[c]1[H]

$$$$
