
     RDKit          3D

 31 33  0  0  0  0  0  0  0  0999 V2000
    5.2083   -7.1758   20.2046 H   0  0  0  0  0  0  0  0  0  0  0  0
    5.6652   -6.5955   21.0078 C   0  0  0  0  0  0  0  0  0  0  0  0
    5.2662   -5.3269   21.1134 N   0  0  0  0  0  0  0  0  0  0  0  0
    5.7952   -4.5729   22.0932 C   0  0  0  0  0  0  0  0  0  0  0  0
    5.2626   -3.1575   22.1925 C   0  0  0  0  0  0  0  0  0  0  0  0
    5.3482   -2.7879   23.2222 H   0  0  0  0  0  0  0  0  0  0  0  0
    4.2127   -3.1903   21.8983 H   0  0  0  0  0  0  0  0  0  0  0  0
    5.8524   -2.2142   21.2758 O   0  0  0  0  0  0  0  0  0  0  0  0
    7.0712   -1.7392   21.5307 C   0  0  0  0  0  0  0  0  0  0  0  0
    8.0011   -1.9870   22.4667 C   0  0  0  0  0  0  0  0  0  0  0  0
    8.0335   -2.6386   23.3193 H   0  0  0  0  0  0  0  0  0  0  0  0
    9.0973   -1.1774   22.2141 O   0  0  0  0  0  0  0  0  0  0  0  0
    8.8513   -0.4109   21.1130 C   0  0  0  0  0  0  0  0  0  0  0  0
    9.6118    0.4051   20.6668 O   0  0  0  0  0  0  0  0  0  0  0  0
    7.5777   -0.7754   20.6551 N   0  0  0  0  0  0  0  0  0  0  0  0
    6.8385   -0.0313   19.6754 C   0  0  0  0  0  0  0  0  0  0  0  0
    7.2702    0.0523   18.3352 C   0  0  0  0  0  0  0  0  0  0  0  0
    8.2050   -0.4223   18.0462 H   0  0  0  0  0  0  0  0  0  0  0  0
    6.5930    0.7049   17.3808 N   0  0  0  0  0  0  0  0  0  0  0  0
    5.4574    1.3274   17.7341 C   0  0  0  0  0  0  0  0  0  0  0  0
    4.9318    1.8607   16.9439 H   0  0  0  0  0  0  0  0  0  0  0  0
    4.9567    1.3209   19.0403 C   0  0  0  0  0  0  0  0  0  0  0  0
    4.0416    1.8557   19.2665 H   0  0  0  0  0  0  0  0  0  0  0  0
    5.6577    0.6263   20.0314 C   0  0  0  0  0  0  0  0  0  0  0  0
    5.3085    0.5932   21.0630 H   0  0  0  0  0  0  0  0  0  0  0  0
    6.7520   -5.0714   22.9921 C   0  0  0  0  0  0  0  0  0  0  0  0
    7.1273   -4.4435   23.7920 H   0  0  0  0  0  0  0  0  0  0  0  0
    7.1940   -6.3880   22.8467 C   0  0  0  0  0  0  0  0  0  0  0  0
    7.9483   -6.7960   23.5161 H   0  0  0  0  0  0  0  0  0  0  0  0
    6.6188   -7.1733   21.8518 C   0  0  0  0  0  0  0  0  0  0  0  0
    6.9215   -8.2001   21.6952 H   0  0  0  0  0  0  0  0  0  0  0  0
  1  2  1  0
  2  3  2  0
  3  4  1  0
  4  5  1  0
  5  6  1  0
  5  7  1  0
  5  8  1  0
  8  9  1  0
  9 10  2  0
 10 11  1  0
 10 12  1  0
 12 13  1  0
 13 14  2  0
 13 15  1  0
 15 16  1  0
 16 17  2  0
 17 18  1  0
 17 19  1  0
 19 20  2  0
 20 21  1  0
 20 22  1  0
 22 23  1  0
 22 24  2  0
 24 25  1  0
  4 26  2  0
 26 27  1  0
 26 28  1  0
 28 29  1  0
 28 30  2  0
 30 31  1  0
 30  2  1  0
 15  9  1  0
 24 16  1  0
M  END
>  <plip>  (1) 
-0.16666666666666666

>  <filename>  (1) 
[H][c]1[n][c]([C]([H])([H])[O][c]2[c]([H])[o][c](=[O])[n]2-[c]2[c]([H])[n][c]([H])[c]([H])[c]2[H])[c]([H])[c]([H])[c]1[H]

$$$$
