
     RDKit          3D

 41 43  0  0  0  0  0  0  0  0999 V2000
    6.7054   -2.4792   19.6015 H   0  0  0  0  0  0  0  0  0  0  0  0
    6.9956   -1.9736   20.5024 C   0  0  0  0  0  0  0  0  0  0  0  0
    6.6033   -0.7028   20.7182 C   0  0  0  0  0  0  0  0  0  0  0  0
    6.0859    0.1708   19.6525 C   0  0  0  0  0  0  0  0  0  0  0  0
    6.7230    0.1361   18.3975 C   0  0  0  0  0  0  0  0  0  0  0  0
    7.5360   -0.5717   18.2254 H   0  0  0  0  0  0  0  0  0  0  0  0
    6.4089    0.9287   17.3677 N   0  0  0  0  0  0  0  0  0  0  0  0
    5.3962    1.7914   17.5450 C   0  0  0  0  0  0  0  0  0  0  0  0
    5.1675    2.4460   16.7036 H   0  0  0  0  0  0  0  0  0  0  0  0
    4.6585    1.8701   18.7307 C   0  0  0  0  0  0  0  0  0  0  0  0
    3.8385    2.5715   18.8014 H   0  0  0  0  0  0  0  0  0  0  0  0
    5.0092    1.0535   19.8082 C   0  0  0  0  0  0  0  0  0  0  0  0
    4.4546    1.0872   20.7467 H   0  0  0  0  0  0  0  0  0  0  0  0
    6.7629   -0.1744   21.9899 N   0  0  0  0  0  0  0  0  0  0  0  0
    6.3034    0.6481   22.3291 H   0  0  0  0  0  0  0  0  0  0  0  0
    7.6328   -0.6671   22.9464 C   0  0  0  0  0  0  0  0  0  0  0  0
    7.7162   -0.0954   24.0138 O   0  0  0  0  0  0  0  0  0  0  0  0
    8.3480   -1.7666   22.4890 N   0  0  0  0  0  0  0  0  0  0  0  0
    9.3805   -2.2981   23.2491 O   0  0  0  0  0  0  0  0  0  0  0  0
   10.6568   -1.8888   22.7313 C   0  0  0  0  0  0  0  0  0  0  0  0
   11.3511   -2.5787   23.2146 H   0  0  0  0  0  0  0  0  0  0  0  0
   10.6886   -2.0704   21.6470 H   0  0  0  0  0  0  0  0  0  0  0  0
   11.0151   -0.4361   23.0597 C   0  0  0  0  0  0  0  0  0  0  0  0
   10.3573    0.2150   22.4600 H   0  0  0  0  0  0  0  0  0  0  0  0
   12.4691   -0.1420   22.6515 C   0  0  0  0  0  0  0  0  0  0  0  0
   12.5865   -0.2932   21.5755 H   0  0  0  0  0  0  0  0  0  0  0  0
   13.1482   -0.8574   23.1352 H   0  0  0  0  0  0  0  0  0  0  0  0
   12.8980    1.2793   23.0437 C   0  0  0  0  0  0  0  0  0  0  0  0
   12.3571    2.0101   22.4228 H   0  0  0  0  0  0  0  0  0  0  0  0
   13.9711    1.4202   22.8620 H   0  0  0  0  0  0  0  0  0  0  0  0
   12.6330    1.6030   24.4510 N   0  0  0  0  0  0  0  0  0  0  0  0
   13.1972    0.9700   25.0175 H   0  0  0  0  0  0  0  0  0  0  0  0
   11.2368    1.3521   24.8252 C   0  0  0  0  0  0  0  0  0  0  0  0
   10.5875    2.0552   24.2812 H   0  0  0  0  0  0  0  0  0  0  0  0
   11.1055    1.5914   25.8846 H   0  0  0  0  0  0  0  0  0  0  0  0
   10.8006   -0.0901   24.5459 C   0  0  0  0  0  0  0  0  0  0  0  0
   11.4040   -0.7608   25.1748 H   0  0  0  0  0  0  0  0  0  0  0  0
    9.7557   -0.2446   24.8284 H   0  0  0  0  0  0  0  0  0  0  0  0
    7.7600   -2.7265   21.5494 C   0  0  0  0  0  0  0  0  0  0  0  0
    7.1344   -3.4693   22.0891 H   0  0  0  0  0  0  0  0  0  0  0  0
    8.5812   -3.2946   21.0827 H   0  0  0  0  0  0  0  0  0  0  0  0
  1  2  1  0
  2  3  2  0
  3  4  1  0
  4  5  2  0
  5  6  1  0
  5  7  1  0
  7  8  2  0
  8  9  1  0
  8 10  1  0
 10 11  1  0
 10 12  2  0
 12 13  1  0
  3 14  1  0
 14 15  1  0
 14 16  1  0
 16 17  2  0
 16 18  1  0
 18 19  1  0
 19 20  1  0
 20 21  1  0
 20 22  1  0
 20 23  1  0
 23 24  1  0
 23 25  1  0
 25 26  1  0
 25 27  1  0
 25 28  1  0
 28 29  1  0
 28 30  1  0
 28 31  1  0
 31 32  1  0
 31 33  1  0
 33 34  1  0
 33 35  1  0
 33 36  1  0
 36 37  1  0
 36 38  1  0
 18 39  1  0
 39 40  1  0
 39 41  1  0
 39  2  1  0
 12  4  1  0
 36 23  1  0
M  END
>  <plip>  (1) 
-0.03571428571428571

>  <filename>  (1) 
[H][C]1=[C]([c]2[c]([H])[n][c]([H])[c]([H])[c]2[H])[N]([H])[C](=[O])[N]([O][C]([H])([H])[C]2([H])[C]([H])([H])[C]([H])([H])[N]([H])[C]([H])([H])[C]2([H])[H])[C]1([H])[H]

$$$$
