
     RDKit          3D

 38 41  0  0  0  0  0  0  0  0999 V2000
    8.5751   -3.6039   22.2687 C   0  0  0  0  0  0  0  0  0  0  0  0
    8.2089   -2.2145   21.8864 C   0  0  0  0  0  0  0  0  0  0  0  0
    7.6420   -1.9231   20.7359 N   0  0  0  0  0  0  0  0  0  0  0  0
    7.3356   -0.6127   20.8729 N   0  0  0  0  0  0  0  0  0  0  0  0
    6.6144    0.0415   19.8477 C   0  0  0  0  0  0  0  0  0  0  0  0
    5.4056    0.7016   20.0912 C   0  0  0  0  0  0  0  0  0  0  0  0
    4.7952    1.3539   19.0138 C   0  0  0  0  0  0  0  0  0  0  0  0
    5.4140    1.3186   17.7608 C   0  0  0  0  0  0  0  0  0  0  0  0
    6.5529    0.6441   17.5187 N   0  0  0  0  0  0  0  0  0  0  0  0
    7.1189    0.0008   18.5408 C   0  0  0  0  0  0  0  0  0  0  0  0
    8.0188   -0.5775   18.3466 H   0  0  0  0  0  0  0  0  0  0  0  0
    4.9767    1.8308   16.9070 H   0  0  0  0  0  0  0  0  0  0  0  0
    3.8503    1.8714   19.1323 H   0  0  0  0  0  0  0  0  0  0  0  0
    4.9494    0.6741   21.0819 H   0  0  0  0  0  0  0  0  0  0  0  0
    7.7616   -0.1684   22.0943 C   0  0  0  0  0  0  0  0  0  0  0  0
    7.6714    1.2485   22.6098 C   0  0  0  0  0  0  0  0  0  0  0  0
    7.0441    1.3139   23.9948 C   0  0  0  0  0  0  0  0  0  0  0  0
    5.6704    1.5282   24.1751 C   0  0  0  0  0  0  0  0  0  0  0  0
    5.0854    1.5063   25.4507 C   0  0  0  0  0  0  0  0  0  0  0  0
    5.9277    1.2836   26.5360 C   0  0  0  0  0  0  0  0  0  0  0  0
    5.5151    1.2878   27.8314 O   0  0  0  0  0  0  0  0  0  0  0  0
    6.6629    1.0508   28.6690 C   0  0  0  0  0  0  0  0  0  0  0  0
    7.9123    1.1079   27.7658 C   0  0  0  0  0  0  0  0  0  0  0  0
    7.3064    1.1148   26.3903 C   0  0  0  0  0  0  0  0  0  0  0  0
    7.8653    1.0930   25.1172 C   0  0  0  0  0  0  0  0  0  0  0  0
    8.9203    0.8780   24.9417 H   0  0  0  0  0  0  0  0  0  0  0  0
    8.5884    0.2694   27.9545 H   0  0  0  0  0  0  0  0  0  0  0  0
    8.4668    2.0380   27.9304 H   0  0  0  0  0  0  0  0  0  0  0  0
    6.6611    1.8374   29.4274 H   0  0  0  0  0  0  0  0  0  0  0  0
    6.5498    0.0739   29.1574 H   0  0  0  0  0  0  0  0  0  0  0  0
    4.0276    1.6805   25.6171 H   0  0  0  0  0  0  0  0  0  0  0  0
    5.0394    1.7481   23.3139 H   0  0  0  0  0  0  0  0  0  0  0  0
    8.6982    1.6356   22.6732 H   0  0  0  0  0  0  0  0  0  0  0  0
    7.1391    1.8907   21.8965 H   0  0  0  0  0  0  0  0  0  0  0  0
    8.3346   -1.1672   22.7413 N   0  0  0  0  0  0  0  0  0  0  0  0
    8.4445   -4.2859   21.4231 H   0  0  0  0  0  0  0  0  0  0  0  0
    9.6045   -3.6274   22.6229 H   0  0  0  0  0  0  0  0  0  0  0  0
    7.9407   -3.9207   23.1006 H   0  0  0  0  0  0  0  0  0  0  0  0
  1  2  1  0
  2  3  2  0
  3  4  1  0
  4  5  1  0
  5  6  2  0
  6  7  1  0
  7  8  2  0
  8  9  1  0
  9 10  2  0
 10 11  1  0
  8 12  1  0
  7 13  1  0
  6 14  1  0
  4 15  1  0
 15 16  1  0
 16 17  1  0
 17 18  2  0
 18 19  1  0
 19 20  2  0
 20 21  1  0
 21 22  1  0
 22 23  1  0
 23 24  1  0
 24 25  2  0
 25 26  1  0
 23 27  1  0
 23 28  1  0
 22 29  1  0
 22 30  1  0
 19 31  1  0
 18 32  1  0
 16 33  1  0
 16 34  1  0
 15 35  2  0
  1 36  1  0
  1 37  1  0
  1 38  1  0
 35  2  1  0
 10  5  1  0
 25 17  1  0
 24 20  1  0
M  END
>  <plip>  (1) 
-0.07142857142857142

>  <filename>  (1) 
[H][c]1[n][c]([H])[c](-[n]2[n][c]([C]([H])([H])[H])[n][c]2[C]([H])([H])[c]2[c]([H])[c]([H])[c]3[c]([c]2[H])[C]([H])([H])[C]([H])([H])[O]3)[c]([H])[c]1[H]

$$$$
