
     RDKit          3D

 36 39  0  0  0  0  0  0  0  0999 V2000
    4.9012    2.2593   16.3901 H   0  0  0  0  0  0  0  0  0  0  0  0
    5.2942    1.7068   17.2429 C   0  0  0  0  0  0  0  0  0  0  0  0
    6.4129    0.9986   17.0187 N   0  0  0  0  0  0  0  0  0  0  0  0
    6.9367    0.3336   18.0547 C   0  0  0  0  0  0  0  0  0  0  0  0
    7.8519   -0.2216   17.8493 H   0  0  0  0  0  0  0  0  0  0  0  0
    6.3862    0.2948   19.3439 C   0  0  0  0  0  0  0  0  0  0  0  0
    7.0338   -0.5401   20.3977 C   0  0  0  0  0  0  0  0  0  0  0  0
    8.4473   -0.4604   20.6339 C   0  0  0  0  0  0  0  0  0  0  0  0
    9.0637    0.2098   20.0463 H   0  0  0  0  0  0  0  0  0  0  0  0
    9.0121   -1.1940   21.6320 C   0  0  0  0  0  0  0  0  0  0  0  0
   10.0761   -1.1544   21.8624 H   0  0  0  0  0  0  0  0  0  0  0  0
    8.2413   -2.0289   22.4281 N   0  0  0  0  0  0  0  0  0  0  0  0
    8.7623   -2.5993   23.6448 C   0  0  0  0  0  0  0  0  0  0  0  0
    9.2960   -3.8680   23.6285 C   0  0  0  0  0  0  0  0  0  0  0  0
    9.3578   -4.3906   22.6820 H   0  0  0  0  0  0  0  0  0  0  0  0
    9.7295   -4.5042   24.8263 C   0  0  0  0  0  0  0  0  0  0  0  0
   10.1560   -5.5079   24.7752 H   0  0  0  0  0  0  0  0  0  0  0  0
    9.5762   -3.8561   26.0266 C   0  0  0  0  0  0  0  0  0  0  0  0
    9.8346   -4.2882   26.9871 H   0  0  0  0  0  0  0  0  0  0  0  0
    9.0605   -2.5316   26.0784 C   0  0  0  0  0  0  0  0  0  0  0  0
    9.0464   -1.9333   27.3093 N   0  0  0  0  0  0  0  0  0  0  0  0
    8.6767   -0.6822   27.3786 C   0  0  0  0  0  0  0  0  0  0  0  0
    8.7534   -0.2259   28.3666 H   0  0  0  0  0  0  0  0  0  0  0  0
    8.2167    0.0725   26.2625 C   0  0  0  0  0  0  0  0  0  0  0  0
    7.8982    1.0969   26.4227 H   0  0  0  0  0  0  0  0  0  0  0  0
    8.1882   -0.5184   25.0193 C   0  0  0  0  0  0  0  0  0  0  0  0
    7.8472    0.0218   24.1365 H   0  0  0  0  0  0  0  0  0  0  0  0
    8.6547   -1.8643   24.8808 C   0  0  0  0  0  0  0  0  0  0  0  0
    6.8775   -2.3301   22.0909 C   0  0  0  0  0  0  0  0  0  0  0  0
    6.2706   -3.2573   22.5969 O   0  0  0  0  0  0  0  0  0  0  0  0
    6.3006   -1.4401   21.1110 C   0  0  0  0  0  0  0  0  0  0  0  0
    5.2430   -1.5770   20.9606 H   0  0  0  0  0  0  0  0  0  0  0  0
    5.2108    1.0389   19.5548 C   0  0  0  0  0  0  0  0  0  0  0  0
    4.7472    1.0710   20.5406 H   0  0  0  0  0  0  0  0  0  0  0  0
    4.6608    1.7550   18.4884 C   0  0  0  0  0  0  0  0  0  0  0  0
    3.7630    2.3543   18.6015 H   0  0  0  0  0  0  0  0  0  0  0  0
  1  2  1  0
  2  3  2  0
  3  4  1  0
  4  5  1  0
  4  6  2  0
  6  7  1  0
  7  8  1  0
  8  9  1  0
  8 10  2  0
 10 11  1  0
 10 12  1  0
 12 13  1  0
 13 14  2  0
 14 15  1  0
 14 16  1  0
 16 17  1  0
 16 18  2  0
 18 19  1  0
 18 20  1  0
 20 21  2  0
 21 22  1  0
 22 23  1  0
 22 24  2  0
 24 25  1  0
 24 26  1  0
 26 27  1  0
 26 28  2  0
 12 29  1  0
 29 30  2  0
 29 31  1  0
 31 32  1  0
  6 33  1  0
 33 34  1  0
 33 35  2  0
 35 36  1  0
 35  2  1  0
 31  7  2  0
 28 13  1  0
 28 20  1  0
M  END
>  <plip>  (1) 
-0.034482758620689655

>  <filename>  (1) 
[H][c]1[n][c]([H])[c](-[c]2[c]([H])[c]([H])[n](-[c]3[c]([H])[c]([H])[c]([H])[c]4[n][c]([H])[c]([H])[c]([H])[c]34)[c](=[O])[c]2[H])[c]([H])[c]1[H]

$$$$
