
     RDKit          3D

 29 29  0  0  0  0  0  0  0  0999 V2000
    9.3297    0.0017   20.4545 H   0  0  0  0  0  0  0  0  0  0  0  0
    8.7399   -0.6252   21.1149 C   0  0  0  0  0  0  0  0  0  0  0  0
    7.3749   -0.7213   20.9627 C   0  0  0  0  0  0  0  0  0  0  0  0
    6.4148   -1.8649   22.1551 Br  0  0  0  0  0  0  0  0  0  0  0  0
    6.6630    0.0008   19.8963 C   0  0  0  0  0  0  0  0  0  0  0  0
    7.1930    0.0697   18.6011 C   0  0  0  0  0  0  0  0  0  0  0  0
    8.1439   -0.4218   18.4157 H   0  0  0  0  0  0  0  0  0  0  0  0
    6.5818    0.6943   17.5749 N   0  0  0  0  0  0  0  0  0  0  0  0
    5.4070    1.3029   17.8179 C   0  0  0  0  0  0  0  0  0  0  0  0
    4.9078    1.8349   17.0135 H   0  0  0  0  0  0  0  0  0  0  0  0
    4.8148    1.2889   19.0807 C   0  0  0  0  0  0  0  0  0  0  0  0
    3.8798    1.8154   19.2216 H   0  0  0  0  0  0  0  0  0  0  0  0
    5.4385    0.6285   20.1390 C   0  0  0  0  0  0  0  0  0  0  0  0
    4.9936    0.6196   21.1301 H   0  0  0  0  0  0  0  0  0  0  0  0
    9.4612   -1.3421   22.2219 C   0  0  0  0  0  0  0  0  0  0  0  0
    9.3578   -2.4242   22.0802 H   0  0  0  0  0  0  0  0  0  0  0  0
    9.0094   -1.0905   23.1874 H   0  0  0  0  0  0  0  0  0  0  0  0
   10.8728   -0.9282   22.1864 N   0  0  0  0  0  0  0  0  0  0  0  0
   11.2446   -1.0204   21.2424 H   0  0  0  0  0  0  0  0  0  0  0  0
   11.1551    0.4067   22.7273 C   0  0  0  0  0  0  0  0  0  0  0  0
   10.3155    1.0885   22.5396 H   0  0  0  0  0  0  0  0  0  0  0  0
   12.3788    0.9510   22.0319 C   0  0  0  0  0  0  0  0  0  0  0  0
   12.1028    1.2293   21.0112 H   0  0  0  0  0  0  0  0  0  0  0  0
   12.7419    1.8300   22.5691 H   0  0  0  0  0  0  0  0  0  0  0  0
   13.1741    0.2008   21.9876 H   0  0  0  0  0  0  0  0  0  0  0  0
   11.4057    0.3332   24.2247 C   0  0  0  0  0  0  0  0  0  0  0  0
   10.5258   -0.0813   24.7204 H   0  0  0  0  0  0  0  0  0  0  0  0
   12.2714   -0.2962   24.4492 H   0  0  0  0  0  0  0  0  0  0  0  0
   11.5918    1.3369   24.6162 H   0  0  0  0  0  0  0  0  0  0  0  0
  1  2  1  0
  2  3  2  3
  3  4  1  0
  3  5  1  0
  5  6  2  0
  6  7  1  0
  6  8  1  0
  8  9  2  0
  9 10  1  0
  9 11  1  0
 11 12  1  0
 11 13  2  0
 13 14  1  0
  2 15  1  0
 15 16  1  0
 15 17  1  0
 15 18  1  0
 18 19  1  0
 18 20  1  0
 20 21  1  0
 20 22  1  0
 22 23  1  0
 22 24  1  0
 22 25  1  0
 20 26  1  0
 26 27  1  0
 26 28  1  0
 26 29  1  0
 13  5  1  0
M  END
>  <plip>  (1) 
-0.034482758620689655

>  <filename>  (1) 
[H][C](=[C]([Br])[c]1[c]([H])[n][c]([H])[c]([H])[c]1[H])[C]([H])([H])[N]([H])[C]([H])([C]([H])([H])[H])[C]([H])([H])[H]

$$$$
