
     RDKit          3D

 41 43  0  0  0  0  0  0  0  0999 V2000
    8.6587   -0.6269   21.0280 O   0  0  0  0  0  0  0  0  0  0  0  0
    7.2291   -0.6919   21.0701 C   0  0  0  0  0  0  0  0  0  0  0  0
    6.9054   -2.1905   20.9162 C   0  0  0  0  0  0  0  0  0  0  0  0
    7.6725   -2.9762   21.9340 N   0  0  0  0  0  4  0  0  0  0  0  0
    7.0886   -2.8394   23.2781 C   0  0  2  0  0  0  0  0  0  0  0  0
    7.7944   -1.9319   24.2367 C   0  0  0  0  0  0  0  0  0  0  0  0
    7.7532   -3.4301   24.4782 C   0  0  1  0  0  0  0  0  0  0  0  0
    6.8697   -4.0547   25.5276 C   0  0  0  0  0  0  0  0  0  0  0  0
    7.0701   -3.8096   26.8958 C   0  0  0  0  0  0  0  0  0  0  0  0
    6.2322   -4.4082   27.8412 C   0  0  0  0  0  0  0  0  0  0  0  0
    5.1754   -5.2279   27.4535 C   0  0  0  0  0  0  0  0  0  0  0  0
    4.9695   -5.4898   26.0912 C   0  0  0  0  0  0  0  0  0  0  0  0
    3.8193   -6.3674   25.6414 C   0  0  0  0  0  0  0  0  0  0  0  0
    2.7146   -6.1396   26.3781 F   0  0  0  0  0  0  0  0  0  0  0  0
    3.4897   -6.1526   24.3525 F   0  0  0  0  0  0  0  0  0  0  0  0
    4.0885   -7.6807   25.7554 F   0  0  0  0  0  0  0  0  0  0  0  0
    5.8293   -4.9151   25.1433 C   0  0  0  0  0  0  0  0  0  0  0  0
    5.6982   -5.1062   24.0807 H   0  0  0  0  0  0  0  0  0  0  0  0
    4.5021   -5.6202   28.2158 H   0  0  0  0  0  0  0  0  0  0  0  0
    6.3763   -4.2578   28.9023 H   0  0  0  0  0  0  0  0  0  0  0  0
    7.8618   -3.1269   27.1970 H   0  0  0  0  0  0  0  0  0  0  0  0
    8.7118   -3.9410   24.3494 H   0  0  0  0  0  0  0  0  0  0  0  0
    8.7303   -1.5089   23.8727 H   0  0  0  0  0  0  0  0  0  0  0  0
    7.2110   -1.2556   24.8582 H   0  0  0  0  0  0  0  0  0  0  0  0
    6.0015   -2.8292   23.2844 H   0  0  0  0  0  0  0  0  0  0  0  0
    7.8276   -3.9751   21.6826 H   0  0  0  0  0  0  0  0  0  0  0  0
    8.6086   -2.4758   21.9247 H   0  0  0  0  0  0  0  0  0  0  0  0
    5.8345   -2.3587   21.0233 H   0  0  0  0  0  0  0  0  0  0  0  0
    7.2029   -2.4802   19.9116 H   0  0  0  0  0  0  0  0  0  0  0  0
    6.6160    0.1297   19.9715 C   0  0  0  0  0  0  0  0  0  0  0  0
    5.3834    0.7760   20.1315 C   0  0  0  0  0  0  0  0  0  0  0  0
    4.8009    1.3910   19.0242 C   0  0  0  0  0  0  0  0  0  0  0  0
    5.4835    1.3488   17.8031 C   0  0  0  0  0  0  0  0  0  0  0  0
    6.6768    0.7566   17.6382 N   0  0  0  0  0  0  0  0  0  0  0  0
    7.2262    0.1726   18.7071 C   0  0  0  0  0  0  0  0  0  0  0  0
    8.1951   -0.3054   18.5525 H   0  0  0  0  0  0  0  0  0  0  0  0
    5.0473    1.7982   16.9146 H   0  0  0  0  0  0  0  0  0  0  0  0
    3.8416    1.8944   19.0906 H   0  0  0  0  0  0  0  0  0  0  0  0
    4.8968    0.8072   21.1096 H   0  0  0  0  0  0  0  0  0  0  0  0
    6.8633   -0.3284   22.0469 H   0  0  0  0  0  0  0  0  0  0  0  0
    8.8667    0.2950   20.8342 H   0  0  0  0  0  0  0  0  0  0  0  0
  1  2  1  0
  2  3  1  0
  3  4  1  0
  4  5  1  0
  5  6  1  0
  6  7  1  0
  7  8  1  0
  8  9  2  0
  9 10  1  0
 10 11  2  0
 11 12  1  0
 12 13  1  0
 13 14  1  0
 13 15  1  0
 13 16  1  0
 12 17  2  0
 17 18  1  0
 11 19  1  0
 10 20  1  0
  9 21  1  0
  7 22  1  6
  6 23  1  0
  6 24  1  0
  5 25  1  6
  4 26  1  0
  4 27  1  0
  3 28  1  0
  3 29  1  0
  2 30  1  0
 30 31  2  0
 31 32  1  0
 32 33  2  0
 33 34  1  0
 34 35  2  0
 35 36  1  0
 33 37  1  0
 32 38  1  0
 31 39  1  0
  2 40  1  0
  1 41  1  0
  7  5  1  0
 17  8  1  0
 35 30  1  0
M  CHG  1   4   1
M  END
>  <plip>  (1) 
-0.03333333333333333

>  <filename>  (1) 
[H][O][C]([H])([c]1[c]([H])[n][c]([H])[c]([H])[c]1[H])[C]([H])([H])[N+]([H])([H])[C@]1([H])[C]([H])([H])[C@@]1([H])[c]1[c]([H])[c]([H])[c]([H])[c]([C]([F])([F])[F])[c]1[H]

$$$$
