
     RDKit          3D

 27 28  0  0  0  0  0  0  0  0999 V2000
   10.2608   -3.9500   23.4509 H   0  0  0  0  0  0  0  0  0  0  0  0
    9.2263   -3.6335   23.5202 C   0  0  0  0  0  0  0  0  0  0  0  0
    8.6364   -3.0408   22.4468 N   0  0  0  0  0  0  0  0  0  0  0  0
    7.3477   -2.6722   22.6289 C   0  0  0  0  0  0  0  0  0  0  0  0
    6.5732   -1.9592   21.5468 C   0  0  2  0  0  0  0  0  0  0  0  0
    5.6739   -1.5617   22.0008 H   0  0  0  0  0  0  0  0  0  0  0  0
    5.9840   -3.2653   20.1591 Br  0  0  0  0  0  0  0  0  0  0  0  0
    7.3632   -0.7785   20.9605 C   0  0  0  0  0  0  0  0  0  0  0  0
    7.5750   -0.0484   21.7516 H   0  0  0  0  0  0  0  0  0  0  0  0
    8.3171   -1.1641   20.5959 H   0  0  0  0  0  0  0  0  0  0  0  0
    6.6223   -0.0700   19.8492 C   0  0  0  0  0  0  0  0  0  0  0  0
    7.1532   -0.0062   18.5457 C   0  0  0  0  0  0  0  0  0  0  0  0
    8.1051   -0.4872   18.3403 H   0  0  0  0  0  0  0  0  0  0  0  0
    6.5605    0.6595   17.5367 N   0  0  0  0  0  0  0  0  0  0  0  0
    5.4081    1.3017   17.7982 C   0  0  0  0  0  0  0  0  0  0  0  0
    4.9177    1.8533   17.0025 H   0  0  0  0  0  0  0  0  0  0  0  0
    4.8180    1.2882   19.0651 C   0  0  0  0  0  0  0  0  0  0  0  0
    3.9023    1.8418   19.2304 H   0  0  0  0  0  0  0  0  0  0  0  0
    5.4249    0.5940   20.1112 C   0  0  0  0  0  0  0  0  0  0  0  0
    4.9977    0.5909   21.1127 H   0  0  0  0  0  0  0  0  0  0  0  0
    6.6811   -2.9316   23.8512 C   0  0  0  0  0  0  0  0  0  0  0  0
    5.6477   -2.6223   23.9314 H   0  0  0  0  0  0  0  0  0  0  0  0
    7.2601   -3.5124   24.9185 N   0  0  0  0  0  0  0  0  0  0  0  0
    8.5331   -3.8370   24.7435 C   0  0  0  0  0  0  0  0  0  0  0  0
    9.0326   -4.3600   25.9069 N   0  0  0  0  0  0  0  0  0  0  0  0
    8.3625   -4.4592   26.6624 H   0  0  0  0  0  0  0  0  0  0  0  0
    9.9715   -4.7424   25.9636 H   0  0  0  0  0  0  0  0  0  0  0  0
  1  2  1  0
  2  3  2  0
  3  4  1  0
  4  5  1  0
  5  6  1  1
  5  7  1  0
  5  8  1  0
  8  9  1  0
  8 10  1  0
  8 11  1  0
 11 12  2  0
 12 13  1  0
 12 14  1  0
 14 15  2  0
 15 16  1  0
 15 17  1  0
 17 18  1  0
 17 19  2  0
 19 20  1  0
  4 21  2  0
 21 22  1  0
 21 23  1  0
 23 24  2  0
 24 25  1  0
 25 26  1  0
 25 27  1  0
 24  2  1  0
 19 11  1  0
M  END
>  <plip>  (1) 
-0.034482758620689655

>  <filename>  (1) 
[H][c]1[n][c]([C@]([H])([Br])[C]([H])([H])[c]2[c]([H])[n][c]([H])[c]([H])[c]2[H])[c]([H])[n][c]1[N]([H])[H]

$$$$
