
     RDKit          3D

 34 37  0  0  0  0  0  0  0  0999 V2000
    2.9986   -3.7080   25.3777 H   0  0  0  0  0  0  0  0  0  0  0  0
    3.1241   -4.5590   24.7038 C   0  0  0  0  0  0  0  0  0  0  0  0
    4.0163   -4.4169   23.7090 N   0  0  0  0  0  0  0  0  0  0  0  0
    4.2006   -5.4660   22.9235 C   0  0  0  0  0  0  0  0  0  0  0  0
    5.1496   -5.3752   21.9277 N   0  0  0  0  0  0  0  0  0  0  0  0
    5.6325   -6.2336   21.7203 H   0  0  0  0  0  0  0  0  0  0  0  0
    5.9836   -4.3038   21.7665 C   0  0  0  0  0  0  0  0  0  0  0  0
    7.2290   -4.4743   21.4338 N   0  0  0  0  0  0  0  0  0  0  0  0
    7.8532   -3.2745   21.2084 N   0  0  0  0  0  0  0  0  0  0  0  0
    7.0390   -2.2638   21.2947 C   0  0  0  0  0  0  0  0  0  0  0  0
    7.3612   -0.8158   21.0419 C   0  0  0  0  0  0  0  0  0  0  0  0
    6.6154   -0.0974   19.9373 C   0  0  0  0  0  0  0  0  0  0  0  0
    7.1497   -0.0344   18.6377 C   0  0  0  0  0  0  0  0  0  0  0  0
    8.0945   -0.5357   18.4293 H   0  0  0  0  0  0  0  0  0  0  0  0
    6.5909    0.6174   17.6083 N   0  0  0  0  0  0  0  0  0  0  0  0
    5.4405    1.2637   17.8460 C   0  0  0  0  0  0  0  0  0  0  0  0
    5.0052    1.8006   17.0033 H   0  0  0  0  0  0  0  0  0  0  0  0
    4.8156    1.2761   19.0975 C   0  0  0  0  0  0  0  0  0  0  0  0
    3.8883    1.8204   19.2283 H   0  0  0  0  0  0  0  0  0  0  0  0
    5.4148    0.5916   20.1599 C   0  0  0  0  0  0  0  0  0  0  0  0
    4.9727    0.6006   21.1584 H   0  0  0  0  0  0  0  0  0  0  0  0
    8.7872   -0.4061   21.2930 C   0  0  0  0  0  0  0  0  0  0  0  0
    9.2134    0.3448   20.6341 H   0  0  0  0  0  0  0  0  0  0  0  0
    9.4500   -1.2162   21.5760 H   0  0  0  0  0  0  0  0  0  0  0  0
    7.7382    0.0091   22.2684 C   0  0  0  0  0  0  0  0  0  0  0  0
    7.6956   -0.4841   23.2337 H   0  0  0  0  0  0  0  0  0  0  0  0
    7.4286    1.0533   22.2810 H   0  0  0  0  0  0  0  0  0  0  0  0
    5.4431   -2.6835   21.8115 S   0  0  0  0  0  0  0  0  0  0  0  0
    3.4837   -6.6689   23.0290 C   0  0  0  0  0  0  0  0  0  0  0  0
    3.6639   -7.4330   22.2939 H   0  0  0  0  0  0  0  0  0  0  0  0
    2.5475   -6.7968   24.0440 C   0  0  0  0  0  0  0  0  0  0  0  0
    1.9767   -7.7190   24.1669 H   0  0  0  0  0  0  0  0  0  0  0  0
    2.3651   -5.7073   24.9076 C   0  0  0  0  0  0  0  0  0  0  0  0
    1.6390   -5.7484   25.7098 H   0  0  0  0  0  0  0  0  0  0  0  0
  1  2  1  0
  2  3  2  0
  3  4  1  0
  4  5  1  0
  5  6  1  0
  5  7  1  0
  7  8  2  0
  8  9  1  0
  9 10  2  0
 10 11  1  0
 11 12  1  0
 12 13  2  0
 13 14  1  0
 13 15  1  0
 15 16  2  0
 16 17  1  0
 16 18  1  0
 18 19  1  0
 18 20  2  0
 20 21  1  0
 11 22  1  0
 22 23  1  0
 22 24  1  0
 22 25  1  0
 25 26  1  0
 25 27  1  0
 10 28  1  0
  4 29  2  0
 29 30  1  0
 29 31  1  0
 31 32  1  0
 31 33  2  0
 33 34  1  0
 33  2  1  0
 28  7  1  0
 25 11  1  0
 20 12  1  0
M  END
>  <plip>  (1) 
-0.03333333333333333

>  <filename>  (1) 
[H][c]1[n][c]([N]([H])[c]2[n][n][c]([C]3([c]4[c]([H])[n][c]([H])[c]([H])[c]4[H])[C]([H])([H])[C]3([H])[H])[s]2)[c]([H])[c]([H])[c]1[H]

$$$$
