
     RDKit          3D

 36 38  0  0  0  0  0  0  0  0999 V2000
    6.4105   -4.7792   28.2543 Cl  0  0  0  0  0  0  0  0  0  0  0  0
    7.3441   -4.4675   26.8264 C   0  0  0  0  0  0  0  0  0  0  0  0
    8.6028   -5.0764   26.7183 C   0  0  0  0  0  0  0  0  0  0  0  0
    9.3200   -4.8533   25.5463 C   0  0  0  0  0  0  0  0  0  0  0  0
    8.7516   -4.0599   24.5404 C   0  0  0  0  0  0  0  0  0  0  0  0
    9.3965   -3.9583   23.1778 C   0  0  0  0  0  0  0  0  0  0  0  0
    8.8738   -2.8270   22.3016 C   0  0  0  0  0  0  0  0  0  0  0  0
    7.3583   -2.8796   22.2743 N   0  0  0  0  0  4  0  0  0  0  0  0
    6.7128   -2.1137   21.1310 C   0  0  0  0  0  0  0  0  0  0  0  0
    7.2565   -0.6841   20.9151 C   0  0  0  0  0  0  0  0  0  0  0  0
    6.5841    0.0815   19.7854 C   0  0  0  0  0  0  0  0  0  0  0  0
    5.3795    0.7655   19.9997 C   0  0  0  0  0  0  0  0  0  0  0  0
    4.7577    1.4250   18.9363 C   0  0  0  0  0  0  0  0  0  0  0  0
    5.3833    1.4083   17.6857 C   0  0  0  0  0  0  0  0  0  0  0  0
    6.5455    0.7808   17.4538 N   0  0  0  0  0  0  0  0  0  0  0  0
    7.1240    0.1526   18.4864 C   0  0  0  0  0  0  0  0  0  0  0  0
    8.0818   -0.3217   18.2697 H   0  0  0  0  0  0  0  0  0  0  0  0
    4.9371    1.9174   16.8337 H   0  0  0  0  0  0  0  0  0  0  0  0
    3.8265    1.9696   19.0700 H   0  0  0  0  0  0  0  0  0  0  0  0
    4.9544    0.8055   21.0042 H   0  0  0  0  0  0  0  0  0  0  0  0
    8.3377   -0.7372   20.7332 H   0  0  0  0  0  0  0  0  0  0  0  0
    7.1274   -0.1307   21.8533 H   0  0  0  0  0  0  0  0  0  0  0  0
    6.8727   -2.6798   20.2021 H   0  0  0  0  0  0  0  0  0  0  0  0
    5.6320   -2.0670   21.3139 H   0  0  0  0  0  0  0  0  0  0  0  0
    6.8171   -2.6203   23.7105 C   0  0  0  0  0  0  0  0  0  0  0  0
    7.4937   -3.4730   24.7816 C   0  0  0  0  0  0  0  0  0  0  0  0
    6.8005   -3.6731   25.9144 N   0  0  0  0  0  0  0  0  0  0  0  0
    5.7447   -2.8246   23.7554 H   0  0  0  0  0  0  0  0  0  0  0  0
    6.9654   -1.5644   23.9528 H   0  0  0  0  0  0  0  0  0  0  0  0
    7.1279   -3.8846   22.1029 H   0  0  0  0  0  0  0  0  0  0  0  0
    9.1878   -1.8537   22.6978 H   0  0  0  0  0  0  0  0  0  0  0  0
    9.2607   -2.9212   21.2785 H   0  0  0  0  0  0  0  0  0  0  0  0
    9.2087   -4.9167   22.6706 H   0  0  0  0  0  0  0  0  0  0  0  0
   10.4761   -3.8325   23.2873 H   0  0  0  0  0  0  0  0  0  0  0  0
   10.3026   -5.3180   25.4064 H   0  0  0  0  0  0  0  0  0  0  0  0
    8.9650   -5.7049   27.5197 H   0  0  0  0  0  0  0  0  0  0  0  0
  1  2  1  0
  2  3  2  0
  3  4  1  0
  4  5  2  0
  5  6  1  0
  6  7  1  0
  7  8  1  0
  8  9  1  0
  9 10  1  0
 10 11  1  0
 11 12  2  0
 12 13  1  0
 13 14  2  0
 14 15  1  0
 15 16  2  0
 16 17  1  0
 14 18  1  0
 13 19  1  0
 12 20  1  0
 10 21  1  0
 10 22  1  0
  9 23  1  0
  9 24  1  0
  8 25  1  0
 25 26  1  0
 26 27  2  0
 25 28  1  0
 25 29  1  0
  8 30  1  0
  7 31  1  0
  7 32  1  0
  6 33  1  0
  6 34  1  0
  4 35  1  0
  3 36  1  0
 27  2  1  0
 26  5  1  0
 16 11  1  0
M  CHG  1   8   1
M  END
>  <plip>  (1) 
-0.034482758620689655

>  <filename>  (1) 
[H][c]1[n][c]([H])[c]([C]([H])([H])[C]([H])([H])[N+]2([H])[C]([H])([H])[c]3[n][c]([Cl])[c]([H])[c]([H])[c]3[C]([H])([H])[C]2([H])[H])[c]([H])[c]1[H]

$$$$
