
     RDKit          3D

 48 50  0  0  0  0  0  0  0  0999 V2000
   10.1890    1.2867   22.5701 C   0  0  0  0  0  0  0  0  0  0  0  0
    9.3973    0.4054   21.7601 O   0  0  0  0  0  0  0  0  0  0  0  0
    8.0734    0.3513   21.9935 C   0  0  0  0  0  0  0  0  0  0  0  0
    7.4944    1.0053   22.8337 O   0  0  0  0  0  0  0  0  0  0  0  0
    7.4010   -0.7030   21.0486 C   0  0  0  0  0  0  0  0  0  0  0  0
    6.5612   -1.6525   21.7942 N   0  0  0  0  0  0  0  0  0  0  0  0
    5.9878   -2.7397   21.1782 C   0  0  0  0  0  0  0  0  0  0  0  0
    6.1779   -3.0075   20.0112 O   0  0  0  0  0  0  0  0  0  0  0  0
    5.1214   -3.6018   22.0903 C   0  0  0  0  0  0  0  0  0  0  0  0
    5.8215   -4.5590   23.0968 C   0  0  0  0  0  0  0  0  0  0  0  0
    4.8041   -5.3076   23.9341 C   0  0  0  0  0  0  0  0  0  0  0  0
    4.2781   -4.7161   25.0956 C   0  0  0  0  0  0  0  0  0  0  0  0
    3.3345   -5.4182   25.8518 C   0  0  0  0  0  0  0  0  0  0  0  0
    2.9175   -6.6784   25.4330 C   0  0  0  0  0  0  0  0  0  0  0  0
    1.8885   -7.5456   26.1487 C   0  0  0  0  0  0  0  0  0  0  0  0
    2.1141   -9.0124   25.7638 C   0  0  0  0  0  0  0  0  0  0  0  0
    2.1914   -9.2272   24.2567 C   0  0  0  0  0  0  0  0  0  0  0  0
    3.2773   -8.4071   23.7605 N   0  0  0  0  0  0  0  0  0  0  0  0
    3.5343   -7.1663   24.2474 C   0  0  0  0  0  0  0  0  0  0  0  0
    4.4236   -6.5047   23.4944 N   0  0  0  0  0  0  0  0  0  0  0  0
    3.6733   -8.4530   22.8313 H   0  0  0  0  0  0  0  0  0  0  0  0
    1.2329   -9.0232   23.7459 H   0  0  0  0  0  0  0  0  0  0  0  0
    2.4491  -10.2779   24.1262 H   0  0  0  0  0  0  0  0  0  0  0  0
    3.1160   -9.2635   26.1132 H   0  0  0  0  0  0  0  0  0  0  0  0
    1.3950   -9.6920   26.2296 H   0  0  0  0  0  0  0  0  0  0  0  0
    0.8630   -7.2200   25.9087 H   0  0  0  0  0  0  0  0  0  0  0  0
    1.9911   -7.4436   27.2378 H   0  0  0  0  0  0  0  0  0  0  0  0
    2.9407   -4.9769   26.7722 H   0  0  0  0  0  0  0  0  0  0  0  0
    4.6148   -3.7262   25.3854 H   0  0  0  0  0  0  0  0  0  0  0  0
    6.4814   -4.0002   23.7723 H   0  0  0  0  0  0  0  0  0  0  0  0
    6.4278   -5.3089   22.5723 H   0  0  0  0  0  0  0  0  0  0  0  0
    4.5027   -4.2116   21.4394 H   0  0  0  0  0  0  0  0  0  0  0  0
    4.4447   -2.9480   22.6436 H   0  0  0  0  0  0  0  0  0  0  0  0
    6.0596   -1.2922   22.5945 H   0  0  0  0  0  0  0  0  0  0  0  0
    6.6240   -0.0321   19.9154 C   0  0  0  0  0  0  0  0  0  0  0  0
    5.4186    0.6406   20.1422 C   0  0  0  0  0  0  0  0  0  0  0  0
    4.8075    1.3022   19.0726 C   0  0  0  0  0  0  0  0  0  0  0  0
    5.4283    1.2739   17.8175 C   0  0  0  0  0  0  0  0  0  0  0  0
    6.5716    0.6206   17.5733 N   0  0  0  0  0  0  0  0  0  0  0  0
    7.1391   -0.0159   18.6094 C   0  0  0  0  0  0  0  0  0  0  0  0
    8.0775   -0.5264   18.3928 H   0  0  0  0  0  0  0  0  0  0  0  0
    4.9827    1.7971   16.9712 H   0  0  0  0  0  0  0  0  0  0  0  0
    3.8797    1.8467   19.1997 H   0  0  0  0  0  0  0  0  0  0  0  0
    4.9640    0.6640   21.1367 H   0  0  0  0  0  0  0  0  0  0  0  0
    8.2266   -1.2691   20.6079 H   0  0  0  0  0  0  0  0  0  0  0  0
   11.2273    1.0691   22.3190 H   0  0  0  0  0  0  0  0  0  0  0  0
    9.9616    2.3298   22.3329 H   0  0  0  0  0  0  0  0  0  0  0  0
   10.0204    1.1011   23.6342 H   0  0  0  0  0  0  0  0  0  0  0  0
  1  2  1  0
  2  3  1  0
  3  4  2  0
  3  5  1  0
  5  6  1  0
  6  7  1  0
  7  8  2  0
  7  9  1  0
  9 10  1  0
 10 11  1  0
 11 12  2  0
 12 13  1  0
 13 14  2  0
 14 15  1  0
 15 16  1  0
 16 17  1  0
 17 18  1  0
 18 19  1  0
 19 20  2  0
 18 21  1  0
 17 22  1  0
 17 23  1  0
 16 24  1  0
 16 25  1  0
 15 26  1  0
 15 27  1  0
 13 28  1  0
 12 29  1  0
 10 30  1  0
 10 31  1  0
  9 32  1  0
  9 33  1  0
  6 34  1  0
  5 35  1  0
 35 36  2  0
 36 37  1  0
 37 38  2  0
 38 39  1  0
 39 40  2  0
 40 41  1  0
 38 42  1  0
 37 43  1  0
 36 44  1  0
  5 45  1  0
  1 46  1  0
  1 47  1  0
  1 48  1  0
 20 11  1  0
 40 35  1  0
 19 14  1  0
M  END
>  <plip>  (1) 
-0.12903225806451613

>  <filename>  (1) 
[H][c]1[n][c]([H])[c]([C]([H])([C](=[O])[O][C]([H])([H])[H])[N]([H])[C](=[O])[C]([H])([H])[C]([H])([H])[c]2[n][c]3[c]([c]([H])[c]2[H])[C]([H])([H])[C]([H])([H])[C]([H])([H])[N]3[H])[c]([H])[c]1[H]

$$$$
