
     RDKit          3D

 41 42  0  0  0  0  0  0  0  0999 V2000
    7.9286    1.3463   22.1243 C   0  0  0  0  0  0  0  0  0  0  0  0
    8.3962    0.1235   21.3613 N   0  0  0  0  0  4  0  0  0  0  0  0
    7.2229   -0.7205   20.9149 C   0  0  0  0  0  0  0  0  0  0  0  0
    6.5514    0.0115   19.8000 C   0  0  0  0  0  0  0  0  0  0  0  0
    5.3440    0.6812   20.0044 C   0  0  0  0  0  0  0  0  0  0  0  0
    4.7944    1.3924   18.9387 C   0  0  0  0  0  0  0  0  0  0  0  0
    5.4801    1.4093   17.7207 C   0  0  0  0  0  0  0  0  0  0  0  0
    6.6545    0.7854   17.5202 N   0  0  0  0  0  0  0  0  0  0  0  0
    7.1833    0.1264   18.5579 C   0  0  0  0  0  0  0  0  0  0  0  0
    8.1475   -0.3586   18.3746 H   0  0  0  0  0  0  0  0  0  0  0  0
    5.0738    1.9430   16.8644 H   0  0  0  0  0  0  0  0  0  0  0  0
    3.8592    1.9324   19.0443 H   0  0  0  0  0  0  0  0  0  0  0  0
    4.8823    0.6656   20.9962 H   0  0  0  0  0  0  0  0  0  0  0  0
    6.5367   -0.8580   21.7572 H   0  0  0  0  0  0  0  0  0  0  0  0
    7.5959   -1.7018   20.5996 H   0  0  0  0  0  0  0  0  0  0  0  0
    9.4317   -0.6739   22.1237 C   0  0  0  0  0  0  0  0  0  0  0  0
    8.9318   -1.3024   23.4355 C   0  0  0  0  0  0  0  0  0  0  0  0
    8.7594   -0.3113   24.6321 C   0  0  0  0  0  0  0  0  0  0  0  0
    9.4529   -0.8113   25.9173 C   0  0  0  0  0  0  0  0  0  0  0  0
    9.1571   -2.3106   26.1208 C   0  0  0  0  0  0  0  0  0  0  0  0
    7.7098   -2.5369   26.5817 C   0  0  0  0  0  0  0  0  0  0  0  0
    7.3924   -3.9106   26.6699 O   0  0  0  0  0  0  0  0  0  0  0  0
    8.0591   -4.3297   27.2287 H   0  0  0  0  0  0  0  0  0  0  0  0
    6.9792   -2.1020   25.8892 H   0  0  0  0  0  0  0  0  0  0  0  0
    7.5604   -2.0308   27.5503 H   0  0  0  0  0  0  0  0  0  0  0  0
    9.5025   -3.1253   24.8331 C   0  0  0  0  0  0  0  0  0  0  0  0
    9.8786   -2.3191   23.7268 O   0  0  0  0  0  0  0  0  0  0  0  0
    8.6471   -3.7683   24.5591 H   0  0  0  0  0  0  0  0  0  0  0  0
   10.3575   -3.7881   25.0152 H   0  0  0  0  0  0  0  0  0  0  0  0
    9.7579   -2.7069   26.9527 H   0  0  0  0  0  0  0  0  0  0  0  0
   10.5378   -0.6484   25.8341 H   0  0  0  0  0  0  0  0  0  0  0  0
    9.1176   -0.2278   26.7870 H   0  0  0  0  0  0  0  0  0  0  0  0
    9.1320    0.6898   24.3794 H   0  0  0  0  0  0  0  0  0  0  0  0
    7.6769   -0.2045   24.8116 H   0  0  0  0  0  0  0  0  0  0  0  0
    7.9683   -1.7948   23.2275 H   0  0  0  0  0  0  0  0  0  0  0  0
   10.2872   -0.0293   22.3455 H   0  0  0  0  0  0  0  0  0  0  0  0
    9.7867   -1.4967   21.4897 H   0  0  0  0  0  0  0  0  0  0  0  0
    8.7941    0.4590   20.4570 H   0  0  0  0  0  0  0  0  0  0  0  0
    7.3698    2.0206   21.4707 H   0  0  0  0  0  0  0  0  0  0  0  0
    8.7819    1.8879   22.5446 H   0  0  0  0  0  0  0  0  0  0  0  0
    7.2693    1.0559   22.9512 H   0  0  0  0  0  0  0  0  0  0  0  0
  1  2  1  0
  2  3  1  0
  3  4  1  0
  4  5  2  0
  5  6  1  0
  6  7  2  0
  7  8  1  0
  8  9  2  0
  9 10  1  0
  7 11  1  0
  6 12  1  0
  5 13  1  0
  3 14  1  0
  3 15  1  0
  2 16  1  0
 16 17  1  0
 17 18  1  0
 18 19  1  0
 19 20  1  0
 20 21  1  0
 21 22  1  0
 22 23  1  0
 21 24  1  0
 21 25  1  0
 20 26  1  0
 26 27  1  0
 26 28  1  0
 26 29  1  0
 20 30  1  0
 19 31  1  0
 19 32  1  0
 18 33  1  0
 18 34  1  0
 17 35  1  0
 16 36  1  0
 16 37  1  0
  2 38  1  0
  1 39  1  0
  1 40  1  0
  1 41  1  0
  9  4  1  0
 27 17  1  0
M  CHG  1   2   1
M  END
>  <plip>  (1) 
-0.06896551724137931

>  <filename>  (1) 
[H][O][C]([H])([H])[C]1([H])[C]([H])([H])[O][C]([H])([C]([H])([H])[N+]([H])([C]([H])([H])[H])[C]([H])([H])[c]2[c]([H])[n][c]([H])[c]([H])[c]2[H])[C]([H])([H])[C]1([H])[H]

$$$$
