
     RDKit          3D

 54 57  0  0  0  0  0  0  0  0999 V2000
    5.6394    0.7354   27.2368 C   0  0  0  0  0  0  0  0  0  0  0  0
    4.7794    0.5974   25.9754 C   0  0  0  0  0  0  0  0  0  0  0  0
    4.5866   -0.8497   25.5640 C   0  0  0  0  0  0  0  0  0  0  0  0
    3.4152   -1.5404   25.9122 C   0  0  0  0  0  0  0  0  0  0  0  0
    3.2257   -2.8709   25.5222 C   0  0  0  0  0  0  0  0  0  0  0  0
    4.1764   -3.5319   24.7356 C   0  0  0  0  0  0  0  0  0  0  0  0
    4.0283   -4.9891   24.3375 C   0  0  0  0  0  0  0  0  0  0  0  0
    5.4141   -5.6245   24.1643 C   0  0  0  0  0  0  0  0  0  0  0  0
    6.2226   -4.8632   23.1219 C   0  0  0  0  0  0  0  0  0  0  0  0
    6.1633   -3.4043   23.3241 N   0  0  0  0  0  0  0  0  0  0  0  0
    7.0775   -2.6875   22.5442 C   0  0  0  0  0  0  0  0  0  0  0  0
    8.2203   -3.0820   22.3557 O   0  0  0  0  0  0  0  0  0  0  0  0
    6.5790   -1.5761   21.9361 N   0  0  0  0  0  0  0  0  0  0  0  0
    7.4174   -0.7675   21.0705 C   0  0  0  0  0  0  0  0  0  0  0  0
    6.6115   -0.0754   19.9948 C   0  0  0  0  0  0  0  0  0  0  0  0
    5.4080    0.6098   20.2090 C   0  0  0  0  0  0  0  0  0  0  0  0
    4.8144    1.2929   19.1413 C   0  0  0  0  0  0  0  0  0  0  0  0
    5.4418    1.2765   17.8908 C   0  0  0  0  0  0  0  0  0  0  0  0
    6.5893    0.6241   17.6564 N   0  0  0  0  0  0  0  0  0  0  0  0
    7.1407   -0.0194   18.6946 C   0  0  0  0  0  0  0  0  0  0  0  0
    8.0802   -0.5314   18.4758 H   0  0  0  0  0  0  0  0  0  0  0  0
    5.0068    1.8060   17.0446 H   0  0  0  0  0  0  0  0  0  0  0  0
    3.8878    1.8428   19.2645 H   0  0  0  0  0  0  0  0  0  0  0  0
    4.9386    0.6429   21.1978 H   0  0  0  0  0  0  0  0  0  0  0  0
    8.2961    0.1634   21.9590 C   0  0  0  0  0  0  0  0  0  0  0  0
    7.5001    1.2099   22.7652 C   0  0  0  0  0  0  0  0  0  0  0  0
    7.6090    2.4900   21.9026 C   0  0  0  0  0  0  0  0  0  0  0  0
    8.3799    2.1442   20.7623 O   0  0  0  0  0  0  0  0  0  0  0  0
    9.2089    1.0679   21.1365 C   0  0  0  0  0  0  0  0  0  0  0  0
   10.0644    1.4096   21.7440 H   0  0  0  0  0  0  0  0  0  0  0  0
    9.5930    0.5993   20.2275 H   0  0  0  0  0  0  0  0  0  0  0  0
    8.0987    3.3016   22.4633 H   0  0  0  0  0  0  0  0  0  0  0  0
    6.6373    2.8448   21.5445 H   0  0  0  0  0  0  0  0  0  0  0  0
    7.9473    1.3596   23.7547 H   0  0  0  0  0  0  0  0  0  0  0  0
    6.4592    0.9055   22.9320 H   0  0  0  0  0  0  0  0  0  0  0  0
    8.8685   -0.5107   22.5992 H   0  0  0  0  0  0  0  0  0  0  0  0
    8.1277   -1.4373   20.5611 H   0  0  0  0  0  0  0  0  0  0  0  0
    5.5793   -1.4602   21.9614 H   0  0  0  0  0  0  0  0  0  0  0  0
    5.3153   -2.8116   24.2982 C   0  0  0  0  0  0  0  0  0  0  0  0
    5.5707   -1.5298   24.8301 C   0  0  0  0  0  0  0  0  0  0  0  0
    6.5084   -1.0359   24.5937 H   0  0  0  0  0  0  0  0  0  0  0  0
    5.8516   -5.1044   22.1128 H   0  0  0  0  0  0  0  0  0  0  0  0
    7.2749   -5.1681   23.1467 H   0  0  0  0  0  0  0  0  0  0  0  0
    5.9500   -5.6023   25.1226 H   0  0  0  0  0  0  0  0  0  0  0  0
    5.3429   -6.6745   23.8618 H   0  0  0  0  0  0  0  0  0  0  0  0
    3.4490   -5.5380   25.0902 H   0  0  0  0  0  0  0  0  0  0  0  0
    3.4604   -5.0546   23.3954 H   0  0  0  0  0  0  0  0  0  0  0  0
    2.3338   -3.4046   25.8506 H   0  0  0  0  0  0  0  0  0  0  0  0
    2.6491   -1.0335   26.4954 H   0  0  0  0  0  0  0  0  0  0  0  0
    3.7981    1.0631   26.1393 H   0  0  0  0  0  0  0  0  0  0  0  0
    5.2411    1.1561   25.1478 H   0  0  0  0  0  0  0  0  0  0  0  0
    5.1720    0.2165   28.0802 H   0  0  0  0  0  0  0  0  0  0  0  0
    5.7786    1.7832   27.5203 H   0  0  0  0  0  0  0  0  0  0  0  0
    6.6288    0.2912   27.0777 H   0  0  0  0  0  0  0  0  0  0  0  0
  1  2  1  0
  2  3  1  0
  3  4  2  0
  4  5  1  0
  5  6  2  0
  6  7  1  0
  7  8  1  0
  8  9  1  0
  9 10  1  0
 10 11  1  0
 11 12  2  0
 11 13  1  0
 13 14  1  0
 14 15  1  0
 15 16  2  0
 16 17  1  0
 17 18  2  0
 18 19  1  0
 19 20  2  0
 20 21  1  0
 18 22  1  0
 17 23  1  0
 16 24  1  0
 14 25  1  0
 25 26  1  0
 26 27  1  0
 27 28  1  0
 28 29  1  0
 29 30  1  0
 29 31  1  0
 27 32  1  0
 27 33  1  0
 26 34  1  0
 26 35  1  0
 25 36  1  0
 14 37  1  0
 13 38  1  0
 10 39  1  0
 39 40  2  0
 40 41  1  0
  9 42  1  0
  9 43  1  0
  8 44  1  0
  8 45  1  0
  7 46  1  0
  7 47  1  0
  5 48  1  0
  4 49  1  0
  2 50  1  0
  2 51  1  0
  1 52  1  0
  1 53  1  0
  1 54  1  0
 40  3  1  0
 39  6  1  0
 20 15  1  0
 29 25  1  0
M  END
>  <plip>  (1) 
-0.1

>  <filename>  (1) 
[H][c]1[n][c]([H])[c]([C]([H])([N]([H])[C](=[O])[N]2[c]3[c]([H])[c]([C]([H])([H])[C]([H])([H])[H])[c]([H])[c]([H])[c]3[C]([H])([H])[C]([H])([H])[C]2([H])[H])[C]2([H])[C]([H])([H])[O][C]([H])([H])[C]2([H])[H])[c]([H])[c]1[H]

$$$$
