
     RDKit          3D

 28 29  0  0  0  0  0  0  0  0999 V2000
    7.7144   -2.0517   21.0158 O   0  0  0  0  0  0  0  0  0  0  0  0
    7.6765   -0.5996   21.1737 S   0  0  0  0  0  0  0  0  0  0  0  0
    7.4952   -0.1222   22.5480 O   0  0  0  0  0  0  0  0  0  0  0  0
    9.1520   -0.1248   20.6135 N   0  0  0  0  0  0  0  0  0  0  0  0
    9.4194    1.0781   21.1234 C   0  0  0  0  0  0  0  0  0  0  0  0
   10.7337    1.3012   21.4659 C   0  0  0  0  0  0  0  0  0  0  0  0
   11.0793    2.4708   22.1349 C   0  0  0  0  0  0  0  0  0  0  0  0
   10.0696    3.4001   22.3740 C   0  0  0  0  0  0  0  0  0  0  0  0
   10.5475    5.0609   23.2119 Br  0  0  0  0  0  0  0  0  0  0  0  0
    8.7451    3.1451   21.9384 C   0  0  0  0  0  0  0  0  0  0  0  0
    7.6904    4.2523   22.1963 C   0  0  0  0  0  0  0  0  0  0  0  0
    6.4307    3.8877   21.8263 F   0  0  0  0  0  0  0  0  0  0  0  0
    8.0160    5.4016   21.5330 F   0  0  0  0  0  0  0  0  0  0  0  0
    7.6450    4.5448   23.5287 F   0  0  0  0  0  0  0  0  0  0  0  0
    8.4433    1.9576   21.3291 N   0  0  0  0  0  0  0  0  0  0  0  0
   12.0999    2.6727   22.4639 H   0  0  0  0  0  0  0  0  0  0  0  0
   11.4516    0.5257   21.2439 H   0  0  0  0  0  0  0  0  0  0  0  0
    9.8313   -0.8115   20.8688 H   0  0  0  0  0  0  0  0  0  0  0  0
    6.6728    0.1830   19.9656 C   0  0  0  0  0  0  0  0  0  0  0  0
    5.4528    0.8164   20.1922 C   0  0  0  0  0  0  0  0  0  0  0  0
    4.8596    1.3664   19.0677 C   0  0  0  0  0  0  0  0  0  0  0  0
    5.4890    1.2730   17.8255 C   0  0  0  0  0  0  0  0  0  0  0  0
    6.6694    0.6565   17.6557 N   0  0  0  0  0  0  0  0  0  0  0  0
    7.2528    0.1201   18.7200 C   0  0  0  0  0  0  0  0  0  0  0  0
    8.2181   -0.3613   18.5757 H   0  0  0  0  0  0  0  0  0  0  0  0
    5.0017    1.7157   16.9614 H   0  0  0  0  0  0  0  0  0  0  0  0
    3.9138    1.8886   19.1386 H   0  0  0  0  0  0  0  0  0  0  0  0
    4.9707    0.9058   21.1687 H   0  0  0  0  0  0  0  0  0  0  0  0
  1  2  2  0
  2  3  2  0
  2  4  1  0
  4  5  1  0
  5  6  2  0
  6  7  1  0
  7  8  2  0
  8  9  1  0
  8 10  1  0
 10 11  1  0
 11 12  1  0
 11 13  1  0
 11 14  1  0
 10 15  2  0
  7 16  1  0
  6 17  1  0
  4 18  1  0
  2 19  1  0
 19 20  2  0
 20 21  1  0
 21 22  2  0
 22 23  1  0
 23 24  2  0
 24 25  1  0
 22 26  1  0
 21 27  1  0
 20 28  1  0
 15  5  1  0
 24 19  1  0
M  END
>  <plip>  (1) 
-0.0967741935483871

>  <filename>  (1) 
[H][c]1[n][c]([H])[c]([S](=[O])(=[O])[N]([H])[c]2[n][c]([C]([F])([F])[F])[c]([Br])[c]([H])[c]2[H])[c]([H])[c]1[H]

$$$$
