
     RDKit          3D

 51 54  0  0  0  0  0  0  0  0999 V2000
    6.3054   -4.9999   20.8258 C   0  0  0  0  0  0  0  0  0  0  0  0
    6.3381   -4.1615   22.0631 C   0  0  0  0  0  0  0  0  0  0  0  0
    5.3657   -4.2340   22.9554 N   0  0  0  0  0  0  0  0  0  0  0  0
    5.7448   -3.4303   23.9743 N   0  0  0  0  0  0  0  0  0  0  0  0
    4.9733   -3.3453   25.1649 C   0  0  0  0  0  0  0  0  0  0  0  0
    4.4834   -4.5184   25.7718 C   0  0  0  0  0  0  0  0  0  0  0  0
    3.7029   -4.4461   26.9268 C   0  0  0  0  0  0  0  0  0  0  0  0
    3.3535   -3.1976   27.4540 C   0  0  0  0  0  0  0  0  0  0  0  0
    3.8472   -2.0301   26.8745 C   0  0  0  0  0  0  0  0  0  0  0  0
    4.6856   -2.1022   25.7610 C   0  0  0  0  0  0  0  0  0  0  0  0
    5.3837   -0.6017   25.2027 Cl  0  0  0  0  0  0  0  0  0  0  0  0
    3.6023   -1.0511   27.2761 H   0  0  0  0  0  0  0  0  0  0  0  0
    2.6769   -3.1403   28.3011 H   0  0  0  0  0  0  0  0  0  0  0  0
    3.3483   -5.3595   27.3972 H   0  0  0  0  0  0  0  0  0  0  0  0
    4.7141   -5.4796   25.3182 H   0  0  0  0  0  0  0  0  0  0  0  0
    6.9681   -2.8754   23.7400 C   0  0  0  0  0  0  0  0  0  0  0  0
    7.3724   -3.3013   22.4984 C   0  0  0  0  0  0  0  0  0  0  0  0
    8.5262   -2.8521   21.6662 C   0  0  0  0  0  0  0  0  0  0  0  0
    8.0064   -1.9281   20.6389 N   0  0  0  0  0  4  0  0  0  0  0  0
    7.3635   -0.6302   21.1282 C   0  0  0  0  0  0  0  0  0  0  0  0
    6.6592   -0.0329   19.9330 C   0  0  0  0  0  0  0  0  0  0  0  0
    5.4606    0.6744   20.1363 C   0  0  0  0  0  0  0  0  0  0  0  0
    4.8508    1.3079   19.0548 C   0  0  0  0  0  0  0  0  0  0  0  0
    5.4620    1.2360   17.7969 C   0  0  0  0  0  0  0  0  0  0  0  0
    6.5828    0.5412   17.5725 N   0  0  0  0  0  0  0  0  0  0  0  0
    7.1488   -0.0842   18.6149 C   0  0  0  0  0  0  0  0  0  0  0  0
    8.0567   -0.6284   18.3578 H   0  0  0  0  0  0  0  0  0  0  0  0
    5.0300    1.7529   16.9406 H   0  0  0  0  0  0  0  0  0  0  0  0
    3.9235    1.8554   19.1638 H   0  0  0  0  0  0  0  0  0  0  0  0
    5.0200    0.7377   21.1367 H   0  0  0  0  0  0  0  0  0  0  0  0
    8.3609    0.2750   21.9105 C   0  0  0  0  0  0  0  0  0  0  0  0
    9.5837    0.7724   21.1219 C   0  0  0  0  0  0  0  0  0  0  0  0
    9.8504    2.1423   21.7464 C   0  0  0  0  0  0  0  0  0  0  0  0
    8.4315    2.6033   22.0906 C   0  0  0  0  0  0  0  0  0  0  0  0
    7.7040    1.4249   22.4367 O   0  0  0  0  0  0  0  0  0  0  0  0
    7.9489    3.0875   21.2319 H   0  0  0  0  0  0  0  0  0  0  0  0
    8.3967    3.3029   22.9336 H   0  0  0  0  0  0  0  0  0  0  0  0
   10.4597    2.0676   22.6560 H   0  0  0  0  0  0  0  0  0  0  0  0
   10.3645    2.8210   21.0596 H   0  0  0  0  0  0  0  0  0  0  0  0
   10.4257    0.0707   21.1803 H   0  0  0  0  0  0  0  0  0  0  0  0
    9.3186    0.8807   20.0632 H   0  0  0  0  0  0  0  0  0  0  0  0
    8.6880   -0.3354   22.7600 H   0  0  0  0  0  0  0  0  0  0  0  0
    6.5952   -0.8764   21.8705 H   0  0  0  0  0  0  0  0  0  0  0  0
    8.7128   -1.6742   19.9266 H   0  0  0  0  0  0  0  0  0  0  0  0
    7.2116   -2.4364   20.1844 H   0  0  0  0  0  0  0  0  0  0  0  0
    9.0261   -3.7095   21.2048 H   0  0  0  0  0  0  0  0  0  0  0  0
    9.2726   -2.3608   22.3035 H   0  0  0  0  0  0  0  0  0  0  0  0
    7.4273   -2.2224   24.4747 H   0  0  0  0  0  0  0  0  0  0  0  0
    7.3172   -5.3289   20.5634 H   0  0  0  0  0  0  0  0  0  0  0  0
    5.6752   -5.8791   20.9965 H   0  0  0  0  0  0  0  0  0  0  0  0
    5.9035   -4.4404   19.9722 H   0  0  0  0  0  0  0  0  0  0  0  0
  1  2  1  0
  2  3  2  0
  3  4  1  0
  4  5  1  0
  5  6  2  0
  6  7  1  0
  7  8  2  0
  8  9  1  0
  9 10  2  0
 10 11  1  0
  9 12  1  0
  8 13  1  0
  7 14  1  0
  6 15  1  0
  4 16  1  0
 16 17  2  0
 17 18  1  0
 18 19  1  0
 19 20  1  0
 20 21  1  0
 21 22  2  0
 22 23  1  0
 23 24  2  0
 24 25  1  0
 25 26  2  0
 26 27  1  0
 24 28  1  0
 23 29  1  0
 22 30  1  0
 20 31  1  0
 31 32  1  0
 32 33  1  0
 33 34  1  0
 34 35  1  0
 34 36  1  0
 34 37  1  0
 33 38  1  0
 33 39  1  0
 32 40  1  0
 32 41  1  0
 31 42  1  0
 20 43  1  0
 19 44  1  0
 19 45  1  0
 18 46  1  0
 18 47  1  0
 16 48  1  0
  1 49  1  0
  1 50  1  0
  1 51  1  0
 17  2  1  0
 26 21  1  0
 35 31  1  0
 10  5  1  0
M  CHG  1  19   1
M  END
>  <plip>  (1) 
-0.1

>  <filename>  (1) 
[H][c]1[n][c]([H])[c]([C]([H])([C]2([H])[O][C]([H])([H])[C]([H])([H])[C]2([H])[H])[N+]([H])([H])[C]([H])([H])[c]2[c]([C]([H])([H])[H])[n][n](-[c]3[c]([H])[c]([H])[c]([H])[c]([H])[c]3[Cl])[c]2[H])[c]([H])[c]1[H]

$$$$
