
     RDKit          3D

 44 46  0  0  0  0  0  0  0  0999 V2000
    6.6530   -4.6549   20.9093 C   0  0  0  0  0  0  0  0  0  0  0  0
    7.3014   -3.3711   20.8991 O   0  0  0  0  0  0  0  0  0  0  0  0
    6.5668   -2.2939   21.2504 C   0  0  0  0  0  0  0  0  0  0  0  0
    5.4402   -2.3855   21.6707 O   0  0  0  0  0  0  0  0  0  0  0  0
    7.3426   -0.9770   20.9115 C   0  0  2  0  0  0  0  0  0  0  0  0
    7.4359   -0.1309   22.0892 O   0  0  0  0  0  0  0  0  0  0  0  0
    8.1365    1.0323   21.9465 C   0  0  0  0  0  0  0  0  0  0  0  0
    8.8614    1.2686   21.0147 O   0  0  0  0  0  0  0  0  0  0  0  0
    7.8620    1.9923   23.0844 C   0  0  0  0  0  0  0  0  0  0  0  0
    8.7250    1.4206   24.5975 S   0  0  0  0  0  0  0  0  0  0  0  0
    8.2318    2.6132   25.8269 C   0  0  0  0  0  0  0  0  0  0  0  0
    7.3481    2.1956   26.8403 C   0  0  0  0  0  0  0  0  0  0  0  0
    7.0301    3.0534   27.9022 C   0  0  0  0  0  0  0  0  0  0  0  0
    7.5426    4.3517   27.9152 C   0  0  0  0  0  0  0  0  0  0  0  0
    7.2723    5.4730   28.8941 C   0  0  0  0  0  0  0  0  0  0  0  0
    8.3570    6.5258   28.5661 C   0  0  0  0  0  0  0  0  0  0  0  0
    8.8586    6.1977   27.1370 C   0  0  0  0  0  0  0  0  0  0  0  0
    8.4225    4.7701   26.9050 C   0  0  0  0  0  0  0  0  0  0  0  0
    8.7920    3.9027   25.8716 C   0  0  0  0  0  0  0  0  0  0  0  0
    9.4963    4.2184   25.0999 H   0  0  0  0  0  0  0  0  0  0  0  0
    9.9417    6.3330   27.0298 H   0  0  0  0  0  0  0  0  0  0  0  0
    8.3847    6.8467   26.3914 H   0  0  0  0  0  0  0  0  0  0  0  0
    9.1796    6.4338   29.2827 H   0  0  0  0  0  0  0  0  0  0  0  0
    7.9755    7.5492   28.6463 H   0  0  0  0  0  0  0  0  0  0  0  0
    7.3076    5.1398   29.9376 H   0  0  0  0  0  0  0  0  0  0  0  0
    6.2626    5.8681   28.7220 H   0  0  0  0  0  0  0  0  0  0  0  0
    6.3883    2.7083   28.7112 H   0  0  0  0  0  0  0  0  0  0  0  0
    6.9157    1.1973   26.7881 H   0  0  0  0  0  0  0  0  0  0  0  0
    6.7857    2.0536   23.2553 H   0  0  0  0  0  0  0  0  0  0  0  0
    8.2455    2.9654   22.7758 H   0  0  0  0  0  0  0  0  0  0  0  0
    6.6612   -0.1934   19.7966 C   0  0  0  0  0  0  0  0  0  0  0  0
    5.4502    0.4652   20.0405 C   0  0  0  0  0  0  0  0  0  0  0  0
    4.8949    1.2424   19.0251 C   0  0  0  0  0  0  0  0  0  0  0  0
    5.5560    1.3141   17.7954 C   0  0  0  0  0  0  0  0  0  0  0  0
    6.7052    0.6750   17.5368 N   0  0  0  0  0  0  0  0  0  0  0  0
    7.2407   -0.0478   18.5318 C   0  0  0  0  0  0  0  0  0  0  0  0
    8.1838   -0.5479   18.3048 H   0  0  0  0  0  0  0  0  0  0  0  0
    5.1403    1.9073   16.9807 H   0  0  0  0  0  0  0  0  0  0  0  0
    3.9812    1.8023   19.1810 H   0  0  0  0  0  0  0  0  0  0  0  0
    4.9655    0.3719   21.0133 H   0  0  0  0  0  0  0  0  0  0  0  0
    8.3502   -1.2794   20.6093 H   0  0  0  0  0  0  0  0  0  0  0  0
    6.5359   -5.0217   21.9338 H   0  0  0  0  0  0  0  0  0  0  0  0
    5.6689   -4.6064   20.4305 H   0  0  0  0  0  0  0  0  0  0  0  0
    7.3097   -5.3172   20.3455 H   0  0  0  0  0  0  0  0  0  0  0  0
  1  2  1  0
  2  3  1  0
  3  4  2  0
  3  5  1  0
  5  6  1  0
  6  7  1  0
  7  8  2  0
  7  9  1  0
  9 10  1  0
 10 11  1  0
 11 12  2  0
 12 13  1  0
 13 14  2  0
 14 15  1  0
 15 16  1  0
 16 17  1  0
 17 18  1  0
 18 19  2  0
 19 20  1  0
 17 21  1  0
 17 22  1  0
 16 23  1  0
 16 24  1  0
 15 25  1  0
 15 26  1  0
 13 27  1  0
 12 28  1  0
  9 29  1  0
  9 30  1  0
  5 31  1  0
 31 32  2  0
 32 33  1  0
 33 34  2  0
 34 35  1  0
 35 36  2  0
 36 37  1  0
 34 38  1  0
 33 39  1  0
 32 40  1  0
  5 41  1  6
  1 42  1  0
  1 43  1  0
  1 44  1  0
 19 11  1  0
 36 31  1  0
 18 14  1  0
M  END
>  <plip>  (1) 
-0.14285714285714285

>  <filename>  (1) 
[H][c]1[n][c]([H])[c]([C@@]([H])([O][C](=[O])[C]([H])([H])[S][c]2[c]([H])[c]([H])[c]3[c]([c]2[H])[C]([H])([H])[C]([H])([H])[C]3([H])[H])[C](=[O])[O][C]([H])([H])[H])[c]([H])[c]1[H]

$$$$
