
     RDKit          3D

 41 42  0  0  0  0  0  0  0  0999 V2000
    7.8663    1.3351   22.4063 C   0  0  0  0  0  0  0  0  0  0  0  0
    8.4538    0.2087   21.5836 N   0  0  0  0  0  4  0  0  0  0  0  0
    9.5065   -0.4753   22.4026 C   0  0  0  0  0  0  0  0  0  0  0  0
    9.9077   -1.3476   21.8761 H   0  0  0  0  0  0  0  0  0  0  0  0
   10.3395    0.2023   22.6280 H   0  0  0  0  0  0  0  0  0  0  0  0
    9.0733   -0.8189   23.3496 H   0  0  0  0  0  0  0  0  0  0  0  0
    7.4063   -0.7846   20.9724 C   0  0  0  0  0  0  0  0  0  0  0  0
    6.5423   -1.5282   21.9957 C   0  0  0  0  0  0  0  0  0  0  0  0
    7.2918   -2.5830   22.7087 N   0  0  0  0  0  0  0  0  0  0  0  0
    6.7046   -3.0974   23.8739 C   0  0  0  0  0  0  0  0  0  0  0  0
    6.3153   -4.4583   23.9363 C   0  0  0  0  0  0  0  0  0  0  0  0
    6.4681   -5.3007   22.6910 C   0  0  0  0  0  0  0  0  0  0  0  0
    5.8997   -4.7286   21.6011 F   0  0  0  0  0  0  0  0  0  0  0  0
    7.7746   -5.4825   22.3610 F   0  0  0  0  0  0  0  0  0  0  0  0
    5.9317   -6.5246   22.7916 F   0  0  0  0  0  0  0  0  0  0  0  0
    5.8167   -4.9991   25.1298 C   0  0  0  0  0  0  0  0  0  0  0  0
    5.6773   -4.1978   26.2608 C   0  0  0  0  0  0  0  0  0  0  0  0
    6.0267   -2.8467   26.2174 C   0  0  0  0  0  0  0  0  0  0  0  0
    6.5244   -2.3162   25.0333 C   0  0  0  0  0  0  0  0  0  0  0  0
    6.8797   -1.0108   25.0202 F   0  0  0  0  0  0  0  0  0  0  0  0
    5.9225   -2.1964   27.0792 H   0  0  0  0  0  0  0  0  0  0  0  0
    5.2913   -4.6317   27.1769 H   0  0  0  0  0  0  0  0  0  0  0  0
    5.5331   -6.0496   25.1750 H   0  0  0  0  0  0  0  0  0  0  0  0
    7.6130   -3.3279   22.1048 H   0  0  0  0  0  0  0  0  0  0  0  0
    6.1710   -0.8035   22.7242 H   0  0  0  0  0  0  0  0  0  0  0  0
    5.6664   -1.9325   21.4692 H   0  0  0  0  0  0  0  0  0  0  0  0
    6.6453   -0.0201   19.9064 C   0  0  0  0  0  0  0  0  0  0  0  0
    5.4296    0.6437   20.1374 C   0  0  0  0  0  0  0  0  0  0  0  0
    4.8100    1.3130   19.0786 C   0  0  0  0  0  0  0  0  0  0  0  0
    5.4326    1.3082   17.8281 C   0  0  0  0  0  0  0  0  0  0  0  0
    6.6044    0.6992   17.5904 N   0  0  0  0  0  0  0  0  0  0  0  0
    7.1935    0.0749   18.6157 C   0  0  0  0  0  0  0  0  0  0  0  0
    8.1504   -0.3979   18.3863 H   0  0  0  0  0  0  0  0  0  0  0  0
    4.9622    1.8108   16.9841 H   0  0  0  0  0  0  0  0  0  0  0  0
    3.8729    1.8449   19.2159 H   0  0  0  0  0  0  0  0  0  0  0  0
    4.9846    0.6636   21.1353 H   0  0  0  0  0  0  0  0  0  0  0  0
    8.0264   -1.5474   20.4853 H   0  0  0  0  0  0  0  0  0  0  0  0
    8.8613    0.6345   20.7206 H   0  0  0  0  0  0  0  0  0  0  0  0
    7.3822    0.9420   23.3081 H   0  0  0  0  0  0  0  0  0  0  0  0
    7.1375    1.9031   21.8224 H   0  0  0  0  0  0  0  0  0  0  0  0
    8.6580    2.0259   22.7229 H   0  0  0  0  0  0  0  0  0  0  0  0
  1  2  1  0
  2  3  1  0
  3  4  1  0
  3  5  1  0
  3  6  1  0
  2  7  1  0
  7  8  1  0
  8  9  1  0
  9 10  1  0
 10 11  2  0
 11 12  1  0
 12 13  1  0
 12 14  1  0
 12 15  1  0
 11 16  1  0
 16 17  2  0
 17 18  1  0
 18 19  2  0
 19 20  1  0
 18 21  1  0
 17 22  1  0
 16 23  1  0
  9 24  1  0
  8 25  1  0
  8 26  1  0
  7 27  1  0
 27 28  2  0
 28 29  1  0
 29 30  2  0
 30 31  1  0
 31 32  2  0
 32 33  1  0
 30 34  1  0
 29 35  1  0
 28 36  1  0
  7 37  1  0
  2 38  1  0
  1 39  1  0
  1 40  1  0
  1 41  1  0
 19 10  1  0
 32 27  1  0
M  CHG  1   2   1
M  END
>  <plip>  (1) 
-0.06896551724137931

>  <filename>  (1) 
[H][c]1[n][c]([H])[c]([C]([H])([C]([H])([H])[N]([H])[c]2[c]([F])[c]([H])[c]([H])[c]([H])[c]2[C]([F])([F])[F])[N+]([H])([C]([H])([H])[H])[C]([H])([H])[H])[c]([H])[c]1[H]

$$$$
