
     RDKit          3D

 30 32  0  0  0  0  0  0  0  0999 V2000
    9.5996    0.0510   27.3879 H   0  0  0  0  0  0  0  0  0  0  0  0
    9.3716    0.6969   26.7080 O   0  0  0  0  0  0  0  0  0  0  0  0
    8.5742    0.0992   25.7109 C   0  0  2  0  0  0  0  0  0  0  0  0
    9.0874   -0.7425   25.2276 H   0  0  0  0  0  0  0  0  0  0  0  0
    8.2819    1.1550   24.6417 C   0  0  0  0  0  0  0  0  0  0  0  0
    9.0369    1.1509   23.8461 H   0  0  0  0  0  0  0  0  0  0  0  0
    8.3212    2.1479   25.1153 H   0  0  0  0  0  0  0  0  0  0  0  0
    6.9119    0.8726   24.1624 N   0  0  0  0  0  0  0  0  0  0  0  0
    6.7798    0.6407   22.8007 O   0  0  0  0  0  0  0  0  0  0  0  0
    7.4573   -0.4091   22.3043 C   0  0  0  0  0  0  0  0  0  0  0  0
    8.2143   -1.2972   22.8879 N   0  0  0  0  0  0  0  0  0  0  0  0
    8.6058   -2.1155   21.8728 N   0  0  0  0  0  0  0  0  0  0  0  0
    8.1283   -1.7420   20.7498 N   0  0  0  0  0  0  0  0  0  0  0  0
    7.3707   -0.6279   20.9801 N   0  0  0  0  0  0  0  0  0  0  0  0
    6.6550    0.0373   19.9247 C   0  0  0  0  0  0  0  0  0  0  0  0
    7.1711    0.0524   18.6124 C   0  0  0  0  0  0  0  0  0  0  0  0
    8.1120   -0.4392   18.3784 H   0  0  0  0  0  0  0  0  0  0  0  0
    6.5630    0.6599   17.5927 N   0  0  0  0  0  0  0  0  0  0  0  0
    5.3981    1.2828   17.8356 C   0  0  0  0  0  0  0  0  0  0  0  0
    4.9415    1.7885   16.9850 H   0  0  0  0  0  0  0  0  0  0  0  0
    4.7949    1.2985   19.0928 C   0  0  0  0  0  0  0  0  0  0  0  0
    3.8668    1.8367   19.2343 H   0  0  0  0  0  0  0  0  0  0  0  0
    5.4262    0.6670   20.1765 C   0  0  0  0  0  0  0  0  0  0  0  0
    5.0045    0.6736   21.1818 H   0  0  0  0  0  0  0  0  0  0  0  0
    6.2441   -0.1493   25.0009 C   0  0  0  0  0  0  0  0  0  0  0  0
    6.0905   -1.0872   24.4424 H   0  0  0  0  0  0  0  0  0  0  0  0
    5.2420    0.2000   25.2988 H   0  0  0  0  0  0  0  0  0  0  0  0
    7.1876   -0.3317   26.2045 C   0  0  0  0  0  0  0  0  0  0  0  0
    6.8932    0.3141   27.0385 H   0  0  0  0  0  0  0  0  0  0  0  0
    7.1934   -1.3588   26.5730 H   0  0  0  0  0  0  0  0  0  0  0  0
  1  2  1  0
  2  3  1  0
  3  4  1  6
  3  5  1  0
  5  6  1  0
  5  7  1  0
  5  8  1  0
  8  9  1  0
  9 10  1  0
 10 11  2  0
 11 12  1  0
 12 13  2  0
 13 14  1  0
 14 15  1  0
 15 16  2  0
 16 17  1  0
 16 18  1  0
 18 19  2  0
 19 20  1  0
 19 21  1  0
 21 22  1  0
 21 23  2  0
 23 24  1  0
  8 25  1  0
 25 26  1  0
 25 27  1  0
 25 28  1  0
 28 29  1  0
 28 30  1  0
 28  3  1  0
 14 10  1  0
 23 15  1  0
M  END
>  <plip>  (1) 
-0.0

>  <filename>  (1) 
[H][O][C@]1([H])[C]([H])([H])[N]([O][c]2[n][n][n][n]2-[c]2[c]([H])[n][c]([H])[c]([H])[c]2[H])[C]([H])([H])[C]1([H])[H]

$$$$
