
     RDKit          3D

 33 35  0  0  0  0  0  0  0  0999 V2000
    4.9758    1.8024   16.9318 H   0  0  0  0  0  0  0  0  0  0  0  0
    5.4066    1.3145   17.8025 C   0  0  0  0  0  0  0  0  0  0  0  0
    6.5800    0.6936   17.6030 N   0  0  0  0  0  0  0  0  0  0  0  0
    7.1542    0.0982   18.6547 C   0  0  0  0  0  0  0  0  0  0  0  0
    8.1248   -0.3681   18.4936 H   0  0  0  0  0  0  0  0  0  0  0  0
    6.5696    0.0708   19.9324 C   0  0  0  0  0  0  0  0  0  0  0  0
    7.1903   -0.6192   21.0257 N   0  0  0  0  0  0  0  0  0  0  0  0
    7.5019    0.1977   22.0666 N   0  0  0  0  0  0  0  0  0  0  0  0
    8.2602   -0.2966   22.9932 C   0  0  0  0  0  0  0  0  0  0  0  0
    8.5534    0.7494   24.4591 S   0  0  0  0  0  0  0  0  0  0  0  0
    8.0150    2.0802   24.2227 O   0  0  0  0  0  0  0  0  0  0  0  0
    9.9415    0.5371   24.8647 O   0  0  0  0  0  0  0  0  0  0  0  0
    7.5165   -0.0656   25.7013 C   0  0  0  0  0  0  0  0  0  0  0  0
    6.1848    0.3252   25.9013 C   0  0  0  0  0  0  0  0  0  0  0  0
    5.7427    1.1511   25.3421 H   0  0  0  0  0  0  0  0  0  0  0  0
    5.4161   -0.3746   26.8349 C   0  0  0  0  0  0  0  0  0  0  0  0
    4.3940   -0.0655   27.0245 H   0  0  0  0  0  0  0  0  0  0  0  0
    5.9417   -1.4783   27.5137 C   0  0  0  0  0  0  0  0  0  0  0  0
    5.3267   -2.0242   28.2252 H   0  0  0  0  0  0  0  0  0  0  0  0
    7.2633   -1.8676   27.2726 C   0  0  0  0  0  0  0  0  0  0  0  0
    7.6764   -2.7466   27.7505 H   0  0  0  0  0  0  0  0  0  0  0  0
    8.0715   -1.1466   26.3995 C   0  0  0  0  0  0  0  0  0  0  0  0
    9.1211   -1.4215   26.2841 H   0  0  0  0  0  0  0  0  0  0  0  0
    8.7576   -1.6491   22.9897 C   0  0  0  0  0  0  0  0  0  0  0  0
    9.5448   -1.9546   23.6788 H   0  0  0  0  0  0  0  0  0  0  0  0
    8.2026   -2.5173   22.1044 C   0  0  0  0  0  0  0  0  0  0  0  0
    8.3712   -3.5861   22.1119 H   0  0  0  0  0  0  0  0  0  0  0  0
    7.2392   -2.0621   21.0997 C   0  0  0  0  0  0  0  0  0  0  0  0
    6.5650   -2.7789   20.3903 O   0  0  0  0  0  0  0  0  0  0  0  0
    5.3861    0.7795   20.1491 C   0  0  0  0  0  0  0  0  0  0  0  0
    5.0009    0.8752   21.1665 H   0  0  0  0  0  0  0  0  0  0  0  0
    4.7674    1.3778   19.0480 C   0  0  0  0  0  0  0  0  0  0  0  0
    3.8426    1.9342   19.1556 H   0  0  0  0  0  0  0  0  0  0  0  0
  1  2  1  0
  2  3  2  0
  3  4  1  0
  4  5  1  0
  4  6  2  0
  6  7  1  0
  7  8  1  0
  8  9  2  0
  9 10  1  0
 10 11  2  0
 10 12  2  0
 10 13  1  0
 13 14  2  0
 14 15  1  0
 14 16  1  0
 16 17  1  0
 16 18  2  0
 18 19  1  0
 18 20  1  0
 20 21  1  0
 20 22  2  0
 22 23  1  0
  9 24  1  0
 24 25  1  0
 24 26  2  0
 26 27  1  0
 26 28  1  0
 28 29  2  0
  6 30  1  0
 30 31  1  0
 30 32  2  0
 32 33  1  0
 32  2  1  0
 28  7  1  0
 22 13  1  0
M  END
>  <plip>  (1) 
-0.07142857142857142

>  <filename>  (1) 
[H][c]1[n][c]([H])[c](-[n]2[n][c]([S](=[O])(=[O])[c]3[c]([H])[c]([H])[c]([H])[c]([H])[c]3[H])[c]([H])[c]([H])[c]2=[O])[c]([H])[c]1[H]

$$$$
