
     RDKit          3D

 49 51  0  0  0  0  0  0  0  0999 V2000
   10.0561    0.9043   21.0486 C   0  0  0  0  0  0  0  0  0  0  0  0
    8.7494    1.3381   21.4341 O   0  0  0  0  0  0  0  0  0  0  0  0
    7.9400    0.3055   22.0332 C   0  0  0  0  0  0  0  0  0  0  0  0
    8.7121   -0.3764   23.0424 O   0  0  0  0  0  0  0  0  0  0  0  0
    8.9700    0.4243   24.2029 C   0  0  0  0  0  0  0  0  0  0  0  0
    9.7035   -0.0718   24.8474 H   0  0  0  0  0  0  0  0  0  0  0  0
    9.3584    1.4102   23.9314 H   0  0  0  0  0  0  0  0  0  0  0  0
    8.0476    0.5636   24.7737 H   0  0  0  0  0  0  0  0  0  0  0  0
    7.3696   -0.7138   20.9894 C   0  0  0  0  0  0  0  0  0  0  0  0
    6.4276   -1.6445   21.6351 N   0  0  0  0  0  0  0  0  0  0  0  0
    5.9054   -2.7966   21.0747 C   0  0  0  0  0  0  0  0  0  0  0  0
    5.9621   -2.9807   19.8660 O   0  0  0  0  0  0  0  0  0  0  0  0
    5.1412   -3.7912   21.9566 C   0  0  0  0  0  0  0  0  0  0  0  0
    5.9527   -4.3597   23.0031 O   0  0  0  0  0  0  0  0  0  0  0  0
    5.3292   -5.2608   23.8308 C   0  0  0  0  0  0  0  0  0  0  0  0
    6.0992   -5.8614   24.8304 C   0  0  0  0  0  0  0  0  0  0  0  0
    5.5162   -6.7413   25.7463 C   0  0  0  0  0  0  0  0  0  0  0  0
    4.1479   -7.0226   25.6720 C   0  0  0  0  0  0  0  0  0  0  0  0
    3.5438   -7.8313   26.6361 C   0  0  0  0  0  0  0  0  0  0  0  0
    2.1880   -8.1530   26.5691 C   0  0  0  0  0  0  0  0  0  0  0  0
    1.3947   -9.2172   27.9516 Br  0  0  0  0  0  0  0  0  0  0  0  0
    1.4270   -7.6579   25.5050 C   0  0  0  0  0  0  0  0  0  0  0  0
    2.0117   -6.8146   24.5469 C   0  0  0  0  0  0  0  0  0  0  0  0
    3.3684   -6.4734   24.6334 C   0  0  0  0  0  0  0  0  0  0  0  0
    3.9646   -5.5883   23.7255 C   0  0  0  0  0  0  0  0  0  0  0  0
    3.3655   -5.1311   22.9449 H   0  0  0  0  0  0  0  0  0  0  0  0
    1.4068   -6.4175   23.7392 H   0  0  0  0  0  0  0  0  0  0  0  0
    0.3753   -7.9109   25.4413 H   0  0  0  0  0  0  0  0  0  0  0  0
    4.1396   -8.1898   27.4660 H   0  0  0  0  0  0  0  0  0  0  0  0
    6.1332   -7.2083   26.5122 H   0  0  0  0  0  0  0  0  0  0  0  0
    7.1592   -5.6282   24.8864 H   0  0  0  0  0  0  0  0  0  0  0  0
    4.7849   -4.6144   21.3391 H   0  0  0  0  0  0  0  0  0  0  0  0
    4.2706   -3.2810   22.3805 H   0  0  0  0  0  0  0  0  0  0  0  0
    6.1371   -1.4469   22.5911 H   0  0  0  0  0  0  0  0  0  0  0  0
    6.6181   -0.0195   19.8730 C   0  0  0  0  0  0  0  0  0  0  0  0
    5.4208    0.6599   20.1202 C   0  0  0  0  0  0  0  0  0  0  0  0
    4.8154    1.3177   19.0503 C   0  0  0  0  0  0  0  0  0  0  0  0
    5.4098    1.2986   17.7832 C   0  0  0  0  0  0  0  0  0  0  0  0
    6.5497    0.6315   17.5350 N   0  0  0  0  0  0  0  0  0  0  0  0
    7.1292   -0.0147   18.5621 C   0  0  0  0  0  0  0  0  0  0  0  0
    8.0602   -0.5368   18.3672 H   0  0  0  0  0  0  0  0  0  0  0  0
    4.9325    1.8332   16.9669 H   0  0  0  0  0  0  0  0  0  0  0  0
    3.8887    1.8625   19.1847 H   0  0  0  0  0  0  0  0  0  0  0  0
    4.9749    0.6819   21.1154 H   0  0  0  0  0  0  0  0  0  0  0  0
    8.2325   -1.2556   20.5753 H   0  0  0  0  0  0  0  0  0  0  0  0
    7.0888    0.7909   22.5195 H   0  0  0  0  0  0  0  0  0  0  0  0
   10.5887    1.7244   20.5557 H   0  0  0  0  0  0  0  0  0  0  0  0
    9.9759    0.0523   20.3678 H   0  0  0  0  0  0  0  0  0  0  0  0
   10.6427    0.5945   21.9174 H   0  0  0  0  0  0  0  0  0  0  0  0
  1  2  1  0
  2  3  1  0
  3  4  1  0
  4  5  1  0
  5  6  1  0
  5  7  1  0
  5  8  1  0
  3  9  1  0
  9 10  1  0
 10 11  1  0
 11 12  2  0
 11 13  1  0
 13 14  1  0
 14 15  1  0
 15 16  2  0
 16 17  1  0
 17 18  2  0
 18 19  1  0
 19 20  2  0
 20 21  1  0
 20 22  1  0
 22 23  2  0
 23 24  1  0
 24 25  2  0
 25 26  1  0
 23 27  1  0
 22 28  1  0
 19 29  1  0
 17 30  1  0
 16 31  1  0
 13 32  1  0
 13 33  1  0
 10 34  1  0
  9 35  1  0
 35 36  2  0
 36 37  1  0
 37 38  2  0
 38 39  1  0
 39 40  2  0
 40 41  1  0
 38 42  1  0
 37 43  1  0
 36 44  1  0
  9 45  1  0
  3 46  1  0
  1 47  1  0
  1 48  1  0
  1 49  1  0
 25 15  1  0
 40 35  1  0
 24 18  1  0
M  END
>  <plip>  (1) 
-0.2857142857142857

>  <filename>  (1) 
[H][c]1[n][c]([H])[c]([C]([H])([N]([H])[C](=[O])[C]([H])([H])[O][c]2[c]([H])[c]([H])[c]3[c]([H])[c]([Br])[c]([H])[c]([H])[c]3[c]2[H])[C]([H])([O][C]([H])([H])[H])[O][C]([H])([H])[H])[c]([H])[c]1[H]

$$$$
