
     RDKit          3D

 32 34  0  0  0  0  0  0  0  0999 V2000
   10.5048   -3.5973   22.9049 H   0  0  0  0  0  0  0  0  0  0  0  0
   10.8568   -2.6127   22.5943 C   0  0  0  0  0  0  0  0  0  0  0  0
    9.9231   -1.6806   22.4186 N   0  0  0  0  0  0  0  0  0  0  0  0
   10.3138   -0.4633   22.0382 C   0  0  0  0  0  0  0  0  0  0  0  0
    9.3050    0.4433   21.7685 N   0  0  0  0  0  0  0  0  0  0  0  0
    9.5766    1.4078   21.7072 H   0  0  0  0  0  0  0  0  0  0  0  0
    7.9401    0.2247   21.9482 N   0  0  0  0  0  0  0  0  0  0  0  0
    7.4899   -0.1349   23.3047 C   0  0  0  0  0  0  0  0  0  0  0  0
    6.7264    0.5840   23.6224 H   0  0  0  0  0  0  0  0  0  0  0  0
    8.3190   -0.1187   24.0173 H   0  0  0  0  0  0  0  0  0  0  0  0
    6.9063   -1.5272   23.0930 C   0  0  0  0  0  0  0  0  0  0  0  0
    7.6994   -2.2851   23.1680 H   0  0  0  0  0  0  0  0  0  0  0  0
    6.0924   -1.7859   23.7732 H   0  0  0  0  0  0  0  0  0  0  0  0
    6.3746   -1.4490   21.7753 O   0  0  0  0  0  0  0  0  0  0  0  0
    7.2834   -0.7034   21.0020 C   0  0  1  0  0  0  0  0  0  0  0  0
    8.0463   -1.3710   20.5643 H   0  0  0  0  0  0  0  0  0  0  0  0
    6.5489    0.0163   19.8980 C   0  0  0  0  0  0  0  0  0  0  0  0
    7.1271    0.0526   18.6318 C   0  0  0  0  0  0  0  0  0  0  0  0
    8.0745   -0.4540   18.4394 H   0  0  0  0  0  0  0  0  0  0  0  0
    6.5889    0.6800   17.5740 N   0  0  0  0  0  0  0  0  0  0  0  0
    5.4289    1.3222   17.7721 C   0  0  0  0  0  0  0  0  0  0  0  0
    5.0085    1.8330   16.9059 H   0  0  0  0  0  0  0  0  0  0  0  0
    4.7664    1.3503   19.0061 C   0  0  0  0  0  0  0  0  0  0  0  0
    3.8354    1.8956   19.0998 H   0  0  0  0  0  0  0  0  0  0  0  0
    5.3367    0.6896   20.0923 C   0  0  0  0  0  0  0  0  0  0  0  0
    4.8524    0.6984   21.0716 H   0  0  0  0  0  0  0  0  0  0  0  0
   11.6733   -0.1006   21.8699 C   0  0  0  0  0  0  0  0  0  0  0  0
   11.9350    0.9201   21.6206 H   0  0  0  0  0  0  0  0  0  0  0  0
   12.6348   -1.0912   22.0264 C   0  0  0  0  0  0  0  0  0  0  0  0
   13.7002   -0.8967   21.8708 H   0  0  0  0  0  0  0  0  0  0  0  0
   12.2054   -2.3727   22.3818 C   0  0  0  0  0  0  0  0  0  0  0  0
   12.8934   -3.1847   22.5101 H   0  0  0  0  0  0  0  0  0  0  0  0
  1  2  1  0
  2  3  2  0
  3  4  1  0
  4  5  1  0
  5  6  1  0
  5  7  1  0
  7  8  1  0
  8  9  1  0
  8 10  1  0
  8 11  1  0
 11 12  1  0
 11 13  1  0
 11 14  1  0
 14 15  1  0
 15 16  1  6
 15 17  1  0
 17 18  2  0
 18 19  1  0
 18 20  1  0
 20 21  2  0
 21 22  1  0
 21 23  1  0
 23 24  1  0
 23 25  2  0
 25 26  1  0
  4 27  2  0
 27 28  1  0
 27 29  1  0
 29 30  1  0
 29 31  2  0
 31 32  1  0
 31  2  1  0
 15  7  1  0
 25 17  1  0
M  END
>  <plip>  (1) 
-0.10714285714285714

>  <filename>  (1) 
[H][c]1[n][c]([N]([H])[N]2[C]([H])([H])[C]([H])([H])[O][C@@]2([H])[c]2[c]([H])[n][c]([H])[c]([H])[c]2[H])[c]([H])[c]([H])[c]1[H]

$$$$
