
     RDKit          3D

 28 29  0  0  0  0  0  0  0  0999 V2000
    7.0724    0.9222   23.2940 H   0  0  0  0  0  0  0  0  0  0  0  0
    7.9381    1.2945   22.9110 N   0  0  0  0  0  0  0  0  0  0  0  0
    8.3183    0.6535   21.8930 C   0  0  0  0  0  0  0  0  0  0  0  0
    7.3835   -0.7626   21.2114 S   0  0  0  0  0  0  0  0  0  0  0  0
    6.5364   -0.0245   19.8075 C   0  0  0  0  0  0  0  0  0  0  0  0
    7.0571   -0.0635   18.4994 C   0  0  0  0  0  0  0  0  0  0  0  0
    7.9550   -0.6434   18.2796 H   0  0  0  0  0  0  0  0  0  0  0  0
    6.5106    0.5887   17.4651 N   0  0  0  0  0  0  0  0  0  0  0  0
    5.3876    1.2900   17.6894 C   0  0  0  0  0  0  0  0  0  0  0  0
    4.9855    1.8421   16.8414 H   0  0  0  0  0  0  0  0  0  0  0  0
    4.7443    1.3220   18.9309 C   0  0  0  0  0  0  0  0  0  0  0  0
    3.8284    1.8897   19.0480 H   0  0  0  0  0  0  0  0  0  0  0  0
    5.3221    0.6447   20.0068 C   0  0  0  0  0  0  0  0  0  0  0  0
    4.8531    0.6321   20.9910 H   0  0  0  0  0  0  0  0  0  0  0  0
    9.5837    1.0565   21.1593 C   0  0  0  0  0  0  0  0  0  0  0  0
    9.7092    0.4435   20.2667 H   0  0  0  0  0  0  0  0  0  0  0  0
    9.4293    2.0920   20.8359 H   0  0  0  0  0  0  0  0  0  0  0  0
   10.8365    1.0126   22.0208 C   0  0  0  0  0  0  0  0  0  0  0  0
   11.1737    2.1397   22.7872 C   0  0  0  0  0  0  0  0  0  0  0  0
   10.5431    3.0194   22.7149 H   0  0  0  0  0  0  0  0  0  0  0  0
   12.2994    2.1679   23.6121 C   0  0  0  0  0  0  0  0  0  0  0  0
   12.5259    3.0706   24.1670 H   0  0  0  0  0  0  0  0  0  0  0  0
   13.1372    1.0531   23.6643 C   0  0  0  0  0  0  0  0  0  0  0  0
   14.0354    1.0646   24.2702 H   0  0  0  0  0  0  0  0  0  0  0  0
   12.8252   -0.0871   22.9272 C   0  0  0  0  0  0  0  0  0  0  0  0
   13.4570   -0.9676   22.9605 H   0  0  0  0  0  0  0  0  0  0  0  0
   11.6819   -0.1028   22.1237 C   0  0  0  0  0  0  0  0  0  0  0  0
   11.3500   -1.5696   21.2521 Cl  0  0  0  0  0  0  0  0  0  0  0  0
  1  2  1  0
  2  3  2  3
  3  4  1  0
  4  5  1  0
  5  6  2  0
  6  7  1  0
  6  8  1  0
  8  9  2  0
  9 10  1  0
  9 11  1  0
 11 12  1  0
 11 13  2  0
 13 14  1  0
  3 15  1  0
 15 16  1  0
 15 17  1  0
 15 18  1  0
 18 19  2  0
 19 20  1  0
 19 21  1  0
 21 22  1  0
 21 23  2  0
 23 24  1  0
 23 25  1  0
 25 26  1  0
 25 27  2  0
 27 28  1  0
 13  5  1  0
 27 18  1  0
M  END
>  <plip>  (1) 
-0.07142857142857142

>  <filename>  (1) 
[H][N]=[C]([S][c]1[c]([H])[n][c]([H])[c]([H])[c]1[H])[C]([H])([H])[c]1[c]([H])[c]([H])[c]([H])[c]([H])[c]1[Cl]

$$$$
