
     RDKit          3D

 35 36  0  0  0  0  0  0  0  0999 V2000
    9.8479   -1.4608   24.6975 C   0  0  0  0  0  0  0  0  0  0  0  0
    8.7101   -0.8991   23.8444 C   0  0  0  0  0  0  0  0  0  0  0  0
    9.3461   -0.2139   22.6821 N   0  0  0  0  0  4  0  0  0  0  0  0
    8.3039    0.3551   21.7387 C   0  0  0  0  0  0  0  0  0  0  0  0
    7.4036   -0.6666   20.9987 C   0  0  0  0  0  0  0  0  0  0  0  0
    8.1761   -1.6474   20.4672 F   0  0  0  0  0  0  0  0  0  0  0  0
    6.5245   -1.2410   21.8637 F   0  0  0  0  0  0  0  0  0  0  0  0
    6.6504    0.0301   19.8999 C   0  0  0  0  0  0  0  0  0  0  0  0
    5.4338    0.6623   20.1613 C   0  0  0  0  0  0  0  0  0  0  0  0
    4.8186    1.3072   19.0970 C   0  0  0  0  0  0  0  0  0  0  0  0
    5.4045    1.2927   17.8261 C   0  0  0  0  0  0  0  0  0  0  0  0
    6.5686    0.6668   17.5798 N   0  0  0  0  0  0  0  0  0  0  0  0
    7.1787    0.0518   18.6008 C   0  0  0  0  0  0  0  0  0  0  0  0
    8.1290   -0.4388   18.4074 H   0  0  0  0  0  0  0  0  0  0  0  0
    4.8917    1.8022   17.0152 H   0  0  0  0  0  0  0  0  0  0  0  0
    3.8837    1.8300   19.2510 H   0  0  0  0  0  0  0  0  0  0  0  0
    4.9891    0.6535   21.1611 H   0  0  0  0  0  0  0  0  0  0  0  0
    8.7750    0.9644   20.9589 H   0  0  0  0  0  0  0  0  0  0  0  0
    7.6229    1.0227   22.2791 H   0  0  0  0  0  0  0  0  0  0  0  0
    9.9299   -0.8929   22.1792 H   0  0  0  0  0  0  0  0  0  0  0  0
    9.9687    0.5281   23.0310 H   0  0  0  0  0  0  0  0  0  0  0  0
    7.7669   -0.0288   24.6704 C   0  0  0  0  0  0  0  0  0  0  0  0
    6.4870   -0.4457   24.8114 N   0  0  0  0  0  0  0  0  0  0  0  0
    5.6329    0.3244   25.5099 C   0  0  0  0  0  0  0  0  0  0  0  0
    6.0191    1.5333   26.1098 C   0  0  0  0  0  0  0  0  0  0  0  0
    4.7556    2.5748   27.1003 Br  0  0  0  0  0  0  0  0  0  0  0  0
    7.3394    1.9655   25.9815 C   0  0  0  0  0  0  0  0  0  0  0  0
    8.2271    1.1752   25.2489 C   0  0  0  0  0  0  0  0  0  0  0  0
    9.5114    1.5785   25.1042 F   0  0  0  0  0  0  0  0  0  0  0  0
    7.6733    2.8968   26.4404 H   0  0  0  0  0  0  0  0  0  0  0  0
    4.6051   -0.0035   25.6116 H   0  0  0  0  0  0  0  0  0  0  0  0
    8.0879   -1.7365   23.5001 H   0  0  0  0  0  0  0  0  0  0  0  0
   10.4315   -2.1952   24.1325 H   0  0  0  0  0  0  0  0  0  0  0  0
   10.5205   -0.6653   25.0308 H   0  0  0  0  0  0  0  0  0  0  0  0
    9.4435   -1.9629   25.5803 H   0  0  0  0  0  0  0  0  0  0  0  0
  1  2  1  0
  2  3  1  0
  3  4  1  0
  4  5  1  0
  5  6  1  0
  5  7  1  0
  5  8  1  0
  8  9  2  0
  9 10  1  0
 10 11  2  0
 11 12  1  0
 12 13  2  0
 13 14  1  0
 11 15  1  0
 10 16  1  0
  9 17  1  0
  4 18  1  0
  4 19  1  0
  3 20  1  0
  3 21  1  0
  2 22  1  0
 22 23  2  0
 23 24  1  0
 24 25  2  0
 25 26  1  0
 25 27  1  0
 27 28  2  0
 28 29  1  0
 27 30  1  0
 24 31  1  0
  2 32  1  0
  1 33  1  0
  1 34  1  0
  1 35  1  0
 13  8  1  0
 28 22  1  0
M  CHG  1   3   1
M  END
>  <plip>  (1) 
-0.03333333333333333

>  <filename>  (1) 
[H][c]1[n][c]([H])[c]([C]([F])([F])[C]([H])([H])[N+]([H])([H])[C]([H])([c]2[n][c]([H])[c]([Br])[c]([H])[c]2[F])[C]([H])([H])[H])[c]([H])[c]1[H]

$$$$
