
     RDKit          3D

 22 22  0  0  0  0  0  0  0  0999 V2000
    5.0426    1.7261   16.9888 H   0  0  0  0  0  0  0  0  0  0  0  0
    5.4510    1.2366   17.8711 C   0  0  0  0  0  0  0  0  0  0  0  0
    6.6401    0.6333   17.7066 N   0  0  0  0  0  0  0  0  0  0  0  0
    7.1932    0.0518   18.7776 C   0  0  0  0  0  0  0  0  0  0  0  0
    8.1728   -0.4049   18.6449 H   0  0  0  0  0  0  0  0  0  0  0  0
    6.5651    0.0229   20.0294 C   0  0  0  0  0  0  0  0  0  0  0  0
    7.4789   -0.5843   21.4493 S   0  0  0  0  0  4  0  0  0  0  0  0
    8.9143   -0.3008   21.0931 O   0  0  0  0  0  0  0  0  0  0  0  0
    7.3148   -2.4246   21.1131 C   0  0  0  0  0  0  0  0  0  0  0  0
    7.4819   -2.4613   20.0425 H   0  0  0  0  0  0  0  0  0  0  0  0
    8.1724   -2.8024   21.6713 H   0  0  0  0  0  0  0  0  0  0  0  0
    6.1083   -3.1311   21.4737 O   0  0  0  0  0  0  0  0  0  0  0  0
    5.8842   -4.5991   20.8582 S   0  0  0  0  0  0  0  0  0  0  0  0
    4.9190   -5.2187   21.7132 O   0  0  0  0  0  0  0  0  0  0  0  0
    5.7982   -4.5738   19.4260 O   0  0  0  0  0  0  0  0  0  0  0  0
    7.3155   -5.3265   21.1839 N   0  0  0  0  0  0  0  0  0  0  0  0
    7.0754   -5.7117   22.0925 H   0  0  0  0  0  0  0  0  0  0  0  0
    7.2573   -6.0504   20.4809 H   0  0  0  0  0  0  0  0  0  0  0  0
    5.3273    0.6403   20.2013 C   0  0  0  0  0  0  0  0  0  0  0  0
    4.8383    0.6371   21.1759 H   0  0  0  0  0  0  0  0  0  0  0  0
    4.7651    1.2712   19.0887 C   0  0  0  0  0  0  0  0  0  0  0  0
    3.8241    1.8034   19.1591 H   0  0  0  0  0  0  0  0  0  0  0  0
  1  2  1  0
  2  3  2  0
  3  4  1  0
  4  5  1  0
  4  6  2  0
  6  7  1  0
  7  8  2  0
  7  9  1  6
  9 10  1  0
  9 11  1  0
  9 12  1  0
 12 13  1  0
 13 14  2  0
 13 15  2  0
 13 16  1  0
 16 17  1  0
 16 18  1  0
  6 19  1  0
 19 20  1  0
 19 21  2  0
 21 22  1  0
 21  2  1  0
M  END
>  <plip>  (1) 
-0.1

>  <filename>  (1) 
[H][c]1[n][c]([H])[c]([S@](=[O])[C]([H])([H])[O][S](=[O])(=[O])[N]([H])[H])[c]([H])[c]1[H]

$$$$
