
     RDKit          3D

 38 39  0  0  0  0  0  0  0  0999 V2000
    8.0283    7.3311   23.2664 C   0  0  0  0  0  0  0  0  0  0  0  0
    8.2922    6.2847   24.1610 O   0  0  0  0  0  0  0  0  0  0  0  0
    9.0983    5.2431   23.6205 C   0  0  1  0  0  0  0  0  0  0  0  0
   10.1925    4.9512   24.6398 C   0  0  0  0  0  0  0  0  0  0  0  0
   10.7520    5.8787   24.7944 H   0  0  0  0  0  0  0  0  0  0  0  0
    9.7627    4.6456   25.6000 H   0  0  0  0  0  0  0  0  0  0  0  0
   10.8861    4.1797   24.2913 H   0  0  0  0  0  0  0  0  0  0  0  0
    8.1522    4.0962   23.3016 C   0  0  0  0  0  0  0  0  0  0  0  0
    8.9028    3.0746   22.6354 O   0  0  0  0  0  0  0  0  0  0  0  0
    8.2595    1.9292   22.3355 C   0  0  0  0  0  0  0  0  0  0  0  0
    7.0862    1.7386   22.5817 O   0  0  0  0  0  0  0  0  0  0  0  0
    9.1872    0.9710   21.7264 C   0  0  0  0  0  0  0  0  0  0  0  0
   10.5727    0.9928   21.6518 C   0  0  0  0  0  0  0  0  0  0  0  0
   10.9700   -0.2517   21.1250 C   0  0  0  0  0  0  0  0  0  0  0  0
    9.8251   -0.9650   20.8568 C   0  0  0  0  0  0  0  0  0  0  0  0
    8.7386   -0.2304   21.2190 N   0  0  0  0  0  0  0  0  0  0  0  0
    7.3553   -0.6581   21.0278 C   0  0  0  0  0  0  0  0  0  0  0  0
    6.6206    0.0377   19.8885 C   0  0  0  0  0  0  0  0  0  0  0  0
    5.3947    0.6786   20.1064 C   0  0  0  0  0  0  0  0  0  0  0  0
    4.7685    1.3262   19.0400 C   0  0  0  0  0  0  0  0  0  0  0  0
    5.3865    1.3121   17.7892 C   0  0  0  0  0  0  0  0  0  0  0  0
    6.5443    0.6811   17.5493 N   0  0  0  0  0  0  0  0  0  0  0  0
    7.1392    0.0682   18.5797 C   0  0  0  0  0  0  0  0  0  0  0  0
    8.0835   -0.4240   18.3408 H   0  0  0  0  0  0  0  0  0  0  0  0
    4.9362    1.8300   16.9439 H   0  0  0  0  0  0  0  0  0  0  0  0
    3.8332    1.8543   19.1702 H   0  0  0  0  0  0  0  0  0  0  0  0
    4.9560    0.7038   21.1054 H   0  0  0  0  0  0  0  0  0  0  0  0
    6.8123   -0.5162   21.9643 H   0  0  0  0  0  0  0  0  0  0  0  0
    7.4050   -1.7367   20.8529 H   0  0  0  0  0  0  0  0  0  0  0  0
    9.6763   -1.9425   20.4156 H   0  0  0  0  0  0  0  0  0  0  0  0
   11.9819   -0.6099   20.9899 H   0  0  0  0  0  0  0  0  0  0  0  0
   11.2094    1.8327   21.9292 H   0  0  0  0  0  0  0  0  0  0  0  0
    7.6782    3.7055   24.2079 H   0  0  0  0  0  0  0  0  0  0  0  0
    7.3527    4.4615   22.6428 H   0  0  0  0  0  0  0  0  0  0  0  0
    9.5745    5.5288   22.6616 H   0  0  0  0  0  0  0  0  0  0  0  0
    8.9830    7.7242   22.9045 H   0  0  0  0  0  0  0  0  0  0  0  0
    7.4875    8.0944   23.8250 H   0  0  0  0  0  0  0  0  0  0  0  0
    7.4227    7.0323   22.3942 H   0  0  0  0  0  0  0  0  0  0  0  0
  1  2  1  0
  2  3  1  0
  3  4  1  0
  4  5  1  0
  4  6  1  0
  4  7  1  0
  3  8  1  0
  8  9  1  0
  9 10  1  0
 10 11  2  0
 10 12  1  0
 12 13  2  0
 13 14  1  0
 14 15  2  0
 15 16  1  0
 16 17  1  0
 17 18  1  0
 18 19  2  0
 19 20  1  0
 20 21  2  0
 21 22  1  0
 22 23  2  0
 23 24  1  0
 21 25  1  0
 20 26  1  0
 19 27  1  0
 17 28  1  0
 17 29  1  0
 15 30  1  0
 14 31  1  0
 13 32  1  0
  8 33  1  0
  8 34  1  0
  3 35  1  6
  1 36  1  0
  1 37  1  0
  1 38  1  0
 16 12  1  0
 23 18  1  0
M  END
>  <plip>  (1) 
-0.07142857142857142

>  <filename>  (1) 
[H][c]1[n][c]([H])[c]([C]([H])([H])[n]2[c]([H])[c]([H])[c]([H])[c]2[C](=[O])[O][C]([H])([H])[C@@]([H])([O][C]([H])([H])[H])[C]([H])([H])[H])[c]([H])[c]1[H]

$$$$
