
     RDKit          3D

 35 38  0  0  0  0  0  0  0  0999 V2000
    4.9135    1.8050   16.9816 H   0  0  0  0  0  0  0  0  0  0  0  0
    5.3907    1.2978   17.8185 C   0  0  0  0  0  0  0  0  0  0  0  0
    6.5499    0.6790   17.5474 N   0  0  0  0  0  0  0  0  0  0  0  0
    7.1637    0.0612   18.5643 C   0  0  0  0  0  0  0  0  0  0  0  0
    8.1164   -0.4156   18.3279 H   0  0  0  0  0  0  0  0  0  0  0  0
    6.6662    0.0089   19.8808 C   0  0  0  0  0  0  0  0  0  0  0  0
    7.3894   -0.7242   20.9991 C   0  0  1  0  0  0  0  0  0  0  0  0
    8.3962   -1.0037   20.6638 H   0  0  0  0  0  0  0  0  0  0  0  0
    7.6204    0.1627   22.2417 C   0  0  0  0  0  0  0  0  0  0  0  0
    8.2548    1.1885   22.2528 O   0  0  0  0  0  0  0  0  0  0  0  0
    7.0287   -0.4236   23.3480 N   0  0  0  0  0  0  0  0  0  0  0  0
    6.9910    0.1837   24.6459 C   0  0  0  0  0  0  0  0  0  0  0  0
    8.1627    0.8125   25.1302 C   0  0  0  0  0  0  0  0  0  0  0  0
    9.0417    0.8410   24.4974 H   0  0  0  0  0  0  0  0  0  0  0  0
    8.1693    1.3999   26.3878 C   0  0  0  0  0  0  0  0  0  0  0  0
    9.0626    1.8902   26.7568 H   0  0  0  0  0  0  0  0  0  0  0  0
    7.0007    1.3802   27.1799 C   0  0  0  0  0  0  0  0  0  0  0  0
    6.6564    1.8700   28.4898 C   0  0  0  0  0  0  0  0  0  0  0  0
    7.3076    2.4029   29.1691 H   0  0  0  0  0  0  0  0  0  0  0  0
    5.3553    1.5280   28.7149 C   0  0  0  0  0  0  0  0  0  0  0  0
    4.7194    1.7045   29.5731 H   0  0  0  0  0  0  0  0  0  0  0  0
    4.8632    0.8531   27.6151 N   0  0  0  0  0  0  0  0  0  0  0  0
    3.9406    0.4726   27.5068 H   0  0  0  0  0  0  0  0  0  0  0  0
    5.8410    0.7489   26.6602 C   0  0  0  0  0  0  0  0  0  0  0  0
    5.8188    0.1375   25.3910 C   0  0  0  0  0  0  0  0  0  0  0  0
    4.9544   -0.3760   24.9871 H   0  0  0  0  0  0  0  0  0  0  0  0
    6.4767   -1.6582   23.0402 C   0  0  0  0  0  0  0  0  0  0  0  0
    5.9771   -2.4137   23.8352 O   0  0  0  0  0  0  0  0  0  0  0  0
    6.6178   -1.9263   21.5555 C   0  0  0  0  0  0  0  0  0  0  0  0
    7.1196   -2.8883   21.4416 H   0  0  0  0  0  0  0  0  0  0  0  0
    5.6166   -2.0402   21.1291 H   0  0  0  0  0  0  0  0  0  0  0  0
    5.4493    0.6506   20.1364 C   0  0  0  0  0  0  0  0  0  0  0  0
    5.0269    0.6373   21.1434 H   0  0  0  0  0  0  0  0  0  0  0  0
    4.8057    1.3103   19.0888 C   0  0  0  0  0  0  0  0  0  0  0  0
    3.8762    1.8397   19.2458 H   0  0  0  0  0  0  0  0  0  0  0  0
  1  2  1  0
  2  3  2  0
  3  4  1  0
  4  5  1  0
  4  6  2  0
  6  7  1  0
  7  8  1  6
  7  9  1  0
  9 10  2  0
  9 11  1  0
 11 12  1  0
 12 13  2  0
 13 14  1  0
 13 15  1  0
 15 16  1  0
 15 17  2  0
 17 18  1  0
 18 19  1  0
 18 20  2  0
 20 21  1  0
 20 22  1  0
 22 23  1  0
 22 24  1  0
 24 25  2  0
 25 26  1  0
 11 27  1  0
 27 28  2  0
 27 29  1  0
 29 30  1  0
 29 31  1  0
  6 32  1  0
 32 33  1  0
 32 34  2  0
 34 35  1  0
 34  2  1  0
 29  7  1  0
 25 12  1  0
 24 17  1  0
M  END
>  <plip>  (1) 
-0.03571428571428571

>  <filename>  (1) 
[H][c]1[n][c]([H])[c]([C@@]2([H])[C](=[O])[N]([c]3[c]([H])[c]([H])[c]4[c]([H])[c]([H])[n]([H])[c]4[c]3[H])[C](=[O])[C]2([H])[H])[c]([H])[c]1[H]

$$$$
