
     RDKit          3D

 32 35  0  0  0  0  0  0  0  0999 V2000
    4.8721    1.5111   16.8883 H   0  0  0  0  0  0  0  0  0  0  0  0
    5.5733    1.2323   17.6722 C   0  0  0  0  0  0  0  0  0  0  0  0
    6.7666    0.7705   17.2630 N   0  0  0  0  0  0  0  0  0  0  0  0
    7.6458    0.3876   18.1946 C   0  0  0  0  0  0  0  0  0  0  0  0
    8.6165    0.0480   17.8366 H   0  0  0  0  0  0  0  0  0  0  0  0
    7.3598    0.4161   19.5754 C   0  0  0  0  0  0  0  0  0  0  0  0
    8.2887   -0.1067   20.5297 N   0  0  0  0  0  0  0  0  0  0  0  0
    9.6163    0.0532   20.3534 N   0  0  0  0  0  0  0  0  0  0  0  0
   10.1975   -0.5064   21.3420 N   0  0  0  0  0  0  0  0  0  0  0  0
    9.3048   -1.0540   22.1954 N   0  0  0  0  0  0  0  0  0  0  0  0
    8.1177   -0.8042   21.6914 C   0  0  0  0  0  0  0  0  0  0  0  0
    6.5969   -1.3625   22.4153 S   0  0  0  0  0  0  0  0  0  0  0  0
    6.2320   -2.8175   21.4065 C   0  0  0  0  0  0  0  0  0  0  0  0
    5.7789   -2.6524   20.1142 C   0  0  0  0  0  0  0  0  0  0  0  0
    5.4606   -1.6669   19.7880 H   0  0  0  0  0  0  0  0  0  0  0  0
    5.7443   -3.7377   19.1992 C   0  0  0  0  0  0  0  0  0  0  0  0
    5.4034   -3.5452   18.1829 H   0  0  0  0  0  0  0  0  0  0  0  0
    6.1839   -4.9814   19.6012 C   0  0  0  0  0  0  0  0  0  0  0  0
    6.2299   -5.8449   18.9498 H   0  0  0  0  0  0  0  0  0  0  0  0
    6.5976   -5.2045   20.9463 C   0  0  0  0  0  0  0  0  0  0  0  0
    7.0725   -6.4483   21.2656 N   0  0  0  0  0  0  0  0  0  0  0  0
    7.2900   -6.7102   22.5331 C   0  0  0  0  0  0  0  0  0  0  0  0
    7.7008   -7.6975   22.7353 H   0  0  0  0  0  0  0  0  0  0  0  0
    7.0330   -5.7885   23.5902 C   0  0  0  0  0  0  0  0  0  0  0  0
    7.1583   -6.1069   24.6175 H   0  0  0  0  0  0  0  0  0  0  0  0
    6.6487   -4.5027   23.2758 C   0  0  0  0  0  0  0  0  0  0  0  0
    6.4759   -3.7522   24.0481 H   0  0  0  0  0  0  0  0  0  0  0  0
    6.4842   -4.1438   21.9062 C   0  0  0  0  0  0  0  0  0  0  0  0
    6.1478    0.9598   20.0007 C   0  0  0  0  0  0  0  0  0  0  0  0
    5.9286    1.0898   21.0613 H   0  0  0  0  0  0  0  0  0  0  0  0
    5.2292    1.3549   19.0219 C   0  0  0  0  0  0  0  0  0  0  0  0
    4.2718    1.7818   19.2987 H   0  0  0  0  0  0  0  0  0  0  0  0
  1  2  1  0
  2  3  2  0
  3  4  1  0
  4  5  1  0
  4  6  2  0
  6  7  1  0
  7  8  1  0
  8  9  2  0
  9 10  1  0
 10 11  2  0
 11 12  1  0
 12 13  1  0
 13 14  2  0
 14 15  1  0
 14 16  1  0
 16 17  1  0
 16 18  2  0
 18 19  1  0
 18 20  1  0
 20 21  2  0
 21 22  1  0
 22 23  1  0
 22 24  2  0
 24 25  1  0
 24 26  1  0
 26 27  1  0
 26 28  2  0
  6 29  1  0
 29 30  1  0
 29 31  2  0
 31 32  1  0
 31  2  1  0
 11  7  1  0
 28 13  1  0
 28 20  1  0
M  END
>  <plip>  (1) 
-0.10344827586206896

>  <filename>  (1) 
[H][c]1[n][c]([H])[c](-[n]2[n][n][n][c]2[S][c]2[c]([H])[c]([H])[c]([H])[c]3[n][c]([H])[c]([H])[c]([H])[c]23)[c]([H])[c]1[H]

$$$$
