
     RDKit          3D

 51 51  0  0  0  0  0  0  0  0999 V2000
    5.9142    8.4507   23.8891 C   0  0  0  0  0  0  0  0  0  0  0  0
    7.1880    7.6431   24.1256 C   0  0  0  0  0  0  0  0  0  0  0  0
    8.0232    7.1339   22.5958 S   0  0  0  0  0  0  0  0  0  0  0  0
    7.1579    5.5751   22.2420 C   0  0  0  0  0  0  0  0  0  0  0  0
    7.7276    4.3628   22.9929 C   0  0  0  0  0  0  0  0  0  0  0  0
    9.0109    3.8062   22.3622 C   0  0  0  0  0  0  0  0  0  0  0  0
   10.2699    4.5976   22.7134 C   0  0  0  0  0  0  0  0  0  0  0  0
   11.1614    4.0612   22.3802 H   0  0  0  0  0  0  0  0  0  0  0  0
   10.2901    5.5922   22.2637 H   0  0  0  0  0  0  0  0  0  0  0  0
   10.3768    4.7167   23.7917 H   0  0  0  0  0  0  0  0  0  0  0  0
    9.2689    2.3238   22.7377 N   0  0  0  0  0  4  0  0  0  0  0  0
    9.6498    2.1480   24.1846 C   0  0  0  0  0  0  0  0  0  0  0  0
    8.8121    2.3986   24.8501 H   0  0  0  0  0  0  0  0  0  0  0  0
    9.9525    1.1191   24.3996 H   0  0  0  0  0  0  0  0  0  0  0  0
   10.4934    2.7907   24.4526 H   0  0  0  0  0  0  0  0  0  0  0  0
    8.1596    1.3844   22.3187 C   0  0  0  0  0  0  0  0  0  0  0  0
    8.6273    0.1377   21.5396 C   0  0  0  0  0  0  0  0  0  0  0  0
    9.6602   -0.7366   22.2794 C   0  0  0  0  0  0  0  0  0  0  0  0
    9.0841   -1.4565   23.4831 N   0  0  0  0  0  4  0  0  0  0  0  0
    9.7846   -2.0397   23.9807 H   0  0  0  0  0  0  0  0  0  0  0  0
    8.6630   -0.7778   24.1460 H   0  0  0  0  0  0  0  0  0  0  0  0
    8.3147   -2.0771   23.1619 H   0  0  0  0  0  0  0  0  0  0  0  0
   10.0487   -1.4838   21.5782 H   0  0  0  0  0  0  0  0  0  0  0  0
   10.5155   -0.1322   22.5951 H   0  0  0  0  0  0  0  0  0  0  0  0
    7.4218   -0.6736   20.9872 C   0  0  0  0  0  0  0  0  0  0  0  0
    6.6460    0.0206   19.8833 C   0  0  0  0  0  0  0  0  0  0  0  0
    5.4179    0.6587   20.1088 C   0  0  0  0  0  0  0  0  0  0  0  0
    4.7886    1.3284   19.0554 C   0  0  0  0  0  0  0  0  0  0  0  0
    5.4005    1.3284   17.7958 C   0  0  0  0  0  0  0  0  0  0  0  0
    6.5584    0.6995   17.5457 N   0  0  0  0  0  0  0  0  0  0  0  0
    7.1492    0.0673   18.5652 C   0  0  0  0  0  0  0  0  0  0  0  0
    8.0877   -0.4335   18.3239 H   0  0  0  0  0  0  0  0  0  0  0  0
    4.9444    1.8517   16.9567 H   0  0  0  0  0  0  0  0  0  0  0  0
    3.8540    1.8581   19.1920 H   0  0  0  0  0  0  0  0  0  0  0  0
    4.9588    0.6388   21.1016 H   0  0  0  0  0  0  0  0  0  0  0  0
    6.7244   -0.9327   21.7991 H   0  0  0  0  0  0  0  0  0  0  0  0
    7.7888   -1.6317   20.5897 H   0  0  0  0  0  0  0  0  0  0  0  0
    9.1769    0.5294   20.6730 H   0  0  0  0  0  0  0  0  0  0  0  0
    7.5786    1.1056   23.2098 H   0  0  0  0  0  0  0  0  0  0  0  0
    7.4726    1.9433   21.6709 H   0  0  0  0  0  0  0  0  0  0  0  0
   10.0884    2.0857   22.1469 H   0  0  0  0  0  0  0  0  0  0  0  0
    8.8355    3.8064   21.2738 H   0  0  0  0  0  0  0  0  0  0  0  0
    6.9789    3.5659   22.9874 H   0  0  0  0  0  0  0  0  0  0  0  0
    7.9027    4.6170   24.0459 H   0  0  0  0  0  0  0  0  0  0  0  0
    7.2233    5.4249   21.1570 H   0  0  0  0  0  0  0  0  0  0  0  0
    6.0908    5.7062   22.4639 H   0  0  0  0  0  0  0  0  0  0  0  0
    6.9783    6.7379   24.7076 H   0  0  0  0  0  0  0  0  0  0  0  0
    7.9307    8.2204   24.6880 H   0  0  0  0  0  0  0  0  0  0  0  0
    6.1319    9.3819   23.3561 H   0  0  0  0  0  0  0  0  0  0  0  0
    5.1981    7.8836   23.2830 H   0  0  0  0  0  0  0  0  0  0  0  0
    5.4236    8.7008   24.8365 H   0  0  0  0  0  0  0  0  0  0  0  0
  1  2  1  0
  2  3  1  0
  3  4  1  0
  4  5  1  0
  5  6  1  0
  6  7  1  0
  7  8  1  0
  7  9  1  0
  7 10  1  0
  6 11  1  0
 11 12  1  0
 12 13  1  0
 12 14  1  0
 12 15  1  0
 11 16  1  0
 16 17  1  0
 17 18  1  0
 18 19  1  0
 19 20  1  0
 19 21  1  0
 19 22  1  0
 18 23  1  0
 18 24  1  0
 17 25  1  0
 25 26  1  0
 26 27  2  0
 27 28  1  0
 28 29  2  0
 29 30  1  0
 30 31  2  0
 31 32  1  0
 29 33  1  0
 28 34  1  0
 27 35  1  0
 25 36  1  0
 25 37  1  0
 17 38  1  0
 16 39  1  0
 16 40  1  0
 11 41  1  0
  6 42  1  0
  5 43  1  0
  5 44  1  0
  4 45  1  0
  4 46  1  0
  2 47  1  0
  2 48  1  0
  1 49  1  0
  1 50  1  0
  1 51  1  0
 31 26  1  0
M  CHG  2  11   1  19   1
M  END
>  <plip>  (1) 
-0.03571428571428571

>  <filename>  (1) 
[H][c]1[n][c]([H])[c]([C]([H])([H])[C]([H])([C]([H])([H])[N+]([H])([H])[H])[C]([H])([H])[N+]([H])([C]([H])([H])[H])[C]([H])([C]([H])([H])[H])[C]([H])([H])[C]([H])([H])[S][C]([H])([H])[C]([H])([H])[H])[c]([H])[c]1[H]

$$$$
