
     RDKit          3D

 24 25  0  0  0  0  0  0  0  0999 V2000
    8.7089   -0.2749   21.0164 O   0  0  0  0  0  0  0  0  0  0  0  0
    7.3244   -0.5012   21.1665 C   0  0  0  0  0  0  0  0  0  0  0  0
    7.0165   -2.0160   21.1346 C   0  0  0  0  0  0  0  0  0  0  0  0
    7.4856   -2.7467   22.3045 N   0  0  0  0  0  0  0  0  0  0  0  0
    6.8718   -3.2190   23.4045 C   0  0  0  0  0  0  0  0  0  0  0  0
    7.7522   -3.7470   24.2366 N   0  0  0  0  0  0  0  0  0  0  0  0
    8.9192   -3.5440   23.5870 C   0  0  0  0  0  0  0  0  0  0  0  0
   10.4317   -4.0575   24.2057 Cl  0  0  0  0  0  0  0  0  0  0  0  0
    8.8126   -2.9456   22.4172 N   0  0  0  0  0  0  0  0  0  0  0  0
    5.7964   -3.1953   23.5433 H   0  0  0  0  0  0  0  0  0  0  0  0
    7.5335   -2.4259   20.2666 H   0  0  0  0  0  0  0  0  0  0  0  0
    5.9535   -2.1756   21.0054 H   0  0  0  0  0  0  0  0  0  0  0  0
    6.6096    0.1705   20.0214 C   0  0  0  0  0  0  0  0  0  0  0  0
    5.3517    0.7701   20.1631 C   0  0  0  0  0  0  0  0  0  0  0  0
    4.7568    1.3467   19.0385 C   0  0  0  0  0  0  0  0  0  0  0  0
    5.4310    1.2826   17.8158 C   0  0  0  0  0  0  0  0  0  0  0  0
    6.6132    0.6685   17.6515 N   0  0  0  0  0  0  0  0  0  0  0  0
    7.1803    0.1351   18.7405 C   0  0  0  0  0  0  0  0  0  0  0  0
    8.1397   -0.3616   18.5990 H   0  0  0  0  0  0  0  0  0  0  0  0
    5.0093    1.7494   16.9273 H   0  0  0  0  0  0  0  0  0  0  0  0
    3.8016    1.8578   19.0985 H   0  0  0  0  0  0  0  0  0  0  0  0
    4.8479    0.7895   21.1326 H   0  0  0  0  0  0  0  0  0  0  0  0
    6.9543   -0.0661   22.1146 H   0  0  0  0  0  0  0  0  0  0  0  0
    9.1723   -0.9459   21.5393 H   0  0  0  0  0  0  0  0  0  0  0  0
  1  2  1  0
  2  3  1  0
  3  4  1  0
  4  5  1  0
  5  6  2  0
  6  7  1  0
  7  8  1  0
  7  9  2  0
  5 10  1  0
  3 11  1  0
  3 12  1  0
  2 13  1  0
 13 14  2  0
 14 15  1  0
 15 16  2  0
 16 17  1  0
 17 18  2  0
 18 19  1  0
 16 20  1  0
 15 21  1  0
 14 22  1  0
  2 23  1  0
  1 24  1  0
  9  4  1  0
 18 13  1  0
M  END
>  <plip>  (1) 
-0.034482758620689655

>  <filename>  (1) 
[H][O][C]([H])([c]1[c]([H])[n][c]([H])[c]([H])[c]1[H])[C]([H])([H])[n]1[n][c]([Cl])[n][c]1[H]

$$$$
