
     RDKit          3D

 46 47  0  0  0  0  0  0  0  0999 V2000
    8.2259    2.5555   21.4223 C   0  0  0  0  0  0  0  0  0  0  0  0
    8.1939    1.2979   22.2728 C   0  0  0  0  0  0  0  0  0  0  0  0
    8.5835    0.0624   21.4622 N   0  0  0  0  0  4  0  0  0  0  0  0
    7.3792   -0.7363   20.9778 C   0  0  0  0  0  0  0  0  0  0  0  0
    6.6508    0.0094   19.9051 C   0  0  0  0  0  0  0  0  0  0  0  0
    5.4344    0.6562   20.1546 C   0  0  0  0  0  0  0  0  0  0  0  0
    4.8043    1.3190   19.1005 C   0  0  0  0  0  0  0  0  0  0  0  0
    5.4036    1.2967   17.8359 C   0  0  0  0  0  0  0  0  0  0  0  0
    6.5703    0.6855   17.5811 N   0  0  0  0  0  0  0  0  0  0  0  0
    7.1798    0.0789   18.6080 C   0  0  0  0  0  0  0  0  0  0  0  0
    8.1251   -0.4141   18.3762 H   0  0  0  0  0  0  0  0  0  0  0  0
    4.9220    1.7842   16.9899 H   0  0  0  0  0  0  0  0  0  0  0  0
    3.8718    1.8481   19.2494 H   0  0  0  0  0  0  0  0  0  0  0  0
    5.0024    0.6442   21.1611 H   0  0  0  0  0  0  0  0  0  0  0  0
    7.7307   -1.7140   20.6244 H   0  0  0  0  0  0  0  0  0  0  0  0
    6.7056   -0.9111   21.8197 H   0  0  0  0  0  0  0  0  0  0  0  0
    9.5565   -0.8111   22.2149 C   0  0  0  0  0  0  0  0  0  0  0  0
    8.9753   -1.4566   23.5024 C   0  0  0  0  0  0  0  0  0  0  0  0
   10.1034   -1.7162   24.5086 C   0  0  0  0  0  0  0  0  0  0  0  0
   10.6060   -0.7837   24.8005 H   0  0  0  0  0  0  0  0  0  0  0  0
    9.7129   -2.1897   25.4144 H   0  0  0  0  0  0  0  0  0  0  0  0
   10.8471   -2.3990   24.0829 H   0  0  0  0  0  0  0  0  0  0  0  0
    8.1648   -2.7313   23.2519 C   0  0  0  0  0  0  0  0  0  0  0  0
    6.8483   -2.8759   23.6971 C   0  0  0  0  0  0  0  0  0  0  0  0
    6.1266   -4.0577   23.4850 C   0  0  0  0  0  0  0  0  0  0  0  0
    6.7268   -5.1356   22.8169 C   0  0  0  0  0  0  0  0  0  0  0  0
    6.1158   -6.3240   22.5541 O   0  0  0  0  0  0  0  0  0  0  0  0
    4.7754   -6.5267   22.9679 C   0  0  0  0  0  0  0  0  0  0  0  0
    4.6473   -6.4745   24.0567 H   0  0  0  0  0  0  0  0  0  0  0  0
    4.5281   -7.5343   22.6680 H   0  0  0  0  0  0  0  0  0  0  0  0
    4.0707   -5.8388   22.4817 H   0  0  0  0  0  0  0  0  0  0  0  0
    8.0577   -5.0140   22.3781 C   0  0  0  0  0  0  0  0  0  0  0  0
    8.7497   -3.8251   22.6076 C   0  0  0  0  0  0  0  0  0  0  0  0
    9.7898   -3.6929   22.3482 H   0  0  0  0  0  0  0  0  0  0  0  0
    8.5126   -5.8650   21.8837 H   0  0  0  0  0  0  0  0  0  0  0  0
    5.1073   -4.1298   23.8404 H   0  0  0  0  0  0  0  0  0  0  0  0
    6.3819   -2.0453   24.2230 H   0  0  0  0  0  0  0  0  0  0  0  0
    8.2922   -0.7204   23.9426 H   0  0  0  0  0  0  0  0  0  0  0  0
    9.9050   -1.6028   21.5429 H   0  0  0  0  0  0  0  0  0  0  0  0
   10.4344   -0.2052   22.4752 H   0  0  0  0  0  0  0  0  0  0  0  0
    9.0142    0.4378   20.5916 H   0  0  0  0  0  0  0  0  0  0  0  0
    8.8883    1.4007   23.1116 H   0  0  0  0  0  0  0  0  0  0  0  0
    7.1909    1.1450   22.6843 H   0  0  0  0  0  0  0  0  0  0  0  0
    7.9339    3.4245   22.0228 H   0  0  0  0  0  0  0  0  0  0  0  0
    7.5294    2.4503   20.5863 H   0  0  0  0  0  0  0  0  0  0  0  0
    9.2346    2.7419   21.0364 H   0  0  0  0  0  0  0  0  0  0  0  0
  1  2  1  0
  2  3  1  0
  3  4  1  0
  4  5  1  0
  5  6  2  0
  6  7  1  0
  7  8  2  0
  8  9  1  0
  9 10  2  0
 10 11  1  0
  8 12  1  0
  7 13  1  0
  6 14  1  0
  4 15  1  0
  4 16  1  0
  3 17  1  0
 17 18  1  0
 18 19  1  0
 19 20  1  0
 19 21  1  0
 19 22  1  0
 18 23  1  0
 23 24  2  0
 24 25  1  0
 25 26  2  0
 26 27  1  0
 27 28  1  0
 28 29  1  0
 28 30  1  0
 28 31  1  0
 26 32  1  0
 32 33  2  0
 33 34  1  0
 32 35  1  0
 25 36  1  0
 24 37  1  0
 18 38  1  0
 17 39  1  0
 17 40  1  0
  3 41  1  0
  2 42  1  0
  2 43  1  0
  1 44  1  0
  1 45  1  0
  1 46  1  0
 10  5  1  0
 33 23  1  0
M  CHG  1   3   1
M  END
>  <plip>  (1) 
-0.03571428571428571

>  <filename>  (1) 
[H][c]1[n][c]([H])[c]([C]([H])([H])[N+]([H])([C]([H])([H])[C]([H])([H])[H])[C]([H])([H])[C]([H])([c]2[c]([H])[c]([H])[c]([O][C]([H])([H])[H])[c]([H])[c]2[H])[C]([H])([H])[H])[c]([H])[c]1[H]

$$$$
