
     RDKit          3D

 45 45  0  0  0  0  0  0  0  0999 V2000
    8.4159    3.0491   26.7440 C   0  0  0  0  0  0  0  0  0  0  0  0
    7.1261    2.8657   25.9433 C   0  0  0  0  0  0  0  0  0  0  0  0
    7.2689    1.8460   24.8080 C   0  0  0  0  0  0  0  0  0  0  0  0
    7.5569    0.4262   25.3036 C   0  0  0  0  0  0  0  0  0  0  0  0
    7.4499   -0.6397   24.2203 C   0  0  0  0  0  0  0  0  0  0  0  0
    7.5536   -2.0549   24.7789 C   0  0  0  0  0  0  0  0  0  0  0  0
    7.3968   -2.9617   23.7014 O   0  0  0  0  0  0  0  0  0  0  0  0
    7.3779   -4.3193   24.0831 C   0  0  0  0  0  0  0  0  0  0  0  0
    8.3549   -4.6550   24.4695 H   0  0  0  0  0  0  0  0  0  0  0  0
    6.6010   -4.5334   24.8383 H   0  0  0  0  0  0  0  0  0  0  0  0
    7.1432   -4.8990   23.1876 H   0  0  0  0  0  0  0  0  0  0  0  0
    8.5350   -2.1937   25.2671 H   0  0  0  0  0  0  0  0  0  0  0  0
    6.7716   -2.2021   25.5412 H   0  0  0  0  0  0  0  0  0  0  0  0
    8.5116   -0.4052   23.1815 N   0  0  0  0  0  4  0  0  0  0  0  0
    8.0982    0.2972   21.9295 C   0  0  0  0  0  0  0  0  0  0  0  0
    9.3237    0.9416   21.3112 C   0  0  0  0  0  0  0  0  0  0  0  0
    9.0355    1.4992   20.4186 H   0  0  0  0  0  0  0  0  0  0  0  0
    9.8029    1.6420   22.0051 H   0  0  0  0  0  0  0  0  0  0  0  0
   10.0598    0.1825   21.0270 H   0  0  0  0  0  0  0  0  0  0  0  0
    7.3769   -0.6972   20.9902 C   0  0  0  0  0  0  0  0  0  0  0  0
    6.6214   -0.0376   19.8459 C   0  0  0  0  0  0  0  0  0  0  0  0
    5.4039    0.6262   20.0849 C   0  0  0  0  0  0  0  0  0  0  0  0
    4.7791    1.3064   19.0416 C   0  0  0  0  0  0  0  0  0  0  0  0
    5.3883    1.3115   17.7853 C   0  0  0  0  0  0  0  0  0  0  0  0
    6.5325    0.6679   17.5139 N   0  0  0  0  0  0  0  0  0  0  0  0
    7.1226    0.0141   18.5258 C   0  0  0  0  0  0  0  0  0  0  0  0
    8.0620   -0.4813   18.2684 H   0  0  0  0  0  0  0  0  0  0  0  0
    4.9474    1.8734   16.9654 H   0  0  0  0  0  0  0  0  0  0  0  0
    3.8594    1.8640   19.1892 H   0  0  0  0  0  0  0  0  0  0  0  0
    4.9591    0.6404   21.0854 H   0  0  0  0  0  0  0  0  0  0  0  0
    8.1246   -1.4178   20.6274 H   0  0  0  0  0  0  0  0  0  0  0  0
    6.6954   -1.2715   21.6299 H   0  0  0  0  0  0  0  0  0  0  0  0
    7.3822    1.0884   22.1919 H   0  0  0  0  0  0  0  0  0  0  0  0
    9.2865    0.1239   23.6422 H   0  0  0  0  0  0  0  0  0  0  0  0
    8.8988   -1.3462   22.9206 H   0  0  0  0  0  0  0  0  0  0  0  0
    6.4634   -0.5581   23.7454 H   0  0  0  0  0  0  0  0  0  0  0  0
    8.5707    0.3844   25.7236 H   0  0  0  0  0  0  0  0  0  0  0  0
    6.8707    0.1768   26.1224 H   0  0  0  0  0  0  0  0  0  0  0  0
    8.0756    2.1722   24.1352 H   0  0  0  0  0  0  0  0  0  0  0  0
    6.3567    1.8441   24.1955 H   0  0  0  0  0  0  0  0  0  0  0  0
    6.3308    2.5337   26.6242 H   0  0  0  0  0  0  0  0  0  0  0  0
    6.7832    3.8244   25.5334 H   0  0  0  0  0  0  0  0  0  0  0  0
    8.3263    3.8300   27.5034 H   0  0  0  0  0  0  0  0  0  0  0  0
    9.2606    3.3062   26.0941 H   0  0  0  0  0  0  0  0  0  0  0  0
    8.6785    2.1284   27.2729 H   0  0  0  0  0  0  0  0  0  0  0  0
  1  2  1  0
  2  3  1  0
  3  4  1  0
  4  5  1  0
  5  6  1  0
  6  7  1  0
  7  8  1  0
  8  9  1  0
  8 10  1  0
  8 11  1  0
  6 12  1  0
  6 13  1  0
  5 14  1  0
 14 15  1  0
 15 16  1  0
 16 17  1  0
 16 18  1  0
 16 19  1  0
 15 20  1  0
 20 21  1  0
 21 22  2  0
 22 23  1  0
 23 24  2  0
 24 25  1  0
 25 26  2  0
 26 27  1  0
 24 28  1  0
 23 29  1  0
 22 30  1  0
 20 31  1  0
 20 32  1  0
 15 33  1  0
 14 34  1  0
 14 35  1  0
  5 36  1  0
  4 37  1  0
  4 38  1  0
  3 39  1  0
  3 40  1  0
  2 41  1  0
  2 42  1  0
  1 43  1  0
  1 44  1  0
  1 45  1  0
 26 21  1  0
M  CHG  1  14   1
M  END
>  <plip>  (1) 
-0.07142857142857142

>  <filename>  (1) 
[H][c]1[n][c]([H])[c]([C]([H])([H])[C]([H])([C]([H])([H])[H])[N+]([H])([H])[C]([H])([C]([H])([H])[O][C]([H])([H])[H])[C]([H])([H])[C]([H])([H])[C]([H])([H])[C]([H])([H])[H])[c]([H])[c]1[H]

$$$$
