
     RDKit          3D

 38 39  0  0  0  0  0  0  0  0999 V2000
    7.5835   -4.2282   21.6048 C   0  0  0  0  0  0  0  0  0  0  0  0
    8.1105   -2.8233   21.8756 C   0  0  1  0  0  0  0  0  0  0  0  0
    9.6529   -2.6858   22.0438 C   0  0  0  0  0  0  0  0  0  0  0  0
   10.3070   -3.4171   23.2252 N   0  0  0  0  0  4  0  0  0  0  0  0
   10.1138   -4.4325   23.2052 H   0  0  0  0  0  0  0  0  0  0  0  0
    9.9842   -3.0605   24.1416 H   0  0  0  0  0  0  0  0  0  0  0  0
   11.3351   -3.3156   23.1773 H   0  0  0  0  0  0  0  0  0  0  0  0
   10.0917   -3.0154   21.1018 H   0  0  0  0  0  0  0  0  0  0  0  0
    9.8907   -1.6266   22.1287 H   0  0  0  0  0  0  0  0  0  0  0  0
    7.6466   -1.9455   20.7358 N   0  0  0  0  0  4  0  0  0  0  0  0
    7.4111   -0.4673   21.0534 C   0  0  0  0  0  0  0  0  0  0  0  0
    6.6310    0.0474   19.8790 C   0  0  0  0  0  0  0  0  0  0  0  0
    5.3997    0.6872   20.0943 C   0  0  0  0  0  0  0  0  0  0  0  0
    4.7821    1.3245   19.0212 C   0  0  0  0  0  0  0  0  0  0  0  0
    5.3944    1.2682   17.7657 C   0  0  0  0  0  0  0  0  0  0  0  0
    6.5293    0.5950   17.5275 N   0  0  0  0  0  0  0  0  0  0  0  0
    7.1185   -0.0092   18.5661 C   0  0  0  0  0  0  0  0  0  0  0  0
    8.0482   -0.5343   18.3439 H   0  0  0  0  0  0  0  0  0  0  0  0
    4.9437    1.7684   16.9092 H   0  0  0  0  0  0  0  0  0  0  0  0
    3.8485    1.8657   19.1406 H   0  0  0  0  0  0  0  0  0  0  0  0
    4.9370    0.6728   21.0850 H   0  0  0  0  0  0  0  0  0  0  0  0
    8.6328    0.3820   21.5563 C   0  0  0  0  0  0  0  0  0  0  0  0
    8.6795    0.7055   22.9323 C   0  0  0  0  0  0  0  0  0  0  0  0
    9.7777    1.3965   23.4475 C   0  0  0  0  0  0  0  0  0  0  0  0
   10.7877    1.7710   22.5600 C   0  0  0  0  0  0  0  0  0  0  0  0
   10.6588    1.4354   21.2132 C   0  0  0  0  0  0  0  0  0  0  0  0
    9.6161    0.7496   20.7105 N   0  0  0  0  0  0  0  0  0  0  0  0
   11.4378    1.7185   20.5066 H   0  0  0  0  0  0  0  0  0  0  0  0
   11.6575    2.3235   22.8916 H   0  0  0  0  0  0  0  0  0  0  0  0
    9.8479    1.6377   24.5097 H   0  0  0  0  0  0  0  0  0  0  0  0
    7.8777    0.3922   23.5910 H   0  0  0  0  0  0  0  0  0  0  0  0
    6.7412   -0.4433   21.9144 H   0  0  0  0  0  0  0  0  0  0  0  0
    6.7387   -2.2777   20.3149 H   0  0  0  0  0  0  0  0  0  0  0  0
    8.3573   -1.9634   19.9533 H   0  0  0  0  0  0  0  0  0  0  0  0
    7.6557   -2.4578   22.8028 H   0  0  0  0  0  0  0  0  0  0  0  0
    8.0525   -4.6850   20.7296 H   0  0  0  0  0  0  0  0  0  0  0  0
    6.5039   -4.1861   21.4228 H   0  0  0  0  0  0  0  0  0  0  0  0
    7.7202   -4.9042   22.4528 H   0  0  0  0  0  0  0  0  0  0  0  0
  1  2  1  0
  2  3  1  0
  3  4  1  0
  4  5  1  0
  4  6  1  0
  4  7  1  0
  3  8  1  0
  3  9  1  0
  2 10  1  0
 10 11  1  0
 11 12  1  0
 12 13  2  0
 13 14  1  0
 14 15  2  0
 15 16  1  0
 16 17  2  0
 17 18  1  0
 15 19  1  0
 14 20  1  0
 13 21  1  0
 11 22  1  0
 22 23  2  0
 23 24  1  0
 24 25  2  0
 25 26  1  0
 26 27  2  0
 26 28  1  0
 25 29  1  0
 24 30  1  0
 23 31  1  0
 11 32  1  0
 10 33  1  0
 10 34  1  0
  2 35  1  1
  1 36  1  0
  1 37  1  0
  1 38  1  0
 17 12  1  0
 27 22  1  0
M  CHG  2   4   1  10   1
M  END
>  <plip>  (1) 
-0.1

>  <filename>  (1) 
[H][c]1[n][c]([C]([H])([c]2[c]([H])[n][c]([H])[c]([H])[c]2[H])[N+]([H])([H])[C@@]([H])([C]([H])([H])[H])[C]([H])([H])[N+]([H])([H])[H])[c]([H])[c]([H])[c]1[H]

$$$$
