
     RDKit          3D

 36 38  0  0  0  0  0  0  0  0999 V2000
    8.3293    0.3563   22.1493 C   0  0  0  0  0  0  0  0  0  0  0  0
    7.5655   -0.8540   21.1334 S   0  0  0  0  0  0  0  0  0  0  0  0
    8.5436   -1.7422   20.5244 O   0  0  0  0  0  0  0  0  0  0  0  0
    6.3704   -1.5109   22.0772 N   0  0  0  0  0  0  0  0  0  0  0  0
    6.9012   -2.2534   23.0357 C   0  0  0  0  0  0  0  0  0  0  0  0
    8.1008   -2.3229   23.3234 O   0  0  0  0  0  0  0  0  0  0  0  0
    5.8069   -3.0478   23.9339 C   0  0  2  0  0  0  0  0  0  0  0  0
    5.5962   -2.3196   25.3121 C   0  0  0  0  0  0  0  0  0  0  0  0
    5.8460   -3.3901   26.3512 C   0  0  0  0  0  0  0  0  0  0  0  0
    5.8177   -3.3326   27.7435 C   0  0  0  0  0  0  0  0  0  0  0  0
    6.1034   -4.4864   28.4929 C   0  0  0  0  0  0  0  0  0  0  0  0
    6.4253   -5.6882   27.8419 C   0  0  0  0  0  0  0  0  0  0  0  0
    6.4389   -5.7590   26.4445 C   0  0  0  0  0  0  0  0  0  0  0  0
    6.1222   -4.6036   25.7143 C   0  0  0  0  0  0  0  0  0  0  0  0
    6.0054   -4.4655   24.3477 N   0  0  0  0  0  0  0  0  0  0  0  0
    6.3065   -5.2138   23.7474 H   0  0  0  0  0  0  0  0  0  0  0  0
    6.6841   -6.6877   25.9393 H   0  0  0  0  0  0  0  0  0  0  0  0
    6.6577   -6.5763   28.4298 H   0  0  0  0  0  0  0  0  0  0  0  0
    6.0862   -4.4421   29.5794 H   0  0  0  0  0  0  0  0  0  0  0  0
    5.5808   -2.3954   28.2490 H   0  0  0  0  0  0  0  0  0  0  0  0
    4.5726   -1.9261   25.3928 H   0  0  0  0  0  0  0  0  0  0  0  0
    6.2738   -1.4649   25.4496 H   0  0  0  0  0  0  0  0  0  0  0  0
    4.9037   -2.9844   23.3122 H   0  0  0  0  0  0  0  0  0  0  0  0
    6.6377    0.0077   19.9587 C   0  0  0  0  0  0  0  0  0  0  0  0
    5.4222    0.6468   20.2244 C   0  0  0  0  0  0  0  0  0  0  0  0
    4.8244    1.2916   19.1461 C   0  0  0  0  0  0  0  0  0  0  0  0
    5.4454    1.2547   17.8938 C   0  0  0  0  0  0  0  0  0  0  0  0
    6.6074    0.6241   17.6588 N   0  0  0  0  0  0  0  0  0  0  0  0
    7.1944    0.0108   18.6817 C   0  0  0  0  0  0  0  0  0  0  0  0
    8.1431   -0.4870   18.4755 H   0  0  0  0  0  0  0  0  0  0  0  0
    4.9906    1.7487   17.0390 H   0  0  0  0  0  0  0  0  0  0  0  0
    3.8895    1.8284   19.2645 H   0  0  0  0  0  0  0  0  0  0  0  0
    4.9385    0.6458   21.2054 H   0  0  0  0  0  0  0  0  0  0  0  0
    7.5577    0.9721   22.6095 H   0  0  0  0  0  0  0  0  0  0  0  0
    8.8827   -0.2188   22.8860 H   0  0  0  0  0  0  0  0  0  0  0  0
    8.9890    0.9348   21.5039 H   0  0  0  0  0  0  0  0  0  0  0  0
  1  2  1  0
  2  3  2  0
  2  4  2  0
  4  5  1  0
  5  6  2  0
  5  7  1  0
  7  8  1  0
  8  9  1  0
  9 10  2  0
 10 11  1  0
 11 12  2  0
 12 13  1  0
 13 14  2  0
 14 15  1  0
 15 16  1  0
 13 17  1  0
 12 18  1  0
 11 19  1  0
 10 20  1  0
  8 21  1  0
  8 22  1  0
  7 23  1  6
  2 24  1  0
 24 25  2  0
 25 26  1  0
 26 27  2  0
 27 28  1  0
 28 29  2  0
 29 30  1  0
 27 31  1  0
 26 32  1  0
 25 33  1  0
  1 34  1  0
  1 35  1  0
  1 36  1  0
 15  7  1  0
 29 24  1  0
 14  9  1  0
M  END
>  <plip>  (1) 
-0.06896551724137931

>  <filename>  (1) 
[H][c]1[n][c]([H])[c]([S](=[O])(=[N][C](=[O])[C@@]2([H])[N]([H])[c]3[c]([H])[c]([H])[c]([H])[c]([H])[c]3[C]2([H])[H])[C]([H])([H])[H])[c]([H])[c]1[H]

$$$$
