
     RDKit          3D

 41 43  0  0  0  0  0  0  0  0999 V2000
    8.8522   -1.0679   20.7686 C   0  0  0  0  0  0  0  0  0  0  0  0
    7.3783   -0.7120   21.0554 C   0  0  0  0  0  0  0  0  0  0  0  0
    7.3330    0.1585   22.2472 N   0  0  0  0  0  0  0  0  0  0  0  0
    7.8364    1.4371   22.2692 C   0  0  0  0  0  0  0  0  0  0  0  0
    8.3412    1.9538   21.2858 O   0  0  0  0  0  0  0  0  0  0  0  0
    7.6673    2.2191   23.5993 C   0  0  0  0  0  0  0  0  0  0  0  0
    6.2710    2.8923   23.6573 C   0  0  0  0  0  0  0  0  0  0  0  0
    5.1944    1.9730   24.2260 C   0  0  0  0  0  0  0  0  0  0  0  0
    5.5058    1.6280   25.9749 S   0  0  0  0  0  0  0  0  0  0  0  0
    7.1546    0.9966   25.8493 C   0  0  0  0  0  0  0  0  0  0  0  0
    7.5657    0.0891   26.8415 C   0  0  0  0  0  0  0  0  0  0  0  0
    8.8581   -0.4306   26.8362 C   0  0  0  0  0  0  0  0  0  0  0  0
    9.7635   -0.0226   25.8539 C   0  0  0  0  0  0  0  0  0  0  0  0
    9.3553    0.8717   24.8657 C   0  0  0  0  0  0  0  0  0  0  0  0
    8.0444    1.3829   24.8228 C   0  0  0  0  0  0  0  0  0  0  0  0
   10.0512    1.1700   24.0877 H   0  0  0  0  0  0  0  0  0  0  0  0
   10.7697   -0.4252   25.8389 H   0  0  0  0  0  0  0  0  0  0  0  0
    9.1546   -1.1568   27.5878 H   0  0  0  0  0  0  0  0  0  0  0  0
    6.8597   -0.2103   27.6101 H   0  0  0  0  0  0  0  0  0  0  0  0
    4.2024    2.4289   24.1925 H   0  0  0  0  0  0  0  0  0  0  0  0
    5.1431    1.0200   23.6802 H   0  0  0  0  0  0  0  0  0  0  0  0
    6.3501    3.7892   24.2797 H   0  0  0  0  0  0  0  0  0  0  0  0
    5.9735    3.2274   22.6540 H   0  0  0  0  0  0  0  0  0  0  0  0
    8.4162    3.0138   23.4785 H   0  0  0  0  0  0  0  0  0  0  0  0
    7.0872   -0.2162   23.1482 H   0  0  0  0  0  0  0  0  0  0  0  0
    6.4625   -2.3762   21.2347 C   0  0  0  0  0  0  0  0  0  0  0  0
    5.5945   -2.4407   22.0911 O   0  0  0  0  0  0  0  0  0  0  0  0
    6.8579   -3.1903   20.4126 O   0  0  0  0  0  1  0  0  0  0  0  0
    6.6777    0.0103   19.9016 C   0  0  0  0  0  0  0  0  0  0  0  0
    5.4346    0.6240   20.1215 C   0  0  0  0  0  0  0  0  0  0  0  0
    4.7973    1.2872   19.0742 C   0  0  0  0  0  0  0  0  0  0  0  0
    5.4181    1.2927   17.8185 C   0  0  0  0  0  0  0  0  0  0  0  0
    6.5887    0.6930   17.5668 N   0  0  0  0  0  0  0  0  0  0  0  0
    7.1967    0.0809   18.5972 C   0  0  0  0  0  0  0  0  0  0  0  0
    8.1525   -0.3869   18.3633 H   0  0  0  0  0  0  0  0  0  0  0  0
    4.9404    1.7915   16.9795 H   0  0  0  0  0  0  0  0  0  0  0  0
    3.8580    1.8118   19.2222 H   0  0  0  0  0  0  0  0  0  0  0  0
    5.0018    0.6139   21.1251 H   0  0  0  0  0  0  0  0  0  0  0  0
    9.4186   -0.1589   20.5334 H   0  0  0  0  0  0  0  0  0  0  0  0
    8.9327   -1.7786   19.9445 H   0  0  0  0  0  0  0  0  0  0  0  0
    9.3104   -1.5230   21.6540 H   0  0  0  0  0  0  0  0  0  0  0  0
  1  2  1  0
  2  3  1  0
  3  4  1  0
  4  5  2  0
  4  6  1  0
  6  7  1  0
  7  8  1  0
  8  9  1  0
  9 10  1  0
 10 11  2  0
 11 12  1  0
 12 13  2  0
 13 14  1  0
 14 15  2  0
 14 16  1  0
 13 17  1  0
 12 18  1  0
 11 19  1  0
  8 20  1  0
  8 21  1  0
  7 22  1  0
  7 23  1  0
  6 24  1  0
  3 25  1  0
  2 26  1  0
 26 27  2  0
 26 28  1  0
  2 29  1  0
 29 30  2  0
 30 31  1  0
 31 32  2  0
 32 33  1  0
 33 34  2  0
 34 35  1  0
 32 36  1  0
 31 37  1  0
 30 38  1  0
  1 39  1  0
  1 40  1  0
  1 41  1  0
 15  6  1  0
 34 29  1  0
 15 10  1  0
M  CHG  1  28  -1
M  END
>  <plip>  (1) 
-0.1

>  <filename>  (1) 
[H][c]1[n][c]([H])[c]([C]([C](=[O])[O-])([N]([H])[C](=[O])[C]2([H])[c]3[c]([H])[c]([H])[c]([H])[c]([H])[c]3[S][C]([H])([H])[C]2([H])[H])[C]([H])([H])[H])[c]([H])[c]1[H]

$$$$
