
     RDKit          3D

 44 47  0  0  0  0  0  0  0  0999 V2000
    9.6254    0.6968   20.3363 O   0  0  0  0  0  0  0  0  0  0  0  0
    9.1069    1.0585   21.3755 C   0  0  0  0  0  0  0  0  0  0  0  0
    8.1078    0.3650   22.0107 N   0  0  0  0  0  0  0  0  0  0  0  0
    7.1833   -0.5480   21.3250 C   0  0  0  0  0  0  0  0  0  0  0  0
    6.5503    0.1262   20.1078 C   0  0  0  0  0  0  0  0  0  0  0  0
    5.3252    0.7983   20.2067 C   0  0  0  0  0  0  0  0  0  0  0  0
    4.7721    1.3832   19.0614 C   0  0  0  0  0  0  0  0  0  0  0  0
    5.4774    1.2864   17.8563 C   0  0  0  0  0  0  0  0  0  0  0  0
    6.6671    0.6814   17.7450 N   0  0  0  0  0  0  0  0  0  0  0  0
    7.1915    0.1417   18.8577 C   0  0  0  0  0  0  0  0  0  0  0  0
    8.1851   -0.2888   18.7499 H   0  0  0  0  0  0  0  0  0  0  0  0
    5.0712    1.7135   16.9403 H   0  0  0  0  0  0  0  0  0  0  0  0
    3.8203    1.9039   19.0856 H   0  0  0  0  0  0  0  0  0  0  0  0
    4.8000    0.8582   21.1623 H   0  0  0  0  0  0  0  0  0  0  0  0
    7.7989   -1.9461   21.0167 C   0  0  0  0  0  0  0  0  0  0  0  0
    8.6007   -2.6097   22.1652 C   0  0  0  0  0  0  0  0  0  0  0  0
    7.7510   -3.8274   22.5565 C   0  0  0  0  0  0  0  0  0  0  0  0
    7.0154   -4.1267   21.2522 C   0  0  0  0  0  0  0  0  0  0  0  0
    6.7349   -2.8497   20.6972 O   0  0  0  0  0  0  0  0  0  0  0  0
    7.6320   -4.7283   20.5642 H   0  0  0  0  0  0  0  0  0  0  0  0
    6.0660   -4.6543   21.3935 H   0  0  0  0  0  0  0  0  0  0  0  0
    8.3602   -4.6638   22.9177 H   0  0  0  0  0  0  0  0  0  0  0  0
    7.0256   -3.5764   23.3408 H   0  0  0  0  0  0  0  0  0  0  0  0
    8.7886   -1.9228   22.9967 H   0  0  0  0  0  0  0  0  0  0  0  0
    9.5779   -2.9308   21.7789 H   0  0  0  0  0  0  0  0  0  0  0  0
    8.4502   -1.8361   20.1441 H   0  0  0  0  0  0  0  0  0  0  0  0
    6.3799   -0.7639   22.0415 H   0  0  0  0  0  0  0  0  0  0  0  0
    7.7438    0.8498   22.8090 H   0  0  0  0  0  0  0  0  0  0  0  0
    9.5418    2.1870   22.0779 N   0  0  0  0  0  0  0  0  0  0  0  0
   10.9269    2.6854   21.9415 C   0  0  0  0  0  0  0  0  0  0  0  0
   10.9812    3.9569   22.8365 C   0  0  0  0  0  0  0  0  0  0  0  0
    9.5424    4.2085   23.1856 C   0  0  0  0  0  0  0  0  0  0  0  0
    9.0810    5.2393   23.8985 N   0  0  0  0  0  0  0  0  0  0  0  0
    7.7741    5.2760   24.0480 C   0  0  0  0  0  0  0  0  0  0  0  0
    7.2876    6.2917   24.7650 F   0  0  0  0  0  0  0  0  0  0  0  0
    6.8525    4.3547   23.5194 C   0  0  0  0  0  0  0  0  0  0  0  0
    7.3498    3.2739   22.7962 C   0  0  0  0  0  0  0  0  0  0  0  0
    8.7428    3.1738   22.6757 C   0  0  0  0  0  0  0  0  0  0  0  0
    6.6740    2.5720   22.3028 H   0  0  0  0  0  0  0  0  0  0  0  0
    5.7957    4.5076   23.6954 H   0  0  0  0  0  0  0  0  0  0  0  0
   11.4158    4.8198   22.3205 H   0  0  0  0  0  0  0  0  0  0  0  0
   11.5652    3.7979   23.7495 H   0  0  0  0  0  0  0  0  0  0  0  0
   11.1501    2.9116   20.8896 H   0  0  0  0  0  0  0  0  0  0  0  0
   11.6450    1.9257   22.2746 H   0  0  0  0  0  0  0  0  0  0  0  0
  1  2  2  0
  2  3  1  0
  3  4  1  0
  4  5  1  0
  5  6  2  0
  6  7  1  0
  7  8  2  0
  8  9  1  0
  9 10  2  0
 10 11  1  0
  8 12  1  0
  7 13  1  0
  6 14  1  0
  4 15  1  0
 15 16  1  0
 16 17  1  0
 17 18  1  0
 18 19  1  0
 18 20  1  0
 18 21  1  0
 17 22  1  0
 17 23  1  0
 16 24  1  0
 16 25  1  0
 15 26  1  0
  4 27  1  0
  3 28  1  0
  2 29  1  0
 29 30  1  0
 30 31  1  0
 31 32  1  0
 32 33  2  0
 33 34  1  0
 34 35  1  0
 34 36  2  0
 36 37  1  0
 37 38  2  0
 37 39  1  0
 36 40  1  0
 31 41  1  0
 31 42  1  0
 30 43  1  0
 30 44  1  0
 10  5  1  0
 19 15  1  0
 38 29  1  0
 38 32  1  0
M  END
>  <plip>  (1) 
-0.10714285714285714

>  <filename>  (1) 
[H][c]1[n][c]([H])[c]([C]([H])([N]([H])[C](=[O])[N]2[c]3[c]([n][c]([F])[c]([H])[c]3[H])[C]([H])([H])[C]2([H])[H])[C]2([H])[O][C]([H])([H])[C]([H])([H])[C]2([H])[H])[c]([H])[c]1[H]

$$$$
