
     RDKit          3D

 30 31  0  0  0  0  0  0  0  0999 V2000
    4.9336    1.8080   16.9882 H   0  0  0  0  0  0  0  0  0  0  0  0
    5.3975    1.3032   17.8300 C   0  0  0  0  0  0  0  0  0  0  0  0
    6.5544    0.6690   17.5753 N   0  0  0  0  0  0  0  0  0  0  0  0
    7.1606    0.0430   18.5948 C   0  0  0  0  0  0  0  0  0  0  0  0
    8.1054   -0.4483   18.3526 H   0  0  0  0  0  0  0  0  0  0  0  0
    6.6675    0.0222   19.9307 C   0  0  0  0  0  0  0  0  0  0  0  0
    7.3062   -0.6461   21.0027 N   0  0  0  0  0  0  0  0  0  0  0  0
    7.7886   -2.0031   20.8041 C   0  0  0  0  0  0  0  0  0  0  0  0
    7.0192   -2.6108   20.3105 H   0  0  0  0  0  0  0  0  0  0  0  0
    8.7051   -2.0304   20.1946 H   0  0  0  0  0  0  0  0  0  0  0  0
    8.0157   -2.4701   21.7662 H   0  0  0  0  0  0  0  0  0  0  0  0
    7.6932    0.0472   22.2429 C   0  0  1  0  0  0  0  0  0  0  0  0
    7.3271    1.0808   22.1821 H   0  0  0  0  0  0  0  0  0  0  0  0
    7.0014   -0.4981   23.4966 C   0  0  0  0  0  0  0  0  0  0  0  0
    6.1691    0.1338   24.2553 N   0  0  0  0  0  0  0  0  0  0  0  0
    5.8747   -0.7092   25.3211 N   0  0  0  0  0  0  0  0  0  0  0  0
    6.5466   -1.7904   25.1282 C   0  0  0  0  0  0  0  0  0  0  0  0
    6.6296   -2.9983   25.9905 C   0  0  0  0  0  0  0  0  0  0  0  0
    6.0953   -2.8061   26.9223 H   0  0  0  0  0  0  0  0  0  0  0  0
    6.1904   -3.8740   25.5031 H   0  0  0  0  0  0  0  0  0  0  0  0
    7.6727   -3.2304   26.2185 H   0  0  0  0  0  0  0  0  0  0  0  0
    7.2876   -1.7423   23.9883 O   0  0  0  0  0  0  0  0  0  0  0  0
    9.2352    0.1125   22.3963 C   0  0  0  0  0  0  0  0  0  0  0  0
    9.6890   -0.8787   22.4916 H   0  0  0  0  0  0  0  0  0  0  0  0
    9.6891    0.5944   21.5254 H   0  0  0  0  0  0  0  0  0  0  0  0
    9.5222    0.6915   23.2771 H   0  0  0  0  0  0  0  0  0  0  0  0
    5.4504    0.6966   20.1585 C   0  0  0  0  0  0  0  0  0  0  0  0
    5.0420    0.6873   21.1672 H   0  0  0  0  0  0  0  0  0  0  0  0
    4.8039    1.3315   19.0957 C   0  0  0  0  0  0  0  0  0  0  0  0
    3.8644    1.8568   19.2394 H   0  0  0  0  0  0  0  0  0  0  0  0
  1  2  1  0
  2  3  2  0
  3  4  1  0
  4  5  1  0
  4  6  2  0
  6  7  1  0
  7  8  1  0
  8  9  1  0
  8 10  1  0
  8 11  1  0
  7 12  1  0
 12 13  1  6
 12 14  1  0
 14 15  2  0
 15 16  1  0
 16 17  2  0
 17 18  1  0
 18 19  1  0
 18 20  1  0
 18 21  1  0
 17 22  1  0
 12 23  1  0
 23 24  1  0
 23 25  1  0
 23 26  1  0
  6 27  1  0
 27 28  1  0
 27 29  2  0
 29 30  1  0
 29  2  1  0
 22 14  1  0
M  END
>  <plip>  (1) 
-0.07142857142857142

>  <filename>  (1) 
[H][c]1[n][c]([H])[c]([N]([C]([H])([H])[H])[C@@]([H])([c]2[n][n][c]([C]([H])([H])[H])[o]2)[C]([H])([H])[H])[c]([H])[c]1[H]

$$$$
