
     RDKit          3D

 31 33  0  0  0  0  0  0  0  0999 V2000
    4.9484    1.7977   16.9905 H   0  0  0  0  0  0  0  0  0  0  0  0
    5.4116    1.2956   17.8358 C   0  0  0  0  0  0  0  0  0  0  0  0
    6.5723    0.6672   17.5905 N   0  0  0  0  0  0  0  0  0  0  0  0
    7.1761    0.0494   18.6174 C   0  0  0  0  0  0  0  0  0  0  0  0
    8.1171   -0.4357   18.3634 H   0  0  0  0  0  0  0  0  0  0  0  0
    6.6743    0.0063   19.9544 C   0  0  0  0  0  0  0  0  0  0  0  0
    7.3330   -0.6550   20.9952 N   0  0  0  0  0  0  0  0  0  0  0  0
    8.2635   -1.7276   20.7509 C   0  0  0  0  0  0  0  0  0  0  0  0
    7.7176   -2.4574   20.1650 H   0  0  0  0  0  0  0  0  0  0  0  0
    9.1516   -1.3811   20.2085 H   0  0  0  0  0  0  0  0  0  0  0  0
    8.5579   -2.2808   22.1455 C   0  0  0  0  0  0  0  0  0  0  0  0
    8.0585   -3.2463   22.2796 H   0  0  0  0  0  0  0  0  0  0  0  0
    9.6217   -2.4269   22.3678 H   0  0  0  0  0  0  0  0  0  0  0  0
    8.0393   -1.3341   23.0588 O   0  0  0  0  0  0  0  0  0  0  0  0
    7.1986   -0.4004   22.4077 C   0  0  1  0  0  0  0  0  0  0  0  0
    6.1648   -0.5500   22.7580 H   0  0  0  0  0  0  0  0  0  0  0  0
    7.6385    1.0111   22.7928 C   0  0  0  0  0  0  0  0  0  0  0  0
    6.9733    1.7448   22.3251 H   0  0  0  0  0  0  0  0  0  0  0  0
    7.5724    1.0951   23.8795 H   0  0  0  0  0  0  0  0  0  0  0  0
    9.0017    1.2986   22.3699 N   0  0  0  0  0  0  0  0  0  0  0  0
   10.1499    0.9038   22.9815 C   0  0  0  0  0  0  0  0  0  0  0  0
   10.1321    0.3904   23.9355 H   0  0  0  0  0  0  0  0  0  0  0  0
   11.2145    1.2161   22.2880 N   0  0  0  0  0  0  0  0  0  0  0  0
   10.7414    1.8270   21.1514 C   0  0  0  0  0  0  0  0  0  0  0  0
   11.4404    2.1997   20.4084 H   0  0  0  0  0  0  0  0  0  0  0  0
    9.3726    1.8665   21.1737 C   0  0  0  0  0  0  0  0  0  0  0  0
    8.6097    2.2092   20.4867 H   0  0  0  0  0  0  0  0  0  0  0  0
    5.4457    0.6643   20.1686 C   0  0  0  0  0  0  0  0  0  0  0  0
    5.0000    0.6536   21.1616 H   0  0  0  0  0  0  0  0  0  0  0  0
    4.8171    1.3115   19.1009 C   0  0  0  0  0  0  0  0  0  0  0  0
    3.8779    1.8372   19.2464 H   0  0  0  0  0  0  0  0  0  0  0  0
  1  2  1  0
  2  3  2  0
  3  4  1  0
  4  5  1  0
  4  6  2  0
  6  7  1  0
  7  8  1  0
  8  9  1  0
  8 10  1  0
  8 11  1  0
 11 12  1  0
 11 13  1  0
 11 14  1  0
 14 15  1  0
 15 16  1  1
 15 17  1  0
 17 18  1  0
 17 19  1  0
 17 20  1  0
 20 21  1  0
 21 22  1  0
 21 23  2  0
 23 24  1  0
 24 25  1  0
 24 26  2  0
 26 27  1  0
  6 28  1  0
 28 29  1  0
 28 30  2  0
 30 31  1  0
 30  2  1  0
 15  7  1  0
 26 20  1  0
M  END
>  <plip>  (1) 
-0.03571428571428571

>  <filename>  (1) 
[H][c]1[n][c]([H])[c]([N]2[C]([H])([H])[C]([H])([H])[O][C@@]2([H])[C]([H])([H])[n]2[c]([H])[n][c]([H])[c]2[H])[c]([H])[c]1[H]

$$$$
