
     RDKit          3D

 35 37  0  0  0  0  0  0  0  0999 V2000
    6.0266   -5.7806   20.7041 C   0  0  0  0  0  0  0  0  0  0  0  0
    7.0448   -5.1288   21.5917 C   0  0  0  0  0  0  0  0  0  0  0  0
    7.5475   -3.8353   21.2481 C   0  0  0  0  0  0  0  0  0  0  0  0
    8.5820   -3.2674   21.9519 C   0  0  0  0  0  0  0  0  0  0  0  0
    9.2396   -1.9375   21.5856 C   0  0  0  0  0  0  0  0  0  0  0  0
    8.5152   -1.1781   20.6151 O   0  0  0  0  0  0  0  0  0  0  0  0
    7.3823   -0.5658   21.0413 C   0  0  0  0  0  0  0  0  0  0  0  0
    7.0115   -0.5657   22.1924 O   0  0  0  0  0  0  0  0  0  0  0  0
    6.6625    0.0737   19.9212 C   0  0  0  0  0  0  0  0  0  0  0  0
    5.4317    0.7167   20.1282 C   0  0  0  0  0  0  0  0  0  0  0  0
    4.8292    1.3291   19.0335 C   0  0  0  0  0  0  0  0  0  0  0  0
    5.4712    1.2765   17.7905 C   0  0  0  0  0  0  0  0  0  0  0  0
    6.6337    0.6392   17.5822 N   0  0  0  0  0  0  0  0  0  0  0  0
    7.2075    0.0503   18.6338 C   0  0  0  0  0  0  0  0  0  0  0  0
    8.1442   -0.4670   18.4353 H   0  0  0  0  0  0  0  0  0  0  0  0
    5.0335    1.7602   16.9191 H   0  0  0  0  0  0  0  0  0  0  0  0
    3.8863    1.8589   19.1251 H   0  0  0  0  0  0  0  0  0  0  0  0
    4.9776    0.7355   21.1212 H   0  0  0  0  0  0  0  0  0  0  0  0
    9.3749   -1.3360   22.4959 H   0  0  0  0  0  0  0  0  0  0  0  0
   10.2252   -2.1120   21.1378 H   0  0  0  0  0  0  0  0  0  0  0  0
    9.0731   -3.9870   23.0901 C   0  0  0  0  0  0  0  0  0  0  0  0
   10.1508   -3.5346   23.9031 C   0  0  0  0  0  0  0  0  0  0  0  0
   10.4986   -4.2268   25.0387 C   0  0  0  0  0  0  0  0  0  0  0  0
    9.7888   -5.3861   25.4360 C   0  0  0  0  0  0  0  0  0  0  0  0
    8.7734   -5.8626   24.6417 C   0  0  0  0  0  0  0  0  0  0  0  0
    8.4150   -5.2094   23.4350 C   0  0  0  0  0  0  0  0  0  0  0  0
    7.4431   -5.7854   22.6557 N   0  0  0  0  0  0  0  0  0  0  0  0
    8.1878   -6.7258   24.9011 H   0  0  0  0  0  0  0  0  0  0  0  0
   10.0430   -5.8913   26.3666 H   0  0  0  0  0  0  0  0  0  0  0  0
   11.3156   -3.8889   25.6491 H   0  0  0  0  0  0  0  0  0  0  0  0
   10.6751   -2.6257   23.6195 H   0  0  0  0  0  0  0  0  0  0  0  0
    7.0705   -3.3000   20.4362 H   0  0  0  0  0  0  0  0  0  0  0  0
    5.5638   -6.6190   21.2240 H   0  0  0  0  0  0  0  0  0  0  0  0
    5.2515   -5.0718   20.4115 H   0  0  0  0  0  0  0  0  0  0  0  0
    6.4856   -6.1495   19.7816 H   0  0  0  0  0  0  0  0  0  0  0  0
  1  2  1  0
  2  3  2  0
  3  4  1  0
  4  5  1  0
  5  6  1  0
  6  7  1  0
  7  8  2  0
  7  9  1  0
  9 10  2  0
 10 11  1  0
 11 12  2  0
 12 13  1  0
 13 14  2  0
 14 15  1  0
 12 16  1  0
 11 17  1  0
 10 18  1  0
  5 19  1  0
  5 20  1  0
  4 21  2  0
 21 22  1  0
 22 23  2  0
 23 24  1  0
 24 25  2  0
 25 26  1  0
 26 27  2  0
 25 28  1  0
 24 29  1  0
 23 30  1  0
 22 31  1  0
  3 32  1  0
  1 33  1  0
  1 34  1  0
  1 35  1  0
 27  2  1  0
 14  9  1  0
 26 21  1  0
M  END
>  <plip>  (1) 
-0.1

>  <filename>  (1) 
[H][c]1[n][c]([H])[c]([C](=[O])[O][C]([H])([H])[c]2[c]([H])[c]([C]([H])([H])[H])[n][c]3[c]([H])[c]([H])[c]([H])[c]([H])[c]23)[c]([H])[c]1[H]

$$$$
