
     RDKit          3D

 26 28  0  0  0  0  0  0  0  0999 V2000
    4.8110    1.2931   19.1124 C   0  0  0  0  0  0  0  0  0  0  0  0
    5.4096    1.2758   17.8511 C   0  0  0  0  0  0  0  0  0  0  0  0
    6.5657    0.6445   17.6043 N   0  0  0  0  0  0  0  0  0  0  0  0
    7.1510   -0.0022   18.6227 C   0  0  0  0  0  0  0  0  0  0  0  0
    6.6347   -0.0668   19.9251 C   0  0  0  0  0  0  0  0  0  0  0  0
    7.3865   -0.7953   21.0131 C   0  0  0  0  0  0  0  0  0  0  0  0
    7.0153   -2.1928   21.0674 N   0  0  0  0  0  0  0  0  0  0  0  0
    7.4838   -3.0476   21.9668 C   0  0  0  0  0  0  0  0  0  0  0  0
    6.9541   -4.2855   21.8500 N   0  0  0  0  0  0  0  0  0  0  0  0
    7.4015   -5.1847   22.7124 C   0  0  0  0  0  0  0  0  0  0  0  0
    8.3763   -4.8879   23.6915 C   0  0  0  0  0  0  0  0  0  0  0  0
    8.9644   -5.6972   24.6607 N   0  0  0  0  0  0  0  0  0  0  0  0
    9.8037   -4.9916   25.3384 C   0  0  0  0  0  0  0  0  0  0  0  0
    9.9949   -3.3096   24.9058 S   0  0  0  0  0  0  0  0  0  0  0  0
    8.8061   -3.5531   23.6645 C   0  0  0  0  0  0  0  0  0  0  0  0
    8.3887   -2.6161   22.8308 N   0  0  0  0  0  0  0  0  0  0  0  0
   10.3863   -5.3915   26.1586 H   0  0  0  0  0  0  0  0  0  0  0  0
    7.0051   -6.2060   22.6623 H   0  0  0  0  0  0  0  0  0  0  0  0
    6.3231   -2.6518   20.5129 H   0  0  0  0  0  0  0  0  0  0  0  0
    8.4753   -0.7346   20.8534 H   0  0  0  0  0  0  0  0  0  0  0  0
    7.1990   -0.3264   21.9924 H   0  0  0  0  0  0  0  0  0  0  0  0
    5.4303    0.6127   20.1639 C   0  0  0  0  0  0  0  0  0  0  0  0
    5.0017    0.6361   21.1668 H   0  0  0  0  0  0  0  0  0  0  0  0
    8.1173   -0.4466   18.3816 H   0  0  0  0  0  0  0  0  0  0  0  0
    4.9485    1.7838   17.0026 H   0  0  0  0  0  0  0  0  0  0  0  0
    3.8874    1.8400   19.2531 H   0  0  0  0  0  0  0  0  0  0  0  0
  1  2  2  0
  2  3  1  0
  3  4  2  0
  4  5  1  0
  5  6  1  0
  6  7  1  0
  7  8  1  0
  8  9  2  0
  9 10  1  0
 10 11  2  0
 11 12  1  0
 12 13  2  0
 13 14  1  0
 14 15  1  0
 15 16  2  0
 13 17  1  0
 10 18  1  0
  7 19  1  0
  6 20  1  0
  6 21  1  0
  5 22  2  0
 22 23  1  0
  4 24  1  0
  2 25  1  0
  1 26  1  0
 22  1  1  0
 16  8  1  0
 15 11  1  0
M  END
>  <plip>  (1) 
-0.034482758620689655

>  <filename>  (1) 
[H][c]1[n][c]2[c]([H])[n][c]([N]([H])[C]([H])([H])[c]3[c]([H])[n][c]([H])[c]([H])[c]3[H])[n][c]2[s]1

$$$$
