
     RDKit          3D

 26 27  0  0  0  0  0  0  0  0999 V2000
    8.7566   -1.9684   21.4075 H   0  0  0  0  0  0  0  0  0  0  0  0
    8.3151   -1.5781   20.5837 N   0  0  0  0  0  0  0  0  0  0  0  0
    7.3962   -0.7897   20.9536 C   0  0  0  0  0  0  0  0  0  0  0  0
    7.1341   -0.4278   22.6925 S   0  0  0  0  0  0  0  0  0  0  0  0
    8.4976    0.8324   22.9400 C   0  0  1  0  0  0  0  0  0  0  0  0
    8.5755    0.8822   24.0302 H   0  0  0  0  0  0  0  0  0  0  0  0
    9.7584    0.4579   22.4526 O   0  0  0  0  0  0  0  0  0  0  0  0
   10.0719    1.2048   21.2770 C   0  0  0  0  0  0  0  0  0  0  0  0
   11.1608    1.2928   21.1988 H   0  0  0  0  0  0  0  0  0  0  0  0
    9.7064    0.6644   20.3995 H   0  0  0  0  0  0  0  0  0  0  0  0
    9.3654    2.5447   21.4551 C   0  0  0  0  0  0  0  0  0  0  0  0
   10.0114    3.2501   21.9859 H   0  0  0  0  0  0  0  0  0  0  0  0
    9.0689    2.9805   20.5020 H   0  0  0  0  0  0  0  0  0  0  0  0
    8.1361    2.1773   22.2855 C   0  0  0  0  0  0  0  0  0  0  0  0
    7.8703    2.9295   23.0320 H   0  0  0  0  0  0  0  0  0  0  0  0
    7.2814    2.0492   21.6175 H   0  0  0  0  0  0  0  0  0  0  0  0
    6.6036   -0.0455   19.9445 C   0  0  0  0  0  0  0  0  0  0  0  0
    7.1541   -0.0039   18.6508 C   0  0  0  0  0  0  0  0  0  0  0  0
    8.0779   -0.5301   18.4483 H   0  0  0  0  0  0  0  0  0  0  0  0
    6.6133    0.6458   17.6208 N   0  0  0  0  0  0  0  0  0  0  0  0
    5.4628    1.2937   17.8472 C   0  0  0  0  0  0  0  0  0  0  0  0
    5.0423    1.8284   16.9982 H   0  0  0  0  0  0  0  0  0  0  0  0
    4.8227    1.3089   19.0922 C   0  0  0  0  0  0  0  0  0  0  0  0
    3.8924    1.8557   19.1991 H   0  0  0  0  0  0  0  0  0  0  0  0
    5.4020    0.6405   20.1725 C   0  0  0  0  0  0  0  0  0  0  0  0
    4.9284    0.6726   21.1594 H   0  0  0  0  0  0  0  0  0  0  0  0
  1  2  1  0
  2  3  2  3
  3  4  1  0
  4  5  1  0
  5  6  1  1
  5  7  1  0
  7  8  1  0
  8  9  1  0
  8 10  1  0
  8 11  1  0
 11 12  1  0
 11 13  1  0
 11 14  1  0
 14 15  1  0
 14 16  1  0
  3 17  1  0
 17 18  2  0
 18 19  1  0
 18 20  1  0
 20 21  2  0
 21 22  1  0
 21 23  1  0
 23 24  1  0
 23 25  2  0
 25 26  1  0
 14  5  1  0
 25 17  1  0
M  END
>  <plip>  (1) 
-0.0

>  <filename>  (1) 
[H][N]=[C]([S][C@@]1([H])[O][C]([H])([H])[C]([H])([H])[C]1([H])[H])[c]1[c]([H])[n][c]([H])[c]([H])[c]1[H]

$$$$
