
     RDKit          3D

 40 41  0  0  0  0  0  0  0  0999 V2000
    6.3260   -2.9099   20.1607 C   0  0  0  0  0  0  0  0  0  0  0  0
    6.5605   -2.0256   21.2984 N   0  0  0  0  0  0  0  0  0  0  0  0
    6.1954   -2.5243   22.5431 C   0  0  0  0  0  0  0  0  0  0  0  0
    5.3404   -3.3871   22.6351 O   0  0  0  0  0  0  0  0  0  0  0  0
    6.9407   -1.9470   23.7595 C   0  0  0  0  0  0  0  0  0  0  0  0
    6.9952   -2.8851   24.9452 C   0  0  0  0  0  0  0  0  0  0  0  0
    5.9239   -3.1399   25.7000 C   0  0  0  0  0  0  0  0  0  0  0  0
    5.8397   -4.1090   26.8094 C   0  0  0  0  0  0  0  0  0  0  0  0
    6.7566   -5.1683   26.9438 C   0  0  0  0  0  0  0  0  0  0  0  0
    6.6771   -6.0545   28.0192 C   0  0  0  0  0  0  0  0  0  0  0  0
    5.6666   -5.8717   28.9602 C   0  0  0  0  0  0  0  0  0  0  0  0
    5.5881   -6.7178   29.9999 F   0  0  0  0  0  0  0  0  0  0  0  0
    4.7308   -4.8433   28.8564 C   0  0  0  0  0  0  0  0  0  0  0  0
    4.8203   -3.9693   27.7705 C   0  0  0  0  0  0  0  0  0  0  0  0
    4.1066   -3.1530   27.6695 H   0  0  0  0  0  0  0  0  0  0  0  0
    3.9669   -4.7507   29.6209 H   0  0  0  0  0  0  0  0  0  0  0  0
    7.3767   -6.8737   28.1457 H   0  0  0  0  0  0  0  0  0  0  0  0
    7.5277   -5.2979   26.1858 H   0  0  0  0  0  0  0  0  0  0  0  0
    4.9975   -2.6026   25.4889 H   0  0  0  0  0  0  0  0  0  0  0  0
    7.9307   -3.4206   25.1266 H   0  0  0  0  0  0  0  0  0  0  0  0
    6.4059   -1.0207   24.0202 H   0  0  0  0  0  0  0  0  0  0  0  0
    7.9524   -1.6551   23.4581 H   0  0  0  0  0  0  0  0  0  0  0  0
    7.3130   -0.7881   21.0536 C   0  0  0  0  0  0  0  0  0  0  0  0
    9.0123   -0.9073   20.7940 C   0  0  0  0  0  0  0  0  0  0  0  0
    9.5721    0.1732   21.0158 O   0  0  0  0  0  0  0  0  0  0  0  0
    9.4379   -2.0304   20.4944 O   0  0  0  0  0  1  0  0  0  0  0  0
    6.6533    0.0146   19.9255 C   0  0  0  0  0  0  0  0  0  0  0  0
    5.4325    0.6630   20.1560 C   0  0  0  0  0  0  0  0  0  0  0  0
    4.8006    1.3156   19.0940 C   0  0  0  0  0  0  0  0  0  0  0  0
    5.4041    1.2931   17.8315 C   0  0  0  0  0  0  0  0  0  0  0  0
    6.5684    0.6751   17.5810 N   0  0  0  0  0  0  0  0  0  0  0  0
    7.1673    0.0625   18.6168 C   0  0  0  0  0  0  0  0  0  0  0  0
    8.1217   -0.4170   18.3966 H   0  0  0  0  0  0  0  0  0  0  0  0
    4.9362    1.7901   16.9838 H   0  0  0  0  0  0  0  0  0  0  0  0
    3.8655    1.8462   19.2362 H   0  0  0  0  0  0  0  0  0  0  0  0
    4.9927    0.6398   21.1532 H   0  0  0  0  0  0  0  0  0  0  0  0
    7.2709   -0.1909   21.9692 H   0  0  0  0  0  0  0  0  0  0  0  0
    6.8721   -3.8473   20.3012 H   0  0  0  0  0  0  0  0  0  0  0  0
    5.2642   -3.1441   20.0514 H   0  0  0  0  0  0  0  0  0  0  0  0
    6.6794   -2.4021   19.2654 H   0  0  0  0  0  0  0  0  0  0  0  0
  1  2  1  0
  2  3  1  0
  3  4  2  0
  3  5  1  0
  5  6  1  0
  6  7  2  3
  7  8  1  0
  8  9  2  0
  9 10  1  0
 10 11  2  0
 11 12  1  0
 11 13  1  0
 13 14  2  0
 14 15  1  0
 13 16  1  0
 10 17  1  0
  9 18  1  0
  7 19  1  0
  6 20  1  0
  5 21  1  0
  5 22  1  0
  2 23  1  0
 23 24  1  0
 24 25  2  0
 24 26  1  0
 23 27  1  0
 27 28  2  0
 28 29  1  0
 29 30  2  0
 30 31  1  0
 31 32  2  0
 32 33  1  0
 30 34  1  0
 29 35  1  0
 28 36  1  0
 23 37  1  0
  1 38  1  0
  1 39  1  0
  1 40  1  0
 14  8  1  0
 32 27  1  0
M  CHG  1  26  -1
M  END
>  <plip>  (1) 
-0.10344827586206896

>  <filename>  (1) 
[H][C](=[C]([H])[C]([H])([H])[C](=[O])[N]([C]([H])([H])[H])[C]([H])([C](=[O])[O-])[c]1[c]([H])[n][c]([H])[c]([H])[c]1[H])[c]1[c]([H])[c]([H])[c]([F])[c]([H])[c]1[H]

$$$$
