
     RDKit          3D

 48 50  0  0  0  0  0  0  0  0999 V2000
    6.1154   -2.9241   20.5196 C   0  0  0  0  0  0  0  0  0  0  0  0
    6.6048   -1.9486   21.5967 C   0  0  0  0  0  0  0  0  0  0  0  0
    7.3834   -2.7285   22.6715 C   0  0  0  0  0  0  0  0  0  0  0  0
    8.3609   -3.0635   22.3033 H   0  0  0  0  0  0  0  0  0  0  0  0
    7.5663   -2.1588   23.5865 H   0  0  0  0  0  0  0  0  0  0  0  0
    6.8150   -3.6194   22.9584 H   0  0  0  0  0  0  0  0  0  0  0  0
    7.3694   -0.7216   21.0339 C   0  0  0  0  0  0  0  0  0  0  0  0
    7.6762    0.1962   22.1149 N   0  0  0  0  0  0  0  0  0  0  0  0
    8.5793    1.2019   22.0013 C   0  0  0  0  0  0  0  0  0  0  0  0
    9.2519    1.3651   20.9949 O   0  0  0  0  0  0  0  0  0  0  0  0
    8.7576    2.0442   23.2557 C   0  0  0  0  0  0  0  0  0  0  0  0
    9.9843    1.5910   24.0903 C   0  0  0  0  0  0  0  0  0  0  0  0
    9.9016    0.1413   24.5201 C   0  0  0  0  0  0  0  0  0  0  0  0
   10.5604   -0.8560   23.7556 C   0  0  0  0  0  0  0  0  0  0  0  0
   10.4560   -2.1966   24.0748 C   0  0  0  0  0  0  0  0  0  0  0  0
    9.6546   -2.6222   25.1732 C   0  0  0  0  0  0  0  0  0  0  0  0
    9.5461   -3.9734   25.6136 C   0  0  0  0  0  0  0  0  0  0  0  0
    8.6310   -4.2797   26.5987 C   0  0  0  0  0  0  0  0  0  0  0  0
    7.8374   -3.2413   27.1368 C   0  0  0  0  0  0  0  0  0  0  0  0
    7.9673   -1.9648   26.8392 N   0  0  0  0  0  0  0  0  0  0  0  0
    8.9003   -1.6308   25.8890 C   0  0  0  0  0  0  0  0  0  0  0  0
    9.0999   -0.2582   25.5808 C   0  0  0  0  0  0  0  0  0  0  0  0
    8.5781    0.4291   26.2374 H   0  0  0  0  0  0  0  0  0  0  0  0
    7.0486   -3.5033   27.8411 H   0  0  0  0  0  0  0  0  0  0  0  0
    8.5039   -5.2942   26.9665 H   0  0  0  0  0  0  0  0  0  0  0  0
   10.1781   -4.7482   25.1760 H   0  0  0  0  0  0  0  0  0  0  0  0
   10.9785   -2.9425   23.4814 H   0  0  0  0  0  0  0  0  0  0  0  0
   11.1642   -0.5462   22.9072 H   0  0  0  0  0  0  0  0  0  0  0  0
   10.8880    1.7430   23.4906 H   0  0  0  0  0  0  0  0  0  0  0  0
   10.0869    2.2531   24.9587 H   0  0  0  0  0  0  0  0  0  0  0  0
    7.8554    2.0058   23.8771 H   0  0  0  0  0  0  0  0  0  0  0  0
    8.8875    3.0812   22.9353 H   0  0  0  0  0  0  0  0  0  0  0  0
    7.1515    0.1092   22.9648 H   0  0  0  0  0  0  0  0  0  0  0  0
    6.6210    0.0284   19.9339 C   0  0  0  0  0  0  0  0  0  0  0  0
    5.3985    0.6935   20.1407 C   0  0  0  0  0  0  0  0  0  0  0  0
    4.7927    1.3288   19.0539 C   0  0  0  0  0  0  0  0  0  0  0  0
    5.4251    1.2987   17.8060 C   0  0  0  0  0  0  0  0  0  0  0  0
    6.5992    0.6863   17.5891 N   0  0  0  0  0  0  0  0  0  0  0  0
    7.1665    0.0869   18.6468 C   0  0  0  0  0  0  0  0  0  0  0  0
    8.1237   -0.4015   18.4591 H   0  0  0  0  0  0  0  0  0  0  0  0
    4.9736    1.7863   16.9434 H   0  0  0  0  0  0  0  0  0  0  0  0
    3.8548    1.8653   19.1613 H   0  0  0  0  0  0  0  0  0  0  0  0
    4.9344    0.7362   21.1308 H   0  0  0  0  0  0  0  0  0  0  0  0
    8.3227   -1.0676   20.6115 H   0  0  0  0  0  0  0  0  0  0  0  0
    5.7099   -1.5300   22.0630 H   0  0  0  0  0  0  0  0  0  0  0  0
    5.7369   -2.4044   19.6330 H   0  0  0  0  0  0  0  0  0  0  0  0
    6.9073   -3.6213   20.2247 H   0  0  0  0  0  0  0  0  0  0  0  0
    5.3045   -3.5358   20.9302 H   0  0  0  0  0  0  0  0  0  0  0  0
  1  2  1  0
  2  3  1  0
  3  4  1  0
  3  5  1  0
  3  6  1  0
  2  7  1  0
  7  8  1  0
  8  9  1  0
  9 10  2  0
  9 11  1  0
 11 12  1  0
 12 13  1  0
 13 14  2  0
 14 15  1  0
 15 16  2  0
 16 17  1  0
 17 18  2  0
 18 19  1  0
 19 20  2  0
 20 21  1  0
 21 22  2  0
 22 23  1  0
 19 24  1  0
 18 25  1  0
 17 26  1  0
 15 27  1  0
 14 28  1  0
 12 29  1  0
 12 30  1  0
 11 31  1  0
 11 32  1  0
  8 33  1  0
  7 34  1  0
 34 35  2  0
 35 36  1  0
 36 37  2  0
 37 38  1  0
 38 39  2  0
 39 40  1  0
 37 41  1  0
 36 42  1  0
 35 43  1  0
  7 44  1  0
  2 45  1  0
  1 46  1  0
  1 47  1  0
  1 48  1  0
 22 13  1  0
 39 34  1  0
 21 16  1  0
M  END
>  <plip>  (1) 
-0.10714285714285714

>  <filename>  (1) 
[H][c]1[n][c]([H])[c]([C]([H])([N]([H])[C](=[O])[C]([H])([H])[C]([H])([H])[c]2[c]([H])[c]([H])[c]3[c]([H])[c]([H])[c]([H])[n][c]3[c]2[H])[C]([H])([C]([H])([H])[H])[C]([H])([H])[H])[c]([H])[c]1[H]

$$$$
