
     RDKit          3D

 43 44  0  0  0  0  0  0  0  0999 V2000
   13.7685    3.5666   22.8303 C   0  0  0  0  0  0  0  0  0  0  0  0
   12.1117    3.6345   22.1447 S   0  0  0  0  0  0  0  0  0  0  0  0
   11.4146    4.6580   22.9989 O   0  0  0  0  0  0  0  0  0  0  0  0
   11.4983    1.9923   22.6716 C   0  0  0  0  0  0  0  0  0  0  0  0
   11.4139    1.7849   24.1902 C   0  0  0  0  0  0  0  0  0  0  0  0
   10.5487    0.5788   24.5971 C   0  0  0  0  0  0  0  0  0  0  0  0
   10.7895    0.3664   26.1581 N   0  0  0  0  0  4  0  0  0  0  0  0
   10.4505   -0.5362   26.5344 H   0  0  0  0  0  0  0  0  0  0  0  0
   10.3259    1.1195   26.7129 H   0  0  0  0  0  0  0  0  0  0  0  0
   11.8032    0.4396   26.3534 H   0  0  0  0  0  0  0  0  0  0  0  0
    9.0414    0.7140   24.0888 C   0  0  0  0  0  0  0  0  0  0  0  0
    8.3226    1.6129   24.5034 O   0  0  0  0  0  0  0  0  0  0  0  0
    8.5933   -0.1663   23.1255 N   0  0  0  0  0  0  0  0  0  0  0  0
    9.3234   -1.3525   22.6428 C   0  0  0  0  0  0  0  0  0  0  0  0
    8.3736   -2.4253   22.0884 C   0  0  0  0  0  0  0  0  0  0  0  0
    7.4581   -1.8271   21.0507 C   0  0  0  0  0  0  0  0  0  0  0  0
    7.0839   -0.5489   21.1530 C   0  0  0  0  0  0  0  0  0  0  0  0
    6.4616    0.1612   20.0020 C   0  0  0  0  0  0  0  0  0  0  0  0
    5.2940    0.9344   20.0985 C   0  0  0  0  0  0  0  0  0  0  0  0
    4.7930    1.5559   18.9541 C   0  0  0  0  0  0  0  0  0  0  0  0
    5.4742    1.3894   17.7449 C   0  0  0  0  0  0  0  0  0  0  0  0
    6.5871    0.6464   17.6200 N   0  0  0  0  0  0  0  0  0  0  0  0
    7.0520    0.0574   18.7256 C   0  0  0  0  0  0  0  0  0  0  0  0
    7.9552   -0.5401   18.6080 H   0  0  0  0  0  0  0  0  0  0  0  0
    5.1127    1.8660   16.8358 H   0  0  0  0  0  0  0  0  0  0  0  0
    3.9195    2.2030   18.9906 H   0  0  0  0  0  0  0  0  0  0  0  0
    4.7800    1.0251   21.0567 H   0  0  0  0  0  0  0  0  0  0  0  0
    7.2961    0.1827   22.4721 C   0  0  0  0  0  0  0  0  0  0  0  0
    7.2478    1.2655   22.3074 H   0  0  0  0  0  0  0  0  0  0  0  0
    6.4761   -0.0591   23.1652 H   0  0  0  0  0  0  0  0  0  0  0  0
    7.0724   -2.4376   20.2313 H   0  0  0  0  0  0  0  0  0  0  0  0
    8.9673   -3.2190   21.6259 H   0  0  0  0  0  0  0  0  0  0  0  0
    7.7821   -2.8872   22.8922 H   0  0  0  0  0  0  0  0  0  0  0  0
   10.0077   -1.0626   21.8309 H   0  0  0  0  0  0  0  0  0  0  0  0
    9.9168   -1.7985   23.4475 H   0  0  0  0  0  0  0  0  0  0  0  0
   10.9519   -0.2998   24.1019 H   0  0  0  0  0  0  0  0  0  0  0  0
   11.0333    2.7036   24.6498 H   0  0  0  0  0  0  0  0  0  0  0  0
   12.4299    1.6189   24.5785 H   0  0  0  0  0  0  0  0  0  0  0  0
   12.1163    1.2345   22.1680 H   0  0  0  0  0  0  0  0  0  0  0  0
   10.5070    1.9849   22.2008 H   0  0  0  0  0  0  0  0  0  0  0  0
   14.2006    2.5698   22.7364 H   0  0  0  0  0  0  0  0  0  0  0  0
   14.3807    4.3088   22.3157 H   0  0  0  0  0  0  0  0  0  0  0  0
   13.6556    3.8618   23.8703 H   0  0  0  0  0  0  0  0  0  0  0  0
  1  2  1  0
  2  3  2  0
  2  4  1  0
  4  5  1  0
  5  6  1  0
  6  7  1  0
  7  8  1  0
  7  9  1  0
  7 10  1  0
  6 11  1  0
 11 12  2  0
 11 13  1  0
 13 14  1  0
 14 15  1  0
 15 16  1  0
 16 17  2  0
 17 18  1  0
 18 19  2  0
 19 20  1  0
 20 21  2  0
 21 22  1  0
 22 23  2  0
 23 24  1  0
 21 25  1  0
 20 26  1  0
 19 27  1  0
 17 28  1  0
 28 29  1  0
 28 30  1  0
 16 31  1  0
 15 32  1  0
 15 33  1  0
 14 34  1  0
 14 35  1  0
  6 36  1  0
  5 37  1  0
  5 38  1  0
  4 39  1  0
  4 40  1  0
  1 41  1  0
  1 42  1  0
  1 43  1  0
 28 13  1  0
 23 18  1  0
M  CHG  1   7   1
M  END
>  <plip>  (1) 
-0.10714285714285714

>  <filename>  (1) 
[H][C]1=[C]([c]2[c]([H])[n][c]([H])[c]([H])[c]2[H])[C]([H])([H])[N]([C](=[O])[C]([H])([C]([H])([H])[C]([H])([H])[S](=[O])[C]([H])([H])[H])[N+]([H])([H])[H])[C]([H])([H])[C]1([H])[H]

$$$$
