
     RDKit          3D

 51 52  0  0  0  0  0  0  0  0999 V2000
    5.5608   -3.3336   23.8727 C   0  0  0  0  0  0  0  0  0  0  0  0
    6.9773   -3.0356   24.3676 C   0  0  0  0  0  0  0  0  0  0  0  0
    7.2369   -1.7317   25.1485 C   0  0  0  0  0  0  0  0  0  0  0  0
    6.3456   -1.5964   26.3988 C   0  0  0  0  0  0  0  0  0  0  0  0
    4.9756   -0.8951   26.2724 C   0  0  0  0  0  0  0  0  0  0  0  0
    5.0597    0.6290   26.4504 C   0  0  0  0  0  0  0  0  0  0  0  0
    5.7651    1.3362   25.2868 C   0  0  0  0  0  0  0  0  0  0  0  0
    7.1868    0.8434   25.0105 C   0  0  0  0  0  0  0  0  0  0  0  0
    7.2501   -0.4846   24.2541 N   0  0  0  0  0  4  0  0  0  0  0  0
    8.4291   -0.4529   23.3070 C   0  0  0  0  0  0  0  0  0  0  0  0
    8.1057    0.2655   21.9796 C   0  0  0  0  0  0  0  0  0  0  0  0
    9.3583    0.8607   21.3068 C   0  0  0  0  0  0  0  0  0  0  0  0
    9.7901    2.1629   21.9616 N   0  0  0  0  0  4  0  0  0  0  0  0
   10.6197    2.6110   21.5302 H   0  0  0  0  0  0  0  0  0  0  0  0
    9.0164    2.8563   21.9133 H   0  0  0  0  0  0  0  0  0  0  0  0
   10.0101    1.9998   22.9602 H   0  0  0  0  0  0  0  0  0  0  0  0
    9.1502    1.0457   20.2499 H   0  0  0  0  0  0  0  0  0  0  0  0
   10.1721    0.1248   21.3360 H   0  0  0  0  0  0  0  0  0  0  0  0
    7.3805   -0.7120   21.0146 C   0  0  0  0  0  0  0  0  0  0  0  0
    6.6464   -0.0178   19.8824 C   0  0  0  0  0  0  0  0  0  0  0  0
    5.4319    0.6482   20.1204 C   0  0  0  0  0  0  0  0  0  0  0  0
    4.7929    1.3178   19.0765 C   0  0  0  0  0  0  0  0  0  0  0  0
    5.3926    1.3106   17.8120 C   0  0  0  0  0  0  0  0  0  0  0  0
    6.5516    0.6861   17.5568 N   0  0  0  0  0  0  0  0  0  0  0  0
    7.1529    0.0505   18.5687 C   0  0  0  0  0  0  0  0  0  0  0  0
    8.1035   -0.4246   18.3151 H   0  0  0  0  0  0  0  0  0  0  0  0
    4.9269    1.8266   16.9737 H   0  0  0  0  0  0  0  0  0  0  0  0
    3.8610    1.8599   19.2202 H   0  0  0  0  0  0  0  0  0  0  0  0
    4.9980    0.6501   21.1238 H   0  0  0  0  0  0  0  0  0  0  0  0
    6.6646   -1.3086   21.6013 H   0  0  0  0  0  0  0  0  0  0  0  0
    8.1022   -1.4392   20.6115 H   0  0  0  0  0  0  0  0  0  0  0  0
    7.4015    1.0798   22.2149 H   0  0  0  0  0  0  0  0  0  0  0  0
    9.2768    0.0075   23.8350 H   0  0  0  0  0  0  0  0  0  0  0  0
    8.7615   -1.4765   23.1009 H   0  0  0  0  0  0  0  0  0  0  0  0
    6.3658   -0.5619   23.7092 H   0  0  0  0  0  0  0  0  0  0  0  0
    7.7073    1.5918   24.4041 H   0  0  0  0  0  0  0  0  0  0  0  0
    7.7603    0.7649   25.9475 H   0  0  0  0  0  0  0  0  0  0  0  0
    5.1806    1.2302   24.3591 H   0  0  0  0  0  0  0  0  0  0  0  0
    5.8132    2.4131   25.4926 H   0  0  0  0  0  0  0  0  0  0  0  0
    5.5923    0.8509   27.3911 H   0  0  0  0  0  0  0  0  0  0  0  0
    4.0567    1.0555   26.5849 H   0  0  0  0  0  0  0  0  0  0  0  0
    4.3019   -1.3068   27.0358 H   0  0  0  0  0  0  0  0  0  0  0  0
    4.5053   -1.1279   25.3043 H   0  0  0  0  0  0  0  0  0  0  0  0
    6.2077   -2.6159   26.7744 H   0  0  0  0  0  0  0  0  0  0  0  0
    6.9382   -1.0780   27.1657 H   0  0  0  0  0  0  0  0  0  0  0  0
    8.2626   -1.8311   25.5279 H   0  0  0  0  0  0  0  0  0  0  0  0
    7.6494   -3.0588   23.5076 H   0  0  0  0  0  0  0  0  0  0  0  0
    7.3219   -3.8447   25.0206 H   0  0  0  0  0  0  0  0  0  0  0  0
    4.8055   -3.2892   24.6634 H   0  0  0  0  0  0  0  0  0  0  0  0
    5.2754   -2.6240   23.0921 H   0  0  0  0  0  0  0  0  0  0  0  0
    5.4815   -4.3337   23.4353 H   0  0  0  0  0  0  0  0  0  0  0  0
  1  2  1  0
  2  3  1  0
  3  4  1  0
  4  5  1  0
  5  6  1  0
  6  7  1  0
  7  8  1  0
  8  9  1  0
  9 10  1  0
 10 11  1  0
 11 12  1  0
 12 13  1  0
 13 14  1  0
 13 15  1  0
 13 16  1  0
 12 17  1  0
 12 18  1  0
 11 19  1  0
 19 20  1  0
 20 21  2  0
 21 22  1  0
 22 23  2  0
 23 24  1  0
 24 25  2  0
 25 26  1  0
 23 27  1  0
 22 28  1  0
 21 29  1  0
 19 30  1  0
 19 31  1  0
 11 32  1  0
 10 33  1  0
 10 34  1  0
  9 35  1  0
  8 36  1  0
  8 37  1  0
  7 38  1  0
  7 39  1  0
  6 40  1  0
  6 41  1  0
  5 42  1  0
  5 43  1  0
  4 44  1  0
  4 45  1  0
  3 46  1  0
  2 47  1  0
  2 48  1  0
  1 49  1  0
  1 50  1  0
  1 51  1  0
  9  3  1  0
 25 20  1  0
M  CHG  2   9   1  13   1
M  END
>  <plip>  (1) 
-0.14285714285714285

>  <filename>  (1) 
[H][c]1[n][c]([H])[c]([C]([H])([H])[C]([H])([C]([H])([H])[N+]([H])([H])[H])[C]([H])([H])[N+]2([H])[C]([H])([H])[C]([H])([H])[C]([H])([H])[C]([H])([H])[C]([H])([H])[C]2([H])[C]([H])([H])[C]([H])([H])[H])[c]([H])[c]1[H]

$$$$
