
     RDKit          3D

 27 28  0  0  0  0  0  0  0  0999 V2000
    9.8846   -3.9783   27.8533 H   0  0  0  0  0  0  0  0  0  0  0  0
    9.5311   -3.8774   26.8327 C   0  0  0  0  0  0  0  0  0  0  0  0
    9.4566   -4.8007   26.2630 H   0  0  0  0  0  0  0  0  0  0  0  0
    9.2603   -2.7043   26.2553 C   0  0  0  0  0  0  0  0  0  0  0  0
    9.3254   -1.7787   26.8220 H   0  0  0  0  0  0  0  0  0  0  0  0
    8.9322   -2.6125   24.8088 C   0  0  0  0  0  0  0  0  0  0  0  0
    8.9620   -3.5905   24.0563 O   0  0  0  0  0  0  0  0  0  0  0  0
    8.5937   -1.3572   24.3546 N   0  0  0  0  0  0  0  0  0  0  0  0
    8.4714   -0.6123   25.0155 H   0  0  0  0  0  0  0  0  0  0  0  0
    8.1300   -1.1357   23.0576 N   0  0  0  0  0  0  0  0  0  0  0  0
    7.2360   -0.2270   22.4279 C   0  0  0  0  0  0  0  0  0  0  0  0
    6.5344    0.5931   22.9922 O   0  0  0  0  0  0  0  0  0  0  0  0
    7.4247   -0.5426   20.9904 C   0  0  0  0  0  0  0  0  0  0  0  0
    6.6807    0.0745   19.8789 C   0  0  0  0  0  0  0  0  0  0  0  0
    7.1578    0.0695   18.5480 C   0  0  0  0  0  0  0  0  0  0  0  0
    8.0900   -0.4379   18.3103 H   0  0  0  0  0  0  0  0  0  0  0  0
    6.5477    0.6651   17.5173 N   0  0  0  0  0  0  0  0  0  0  0  0
    5.3922    1.3022   17.7754 C   0  0  0  0  0  0  0  0  0  0  0  0
    4.9150    1.8007   16.9330 H   0  0  0  0  0  0  0  0  0  0  0  0
    4.8003    1.3315   19.0425 C   0  0  0  0  0  0  0  0  0  0  0  0
    3.8575    1.8487   19.1866 H   0  0  0  0  0  0  0  0  0  0  0  0
    5.4508    0.7142   20.1095 C   0  0  0  0  0  0  0  0  0  0  0  0
    5.0403    0.7226   21.1180 H   0  0  0  0  0  0  0  0  0  0  0  0
    8.3703   -1.5179   20.9105 C   0  0  0  0  0  0  0  0  0  0  0  0
    8.8272   -1.9553   20.0370 H   0  0  0  0  0  0  0  0  0  0  0  0
    8.8230   -1.9002   22.1343 N   0  0  0  0  0  0  0  0  0  0  0  0
    8.9294   -2.8658   22.4981 H   0  0  0  0  0  0  0  0  0  0  0  0
  1  2  1  0
  2  3  1  0
  2  4  2  3
  4  5  1  0
  4  6  1  0
  6  7  2  0
  6  8  1  0
  8  9  1  0
  8 10  1  0
 10 11  1  0
 11 12  2  0
 11 13  1  0
 13 14  1  0
 14 15  2  0
 15 16  1  0
 15 17  1  0
 17 18  2  0
 18 19  1  0
 18 20  1  0
 20 21  1  0
 20 22  2  0
 22 23  1  0
 13 24  2  0
 24 25  1  0
 24 26  1  0
 26 27  1  0
 26 10  1  0
 22 14  1  0
M  END
>  <plip>  (1) 
-0.06896551724137931

>  <filename>  (1) 
[H][C]([H])=[C]([H])[C](=[O])[N]([H])[n]1[c](=[O])[c](-[c]2[c]([H])[n][c]([H])[c]([H])[c]2[H])[c]([H])[n]1[H]

$$$$
