
     RDKit          3D

 26 28  0  0  0  0  0  0  0  0999 V2000
   12.2784    1.9836   23.7125 H   0  0  0  0  0  0  0  0  0  0  0  0
   12.0151    1.2442   22.9662 C   0  0  0  0  0  0  0  0  0  0  0  0
   12.7432    0.1155   22.7067 N   0  0  0  0  0  0  0  0  0  0  0  0
   12.0362   -0.4630   21.7635 C   0  0  0  0  0  0  0  0  0  0  0  0
   12.2668   -1.3890   21.2451 H   0  0  0  0  0  0  0  0  0  0  0  0
   10.9463    0.2766   21.4643 N   0  0  0  0  0  0  0  0  0  0  0  0
    9.8013   -0.0416   20.6314 C   0  0  0  0  0  0  0  0  0  0  0  0
   10.1304   -0.6868   19.8210 H   0  0  0  0  0  0  0  0  0  0  0  0
    9.4382    0.9008   20.2172 H   0  0  0  0  0  0  0  0  0  0  0  0
    8.6934   -0.7402   21.3597 C   0  0  0  0  0  0  0  0  0  0  0  0
    8.9217   -1.5525   22.3565 N   0  0  0  0  0  0  0  0  0  0  0  0
    7.6941   -2.0365   22.7338 O   0  0  0  0  0  0  0  0  0  0  0  0
    6.7558   -1.5109   21.9422 C   0  0  0  0  0  0  0  0  0  0  0  0
    5.7471   -1.8366   22.1410 H   0  0  0  0  0  0  0  0  0  0  0  0
    7.3064   -0.6935   21.0059 C   0  0  0  0  0  0  0  0  0  0  0  0
    6.6457    0.0233   19.8918 C   0  0  0  0  0  0  0  0  0  0  0  0
    7.1521    0.0777   18.5717 C   0  0  0  0  0  0  0  0  0  0  0  0
    8.0939   -0.4168   18.3360 H   0  0  0  0  0  0  0  0  0  0  0  0
    6.5463    0.6935   17.5452 N   0  0  0  0  0  0  0  0  0  0  0  0
    5.3838    1.3152   17.8040 C   0  0  0  0  0  0  0  0  0  0  0  0
    4.9122    1.8213   16.9609 H   0  0  0  0  0  0  0  0  0  0  0  0
    4.7879    1.3271   19.0701 C   0  0  0  0  0  0  0  0  0  0  0  0
    3.8557    1.8604   19.2190 H   0  0  0  0  0  0  0  0  0  0  0  0
    5.4245    0.6656   20.1224 C   0  0  0  0  0  0  0  0  0  0  0  0
    5.0068    0.6524   21.1289 H   0  0  0  0  0  0  0  0  0  0  0  0
   10.9215    1.3758   22.2408 N   0  0  0  0  0  0  0  0  0  0  0  0
  1  2  1  0
  2  3  1  0
  3  4  2  0
  4  5  1  0
  4  6  1  0
  6  7  1  0
  7  8  1  0
  7  9  1  0
  7 10  1  0
 10 11  2  0
 11 12  1  0
 12 13  1  0
 13 14  1  0
 13 15  2  0
 15 16  1  0
 16 17  2  0
 17 18  1  0
 17 19  1  0
 19 20  2  0
 20 21  1  0
 20 22  1  0
 22 23  1  0
 22 24  2  0
 24 25  1  0
  6 26  1  0
 26  2  2  0
 15 10  1  0
 24 16  1  0
M  END
>  <plip>  (1) 
-0.10714285714285714

>  <filename>  (1) 
[H][c]1[n][c]([H])[n]([C]([H])([H])[c]2[n][o][c]([H])[c]2-[c]2[c]([H])[n][c]([H])[c]([H])[c]2[H])[n]1

$$$$
