
     RDKit          3D

 43 44  0  0  0  0  0  0  0  0999 V2000
   10.6541    1.6198   24.7962 O   0  0  0  0  0  0  0  0  0  0  0  0
    9.4834    1.3382   24.6811 C   0  0  0  0  0  0  0  0  0  0  0  0
    8.6259    1.9816   23.5548 C   0  0  0  0  0  0  0  0  0  0  0  0
    7.8462    1.1019   22.6727 N   0  0  0  0  0  0  0  0  0  0  0  0
    8.3861    0.3653   21.6479 C   0  0  0  0  0  0  0  0  0  0  0  0
    9.5406    0.5030   21.2819 O   0  0  0  0  0  0  0  0  0  0  0  0
    7.4395   -0.6760   20.9240 C   0  0  0  0  0  0  0  0  0  0  0  0
    6.6321   -1.4064   21.8575 O   0  0  0  0  0  0  0  0  0  0  0  0
    5.9366   -1.8385   21.3409 H   0  0  0  0  0  0  0  0  0  0  0  0
    6.5886   -0.0438   19.8318 C   0  0  0  0  0  0  0  0  0  0  0  0
    5.3596    0.6004   20.0600 C   0  0  0  0  0  0  0  0  0  0  0  0
    4.7716    1.3009   19.0067 C   0  0  0  0  0  0  0  0  0  0  0  0
    5.4022    1.2942   17.7596 C   0  0  0  0  0  0  0  0  0  0  0  0
    6.5294    0.6137   17.4993 N   0  0  0  0  0  0  0  0  0  0  0  0
    7.0918   -0.0337   18.5235 C   0  0  0  0  0  0  0  0  0  0  0  0
    8.0055   -0.5905   18.3028 H   0  0  0  0  0  0  0  0  0  0  0  0
    4.9827    1.8488   16.9255 H   0  0  0  0  0  0  0  0  0  0  0  0
    3.8496    1.8579   19.1389 H   0  0  0  0  0  0  0  0  0  0  0  0
    4.8777    0.5504   21.0382 H   0  0  0  0  0  0  0  0  0  0  0  0
    8.1616   -1.3458   20.4302 H   0  0  0  0  0  0  0  0  0  0  0  0
    6.9141    0.8246   22.9433 H   0  0  0  0  0  0  0  0  0  0  0  0
    7.9167    2.6488   24.0652 H   0  0  0  0  0  0  0  0  0  0  0  0
    9.3106    2.6059   22.9704 H   0  0  0  0  0  0  0  0  0  0  0  0
    8.7812    0.4622   25.7083 C   0  0  0  0  0  0  0  0  0  0  0  0
    8.1716   -0.8804   25.2549 C   0  0  0  0  0  0  0  0  0  0  0  0
    9.2152   -1.7691   24.5581 C   0  0  0  0  0  0  0  0  0  0  0  0
    8.7244   -3.1981   24.2883 C   0  0  0  0  0  0  0  0  0  0  0  0
    8.1258   -3.8573   25.5385 C   0  0  0  0  0  0  0  0  0  0  0  0
    7.0247   -2.9859   26.1543 C   0  0  0  0  0  0  0  0  0  0  0  0
    7.5614   -1.5870   26.4805 C   0  0  0  0  0  0  0  0  0  0  0  0
    6.7660   -0.9668   26.9135 H   0  0  0  0  0  0  0  0  0  0  0  0
    8.3365   -1.6748   27.2573 H   0  0  0  0  0  0  0  0  0  0  0  0
    6.1895   -2.9002   25.4421 H   0  0  0  0  0  0  0  0  0  0  0  0
    6.6193   -3.4572   27.0583 H   0  0  0  0  0  0  0  0  0  0  0  0
    7.7352   -4.8514   25.2949 H   0  0  0  0  0  0  0  0  0  0  0  0
    8.9161   -4.0163   26.2873 H   0  0  0  0  0  0  0  0  0  0  0  0
    7.9695   -3.1668   23.4916 H   0  0  0  0  0  0  0  0  0  0  0  0
    9.5586   -3.8033   23.9134 H   0  0  0  0  0  0  0  0  0  0  0  0
    9.5371   -1.2993   23.6188 H   0  0  0  0  0  0  0  0  0  0  0  0
   10.1095   -1.8050   25.1882 H   0  0  0  0  0  0  0  0  0  0  0  0
    7.3547   -0.7101   24.5409 H   0  0  0  0  0  0  0  0  0  0  0  0
    7.9968    1.0749   26.1730 H   0  0  0  0  0  0  0  0  0  0  0  0
    9.5226    0.2631   26.4909 H   0  0  0  0  0  0  0  0  0  0  0  0
  1  2  2  0
  2  3  1  0
  3  4  1  0
  4  5  1  0
  5  6  2  0
  5  7  1  0
  7  8  1  0
  8  9  1  0
  7 10  1  0
 10 11  2  0
 11 12  1  0
 12 13  2  0
 13 14  1  0
 14 15  2  0
 15 16  1  0
 13 17  1  0
 12 18  1  0
 11 19  1  0
  7 20  1  0
  4 21  1  0
  3 22  1  0
  3 23  1  0
  2 24  1  0
 24 25  1  0
 25 26  1  0
 26 27  1  0
 27 28  1  0
 28 29  1  0
 29 30  1  0
 30 31  1  0
 30 32  1  0
 29 33  1  0
 29 34  1  0
 28 35  1  0
 28 36  1  0
 27 37  1  0
 27 38  1  0
 26 39  1  0
 26 40  1  0
 25 41  1  0
 24 42  1  0
 24 43  1  0
 15 10  1  0
 30 25  1  0
M  END
>  <plip>  (1) 
-0.07142857142857142

>  <filename>  (1) 
[H][O][C]([H])([C](=[O])[N]([H])[C]([H])([H])[C](=[O])[C]([H])([H])[C]1([H])[C]([H])([H])[C]([H])([H])[C]([H])([H])[C]([H])([H])[C]1([H])[H])[c]1[c]([H])[n][c]([H])[c]([H])[c]1[H]

$$$$
