
     RDKit          3D

 41 42  0  0  0  0  0  0  0  0999 V2000
   -1.6786   -8.3766   23.5257 C   0  0  0  0  0  0  0  0  0  0  0  0
   -0.3253   -8.7881   23.4781 O   0  0  0  0  0  0  0  0  0  0  0  0
    0.6730   -7.8671   23.4512 C   0  0  0  0  0  0  0  0  0  0  0  0
    0.4809   -6.4874   23.2931 C   0  0  0  0  0  0  0  0  0  0  0  0
    1.5874   -5.6424   23.2495 C   0  0  0  0  0  0  0  0  0  0  0  0
    2.8893   -6.1598   23.3098 C   0  0  0  0  0  0  0  0  0  0  0  0
    4.0336   -5.2115   23.1713 C   0  0  0  0  0  0  0  0  0  0  0  0
    3.9134   -4.0404   23.4755 O   0  0  0  0  0  0  0  0  0  0  0  0
    5.3729   -5.7524   22.6113 C   0  0  0  0  0  0  0  0  0  0  0  0
    6.3150   -4.7315   22.1543 N   0  0  0  0  0  0  0  0  0  0  0  0
    6.1733   -4.2006   20.8890 C   0  0  0  0  0  0  0  0  0  0  0  0
    5.5444   -4.7451   20.0018 O   0  0  0  0  0  0  0  0  0  0  0  0
    6.9595   -2.9109   20.6557 C   0  0  0  0  0  0  0  0  0  0  0  0
    6.6793   -1.8468   21.5531 O   0  0  0  0  0  0  0  0  0  0  0  0
    7.3292   -0.6377   21.1690 C   0  0  0  0  0  0  0  0  0  0  0  0
    6.6364    0.0377   20.0060 C   0  0  0  0  0  0  0  0  0  0  0  0
    5.3921    0.6632   20.1735 C   0  0  0  0  0  0  0  0  0  0  0  0
    4.8060    1.2923   19.0724 C   0  0  0  0  0  0  0  0  0  0  0  0
    5.4700    1.2512   17.8397 C   0  0  0  0  0  0  0  0  0  0  0  0
    6.6375    0.6187   17.6490 N   0  0  0  0  0  0  0  0  0  0  0  0
    7.1918    0.0275   18.7170 C   0  0  0  0  0  0  0  0  0  0  0  0
    8.1491   -0.4680   18.5360 H   0  0  0  0  0  0  0  0  0  0  0  0
    5.0392    1.7256   16.9583 H   0  0  0  0  0  0  0  0  0  0  0  0
    3.8549    1.8116   19.1526 H   0  0  0  0  0  0  0  0  0  0  0  0
    4.9131    0.6583   21.1568 H   0  0  0  0  0  0  0  0  0  0  0  0
    8.3862   -0.8208   20.9147 H   0  0  0  0  0  0  0  0  0  0  0  0
    7.3193   -0.0131   22.0712 H   0  0  0  0  0  0  0  0  0  0  0  0
    6.7101   -2.6234   19.6295 H   0  0  0  0  0  0  0  0  0  0  0  0
    8.0307   -3.1685   20.7318 H   0  0  0  0  0  0  0  0  0  0  0  0
    6.5786   -4.0266   22.8328 H   0  0  0  0  0  0  0  0  0  0  0  0
    5.8482   -6.3698   23.3857 H   0  0  0  0  0  0  0  0  0  0  0  0
    5.1449   -6.3987   21.7554 H   0  0  0  0  0  0  0  0  0  0  0  0
    3.0726   -7.5435   23.4881 C   0  0  0  0  0  0  0  0  0  0  0  0
    1.9746   -8.3915   23.5636 C   0  0  0  0  0  0  0  0  0  0  0  0
    2.0838   -9.4617   23.6983 H   0  0  0  0  0  0  0  0  0  0  0  0
    4.0756   -7.9696   23.5431 H   0  0  0  0  0  0  0  0  0  0  0  0
    1.4567   -4.5674   23.1587 H   0  0  0  0  0  0  0  0  0  0  0  0
   -0.5228   -6.0902   23.2042 H   0  0  0  0  0  0  0  0  0  0  0  0
   -2.2674   -9.2955   23.5158 H   0  0  0  0  0  0  0  0  0  0  0  0
   -1.8983   -7.8198   24.4463 H   0  0  0  0  0  0  0  0  0  0  0  0
   -1.9600   -7.7656   22.6566 H   0  0  0  0  0  0  0  0  0  0  0  0
  1  2  1  0
  2  3  1  0
  3  4  2  0
  4  5  1  0
  5  6  2  0
  6  7  1  0
  7  8  2  0
  7  9  1  0
  9 10  1  0
 10 11  1  0
 11 12  2  0
 11 13  1  0
 13 14  1  0
 14 15  1  0
 15 16  1  0
 16 17  2  0
 17 18  1  0
 18 19  2  0
 19 20  1  0
 20 21  2  0
 21 22  1  0
 19 23  1  0
 18 24  1  0
 17 25  1  0
 15 26  1  0
 15 27  1  0
 13 28  1  0
 13 29  1  0
 10 30  1  0
  9 31  1  0
  9 32  1  0
  6 33  1  0
 33 34  2  0
 34 35  1  0
 33 36  1  0
  5 37  1  0
  4 38  1  0
  1 39  1  0
  1 40  1  0
  1 41  1  0
 34  3  1  0
 21 16  1  0
M  END
>  <plip>  (1) 
-0.06896551724137931

>  <filename>  (1) 
[H][c]1[n][c]([H])[c]([C]([H])([H])[O][C]([H])([H])[C](=[O])[N]([H])[C]([H])([H])[C](=[O])[c]2[c]([H])[c]([H])[c]([O][C]([H])([H])[H])[c]([H])[c]2[H])[c]([H])[c]1[H]

$$$$
