
     RDKit          3D

 26 27  0  0  0  0  0  0  0  0999 V2000
    6.9332   -0.6921   21.9497 H   0  0  0  0  0  0  0  0  0  0  0  0
    7.3892   -0.7150   20.9458 C   0  0  0  0  0  0  0  0  0  0  0  0
    8.4699   -1.3350   20.7015 N   0  0  0  0  0  0  0  0  0  0  0  0
    9.1633   -1.9816   21.8091 C   0  0  0  0  0  0  0  0  0  0  0  0
    9.9626   -2.5702   21.3556 H   0  0  0  0  0  0  0  0  0  0  0  0
    8.5176   -2.6892   22.3521 H   0  0  0  0  0  0  0  0  0  0  0  0
    9.7796   -1.0168   22.8080 C   0  0  0  0  0  0  0  0  0  0  0  0
   10.9410   -0.3010   22.4959 C   0  0  0  0  0  0  0  0  0  0  0  0
   11.4409   -0.4469   21.5448 H   0  0  0  0  0  0  0  0  0  0  0  0
   11.4285    0.6335   23.4083 C   0  0  0  0  0  0  0  0  0  0  0  0
   12.3241    1.1999   23.1799 H   0  0  0  0  0  0  0  0  0  0  0  0
   10.8551    0.8962   24.5898 N   0  0  0  0  0  0  0  0  0  0  0  0
    9.7443    0.2106   24.8828 C   0  0  0  0  0  0  0  0  0  0  0  0
    9.2825    0.4322   25.8382 H   0  0  0  0  0  0  0  0  0  0  0  0
    9.1740   -0.7440   24.0382 C   0  0  0  0  0  0  0  0  0  0  0  0
    8.2644   -1.2533   24.3361 H   0  0  0  0  0  0  0  0  0  0  0  0
    6.6569    0.0082   19.9080 C   0  0  0  0  0  0  0  0  0  0  0  0
    7.1750    0.0576   18.6038 C   0  0  0  0  0  0  0  0  0  0  0  0
    8.1194   -0.4289   18.3880 H   0  0  0  0  0  0  0  0  0  0  0  0
    6.5666    0.6713   17.5910 N   0  0  0  0  0  0  0  0  0  0  0  0
    5.4046    1.2872   17.8486 C   0  0  0  0  0  0  0  0  0  0  0  0
    4.9272    1.7770   17.0028 H   0  0  0  0  0  0  0  0  0  0  0  0
    4.8079    1.3063   19.1140 C   0  0  0  0  0  0  0  0  0  0  0  0
    3.8760    1.8414   19.2556 H   0  0  0  0  0  0  0  0  0  0  0  0
    5.4396    0.6502   20.1684 C   0  0  0  0  0  0  0  0  0  0  0  0
    4.9957    0.6396   21.1677 H   0  0  0  0  0  0  0  0  0  0  0  0
  1  2  1  0
  2  3  2  3
  3  4  1  0
  4  5  1  0
  4  6  1  0
  4  7  1  0
  7  8  2  0
  8  9  1  0
  8 10  1  0
 10 11  1  0
 10 12  2  0
 12 13  1  0
 13 14  1  0
 13 15  2  0
 15 16  1  0
  2 17  1  0
 17 18  2  0
 18 19  1  0
 18 20  1  0
 20 21  2  0
 21 22  1  0
 21 23  1  0
 23 24  1  0
 23 25  2  0
 25 26  1  0
 15  7  1  0
 25 17  1  0
M  END
>  <plip>  (1) 
-0.0

>  <filename>  (1) 
[H][C](=[N][C]([H])([H])[c]1[c]([H])[c]([H])[n][c]([H])[c]1[H])[c]1[c]([H])[n][c]([H])[c]([H])[c]1[H]

$$$$
