
     RDKit          3D

 23 24  0  0  0  0  0  0  0  0999 V2000
    4.9311    1.8169   16.9801 H   0  0  0  0  0  0  0  0  0  0  0  0
    5.4040    1.3109   17.8160 C   0  0  0  0  0  0  0  0  0  0  0  0
    6.5689    0.6943   17.5548 N   0  0  0  0  0  0  0  0  0  0  0  0
    7.1588    0.0407   18.5631 C   0  0  0  0  0  0  0  0  0  0  0  0
    8.1134   -0.4441   18.3838 H   0  0  0  0  0  0  0  0  0  0  0  0
    6.6030   -0.0489   19.8471 C   0  0  0  0  0  0  0  0  0  0  0  0
    7.2648   -0.9134   20.7727 O   0  0  0  0  0  0  0  0  0  0  0  0
    7.1690   -0.4942   22.5785 S   0  0  0  0  0  0  0  0  0  0  0  0
    7.9982    0.9866   22.7791 C   0  0  0  0  0  0  0  0  0  0  0  0
    7.3633    2.2521   22.7320 C   0  0  0  0  0  0  0  0  0  0  0  0
    6.2875    2.2727   22.5865 H   0  0  0  0  0  0  0  0  0  0  0  0
    8.1152    3.4238   22.8157 C   0  0  0  0  0  0  0  0  0  0  0  0
    7.6257    4.3922   22.7156 H   0  0  0  0  0  0  0  0  0  0  0  0
    9.5075    3.3538   22.9787 C   0  0  0  0  0  0  0  0  0  0  0  0
   10.0981    4.2659   23.0293 H   0  0  0  0  0  0  0  0  0  0  0  0
   10.1453    2.1074   23.0637 C   0  0  0  0  0  0  0  0  0  0  0  0
   11.2266    2.0458   23.1709 H   0  0  0  0  0  0  0  0  0  0  0  0
    9.3973    0.9367   22.9690 C   0  0  0  0  0  0  0  0  0  0  0  0
    9.8371   -0.0548   23.0004 H   0  0  0  0  0  0  0  0  0  0  0  0
    5.4213    0.6247   20.1309 C   0  0  0  0  0  0  0  0  0  0  0  0
    5.0258    0.5774   21.1409 H   0  0  0  0  0  0  0  0  0  0  0  0
    4.8069    1.3184   19.0777 C   0  0  0  0  0  0  0  0  0  0  0  0
    3.8781    1.8493   19.2339 H   0  0  0  0  0  0  0  0  0  0  0  0
  1  2  1  0
  2  3  2  0
  3  4  1  0
  4  5  1  0
  4  6  2  0
  6  7  1  0
  7  8  1  0
  8  9  1  0
  9 10  2  0
 10 11  1  0
 10 12  1  0
 12 13  1  0
 12 14  2  0
 14 15  1  0
 14 16  1  0
 16 17  1  0
 16 18  2  0
 18 19  1  0
  6 20  1  0
 20 21  1  0
 20 22  2  0
 22 23  1  0
 22  2  1  0
 18  9  1  0
M  END
>  <plip>  (1) 
-0.03571428571428571

>  <filename>  (1) 
[H][c]1[n][c]([H])[c]([O][S][c]2[c]([H])[c]([H])[c]([H])[c]([H])[c]2[H])[c]([H])[c]1[H]

$$$$
