
     RDKit          3D

 30 32  0  0  0  0  0  0  0  0999 V2000
    5.7987   -2.1658   21.4470 O   0  0  0  0  0  0  0  0  0  0  0  0
    6.8544   -1.6069   21.7044 C   0  0  0  0  0  0  0  0  0  0  0  0
    7.4325   -0.6879   20.8577 N   0  0  0  0  0  0  0  0  0  0  0  0
    6.7257   -0.0025   19.8253 C   0  0  0  0  0  0  0  0  0  0  0  0
    5.5034    0.6225   20.0968 C   0  0  0  0  0  0  0  0  0  0  0  0
    4.8523    1.2982   19.0580 C   0  0  0  0  0  0  0  0  0  0  0  0
    5.4375    1.3142   17.7868 C   0  0  0  0  0  0  0  0  0  0  0  0
    6.6045    0.7092   17.5059 N   0  0  0  0  0  0  0  0  0  0  0  0
    7.2288    0.0771   18.5100 C   0  0  0  0  0  0  0  0  0  0  0  0
    8.1724   -0.4136   18.2779 H   0  0  0  0  0  0  0  0  0  0  0  0
    4.9471    1.8195   16.9571 H   0  0  0  0  0  0  0  0  0  0  0  0
    3.9104    1.8086   19.2253 H   0  0  0  0  0  0  0  0  0  0  0  0
    5.0899    0.5714   21.1038 H   0  0  0  0  0  0  0  0  0  0  0  0
    8.3352   -0.3320   21.1491 H   0  0  0  0  0  0  0  0  0  0  0  0
    7.6214   -1.9055   22.9723 C   0  0  0  0  0  0  0  0  0  0  0  0
    8.9070   -1.5935   23.2053 N   0  0  0  0  0  0  0  0  0  0  0  0
    9.1728   -2.1265   24.3915 N   0  0  0  0  0  0  0  0  0  0  0  0
    8.1093   -2.7624   24.9548 C   0  0  0  0  0  0  0  0  0  0  0  0
    8.2192   -3.5974   26.1689 C   0  0  0  0  0  0  0  0  0  0  0  0
    7.0739   -4.2659   26.6630 C   0  0  0  0  0  0  0  0  0  0  0  0
    7.1380   -5.1932   27.6323 N   0  0  0  0  0  0  0  0  0  0  0  0
    8.3633   -5.4410   28.1288 C   0  0  0  0  0  0  0  0  0  0  0  0
    9.5015   -4.7290   27.6937 C   0  0  0  0  0  0  0  0  0  0  0  0
    9.4405   -3.8002   26.7226 N   0  0  0  0  0  0  0  0  0  0  0  0
   10.4754   -4.9118   28.1385 H   0  0  0  0  0  0  0  0  0  0  0  0
    8.4163   -6.1929   28.9108 H   0  0  0  0  0  0  0  0  0  0  0  0
    6.0914   -4.0437   26.2541 H   0  0  0  0  0  0  0  0  0  0  0  0
    7.0659   -2.6019   24.0604 C   0  0  0  0  0  0  0  0  0  0  0  0
    6.0253   -2.8993   24.1152 H   0  0  0  0  0  0  0  0  0  0  0  0
   10.1062   -2.0839   24.7858 H   0  0  0  0  0  0  0  0  0  0  0  0
  1  2  2  0
  2  3  1  0
  3  4  1  0
  4  5  2  0
  5  6  1  0
  6  7  2  0
  7  8  1  0
  8  9  2  0
  9 10  1  0
  7 11  1  0
  6 12  1  0
  5 13  1  0
  3 14  1  0
  2 15  1  0
 15 16  2  0
 16 17  1  0
 17 18  1  0
 18 19  1  0
 19 20  2  0
 20 21  1  0
 21 22  2  0
 22 23  1  0
 23 24  2  0
 23 25  1  0
 22 26  1  0
 20 27  1  0
 18 28  2  0
 28 29  1  0
 17 30  1  0
  9  4  1  0
 28 15  1  0
 24 19  1  0
M  END
>  <plip>  (1) 
-0.06896551724137931

>  <filename>  (1) 
[H][c]1[n][c]([H])[c](-[c]2[c]([H])[c]([C](=[O])[N]([H])[c]3[c]([H])[n][c]([H])[c]([H])[c]3[H])[n][n]2[H])[n][c]1[H]

$$$$
