
     RDKit          3D

 27 28  0  0  0  0  0  0  0  0999 V2000
    5.2486    1.7929   17.0933 H   0  0  0  0  0  0  0  0  0  0  0  0
    5.6446    1.2965   17.9781 C   0  0  0  0  0  0  0  0  0  0  0  0
    6.8071    0.6486   17.8212 N   0  0  0  0  0  0  0  0  0  0  0  0
    7.3198    0.0255   18.8765 C   0  0  0  0  0  0  0  0  0  0  0  0
    8.2653   -0.4930   18.7282 H   0  0  0  0  0  0  0  0  0  0  0  0
    6.6986    0.0197   20.1183 C   0  0  0  0  0  0  0  0  0  0  0  0
    7.4727   -1.0355   21.3000 S   0  0  0  0  0  0  0  0  0  0  0  0
    8.5702   -1.7200   20.6197 O   0  0  0  0  0  0  0  0  0  0  0  0
    6.4345   -1.7785   21.9937 O   0  0  0  0  0  0  0  0  0  0  0  0
    8.3211   -0.0338   22.5203 C   0  0  0  0  0  0  0  0  0  0  0  0
    9.3000    0.1409   22.0681 H   0  0  0  0  0  0  0  0  0  0  0  0
    8.4292   -0.7552   23.3290 H   0  0  0  0  0  0  0  0  0  0  0  0
    7.6129    1.2090   22.9555 C   0  0  0  0  0  0  0  0  0  0  0  0
    6.6947    1.1840   24.0129 C   0  0  0  0  0  0  0  0  0  0  0  0
    6.5761    0.2506   24.5559 H   0  0  0  0  0  0  0  0  0  0  0  0
    5.9493    2.3145   24.3648 C   0  0  0  0  0  0  0  0  0  0  0  0
    5.2626    2.2887   25.2062 H   0  0  0  0  0  0  0  0  0  0  0  0
    6.1283    3.4928   23.6352 C   0  0  0  0  0  0  0  0  0  0  0  0
    5.1635    4.8853   24.0165 Cl  0  0  0  0  0  0  0  0  0  0  0  0
    7.0715    3.5735   22.6115 C   0  0  0  0  0  0  0  0  0  0  0  0
    7.2579    4.5102   22.0985 H   0  0  0  0  0  0  0  0  0  0  0  0
    7.7904    2.4254   22.2771 C   0  0  0  0  0  0  0  0  0  0  0  0
    8.9011    2.5274   20.9562 Cl  0  0  0  0  0  0  0  0  0  0  0  0
    5.4836    0.6937   20.3040 C   0  0  0  0  0  0  0  0  0  0  0  0
    4.9430    0.7176   21.2555 H   0  0  0  0  0  0  0  0  0  0  0  0
    4.9544    1.3443   19.1918 C   0  0  0  0  0  0  0  0  0  0  0  0
    4.0186    1.8895   19.2461 H   0  0  0  0  0  0  0  0  0  0  0  0
  1  2  1  0
  2  3  2  0
  3  4  1  0
  4  5  1  0
  4  6  2  0
  6  7  1  0
  7  8  2  0
  7  9  2  0
  7 10  1  0
 10 11  1  0
 10 12  1  0
 10 13  1  0
 13 14  2  0
 14 15  1  0
 14 16  1  0
 16 17  1  0
 16 18  2  0
 18 19  1  0
 18 20  1  0
 20 21  1  0
 20 22  2  0
 22 23  1  0
  6 24  1  0
 24 25  1  0
 24 26  2  0
 26 27  1  0
 26  2  1  0
 22 13  1  0
M  END
>  <plip>  (1) 
-0.03571428571428571

>  <filename>  (1) 
[H][c]1[n][c]([H])[c]([S](=[O])(=[O])[C]([H])([H])[c]2[c]([H])[c]([H])[c]([Cl])[c]([H])[c]2[Cl])[c]([H])[c]1[H]

$$$$
