
     RDKit          3D

 49 51  0  0  0  0  0  0  0  0999 V2000
    0.9885   -5.5669   25.5168 C   0  0  0  0  0  0  0  0  0  0  0  0
    2.1797   -5.7387   26.2287 C   0  0  0  0  0  0  0  0  0  0  0  0
    3.2134   -4.8127   26.0837 C   0  0  0  0  0  0  0  0  0  0  0  0
    3.0845   -3.6890   25.2496 C   0  0  0  0  0  0  0  0  0  0  0  0
    4.2622   -2.7693   25.0036 C   0  0  0  0  0  0  0  0  0  0  0  0
    5.0859   -3.0174   23.7131 C   0  0  0  0  0  0  0  0  0  0  0  0
    5.9095   -4.3060   23.6280 C   0  0  0  0  0  0  0  0  0  0  0  0
    4.9950   -5.5324   23.3053 C   0  0  0  0  0  0  0  0  0  0  0  0
    5.5554   -6.2047   22.0299 C   0  0  0  0  0  0  0  0  0  0  0  0
    6.3770   -5.1096   21.3349 C   0  0  0  0  0  0  0  0  0  0  0  0
    6.9927   -4.3235   22.4970 C   0  0  0  0  0  0  0  0  0  0  0  0
    7.5721   -2.9864   22.0897 N   0  0  0  0  0  4  0  0  0  0  0  0
    6.8536   -2.1891   21.0320 C   0  0  0  0  0  0  0  0  0  0  0  0
    7.3778   -0.7578   20.9916 C   0  0  0  0  0  0  0  0  0  0  0  0
    6.6858    0.0410   19.8965 C   0  0  0  0  0  0  0  0  0  0  0  0
    5.4558    0.6773   20.1332 C   0  0  0  0  0  0  0  0  0  0  0  0
    4.7998    1.3262   19.0836 C   0  0  0  0  0  0  0  0  0  0  0  0
    5.3935    1.3076   17.8167 C   0  0  0  0  0  0  0  0  0  0  0  0
    6.5533    0.6873   17.5564 N   0  0  0  0  0  0  0  0  0  0  0  0
    7.1748    0.0848   18.5762 C   0  0  0  0  0  0  0  0  0  0  0  0
    8.1211   -0.3945   18.3241 H   0  0  0  0  0  0  0  0  0  0  0  0
    4.9181    1.8100   16.9757 H   0  0  0  0  0  0  0  0  0  0  0  0
    3.8578    1.8525   19.2272 H   0  0  0  0  0  0  0  0  0  0  0  0
    5.0172    0.6558   21.1340 H   0  0  0  0  0  0  0  0  0  0  0  0
    7.2169   -0.2780   21.9687 H   0  0  0  0  0  0  0  0  0  0  0  0
    8.4642   -0.7836   20.8299 H   0  0  0  0  0  0  0  0  0  0  0  0
    6.9888   -2.6371   20.0385 H   0  0  0  0  0  0  0  0  0  0  0  0
    5.7749   -2.1778   21.2231 H   0  0  0  0  0  0  0  0  0  0  0  0
    7.6501   -2.3914   22.9503 H   0  0  0  0  0  0  0  0  0  0  0  0
    8.5566   -3.1295   21.7543 H   0  0  0  0  0  0  0  0  0  0  0  0
    7.8249   -4.9125   22.8910 H   0  0  0  0  0  0  0  0  0  0  0  0
    7.1542   -5.4831   20.6559 H   0  0  0  0  0  0  0  0  0  0  0  0
    5.7285   -4.4498   20.7472 H   0  0  0  0  0  0  0  0  0  0  0  0
    4.7666   -6.6167   21.3882 H   0  0  0  0  0  0  0  0  0  0  0  0
    6.2009   -7.0492   22.3013 H   0  0  0  0  0  0  0  0  0  0  0  0
    3.9696   -5.1819   23.1239 H   0  0  0  0  0  0  0  0  0  0  0  0
    4.9153   -6.2174   24.1590 H   0  0  0  0  0  0  0  0  0  0  0  0
    6.4422   -4.4363   24.5834 H   0  0  0  0  0  0  0  0  0  0  0  0
    5.7490   -2.1522   23.6112 H   0  0  0  0  0  0  0  0  0  0  0  0
    4.4187   -2.9907   22.8340 H   0  0  0  0  0  0  0  0  0  0  0  0
    3.8856   -1.7384   24.9777 H   0  0  0  0  0  0  0  0  0  0  0  0
    4.9435   -2.8037   25.8642 H   0  0  0  0  0  0  0  0  0  0  0  0
    1.8430   -3.4793   24.6208 C   0  0  0  0  0  0  0  0  0  0  0  0
    0.8270   -4.4368   24.7038 C   0  0  0  0  0  0  0  0  0  0  0  0
   -0.0842   -4.3193   24.1198 H   0  0  0  0  0  0  0  0  0  0  0  0
    1.6553   -2.5434   24.0915 H   0  0  0  0  0  0  0  0  0  0  0  0
    4.1402   -4.9490   26.6338 H   0  0  0  0  0  0  0  0  0  0  0  0
    2.2966   -6.5724   26.9189 H   0  0  0  0  0  0  0  0  0  0  0  0
    0.1863   -6.2904   25.6229 H   0  0  0  0  0  0  0  0  0  0  0  0
  1  2  2  0
  2  3  1  0
  3  4  2  0
  4  5  1  0
  5  6  1  0
  6  7  1  0
  7  8  1  0
  8  9  1  0
  9 10  1  0
 10 11  1  0
 11 12  1  0
 12 13  1  0
 13 14  1  0
 14 15  1  0
 15 16  2  0
 16 17  1  0
 17 18  2  0
 18 19  1  0
 19 20  2  0
 20 21  1  0
 18 22  1  0
 17 23  1  0
 16 24  1  0
 14 25  1  0
 14 26  1  0
 13 27  1  0
 13 28  1  0
 12 29  1  0
 12 30  1  0
 11 31  1  0
 10 32  1  0
 10 33  1  0
  9 34  1  0
  9 35  1  0
  8 36  1  0
  8 37  1  0
  7 38  1  0
  6 39  1  0
  6 40  1  0
  5 41  1  0
  5 42  1  0
  4 43  1  0
 43 44  2  0
 44 45  1  0
 43 46  1  0
  3 47  1  0
  2 48  1  0
  1 49  1  0
 44  1  1  0
 11  7  1  0
 20 15  1  0
M  CHG  1  12   1
M  END
>  <plip>  (1) 
-0.03333333333333333

>  <filename>  (1) 
[H][c]1[n][c]([H])[c]([C]([H])([H])[C]([H])([H])[N+]([H])([H])[C]2([H])[C]([H])([H])[C]([H])([H])[C]([H])([H])[C]2([H])[C]([H])([H])[C]([H])([H])[c]2[c]([H])[c]([H])[c]([H])[c]([H])[c]2[H])[c]([H])[c]1[H]

$$$$
