
     RDKit          3D

 25 27  0  0  0  0  0  0  0  0999 V2000
    8.6811   -2.5341   24.8978 C   0  0  0  0  0  0  0  0  0  0  0  0
    7.7788   -1.8213   24.2185 C   0  0  0  0  0  0  0  0  0  0  0  0
    7.8827   -1.4990   22.8145 C   0  0  0  0  0  0  0  0  0  0  0  0
    8.8422   -1.8477   22.0170 N   0  0  0  0  0  0  0  0  0  0  0  0
    8.5277   -1.3245   20.7790 N   0  0  0  0  0  0  0  0  0  0  0  0
    7.4027   -0.7004   20.9185 C   0  0  0  0  0  0  0  0  0  0  0  0
    6.6476    0.0162   19.9031 C   0  0  0  0  0  0  0  0  0  0  0  0
    5.4273    0.6572   20.1689 C   0  0  0  0  0  0  0  0  0  0  0  0
    4.8026    1.3105   19.1098 C   0  0  0  0  0  0  0  0  0  0  0  0
    5.4052    1.2889   17.8448 C   0  0  0  0  0  0  0  0  0  0  0  0
    6.5681    0.6728   17.5849 N   0  0  0  0  0  0  0  0  0  0  0  0
    7.1728    0.0603   18.6033 C   0  0  0  0  0  0  0  0  0  0  0  0
    8.1193   -0.4285   18.3849 H   0  0  0  0  0  0  0  0  0  0  0  0
    4.9242    1.7765   17.0004 H   0  0  0  0  0  0  0  0  0  0  0  0
    3.8711    1.8455   19.2563 H   0  0  0  0  0  0  0  0  0  0  0  0
    4.9904    0.6415   21.1712 H   0  0  0  0  0  0  0  0  0  0  0  0
    6.9262   -0.7682   22.1893 O   0  0  0  0  0  0  0  0  0  0  0  0
    6.6560   -1.4148   25.1392 C   0  0  0  0  0  0  0  0  0  0  0  0
    7.0192   -1.9699   26.3946 O   0  0  0  0  0  0  0  0  0  0  0  0
    8.2513   -2.6701   26.3214 C   0  0  0  0  0  0  0  0  0  0  0  0
    8.9798   -2.2295   27.0191 H   0  0  0  0  0  0  0  0  0  0  0  0
    8.1064   -3.7217   26.6125 H   0  0  0  0  0  0  0  0  0  0  0  0
    5.6801   -1.8165   24.8299 H   0  0  0  0  0  0  0  0  0  0  0  0
    6.5550   -0.3242   25.2374 H   0  0  0  0  0  0  0  0  0  0  0  0
    9.5942   -2.9569   24.4894 H   0  0  0  0  0  0  0  0  0  0  0  0
  1  2  2  0
  2  3  1  0
  3  4  2  0
  4  5  1  0
  5  6  2  0
  6  7  1  0
  7  8  2  0
  8  9  1  0
  9 10  2  0
 10 11  1  0
 11 12  2  0
 12 13  1  0
 10 14  1  0
  9 15  1  0
  8 16  1  0
  6 17  1  0
  2 18  1  0
 18 19  1  0
 19 20  1  0
 20 21  1  0
 20 22  1  0
 18 23  1  0
 18 24  1  0
  1 25  1  0
 20  1  1  0
 17  3  1  0
 12  7  1  0
M  END
>  <plip>  (1) 
-0.0

>  <filename>  (1) 
[H][C]1=[C]([c]2[n][n][c](-[c]3[c]([H])[n][c]([H])[c]([H])[c]3[H])[o]2)[C]([H])([H])[O][C]1([H])[H]

$$$$
