
     RDKit          3D

 39 41  0  0  0  0  0  0  0  0999 V2000
   10.6084   -1.4010   22.3376 O   0  0  0  0  0  0  0  0  0  0  0  0
    9.3992   -1.5448   22.2577 C   0  0  0  0  0  0  0  0  0  0  0  0
    8.6397   -0.9317   21.1328 C   0  0  0  0  0  0  0  0  0  0  0  0
    7.3202   -0.7022   21.0315 C   0  0  0  0  0  0  0  0  0  0  0  0
    6.6494   -0.0027   19.9168 C   0  0  0  0  0  0  0  0  0  0  0  0
    5.4231    0.6457   20.1429 C   0  0  0  0  0  0  0  0  0  0  0  0
    4.7929    1.3128   19.0943 C   0  0  0  0  0  0  0  0  0  0  0  0
    5.3967    1.2969   17.8337 C   0  0  0  0  0  0  0  0  0  0  0  0
    6.5614    0.6783   17.5861 N   0  0  0  0  0  0  0  0  0  0  0  0
    7.1687    0.0609   18.6084 C   0  0  0  0  0  0  0  0  0  0  0  0
    8.1115   -0.4279   18.3594 H   0  0  0  0  0  0  0  0  0  0  0  0
    4.9297    1.7937   16.9842 H   0  0  0  0  0  0  0  0  0  0  0  0
    3.8632    1.8504   19.2353 H   0  0  0  0  0  0  0  0  0  0  0  0
    4.9873    0.6273   21.1420 H   0  0  0  0  0  0  0  0  0  0  0  0
    6.6383   -0.9581   21.8515 H   0  0  0  0  0  0  0  0  0  0  0  0
    9.3296   -0.5345   20.3979 H   0  0  0  0  0  0  0  0  0  0  0  0
    8.6730   -2.2784   23.1556 N   0  0  0  0  0  0  0  0  0  0  0  0
    9.1613   -2.5723   24.4914 C   0  0  0  0  0  0  0  0  0  0  0  0
    8.7828   -1.5025   25.5467 C   0  0  0  0  0  0  0  0  0  0  0  0
    9.3160   -0.1443   25.1953 C   0  0  0  0  0  0  0  0  0  0  0  0
   10.6033    0.2981   25.3163 C   0  0  0  0  0  0  0  0  0  0  0  0
   10.7312    1.5379   24.7247 N   0  0  0  0  0  0  0  0  0  0  0  0
    9.5281    1.9060   24.1773 C   0  0  0  0  0  0  0  0  0  0  0  0
    9.1718    3.0559   23.4493 C   0  0  0  0  0  0  0  0  0  0  0  0
    7.8599    3.1390   23.0097 C   0  0  0  0  0  0  0  0  0  0  0  0
    7.3578    4.5376   22.0998 Cl  0  0  0  0  0  0  0  0  0  0  0  0
    6.9089    2.1247   23.2745 C   0  0  0  0  0  0  0  0  0  0  0  0
    7.2769    0.9952   23.9931 C   0  0  0  0  0  0  0  0  0  0  0  0
    8.6044    0.8697   24.4575 C   0  0  0  0  0  0  0  0  0  0  0  0
    6.5571    0.2021   24.1970 H   0  0  0  0  0  0  0  0  0  0  0  0
    5.8936    2.2613   22.9163 H   0  0  0  0  0  0  0  0  0  0  0  0
    9.8756    3.8509   23.2272 H   0  0  0  0  0  0  0  0  0  0  0  0
   11.5801    2.0666   24.6285 H   0  0  0  0  0  0  0  0  0  0  0  0
   11.4595   -0.2041   25.7511 H   0  0  0  0  0  0  0  0  0  0  0  0
    9.1510   -1.8188   26.5315 H   0  0  0  0  0  0  0  0  0  0  0  0
    7.6880   -1.4482   25.6293 H   0  0  0  0  0  0  0  0  0  0  0  0
    8.7734   -3.5481   24.7994 H   0  0  0  0  0  0  0  0  0  0  0  0
   10.2539   -2.6415   24.4183 H   0  0  0  0  0  0  0  0  0  0  0  0
    7.7184   -2.4629   22.9064 H   0  0  0  0  0  0  0  0  0  0  0  0
  1  2  2  0
  2  3  1  0
  3  4  2  3
  4  5  1  0
  5  6  2  0
  6  7  1  0
  7  8  2  0
  8  9  1  0
  9 10  2  0
 10 11  1  0
  8 12  1  0
  7 13  1  0
  6 14  1  0
  4 15  1  0
  3 16  1  0
  2 17  1  0
 17 18  1  0
 18 19  1  0
 19 20  1  0
 20 21  2  0
 21 22  1  0
 22 23  1  0
 23 24  2  0
 24 25  1  0
 25 26  1  0
 25 27  2  0
 27 28  1  0
 28 29  2  0
 28 30  1  0
 27 31  1  0
 24 32  1  0
 22 33  1  0
 21 34  1  0
 19 35  1  0
 19 36  1  0
 18 37  1  0
 18 38  1  0
 17 39  1  0
 10  5  1  0
 29 20  1  0
 29 23  1  0
M  END
>  <plip>  (1) 
-0.0

>  <filename>  (1) 
[H][C]([C](=[O])[N]([H])[C]([H])([H])[C]([H])([H])[c]1[c]([H])[n]([H])[c]2[c]([H])[c]([Cl])[c]([H])[c]([H])[c]12)=[C]([H])[c]1[c]([H])[n][c]([H])[c]([H])[c]1[H]

$$$$
