
     RDKit          3D

 31 33  0  0  0  0  0  0  0  0999 V2000
    9.1416   -2.6995   23.6780 H   0  0  0  0  0  0  0  0  0  0  0  0
    8.6342   -2.1172   22.9077 C   0  0  0  0  0  0  0  0  0  0  0  0
    8.0353   -2.7916   21.9394 N   0  0  0  0  0  0  0  0  0  0  0  0
    7.4261   -2.0516   21.0045 C   0  0  0  0  0  0  0  0  0  0  0  0
    6.9239   -2.5925   20.2024 H   0  0  0  0  0  0  0  0  0  0  0  0
    7.3807   -0.6717   20.9901 C   0  0  0  0  0  0  0  0  0  0  0  0
    6.6662    0.0689   19.8764 C   0  0  0  0  0  0  0  0  0  0  0  0
    7.1427    0.0909   18.5444 C   0  0  0  0  0  0  0  0  0  0  0  0
    8.0850   -0.4025   18.3134 H   0  0  0  0  0  0  0  0  0  0  0  0
    6.5220    0.6993   17.5249 N   0  0  0  0  0  0  0  0  0  0  0  0
    5.3647    1.3245   17.7933 C   0  0  0  0  0  0  0  0  0  0  0  0
    4.8955    1.8346   16.9534 H   0  0  0  0  0  0  0  0  0  0  0  0
    4.7713    1.3417   19.0601 C   0  0  0  0  0  0  0  0  0  0  0  0
    3.8340    1.8699   19.2104 H   0  0  0  0  0  0  0  0  0  0  0  0
    5.4380    0.7039   20.1161 C   0  0  0  0  0  0  0  0  0  0  0  0
    5.0294    0.6671   21.1275 H   0  0  0  0  0  0  0  0  0  0  0  0
    8.0597   -0.0983   22.0948 C   0  0  0  0  0  0  0  0  0  0  0  0
    8.0662    1.2502   22.2246 N   0  0  0  0  0  0  0  0  0  0  0  0
    7.4289    1.7001   21.5869 H   0  0  0  0  0  0  0  0  0  0  0  0
    8.9995    2.0495   22.9214 C   0  0  0  0  0  0  0  0  0  0  0  0
    8.5829    3.2656   23.4769 C   0  0  0  0  0  0  0  0  0  0  0  0
    7.5420    3.5562   23.3580 H   0  0  0  0  0  0  0  0  0  0  0  0
    9.4957    4.0937   24.1493 C   0  0  0  0  0  0  0  0  0  0  0  0
    9.1880    5.0066   24.6518 H   0  0  0  0  0  0  0  0  0  0  0  0
   10.8357    3.7121   24.2117 C   0  0  0  0  0  0  0  0  0  0  0  0
   11.7296    4.5460   24.7755 F   0  0  0  0  0  0  0  0  0  0  0  0
   11.2712    2.4896   23.7038 C   0  0  0  0  0  0  0  0  0  0  0  0
   12.3000    2.1796   23.8736 H   0  0  0  0  0  0  0  0  0  0  0  0
   10.3487    1.6677   23.0470 C   0  0  0  0  0  0  0  0  0  0  0  0
   10.6546    0.7287   22.6005 H   0  0  0  0  0  0  0  0  0  0  0  0
    8.6990   -0.7975   23.0221 N   0  0  0  0  0  0  0  0  0  0  0  0
  1  2  1  0
  2  3  2  0
  3  4  1  0
  4  5  1  0
  4  6  2  0
  6  7  1  0
  7  8  2  0
  8  9  1  0
  8 10  1  0
 10 11  2  0
 11 12  1  0
 11 13  1  0
 13 14  1  0
 13 15  2  0
 15 16  1  0
  6 17  1  0
 17 18  1  0
 18 19  1  0
 18 20  1  0
 20 21  2  0
 21 22  1  0
 21 23  1  0
 23 24  1  0
 23 25  2  0
 25 26  1  0
 25 27  1  0
 27 28  1  0
 27 29  2  0
 29 30  1  0
 17 31  2  0
 31  2  1  0
 15  7  1  0
 29 20  1  0
M  END
>  <plip>  (1) 
-0.034482758620689655

>  <filename>  (1) 
[H][c]1[n][c]([H])[c](-[c]2[c]([H])[n][c]([H])[c]([H])[c]2[H])[c]([N]([H])[c]2[c]([H])[c]([H])[c]([F])[c]([H])[c]2[H])[n]1

$$$$
