
     RDKit          3D

 30 31  0  0  0  0  0  0  0  0999 V2000
    5.9961   -2.8067   25.0532 H   0  0  0  0  0  0  0  0  0  0  0  0
    5.9126   -2.6787   23.9819 C   0  0  0  0  0  0  0  0  0  0  0  0
    6.6865   -1.7471   23.3912 N   0  0  0  0  0  0  0  0  0  0  0  0
    6.5356   -1.5934   22.0476 C   0  0  0  0  0  0  0  0  0  0  0  0
    7.4144   -0.5756   21.2824 C   0  0  0  0  0  0  0  0  0  0  0  0
    6.6641   -0.0033   20.0481 C   0  0  0  0  0  0  0  0  0  0  0  0
    7.1919    0.0027   18.7416 C   0  0  0  0  0  0  0  0  0  0  0  0
    8.1224   -0.5134   18.5229 H   0  0  0  0  0  0  0  0  0  0  0  0
    6.6258    0.6047   17.6829 N   0  0  0  0  0  0  0  0  0  0  0  0
    5.4664    1.2408   17.8870 C   0  0  0  0  0  0  0  0  0  0  0  0
    5.0301    1.7374   17.0203 H   0  0  0  0  0  0  0  0  0  0  0  0
    4.8185    1.2721   19.1280 C   0  0  0  0  0  0  0  0  0  0  0  0
    3.8756    1.7995   19.2240 H   0  0  0  0  0  0  0  0  0  0  0  0
    5.4218    0.6356   20.2192 C   0  0  0  0  0  0  0  0  0  0  0  0
    4.9313    0.6233   21.1965 H   0  0  0  0  0  0  0  0  0  0  0  0
    8.6910   -1.3438   20.8754 C   0  0  0  0  0  0  0  0  0  0  0  0
    8.4149   -2.2216   20.2946 H   0  0  0  0  0  0  0  0  0  0  0  0
    9.2210   -1.6957   21.7686 H   0  0  0  0  0  0  0  0  0  0  0  0
    9.3733   -0.7182   20.2877 H   0  0  0  0  0  0  0  0  0  0  0  0
    7.8556    0.6269   22.1466 C   0  0  0  0  0  0  0  0  0  0  0  0
    8.3934    0.2744   23.0305 H   0  0  0  0  0  0  0  0  0  0  0  0
    8.5237    1.2587   21.5520 H   0  0  0  0  0  0  0  0  0  0  0  0
    7.0066    1.2390   22.4709 H   0  0  0  0  0  0  0  0  0  0  0  0
    5.6592   -2.4446   21.3405 C   0  0  0  0  0  0  0  0  0  0  0  0
    5.6267   -2.3945   20.2555 H   0  0  0  0  0  0  0  0  0  0  0  0
    4.8465   -3.3587   21.9195 N   0  0  0  0  0  0  0  0  0  0  0  0
    4.9810   -3.4750   23.2489 C   0  0  0  0  0  0  0  0  0  0  0  0
    4.1563   -4.4660   23.7458 N   0  0  0  0  0  0  0  0  0  0  0  0
    3.6804   -4.2239   24.6040 H   0  0  0  0  0  0  0  0  0  0  0  0
    3.5124   -4.6220   22.9776 H   0  0  0  0  0  0  0  0  0  0  0  0
  1  2  1  0
  2  3  2  0
  3  4  1  0
  4  5  1  0
  5  6  1  0
  6  7  2  0
  7  8  1  0
  7  9  1  0
  9 10  2  0
 10 11  1  0
 10 12  1  0
 12 13  1  0
 12 14  2  0
 14 15  1  0
  5 16  1  0
 16 17  1  0
 16 18  1  0
 16 19  1  0
  5 20  1  0
 20 21  1  0
 20 22  1  0
 20 23  1  0
  4 24  2  0
 24 25  1  0
 24 26  1  0
 26 27  2  0
 27 28  1  0
 28 29  1  0
 28 30  1  0
 27  2  1  0
 14  6  1  0
M  END
>  <plip>  (1) 
-0.03571428571428571

>  <filename>  (1) 
[H][c]1[n][c]([C]([c]2[c]([H])[n][c]([H])[c]([H])[c]2[H])([C]([H])([H])[H])[C]([H])([H])[H])[c]([H])[n][c]1[N]([H])[H]

$$$$
