
     RDKit          3D

 39 41  0  0  0  0  0  0  0  0999 V2000
    6.6557   -1.2261   22.2413 O   0  0  0  0  0  0  0  0  0  0  0  0
    7.5585   -0.8364   21.1846 S   0  0  0  0  0  0  0  0  0  0  0  0
    8.4716   -1.7350   20.5057 O   0  0  0  0  0  0  0  0  0  0  0  0
    8.6173    0.2554   21.7709 N   0  0  0  0  0  0  0  0  0  0  0  0
    8.2190    1.5232   22.3164 C   0  0  0  0  0  0  0  0  0  0  0  0
    8.4282    2.6168   21.2819 C   0  0  0  0  0  0  0  0  0  0  0  0
    7.9975    3.9455   21.8813 C   0  0  0  0  0  0  0  0  0  0  0  0
    8.7659    4.1679   23.1063 N   0  0  0  0  0  0  0  0  0  0  0  0
    8.9341    5.4764   23.5307 C   0  0  0  0  0  0  0  0  0  0  0  0
   10.0572    5.7866   24.3408 C   0  0  0  0  0  0  0  0  0  0  0  0
   10.2171    7.0955   24.7372 C   0  0  0  0  0  0  0  0  0  0  0  0
    9.2222    8.0214   24.3438 C   0  0  0  0  0  0  0  0  0  0  0  0
    8.1814    7.6731   23.5959 N   0  0  0  0  0  0  0  0  0  0  0  0
    8.0477    6.4101   23.1649 N   0  0  0  0  0  0  0  0  0  0  0  0
    9.2725    9.0713   24.6094 H   0  0  0  0  0  0  0  0  0  0  0  0
   11.0707    7.4154   25.3325 H   0  0  0  0  0  0  0  0  0  0  0  0
   10.7457    4.9798   24.5787 H   0  0  0  0  0  0  0  0  0  0  0  0
    8.6249    3.1386   24.1371 C   0  0  0  0  0  0  0  0  0  0  0  0
    9.0606    1.8064   23.5541 C   0  0  0  0  0  0  0  0  0  0  0  0
   10.1239    1.8440   23.2805 H   0  0  0  0  0  0  0  0  0  0  0  0
    8.9304    0.9925   24.2731 H   0  0  0  0  0  0  0  0  0  0  0  0
    7.5759    3.0672   24.4864 H   0  0  0  0  0  0  0  0  0  0  0  0
    9.2207    3.3792   25.0232 H   0  0  0  0  0  0  0  0  0  0  0  0
    8.1805    4.7793   21.1988 H   0  0  0  0  0  0  0  0  0  0  0  0
    6.9125    3.9573   22.0930 H   0  0  0  0  0  0  0  0  0  0  0  0
    9.4908    2.6846   21.0076 H   0  0  0  0  0  0  0  0  0  0  0  0
    7.8682    2.3686   20.3770 H   0  0  0  0  0  0  0  0  0  0  0  0
    7.1519    1.4984   22.6161 H   0  0  0  0  0  0  0  0  0  0  0  0
    9.3482    0.2263   21.0781 H   0  0  0  0  0  0  0  0  0  0  0  0
    6.6438    0.0355   19.9925 C   0  0  0  0  0  0  0  0  0  0  0  0
    5.4164    0.6773   20.2190 C   0  0  0  0  0  0  0  0  0  0  0  0
    4.8377    1.3078   19.1188 C   0  0  0  0  0  0  0  0  0  0  0  0
    5.4920    1.2640   17.8809 C   0  0  0  0  0  0  0  0  0  0  0  0
    6.6609    0.6364   17.6882 N   0  0  0  0  0  0  0  0  0  0  0  0
    7.2205    0.0275   18.7300 C   0  0  0  0  0  0  0  0  0  0  0  0
    8.1455   -0.5060   18.5305 H   0  0  0  0  0  0  0  0  0  0  0  0
    5.0618    1.7514   17.0084 H   0  0  0  0  0  0  0  0  0  0  0  0
    3.8919    1.8351   19.1962 H   0  0  0  0  0  0  0  0  0  0  0  0
    4.9079    0.6856   21.1905 H   0  0  0  0  0  0  0  0  0  0  0  0
  1  2  2  0
  2  3  2  0
  2  4  1  0
  4  5  1  0
  5  6  1  0
  6  7  1  0
  7  8  1  0
  8  9  1  0
  9 10  2  0
 10 11  1  0
 11 12  2  0
 12 13  1  0
 13 14  2  0
 12 15  1  0
 11 16  1  0
 10 17  1  0
  8 18  1  0
 18 19  1  0
 19 20  1  0
 19 21  1  0
 18 22  1  0
 18 23  1  0
  7 24  1  0
  7 25  1  0
  6 26  1  0
  6 27  1  0
  5 28  1  0
  4 29  1  0
  2 30  1  0
 30 31  2  0
 31 32  1  0
 32 33  2  0
 33 34  1  0
 34 35  2  0
 35 36  1  0
 33 37  1  0
 32 38  1  0
 31 39  1  0
 19  5  1  0
 35 30  1  0
 14  9  1  0
M  END
>  <plip>  (1) 
-0.034482758620689655

>  <filename>  (1) 
[H][c]1[n][n][c]([N]2[C]([H])([H])[C]([H])([H])[C]([H])([N]([H])[S](=[O])(=[O])[c]3[c]([H])[n][c]([H])[c]([H])[c]3[H])[C]([H])([H])[C]2([H])[H])[c]([H])[c]1[H]

$$$$
