
     RDKit          3D

 36 39  0  0  0  0  0  0  0  0999 V2000
    8.7491   -0.5596   26.4741 F   0  0  0  0  0  0  0  0  0  0  0  0
    8.0570    0.4796   25.9798 C   0  0  0  0  0  0  0  0  0  0  0  0
    8.6158    1.7598   26.0585 C   0  0  0  0  0  0  0  0  0  0  0  0
    7.9849    2.8587   25.6287 N   0  0  0  0  0  0  0  0  0  0  0  0
    6.7575    2.7079   25.1051 C   0  0  0  0  0  0  0  0  0  0  0  0
    6.1429    1.4605   24.9536 C   0  0  0  0  0  0  0  0  0  0  0  0
    6.8144    0.2984   25.3646 C   0  0  0  0  0  0  0  0  0  0  0  0
    6.2383   -1.3057   24.8290 S   0  0  0  0  0  0  0  0  0  0  0  0
    7.0822   -1.2191   23.2567 C   0  0  0  0  0  0  0  0  0  0  0  0
    6.4215   -0.6627   22.2454 N   0  0  0  0  0  0  0  0  0  0  0  0
    7.0830   -0.4788   21.1042 C   0  0  0  0  0  0  0  0  0  0  0  0
    6.3739    0.1454   19.9777 C   0  0  0  0  0  0  0  0  0  0  0  0
    5.1397    0.8119   20.0527 C   0  0  0  0  0  0  0  0  0  0  0  0
    4.6612    1.4190   18.8911 C   0  0  0  0  0  0  0  0  0  0  0  0
    5.4037    1.3179   17.7087 C   0  0  0  0  0  0  0  0  0  0  0  0
    6.5579    0.6460   17.6199 N   0  0  0  0  0  0  0  0  0  0  0  0
    7.0184    0.0837   18.7357 C   0  0  0  0  0  0  0  0  0  0  0  0
    7.9545   -0.4590   18.6549 H   0  0  0  0  0  0  0  0  0  0  0  0
    5.0631    1.7978   16.7935 H   0  0  0  0  0  0  0  0  0  0  0  0
    3.7372    1.9866   18.8819 H   0  0  0  0  0  0  0  0  0  0  0  0
    4.5714    0.8551   20.9853 H   0  0  0  0  0  0  0  0  0  0  0  0
    8.3502   -0.8347   20.8854 N   0  0  0  0  0  0  0  0  0  0  0  0
    8.9718   -1.4112   21.8983 C   0  0  0  0  0  0  0  0  0  0  0  0
    8.4195   -1.5984   23.1604 C   0  0  0  0  0  0  0  0  0  0  0  0
    9.4440   -2.2138   24.0844 C   0  0  0  0  0  0  0  0  0  0  0  0
   10.4048   -2.8875   23.0766 C   0  0  0  0  0  0  0  0  0  0  0  0
   10.3301   -2.0209   21.7939 C   0  0  0  0  0  0  0  0  0  0  0  0
   10.3765   -2.5740   20.8533 H   0  0  0  0  0  0  0  0  0  0  0  0
   11.1095   -1.2507   21.7455 H   0  0  0  0  0  0  0  0  0  0  0  0
   11.4130   -3.0260   23.4776 H   0  0  0  0  0  0  0  0  0  0  0  0
   10.0108   -3.8860   22.8646 H   0  0  0  0  0  0  0  0  0  0  0  0
    9.9913   -1.4363   24.6358 H   0  0  0  0  0  0  0  0  0  0  0  0
    9.0192   -2.9091   24.8190 H   0  0  0  0  0  0  0  0  0  0  0  0
    5.1835    1.3605   24.4563 H   0  0  0  0  0  0  0  0  0  0  0  0
    6.2573    3.6167   24.7786 H   0  0  0  0  0  0  0  0  0  0  0  0
    9.6165    1.8722   26.4678 H   0  0  0  0  0  0  0  0  0  0  0  0
  1  2  1  0
  2  3  2  0
  3  4  1  0
  4  5  2  0
  5  6  1  0
  6  7  2  0
  7  8  1  0
  8  9  1  0
  9 10  2  0
 10 11  1  0
 11 12  1  0
 12 13  2  0
 13 14  1  0
 14 15  2  0
 15 16  1  0
 16 17  2  0
 17 18  1  0
 15 19  1  0
 14 20  1  0
 13 21  1  0
 11 22  2  0
 22 23  1  0
 23 24  2  0
 24 25  1  0
 25 26  1  0
 26 27  1  0
 27 28  1  0
 27 29  1  0
 26 30  1  0
 26 31  1  0
 25 32  1  0
 25 33  1  0
  6 34  1  0
  5 35  1  0
  3 36  1  0
  7  2  1  0
 24  9  1  0
 17 12  1  0
 27 23  1  0
M  END
>  <plip>  (1) 
-0.0

>  <filename>  (1) 
[H][c]1[n][c]([H])[c](-[c]2[n][c]([S][c]3[c]([H])[c]([H])[n][c]([H])[c]3[F])[c]3[c]([n]2)[C]([H])([H])[C]([H])([H])[C]3([H])[H])[c]([H])[c]1[H]

$$$$
