
     RDKit          3D

 27 28  0  0  0  0  0  0  0  0999 V2000
    5.1488    1.7111   17.0869 H   0  0  0  0  0  0  0  0  0  0  0  0
    5.6042    1.2267   17.9527 C   0  0  0  0  0  0  0  0  0  0  0  0
    6.7795    0.6201   17.7379 N   0  0  0  0  0  0  0  0  0  0  0  0
    7.3716    0.0174   18.7619 C   0  0  0  0  0  0  0  0  0  0  0  0
    8.3305   -0.4412   18.5366 H   0  0  0  0  0  0  0  0  0  0  0  0
    6.7786   -0.0326   20.0148 C   0  0  0  0  0  0  0  0  0  0  0  0
    7.6185   -0.9868   21.1682 S   0  0  0  0  0  0  0  0  0  0  0  0
    6.7163   -1.5999   22.1134 O   0  0  0  0  0  0  0  0  0  0  0  0
    8.5537   -1.8227   20.4479 O   0  0  0  0  0  0  0  0  0  0  0  0
    8.3823    0.2301   21.9016 O   0  0  0  0  0  0  0  0  0  0  0  0
    9.2900   -0.3379   22.8815 C   0  0  1  0  0  0  0  0  0  0  0  0
    8.6919   -0.8717   23.6431 H   0  0  0  0  0  0  0  0  0  0  0  0
   10.2743   -1.1558   22.2684 N   0  0  0  0  0  0  0  0  0  0  0  0
   10.0194   -1.5521   21.3787 H   0  0  0  0  0  0  0  0  0  0  0  0
   11.6338   -0.7338   22.5355 C   0  0  0  0  0  0  0  0  0  0  0  0
   12.2973   -1.6048   22.6249 H   0  0  0  0  0  0  0  0  0  0  0  0
   12.0457   -0.1138   21.7185 H   0  0  0  0  0  0  0  0  0  0  0  0
   11.4588    0.0900   23.8232 C   0  0  0  0  0  0  0  0  0  0  0  0
   12.2893    0.7732   24.0377 H   0  0  0  0  0  0  0  0  0  0  0  0
   11.3622   -0.5960   24.6764 H   0  0  0  0  0  0  0  0  0  0  0  0
   10.1009    0.7742   23.5682 C   0  0  0  0  0  0  0  0  0  0  0  0
   10.1884    1.6209   22.8797 H   0  0  0  0  0  0  0  0  0  0  0  0
    9.5956    1.1172   24.4757 H   0  0  0  0  0  0  0  0  0  0  0  0
    5.5812    0.6348   20.2871 C   0  0  0  0  0  0  0  0  0  0  0  0
    5.1265    0.6892   21.2791 H   0  0  0  0  0  0  0  0  0  0  0  0
    4.9803    1.2692   19.2043 C   0  0  0  0  0  0  0  0  0  0  0  0
    4.0438    1.8093   19.3066 H   0  0  0  0  0  0  0  0  0  0  0  0
  1  2  1  0
  2  3  2  0
  3  4  1  0
  4  5  1  0
  4  6  2  0
  6  7  1  0
  7  8  2  0
  7  9  2  0
  7 10  1  0
 10 11  1  0
 11 12  1  1
 11 13  1  0
 13 14  1  0
 13 15  1  0
 15 16  1  0
 15 17  1  0
 15 18  1  0
 18 19  1  0
 18 20  1  0
 18 21  1  0
 21 22  1  0
 21 23  1  0
  6 24  1  0
 24 25  1  0
 24 26  2  0
 26 27  1  0
 26  2  1  0
 21 11  1  0
M  END
>  <plip>  (1) 
-0.03333333333333333

>  <filename>  (1) 
[H][c]1[n][c]([H])[c]([S](=[O])(=[O])[O][C@@]2([H])[N]([H])[C]([H])([H])[C]([H])([H])[C]2([H])[H])[c]([H])[c]1[H]

$$$$
