
     RDKit          3D

 34 36  0  0  0  0  0  0  0  0999 V2000
    4.9492    1.7913   17.0058 H   0  0  0  0  0  0  0  0  0  0  0  0
    5.4219    1.2896   17.8438 C   0  0  0  0  0  0  0  0  0  0  0  0
    6.5863    0.6775   17.5786 N   0  0  0  0  0  0  0  0  0  0  0  0
    7.2082    0.0662   18.5969 C   0  0  0  0  0  0  0  0  0  0  0  0
    8.1553   -0.4219   18.3623 H   0  0  0  0  0  0  0  0  0  0  0  0
    6.6930    0.0038   19.9114 C   0  0  0  0  0  0  0  0  0  0  0  0
    7.3670   -0.6797   20.9698 N   0  0  0  0  0  0  0  0  0  0  0  0
    6.7489   -1.6510   21.7404 C   0  0  0  0  0  0  0  0  0  0  0  0
    5.6322   -2.0978   21.5599 O   0  0  0  0  0  0  0  0  0  0  0  0
    7.7402   -2.1297   22.7824 C   0  0  0  0  0  0  0  0  0  0  0  0
    7.3758   -1.8518   23.7774 H   0  0  0  0  0  0  0  0  0  0  0  0
    7.7376   -3.2214   22.7235 H   0  0  0  0  0  0  0  0  0  0  0  0
    9.0826   -1.4713   22.4130 C   0  0  0  0  0  0  0  0  0  0  0  0
    9.4930   -0.8646   23.2316 H   0  0  0  0  0  0  0  0  0  0  0  0
    9.8551   -2.2092   22.1798 H   0  0  0  0  0  0  0  0  0  0  0  0
    8.8136   -0.5801   21.1782 C   0  0  2  0  0  0  0  0  0  0  0  0
    9.3328   -0.9921   20.2996 H   0  0  0  0  0  0  0  0  0  0  0  0
    9.2725    0.8848   21.3271 C   0  0  1  0  0  0  0  0  0  0  0  0
    8.9744    1.3722   20.3923 H   0  0  0  0  0  0  0  0  0  0  0  0
    8.5923    1.6466   22.4923 C   0  0  0  0  0  0  0  0  0  0  0  0
    7.9222    1.0026   23.0825 H   0  0  0  0  0  0  0  0  0  0  0  0
    7.9530    2.4489   22.0897 H   0  0  0  0  0  0  0  0  0  0  0  0
    9.6843    2.1420   23.3292 N   0  0  0  0  0  0  0  0  0  0  0  0
    9.4536    3.0337   23.7580 H   0  0  0  0  0  0  0  0  0  0  0  0
   10.9149    2.2116   22.5481 C   0  0  0  0  0  0  0  0  0  0  0  0
   11.7894    2.1188   23.2061 H   0  0  0  0  0  0  0  0  0  0  0  0
   11.0387    3.1500   21.9798 H   0  0  0  0  0  0  0  0  0  0  0  0
   10.7948    1.0412   21.5727 C   0  0  0  0  0  0  0  0  0  0  0  0
   11.3763    1.2545   20.6728 H   0  0  0  0  0  0  0  0  0  0  0  0
   11.2147    0.1300   22.0193 H   0  0  0  0  0  0  0  0  0  0  0  0
    5.4626    0.6333   20.1615 C   0  0  0  0  0  0  0  0  0  0  0  0
    5.0280    0.5836   21.1595 H   0  0  0  0  0  0  0  0  0  0  0  0
    4.8233    1.3007   19.1100 C   0  0  0  0  0  0  0  0  0  0  0  0
    3.8838    1.8293   19.2603 H   0  0  0  0  0  0  0  0  0  0  0  0
  1  2  1  0
  2  3  2  0
  3  4  1  0
  4  5  1  0
  4  6  2  0
  6  7  1  0
  7  8  1  0
  8  9  2  0
  8 10  1  0
 10 11  1  0
 10 12  1  0
 10 13  1  0
 13 14  1  0
 13 15  1  0
 13 16  1  0
 16 17  1  6
 16 18  1  0
 18 19  1  6
 18 20  1  0
 20 21  1  0
 20 22  1  0
 20 23  1  0
 23 24  1  0
 23 25  1  0
 25 26  1  0
 25 27  1  0
 25 28  1  0
 28 29  1  0
 28 30  1  0
  6 31  1  0
 31 32  1  0
 31 33  2  0
 33 34  1  0
 33  2  1  0
 16  7  1  0
 28 18  1  0
M  END
>  <plip>  (1) 
-0.10714285714285714

>  <filename>  (1) 
[H][c]1[n][c]([H])[c]([N]2[C](=[O])[C]([H])([H])[C]([H])([H])[C@]2([H])[C@@]2([H])[C]([H])([H])[N]([H])[C]([H])([H])[C]2([H])[H])[c]([H])[c]1[H]

$$$$
