
     RDKit          3D

 55 57  0  0  0  0  0  0  0  0999 V2000
   10.8248   -0.5530   21.4309 C   0  0  0  0  0  0  0  0  0  0  0  0
   10.7040    0.8626   21.9818 C   0  0  0  0  0  0  0  0  0  0  0  0
   11.1505    0.8830   23.4469 C   0  0  0  0  0  0  0  0  0  0  0  0
   11.1439    2.2437   24.1639 C   0  0  0  0  0  0  0  0  0  0  0  0
   11.9023    3.3449   23.4392 C   0  0  0  0  0  0  0  0  0  0  0  0
   13.3022    3.3492   23.3261 C   0  0  0  0  0  0  0  0  0  0  0  0
   13.9617    4.3787   22.6425 C   0  0  0  0  0  0  0  0  0  0  0  0
   13.2348    5.3922   22.0078 C   0  0  0  0  0  0  0  0  0  0  0  0
   11.8386    5.3659   22.0602 C   0  0  0  0  0  0  0  0  0  0  0  0
   11.1865    4.3609   22.7835 C   0  0  0  0  0  0  0  0  0  0  0  0
   10.1012    4.3766   22.8521 H   0  0  0  0  0  0  0  0  0  0  0  0
   11.2405    6.1084   21.5383 H   0  0  0  0  0  0  0  0  0  0  0  0
   13.7517    6.1831   21.4664 H   0  0  0  0  0  0  0  0  0  0  0  0
   15.0451    4.3979   22.6287 H   0  0  0  0  0  0  0  0  0  0  0  0
   13.8750    2.5330   23.7684 H   0  0  0  0  0  0  0  0  0  0  0  0
   10.1049    2.5610   24.3050 H   0  0  0  0  0  0  0  0  0  0  0  0
   11.5271    2.1056   25.1836 H   0  0  0  0  0  0  0  0  0  0  0  0
   12.1761    0.4975   23.4559 H   0  0  0  0  0  0  0  0  0  0  0  0
   10.5633    0.1588   24.0243 H   0  0  0  0  0  0  0  0  0  0  0  0
    9.3031    1.4510   21.7369 N   0  0  0  0  0  4  0  0  0  0  0  0
    8.1498    1.1135   22.6658 C   0  0  0  0  0  0  0  0  0  0  0  0
    7.4434   -0.2319   22.3953 C   0  0  2  0  0  0  0  0  0  0  0  0
    7.8920   -1.4479   23.2471 C   0  0  0  0  0  0  0  0  0  0  0  0
    7.8148   -2.6921   22.3332 C   0  0  0  0  0  0  0  0  0  0  0  0
    7.2006   -2.2247   21.0270 N   0  0  0  0  0  4  0  0  0  0  0  0
    5.7323   -2.5537   20.9110 C   0  0  0  0  0  0  0  0  0  0  0  0
    5.5518   -3.6188   21.0966 H   0  0  0  0  0  0  0  0  0  0  0  0
    5.3790   -2.2921   19.9089 H   0  0  0  0  0  0  0  0  0  0  0  0
    5.1483   -1.9766   21.6366 H   0  0  0  0  0  0  0  0  0  0  0  0
    7.5305   -0.7236   20.9547 C   0  0  1  0  0  0  0  0  0  0  0  0
    6.7621    0.0142   19.9012 C   0  0  0  0  0  0  0  0  0  0  0  0
    5.6163    0.7957   20.1176 C   0  0  0  0  0  0  0  0  0  0  0  0
    5.0271    1.4254   19.0185 C   0  0  0  0  0  0  0  0  0  0  0  0
    5.5884    1.2443   17.7501 C   0  0  0  0  0  0  0  0  0  0  0  0
    6.6626    0.4747   17.5257 N   0  0  0  0  0  0  0  0  0  0  0  0
    7.2180   -0.1268   18.5827 C   0  0  0  0  0  0  0  0  0  0  0  0
    8.0838   -0.7565   18.3686 H   0  0  0  0  0  0  0  0  0  0  0  0
    5.1558    1.7345   16.8779 H   0  0  0  0  0  0  0  0  0  0  0  0
    4.1547    2.0602   19.1286 H   0  0  0  0  0  0  0  0  0  0  0  0
    5.1756    0.9108   21.1113 H   0  0  0  0  0  0  0  0  0  0  0  0
    8.5684   -0.7499   20.6338 H   0  0  0  0  0  0  0  0  0  0  0  0
    7.6710   -2.6392   20.2020 H   0  0  0  0  0  0  0  0  0  0  0  0
    7.2023   -3.4920   22.7551 H   0  0  0  0  0  0  0  0  0  0  0  0
    8.8070   -3.1148   22.1409 H   0  0  0  0  0  0  0  0  0  0  0  0
    7.2497   -1.5646   24.1260 H   0  0  0  0  0  0  0  0  0  0  0  0
    8.9093   -1.3234   23.6339 H   0  0  0  0  0  0  0  0  0  0  0  0
    6.3753   -0.0856   22.6025 H   0  0  0  0  0  0  0  0  0  0  0  0
    7.4156    1.9224   22.5828 H   0  0  0  0  0  0  0  0  0  0  0  0
    8.5100    1.1328   23.6978 H   0  0  0  0  0  0  0  0  0  0  0  0
    9.4484    2.4857   21.7263 H   0  0  0  0  0  0  0  0  0  0  0  0
    8.9781    1.2319   20.7724 H   0  0  0  0  0  0  0  0  0  0  0  0
   11.3927    1.5188   21.4362 H   0  0  0  0  0  0  0  0  0  0  0  0
   10.5603   -0.6057   20.3742 H   0  0  0  0  0  0  0  0  0  0  0  0
   10.1773   -1.2444   21.9724 H   0  0  0  0  0  0  0  0  0  0  0  0
   11.8489   -0.9189   21.5381 H   0  0  0  0  0  0  0  0  0  0  0  0
  1  2  1  0
  2  3  1  0
  3  4  1  0
  4  5  1  0
  5  6  2  0
  6  7  1  0
  7  8  2  0
  8  9  1  0
  9 10  2  0
 10 11  1  0
  9 12  1  0
  8 13  1  0
  7 14  1  0
  6 15  1  0
  4 16  1  0
  4 17  1  0
  3 18  1  0
  3 19  1  0
  2 20  1  0
 20 21  1  0
 21 22  1  0
 22 23  1  0
 23 24  1  0
 24 25  1  0
 25 26  1  0
 26 27  1  0
 26 28  1  0
 26 29  1  0
 25 30  1  0
 30 31  1  0
 31 32  2  0
 32 33  1  0
 33 34  2  0
 34 35  1  0
 35 36  2  0
 36 37  1  0
 34 38  1  0
 33 39  1  0
 32 40  1  0
 30 41  1  6
 25 42  1  0
 24 43  1  0
 24 44  1  0
 23 45  1  0
 23 46  1  0
 22 47  1  1
 21 48  1  0
 21 49  1  0
 20 50  1  0
 20 51  1  0
  2 52  1  0
  1 53  1  0
  1 54  1  0
  1 55  1  0
 10  5  1  0
 30 22  1  0
 36 31  1  0
M  CHG  2  20   1  25   1
M  END
>  <plip>  (1) 
-0.13793103448275862

>  <filename>  (1) 
[H][c]1[n][c]([H])[c]([C@@]2([H])[C@]([H])([C]([H])([H])[N+]([H])([H])[C]([H])([C]([H])([H])[H])[C]([H])([H])[C]([H])([H])[c]3[c]([H])[c]([H])[c]([H])[c]([H])[c]3[H])[C]([H])([H])[C]([H])([H])[N+]2([H])[C]([H])([H])[H])[c]([H])[c]1[H]

$$$$
