
     RDKit          3D

 44 45  0  0  0  0  0  0  0  0999 V2000
    5.7457   -2.5344   21.5683 C   0  0  0  0  0  0  0  0  0  0  0  0
    7.0637   -2.2232   20.8964 N   0  0  0  0  0  4  0  0  0  0  0  0
    8.1073   -3.1605   21.3994 C   0  0  0  0  0  0  0  0  0  0  0  0
    9.0775   -2.9503   20.9352 H   0  0  0  0  0  0  0  0  0  0  0  0
    8.2340   -3.0764   22.4883 H   0  0  0  0  0  0  0  0  0  0  0  0
    7.8309   -4.1987   21.1793 H   0  0  0  0  0  0  0  0  0  0  0  0
    7.4461   -0.7234   20.9926 C   0  0  0  0  0  0  0  0  0  0  0  0
    7.3050   -0.1800   22.4296 C   0  0  0  0  0  0  0  0  0  0  0  0
    7.7679    1.2206   22.5924 N   0  0  0  0  0  4  0  0  0  0  0  0
    7.9772    1.7149   23.9846 C   0  0  0  0  0  0  0  0  0  0  0  0
    8.4519    3.1215   23.7847 C   0  0  0  0  0  0  0  0  0  0  0  0
    9.8268    3.3766   23.6880 C   0  0  0  0  0  0  0  0  0  0  0  0
   10.2701    4.6379   23.3195 C   0  0  0  0  0  0  0  0  0  0  0  0
    9.2909    5.6196   23.1427 C   0  0  0  0  0  0  0  0  0  0  0  0
    9.7832    7.2261   22.7671 Cl  0  0  0  0  0  0  0  0  0  0  0  0
    7.9921    5.4117   23.2450 N   0  0  0  0  0  0  0  0  0  0  0  0
    7.5489    4.1725   23.4948 C   0  0  0  0  0  0  0  0  0  0  0  0
    6.0154    3.9185   23.4302 C   0  0  0  0  0  0  0  0  0  0  0  0
    5.2772    4.9855   23.1514 F   0  0  0  0  0  0  0  0  0  0  0  0
    5.7341    2.9876   22.4569 F   0  0  0  0  0  0  0  0  0  0  0  0
    5.5384    3.3679   24.5679 F   0  0  0  0  0  0  0  0  0  0  0  0
   11.3107    4.8561   23.1233 H   0  0  0  0  0  0  0  0  0  0  0  0
   10.5494    2.5833   23.8837 H   0  0  0  0  0  0  0  0  0  0  0  0
    7.0516    1.6697   24.5594 H   0  0  0  0  0  0  0  0  0  0  0  0
    8.7393    1.1228   24.5082 H   0  0  0  0  0  0  0  0  0  0  0  0
    8.6560    1.4328   22.0704 H   0  0  0  0  0  0  0  0  0  0  0  0
    7.0762    1.8634   22.1538 H   0  0  0  0  0  0  0  0  0  0  0  0
    7.8715   -0.8537   23.0898 H   0  0  0  0  0  0  0  0  0  0  0  0
    6.2575   -0.2725   22.7408 H   0  0  0  0  0  0  0  0  0  0  0  0
    6.6415   -0.0481   19.8948 C   0  0  0  0  0  0  0  0  0  0  0  0
    5.4900    0.7270   20.1011 C   0  0  0  0  0  0  0  0  0  0  0  0
    4.9034    1.3718   19.0086 C   0  0  0  0  0  0  0  0  0  0  0  0
    5.4634    1.1908   17.7435 C   0  0  0  0  0  0  0  0  0  0  0  0
    6.5264    0.4044   17.5159 N   0  0  0  0  0  0  0  0  0  0  0  0
    7.0772   -0.2127   18.5661 C   0  0  0  0  0  0  0  0  0  0  0  0
    7.9448   -0.8331   18.3322 H   0  0  0  0  0  0  0  0  0  0  0  0
    5.0404    1.7012   16.8799 H   0  0  0  0  0  0  0  0  0  0  0  0
    4.0461    2.0243   19.1337 H   0  0  0  0  0  0  0  0  0  0  0  0
    5.0444    0.8336   21.0941 H   0  0  0  0  0  0  0  0  0  0  0  0
    8.5163   -0.6596   20.7527 H   0  0  0  0  0  0  0  0  0  0  0  0
    6.9271   -2.3441   19.8642 H   0  0  0  0  0  0  0  0  0  0  0  0
    5.0009   -1.7760   21.3106 H   0  0  0  0  0  0  0  0  0  0  0  0
    5.3745   -3.5163   21.2650 H   0  0  0  0  0  0  0  0  0  0  0  0
    5.8486   -2.5386   22.6614 H   0  0  0  0  0  0  0  0  0  0  0  0
  1  2  1  0
  2  3  1  0
  3  4  1  0
  3  5  1  0
  3  6  1  0
  2  7  1  0
  7  8  1  0
  8  9  1  0
  9 10  1  0
 10 11  1  0
 11 12  2  0
 12 13  1  0
 13 14  2  0
 14 15  1  0
 14 16  1  0
 16 17  2  0
 17 18  1  0
 18 19  1  0
 18 20  1  0
 18 21  1  0
 13 22  1  0
 12 23  1  0
 10 24  1  0
 10 25  1  0
  9 26  1  0
  9 27  1  0
  8 28  1  0
  8 29  1  0
  7 30  1  0
 30 31  2  0
 31 32  1  0
 32 33  2  0
 33 34  1  0
 34 35  2  0
 35 36  1  0
 33 37  1  0
 32 38  1  0
 31 39  1  0
  7 40  1  0
  2 41  1  0
  1 42  1  0
  1 43  1  0
  1 44  1  0
 17 11  1  0
 35 30  1  0
M  CHG  2   2   1   9   1
M  END
>  <plip>  (1) 
-0.07142857142857142

>  <filename>  (1) 
[H][c]1[n][c]([H])[c]([C]([H])([C]([H])([H])[N+]([H])([H])[C]([H])([H])[c]2[c]([C]([F])([F])[F])[n][c]([Cl])[c]([H])[c]2[H])[N+]([H])([C]([H])([H])[H])[C]([H])([H])[H])[c]([H])[c]1[H]

$$$$
