
     RDKit          3D

 32 33  0  0  0  0  0  0  0  0999 V2000
    4.9822    1.7798   16.9532 H   0  0  0  0  0  0  0  0  0  0  0  0
    5.4274    1.2719   17.8091 C   0  0  0  0  0  0  0  0  0  0  0  0
    6.5639    0.5968   17.5790 N   0  0  0  0  0  0  0  0  0  0  0  0
    7.1272   -0.0181   18.6278 C   0  0  0  0  0  0  0  0  0  0  0  0
    8.0412   -0.5646   18.4029 H   0  0  0  0  0  0  0  0  0  0  0  0
    6.6360    0.0154   19.9441 C   0  0  0  0  0  0  0  0  0  0  0  0
    7.4546   -0.7068   21.0114 C   0  0  2  0  0  0  0  0  0  0  0  0
    8.5082   -0.5092   20.7616 H   0  0  0  0  0  0  0  0  0  0  0  0
    7.2651   -2.1607   20.8797 N   0  0  0  0  0  0  0  0  0  0  0  0
    8.3337   -3.0291   21.3782 C   0  0  0  0  0  0  0  0  0  0  0  0
    8.4103   -3.0997   22.4810 H   0  0  0  0  0  0  0  0  0  0  0  0
    9.3055   -2.7084   20.9885 H   0  0  0  0  0  0  0  0  0  0  0  0
    8.1618   -4.0483   21.0097 H   0  0  0  0  0  0  0  0  0  0  0  0
    5.9578   -2.6268   21.3271 C   0  0  0  0  0  0  0  0  0  0  0  0
    5.1874   -1.9334   20.9804 H   0  0  0  0  0  0  0  0  0  0  0  0
    5.8880   -2.6888   22.4250 H   0  0  0  0  0  0  0  0  0  0  0  0
    5.6584   -3.9121   20.7609 N   0  0  0  0  0  0  0  0  0  0  0  0
    5.7050   -4.1176   19.4198 C   0  0  0  0  0  0  0  0  0  0  0  0
    5.8321   -3.2913   18.7268 H   0  0  0  0  0  0  0  0  0  0  0  0
    5.6075   -5.3844   19.1113 N   0  0  0  0  0  0  0  0  0  0  0  0
    5.5264   -6.0373   20.3124 C   0  0  0  0  0  0  0  0  0  0  0  0
    5.3994   -7.1061   20.3805 H   0  0  0  0  0  0  0  0  0  0  0  0
    5.5833   -5.1622   21.3540 C   0  0  0  0  0  0  0  0  0  0  0  0
    5.6332   -5.3597   22.4162 H   0  0  0  0  0  0  0  0  0  0  0  0
    7.2370   -0.1981   22.4425 C   0  0  0  0  0  0  0  0  0  0  0  0
    7.3796    0.8838   22.5121 H   0  0  0  0  0  0  0  0  0  0  0  0
    7.9485   -0.6888   23.1156 H   0  0  0  0  0  0  0  0  0  0  0  0
    6.2279   -0.4287   22.7946 H   0  0  0  0  0  0  0  0  0  0  0  0
    5.4270    0.6925   20.1544 C   0  0  0  0  0  0  0  0  0  0  0  0
    4.9619    0.7355   21.1436 H   0  0  0  0  0  0  0  0  0  0  0  0
    4.8184    1.3308   19.0660 C   0  0  0  0  0  0  0  0  0  0  0  0
    3.8885    1.8735   19.1808 H   0  0  0  0  0  0  0  0  0  0  0  0
  1  2  1  0
  2  3  2  0
  3  4  1  0
  4  5  1  0
  4  6  2  0
  6  7  1  0
  7  8  1  6
  7  9  1  0
  9 10  1  0
 10 11  1  0
 10 12  1  0
 10 13  1  0
  9 14  1  0
 14 15  1  0
 14 16  1  0
 14 17  1  0
 17 18  1  0
 18 19  1  0
 18 20  2  0
 20 21  1  0
 21 22  1  0
 21 23  2  0
 23 24  1  0
  7 25  1  0
 25 26  1  0
 25 27  1  0
 25 28  1  0
  6 29  1  0
 29 30  1  0
 29 31  2  0
 31 32  1  0
 31  2  1  0
 23 17  1  0
M  END
>  <plip>  (1) 
-0.14285714285714285

>  <filename>  (1) 
[H][c]1[n][c]([H])[c]([C@]([H])([N]([C]([H])([H])[H])[C]([H])([H])[n]2[c]([H])[n][c]([H])[c]2[H])[C]([H])([H])[H])[c]([H])[c]1[H]

$$$$
