
     RDKit          3D

 47 48  0  0  0  0  0  0  0  0999 V2000
   11.8713    1.9325   22.2023 C   0  0  0  0  0  0  0  0  0  0  0  0
   10.6851    2.8602   22.3209 C   0  0  0  0  0  0  0  0  0  0  0  0
   10.8869    4.1456   22.8485 C   0  0  0  0  0  0  0  0  0  0  0  0
    9.8396    5.0657   22.8964 C   0  0  0  0  0  0  0  0  0  0  0  0
   10.0110    6.3664   23.2704 O   0  0  0  0  0  0  0  0  0  0  0  0
   10.9132    6.6245   23.0555 H   0  0  0  0  0  0  0  0  0  0  0  0
    8.5493    4.6723   22.5583 C   0  0  0  0  0  0  0  0  0  0  0  0
    8.3185    3.4024   22.0506 C   0  0  0  0  0  0  0  0  0  0  0  0
    9.3733    2.4769   21.9446 C   0  0  0  0  0  0  0  0  0  0  0  0
    9.0927    1.1055   21.3825 C   0  0  0  0  0  0  0  0  0  0  0  0
    9.7964    0.6142   20.5115 O   0  0  0  0  0  0  0  0  0  0  0  0
    8.0147    0.4073   21.9068 N   0  0  0  0  0  0  0  0  0  0  0  0
    7.5130    0.6163   23.2638 C   0  0  0  0  0  0  0  0  0  0  0  0
    8.5107    0.0973   24.3048 C   0  0  0  0  0  0  0  0  0  0  0  0
    8.1945    0.5821   25.7058 N   0  0  0  0  0  4  0  0  0  0  0  0
    9.3190    0.2884   26.6417 C   0  0  0  0  0  0  0  0  0  0  0  0
    9.5281   -0.7887   26.6379 H   0  0  0  0  0  0  0  0  0  0  0  0
   10.2304    0.8149   26.3394 H   0  0  0  0  0  0  0  0  0  0  0  0
    9.0546    0.5842   27.6609 H   0  0  0  0  0  0  0  0  0  0  0  0
    6.9250   -0.0348   26.2216 C   0  0  0  0  0  0  0  0  0  0  0  0
    6.0645    0.2711   25.6221 H   0  0  0  0  0  0  0  0  0  0  0  0
    6.7520    0.2553   27.2616 H   0  0  0  0  0  0  0  0  0  0  0  0
    7.0104   -1.1284   26.1743 H   0  0  0  0  0  0  0  0  0  0  0  0
    8.0859    1.6209   25.6322 H   0  0  0  0  0  0  0  0  0  0  0  0
    9.5194    0.4243   24.0344 H   0  0  0  0  0  0  0  0  0  0  0  0
    8.5221   -0.9991   24.3034 H   0  0  0  0  0  0  0  0  0  0  0  0
    7.3267    1.6801   23.4583 H   0  0  0  0  0  0  0  0  0  0  0  0
    6.5401    0.1172   23.3687 H   0  0  0  0  0  0  0  0  0  0  0  0
    7.4145   -0.6081   21.0345 C   0  0  0  0  0  0  0  0  0  0  0  0
    6.6615    0.0353   19.8929 C   0  0  0  0  0  0  0  0  0  0  0  0
    5.4179    0.6489   20.0831 C   0  0  0  0  0  0  0  0  0  0  0  0
    4.8119    1.2948   19.0045 C   0  0  0  0  0  0  0  0  0  0  0  0
    5.4716    1.3008   17.7705 C   0  0  0  0  0  0  0  0  0  0  0  0
    6.6592    0.7155   17.5671 N   0  0  0  0  0  0  0  0  0  0  0  0
    7.2367    0.1134   18.6163 C   0  0  0  0  0  0  0  0  0  0  0  0
    8.2096   -0.3411   18.4284 H   0  0  0  0  0  0  0  0  0  0  0  0
    5.0225    1.7884   16.9053 H   0  0  0  0  0  0  0  0  0  0  0  0
    3.8623    1.8066   19.1088 H   0  0  0  0  0  0  0  0  0  0  0  0
    4.9488    0.6419   21.0702 H   0  0  0  0  0  0  0  0  0  0  0  0
    6.7462   -1.2396   21.6337 H   0  0  0  0  0  0  0  0  0  0  0  0
    8.2132   -1.2479   20.6427 H   0  0  0  0  0  0  0  0  0  0  0  0
    7.3104    3.1314   21.7305 H   0  0  0  0  0  0  0  0  0  0  0  0
    7.7678    5.4060   22.6826 H   0  0  0  0  0  0  0  0  0  0  0  0
   11.8613    4.4333   23.2403 H   0  0  0  0  0  0  0  0  0  0  0  0
   11.7072    1.0168   22.7785 H   0  0  0  0  0  0  0  0  0  0  0  0
   12.0418    1.6228   21.1675 H   0  0  0  0  0  0  0  0  0  0  0  0
   12.7831    2.4042   22.5838 H   0  0  0  0  0  0  0  0  0  0  0  0
  1  2  1  0
  2  3  2  0
  3  4  1  0
  4  5  1  0
  5  6  1  0
  4  7  2  0
  7  8  1  0
  8  9  2  0
  9 10  1  0
 10 11  2  0
 10 12  1  0
 12 13  1  0
 13 14  1  0
 14 15  1  0
 15 16  1  0
 16 17  1  0
 16 18  1  0
 16 19  1  0
 15 20  1  0
 20 21  1  0
 20 22  1  0
 20 23  1  0
 15 24  1  0
 14 25  1  0
 14 26  1  0
 13 27  1  0
 13 28  1  0
 12 29  1  0
 29 30  1  0
 30 31  2  0
 31 32  1  0
 32 33  2  0
 33 34  1  0
 34 35  2  0
 35 36  1  0
 33 37  1  0
 32 38  1  0
 31 39  1  0
 29 40  1  0
 29 41  1  0
  8 42  1  0
  7 43  1  0
  3 44  1  0
  1 45  1  0
  1 46  1  0
  1 47  1  0
  9  2  1  0
 35 30  1  0
M  CHG  1  15   1
M  END
>  <plip>  (1) 
-0.10714285714285714

>  <filename>  (1) 
[H][O][c]1[c]([H])[c]([H])[c]([C](=[O])[N]([C]([H])([H])[c]2[c]([H])[n][c]([H])[c]([H])[c]2[H])[C]([H])([H])[C]([H])([H])[N+]([H])([C]([H])([H])[H])[C]([H])([H])[H])[c]([C]([H])([H])[H])[c]1[H]

$$$$
