
     RDKit          3D

 20 21  0  0  0  0  0  0  0  0999 V2000
    6.1146    2.8528   24.1603 H   0  0  0  0  0  0  0  0  0  0  0  0
    6.4552    1.9492   23.7017 C   0  0  0  0  0  0  0  0  0  0  0  0
    6.8543    0.9546   23.1493 C   0  0  0  0  0  0  0  0  0  0  0  0
    7.3740   -0.1783   22.4458 C   0  0  0  0  0  0  0  0  0  0  0  0
    7.4484   -0.5280   21.0947 C   0  0  0  0  0  0  0  0  0  0  0  0
    6.7098    0.1010   19.9716 C   0  0  0  0  0  0  0  0  0  0  0  0
    7.1856    0.0892   18.6377 C   0  0  0  0  0  0  0  0  0  0  0  0
    8.1162   -0.4227   18.4040 H   0  0  0  0  0  0  0  0  0  0  0  0
    6.5741    0.6691   17.5986 N   0  0  0  0  0  0  0  0  0  0  0  0
    5.4132    1.2917   17.8517 C   0  0  0  0  0  0  0  0  0  0  0  0
    4.9311    1.7742   17.0014 H   0  0  0  0  0  0  0  0  0  0  0  0
    4.8262    1.3291   19.1200 C   0  0  0  0  0  0  0  0  0  0  0  0
    3.8727    1.8249   19.2410 H   0  0  0  0  0  0  0  0  0  0  0  0
    5.4782    0.7366   20.2027 C   0  0  0  0  0  0  0  0  0  0  0  0
    5.0335    0.7583   21.2001 H   0  0  0  0  0  0  0  0  0  0  0  0
    8.3177   -1.6520   21.0969 C   0  0  0  0  0  0  0  0  0  0  0  0
    8.6935   -2.2318   20.2644 H   0  0  0  0  0  0  0  0  0  0  0  0
    8.7017   -1.9878   22.3158 N   0  0  0  0  0  0  0  0  0  0  0  0
    8.1188   -1.0890   23.1168 N   0  0  0  0  0  0  0  0  0  0  0  0
    8.3095   -1.0770   24.1109 H   0  0  0  0  0  0  0  0  0  0  0  0
  1  2  1  0
  2  3  3  0
  3  4  1  0
  4  5  2  0
  5  6  1  0
  6  7  2  0
  7  8  1  0
  7  9  1  0
  9 10  2  0
 10 11  1  0
 10 12  1  0
 12 13  1  0
 12 14  2  0
 14 15  1  0
  5 16  1  0
 16 17  1  0
 16 18  2  0
 18 19  1  0
 19 20  1  0
 19  4  1  0
 14  6  1  0
M  END
>  <plip>  (1) 
-0.03571428571428571

>  <filename>  (1) 
[H][C]#[C][c]1[c](-[c]2[c]([H])[n][c]([H])[c]([H])[c]2[H])[c]([H])[n][n]1[H]

$$$$
