
     RDKit          3D

 36 38  0  0  0  0  0  0  0  0999 V2000
    4.9071    1.8172   16.9573 H   0  0  0  0  0  0  0  0  0  0  0  0
    5.3763    1.3175   17.8066 C   0  0  0  0  0  0  0  0  0  0  0  0
    6.5405    0.6965   17.5531 N   0  0  0  0  0  0  0  0  0  0  0  0
    7.1542    0.0908   18.5803 C   0  0  0  0  0  0  0  0  0  0  0  0
    8.1019   -0.3897   18.3357 H   0  0  0  0  0  0  0  0  0  0  0  0
    6.6635    0.0509   19.9020 C   0  0  0  0  0  0  0  0  0  0  0  0
    7.3726   -0.7031   20.9611 C   0  0  0  0  0  0  0  0  0  0  0  0
    7.6661   -2.0374   20.9994 C   0  0  0  0  0  0  0  0  0  0  0  0
    7.3512   -2.7582   20.2663 H   0  0  0  0  0  0  0  0  0  0  0  0
    8.3053   -2.3764   22.1574 N   0  0  0  0  0  0  0  0  0  0  0  0
    8.3834   -1.2586   22.8387 C   0  0  0  0  0  0  0  0  0  0  0  0
    8.7857   -1.1815   23.8398 H   0  0  0  0  0  0  0  0  0  0  0  0
    7.8338   -0.1938   22.1668 N   0  0  0  0  0  0  0  0  0  0  0  0
    7.7104    1.2159   22.5722 C   0  0  0  0  0  0  0  0  0  0  0  0
    6.6515    1.4647   22.4469 H   0  0  0  0  0  0  0  0  0  0  0  0
    8.5274    2.1425   21.6450 C   0  0  0  0  0  0  0  0  0  0  0  0
    8.1735    3.1668   21.8057 H   0  0  0  0  0  0  0  0  0  0  0  0
    8.3336    1.8997   20.5952 H   0  0  0  0  0  0  0  0  0  0  0  0
   10.0303    2.0760   21.9693 C   0  0  0  0  0  0  0  0  0  0  0  0
   10.5998    2.7703   21.3383 H   0  0  0  0  0  0  0  0  0  0  0  0
   10.4111    1.0643   21.7613 H   0  0  0  0  0  0  0  0  0  0  0  0
   10.3188    2.3985   23.3702 N   0  0  0  0  0  0  0  0  0  0  0  0
   10.1565    3.8080   23.6999 C   0  0  0  0  0  0  0  0  0  0  0  0
   10.5601    3.9899   24.7016 H   0  0  0  0  0  0  0  0  0  0  0  0
    9.1143    4.1783   23.6875 H   0  0  0  0  0  0  0  0  0  0  0  0
   10.7356    4.4123   22.9925 H   0  0  0  0  0  0  0  0  0  0  0  0
    9.6219    1.4887   24.2775 C   0  0  0  0  0  0  0  0  0  0  0  0
    9.8358    1.8007   25.3070 H   0  0  0  0  0  0  0  0  0  0  0  0
   10.0675    0.4903   24.1527 H   0  0  0  0  0  0  0  0  0  0  0  0
    8.0931    1.4401   24.0464 C   0  0  0  0  0  0  0  0  0  0  0  0
    7.6694    2.4046   24.3509 H   0  0  0  0  0  0  0  0  0  0  0  0
    7.6302    0.6720   24.6762 H   0  0  0  0  0  0  0  0  0  0  0  0
    5.4341    0.6926   20.1293 C   0  0  0  0  0  0  0  0  0  0  0  0
    4.9973    0.6503   21.1238 H   0  0  0  0  0  0  0  0  0  0  0  0
    4.7836    1.3361   19.0731 C   0  0  0  0  0  0  0  0  0  0  0  0
    3.8442    1.8578   19.2181 H   0  0  0  0  0  0  0  0  0  0  0  0
  1  2  1  0
  2  3  2  0
  3  4  1  0
  4  5  1  0
  4  6  2  0
  6  7  1  0
  7  8  2  0
  8  9  1  0
  8 10  1  0
 10 11  2  0
 11 12  1  0
 11 13  1  0
 13 14  1  0
 14 15  1  0
 14 16  1  0
 16 17  1  0
 16 18  1  0
 16 19  1  0
 19 20  1  0
 19 21  1  0
 19 22  1  0
 22 23  1  0
 23 24  1  0
 23 25  1  0
 23 26  1  0
 22 27  1  0
 27 28  1  0
 27 29  1  0
 27 30  1  0
 30 31  1  0
 30 32  1  0
  6 33  1  0
 33 34  1  0
 33 35  2  0
 35 36  1  0
 35  2  1  0
 13  7  1  0
 30 14  1  0
M  END
>  <plip>  (1) 
-0.0

>  <filename>  (1) 
[H][c]1[n][c]([H])[c](-[c]2[c]([H])[n][c]([H])[n]2[C]2([H])[C]([H])([H])[C]([H])([H])[N]([C]([H])([H])[H])[C]([H])([H])[C]2([H])[H])[c]([H])[c]1[H]

$$$$
