
     RDKit          3D

 21 22  0  0  0  0  0  0  0  0999 V2000
    4.9416    1.7814   17.0447 H   0  0  0  0  0  0  0  0  0  0  0  0
    5.4223    1.2652   17.8717 C   0  0  0  0  0  0  0  0  0  0  0  0
    6.5697    0.6402   17.5731 N   0  0  0  0  0  0  0  0  0  0  0  0
    7.2159    0.0228   18.5658 C   0  0  0  0  0  0  0  0  0  0  0  0
    8.1769   -0.4316   18.3397 H   0  0  0  0  0  0  0  0  0  0  0  0
    6.7338   -0.0233   19.8898 C   0  0  0  0  0  0  0  0  0  0  0  0
    7.3712   -0.7213   20.9173 O   0  0  0  0  0  0  0  0  0  0  0  0
    8.7196   -0.7293   21.0397 C   0  0  0  0  0  0  0  0  0  0  0  0
    9.5903   -0.0235   20.4315 N   0  0  0  0  0  0  0  0  0  0  0  0
   10.8691   -0.3684   21.0675 C   0  0  0  0  0  0  0  0  0  0  0  0
   11.2585    0.5217   21.5769 H   0  0  0  0  0  0  0  0  0  0  0  0
   11.6116   -0.6528   20.3132 H   0  0  0  0  0  0  0  0  0  0  0  0
   10.6042   -1.5538   22.0409 C   0  0  0  0  0  0  0  0  0  0  0  0
   11.1006   -2.4678   21.6881 H   0  0  0  0  0  0  0  0  0  0  0  0
   10.9780   -1.3462   23.0519 H   0  0  0  0  0  0  0  0  0  0  0  0
    9.1628   -1.6217   21.9589 N   0  0  0  0  0  0  0  0  0  0  0  0
    8.4939   -2.1824   22.4498 H   0  0  0  0  0  0  0  0  0  0  0  0
    5.5182    0.6009   20.1933 C   0  0  0  0  0  0  0  0  0  0  0  0
    5.1157    0.5720   21.2070 H   0  0  0  0  0  0  0  0  0  0  0  0
    4.8544    1.2696   19.1526 C   0  0  0  0  0  0  0  0  0  0  0  0
    3.9163    1.7970   19.3166 H   0  0  0  0  0  0  0  0  0  0  0  0
  1  2  1  0
  2  3  2  0
  3  4  1  0
  4  5  1  0
  4  6  2  0
  6  7  1  0
  7  8  1  0
  8  9  2  0
  9 10  1  0
 10 11  1  0
 10 12  1  0
 10 13  1  0
 13 14  1  0
 13 15  1  0
 13 16  1  0
 16 17  1  0
  6 18  1  0
 18 19  1  0
 18 20  2  0
 20 21  1  0
 20  2  1  0
 16  8  1  0
M  END
>  <plip>  (1) 
-0.07142857142857142

>  <filename>  (1) 
[H][c]1[n][c]([H])[c]([O][C]2=[N][C]([H])([H])[C]([H])([H])[N]2[H])[c]([H])[c]1[H]

$$$$
