
     RDKit          3D

 46 48  0  0  0  0  0  0  0  0999 V2000
    7.5025   -6.1935   28.1217 C   0  0  0  0  0  0  0  0  0  0  0  0
    6.1674   -6.3658   27.4483 C   0  0  0  0  0  0  0  0  0  0  0  0
    5.2946   -7.3863   27.8393 C   0  0  0  0  0  0  0  0  0  0  0  0
    4.0555   -7.5183   27.2169 C   0  0  0  0  0  0  0  0  0  0  0  0
    3.6331   -6.7201   26.2306 N   0  0  0  0  0  0  0  0  0  0  0  0
    4.4680   -5.7424   25.8538 C   0  0  0  0  0  0  0  0  0  0  0  0
    5.7437   -5.5090   26.4010 C   0  0  0  0  0  0  0  0  0  0  0  0
    6.5861   -4.4702   25.9356 N   0  0  0  0  0  0  0  0  0  0  0  0
    7.8110   -4.7402   25.1959 C   0  0  0  0  0  0  0  0  0  0  0  0
    7.7357   -4.1775   23.7685 C   0  0  0  0  0  0  0  0  0  0  0  0
    7.3137   -2.7590   23.7520 N   0  0  0  0  0  0  0  0  0  0  0  0
    7.9227   -1.8972   22.8500 C   0  0  0  0  0  0  0  0  0  0  0  0
    9.1020   -2.0281   22.5677 O   0  0  0  0  0  0  0  0  0  0  0  0
    7.0809   -0.7309   22.2428 C   0  0  0  0  0  0  0  0  0  0  0  0
    7.4280    0.5956   22.9261 C   0  0  0  0  0  0  0  0  0  0  0  0
    6.8334    1.4232   22.5231 H   0  0  0  0  0  0  0  0  0  0  0  0
    7.2535    0.5397   24.0077 H   0  0  0  0  0  0  0  0  0  0  0  0
    8.4860    0.8229   22.7574 H   0  0  0  0  0  0  0  0  0  0  0  0
    7.3969   -0.6976   20.8416 O   0  0  0  0  0  0  0  0  0  0  0  0
    6.6612    0.0053   19.9379 C   0  0  0  0  0  0  0  0  0  0  0  0
    5.4422    0.6486   20.1805 C   0  0  0  0  0  0  0  0  0  0  0  0
    4.8119    1.3054   19.1108 C   0  0  0  0  0  0  0  0  0  0  0  0
    5.3990    1.2911   17.8455 C   0  0  0  0  0  0  0  0  0  0  0  0
    6.5673    0.6714   17.5996 N   0  0  0  0  0  0  0  0  0  0  0  0
    7.1765    0.0555   18.6177 C   0  0  0  0  0  0  0  0  0  0  0  0
    8.1215   -0.4349   18.3935 H   0  0  0  0  0  0  0  0  0  0  0  0
    4.9183    1.7794   16.9988 H   0  0  0  0  0  0  0  0  0  0  0  0
    3.8806    1.8369   19.2611 H   0  0  0  0  0  0  0  0  0  0  0  0
    4.9976    0.6368   21.1755 H   0  0  0  0  0  0  0  0  0  0  0  0
    6.0175   -0.9669   22.3500 H   0  0  0  0  0  0  0  0  0  0  0  0
    6.1043   -2.4708   24.5403 C   0  0  0  0  0  0  0  0  0  0  0  0
    6.1934   -3.0727   25.9563 C   0  0  0  0  0  0  0  0  0  0  0  0
    6.9160   -2.4931   26.5522 H   0  0  0  0  0  0  0  0  0  0  0  0
    5.2255   -2.9799   26.4575 H   0  0  0  0  0  0  0  0  0  0  0  0
    5.9637   -1.3914   24.6366 H   0  0  0  0  0  0  0  0  0  0  0  0
    5.2140   -2.8834   24.0433 H   0  0  0  0  0  0  0  0  0  0  0  0
    8.7128   -4.2630   23.2860 H   0  0  0  0  0  0  0  0  0  0  0  0
    7.0222   -4.7819   23.1895 H   0  0  0  0  0  0  0  0  0  0  0  0
    7.9839   -5.8219   25.1495 H   0  0  0  0  0  0  0  0  0  0  0  0
    8.6795   -4.2962   25.7094 H   0  0  0  0  0  0  0  0  0  0  0  0
    4.1276   -5.0965   25.0458 H   0  0  0  0  0  0  0  0  0  0  0  0
    3.3571   -8.2836   27.5308 H   0  0  0  0  0  0  0  0  0  0  0  0
    5.5898   -8.0685   28.6300 H   0  0  0  0  0  0  0  0  0  0  0  0
    7.5040   -6.6515   29.1146 H   0  0  0  0  0  0  0  0  0  0  0  0
    7.7562   -5.1321   28.2164 H   0  0  0  0  0  0  0  0  0  0  0  0
    8.2965   -6.6698   27.5345 H   0  0  0  0  0  0  0  0  0  0  0  0
  1  2  1  0
  2  3  2  0
  3  4  1  0
  4  5  2  0
  5  6  1  0
  6  7  2  0
  7  8  1  0
  8  9  1  0
  9 10  1  0
 10 11  1  0
 11 12  1  0
 12 13  2  0
 12 14  1  0
 14 15  1  0
 15 16  1  0
 15 17  1  0
 15 18  1  0
 14 19  1  0
 19 20  1  0
 20 21  2  0
 21 22  1  0
 22 23  2  0
 23 24  1  0
 24 25  2  0
 25 26  1  0
 23 27  1  0
 22 28  1  0
 21 29  1  0
 14 30  1  0
 11 31  1  0
 31 32  1  0
 32 33  1  0
 32 34  1  0
 31 35  1  0
 31 36  1  0
 10 37  1  0
 10 38  1  0
  9 39  1  0
  9 40  1  0
  6 41  1  0
  4 42  1  0
  3 43  1  0
  1 44  1  0
  1 45  1  0
  1 46  1  0
  7  2  1  0
 32  8  1  0
 25 20  1  0
M  END
>  <plip>  (1) 
-0.03571428571428571

>  <filename>  (1) 
[H][c]1[n][c]([H])[c]([O][C]([H])([C](=[O])[N]2[C]([H])([H])[C]([H])([H])[N]([c]3[c]([H])[n][c]([H])[c]([H])[c]3[C]([H])([H])[H])[C]([H])([H])[C]2([H])[H])[C]([H])([H])[H])[c]([H])[c]1[H]

$$$$
