
     RDKit          3D

 28 30  0  0  0  0  0  0  0  0999 V2000
    4.9192    1.7874   16.9901 H   0  0  0  0  0  0  0  0  0  0  0  0
    5.4006    1.2968   17.8320 C   0  0  0  0  0  0  0  0  0  0  0  0
    6.5624    0.6788   17.5702 N   0  0  0  0  0  0  0  0  0  0  0  0
    7.1595    0.0582   18.5975 C   0  0  0  0  0  0  0  0  0  0  0  0
    8.1111   -0.4195   18.3692 H   0  0  0  0  0  0  0  0  0  0  0  0
    6.6532   -0.0051   19.9067 C   0  0  0  0  0  0  0  0  0  0  0  0
    7.3465   -0.8321   20.9799 C   0  0  0  0  0  0  0  0  0  0  0  0
    6.8500   -2.2656   20.9579 C   0  0  0  0  0  0  0  0  0  0  0  0
    7.5470   -3.4511   22.0255 S   0  0  0  0  0  0  0  0  0  0  0  0
    6.5081   -4.6840   21.4318 C   0  0  0  0  0  0  0  0  0  0  0  0
    6.5420   -5.6901   21.8225 H   0  0  0  0  0  0  0  0  0  0  0  0
    5.7007   -4.2289   20.4362 C   0  0  0  0  0  0  0  0  0  0  0  0
    5.0816   -4.9098   19.8630 H   0  0  0  0  0  0  0  0  0  0  0  0
    5.8702   -2.8343   20.1845 C   0  0  0  0  0  0  0  0  0  0  0  0
    5.3187   -2.2449   19.4495 H   0  0  0  0  0  0  0  0  0  0  0  0
    8.9076   -0.6739   20.9988 C   0  0  0  0  0  0  0  0  0  0  0  0
    9.4577   -1.6067   20.8573 H   0  0  0  0  0  0  0  0  0  0  0  0
    9.2782    0.0518   20.2710 H   0  0  0  0  0  0  0  0  0  0  0  0
    8.8620   -0.1197   22.4395 C   0  0  0  0  0  0  0  0  0  0  0  0
    9.2849    0.8847   22.5621 H   0  0  0  0  0  0  0  0  0  0  0  0
    9.3161   -0.7739   23.1903 H   0  0  0  0  0  0  0  0  0  0  0  0
    7.3203   -0.1692   22.4044 C   0  0  0  0  0  0  0  0  0  0  0  0
    6.8504    0.8172   22.4135 H   0  0  0  0  0  0  0  0  0  0  0  0
    6.8328   -0.7762   23.1707 H   0  0  0  0  0  0  0  0  0  0  0  0
    5.4356    0.6492   20.1523 C   0  0  0  0  0  0  0  0  0  0  0  0
    5.0069    0.6380   21.1584 H   0  0  0  0  0  0  0  0  0  0  0  0
    4.8044    1.3119   19.0995 C   0  0  0  0  0  0  0  0  0  0  0  0
    3.8749    1.8469   19.2545 H   0  0  0  0  0  0  0  0  0  0  0  0
  1  2  1  0
  2  3  2  0
  3  4  1  0
  4  5  1  0
  4  6  2  0
  6  7  1  0
  7  8  1  0
  8  9  1  0
  9 10  1  0
 10 11  1  0
 10 12  2  0
 12 13  1  0
 12 14  1  0
 14 15  1  0
  7 16  1  0
 16 17  1  0
 16 18  1  0
 16 19  1  0
 19 20  1  0
 19 21  1  0
 19 22  1  0
 22 23  1  0
 22 24  1  0
  6 25  1  0
 25 26  1  0
 25 27  2  0
 27 28  1  0
 27  2  1  0
 22  7  1  0
 14  8  2  0
M  END
>  <plip>  (1) 
-0.03571428571428571

>  <filename>  (1) 
[H][c]1[n][c]([H])[c]([C]2([c]3[s][c]([H])[c]([H])[c]3[H])[C]([H])([H])[C]([H])([H])[C]2([H])[H])[c]([H])[c]1[H]

$$$$
