
     RDKit          3D

 34 36  0  0  0  0  0  0  0  0999 V2000
    4.9168    1.7906   16.9925 H   0  0  0  0  0  0  0  0  0  0  0  0
    5.3991    1.2962   17.8315 C   0  0  0  0  0  0  0  0  0  0  0  0
    6.5577    0.6741   17.5682 N   0  0  0  0  0  0  0  0  0  0  0  0
    7.1738    0.0568   18.5839 C   0  0  0  0  0  0  0  0  0  0  0  0
    8.1135   -0.4390   18.3580 H   0  0  0  0  0  0  0  0  0  0  0  0
    6.6789    0.0117   19.9078 C   0  0  0  0  0  0  0  0  0  0  0  0
    7.2995   -0.6936   20.9578 N   0  0  0  0  0  0  0  0  0  0  0  0
    8.4596   -0.4209   21.4064 C   0  0  0  0  0  0  0  0  0  0  0  0
    9.2997    0.7522   20.9431 C   0  0  0  0  0  0  0  0  0  0  0  0
    9.5911    0.6465   19.8968 H   0  0  0  0  0  0  0  0  0  0  0  0
    8.7110    1.6721   21.0138 H   0  0  0  0  0  0  0  0  0  0  0  0
   10.1945    0.8506   21.5602 H   0  0  0  0  0  0  0  0  0  0  0  0
    9.0260   -1.2726   22.5143 C   0  0  1  0  0  0  0  0  0  0  0  0
    9.6953   -2.0596   22.1730 H   0  0  0  0  0  0  0  0  0  0  0  0
    9.3106   -0.6150   23.8336 C   0  0  0  0  0  0  0  0  0  0  0  0
    9.0820    0.4483   23.9085 H   0  0  0  0  0  0  0  0  0  0  0  0
   10.1742   -0.9348   24.4136 H   0  0  0  0  0  0  0  0  0  0  0  0
    8.1547   -1.5818   23.7012 C   0  0  2  0  0  0  0  0  0  0  0  0
    7.1634   -1.1358   23.6454 H   0  0  0  0  0  0  0  0  0  0  0  0
    8.1893   -2.9176   24.3654 C   0  0  0  0  0  0  0  0  0  0  0  0
    7.0100   -3.4487   24.9155 C   0  0  0  0  0  0  0  0  0  0  0  0
    6.0817   -2.8840   24.8346 H   0  0  0  0  0  0  0  0  0  0  0  0
    7.0248   -4.6848   25.5703 C   0  0  0  0  0  0  0  0  0  0  0  0
    6.1039   -5.0818   25.9928 H   0  0  0  0  0  0  0  0  0  0  0  0
    8.2178   -5.4039   25.6828 C   0  0  0  0  0  0  0  0  0  0  0  0
    8.2356   -6.3649   26.1926 H   0  0  0  0  0  0  0  0  0  0  0  0
    9.3977   -4.8830   25.1395 C   0  0  0  0  0  0  0  0  0  0  0  0
   10.3333   -5.4256   25.2242 H   0  0  0  0  0  0  0  0  0  0  0  0
    9.3806   -3.6487   24.4859 C   0  0  0  0  0  0  0  0  0  0  0  0
   10.3072   -3.2456   24.0815 H   0  0  0  0  0  0  0  0  0  0  0  0
    5.4541    0.6463   20.1613 C   0  0  0  0  0  0  0  0  0  0  0  0
    5.0378    0.6046   21.1659 H   0  0  0  0  0  0  0  0  0  0  0  0
    4.8176    1.3063   19.1070 C   0  0  0  0  0  0  0  0  0  0  0  0
    3.8852    1.8312   19.2612 H   0  0  0  0  0  0  0  0  0  0  0  0
  1  2  1  0
  2  3  2  0
  3  4  1  0
  4  5  1  0
  4  6  2  0
  6  7  1  0
  7  8  2  3
  8  9  1  0
  9 10  1  0
  9 11  1  0
  9 12  1  0
  8 13  1  0
 13 14  1  6
 13 15  1  0
 15 16  1  0
 15 17  1  0
 15 18  1  0
 18 19  1  6
 18 20  1  0
 20 21  2  0
 21 22  1  0
 21 23  1  0
 23 24  1  0
 23 25  2  0
 25 26  1  0
 25 27  1  0
 27 28  1  0
 27 29  2  0
 29 30  1  0
  6 31  1  0
 31 32  1  0
 31 33  2  0
 33 34  1  0
 33  2  1  0
 18 13  1  0
 29 20  1  0
M  END
>  <plip>  (1) 
-0.07142857142857142

>  <filename>  (1) 
[H][c]1[n][c]([H])[c]([N]=[C]([C]([H])([H])[H])[C@@]2([H])[C]([H])([H])[C@]2([H])[c]2[c]([H])[c]([H])[c]([H])[c]([H])[c]2[H])[c]([H])[c]1[H]

$$$$
