
     RDKit          3D

 25 26  0  0  0  0  0  0  0  0999 V2000
   12.8882   -1.6608   21.3797 C   0  0  0  0  0  0  0  0  0  0  0  0
   11.5093   -1.4383   21.6799 O   0  0  0  0  0  0  0  0  0  0  0  0
   11.0995   -0.3430   20.9416 N   0  0  0  0  0  0  0  0  0  0  0  0
    9.8324   -0.1582   20.8546 C   0  0  0  0  0  0  0  0  0  0  0  0
    8.7000   -0.8929   21.4169 C   0  0  0  0  0  0  0  0  0  0  0  0
    8.7075   -1.7627   22.4982 C   0  0  0  0  0  0  0  0  0  0  0  0
    7.4195   -2.0507   22.7466 N   0  0  0  0  0  0  0  0  0  0  0  0
    6.5653   -1.4498   21.9123 N   0  0  0  0  0  0  0  0  0  0  0  0
    7.3167   -0.7531   21.0709 C   0  0  0  0  0  0  0  0  0  0  0  0
    6.6695   -0.0109   19.9751 C   0  0  0  0  0  0  0  0  0  0  0  0
    5.4346    0.6427   20.1578 C   0  0  0  0  0  0  0  0  0  0  0  0
    4.8616    1.3040   19.0754 C   0  0  0  0  0  0  0  0  0  0  0  0
    5.5178    1.2769   17.8391 C   0  0  0  0  0  0  0  0  0  0  0  0
    6.6749    0.6299   17.6357 N   0  0  0  0  0  0  0  0  0  0  0  0
    7.2252    0.0074   18.6868 C   0  0  0  0  0  0  0  0  0  0  0  0
    8.1556   -0.5216   18.4848 H   0  0  0  0  0  0  0  0  0  0  0  0
    5.0846    1.7802   16.9760 H   0  0  0  0  0  0  0  0  0  0  0  0
    3.9212    1.8374   19.1731 H   0  0  0  0  0  0  0  0  0  0  0  0
    4.9351    0.6230   21.1293 H   0  0  0  0  0  0  0  0  0  0  0  0
    7.0555   -2.5640   23.5364 H   0  0  0  0  0  0  0  0  0  0  0  0
    9.5207   -2.1787   23.0740 H   0  0  0  0  0  0  0  0  0  0  0  0
    9.5837    0.7241   20.2652 H   0  0  0  0  0  0  0  0  0  0  0  0
   13.2277   -2.4380   22.0689 H   0  0  0  0  0  0  0  0  0  0  0  0
   13.4757   -0.7462   21.5248 H   0  0  0  0  0  0  0  0  0  0  0  0
   12.9951   -2.0010   20.3422 H   0  0  0  0  0  0  0  0  0  0  0  0
  1  2  1  0
  2  3  1  0
  3  4  2  3
  4  5  1  0
  5  6  2  0
  6  7  1  0
  7  8  1  0
  8  9  2  0
  9 10  1  0
 10 11  2  0
 11 12  1  0
 12 13  2  0
 13 14  1  0
 14 15  2  0
 15 16  1  0
 13 17  1  0
 12 18  1  0
 11 19  1  0
  7 20  1  0
  6 21  1  0
  4 22  1  0
  1 23  1  0
  1 24  1  0
  1 25  1  0
  9  5  1  0
 15 10  1  0
M  END
>  <plip>  (1) 
-0.07142857142857142

>  <filename>  (1) 
[H][C](=[N][O][C]([H])([H])[H])[c]1[c](-[c]2[c]([H])[n][c]([H])[c]([H])[c]2[H])[n][n]([H])[c]1[H]

$$$$
