
     RDKit          3D

 47 50  0  0  0  0  0  0  0  0999 V2000
    8.0272    1.8157   21.9768 O   0  0  0  0  0  0  0  0  0  0  0  0
    8.9462    1.0612   21.6742 C   0  0  0  0  0  0  0  0  0  0  0  0
    8.7093   -0.1514   21.1126 N   0  0  0  0  0  0  0  0  0  0  0  0
    7.3619   -0.6824   20.9879 C   0  0  0  0  0  0  0  0  0  0  0  0
    7.3906   -2.2140   20.7701 C   0  0  0  0  0  0  0  0  0  0  0  0
    7.1763   -3.0873   21.9993 N   0  0  0  0  0  4  0  0  0  0  0  0
    5.8200   -2.9349   22.6694 C   0  0  0  0  0  0  0  0  0  0  0  0
    6.1231   -2.5116   24.1091 C   0  0  0  0  0  0  0  0  0  0  0  0
    7.5050   -3.1066   24.3940 C   0  0  0  0  0  0  0  0  0  0  0  0
    8.2490   -2.9389   23.0723 C   0  0  0  0  0  0  0  0  0  0  0  0
    8.6839   -1.9401   22.9837 H   0  0  0  0  0  0  0  0  0  0  0  0
    9.0512   -3.6657   22.9162 H   0  0  0  0  0  0  0  0  0  0  0  0
    8.0294   -2.5991   25.2104 H   0  0  0  0  0  0  0  0  0  0  0  0
    7.4278   -4.1676   24.6631 H   0  0  0  0  0  0  0  0  0  0  0  0
    5.3502   -2.8459   24.8073 H   0  0  0  0  0  0  0  0  0  0  0  0
    6.1612   -1.4160   24.1673 H   0  0  0  0  0  0  0  0  0  0  0  0
    5.2971   -3.8938   22.6325 H   0  0  0  0  0  0  0  0  0  0  0  0
    5.2230   -2.2139   22.1049 H   0  0  0  0  0  0  0  0  0  0  0  0
    7.2341   -4.0651   21.6547 H   0  0  0  0  0  0  0  0  0  0  0  0
    8.3892   -2.4355   20.3842 H   0  0  0  0  0  0  0  0  0  0  0  0
    6.6563   -2.4898   20.0028 H   0  0  0  0  0  0  0  0  0  0  0  0
    6.6384    0.0566   19.8796 C   0  0  0  0  0  0  0  0  0  0  0  0
    5.4168    0.7047   20.1035 C   0  0  0  0  0  0  0  0  0  0  0  0
    4.7824    1.3441   19.0351 C   0  0  0  0  0  0  0  0  0  0  0  0
    5.4049    1.3271   17.7830 C   0  0  0  0  0  0  0  0  0  0  0  0
    6.5808    0.7235   17.5518 N   0  0  0  0  0  0  0  0  0  0  0  0
    7.1788    0.1232   18.5892 C   0  0  0  0  0  0  0  0  0  0  0  0
    8.1463   -0.3299   18.3698 H   0  0  0  0  0  0  0  0  0  0  0  0
    4.9439    1.8206   16.9274 H   0  0  0  0  0  0  0  0  0  0  0  0
    3.8418    1.8705   19.1637 H   0  0  0  0  0  0  0  0  0  0  0  0
    4.9886    0.7303   21.1082 H   0  0  0  0  0  0  0  0  0  0  0  0
    6.8275   -0.4756   21.9253 H   0  0  0  0  0  0  0  0  0  0  0  0
    9.5401   -0.6563   20.8460 H   0  0  0  0  0  0  0  0  0  0  0  0
   10.3897    1.3720   21.9021 C   0  0  0  0  0  0  0  0  0  0  0  0
   10.8387    2.6274   22.3017 C   0  0  0  0  0  0  0  0  0  0  0  0
   10.2191    3.8288   22.7233 C   0  0  0  0  0  0  0  0  0  0  0  0
   11.0079    4.9117   23.0378 C   0  0  0  0  0  0  0  0  0  0  0  0
   12.4233    4.8179   22.8782 C   0  0  0  0  0  0  0  0  0  0  0  0
   13.3948    6.2287   23.1500 Cl  0  0  0  0  0  0  0  0  0  0  0  0
   13.0293    3.6522   22.5044 C   0  0  0  0  0  0  0  0  0  0  0  0
   12.2303    2.5478   22.2688 N   0  0  0  0  0  0  0  0  0  0  0  0
   12.5303    1.2448   21.9440 C   0  0  0  0  0  0  0  0  0  0  0  0
   11.4644    0.5285   21.7027 N   0  0  0  0  0  0  0  0  0  0  0  0
   13.5449    0.8690   21.9398 H   0  0  0  0  0  0  0  0  0  0  0  0
   14.1013    3.5518   22.3853 H   0  0  0  0  0  0  0  0  0  0  0  0
   10.5662    5.8418   23.3837 H   0  0  0  0  0  0  0  0  0  0  0  0
    9.1380    3.8543   22.7179 H   0  0  0  0  0  0  0  0  0  0  0  0
  1  2  2  0
  2  3  1  0
  3  4  1  0
  4  5  1  0
  5  6  1  0
  6  7  1  0
  7  8  1  0
  8  9  1  0
  9 10  1  0
 10 11  1  0
 10 12  1  0
  9 13  1  0
  9 14  1  0
  8 15  1  0
  8 16  1  0
  7 17  1  0
  7 18  1  0
  6 19  1  0
  5 20  1  0
  5 21  1  0
  4 22  1  0
 22 23  2  0
 23 24  1  0
 24 25  2  0
 25 26  1  0
 26 27  2  0
 27 28  1  0
 25 29  1  0
 24 30  1  0
 23 31  1  0
  4 32  1  0
  3 33  1  0
  2 34  1  0
 34 35  2  0
 35 36  1  0
 36 37  2  0
 37 38  1  0
 38 39  1  0
 38 40  2  0
 40 41  1  0
 41 42  1  0
 42 43  2  0
 42 44  1  0
 40 45  1  0
 37 46  1  0
 36 47  1  0
 10  6  1  0
 27 22  1  0
 43 34  1  0
 41 35  1  0
M  CHG  1   6   1
M  END
>  <plip>  (1) 
-0.06451612903225806

>  <filename>  (1) 
[H][c]1[n][c]([H])[c]([C]([H])([N]([H])[C](=[O])[c]2[n][c]([H])[n]3[c]([H])[c]([Cl])[c]([H])[c]([H])[c]23)[C]([H])([H])[N+]2([H])[C]([H])([H])[C]([H])([H])[C]([H])([H])[C]2([H])[H])[c]([H])[c]1[H]

$$$$
