
     RDKit          3D

 32 33  0  0  0  0  0  0  0  0999 V2000
    7.7066   -6.9310   27.0301 H   0  0  0  0  0  0  0  0  0  0  0  0
    6.8592   -6.5476   26.7247 O   0  0  0  0  0  0  0  0  0  0  0  0
    7.3291   -5.9302   25.6397 C   0  0  0  0  0  0  0  0  0  0  0  0
    8.5217   -5.9512   25.4185 O   0  0  0  0  0  0  0  0  0  0  0  0
    6.3103   -5.2295   24.7162 C   0  0  0  0  0  0  0  0  0  0  0  0
    5.0208   -5.5125   24.8467 O   0  0  0  0  0  0  0  0  0  0  0  0
    4.5413   -4.9556   24.1630 H   0  0  0  0  0  0  0  0  0  0  0  0
    6.7493   -4.3433   23.7775 C   0  0  0  0  0  0  0  0  0  0  0  0
    7.8144   -4.2264   23.6483 H   0  0  0  0  0  0  0  0  0  0  0  0
    5.8414   -3.5832   22.9202 C   0  0  0  0  0  0  0  0  0  0  0  0
    4.6218   -3.8134   22.9357 O   0  0  0  0  0  0  0  0  0  0  0  0
    6.2934   -2.5278   21.9575 C   0  0  0  0  0  0  0  0  0  0  0  0
    5.4712   -2.2619   21.2921 H   0  0  0  0  0  0  0  0  0  0  0  0
    7.4713   -1.8804   21.8347 C   0  0  0  0  0  0  0  0  0  0  0  0
    7.7932   -0.7909   20.8584 C   0  0  0  0  0  0  0  0  0  0  0  0
    6.8695   -0.2025   19.8513 C   0  0  0  0  0  0  0  0  0  0  0  0
    7.3667   -0.0930   18.5441 C   0  0  0  0  0  0  0  0  0  0  0  0
    8.3346   -0.5262   18.2968 H   0  0  0  0  0  0  0  0  0  0  0  0
    6.7280    0.5282   17.5512 N   0  0  0  0  0  0  0  0  0  0  0  0
    5.5552    1.1092   17.8433 C   0  0  0  0  0  0  0  0  0  0  0  0
    5.0796    1.6460   17.0253 H   0  0  0  0  0  0  0  0  0  0  0  0
    4.9570    1.0473   19.1047 C   0  0  0  0  0  0  0  0  0  0  0  0
    4.0148    1.5543   19.2715 H   0  0  0  0  0  0  0  0  0  0  0  0
    5.6154    0.3617   20.1298 C   0  0  0  0  0  0  0  0  0  0  0  0
    5.1777    0.3041   21.1290 H   0  0  0  0  0  0  0  0  0  0  0  0
    8.9961   -0.3576   20.9398 N   0  0  0  0  0  0  0  0  0  0  0  0
    9.6878   -0.9831   22.0622 C   0  0  0  0  0  0  0  0  0  0  0  0
    9.9353   -0.2081   22.7969 H   0  0  0  0  0  0  0  0  0  0  0  0
   10.6307   -1.3875   21.6831 H   0  0  0  0  0  0  0  0  0  0  0  0
    8.7467   -2.0628   22.6503 C   0  0  0  0  0  0  0  0  0  0  0  0
    8.5519   -1.9041   23.7146 H   0  0  0  0  0  0  0  0  0  0  0  0
    9.1768   -3.0612   22.5185 H   0  0  0  0  0  0  0  0  0  0  0  0
  1  2  1  0
  2  3  1  0
  3  4  2  0
  3  5  1  0
  5  6  1  0
  6  7  1  0
  5  8  2  3
  8  9  1  0
  8 10  1  0
 10 11  2  0
 10 12  1  0
 12 13  1  0
 12 14  2  3
 14 15  1  0
 15 16  1  0
 16 17  2  0
 17 18  1  0
 17 19  1  0
 19 20  2  0
 20 21  1  0
 20 22  1  0
 22 23  1  0
 22 24  2  0
 24 25  1  0
 15 26  2  0
 26 27  1  0
 27 28  1  0
 27 29  1  0
 27 30  1  0
 30 31  1  0
 30 32  1  0
 30 14  1  0
 24 16  1  0
M  END
>  <plip>  (1) 
-0.14285714285714285

>  <filename>  (1) 
[H][O][C](=[O])[C]([O][H])=[C]([H])[C](=[O])[C]([H])=[C]1[C]([c]2[c]([H])[n][c]([H])[c]([H])[c]2[H])=[N][C]([H])([H])[C]1([H])[H]

$$$$
