
     RDKit          3D

 23 24  0  0  0  0  0  0  0  0999 V2000
    4.9212    1.8096   16.9832 H   0  0  0  0  0  0  0  0  0  0  0  0
    5.3859    1.2974   17.8283 C   0  0  0  0  0  0  0  0  0  0  0  0
    6.5464    0.6813   17.5556 N   0  0  0  0  0  0  0  0  0  0  0  0
    7.1436    0.0350   18.5618 C   0  0  0  0  0  0  0  0  0  0  0  0
    8.1135   -0.4196   18.3584 H   0  0  0  0  0  0  0  0  0  0  0  0
    6.6195   -0.0517   19.8599 C   0  0  0  0  0  0  0  0  0  0  0  0
    7.6108   -0.8496   21.0942 S   0  0  0  0  0  0  0  0  0  0  0  0
    8.8190    0.7588   21.6759 S   0  0  0  0  0  0  0  0  0  0  0  0
    7.8029    1.4669   22.9428 C   0  0  0  0  0  0  0  0  0  0  0  0
    6.8878    2.4887   22.6211 C   0  0  0  0  0  0  0  0  0  0  0  0
    6.8389    2.8416   21.5941 H   0  0  0  0  0  0  0  0  0  0  0  0
    6.0166    2.9942   23.5908 C   0  0  0  0  0  0  0  0  0  0  0  0
    5.3028    3.7743   23.3341 H   0  0  0  0  0  0  0  0  0  0  0  0
    6.0575    2.4920   24.8936 C   0  0  0  0  0  0  0  0  0  0  0  0
    5.4120    2.8718   25.6774 H   0  0  0  0  0  0  0  0  0  0  0  0
    6.9675    1.4795   25.2257 C   0  0  0  0  0  0  0  0  0  0  0  0
    6.9902    0.8970   26.8556 Cl  0  0  0  0  0  0  0  0  0  0  0  0
    7.8441    0.9556   24.2606 C   0  0  0  0  0  0  0  0  0  0  0  0
    8.9192   -0.3275   24.6730 Cl  0  0  0  0  0  0  0  0  0  0  0  0
    5.4129    0.5997   20.1376 C   0  0  0  0  0  0  0  0  0  0  0  0
    5.0147    0.6082   21.1549 H   0  0  0  0  0  0  0  0  0  0  0  0
    4.7897    1.2941   19.0919 C   0  0  0  0  0  0  0  0  0  0  0  0
    3.8742    1.8485   19.2442 H   0  0  0  0  0  0  0  0  0  0  0  0
  1  2  1  0
  2  3  2  0
  3  4  1  0
  4  5  1  0
  4  6  2  0
  6  7  1  0
  7  8  1  0
  8  9  1  0
  9 10  2  0
 10 11  1  0
 10 12  1  0
 12 13  1  0
 12 14  2  0
 14 15  1  0
 14 16  1  0
 16 17  1  0
 16 18  2  0
 18 19  1  0
  6 20  1  0
 20 21  1  0
 20 22  2  0
 22 23  1  0
 22  2  1  0
 18  9  1  0
M  END
>  <plip>  (1) 
-0.0

>  <filename>  (1) 
[H][c]1[n][c]([H])[c]([S][S][c]2[c]([H])[c]([H])[c]([H])[c]([Cl])[c]2[Cl])[c]([H])[c]1[H]

$$$$
