
     RDKit          3D

 36 38  0  0  0  0  0  0  0  0999 V2000
    6.6500   -1.6492   21.7587 C   0  0  0  0  0  0  0  0  0  0  0  0
    7.3952   -0.6771   20.9545 N   0  0  0  0  0  0  0  0  0  0  0  0
    8.6896   -0.2623   21.2661 C   0  0  0  0  0  0  0  0  0  0  0  0
    9.2290    0.6732   20.7105 O   0  0  0  0  0  0  0  0  0  0  0  0
    9.4724   -1.0577   22.2936 C   0  0  0  0  0  0  0  0  0  0  0  0
    8.9854   -0.8180   23.6272 N   0  0  0  0  0  0  0  0  0  0  0  0
    8.6595   -1.7772   24.4593 N   0  0  0  0  0  0  0  0  0  0  0  0
    8.2977   -1.1950   25.5669 N   0  0  0  0  0  0  0  0  0  0  0  0
    8.4332    0.1434   25.3652 C   0  0  0  0  0  0  0  0  0  0  0  0
    8.1027    1.1800   26.3826 C   0  0  0  0  0  0  0  0  0  0  0  0
    7.6200    0.8204   27.6616 C   0  0  0  0  0  0  0  0  0  0  0  0
    7.3107    1.8065   28.6053 C   0  0  0  0  0  0  0  0  0  0  0  0
    7.4668    3.1610   28.2905 C   0  0  0  0  0  0  0  0  0  0  0  0
    7.9503    3.5269   27.0286 C   0  0  0  0  0  0  0  0  0  0  0  0
    8.2654    2.5489   26.0811 C   0  0  0  0  0  0  0  0  0  0  0  0
    8.6347    2.8438   25.1001 H   0  0  0  0  0  0  0  0  0  0  0  0
    8.0913    4.5774   26.7831 H   0  0  0  0  0  0  0  0  0  0  0  0
    7.2405    3.9275   29.0298 H   0  0  0  0  0  0  0  0  0  0  0  0
    6.9477    1.5193   29.5911 H   0  0  0  0  0  0  0  0  0  0  0  0
    7.4857   -0.2297   27.9183 H   0  0  0  0  0  0  0  0  0  0  0  0
    8.8807    0.3919   24.1316 N   0  0  0  0  0  0  0  0  0  0  0  0
   10.4988   -0.7029   22.2192 H   0  0  0  0  0  0  0  0  0  0  0  0
    9.4441   -2.1284   22.0996 H   0  0  0  0  0  0  0  0  0  0  0  0
    6.6845    0.0159   19.9075 C   0  0  0  0  0  0  0  0  0  0  0  0
    5.4561    0.6402   20.1619 C   0  0  0  0  0  0  0  0  0  0  0  0
    4.8141    1.3075   19.1106 C   0  0  0  0  0  0  0  0  0  0  0  0
    5.3963    1.2945   17.8380 C   0  0  0  0  0  0  0  0  0  0  0  0
    6.5551    0.6715   17.5689 N   0  0  0  0  0  0  0  0  0  0  0  0
    7.1809    0.0663   18.5863 C   0  0  0  0  0  0  0  0  0  0  0  0
    8.1258   -0.4182   18.3564 H   0  0  0  0  0  0  0  0  0  0  0  0
    4.9141    1.7860   16.9954 H   0  0  0  0  0  0  0  0  0  0  0  0
    3.8803    1.8370   19.2631 H   0  0  0  0  0  0  0  0  0  0  0  0
    5.0309    0.6140   21.1678 H   0  0  0  0  0  0  0  0  0  0  0  0
    7.2191   -2.5744   21.9050 H   0  0  0  0  0  0  0  0  0  0  0  0
    6.3579   -1.2583   22.7416 H   0  0  0  0  0  0  0  0  0  0  0  0
    5.7375   -1.9157   21.2168 H   0  0  0  0  0  0  0  0  0  0  0  0
  1  2  1  0
  2  3  1  0
  3  4  2  0
  3  5  1  0
  5  6  1  0
  6  7  1  0
  7  8  2  0
  8  9  1  0
  9 10  1  0
 10 11  2  0
 11 12  1  0
 12 13  2  0
 13 14  1  0
 14 15  2  0
 15 16  1  0
 14 17  1  0
 13 18  1  0
 12 19  1  0
 11 20  1  0
  9 21  2  0
  5 22  1  0
  5 23  1  0
  2 24  1  0
 24 25  2  0
 25 26  1  0
 26 27  2  0
 27 28  1  0
 28 29  2  0
 29 30  1  0
 27 31  1  0
 26 32  1  0
 25 33  1  0
  1 34  1  0
  1 35  1  0
  1 36  1  0
 21  6  1  0
 29 24  1  0
 15 10  1  0
M  END
>  <plip>  (1) 
-0.10714285714285714

>  <filename>  (1) 
[H][c]1[n][c]([H])[c]([N]([C](=[O])[C]([H])([H])[n]2[n][n][c](-[c]3[c]([H])[c]([H])[c]([H])[c]([H])[c]3[H])[n]2)[C]([H])([H])[H])[c]([H])[c]1[H]

$$$$
