
     RDKit          3D

 30 31  0  0  0  0  0  0  0  0999 V2000
    9.8601    1.9958   24.8157 H   0  0  0  0  0  0  0  0  0  0  0  0
    9.4632    1.3047   25.3750 O   0  0  0  0  0  0  0  0  0  0  0  0
    9.5574    0.1105   24.6530 N   0  0  0  0  0  0  0  0  0  0  0  0
    8.6829   -0.3891   24.7128 H   0  0  0  0  0  0  0  0  0  0  0  0
   10.6162   -0.7615   24.8517 C   0  0  0  0  0  0  0  0  0  0  0  0
   11.7256   -0.4276   25.1976 O   0  0  0  0  0  0  0  0  0  0  0  0
   10.2541   -2.2110   24.5301 C   0  0  0  0  0  0  0  0  0  0  0  0
   11.0009   -2.8930   24.9310 H   0  0  0  0  0  0  0  0  0  0  0  0
    9.2531   -2.7483   23.8094 C   0  0  0  0  0  0  0  0  0  0  0  0
    8.9195   -3.7591   24.0625 H   0  0  0  0  0  0  0  0  0  0  0  0
    8.6188   -2.1442   22.6355 C   0  0  0  0  0  0  0  0  0  0  0  0
    9.2561   -1.2410   21.8161 C   0  0  0  0  0  0  0  0  0  0  0  0
   10.3024   -1.0378   21.9949 H   0  0  0  0  0  0  0  0  0  0  0  0
    8.5430   -0.5896   20.7941 C   0  0  0  0  0  0  0  0  0  0  0  0
    9.0560    0.1714   20.2160 H   0  0  0  0  0  0  0  0  0  0  0  0
    7.1957   -0.8040   20.5533 C   0  0  0  0  0  0  0  0  0  0  0  0
    6.4829    0.0101   19.5264 C   0  0  0  0  0  0  0  0  0  0  0  0
    7.0610    0.2298   18.2498 C   0  0  0  0  0  0  0  0  0  0  0  0
    8.0165   -0.2299   17.9949 H   0  0  0  0  0  0  0  0  0  0  0  0
    6.5135    0.9607   17.2738 N   0  0  0  0  0  0  0  0  0  0  0  0
    5.3455    1.5637   17.5448 C   0  0  0  0  0  0  0  0  0  0  0  0
    4.9277    2.1668   16.7411 H   0  0  0  0  0  0  0  0  0  0  0  0
    4.6882    1.4381   18.7702 C   0  0  0  0  0  0  0  0  0  0  0  0
    3.7600    1.9720   18.9216 H   0  0  0  0  0  0  0  0  0  0  0  0
    5.2504    0.6423   19.7747 C   0  0  0  0  0  0  0  0  0  0  0  0
    4.7626    0.5129   20.7422 H   0  0  0  0  0  0  0  0  0  0  0  0
    6.5266   -1.8591   21.3572 C   0  0  0  0  0  0  0  0  0  0  0  0
    5.4030   -2.3169   21.2452 O   0  0  0  0  0  0  0  0  0  0  0  0
    7.3215   -2.4495   22.3412 N   0  0  0  0  0  0  0  0  0  0  0  0
    6.7864   -3.1627   22.8034 H   0  0  0  0  0  0  0  0  0  0  0  0
  1  2  1  0
  2  3  1  0
  3  4  1  0
  3  5  1  0
  5  6  2  0
  5  7  1  0
  7  8  1  0
  7  9  2  3
  9 10  1  0
  9 11  1  0
 11 12  2  0
 12 13  1  0
 12 14  1  0
 14 15  1  0
 14 16  2  0
 16 17  1  0
 17 18  2  0
 18 19  1  0
 18 20  1  0
 20 21  2  0
 21 22  1  0
 21 23  1  0
 23 24  1  0
 23 25  2  0
 25 26  1  0
 16 27  1  0
 27 28  2  0
 27 29  1  0
 29 30  1  0
 29 11  1  0
 25 17  1  0
M  END
>  <plip>  (1) 
-0.07142857142857142

>  <filename>  (1) 
[H][O][N]([H])[C](=[O])[C]([H])=[C]([H])[c]1[c]([H])[c]([H])[c](-[c]2[c]([H])[n][c]([H])[c]([H])[c]2[H])[c](=[O])[n]1[H]

$$$$
