
     RDKit          3D

 29 31  0  0  0  0  0  0  0  0999 V2000
    5.7398   -1.6589   21.6448 H   0  0  0  0  0  0  0  0  0  0  0  0
    6.7941   -1.4511   21.8339 C   0  0  0  0  0  0  0  0  0  0  0  0
    7.4037   -0.6586   20.9405 C   0  0  0  0  0  0  0  0  0  0  0  0
    9.1362   -0.4634   20.8763 Cl  0  0  0  0  0  0  0  0  0  0  0  0
    6.6698    0.0443   19.8751 C   0  0  0  0  0  0  0  0  0  0  0  0
    7.1762    0.0879   18.5632 C   0  0  0  0  0  0  0  0  0  0  0  0
    8.1184   -0.4016   18.3261 H   0  0  0  0  0  0  0  0  0  0  0  0
    6.5559    0.6908   17.5486 N   0  0  0  0  0  0  0  0  0  0  0  0
    5.3901    1.3037   17.8128 C   0  0  0  0  0  0  0  0  0  0  0  0
    4.9229    1.8044   16.9687 H   0  0  0  0  0  0  0  0  0  0  0  0
    4.7970    1.3210   19.0807 C   0  0  0  0  0  0  0  0  0  0  0  0
    3.8600    1.8450   19.2280 H   0  0  0  0  0  0  0  0  0  0  0  0
    5.4407    0.6689   20.1316 C   0  0  0  0  0  0  0  0  0  0  0  0
    5.0275    0.6510   21.1413 H   0  0  0  0  0  0  0  0  0  0  0  0
    7.3484   -2.1410   22.9824 C   0  0  0  0  0  0  0  0  0  0  0  0
    8.3523   -1.7215   23.8134 C   0  0  0  0  0  0  0  0  0  0  0  0
    8.9165   -0.7991   23.7709 H   0  0  0  0  0  0  0  0  0  0  0  0
    8.5805   -2.6651   24.7819 N   0  0  0  0  0  0  0  0  0  0  0  0
    9.2485   -2.5822   25.5297 H   0  0  0  0  0  0  0  0  0  0  0  0
    7.7071   -3.7204   24.6131 C   0  0  0  0  0  0  0  0  0  0  0  0
    7.5300   -4.9001   25.3565 C   0  0  0  0  0  0  0  0  0  0  0  0
    8.1418   -5.1210   26.2276 H   0  0  0  0  0  0  0  0  0  0  0  0
    6.5314   -5.7807   24.9524 C   0  0  0  0  0  0  0  0  0  0  0  0
    6.3336   -6.6645   25.5539 H   0  0  0  0  0  0  0  0  0  0  0  0
    5.7525   -5.5295   23.7966 C   0  0  0  0  0  0  0  0  0  0  0  0
    4.9982   -6.2487   23.4873 H   0  0  0  0  0  0  0  0  0  0  0  0
    5.9349   -4.3603   23.0630 C   0  0  0  0  0  0  0  0  0  0  0  0
    5.3324   -4.1593   22.1786 H   0  0  0  0  0  0  0  0  0  0  0  0
    6.9077   -3.4282   23.4815 C   0  0  0  0  0  0  0  0  0  0  0  0
  1  2  1  0
  2  3  2  3
  3  4  1  0
  3  5  1  0
  5  6  2  0
  6  7  1  0
  6  8  1  0
  8  9  2  0
  9 10  1  0
  9 11  1  0
 11 12  1  0
 11 13  2  0
 13 14  1  0
  2 15  1  0
 15 16  2  0
 16 17  1  0
 16 18  1  0
 18 19  1  0
 18 20  1  0
 20 21  2  0
 21 22  1  0
 21 23  1  0
 23 24  1  0
 23 25  2  0
 25 26  1  0
 25 27  1  0
 27 28  1  0
 27 29  2  0
 13  5  1  0
 29 15  1  0
 29 20  1  0
M  END
>  <plip>  (1) 
-0.07142857142857142

>  <filename>  (1) 
[H][C](=[C]([Cl])[c]1[c]([H])[n][c]([H])[c]([H])[c]1[H])[c]1[c]([H])[n]([H])[c]2[c]([H])[c]([H])[c]([H])[c]([H])[c]12

$$$$
