
     RDKit          3D

 36 38  0  0  0  0  0  0  0  0999 V2000
    7.9799    2.1745   21.4319 C   0  0  0  0  0  0  0  0  0  0  0  0
    8.9507    1.1627   22.0283 C   0  0  0  0  0  0  0  0  0  0  0  0
   10.3664    1.6861   21.8004 C   0  0  0  0  0  0  0  0  0  0  0  0
   11.4383    0.6562   22.0018 C   0  0  0  0  0  0  0  0  0  0  0  0
   12.7512    1.0994   22.2277 C   0  0  0  0  0  0  0  0  0  0  0  0
   13.1136    2.9632   22.5132 Br  0  0  0  0  0  0  0  0  0  0  0  0
   13.8021    0.1792   22.2231 C   0  0  0  0  0  0  0  0  0  0  0  0
   13.5423   -1.1869   22.0762 C   0  0  0  0  0  0  0  0  0  0  0  0
   12.2199   -1.6264   21.9448 C   0  0  0  0  0  0  0  0  0  0  0  0
   11.1540   -0.7120   21.8828 C   0  0  0  0  0  0  0  0  0  0  0  0
    9.7283   -1.2073   21.6925 C   0  0  0  0  0  0  0  0  0  0  0  0
    8.7769   -0.1290   21.3576 N   0  0  0  0  0  0  0  0  0  0  0  0
    7.1149   -0.6343   21.4013 S   0  0  0  0  0  0  0  0  0  0  0  0
    7.0310   -2.0719   21.1147 O   0  0  0  0  0  0  0  0  0  0  0  0
    6.5038   -0.2261   22.6722 O   0  0  0  0  0  0  0  0  0  0  0  0
    6.4580    0.2648   20.0322 C   0  0  0  0  0  0  0  0  0  0  0  0
    5.3021    1.0432   20.0214 C   0  0  0  0  0  0  0  0  0  0  0  0
    5.0018    1.6428   18.8114 C   0  0  0  0  0  0  0  0  0  0  0  0
    5.8391    1.4523   17.7087 C   0  0  0  0  0  0  0  0  0  0  0  0
    6.9459    0.6920   17.7709 N   0  0  0  0  0  0  0  0  0  0  0  0
    7.2537    0.1059   18.9241 C   0  0  0  0  0  0  0  0  0  0  0  0
    8.1486   -0.5098   18.9748 H   0  0  0  0  0  0  0  0  0  0  0  0
    5.5880    1.9433   16.7734 H   0  0  0  0  0  0  0  0  0  0  0  0
    4.1248    2.2660   18.7010 H   0  0  0  0  0  0  0  0  0  0  0  0
    4.6487    1.1965   20.8877 H   0  0  0  0  0  0  0  0  0  0  0  0
    9.7188   -1.9617   20.8970 H   0  0  0  0  0  0  0  0  0  0  0  0
    9.4127   -1.7011   22.6176 H   0  0  0  0  0  0  0  0  0  0  0  0
   12.0194   -2.6837   21.8573 H   0  0  0  0  0  0  0  0  0  0  0  0
   14.3510   -1.9157   22.0592 H   0  0  0  0  0  0  0  0  0  0  0  0
   14.8163    0.5541   22.3023 H   0  0  0  0  0  0  0  0  0  0  0  0
   10.5541    2.5209   22.4796 H   0  0  0  0  0  0  0  0  0  0  0  0
   10.4455    2.0466   20.7691 H   0  0  0  0  0  0  0  0  0  0  0  0
    8.7622    1.0592   23.1058 H   0  0  0  0  0  0  0  0  0  0  0  0
    8.1463    2.2591   20.3543 H   0  0  0  0  0  0  0  0  0  0  0  0
    6.9493    1.8503   21.5924 H   0  0  0  0  0  0  0  0  0  0  0  0
    8.1232    3.1549   21.8948 H   0  0  0  0  0  0  0  0  0  0  0  0
  1  2  1  0
  2  3  1  0
  3  4  1  0
  4  5  2  0
  5  6  1  0
  5  7  1  0
  7  8  2  0
  8  9  1  0
  9 10  2  0
 10 11  1  0
 11 12  1  0
 12 13  1  0
 13 14  2  0
 13 15  2  0
 13 16  1  0
 16 17  2  0
 17 18  1  0
 18 19  2  0
 19 20  1  0
 20 21  2  0
 21 22  1  0
 19 23  1  0
 18 24  1  0
 17 25  1  0
 11 26  1  0
 11 27  1  0
  9 28  1  0
  8 29  1  0
  7 30  1  0
  3 31  1  0
  3 32  1  0
  2 33  1  0
  1 34  1  0
  1 35  1  0
  1 36  1  0
 12  2  1  0
 21 16  1  0
 10  4  1  0
M  END
>  <plip>  (1) 
-0.10714285714285714

>  <filename>  (1) 
[H][c]1[n][c]([H])[c]([S](=[O])(=[O])[N]2[C]([H])([H])[c]3[c]([H])[c]([H])[c]([H])[c]([Br])[c]3[C]([H])([H])[C]2([H])[C]([H])([H])[H])[c]([H])[c]1[H]

$$$$
