
     RDKit          3D

 36 38  0  0  0  0  0  0  0  0999 V2000
    6.3856   -3.0292   21.0007 C   0  0  0  0  0  0  0  0  0  0  0  0
    7.2299   -1.8997   21.1321 O   0  0  0  0  0  0  0  0  0  0  0  0
    6.5999   -0.6452   21.2796 C   0  0  0  0  0  0  0  0  0  0  0  0
    6.0902   -0.0854   19.9573 C   0  0  0  0  0  0  0  0  0  0  0  0
    5.1915    0.9884   19.9380 C   0  0  0  0  0  0  0  0  0  0  0  0
    4.8814    1.5710   18.7094 C   0  0  0  0  0  0  0  0  0  0  0  0
    5.4650    1.0523   17.5501 C   0  0  0  0  0  0  0  0  0  0  0  0
    6.3139    0.0177   17.5507 N   0  0  0  0  0  0  0  0  0  0  0  0
    6.6127   -0.5304   18.7361 C   0  0  0  0  0  0  0  0  0  0  0  0
    7.3241   -1.3540   18.7319 H   0  0  0  0  0  0  0  0  0  0  0  0
    5.2472    1.4842   16.5735 H   0  0  0  0  0  0  0  0  0  0  0  0
    4.2216    2.4271   18.6320 H   0  0  0  0  0  0  0  0  0  0  0  0
    4.7552    1.3727   20.8639 H   0  0  0  0  0  0  0  0  0  0  0  0
    7.5375    0.3493   21.9527 C   0  0  0  0  0  0  0  0  0  0  0  0
    7.2788    1.1058   22.9662 N   0  0  0  0  0  0  0  0  0  0  0  0
    8.4067    1.8940   23.1782 N   0  0  0  0  0  0  0  0  0  0  0  0
    9.2621    1.5535   22.2744 C   0  0  0  0  0  0  0  0  0  0  0  0
   10.6507    2.0421   22.0423 C   0  0  0  0  0  0  0  0  0  0  0  0
   11.7099    0.9500   22.1776 C   0  0  0  0  0  0  0  0  0  0  0  0
   12.7401    1.1211   23.1075 C   0  0  0  0  0  0  0  0  0  0  0  0
   13.6943    0.1198   23.2633 C   0  0  0  0  0  0  0  0  0  0  0  0
   14.6084    0.2470   24.2288 F   0  0  0  0  0  0  0  0  0  0  0  0
   13.7147   -1.0241   22.4730 C   0  0  0  0  0  0  0  0  0  0  0  0
   12.6740   -1.1970   21.5567 C   0  0  0  0  0  0  0  0  0  0  0  0
   11.6719   -0.2296   21.4136 C   0  0  0  0  0  0  0  0  0  0  0  0
   10.8798   -0.3960   20.6936 H   0  0  0  0  0  0  0  0  0  0  0  0
   12.6271   -2.1030   20.9616 H   0  0  0  0  0  0  0  0  0  0  0  0
   14.4805   -1.7735   22.6472 H   0  0  0  0  0  0  0  0  0  0  0  0
   12.8239    2.0152   23.7154 H   0  0  0  0  0  0  0  0  0  0  0  0
   10.8400    2.8493   22.7581 H   0  0  0  0  0  0  0  0  0  0  0  0
   10.6787    2.5037   21.0466 H   0  0  0  0  0  0  0  0  0  0  0  0
    8.7731    0.5931   21.4451 O   0  0  0  0  0  0  0  0  0  0  0  0
    5.7681   -0.7195   21.9926 H   0  0  0  0  0  0  0  0  0  0  0  0
    5.9417   -3.1076   19.9979 H   0  0  0  0  0  0  0  0  0  0  0  0
    5.5776   -3.0322   21.7472 H   0  0  0  0  0  0  0  0  0  0  0  0
    7.0216   -3.9017   21.1720 H   0  0  0  0  0  0  0  0  0  0  0  0
  1  2  1  0
  2  3  1  0
  3  4  1  0
  4  5  2  0
  5  6  1  0
  6  7  2  0
  7  8  1  0
  8  9  2  0
  9 10  1  0
  7 11  1  0
  6 12  1  0
  5 13  1  0
  3 14  1  0
 14 15  2  0
 15 16  1  0
 16 17  2  0
 17 18  1  0
 18 19  1  0
 19 20  2  0
 20 21  1  0
 21 22  1  0
 21 23  2  0
 23 24  1  0
 24 25  2  0
 25 26  1  0
 24 27  1  0
 23 28  1  0
 20 29  1  0
 18 30  1  0
 18 31  1  0
 17 32  1  0
  3 33  1  0
  1 34  1  0
  1 35  1  0
  1 36  1  0
  9  4  1  0
 32 14  1  0
 25 19  1  0
M  END
>  <plip>  (1) 
-0.10344827586206896

>  <filename>  (1) 
[H][c]1[n][c]([H])[c]([C]([H])([O][C]([H])([H])[H])[c]2[n][n][c]([C]([H])([H])[c]3[c]([H])[c]([H])[c]([H])[c]([F])[c]3[H])[o]2)[c]([H])[c]1[H]

$$$$
