
     RDKit          3D

 27 28  0  0  0  0  0  0  0  0999 V2000
    4.9658    1.7665   16.9225 H   0  0  0  0  0  0  0  0  0  0  0  0
    5.4279    1.2796   17.7818 C   0  0  0  0  0  0  0  0  0  0  0  0
    6.5878    0.6427   17.5612 N   0  0  0  0  0  0  0  0  0  0  0  0
    7.1655    0.0468   18.6148 C   0  0  0  0  0  0  0  0  0  0  0  0
    8.1124   -0.4580   18.4136 H   0  0  0  0  0  0  0  0  0  0  0  0
    6.6396    0.0481   19.9044 C   0  0  0  0  0  0  0  0  0  0  0  0
    7.3742   -0.7181   20.9765 C   0  0  1  0  0  0  0  0  0  0  0  0
    8.4367   -0.7764   20.7108 H   0  0  0  0  0  0  0  0  0  0  0  0
    7.2503   -0.0958   22.2411 O   0  0  0  0  0  0  0  0  0  0  0  0
    7.9824    1.0360   22.4771 C   0  0  0  0  0  0  0  0  0  0  0  0
    7.7101    1.7039   23.6794 C   0  0  0  0  0  0  0  0  0  0  0  0
    6.9423    1.2858   24.3280 H   0  0  0  0  0  0  0  0  0  0  0  0
    8.3845    2.8865   23.9765 C   0  0  0  0  0  0  0  0  0  0  0  0
    8.1089    3.4463   24.8651 H   0  0  0  0  0  0  0  0  0  0  0  0
    9.3904    3.3655   23.1234 C   0  0  0  0  0  0  0  0  0  0  0  0
    9.9270    4.2811   23.3492 H   0  0  0  0  0  0  0  0  0  0  0  0
    9.6832    2.6718   21.9499 C   0  0  0  0  0  0  0  0  0  0  0  0
   10.4742    3.0201   21.2929 H   0  0  0  0  0  0  0  0  0  0  0  0
    8.9590    1.5333   21.5968 C   0  0  0  0  0  0  0  0  0  0  0  0
    9.1334    1.0717   20.6321 H   0  0  0  0  0  0  0  0  0  0  0  0
    6.8508   -2.0224   21.2079 N   0  0  0  0  0  0  0  0  0  0  0  0
    6.0723   -1.8330   21.8268 H   0  0  0  0  0  0  0  0  0  0  0  0
    6.5556   -2.4602   20.3446 H   0  0  0  0  0  0  0  0  0  0  0  0
    5.4303    0.7203   20.1259 C   0  0  0  0  0  0  0  0  0  0  0  0
    4.9953    0.7771   21.1264 H   0  0  0  0  0  0  0  0  0  0  0  0
    4.8128    1.3363   19.0384 C   0  0  0  0  0  0  0  0  0  0  0  0
    3.8745    1.8663   19.1541 H   0  0  0  0  0  0  0  0  0  0  0  0
  1  2  1  0
  2  3  2  0
  3  4  1  0
  4  5  1  0
  4  6  2  0
  6  7  1  0
  7  8  1  6
  7  9  1  0
  9 10  1  0
 10 11  2  0
 11 12  1  0
 11 13  1  0
 13 14  1  0
 13 15  2  0
 15 16  1  0
 15 17  1  0
 17 18  1  0
 17 19  2  0
 19 20  1  0
  7 21  1  0
 21 22  1  0
 21 23  1  0
  6 24  1  0
 24 25  1  0
 24 26  2  0
 26 27  1  0
 26  2  1  0
 19 10  1  0
M  END
>  <plip>  (1) 
-0.03571428571428571

>  <filename>  (1) 
[H][c]1[n][c]([H])[c]([C@@]([H])([O][c]2[c]([H])[c]([H])[c]([H])[c]([H])[c]2[H])[N]([H])[H])[c]([H])[c]1[H]

$$$$
