
     RDKit          3D

 41 44  0  0  0  0  0  0  0  0999 V2000
    4.9249    1.8395   16.9865 H   0  0  0  0  0  0  0  0  0  0  0  0
    5.4096    1.3240   17.8116 C   0  0  0  0  0  0  0  0  0  0  0  0
    6.5760    0.7194   17.5301 N   0  0  0  0  0  0  0  0  0  0  0  0
    7.2037    0.0814   18.5299 C   0  0  0  0  0  0  0  0  0  0  0  0
    8.1530   -0.3878   18.2633 H   0  0  0  0  0  0  0  0  0  0  0  0
    6.7088   -0.0266   19.8588 C   0  0  0  0  0  0  0  0  0  0  0  0
    7.3982   -0.7152   20.8862 N   0  0  0  0  0  0  0  0  0  0  0  0
    6.7187   -1.6898   21.7249 C   0  0  0  0  0  0  0  0  0  0  0  0
    7.2592   -2.6474   21.7010 H   0  0  0  0  0  0  0  0  0  0  0  0
    5.7317   -1.8957   21.2989 H   0  0  0  0  0  0  0  0  0  0  0  0
    6.5129   -1.3254   23.2025 C   0  0  0  0  0  0  0  0  0  0  0  0
    6.0801   -0.3208   23.2963 H   0  0  0  0  0  0  0  0  0  0  0  0
    5.7927   -2.0578   23.5607 H   0  0  0  0  0  0  0  0  0  0  0  0
    7.6800   -1.4243   24.0574 N   0  0  0  0  0  0  0  0  0  0  0  0
    7.7825   -2.5321   24.8679 C   0  0  0  0  0  0  0  0  0  0  0  0
    9.2998   -3.3571   25.2206 S   0  0  0  0  0  0  0  0  0  0  0  0
    8.4354   -4.5597   26.1704 C   0  0  0  0  0  0  0  0  0  0  0  0
    8.9802   -5.6489   26.8599 C   0  0  0  0  0  0  0  0  0  0  0  0
   10.0509   -5.8411   26.8142 H   0  0  0  0  0  0  0  0  0  0  0  0
    8.1098   -6.4463   27.6003 C   0  0  0  0  0  0  0  0  0  0  0  0
    8.4862   -7.2768   28.1811 H   0  0  0  0  0  0  0  0  0  0  0  0
    6.7181   -6.2169   27.6311 C   0  0  0  0  0  0  0  0  0  0  0  0
    6.0749   -6.8809   28.2095 H   0  0  0  0  0  0  0  0  0  0  0  0
    6.1821   -5.1439   26.9335 C   0  0  0  0  0  0  0  0  0  0  0  0
    5.1156   -4.9300   26.9384 H   0  0  0  0  0  0  0  0  0  0  0  0
    7.0462   -4.2942   26.2114 C   0  0  0  0  0  0  0  0  0  0  0  0
    6.7124   -3.1354   25.4570 C   0  0  0  0  0  0  0  0  0  0  0  0
    5.7109   -2.7304   25.3718 H   0  0  0  0  0  0  0  0  0  0  0  0
    8.7809   -0.5371   23.7474 C   0  0  0  0  0  0  0  0  0  0  0  0
    8.3865    0.4902   23.7288 H   0  0  0  0  0  0  0  0  0  0  0  0
    9.5019   -0.5646   24.5714 H   0  0  0  0  0  0  0  0  0  0  0  0
    9.4384   -0.9022   22.4120 C   0  0  0  0  0  0  0  0  0  0  0  0
   10.4842   -0.5737   22.4198 H   0  0  0  0  0  0  0  0  0  0  0  0
    9.4678   -1.9933   22.3368 H   0  0  0  0  0  0  0  0  0  0  0  0
    8.7823   -0.3328   21.1477 C   0  0  0  0  0  0  0  0  0  0  0  0
    9.4153   -0.6295   20.2958 H   0  0  0  0  0  0  0  0  0  0  0  0
    8.8354    0.7683   21.1742 H   0  0  0  0  0  0  0  0  0  0  0  0
    5.4724    0.6048   20.1117 C   0  0  0  0  0  0  0  0  0  0  0  0
    5.0637    0.5773   21.1201 H   0  0  0  0  0  0  0  0  0  0  0  0
    4.8260    1.2948   19.0812 C   0  0  0  0  0  0  0  0  0  0  0  0
    3.8862    1.8096   19.2500 H   0  0  0  0  0  0  0  0  0  0  0  0
  1  2  1  0
  2  3  2  0
  3  4  1  0
  4  5  1  0
  4  6  2  0
  6  7  1  0
  7  8  1  0
  8  9  1  0
  8 10  1  0
  8 11  1  0
 11 12  1  0
 11 13  1  0
 11 14  1  0
 14 15  1  0
 15 16  1  0
 16 17  1  0
 17 18  2  0
 18 19  1  0
 18 20  1  0
 20 21  1  0
 20 22  2  0
 22 23  1  0
 22 24  1  0
 24 25  1  0
 24 26  2  0
 26 27  1  0
 27 28  1  0
 14 29  1  0
 29 30  1  0
 29 31  1  0
 29 32  1  0
 32 33  1  0
 32 34  1  0
 32 35  1  0
 35 36  1  0
 35 37  1  0
  6 38  1  0
 38 39  1  0
 38 40  2  0
 40 41  1  0
 40  2  1  0
 35  7  1  0
 27 15  2  0
 26 17  1  0
M  END
>  <plip>  (1) 
-0.07142857142857142

>  <filename>  (1) 
[H][c]1[n][c]([H])[c]([N]2[C]([H])([H])[C]([H])([H])[N]([c]3[s][c]4[c]([H])[c]([H])[c]([H])[c]([H])[c]4[c]3[H])[C]([H])([H])[C]([H])([H])[C]2([H])[H])[c]([H])[c]1[H]

$$$$
