
     RDKit          3D

 44 47  0  0  0  0  0  0  0  0999 V2000
    8.7302    3.6098   23.1923 C   0  0  0  0  0  0  0  0  0  0  0  0
    7.9637    2.2910   23.3797 C   0  0  0  0  0  0  0  0  0  0  0  0
    8.0619    1.3613   22.1496 C   0  0  0  0  0  0  0  0  0  0  0  0
    8.5711    1.7499   21.1069 O   0  0  0  0  0  0  0  0  0  0  0  0
    7.5160    0.1110   22.2439 N   0  0  0  0  0  0  0  0  0  0  0  0
    6.9972   -0.5647   23.4370 C   0  0  0  0  0  0  0  0  0  0  0  0
    6.8118   -2.0170   22.9852 C   0  0  0  0  0  0  0  0  0  0  0  0
    6.6421   -1.9463   21.4651 C   0  0  0  0  0  0  0  0  0  0  0  0
    7.3826   -0.6746   21.0180 C   0  0  0  0  0  0  0  0  0  0  0  0
    6.6559    0.0691   19.9083 C   0  0  0  0  0  0  0  0  0  0  0  0
    5.4317    0.7195   20.1164 C   0  0  0  0  0  0  0  0  0  0  0  0
    4.8050    1.3356   19.0301 C   0  0  0  0  0  0  0  0  0  0  0  0
    5.4308    1.2958   17.7802 C   0  0  0  0  0  0  0  0  0  0  0  0
    6.6065    0.6898   17.5606 N   0  0  0  0  0  0  0  0  0  0  0  0
    7.1932    0.1074   18.6173 C   0  0  0  0  0  0  0  0  0  0  0  0
    8.1466   -0.3836   18.4134 H   0  0  0  0  0  0  0  0  0  0  0  0
    4.9660    1.7729   16.9198 H   0  0  0  0  0  0  0  0  0  0  0  0
    3.8652    1.8632   19.1534 H   0  0  0  0  0  0  0  0  0  0  0  0
    4.9852    0.7836   21.1079 H   0  0  0  0  0  0  0  0  0  0  0  0
    8.3951   -0.9150   20.6629 H   0  0  0  0  0  0  0  0  0  0  0  0
    5.5780   -1.8615   21.2109 H   0  0  0  0  0  0  0  0  0  0  0  0
    7.0422   -2.8272   20.9544 H   0  0  0  0  0  0  0  0  0  0  0  0
    7.6952   -2.6033   23.2616 H   0  0  0  0  0  0  0  0  0  0  0  0
    5.9429   -2.4749   23.4686 H   0  0  0  0  0  0  0  0  0  0  0  0
    7.7038   -0.5030   24.2640 H   0  0  0  0  0  0  0  0  0  0  0  0
    6.0543   -0.1090   23.7632 H   0  0  0  0  0  0  0  0  0  0  0  0
    8.5293    1.6083   24.5436 O   0  0  0  0  0  0  0  0  0  0  0  0
    7.9074    1.7151   25.7721 C   0  0  0  0  0  0  0  0  0  0  0  0
    8.5176    1.1275   26.8823 C   0  0  0  0  0  0  0  0  0  0  0  0
    7.9285    1.2576   28.1464 C   0  0  0  0  0  0  0  0  0  0  0  0
    6.7276    1.9566   28.2893 C   0  0  0  0  0  0  0  0  0  0  0  0
    6.0831    2.4975   27.1714 C   0  0  0  0  0  0  0  0  0  0  0  0
    6.6521    2.3488   25.9051 C   0  0  0  0  0  0  0  0  0  0  0  0
    5.9871    2.7777   24.7443 N   0  0  0  0  0  0  0  0  0  0  0  0
    6.4421    2.5325   23.4848 C   0  0  0  0  0  0  0  0  0  0  0  0
    5.6753    2.5668   22.5444 O   0  0  0  0  0  0  0  0  0  0  0  0
    4.9892    2.9212   24.7469 H   0  0  0  0  0  0  0  0  0  0  0  0
    5.1441    3.0357   27.2778 H   0  0  0  0  0  0  0  0  0  0  0  0
    6.2830    2.0610   29.2724 H   0  0  0  0  0  0  0  0  0  0  0  0
    8.4185    0.8315   29.0197 H   0  0  0  0  0  0  0  0  0  0  0  0
    9.4502    0.5868   26.7438 H   0  0  0  0  0  0  0  0  0  0  0  0
    8.6132    4.2465   24.0744 H   0  0  0  0  0  0  0  0  0  0  0  0
    8.3606    4.1375   22.3086 H   0  0  0  0  0  0  0  0  0  0  0  0
    9.7931    3.3964   23.0511 H   0  0  0  0  0  0  0  0  0  0  0  0
  1  2  1  0
  2  3  1  0
  3  4  2  0
  3  5  1  0
  5  6  1  0
  6  7  1  0
  7  8  1  0
  8  9  1  0
  9 10  1  0
 10 11  2  0
 11 12  1  0
 12 13  2  0
 13 14  1  0
 14 15  2  0
 15 16  1  0
 13 17  1  0
 12 18  1  0
 11 19  1  0
  9 20  1  0
  8 21  1  0
  8 22  1  0
  7 23  1  0
  7 24  1  0
  6 25  1  0
  6 26  1  0
  2 27  1  0
 27 28  1  0
 28 29  2  0
 29 30  1  0
 30 31  2  0
 31 32  1  0
 32 33  2  0
 33 34  1  0
 34 35  1  0
 35 36  2  0
 34 37  1  0
 32 38  1  0
 31 39  1  0
 30 40  1  0
 29 41  1  0
  1 42  1  0
  1 43  1  0
  1 44  1  0
 35  2  1  0
  9  5  1  0
 15 10  1  0
 33 28  1  0
M  END
>  <plip>  (1) 
-0.14285714285714285

>  <filename>  (1) 
[H][c]1[n][c]([H])[c]([C]2([H])[N]([C](=[O])[C]3([C]([H])([H])[H])[O][c]4[c]([H])[c]([H])[c]([H])[c]([H])[c]4[N]([H])[C]3=[O])[C]([H])([H])[C]([H])([H])[C]2([H])[H])[c]([H])[c]1[H]

$$$$
