
     RDKit          3D

 23 24  0  0  0  0  0  0  0  0999 V2000
    7.4154   -2.6632   20.0010 H   0  0  0  0  0  0  0  0  0  0  0  0
    6.4983   -2.5519   20.4542 N   0  0  0  0  0  0  0  0  0  0  0  0
    7.2265   -1.1658   21.1752 S   0  0  2  0  0  6  0  0  0  0  0  0
    8.6298   -1.4178   20.7272 O   0  0  0  0  0  0  0  0  0  0  0  0
    7.5865    0.3254   22.9131 C   0  0  0  0  0  0  0  0  0  0  0  0
    7.1308   -0.0400   24.0838 N   0  0  0  0  0  0  0  0  0  0  0  0
    7.2454    0.8669   25.0799 C   0  0  0  0  0  0  0  0  0  0  0  0
    6.8514    0.5634   26.0485 H   0  0  0  0  0  0  0  0  0  0  0  0
    7.7815    2.0711   24.9596 N   0  0  0  0  0  0  0  0  0  0  0  0
    8.2586    2.4074   23.7559 C   0  0  0  0  0  0  0  0  0  0  0  0
    8.7092    3.3971   23.6691 H   0  0  0  0  0  0  0  0  0  0  0  0
    8.2075    1.5498   22.6529 C   0  0  0  0  0  0  0  0  0  0  0  0
    8.6478    1.8329   21.7057 H   0  0  0  0  0  0  0  0  0  0  0  0
    6.5122   -0.1161   19.9464 C   0  0  0  0  0  0  0  0  0  0  0  0
    7.1040   -0.2162   18.6971 C   0  0  0  0  0  0  0  0  0  0  0  0
    7.9971   -0.8134   18.5324 H   0  0  0  0  0  0  0  0  0  0  0  0
    6.6265    0.4485   17.6451 N   0  0  0  0  0  0  0  0  0  0  0  0
    5.5296    1.2022   17.8119 C   0  0  0  0  0  0  0  0  0  0  0  0
    5.1630    1.7356   16.9349 H   0  0  0  0  0  0  0  0  0  0  0  0
    4.8593    1.3143   19.0344 C   0  0  0  0  0  0  0  0  0  0  0  0
    3.9576    1.9104   19.1085 H   0  0  0  0  0  0  0  0  0  0  0  0
    5.3598    0.6331   20.1423 C   0  0  0  0  0  0  0  0  0  0  0  0
    4.8522    0.6858   21.1083 H   0  0  0  0  0  0  0  0  0  0  0  0
  1  2  1  0
  2  3  2  0
  3  4  2  0
  3  5  1  1
  5  6  2  0
  6  7  1  0
  7  8  1  0
  7  9  2  0
  9 10  1  0
 10 11  1  0
 10 12  2  0
 12 13  1  0
  3 14  1  0
 14 15  2  0
 15 16  1  0
 15 17  1  0
 17 18  2  0
 18 19  1  0
 18 20  1  0
 20 21  1  0
 20 22  2  0
 22 23  1  0
 12  5  1  0
 22 14  1  0
M  END
>  <plip>  (1) 
-0.10344827586206896

>  <filename>  (1) 
[H][N]=[S@](=[O])([c]1[n][c]([H])[n][c]([H])[c]1[H])[c]1[c]([H])[n][c]([H])[c]([H])[c]1[H]

$$$$
