
     RDKit          3D

 32 34  0  0  0  0  0  0  0  0999 V2000
   10.1213   -0.5084   26.0804 O   0  0  0  0  0  0  0  0  0  0  0  0
    9.9573    0.2788   25.1676 C   0  0  0  0  0  0  0  0  0  0  0  0
    9.8499    1.6143   25.5330 N   0  0  0  0  0  0  0  0  0  0  0  0
    9.6628    2.6107   24.6415 C   0  0  0  0  0  0  0  0  0  0  0  0
    9.5732    2.3966   23.3668 N   0  0  0  0  0  0  0  0  0  0  0  0
    9.6400    1.0946   22.9086 C   0  0  0  0  0  0  0  0  0  0  0  0
    9.8552    0.0221   23.7375 C   0  0  0  0  0  0  0  0  0  0  0  0
    9.8690   -1.3972   23.2251 C   0  0  0  0  0  0  0  0  0  0  0  0
   10.0039   -1.4804   21.6890 C   0  0  0  0  0  0  0  0  0  0  0  0
    9.1432   -0.4996   20.9572 N   0  0  0  0  0  0  0  0  0  0  0  0
    7.5019   -0.8639   21.1512 S   0  0  0  0  0  0  0  0  0  0  0  0
    7.3642   -2.2770   20.8639 O   0  0  0  0  0  0  0  0  0  0  0  0
    7.0755   -0.2999   22.4198 O   0  0  0  0  0  0  0  0  0  0  0  0
    6.6788    0.0433   19.9337 C   0  0  0  0  0  0  0  0  0  0  0  0
    5.4497    0.6635   20.2022 C   0  0  0  0  0  0  0  0  0  0  0  0
    4.8307    1.2953   19.1335 C   0  0  0  0  0  0  0  0  0  0  0  0
    5.4446    1.2564   17.8780 C   0  0  0  0  0  0  0  0  0  0  0  0
    6.6076    0.6345   17.6445 N   0  0  0  0  0  0  0  0  0  0  0  0
    7.2232    0.0338   18.6637 C   0  0  0  0  0  0  0  0  0  0  0  0
    8.1661   -0.4522   18.4165 H   0  0  0  0  0  0  0  0  0  0  0  0
    4.9817    1.7461   17.0237 H   0  0  0  0  0  0  0  0  0  0  0  0
    3.8942    1.8229   19.2568 H   0  0  0  0  0  0  0  0  0  0  0  0
    4.9911    0.6508   21.1936 H   0  0  0  0  0  0  0  0  0  0  0  0
    9.4922    0.8820   21.3978 C   0  0  0  0  0  0  0  0  0  0  0  0
    8.7936    1.6220   20.9976 H   0  0  0  0  0  0  0  0  0  0  0  0
   10.4673    1.0998   20.9414 H   0  0  0  0  0  0  0  0  0  0  0  0
    9.8034   -2.4946   21.3290 H   0  0  0  0  0  0  0  0  0  0  0  0
   11.0339   -1.2340   21.3972 H   0  0  0  0  0  0  0  0  0  0  0  0
    8.9466   -1.9038   23.5350 H   0  0  0  0  0  0  0  0  0  0  0  0
   10.6838   -1.9481   23.7035 H   0  0  0  0  0  0  0  0  0  0  0  0
    9.5843    3.6176   25.0456 H   0  0  0  0  0  0  0  0  0  0  0  0
    9.9254    1.6802   26.5365 H   0  0  0  0  0  0  0  0  0  0  0  0
  1  2  2  0
  2  3  1  0
  3  4  1  0
  4  5  2  0
  5  6  1  0
  6  7  2  0
  7  8  1  0
  8  9  1  0
  9 10  1  0
 10 11  1  0
 11 12  2  0
 11 13  2  0
 11 14  1  0
 14 15  2  0
 15 16  1  0
 16 17  2  0
 17 18  1  0
 18 19  2  0
 19 20  1  0
 17 21  1  0
 16 22  1  0
 15 23  1  0
 10 24  1  0
 24 25  1  0
 24 26  1  0
  9 27  1  0
  9 28  1  0
  8 29  1  0
  8 30  1  0
  4 31  1  0
  3 32  1  0
  7  2  1  0
 19 14  1  0
 24  6  1  0
M  END
>  <plip>  (1) 
-0.10714285714285714

>  <filename>  (1) 
[H][c]1[n][c]([H])[c]([S](=[O])(=[O])[N]2[C]([H])([H])[c]3[n][c]([H])[n]([H])[c](=[O])[c]3[C]([H])([H])[C]2([H])[H])[c]([H])[c]1[H]

$$$$
