
     RDKit          3D

 46 48  0  0  0  0  0  0  0  0999 V2000
    7.4921    1.2530   22.5190 C   0  0  0  0  0  0  0  0  0  0  0  0
    8.1989    0.0387   21.8888 C   0  0  0  0  0  0  0  0  0  0  0  0
    9.4440    0.5068   21.1154 C   0  0  0  0  0  0  0  0  0  0  0  0
   10.0543   -0.3337   20.7645 H   0  0  0  0  0  0  0  0  0  0  0  0
    9.1785    1.1163   20.2444 H   0  0  0  0  0  0  0  0  0  0  0  0
   10.0830    1.1255   21.7580 H   0  0  0  0  0  0  0  0  0  0  0  0
    7.2830   -0.8893   21.0319 C   0  0  0  0  0  0  0  0  0  0  0  0
    6.3894   -1.6511   21.9000 N   0  0  0  0  0  0  0  0  0  0  0  0
    5.7274   -2.7697   21.4863 C   0  0  0  0  0  0  0  0  0  0  0  0
    5.8177   -3.2122   20.3566 O   0  0  0  0  0  0  0  0  0  0  0  0
    4.8663   -3.4388   22.5884 C   0  0  0  0  0  0  0  0  0  0  0  0
    4.9857   -3.3600   23.8856 N   0  0  0  0  0  0  0  0  0  0  0  0
    3.9903   -4.1735   24.3871 C   0  0  0  0  0  0  0  0  0  0  0  0
    3.2843   -4.7178   23.3571 C   0  0  0  0  0  0  0  0  0  0  0  0
    2.1582   -5.6984   23.2311 C   0  0  0  0  0  0  0  0  0  0  0  0
    0.7999   -5.1063   22.8795 C   0  0  0  0  0  0  0  0  0  0  0  0
    0.2905   -5.2011   21.5785 C   0  0  0  0  0  0  0  0  0  0  0  0
   -0.9512   -4.6532   21.2390 C   0  0  0  0  0  0  0  0  0  0  0  0
   -1.7239   -4.0389   22.2286 C   0  0  0  0  0  0  0  0  0  0  0  0
   -1.2558   -3.9839   23.5467 C   0  0  0  0  0  0  0  0  0  0  0  0
    0.0045   -4.5033   23.8634 C   0  0  0  0  0  0  0  0  0  0  0  0
    0.3700   -4.4558   24.8865 H   0  0  0  0  0  0  0  0  0  0  0  0
   -1.8728   -3.5394   24.3263 H   0  0  0  0  0  0  0  0  0  0  0  0
   -2.6896   -3.6098   21.9759 H   0  0  0  0  0  0  0  0  0  0  0  0
   -1.3135   -4.7065   20.2140 H   0  0  0  0  0  0  0  0  0  0  0  0
    0.8718   -5.7213   20.8272 H   0  0  0  0  0  0  0  0  0  0  0  0
    2.4352   -6.4379   22.4706 H   0  0  0  0  0  0  0  0  0  0  0  0
    2.0707   -6.2410   24.1784 H   0  0  0  0  0  0  0  0  0  0  0  0
    3.8431   -4.2469   22.2073 O   0  0  0  0  0  0  0  0  0  0  0  0
    3.8657   -4.3299   25.4508 H   0  0  0  0  0  0  0  0  0  0  0  0
    6.3726   -1.4556   22.8909 H   0  0  0  0  0  0  0  0  0  0  0  0
    6.5273   -0.1701   19.9228 C   0  0  0  0  0  0  0  0  0  0  0  0
    5.3411    0.5500   20.1225 C   0  0  0  0  0  0  0  0  0  0  0  0
    4.8118    1.2829   19.0574 C   0  0  0  0  0  0  0  0  0  0  0  0
    5.4690    1.2584   17.8243 C   0  0  0  0  0  0  0  0  0  0  0  0
    6.5809    0.5442   17.5971 N   0  0  0  0  0  0  0  0  0  0  0  0
    7.0754   -0.1509   18.6301 C   0  0  0  0  0  0  0  0  0  0  0  0
    7.9819   -0.7241   18.4195 H   0  0  0  0  0  0  0  0  0  0  0  0
    5.0848    1.8263   16.9793 H   0  0  0  0  0  0  0  0  0  0  0  0
    3.9180    1.8813   19.1749 H   0  0  0  0  0  0  0  0  0  0  0  0
    4.8582    0.5491   21.1026 H   0  0  0  0  0  0  0  0  0  0  0  0
    7.9468   -1.6083   20.5288 H   0  0  0  0  0  0  0  0  0  0  0  0
    8.5462   -0.6049   22.7112 H   0  0  0  0  0  0  0  0  0  0  0  0
    8.1915    1.8083   23.1561 H   0  0  0  0  0  0  0  0  0  0  0  0
    7.1228    1.9500   21.7562 H   0  0  0  0  0  0  0  0  0  0  0  0
    6.6397    0.9662   23.1455 H   0  0  0  0  0  0  0  0  0  0  0  0
  1  2  1  0
  2  3  1  0
  3  4  1  0
  3  5  1  0
  3  6  1  0
  2  7  1  0
  7  8  1  0
  8  9  1  0
  9 10  2  0
  9 11  1  0
 11 12  2  0
 12 13  1  0
 13 14  2  0
 14 15  1  0
 15 16  1  0
 16 17  2  0
 17 18  1  0
 18 19  2  0
 19 20  1  0
 20 21  2  0
 21 22  1  0
 20 23  1  0
 19 24  1  0
 18 25  1  0
 17 26  1  0
 15 27  1  0
 15 28  1  0
 14 29  1  0
 13 30  1  0
  8 31  1  0
  7 32  1  0
 32 33  2  0
 33 34  1  0
 34 35  2  0
 35 36  1  0
 36 37  2  0
 37 38  1  0
 35 39  1  0
 34 40  1  0
 33 41  1  0
  7 42  1  0
  2 43  1  0
  1 44  1  0
  1 45  1  0
  1 46  1  0
 29 11  1  0
 37 32  1  0
 21 16  1  0
M  END
>  <plip>  (1) 
-0.13793103448275862

>  <filename>  (1) 
[H][c]1[n][c]([C](=[O])[N]([H])[C]([H])([c]2[c]([H])[n][c]([H])[c]([H])[c]2[H])[C]([H])([C]([H])([H])[H])[C]([H])([H])[H])[o][c]1[C]([H])([H])[c]1[c]([H])[c]([H])[c]([H])[c]([H])[c]1[H]

$$$$
