
     RDKit          3D

 27 27  0  0  0  0  0  0  0  0999 V2000
    5.5058   -7.6672   25.2165 H   0  0  0  0  0  0  0  0  0  0  0  0
    4.8532   -7.1071   24.7573 O   0  0  0  0  0  0  0  0  0  0  0  0
    5.5749   -6.1521   24.0334 N   0  0  0  0  0  0  0  0  0  0  0  0
    5.0855   -5.9708   23.1685 H   0  0  0  0  0  0  0  0  0  0  0  0
    6.0680   -4.9858   24.6315 C   0  0  0  0  0  0  0  0  0  0  0  0
    6.3177   -4.8700   25.8131 O   0  0  0  0  0  0  0  0  0  0  0  0
    6.3652   -3.9709   23.5867 C   0  0  0  0  0  0  0  0  0  0  0  0
    5.9349   -4.1192   22.6001 H   0  0  0  0  0  0  0  0  0  0  0  0
    7.1760   -2.9315   23.8142 C   0  0  0  0  0  0  0  0  0  0  0  0
    7.5926   -2.6772   24.7977 H   0  0  0  0  0  0  0  0  0  0  0  0
    7.6242   -2.0728   22.7948 N   0  0  0  0  0  0  0  0  0  0  0  0
    8.6104   -1.1750   23.2653 O   0  0  0  0  0  0  0  0  0  0  0  0
    9.4247   -1.7075   23.3177 H   0  0  0  0  0  0  0  0  0  0  0  0
    6.8157   -1.7042   21.6629 C   0  0  0  0  0  0  0  0  0  0  0  0
    5.7516   -2.2461   21.4254 O   0  0  0  0  0  0  0  0  0  0  0  0
    7.4004   -0.7559   20.8605 N   0  0  0  0  0  0  0  0  0  0  0  0
    8.2020   -0.3271   21.2977 H   0  0  0  0  0  0  0  0  0  0  0  0
    6.6931   -0.0251   19.8518 C   0  0  0  0  0  0  0  0  0  0  0  0
    7.2317    0.0778   18.5548 C   0  0  0  0  0  0  0  0  0  0  0  0
    8.1851   -0.4128   18.3498 H   0  0  0  0  0  0  0  0  0  0  0  0
    6.6258    0.7128   17.5437 N   0  0  0  0  0  0  0  0  0  0  0  0
    5.4475    1.3086   17.7981 C   0  0  0  0  0  0  0  0  0  0  0  0
    4.9806    1.8207   16.9593 H   0  0  0  0  0  0  0  0  0  0  0  0
    4.8372    1.2937   19.0563 C   0  0  0  0  0  0  0  0  0  0  0  0
    3.8952    1.8159   19.2000 H   0  0  0  0  0  0  0  0  0  0  0  0
    5.4665    0.6069   20.1048 C   0  0  0  0  0  0  0  0  0  0  0  0
    5.0229    0.5554   21.0978 H   0  0  0  0  0  0  0  0  0  0  0  0
  1  2  1  0
  2  3  1  0
  3  4  1  0
  3  5  1  0
  5  6  2  0
  5  7  1  0
  7  8  1  0
  7  9  2  3
  9 10  1  0
  9 11  1  0
 11 12  1  0
 12 13  1  0
 11 14  1  0
 14 15  2  0
 14 16  1  0
 16 17  1  0
 16 18  1  0
 18 19  2  0
 19 20  1  0
 19 21  1  0
 21 22  2  0
 22 23  1  0
 22 24  1  0
 24 25  1  0
 24 26  2  0
 26 27  1  0
 26 18  1  0
M  END
>  <plip>  (1) 
-0.1

>  <filename>  (1) 
[H][O][N]([H])[C](=[O])[C]([H])=[C]([H])[N]([O][H])[C](=[O])[N]([H])[c]1[c]([H])[n][c]([H])[c]([H])[c]1[H]

$$$$
