
     RDKit          3D

 34 35  0  0  0  0  0  0  0  0999 V2000
    5.0056    1.8162   16.9686 H   0  0  0  0  0  0  0  0  0  0  0  0
    5.4479    1.3157   17.8279 C   0  0  0  0  0  0  0  0  0  0  0  0
    6.6105    0.6856   17.6063 N   0  0  0  0  0  0  0  0  0  0  0  0
    7.1825    0.0606   18.6357 C   0  0  0  0  0  0  0  0  0  0  0  0
    8.1184   -0.4566   18.4327 H   0  0  0  0  0  0  0  0  0  0  0  0
    6.6449    0.0410   19.9255 C   0  0  0  0  0  0  0  0  0  0  0  0
    7.4047   -0.7529   20.9125 C   0  0  0  0  0  0  0  0  0  0  0  0
    8.2174   -1.6032   20.6162 O   0  0  0  0  0  0  0  0  0  0  0  0
    7.0906   -0.4750   22.2398 N   0  0  0  0  0  0  0  0  0  0  0  0
    6.8921    0.4961   22.4310 H   0  0  0  0  0  0  0  0  0  0  0  0
    7.5378   -1.1688   23.3611 C   0  0  0  0  0  0  0  0  0  0  0  0
    7.8993   -0.2923   24.6924 S   0  0  0  0  0  0  0  0  0  0  0  0
    7.5913   -2.7560   23.3383 C   0  0  0  0  0  0  0  0  0  0  0  0
    8.4110   -3.3921   23.9689 O   0  0  0  0  0  0  0  0  0  0  0  0
    6.6368   -3.3373   22.5693 N   0  0  0  0  0  0  0  0  0  0  0  0
    5.9924   -2.7372   22.0890 H   0  0  0  0  0  0  0  0  0  0  0  0
    6.4305   -4.7669   22.4495 C   0  0  0  0  0  0  0  0  0  0  0  0
    7.3613   -5.2581   22.1244 H   0  0  0  0  0  0  0  0  0  0  0  0
    5.3064   -5.0780   21.4639 C   0  0  0  0  0  0  0  0  0  0  0  0
    5.6029   -4.9276   20.4206 H   0  0  0  0  0  0  0  0  0  0  0  0
    4.4667   -4.4053   21.6954 H   0  0  0  0  0  0  0  0  0  0  0  0
    4.9161   -6.5303   21.7766 C   0  0  0  0  0  0  0  0  0  0  0  0
    5.5364   -7.2224   21.1944 H   0  0  0  0  0  0  0  0  0  0  0  0
    3.8760   -6.7485   21.5414 H   0  0  0  0  0  0  0  0  0  0  0  0
    5.1938   -6.7155   23.2879 C   0  0  0  0  0  0  0  0  0  0  0  0
    5.7973   -7.6143   23.4191 H   0  0  0  0  0  0  0  0  0  0  0  0
    4.2713   -6.8640   23.8643 H   0  0  0  0  0  0  0  0  0  0  0  0
    5.9254   -5.4338   23.7394 C   0  0  0  0  0  0  0  0  0  0  0  0
    6.7322   -5.5904   24.4588 H   0  0  0  0  0  0  0  0  0  0  0  0
    5.2112   -4.7516   24.2155 H   0  0  0  0  0  0  0  0  0  0  0  0
    5.4305    0.7127   20.1543 C   0  0  0  0  0  0  0  0  0  0  0  0
    4.9679    0.7346   21.1432 H   0  0  0  0  0  0  0  0  0  0  0  0
    4.8191    1.3504   19.0768 C   0  0  0  0  0  0  0  0  0  0  0  0
    3.8868    1.8923   19.1893 H   0  0  0  0  0  0  0  0  0  0  0  0
  1  2  1  0
  2  3  2  0
  3  4  1  0
  4  5  1  0
  4  6  2  0
  6  7  1  0
  7  8  2  0
  7  9  1  0
  9 10  1  0
  9 11  1  0
 11 12  2  0
 11 13  1  0
 13 14  2  0
 13 15  1  0
 15 16  1  0
 15 17  1  0
 17 18  1  0
 17 19  1  0
 19 20  1  0
 19 21  1  0
 19 22  1  0
 22 23  1  0
 22 24  1  0
 22 25  1  0
 25 26  1  0
 25 27  1  0
 25 28  1  0
 28 29  1  0
 28 30  1  0
  6 31  1  0
 31 32  1  0
 31 33  2  0
 33 34  1  0
 33  2  1  0
 28 17  1  0
M  END
>  <plip>  (1) 
-0.10344827586206896

>  <filename>  (1) 
[H][c]1[n][c]([H])[c]([C](=[O])[N]([H])[C](=[S])[C](=[O])[N]([H])[C]2([H])[C]([H])([H])[C]([H])([H])[C]([H])([H])[C]2([H])[H])[c]([H])[c]1[H]

$$$$
