
     RDKit          3D

 38 39  0  0  0  0  0  0  0  0999 V2000
    5.7105   -2.2334   21.5470 O   0  0  0  0  0  0  0  0  0  0  0  0
    6.7666   -1.6807   21.7772 C   0  0  0  0  0  0  0  0  0  0  0  0
    7.5434   -1.8939   22.8948 N   0  0  0  0  0  0  0  0  0  0  0  0
    7.0492   -2.6204   24.0603 C   0  0  0  0  0  0  0  0  0  0  0  0
    6.2993   -1.7584   25.1014 C   0  0  0  0  0  0  0  0  0  0  0  0
    5.7241   -2.5991   26.0969 O   0  0  0  0  0  0  0  0  0  0  0  0
    4.3731   -2.9608   25.9393 C   0  0  0  0  0  0  0  0  0  0  0  0
    4.1029   -4.1095   26.9326 C   0  0  0  0  0  0  0  0  0  0  0  0
    2.6663   -4.0810   27.4660 C   0  0  0  0  0  0  0  0  0  0  0  0
    2.3673   -2.7108   28.1207 C   0  0  0  0  0  0  0  0  0  0  0  0
    3.2047   -1.5723   27.4916 C   0  0  0  0  0  0  0  0  0  0  0  0
    3.5228   -1.8464   26.1292 O   0  0  0  0  0  0  0  0  0  0  0  0
    2.6427   -0.6328   27.4878 H   0  0  0  0  0  0  0  0  0  0  0  0
    4.1319   -1.4090   28.0611 H   0  0  0  0  0  0  0  0  0  0  0  0
    1.2979   -2.4879   28.0225 H   0  0  0  0  0  0  0  0  0  0  0  0
    2.6025   -2.7429   29.1930 H   0  0  0  0  0  0  0  0  0  0  0  0
    2.5254   -4.8896   28.1941 H   0  0  0  0  0  0  0  0  0  0  0  0
    1.9557   -4.2672   26.6473 H   0  0  0  0  0  0  0  0  0  0  0  0
    4.8054   -3.9885   27.7673 H   0  0  0  0  0  0  0  0  0  0  0  0
    4.3285   -5.0652   26.4450 H   0  0  0  0  0  0  0  0  0  0  0  0
    4.1739   -3.2823   24.9025 H   0  0  0  0  0  0  0  0  0  0  0  0
    7.0080   -1.1166   25.6411 H   0  0  0  0  0  0  0  0  0  0  0  0
    5.5450   -1.1075   24.6353 H   0  0  0  0  0  0  0  0  0  0  0  0
    6.3752   -3.4142   23.7168 H   0  0  0  0  0  0  0  0  0  0  0  0
    7.9005   -3.0966   24.5682 H   0  0  0  0  0  0  0  0  0  0  0  0
    8.2708   -1.2151   23.0189 H   0  0  0  0  0  0  0  0  0  0  0  0
    7.3773   -0.7636   20.9363 N   0  0  0  0  0  0  0  0  0  0  0  0
    6.7169   -0.0546   19.8988 C   0  0  0  0  0  0  0  0  0  0  0  0
    5.4949    0.5840   20.1488 C   0  0  0  0  0  0  0  0  0  0  0  0
    4.8701    1.2629   19.0990 C   0  0  0  0  0  0  0  0  0  0  0  0
    5.4848    1.2820   17.8403 C   0  0  0  0  0  0  0  0  0  0  0  0
    6.6640    0.6890   17.5881 N   0  0  0  0  0  0  0  0  0  0  0  0
    7.2607    0.0489   18.5999 C   0  0  0  0  0  0  0  0  0  0  0  0
    8.2196   -0.4269   18.3978 H   0  0  0  0  0  0  0  0  0  0  0  0
    5.0104    1.7686   16.9920 H   0  0  0  0  0  0  0  0  0  0  0  0
    3.9290    1.7844   19.2420 H   0  0  0  0  0  0  0  0  0  0  0  0
    5.0776    0.5508   21.1566 H   0  0  0  0  0  0  0  0  0  0  0  0
    8.3641   -0.6399   21.0737 H   0  0  0  0  0  0  0  0  0  0  0  0
  1  2  2  0
  2  3  1  0
  3  4  1  0
  4  5  1  0
  5  6  1  0
  6  7  1  0
  7  8  1  0
  8  9  1  0
  9 10  1  0
 10 11  1  0
 11 12  1  0
 11 13  1  0
 11 14  1  0
 10 15  1  0
 10 16  1  0
  9 17  1  0
  9 18  1  0
  8 19  1  0
  8 20  1  0
  7 21  1  0
  5 22  1  0
  5 23  1  0
  4 24  1  0
  4 25  1  0
  3 26  1  0
  2 27  1  0
 27 28  1  0
 28 29  2  0
 29 30  1  0
 30 31  2  0
 31 32  1  0
 32 33  2  0
 33 34  1  0
 31 35  1  0
 30 36  1  0
 29 37  1  0
 27 38  1  0
 12  7  1  0
 33 28  1  0
M  END
>  <plip>  (1) 
-0.07142857142857142

>  <filename>  (1) 
[H][c]1[n][c]([H])[c]([N]([H])[C](=[O])[N]([H])[C]([H])([H])[C]([H])([H])[O][C]2([H])[O][C]([H])([H])[C]([H])([H])[C]([H])([H])[C]2([H])[H])[c]([H])[c]1[H]

$$$$
