
     RDKit          3D

 26 27  0  0  0  0  0  0  0  0999 V2000
    5.6355   -1.0636   21.9434 H   0  0  0  0  0  0  0  0  0  0  0  0
    6.7129   -1.1371   21.8673 C   0  0  0  0  0  0  0  0  0  0  0  0
    7.2090   -1.9060   22.8829 O   0  0  0  0  0  0  0  0  0  0  0  0
    8.4771   -1.7069   23.3326 C   0  0  0  0  0  0  0  0  0  0  0  0
    9.2261   -2.8771   23.7280 C   0  0  0  0  0  0  0  0  0  0  0  0
    8.7673   -3.8651   23.7385 H   0  0  0  0  0  0  0  0  0  0  0  0
   10.4881   -2.5845   24.0585 C   0  0  0  0  0  0  0  0  0  0  0  0
   11.2800   -3.2545   24.4222 H   0  0  0  0  0  0  0  0  0  0  0  0
   10.5736   -0.4149   24.1150 C   0  0  0  0  0  0  0  0  0  0  0  0
   10.9993    0.1972   25.3566 F   0  0  0  0  0  0  0  0  0  0  0  0
   10.4954   -0.5300   23.8235 C   0  0  0  0  0  0  0  0  0  0  0  0
   11.6947   -0.7032   23.7140 H   0  0  0  0  0  0  0  0  0  0  0  0
    9.1141   -0.4621   23.5021 C   0  0  0  0  0  0  0  0  0  0  0  0
    8.8967    0.2849   22.7628 H   0  0  0  0  0  0  0  0  0  0  0  0
    7.3751   -0.6371   20.8224 C   0  0  0  0  0  0  0  0  0  0  0  0
    8.4333   -0.8541   20.6723 H   0  0  0  0  0  0  0  0  0  0  0  0
    6.6894    0.0987   19.7299 C   0  0  0  0  0  0  0  0  0  0  0  0
    7.2488    0.1252   18.4361 C   0  0  0  0  0  0  0  0  0  0  0  0
    8.2000   -0.3772   18.2568 H   0  0  0  0  0  0  0  0  0  0  0  0
    6.6887    0.7151   17.3735 N   0  0  0  0  0  0  0  0  0  0  0  0
    5.5167    1.3436   17.5702 C   0  0  0  0  0  0  0  0  0  0  0  0
    5.0739    1.8162   16.6953 H   0  0  0  0  0  0  0  0  0  0  0  0
    4.8763    1.4019   18.8112 C   0  0  0  0  0  0  0  0  0  0  0  0
    3.9394    1.9389   18.9064 H   0  0  0  0  0  0  0  0  0  0  0  0
    5.4671    0.7712   19.9080 C   0  0  0  0  0  0  0  0  0  0  0  0
    5.0023    0.8189   20.8924 H   0  0  0  0  0  0  0  0  0  0  0  0
  1  2  1  0
  2  3  1  0
  3  4  1  0
  4  5  2  0
  5  6  1  0
  5  7  1  0
  7  8  1  0
  7  9  2  0
  9 10  1  0
  9 11  1  0
 11 12  1  0
 11 13  2  0
 13 14  1  0
  2 15  2  3
 15 16  1  0
 15 17  1  0
 17 18  2  0
 18 19  1  0
 18 20  1  0
 20 21  2  0
 21 22  1  0
 21 23  1  0
 23 24  1  0
 23 25  2  0
 25 26  1  0
 13  4  1  0
 25 17  1  0
M  END
>  <plip>  (1) 
-0.034482758620689655

>  <filename>  (1) 
[H][C]([O][c]1[c]([H])[c]([H])[c]([F])[c]([H])[c]1[H])=[C]([H])[c]1[c]([H])[n][c]([H])[c]([H])[c]1[H]

$$$$
