
     RDKit          3D

 39 41  0  0  0  0  0  0  0  0999 V2000
    2.8048    5.2279   25.0319 C   0  0  0  0  0  0  0  0  0  0  0  0
    3.6141    4.0236   25.4921 C   0  0  0  0  0  0  0  0  0  0  0  0
    3.0203    2.6755   25.0328 C   0  0  0  0  0  0  0  0  0  0  0  0
    4.2640    1.8199   24.7641 C   0  0  0  0  0  0  0  0  0  0  0  0
    5.2994    2.8626   24.3148 C   0  0  0  0  0  0  0  0  0  0  0  0
    6.7470    2.4874   24.6878 C   0  0  0  0  0  0  0  0  0  0  0  0
    7.2085    1.2435   24.0662 N   0  0  0  0  0  0  0  0  0  0  0  0
    7.3518    1.1226   22.7173 C   0  0  0  0  0  0  0  0  0  0  0  0
    7.2664    2.0719   21.9553 O   0  0  0  0  0  0  0  0  0  0  0  0
    7.6068   -0.2772   22.2782 C   0  0  0  0  0  0  0  0  0  0  0  0
    8.2060   -1.3649   22.9072 C   0  0  0  0  0  0  0  0  0  0  0  0
    8.3157   -2.3286   21.8923 C   0  0  0  0  0  0  0  0  0  0  0  0
    7.8189   -1.8959   20.7449 N   0  0  0  0  0  0  0  0  0  0  0  0
    7.3597   -0.6631   20.9858 N   0  0  0  0  0  0  0  0  0  0  0  0
    6.6604    0.0200   19.9549 C   0  0  0  0  0  0  0  0  0  0  0  0
    5.4307    0.6503   20.1805 C   0  0  0  0  0  0  0  0  0  0  0  0
    4.8071    1.2924   19.1106 C   0  0  0  0  0  0  0  0  0  0  0  0
    5.4194    1.2713   17.8564 C   0  0  0  0  0  0  0  0  0  0  0  0
    6.5847    0.6394   17.6252 N   0  0  0  0  0  0  0  0  0  0  0  0
    7.1830    0.0288   18.6494 C   0  0  0  0  0  0  0  0  0  0  0  0
    8.1215   -0.4705   18.4139 H   0  0  0  0  0  0  0  0  0  0  0  0
    4.9691    1.7759   17.0056 H   0  0  0  0  0  0  0  0  0  0  0  0
    3.8759    1.8330   19.2460 H   0  0  0  0  0  0  0  0  0  0  0  0
    4.9791    0.6529   21.1713 H   0  0  0  0  0  0  0  0  0  0  0  0
    8.7364   -3.3240   21.9177 H   0  0  0  0  0  0  0  0  0  0  0  0
    8.5930   -1.4629   23.9144 H   0  0  0  0  0  0  0  0  0  0  0  0
    7.1920    0.3679   24.5651 H   0  0  0  0  0  0  0  0  0  0  0  0
    6.8159    2.3993   25.7791 H   0  0  0  0  0  0  0  0  0  0  0  0
    7.3940    3.3087   24.3628 H   0  0  0  0  0  0  0  0  0  0  0  0
    4.9421    4.0818   24.9629 O   0  0  0  0  0  0  0  0  0  0  0  0
    5.2554    3.0207   23.2244 H   0  0  0  0  0  0  0  0  0  0  0  0
    4.1497    1.0300   24.0105 H   0  0  0  0  0  0  0  0  0  0  0  0
    4.5935    1.3370   25.6947 H   0  0  0  0  0  0  0  0  0  0  0  0
    2.3488    2.2578   25.7946 H   0  0  0  0  0  0  0  0  0  0  0  0
    2.4275    2.8148   24.1186 H   0  0  0  0  0  0  0  0  0  0  0  0
    3.7036    4.0498   26.5913 H   0  0  0  0  0  0  0  0  0  0  0  0
    1.7854    5.1685   25.4302 H   0  0  0  0  0  0  0  0  0  0  0  0
    2.7502    5.2493   23.9380 H   0  0  0  0  0  0  0  0  0  0  0  0
    3.2519    6.1641   25.3754 H   0  0  0  0  0  0  0  0  0  0  0  0
  1  2  1  0
  2  3  1  0
  3  4  1  0
  4  5  1  0
  5  6  1  0
  6  7  1  0
  7  8  1  0
  8  9  2  0
  8 10  1  0
 10 11  2  0
 11 12  1  0
 12 13  2  0
 13 14  1  0
 14 15  1  0
 15 16  2  0
 16 17  1  0
 17 18  2  0
 18 19  1  0
 19 20  2  0
 20 21  1  0
 18 22  1  0
 17 23  1  0
 16 24  1  0
 12 25  1  0
 11 26  1  0
  7 27  1  0
  6 28  1  0
  6 29  1  0
  5 30  1  0
  5 31  1  0
  4 32  1  0
  4 33  1  0
  3 34  1  0
  3 35  1  0
  2 36  1  0
  1 37  1  0
  1 38  1  0
  1 39  1  0
 30  2  1  0
 14 10  1  0
 20 15  1  0
M  END
>  <plip>  (1) 
-0.0

>  <filename>  (1) 
[H][c]1[n][c]([H])[c](-[n]2[n][c]([H])[c]([H])[c]2[C](=[O])[N]([H])[C]([H])([H])[C]2([H])[O][C]([H])([C]([H])([H])[H])[C]([H])([H])[C]2([H])[H])[c]([H])[c]1[H]

$$$$
