
     RDKit          3D

 25 26  0  0  0  0  0  0  0  0999 V2000
    5.6512   -1.6619   21.7760 H   0  0  0  0  0  0  0  0  0  0  0  0
    6.7215   -1.4922   21.8458 C   0  0  0  0  0  0  0  0  0  0  0  0
    7.2430   -1.9912   22.6625 H   0  0  0  0  0  0  0  0  0  0  0  0
    7.3641   -0.7114   20.9706 C   0  0  0  0  0  0  0  0  0  0  0  0
    6.6284    0.0101   19.8873 C   0  0  0  0  0  0  0  0  0  0  0  0
    7.1510    0.0622   18.5813 C   0  0  0  0  0  0  0  0  0  0  0  0
    8.0976   -0.4348   18.3616 H   0  0  0  0  0  0  0  0  0  0  0  0
    6.5605    0.6817   17.5516 N   0  0  0  0  0  0  0  0  0  0  0  0
    5.4040    1.3155   17.7983 C   0  0  0  0  0  0  0  0  0  0  0  0
    4.9569    1.8345   16.9546 H   0  0  0  0  0  0  0  0  0  0  0  0
    4.7859    1.3312   19.0530 C   0  0  0  0  0  0  0  0  0  0  0  0
    3.8544    1.8689   19.1800 H   0  0  0  0  0  0  0  0  0  0  0  0
    5.4028    0.6694   20.1140 C   0  0  0  0  0  0  0  0  0  0  0  0
    4.9736    0.6998   21.1155 H   0  0  0  0  0  0  0  0  0  0  0  0
    8.8600   -0.5620   21.0888 C   0  0  0  0  0  0  0  0  0  0  0  0
    9.6723   -1.7112   21.1979 C   0  0  0  0  0  0  0  0  0  0  0  0
    9.1976   -2.6707   21.0333 H   0  0  0  0  0  0  0  0  0  0  0  0
   11.0429   -1.6365   21.4604 C   0  0  0  0  0  0  0  0  0  0  0  0
   11.6165   -2.5392   21.6209 H   0  0  0  0  0  0  0  0  0  0  0  0
   11.6606   -0.3883   21.5502 C   0  0  0  0  0  0  0  0  0  0  0  0
   12.7207   -0.2929   21.7682 H   0  0  0  0  0  0  0  0  0  0  0  0
   10.9011    0.7680   21.3770 C   0  0  0  0  0  0  0  0  0  0  0  0
   11.3751    1.7430   21.3903 H   0  0  0  0  0  0  0  0  0  0  0  0
    9.5179    0.6789   21.1780 C   0  0  0  0  0  0  0  0  0  0  0  0
    8.6453    2.1773   21.0666 Cl  0  0  0  0  0  0  0  0  0  0  0  0
  1  2  1  0
  2  3  1  0
  2  4  2  3
  4  5  1  0
  5  6  2  0
  6  7  1  0
  6  8  1  0
  8  9  2  0
  9 10  1  0
  9 11  1  0
 11 12  1  0
 11 13  2  0
 13 14  1  0
  4 15  1  0
 15 16  2  0
 16 17  1  0
 16 18  1  0
 18 19  1  0
 18 20  2  0
 20 21  1  0
 20 22  1  0
 22 23  1  0
 22 24  2  0
 24 25  1  0
 13  5  1  0
 24 15  1  0
M  END
>  <plip>  (1) 
-0.07142857142857142

>  <filename>  (1) 
[H][C]([H])=[C]([c]1[c]([H])[n][c]([H])[c]([H])[c]1[H])[c]1[c]([H])[c]([H])[c]([H])[c]([H])[c]1[Cl]

$$$$
