
     RDKit          3D

 40 41  0  0  0  0  0  0  0  0999 V2000
    8.8978    0.2753   21.3125 H   0  0  0  0  0  0  0  0  0  0  0  0
    8.6540   -0.6120   20.9974 O   0  0  0  0  0  0  0  0  0  0  0  0
    7.2478   -0.6228   21.0650 N   0  0  0  0  0  0  0  0  0  0  0  0
    6.6244   -1.6883   21.7863 C   0  0  0  0  0  0  0  0  0  0  0  0
    5.4986   -2.0633   21.5317 O   0  0  0  0  0  0  0  0  0  0  0  0
    7.4035   -2.1609   22.8375 N   0  0  0  0  0  0  0  0  0  0  0  0
    8.3950   -2.1332   22.6507 H   0  0  0  0  0  0  0  0  0  0  0  0
    6.9690   -3.1091   23.7809 N   0  0  0  0  0  0  0  0  0  0  0  0
    6.3231   -2.7123   24.4525 H   0  0  0  0  0  0  0  0  0  0  0  0
    6.5535   -4.4062   23.4047 C   0  0  0  0  0  0  0  0  0  0  0  0
    6.8500   -4.9609   22.3680 O   0  0  0  0  0  0  0  0  0  0  0  0
    5.8023   -4.9843   24.3968 N   0  0  0  0  0  0  0  0  0  0  0  0
    5.4747   -4.3713   25.1229 H   0  0  0  0  0  0  0  0  0  0  0  0
    4.9710   -6.1400   24.0956 C   0  0  0  0  0  0  0  0  0  0  0  0
    5.5894   -6.8220   23.4984 H   0  0  0  0  0  0  0  0  0  0  0  0
    4.5452   -6.8356   25.4020 C   0  0  0  0  0  0  0  0  0  0  0  0
    5.4262   -7.3299   25.8214 H   0  0  0  0  0  0  0  0  0  0  0  0
    4.2622   -6.0549   26.1192 H   0  0  0  0  0  0  0  0  0  0  0  0
    3.3610   -7.8275   25.2207 C   0  0  0  0  0  0  0  0  0  0  0  0
    2.4419   -7.3686   25.6054 H   0  0  0  0  0  0  0  0  0  0  0  0
    3.5163   -8.7204   25.8344 H   0  0  0  0  0  0  0  0  0  0  0  0
    3.1880   -8.2042   23.7417 C   0  0  0  0  0  0  0  0  0  0  0  0
    2.4576   -9.0063   23.5954 H   0  0  0  0  0  0  0  0  0  0  0  0
    4.1536   -8.5823   23.3998 H   0  0  0  0  0  0  0  0  0  0  0  0
    2.8828   -6.9846   22.8512 C   0  0  0  0  0  0  0  0  0  0  0  0
    3.0882   -7.2558   21.8071 H   0  0  0  0  0  0  0  0  0  0  0  0
    1.8184   -6.7252   22.9083 H   0  0  0  0  0  0  0  0  0  0  0  0
    3.7302   -5.7543   23.2656 C   0  0  0  0  0  0  0  0  0  0  0  0
    4.0379   -5.1606   22.3952 H   0  0  0  0  0  0  0  0  0  0  0  0
    3.1202   -5.0939   23.8941 H   0  0  0  0  0  0  0  0  0  0  0  0
    6.6247    0.0202   19.9541 C   0  0  0  0  0  0  0  0  0  0  0  0
    7.2732    0.0836   18.7037 C   0  0  0  0  0  0  0  0  0  0  0  0
    8.2500   -0.3799   18.5849 H   0  0  0  0  0  0  0  0  0  0  0  0
    6.7502    0.6885   17.6339 N   0  0  0  0  0  0  0  0  0  0  0  0
    5.5583    1.2923   17.7749 C   0  0  0  0  0  0  0  0  0  0  0  0
    5.1630    1.7911   16.8898 H   0  0  0  0  0  0  0  0  0  0  0  0
    4.8531    1.3113   18.9836 C   0  0  0  0  0  0  0  0  0  0  0  0
    3.9097    1.8404   19.0375 H   0  0  0  0  0  0  0  0  0  0  0  0
    5.3779    0.6485   20.0980 C   0  0  0  0  0  0  0  0  0  0  0  0
    4.8614    0.6356   21.0588 H   0  0  0  0  0  0  0  0  0  0  0  0
  1  2  1  0
  2  3  1  0
  3  4  1  0
  4  5  2  0
  4  6  1  0
  6  7  1  0
  6  8  1  0
  8  9  1  0
  8 10  1  0
 10 11  2  0
 10 12  1  0
 12 13  1  0
 12 14  1  0
 14 15  1  0
 14 16  1  0
 16 17  1  0
 16 18  1  0
 16 19  1  0
 19 20  1  0
 19 21  1  0
 19 22  1  0
 22 23  1  0
 22 24  1  0
 22 25  1  0
 25 26  1  0
 25 27  1  0
 25 28  1  0
 28 29  1  0
 28 30  1  0
  3 31  1  0
 31 32  2  0
 32 33  1  0
 32 34  1  0
 34 35  2  0
 35 36  1  0
 35 37  1  0
 37 38  1  0
 37 39  2  0
 39 40  1  0
 28 14  1  0
 39 31  1  0
M  END
>  <plip>  (1) 
-0.13793103448275862

>  <filename>  (1) 
[H][O][N]([C](=[O])[N]([H])[N]([H])[C](=[O])[N]([H])[C]1([H])[C]([H])([H])[C]([H])([H])[C]([H])([H])[C]([H])([H])[C]1([H])[H])[c]1[c]([H])[n][c]([H])[c]([H])[c]1[H]

$$$$
