
     RDKit          3D

 30 31  0  0  0  0  0  0  0  0999 V2000
    4.9145    1.7868   16.9909 H   0  0  0  0  0  0  0  0  0  0  0  0
    5.3969    1.2982   17.8330 C   0  0  0  0  0  0  0  0  0  0  0  0
    6.5570    0.6824   17.5652 N   0  0  0  0  0  0  0  0  0  0  0  0
    7.1604    0.0671   18.5880 C   0  0  0  0  0  0  0  0  0  0  0  0
    8.1104   -0.4130   18.3708 H   0  0  0  0  0  0  0  0  0  0  0  0
    6.6461   -0.0017   19.8982 C   0  0  0  0  0  0  0  0  0  0  0  0
    7.4059   -0.7128   20.9953 C   0  0  0  0  0  0  0  0  0  0  0  0
    6.7478   -0.8824   21.8552 H   0  0  0  0  0  0  0  0  0  0  0  0
    7.7312   -1.7013   20.6429 H   0  0  0  0  0  0  0  0  0  0  0  0
    8.6402    0.0447   21.5006 C   0  0  1  0  0  0  0  0  0  0  0  0
    9.1578   -0.5797   22.2424 H   0  0  0  0  0  0  0  0  0  0  0  0
    9.5331    0.2060   20.4422 F   0  0  0  0  0  0  0  0  0  0  0  0
    8.3608    1.4333   22.0828 C   0  0  0  0  0  0  0  0  0  0  0  0
    9.3275    1.8987   22.3097 H   0  0  0  0  0  0  0  0  0  0  0  0
    7.8936    2.0572   21.3129 H   0  0  0  0  0  0  0  0  0  0  0  0
    7.5026    1.3885   23.3251 C   0  0  0  0  0  0  0  0  0  0  0  0
    7.9591    0.7279   24.4729 C   0  0  0  0  0  0  0  0  0  0  0  0
    8.9467    0.2748   24.4698 H   0  0  0  0  0  0  0  0  0  0  0  0
    7.1775    0.6602   25.6222 C   0  0  0  0  0  0  0  0  0  0  0  0
    7.5382    0.1564   26.5138 H   0  0  0  0  0  0  0  0  0  0  0  0
    5.9087    1.2463   25.6407 C   0  0  0  0  0  0  0  0  0  0  0  0
    4.9669    1.1379   27.0883 Cl  0  0  0  0  0  0  0  0  0  0  0  0
    5.4346    1.9071   24.4984 C   0  0  0  0  0  0  0  0  0  0  0  0
    3.8759    2.6602   24.4650 Cl  0  0  0  0  0  0  0  0  0  0  0  0
    6.2343    1.9777   23.3533 C   0  0  0  0  0  0  0  0  0  0  0  0
    5.8576    2.5081   22.4838 H   0  0  0  0  0  0  0  0  0  0  0  0
    5.4336    0.6500   20.1530 C   0  0  0  0  0  0  0  0  0  0  0  0
    5.0067    0.6211   21.1580 H   0  0  0  0  0  0  0  0  0  0  0  0
    4.7995    1.3179   19.0999 C   0  0  0  0  0  0  0  0  0  0  0  0
    3.8651    1.8508   19.2512 H   0  0  0  0  0  0  0  0  0  0  0  0
  1  2  1  0
  2  3  2  0
  3  4  1  0
  4  5  1  0
  4  6  2  0
  6  7  1  0
  7  8  1  0
  7  9  1  0
  7 10  1  0
 10 11  1  1
 10 12  1  0
 10 13  1  0
 13 14  1  0
 13 15  1  0
 13 16  1  0
 16 17  2  0
 17 18  1  0
 17 19  1  0
 19 20  1  0
 19 21  2  0
 21 22  1  0
 21 23  1  0
 23 24  1  0
 23 25  2  0
 25 26  1  0
  6 27  1  0
 27 28  1  0
 27 29  2  0
 29 30  1  0
 29  2  1  0
 25 16  1  0
M  END
>  <plip>  (1) 
-0.03571428571428571

>  <filename>  (1) 
[H][c]1[n][c]([H])[c]([C]([H])([H])[C@@]([H])([F])[C]([H])([H])[c]2[c]([H])[c]([H])[c]([Cl])[c]([Cl])[c]2[H])[c]([H])[c]1[H]

$$$$
