
     RDKit          3D

 29 31  0  0  0  0  0  0  0  0999 V2000
    8.1936   -3.2876   28.4373 H   0  0  0  0  0  0  0  0  0  0  0  0
    7.7806   -2.5526   27.2858 O   0  0  0  0  0  0  0  0  0  0  0  0
    7.7806   -2.5526   27.2858 C   0  0  0  0  0  0  0  0  0  0  0  0
    6.7514   -1.8872   26.4886 C   0  0  0  0  0  0  0  0  0  0  0  0
    5.9323   -1.4939   27.0445 H   0  0  0  0  0  0  0  0  0  0  0  0
    6.8027   -1.4901   25.1101 C   0  0  0  0  0  0  0  0  0  0  0  0
    6.0001   -0.8919   24.6484 H   0  0  0  0  0  0  0  0  0  0  0  0
    7.8499   -1.8894   24.3231 C   0  0  0  0  0  0  0  0  0  0  0  0
    7.9279   -1.5441   22.8878 C   0  0  0  0  0  0  0  0  0  0  0  0
    6.9483   -0.7903   22.2266 N   0  0  0  0  0  0  0  0  0  0  0  0
    7.3288   -0.6797   20.9987 C   0  0  0  0  0  0  0  0  0  0  0  0
    6.6594    0.0088   19.9071 C   0  0  0  0  0  0  0  0  0  0  0  0
    7.1874    0.0461   18.6115 C   0  0  0  0  0  0  0  0  0  0  0  0
    8.1314   -0.4340   18.3777 H   0  0  0  0  0  0  0  0  0  0  0  0
    6.5646    0.6733   17.6070 N   0  0  0  0  0  0  0  0  0  0  0  0
    5.4016    1.2855   17.8464 C   0  0  0  0  0  0  0  0  0  0  0  0
    4.9304    1.7742   17.0013 H   0  0  0  0  0  0  0  0  0  0  0  0
    4.8049    1.3146   19.1014 C   0  0  0  0  0  0  0  0  0  0  0  0
    3.8823    1.8393   19.2512 H   0  0  0  0  0  0  0  0  0  0  0  0
    5.4335    0.6568   20.1515 C   0  0  0  0  0  0  0  0  0  0  0  0
    5.0055    0.6336   21.1680 H   0  0  0  0  0  0  0  0  0  0  0  0
    8.5140   -1.3122   20.7638 O   0  0  0  0  0  0  0  0  0  0  0  0
    8.8698   -1.8460   21.9647 C   0  0  0  0  0  0  0  0  0  0  0  0
    9.7889   -2.3971   22.0103 H   0  0  0  0  0  0  0  0  0  0  0  0
    8.9098   -2.6680   24.9300 C   0  0  0  0  0  0  0  0  0  0  0  0
    9.7269   -2.9992   24.3221 H   0  0  0  0  0  0  0  0  0  0  0  0
    8.7969   -3.0257   26.2603 C   0  0  0  0  0  0  0  0  0  0  0  0
    9.8578   -3.8029   26.7778 O   0  0  0  0  0  0  0  0  0  0  0  0
   10.5434   -3.9710   26.1341 H   0  0  0  0  0  0  0  0  0  0  0  0
  1  2  1  0
  2  3  1  0
  3  4  2  0
  4  5  1  0
  4  6  1  0
  6  7  1  0
  6  8  2  0
  8  9  1  0
  9 10  1  0
 10 11  2  0
 11 12  1  0
 12 13  2  0
 13 14  1  0
 13 15  1  0
 15 16  2  0
 16 17  1  0
 16 18  1  0
 18 19  1  0
 18 20  2  0
 20 21  1  0
 11 22  1  0
 22 23  1  0
 23 24  1  0
  8 25  1  0
 25 26  1  0
 25 27  2  0
 27 28  1  0
 28 29  1  0
 27  3  1  0
 23  9  2  0
 20 12  1  0
M  END
>  <plip>  (1) 
-0.03571428571428571

>  <filename>  (1) 
[H][O][c]1[c]([H])[c]([H])[c](-[c]2[n][c](-[c]3[c]([H])[n][c]([H])[c]([H])[c]3[H])[o][c]2[H])[c]([H])[c]1[O][H]

$$$$
