
     RDKit          3D

 36 38  0  0  0  0  0  0  0  0999 V2000
    9.4190    4.0896   23.6676 C   0  0  0  0  0  0  0  0  0  0  0  0
   10.2224    3.1740   24.3508 C   0  0  0  0  0  0  0  0  0  0  0  0
    9.5817    2.1533   25.0541 C   0  0  0  0  0  0  0  0  0  0  0  0
    8.1775    2.0751   25.0447 C   0  0  0  0  0  0  0  0  0  0  0  0
    7.4627    0.9476   25.7389 C   0  0  0  0  0  0  0  0  0  0  0  0
    7.1213   -0.2095   24.7917 C   0  0  0  0  0  0  0  0  0  0  0  0
    8.3229   -0.8527   24.2740 N   0  0  0  0  0  0  0  0  0  0  0  0
    9.1011   -1.7957   24.8913 C   0  0  0  0  0  0  0  0  0  0  0  0
   10.1383   -2.1025   24.1652 N   0  0  0  0  0  0  0  0  0  0  0  0
   10.0807   -1.3383   23.0318 N   0  0  0  0  0  0  0  0  0  0  0  0
    9.0113   -0.5901   23.1128 C   0  0  0  0  0  0  0  0  0  0  0  0
    8.4501    0.5068   21.8619 S   0  0  0  0  0  0  0  0  0  0  0  0
    7.3864   -0.7090   20.9749 C   0  0  0  0  0  0  0  0  0  0  0  0
    6.6442    0.0071   19.8847 C   0  0  0  0  0  0  0  0  0  0  0  0
    5.4311    0.6543   20.1433 C   0  0  0  0  0  0  0  0  0  0  0  0
    4.7983    1.3177   19.0923 C   0  0  0  0  0  0  0  0  0  0  0  0
    5.3928    1.3003   17.8258 C   0  0  0  0  0  0  0  0  0  0  0  0
    6.5547    0.6862   17.5591 N   0  0  0  0  0  0  0  0  0  0  0  0
    7.1604    0.0707   18.5812 C   0  0  0  0  0  0  0  0  0  0  0  0
    8.1094   -0.4136   18.3532 H   0  0  0  0  0  0  0  0  0  0  0  0
    4.9172    1.7924   16.9825 H   0  0  0  0  0  0  0  0  0  0  0  0
    3.8683    1.8477   19.2476 H   0  0  0  0  0  0  0  0  0  0  0  0
    5.0016    0.6422   21.1513 H   0  0  0  0  0  0  0  0  0  0  0  0
    8.0282   -1.5117   20.5920 H   0  0  0  0  0  0  0  0  0  0  0  0
    6.6903   -1.1411   21.7078 H   0  0  0  0  0  0  0  0  0  0  0  0
    8.8790   -2.2094   25.8630 H   0  0  0  0  0  0  0  0  0  0  0  0
    6.5229   -0.9709   25.3026 H   0  0  0  0  0  0  0  0  0  0  0  0
    6.5119    0.1478   23.9548 H   0  0  0  0  0  0  0  0  0  0  0  0
    6.5450    1.3293   26.1903 H   0  0  0  0  0  0  0  0  0  0  0  0
    8.0864    0.5595   26.5466 H   0  0  0  0  0  0  0  0  0  0  0  0
    7.4093    2.9535   24.3897 N   0  0  0  0  0  0  0  0  0  0  0  0
    8.0319    3.9290   23.7170 C   0  0  0  0  0  0  0  0  0  0  0  0
    7.3785    4.6172   23.1893 H   0  0  0  0  0  0  0  0  0  0  0  0
   10.1310    1.3900   25.5883 H   0  0  0  0  0  0  0  0  0  0  0  0
   11.3132    3.2493   24.3294 H   0  0  0  0  0  0  0  0  0  0  0  0
    9.8421    4.9065   23.0935 H   0  0  0  0  0  0  0  0  0  0  0  0
  1  2  2  0
  2  3  1  0
  3  4  2  0
  4  5  1  0
  5  6  1  0
  6  7  1  0
  7  8  1  0
  8  9  2  0
  9 10  1  0
 10 11  2  0
 11 12  1  0
 12 13  1  0
 13 14  1  0
 14 15  2  0
 15 16  1  0
 16 17  2  0
 17 18  1  0
 18 19  2  0
 19 20  1  0
 17 21  1  0
 16 22  1  0
 15 23  1  0
 13 24  1  0
 13 25  1  0
  8 26  1  0
  6 27  1  0
  6 28  1  0
  5 29  1  0
  5 30  1  0
  4 31  1  0
 31 32  2  0
 32 33  1  0
  3 34  1  0
  2 35  1  0
  1 36  1  0
 32  1  1  0
 11  7  1  0
 19 14  1  0
M  END
>  <plip>  (1) 
-0.07142857142857142

>  <filename>  (1) 
[H][c]1[n][c]([C]([H])([H])[C]([H])([H])[n]2[c]([H])[n][n][c]2[S][C]([H])([H])[c]2[c]([H])[n][c]([H])[c]([H])[c]2[H])[c]([H])[c]([H])[c]1[H]

$$$$
