
     RDKit          3D

 28 30  0  0  0  0  0  0  0  0999 V2000
    4.9392    1.7892   16.9909 H   0  0  0  0  0  0  0  0  0  0  0  0
    5.4104    1.2859   17.8355 C   0  0  0  0  0  0  0  0  0  0  0  0
    6.5728    0.6654   17.5857 N   0  0  0  0  0  0  0  0  0  0  0  0
    7.1879    0.0447   18.5987 C   0  0  0  0  0  0  0  0  0  0  0  0
    8.1345   -0.4272   18.3440 H   0  0  0  0  0  0  0  0  0  0  0  0
    6.6689   -0.0045   19.9075 C   0  0  0  0  0  0  0  0  0  0  0  0
    7.3449   -0.7006   21.0074 C   0  0  0  0  0  0  0  0  0  0  0  0
    8.5308   -1.2987   20.8143 O   0  0  0  0  0  0  0  0  0  0  0  0
    8.9607   -1.8832   22.0007 N   0  0  0  0  0  0  0  0  0  0  0  0
    8.0272   -1.6075   22.8691 C   0  0  0  0  0  0  0  0  0  0  0  0
    8.1747   -2.0808   24.1247 O   0  0  0  0  0  0  0  0  0  0  0  0
    7.4606   -1.5585   25.1854 C   0  0  0  0  0  0  0  0  0  0  0  0
    7.0913   -2.4618   26.1852 C   0  0  0  0  0  0  0  0  0  0  0  0
    7.3712   -3.5038   26.0693 H   0  0  0  0  0  0  0  0  0  0  0  0
    6.3955   -1.9957   27.3024 C   0  0  0  0  0  0  0  0  0  0  0  0
    6.0644   -2.7001   28.0586 H   0  0  0  0  0  0  0  0  0  0  0  0
    6.1064   -0.6343   27.4465 C   0  0  0  0  0  0  0  0  0  0  0  0
    5.5798   -0.2564   28.3139 H   0  0  0  0  0  0  0  0  0  0  0  0
    6.5033    0.2474   26.4433 C   0  0  0  0  0  0  0  0  0  0  0  0
    6.1245    1.9357   26.5928 Cl  0  0  0  0  0  0  0  0  0  0  0  0
    7.1802   -0.1935   25.3066 C   0  0  0  0  0  0  0  0  0  0  0  0
    7.4830    0.5117   24.5431 H   0  0  0  0  0  0  0  0  0  0  0  0
    6.9614   -0.8618   22.3011 C   0  0  0  0  0  0  0  0  0  0  0  0
    6.0694   -0.5237   22.7914 H   0  0  0  0  0  0  0  0  0  0  0  0
    5.4496    0.6484   20.1479 C   0  0  0  0  0  0  0  0  0  0  0  0
    5.0077    0.6479   21.1437 H   0  0  0  0  0  0  0  0  0  0  0  0
    4.8135    1.3051   19.0990 C   0  0  0  0  0  0  0  0  0  0  0  0
    3.8817    1.8370   19.2449 H   0  0  0  0  0  0  0  0  0  0  0  0
  1  2  1  0
  2  3  2  0
  3  4  1  0
  4  5  1  0
  4  6  2  0
  6  7  1  0
  7  8  1  0
  8  9  1  0
  9 10  2  0
 10 11  1  0
 11 12  1  0
 12 13  2  0
 13 14  1  0
 13 15  1  0
 15 16  1  0
 15 17  2  0
 17 18  1  0
 17 19  1  0
 19 20  1  0
 19 21  2  0
 21 22  1  0
 10 23  1  0
 23 24  1  0
  6 25  1  0
 25 26  1  0
 25 27  2  0
 27 28  1  0
 27  2  1  0
 23  7  2  0
 21 12  1  0
M  END
>  <plip>  (1) 
-0.03571428571428571

>  <filename>  (1) 
[H][c]1[n][c]([H])[c](-[c]2[o][n][c]([O][c]3[c]([H])[c]([H])[c]([H])[c]([Cl])[c]3[H])[c]2[H])[c]([H])[c]1[H]

$$$$
