
     RDKit          3D

 32 35  0  0  0  0  0  0  0  0999 V2000
    4.9455    1.8077   16.9668 H   0  0  0  0  0  0  0  0  0  0  0  0
    5.3918    1.2939   17.8177 C   0  0  0  0  0  0  0  0  0  0  0  0
    6.5490    0.6621   17.5762 N   0  0  0  0  0  0  0  0  0  0  0  0
    7.1423    0.0420   18.6030 C   0  0  0  0  0  0  0  0  0  0  0  0
    8.0937   -0.4388   18.3885 H   0  0  0  0  0  0  0  0  0  0  0  0
    6.6139    0.0004   19.8991 C   0  0  0  0  0  0  0  0  0  0  0  0
    7.4426   -0.6724   20.9849 C   0  0  0  0  0  0  0  0  0  0  0  0
    8.5015    0.3165   21.5288 C   0  0  0  0  0  0  0  0  0  0  0  0
    9.7020    0.4782   21.0849 N   0  0  0  0  0  0  0  0  0  0  0  0
   10.3291    1.5161   21.7569 C   0  0  0  0  0  0  0  0  0  0  0  0
   11.6489    1.9015   21.5138 C   0  0  0  0  0  0  0  0  0  0  0  0
   12.1545    1.3542   20.7403 H   0  0  0  0  0  0  0  0  0  0  0  0
   12.2108    2.9467   22.2342 C   0  0  0  0  0  0  0  0  0  0  0  0
   13.2445    3.2317   22.0495 H   0  0  0  0  0  0  0  0  0  0  0  0
   11.4321    3.6403   23.1878 C   0  0  0  0  0  0  0  0  0  0  0  0
   11.8740    4.4754   23.7273 H   0  0  0  0  0  0  0  0  0  0  0  0
   10.1052    3.2790   23.4356 C   0  0  0  0  0  0  0  0  0  0  0  0
    9.5097    3.8299   24.1629 H   0  0  0  0  0  0  0  0  0  0  0  0
    9.5577    2.1923   22.7250 C   0  0  0  0  0  0  0  0  0  0  0  0
    7.9987    1.4266   22.8066 S   0  0  0  0  0  0  0  0  0  0  0  0
    6.6524   -1.0813   22.0777 O   0  0  0  0  0  0  0  0  0  0  0  0
    6.3909   -2.4680   21.9477 C   0  0  0  0  0  0  0  0  0  0  0  0
    6.2418   -2.8921   22.9463 H   0  0  0  0  0  0  0  0  0  0  0  0
    5.4837   -2.6224   21.3540 H   0  0  0  0  0  0  0  0  0  0  0  0
    7.6238   -2.9735   21.2181 C   0  0  0  0  0  0  0  0  0  0  0  0
    7.3886   -3.8145   20.5575 H   0  0  0  0  0  0  0  0  0  0  0  0
    8.4451   -3.2585   21.8832 H   0  0  0  0  0  0  0  0  0  0  0  0
    8.0115   -1.8455   20.4398 O   0  0  0  0  0  0  0  0  0  0  0  0
    5.4014    0.6584   20.1390 C   0  0  0  0  0  0  0  0  0  0  0  0
    4.9596    0.6480   21.1363 H   0  0  0  0  0  0  0  0  0  0  0  0
    4.7819    1.3170   19.0771 C   0  0  0  0  0  0  0  0  0  0  0  0
    3.8532    1.8600   19.2090 H   0  0  0  0  0  0  0  0  0  0  0  0
  1  2  1  0
  2  3  2  0
  3  4  1  0
  4  5  1  0
  4  6  2  0
  6  7  1  0
  7  8  1  0
  8  9  2  0
  9 10  1  0
 10 11  2  0
 11 12  1  0
 11 13  1  0
 13 14  1  0
 13 15  2  0
 15 16  1  0
 15 17  1  0
 17 18  1  0
 17 19  2  0
 19 20  1  0
  7 21  1  0
 21 22  1  0
 22 23  1  0
 22 24  1  0
 22 25  1  0
 25 26  1  0
 25 27  1  0
 25 28  1  0
  6 29  1  0
 29 30  1  0
 29 31  2  0
 31 32  1  0
 31  2  1  0
 28  7  1  0
 20  8  1  0
 19 10  1  0
M  END
>  <plip>  (1) 
-0.06896551724137931

>  <filename>  (1) 
[H][c]1[n][c]([H])[c]([C]2([c]3[n][c]4[c]([H])[c]([H])[c]([H])[c]([H])[c]4[s]3)[O][C]([H])([H])[C]([H])([H])[O]2)[c]([H])[c]1[H]

$$$$
