
     RDKit          3D

 31 31  0  0  0  0  0  0  0  0999 V2000
   11.8337    0.1148   21.9628 C   0  0  0  0  0  0  0  0  0  0  0  0
   10.6582    0.3713   22.8901 C   0  0  0  0  0  0  0  0  0  0  0  0
   11.0413    0.0454   24.2227 O   0  0  0  0  0  0  0  0  0  0  0  0
   11.4900   -0.8090   24.1919 H   0  0  0  0  0  0  0  0  0  0  0  0
    9.3804   -0.4241   22.5615 C   0  0  0  0  0  0  0  0  0  0  0  0
    8.5646    0.0323   21.3881 N   0  0  0  0  0  4  0  0  0  0  0  0
    7.1501   -0.5726   21.2260 C   0  0  0  0  0  0  0  0  0  0  0  0
    7.2657   -2.1247   21.1111 C   0  0  0  0  0  0  0  0  0  0  0  0
    6.1160   -2.8277   20.6781 O   0  0  0  0  0  0  0  0  0  0  0  0
    5.4794   -2.8410   21.4083 H   0  0  0  0  0  0  0  0  0  0  0  0
    7.6311   -2.5025   22.0789 H   0  0  0  0  0  0  0  0  0  0  0  0
    8.0628   -2.3228   20.3916 H   0  0  0  0  0  0  0  0  0  0  0  0
    6.5532    0.1798   20.0580 C   0  0  0  0  0  0  0  0  0  0  0  0
    5.3147    0.8494   20.1469 C   0  0  0  0  0  0  0  0  0  0  0  0
    4.7797    1.4440   18.9996 C   0  0  0  0  0  0  0  0  0  0  0  0
    5.5063    1.3700   17.8105 C   0  0  0  0  0  0  0  0  0  0  0  0
    6.6857    0.7462   17.7010 N   0  0  0  0  0  0  0  0  0  0  0  0
    7.1863    0.1810   18.8056 C   0  0  0  0  0  0  0  0  0  0  0  0
    8.1460   -0.3175   18.6741 H   0  0  0  0  0  0  0  0  0  0  0  0
    5.1273    1.8336   16.8994 H   0  0  0  0  0  0  0  0  0  0  0  0
    3.8309    1.9769   19.0141 H   0  0  0  0  0  0  0  0  0  0  0  0
    4.7863    0.9156   21.0988 H   0  0  0  0  0  0  0  0  0  0  0  0
    6.5599   -0.3677   22.1291 H   0  0  0  0  0  0  0  0  0  0  0  0
    9.0634   -0.1780   20.4920 H   0  0  0  0  0  0  0  0  0  0  0  0
    8.4272    1.0772   21.3833 H   0  0  0  0  0  0  0  0  0  0  0  0
    8.7851   -0.3992   23.4800 H   0  0  0  0  0  0  0  0  0  0  0  0
    9.7077   -1.4689   22.4479 H   0  0  0  0  0  0  0  0  0  0  0  0
   10.4106    1.4379   22.9068 H   0  0  0  0  0  0  0  0  0  0  0  0
   12.7368    0.5936   22.3563 H   0  0  0  0  0  0  0  0  0  0  0  0
   12.0294   -0.9599   21.8808 H   0  0  0  0  0  0  0  0  0  0  0  0
   11.6597    0.4923   20.9542 H   0  0  0  0  0  0  0  0  0  0  0  0
  1  2  1  0
  2  3  1  0
  3  4  1  0
  2  5  1  0
  5  6  1  0
  6  7  1  0
  7  8  1  0
  8  9  1  0
  9 10  1  0
  8 11  1  0
  8 12  1  0
  7 13  1  0
 13 14  2  0
 14 15  1  0
 15 16  2  0
 16 17  1  0
 17 18  2  0
 18 19  1  0
 16 20  1  0
 15 21  1  0
 14 22  1  0
  7 23  1  0
  6 24  1  0
  6 25  1  0
  5 26  1  0
  5 27  1  0
  2 28  1  0
  1 29  1  0
  1 30  1  0
  1 31  1  0
 18 13  1  0
M  CHG  1   6   1
M  END
>  <plip>  (1) 
-0.17857142857142858

>  <filename>  (1) 
[H][O][C]([H])([H])[C]([H])([c]1[c]([H])[n][c]([H])[c]([H])[c]1[H])[N+]([H])([H])[C]([H])([H])[C]([H])([O][H])[C]([H])([H])[H]

$$$$
