
     RDKit          3D

 32 34  0  0  0  0  0  0  0  0999 V2000
    4.9995    1.8369   16.9122 H   0  0  0  0  0  0  0  0  0  0  0  0
    5.4289    1.3250   17.7710 C   0  0  0  0  0  0  0  0  0  0  0  0
    6.6013    0.6995   17.5633 N   0  0  0  0  0  0  0  0  0  0  0  0
    7.1648    0.0776   18.6049 C   0  0  0  0  0  0  0  0  0  0  0  0
    8.1043   -0.4478   18.4333 H   0  0  0  0  0  0  0  0  0  0  0  0
    6.5996    0.0582   19.8939 C   0  0  0  0  0  0  0  0  0  0  0  0
    7.2755   -0.6691   20.8440 O   0  0  0  0  0  0  0  0  0  0  0  0
    7.3632   -0.2607   22.1409 C   0  0  0  0  0  0  0  0  0  0  0  0
    7.2614    0.9950   22.7855 C   0  0  0  0  0  0  0  0  0  0  0  0
    7.0398    1.9681   22.3657 H   0  0  0  0  0  0  0  0  0  0  0  0
    7.4704    0.8479   24.0906 N   0  0  0  0  0  0  0  0  0  0  0  0
    7.7016   -0.4514   24.2847 N   0  0  0  0  0  0  0  0  0  0  0  0
    7.8739   -0.7486   25.2392 H   0  0  0  0  0  0  0  0  0  0  0  0
    7.6651   -1.1688   23.1172 C   0  0  0  0  0  0  0  0  0  0  0  0
    7.7002   -2.9242   22.7091 S   0  0  0  0  0  0  0  0  0  0  0  0
    8.5680   -3.1419   21.5579 O   0  0  0  0  0  0  0  0  0  0  0  0
    6.3223   -3.3879   22.7197 O   0  0  0  0  0  0  0  0  0  0  0  0
    8.5401   -3.5784   24.1296 C   0  0  0  0  0  0  0  0  0  0  0  0
    9.9190   -3.8039   24.0625 C   0  0  0  0  0  0  0  0  0  0  0  0
   10.4734   -3.6082   23.1462 H   0  0  0  0  0  0  0  0  0  0  0  0
   10.5830   -4.3067   25.1836 C   0  0  0  0  0  0  0  0  0  0  0  0
   11.6485   -4.4937   25.1410 H   0  0  0  0  0  0  0  0  0  0  0  0
    9.8569   -4.5739   26.3501 C   0  0  0  0  0  0  0  0  0  0  0  0
   10.6346   -5.2014   27.7696 Cl  0  0  0  0  0  0  0  0  0  0  0  0
    8.4780   -4.3629   26.4085 C   0  0  0  0  0  0  0  0  0  0  0  0
    7.9257   -4.6426   27.3008 H   0  0  0  0  0  0  0  0  0  0  0  0
    7.8191   -3.8489   25.2949 C   0  0  0  0  0  0  0  0  0  0  0  0
    6.7455   -3.6837   25.3328 H   0  0  0  0  0  0  0  0  0  0  0  0
    5.3611    0.6704   20.0998 C   0  0  0  0  0  0  0  0  0  0  0  0
    4.8729    0.6333   21.0747 H   0  0  0  0  0  0  0  0  0  0  0  0
    4.7777    1.3257   19.0071 C   0  0  0  0  0  0  0  0  0  0  0  0
    3.8339    1.8471   19.1082 H   0  0  0  0  0  0  0  0  0  0  0  0
  1  2  1  0
  2  3  2  0
  3  4  1  0
  4  5  1  0
  4  6  2  0
  6  7  1  0
  7  8  1  0
  8  9  1  0
  9 10  1  0
  9 11  2  0
 11 12  1  0
 12 13  1  0
 12 14  1  0
 14 15  1  0
 15 16  2  0
 15 17  2  0
 15 18  1  0
 18 19  2  0
 19 20  1  0
 19 21  1  0
 21 22  1  0
 21 23  2  0
 23 24  1  0
 23 25  1  0
 25 26  1  0
 25 27  2  0
 27 28  1  0
  6 29  1  0
 29 30  1  0
 29 31  2  0
 31 32  1  0
 31  2  1  0
 14  8  2  0
 27 18  1  0
M  END
>  <plip>  (1) 
-0.07142857142857142

>  <filename>  (1) 
[H][c]1[n][c]([H])[c]([O][c]2[c]([H])[n][n]([H])[c]2[S](=[O])(=[O])[c]2[c]([H])[c]([H])[c]([Cl])[c]([H])[c]2[H])[c]([H])[c]1[H]

$$$$
