
     RDKit          3D

 43 45  0  0  0  0  0  0  0  0999 V2000
    6.2642    1.4564   30.2554 C   0  0  0  0  0  0  0  0  0  0  0  0
    6.7061    0.9771   28.8910 C   0  0  0  0  0  0  0  0  0  0  0  0
    5.8181    0.9970   27.7807 C   0  0  0  0  0  0  0  0  0  0  0  0
    6.1661    0.4400   26.5519 C   0  0  0  0  0  0  0  0  0  0  0  0
    7.4041   -0.2157   26.4606 C   0  0  0  0  0  0  0  0  0  0  0  0
    8.3047   -0.2673   27.5504 C   0  0  0  0  0  0  0  0  0  0  0  0
    7.9792    0.4254   28.7335 C   0  0  0  0  0  0  0  0  0  0  0  0
    8.7129    0.4807   29.5396 H   0  0  0  0  0  0  0  0  0  0  0  0
    9.3927   -1.1095   27.1400 C   0  0  0  0  0  0  0  0  0  0  0  0
    9.1499   -1.4695   25.8476 C   0  0  0  0  0  0  0  0  0  0  0  0
    7.9431   -0.9459   25.4205 N   0  0  0  0  0  0  0  0  0  0  0  0
    7.5171   -0.8495   24.0472 C   0  0  0  0  0  0  0  0  0  0  0  0
    7.9252    0.4854   23.3783 C   0  0  0  0  0  0  0  0  0  0  0  0
    8.2046    1.4889   23.9951 O   0  0  0  0  0  0  0  0  0  0  0  0
    7.9860    0.4467   21.9871 N   0  0  0  0  0  0  0  0  0  0  0  0
    8.9451    1.3470   21.3412 C   0  0  0  0  0  0  0  0  0  0  0  0
    9.9372    1.2877   21.8061 H   0  0  0  0  0  0  0  0  0  0  0  0
    8.5967    2.3784   21.4223 H   0  0  0  0  0  0  0  0  0  0  0  0
    9.0534    1.0900   20.2861 H   0  0  0  0  0  0  0  0  0  0  0  0
    7.3190   -0.5791   21.1857 C   0  0  0  0  0  0  0  0  0  0  0  0
    8.2561   -2.0010   20.8615 C   0  0  0  0  0  0  0  0  0  0  0  0
    9.3861   -1.8104   20.4025 O   0  0  0  0  0  0  0  0  0  0  0  0
    7.6249   -3.0330   21.1494 O   0  0  0  0  0  1  0  0  0  0  0  0
    6.6252    0.0206   19.9690 C   0  0  0  0  0  0  0  0  0  0  0  0
    5.3945    0.6760   20.1539 C   0  0  0  0  0  0  0  0  0  0  0  0
    4.7910    1.3094   19.0666 C   0  0  0  0  0  0  0  0  0  0  0  0
    5.4298    1.2671   17.8218 C   0  0  0  0  0  0  0  0  0  0  0  0
    6.5856    0.6230   17.6117 N   0  0  0  0  0  0  0  0  0  0  0  0
    7.1643    0.0255   18.6704 C   0  0  0  0  0  0  0  0  0  0  0  0
    8.1162   -0.4653   18.4639 H   0  0  0  0  0  0  0  0  0  0  0  0
    4.9869    1.7627   16.9576 H   0  0  0  0  0  0  0  0  0  0  0  0
    3.8549    1.8479   19.1726 H   0  0  0  0  0  0  0  0  0  0  0  0
    4.9397    0.7200   21.1465 H   0  0  0  0  0  0  0  0  0  0  0  0
    6.5313   -1.0202   21.7891 H   0  0  0  0  0  0  0  0  0  0  0  0
    6.4250   -0.9412   23.9940 H   0  0  0  0  0  0  0  0  0  0  0  0
    7.9564   -1.6783   23.4805 H   0  0  0  0  0  0  0  0  0  0  0  0
    9.7255   -2.0959   25.1746 H   0  0  0  0  0  0  0  0  0  0  0  0
   10.2271   -1.4176   27.7533 H   0  0  0  0  0  0  0  0  0  0  0  0
    5.5085    0.4969   25.6894 H   0  0  0  0  0  0  0  0  0  0  0  0
    4.8270    1.4363   27.8896 H   0  0  0  0  0  0  0  0  0  0  0  0
    5.1724    1.4582   30.3458 H   0  0  0  0  0  0  0  0  0  0  0  0
    6.6156    2.4695   30.4768 H   0  0  0  0  0  0  0  0  0  0  0  0
    6.6613    0.7961   31.0378 H   0  0  0  0  0  0  0  0  0  0  0  0
  1  2  1  0
  2  3  2  0
  3  4  1  0
  4  5  2  0
  5  6  1  0
  6  7  2  0
  7  8  1  0
  6  9  1  0
  9 10  2  0
 10 11  1  0
 11 12  1  0
 12 13  1  0
 13 14  2  0
 13 15  1  0
 15 16  1  0
 16 17  1  0
 16 18  1  0
 16 19  1  0
 15 20  1  0
 20 21  1  0
 21 22  2  0
 21 23  1  0
 20 24  1  0
 24 25  2  0
 25 26  1  0
 26 27  2  0
 27 28  1  0
 28 29  2  0
 29 30  1  0
 27 31  1  0
 26 32  1  0
 25 33  1  0
 20 34  1  0
 12 35  1  0
 12 36  1  0
 10 37  1  0
  9 38  1  0
  4 39  1  0
  3 40  1  0
  1 41  1  0
  1 42  1  0
  1 43  1  0
  7  2  1  0
 29 24  1  0
 11  5  1  0
M  CHG  1  23  -1
M  END
>  <plip>  (1) 
-0.0

>  <filename>  (1) 
[H][c]1[n][c]([H])[c]([C]([H])([C](=[O])[O-])[N]([C](=[O])[C]([H])([H])[n]2[c]([H])[c]([H])[c]3[c]([H])[c]([C]([H])([H])[H])[c]([H])[c]([H])[c]32)[C]([H])([H])[H])[c]([H])[c]1[H]

$$$$
