
     RDKit          3D

 42 44  0  0  0  0  0  0  0  0999 V2000
    4.9796    1.8364   17.0271 H   0  0  0  0  0  0  0  0  0  0  0  0
    5.4867    1.2999   17.8249 C   0  0  0  0  0  0  0  0  0  0  0  0
    6.6679    0.7403   17.5119 N   0  0  0  0  0  0  0  0  0  0  0  0
    7.3127    0.0742   18.4773 C   0  0  0  0  0  0  0  0  0  0  0  0
    8.2759   -0.3551   18.2118 H   0  0  0  0  0  0  0  0  0  0  0  0
    6.8090   -0.1135   19.7859 C   0  0  0  0  0  0  0  0  0  0  0  0
    7.5301   -0.8453   20.7560 N   0  0  0  0  0  0  0  0  0  0  0  0
    6.9238   -1.6050   21.7551 C   0  0  0  0  0  0  0  0  0  0  0  0
    5.7852   -2.0402   21.7434 O   0  0  0  0  0  0  0  0  0  0  0  0
    7.8666   -1.8060   22.7291 N   0  0  0  0  0  0  0  0  0  0  0  0
    7.5398   -2.3843   24.0229 C   0  0  0  0  0  0  0  0  0  0  0  0
    6.6992   -1.8528   24.4921 H   0  0  0  0  0  0  0  0  0  0  0  0
    8.4076   -2.2664   24.6901 H   0  0  0  0  0  0  0  0  0  0  0  0
    7.1617   -3.8625   23.8914 C   0  0  0  0  0  0  0  0  0  0  0  0
    7.9713   -4.3862   23.3534 H   0  0  0  0  0  0  0  0  0  0  0  0
    6.2854   -3.9127   23.2280 H   0  0  0  0  0  0  0  0  0  0  0  0
    6.8660   -4.4824   25.1733 N   0  0  0  0  0  0  0  0  0  0  0  0
    6.0009   -5.6493   25.0813 C   0  0  0  0  0  0  0  0  0  0  0  0
    6.3009   -6.3359   24.2671 H   0  0  0  0  0  0  0  0  0  0  0  0
    4.9761   -5.3318   24.8384 H   0  0  0  0  0  0  0  0  0  0  0  0
    6.0836   -6.3064   26.4632 C   0  0  0  0  0  0  0  0  0  0  0  0
    5.1949   -6.0457   27.0425 H   0  0  0  0  0  0  0  0  0  0  0  0
    6.0997   -7.3980   26.3926 H   0  0  0  0  0  0  0  0  0  0  0  0
    7.3524   -5.7181   27.1215 C   0  0  0  0  0  0  0  0  0  0  0  0
    8.0597   -6.4866   27.4524 H   0  0  0  0  0  0  0  0  0  0  0  0
    7.0840   -5.1417   28.0115 H   0  0  0  0  0  0  0  0  0  0  0  0
    7.9915   -4.7767   26.0772 C   0  0  1  0  0  0  0  0  0  0  0  0
    8.2998   -3.8445   26.5772 H   0  0  0  0  0  0  0  0  0  0  0  0
    9.2455   -5.3578   25.4020 C   0  0  0  0  0  0  0  0  0  0  0  0
    9.7060   -4.6139   24.7426 H   0  0  0  0  0  0  0  0  0  0  0  0
    9.9977   -5.6214   26.1536 H   0  0  0  0  0  0  0  0  0  0  0  0
    9.0190   -6.2552   24.8123 H   0  0  0  0  0  0  0  0  0  0  0  0
    9.1650   -1.2508   22.4059 C   0  0  0  0  0  0  0  0  0  0  0  0
    9.9273   -2.0410   22.3921 H   0  0  0  0  0  0  0  0  0  0  0  0
    9.4584   -0.5024   23.1551 H   0  0  0  0  0  0  0  0  0  0  0  0
    8.9487   -0.6241   21.0192 C   0  0  0  0  0  0  0  0  0  0  0  0
    9.1712    0.4474   21.0212 H   0  0  0  0  0  0  0  0  0  0  0  0
    9.5715   -1.0975   20.2514 H   0  0  0  0  0  0  0  0  0  0  0  0
    5.5691    0.4767   20.0924 C   0  0  0  0  0  0  0  0  0  0  0  0
    5.1425    0.3613   21.0883 H   0  0  0  0  0  0  0  0  0  0  0  0
    4.9061    1.2007   19.0968 C   0  0  0  0  0  0  0  0  0  0  0  0
    3.9528    1.6872   19.2946 H   0  0  0  0  0  0  0  0  0  0  0  0
  1  2  1  0
  2  3  2  0
  3  4  1  0
  4  5  1  0
  4  6  2  0
  6  7  1  0
  7  8  1  0
  8  9  2  0
  8 10  1  0
 10 11  1  0
 11 12  1  0
 11 13  1  0
 11 14  1  0
 14 15  1  0
 14 16  1  0
 14 17  1  0
 17 18  1  0
 18 19  1  0
 18 20  1  0
 18 21  1  0
 21 22  1  0
 21 23  1  0
 21 24  1  0
 24 25  1  0
 24 26  1  0
 24 27  1  0
 27 28  1  1
 27 29  1  0
 29 30  1  0
 29 31  1  0
 29 32  1  0
 10 33  1  0
 33 34  1  0
 33 35  1  0
 33 36  1  0
 36 37  1  0
 36 38  1  0
  6 39  1  0
 39 40  1  0
 39 41  2  0
 41 42  1  0
 41  2  1  0
 36  7  1  0
 27 17  1  0
M  END
>  <plip>  (1) 
-0.10714285714285714

>  <filename>  (1) 
[H][c]1[n][c]([H])[c]([N]2[C](=[O])[N]([C]([H])([H])[C]([H])([H])[N]3[C]([H])([H])[C]([H])([H])[C]([H])([H])[C@@]3([H])[C]([H])([H])[H])[C]([H])([H])[C]2([H])[H])[c]([H])[c]1[H]

$$$$
