
     RDKit          3D

 32 32  0  0  0  0  0  0  0  0999 V2000
    4.9241    1.7889   16.9843 H   0  0  0  0  0  0  0  0  0  0  0  0
    5.3999    1.2941   17.8289 C   0  0  0  0  0  0  0  0  0  0  0  0
    6.5610    0.6766   17.5664 N   0  0  0  0  0  0  0  0  0  0  0  0
    7.1705    0.0724   18.5987 C   0  0  0  0  0  0  0  0  0  0  0  0
    8.1148   -0.4161   18.3608 H   0  0  0  0  0  0  0  0  0  0  0  0
    6.6707    0.0293   19.9061 C   0  0  0  0  0  0  0  0  0  0  0  0
    7.4005   -0.7607   20.9794 C   0  0  1  0  0  0  0  0  0  0  0  0
    8.4266   -0.9691   20.6339 H   0  0  0  0  0  0  0  0  0  0  0  0
    7.4629   -0.0337   22.2110 O   0  0  0  0  0  0  0  0  0  0  0  0
    8.4383    0.9648   22.2120 C   0  0  0  0  0  0  0  0  0  0  0  0
    8.5413    1.4468   21.2229 H   0  0  0  0  0  0  0  0  0  0  0  0
    8.1339    1.7340   22.9460 H   0  0  0  0  0  0  0  0  0  0  0  0
    9.6987    0.3359   22.5327 N   0  0  0  0  0  0  0  0  0  0  0  0
    9.5999   -0.0811   23.4500 H   0  0  0  0  0  0  0  0  0  0  0  0
   10.8953    1.1533   22.4403 C   0  0  0  0  0  0  0  0  0  0  0  0
   10.8318    1.6868   21.4778 H   0  0  0  0  0  0  0  0  0  0  0  0
   12.1276    0.2557   22.3743 C   0  0  0  0  0  0  0  0  0  0  0  0
   12.0447   -0.4610   21.5527 H   0  0  0  0  0  0  0  0  0  0  0  0
   13.0300    0.8586   22.2242 H   0  0  0  0  0  0  0  0  0  0  0  0
   12.2530   -0.3070   23.3068 H   0  0  0  0  0  0  0  0  0  0  0  0
   11.0000    2.1695   23.5811 C   0  0  0  0  0  0  0  0  0  0  0  0
   10.1494    2.8589   23.5869 H   0  0  0  0  0  0  0  0  0  0  0  0
   11.9139    2.7632   23.4889 H   0  0  0  0  0  0  0  0  0  0  0  0
   11.0242    1.6528   24.5497 H   0  0  0  0  0  0  0  0  0  0  0  0
    6.6965   -2.0776   21.2645 C   0  0  0  0  0  0  0  0  0  0  0  0
    6.6627   -2.6735   20.3466 H   0  0  0  0  0  0  0  0  0  0  0  0
    5.6634   -1.9045   21.5868 H   0  0  0  0  0  0  0  0  0  0  0  0
    7.2240   -2.6440   22.0384 H   0  0  0  0  0  0  0  0  0  0  0  0
    5.4434    0.6621   20.1531 C   0  0  0  0  0  0  0  0  0  0  0  0
    5.0166    0.6412   21.1596 H   0  0  0  0  0  0  0  0  0  0  0  0
    4.8078    1.3138   19.0976 C   0  0  0  0  0  0  0  0  0  0  0  0
    3.8757    1.8397   19.2482 H   0  0  0  0  0  0  0  0  0  0  0  0
  1  2  1  0
  2  3  2  0
  3  4  1  0
  4  5  1  0
  4  6  2  0
  6  7  1  0
  7  8  1  6
  7  9  1  0
  9 10  1  0
 10 11  1  0
 10 12  1  0
 10 13  1  0
 13 14  1  0
 13 15  1  0
 15 16  1  0
 15 17  1  0
 17 18  1  0
 17 19  1  0
 17 20  1  0
 15 21  1  0
 21 22  1  0
 21 23  1  0
 21 24  1  0
  7 25  1  0
 25 26  1  0
 25 27  1  0
 25 28  1  0
  6 29  1  0
 29 30  1  0
 29 31  2  0
 31 32  1  0
 31  2  1  0
M  END
>  <plip>  (1) 
-0.03571428571428571

>  <filename>  (1) 
[H][c]1[n][c]([H])[c]([C@@]([H])([O][C]([H])([H])[N]([H])[C]([H])([C]([H])([H])[H])[C]([H])([H])[H])[C]([H])([H])[H])[c]([H])[c]1[H]

$$$$
