
     RDKit          3D

 43 46  0  0  0  0  0  0  0  0999 V2000
    8.0775    2.0837   21.9732 O   0  0  0  0  0  0  0  0  0  0  0  0
    8.9185    1.2173   21.7718 C   0  0  0  0  0  0  0  0  0  0  0  0
    8.6025   -0.0237   21.3450 N   0  0  0  0  0  0  0  0  0  0  0  0
    7.2255   -0.4834   21.2218 C   0  0  0  0  0  0  0  0  0  0  0  0
    7.3011   -2.0126   21.1210 C   0  0  0  0  0  0  0  0  0  0  0  0
    5.9492   -2.7266   21.0089 C   0  0  0  0  0  0  0  0  0  0  0  0
    6.0728   -4.2357   20.9915 C   0  0  0  0  0  0  0  0  0  0  0  0
    6.4938   -4.9898   22.2248 C   0  0  0  0  0  0  0  0  0  0  0  0
    5.0846   -5.1116   21.7028 C   0  0  0  0  0  0  0  0  0  0  0  0
    4.3055   -4.6349   22.2960 H   0  0  0  0  0  0  0  0  0  0  0  0
    4.7721   -6.0427   21.2358 H   0  0  0  0  0  0  0  0  0  0  0  0
    6.6232   -4.4323   23.1540 H   0  0  0  0  0  0  0  0  0  0  0  0
    7.1775   -5.8323   22.1195 H   0  0  0  0  0  0  0  0  0  0  0  0
    6.4583   -4.6472   20.0606 H   0  0  0  0  0  0  0  0  0  0  0  0
    5.3351   -2.4421   21.8758 H   0  0  0  0  0  0  0  0  0  0  0  0
    5.4258   -2.3848   20.1041 H   0  0  0  0  0  0  0  0  0  0  0  0
    7.8401   -2.3740   22.0108 H   0  0  0  0  0  0  0  0  0  0  0  0
    7.9386   -2.2323   20.2617 H   0  0  0  0  0  0  0  0  0  0  0  0
    6.5299    0.1885   20.0466 C   0  0  0  0  0  0  0  0  0  0  0  0
    5.2861    0.8329   20.1605 C   0  0  0  0  0  0  0  0  0  0  0  0
    4.7080    1.3995   19.0195 C   0  0  0  0  0  0  0  0  0  0  0  0
    5.3966    1.3044   17.8062 C   0  0  0  0  0  0  0  0  0  0  0  0
    6.5816    0.6914   17.6714 N   0  0  0  0  0  0  0  0  0  0  0  0
    7.1283    0.1652   18.7773 C   0  0  0  0  0  0  0  0  0  0  0  0
    8.0992   -0.3145   18.6380 H   0  0  0  0  0  0  0  0  0  0  0  0
    4.9816    1.7369   16.8980 H   0  0  0  0  0  0  0  0  0  0  0  0
    3.7595    1.9249   19.0594 H   0  0  0  0  0  0  0  0  0  0  0  0
    4.7912    0.9088   21.1327 H   0  0  0  0  0  0  0  0  0  0  0  0
    6.6738   -0.2063   22.1348 H   0  0  0  0  0  0  0  0  0  0  0  0
    9.3620   -0.6790   21.2189 H   0  0  0  0  0  0  0  0  0  0  0  0
   10.4022    1.4411   21.9724 C   0  0  0  0  0  0  0  0  0  0  0  0
   11.3883    0.5845   21.7789 N   0  0  0  0  0  0  0  0  0  0  0  0
   12.5652    1.2160   21.9882 N   0  0  0  0  0  0  0  0  0  0  0  0
   12.2965    2.4722   22.3111 C   0  0  0  0  0  0  0  0  0  0  0  0
   13.1372    3.6153   22.5625 C   0  0  0  0  0  0  0  0  0  0  0  0
   12.5475    4.8124   22.8656 C   0  0  0  0  0  0  0  0  0  0  0  0
   11.1066    4.9334   22.9449 C   0  0  0  0  0  0  0  0  0  0  0  0
   10.3143    3.8614   22.6773 C   0  0  0  0  0  0  0  0  0  0  0  0
   10.9212    2.6576   22.3452 N   0  0  0  0  0  0  0  0  0  0  0  0
    9.2306    3.8360   22.6459 H   0  0  0  0  0  0  0  0  0  0  0  0
   10.6437    5.8862   23.1921 H   0  0  0  0  0  0  0  0  0  0  0  0
   13.1584    5.6985   23.0332 H   0  0  0  0  0  0  0  0  0  0  0  0
   14.2110    3.4937   22.4636 H   0  0  0  0  0  0  0  0  0  0  0  0
  1  2  2  0
  2  3  1  0
  3  4  1  0
  4  5  1  0
  5  6  1  0
  6  7  1  0
  7  8  1  0
  8  9  1  0
  9 10  1  0
  9 11  1  0
  8 12  1  0
  8 13  1  0
  7 14  1  0
  6 15  1  0
  6 16  1  0
  5 17  1  0
  5 18  1  0
  4 19  1  0
 19 20  2  0
 20 21  1  0
 21 22  2  0
 22 23  1  0
 23 24  2  0
 24 25  1  0
 22 26  1  0
 21 27  1  0
 20 28  1  0
  4 29  1  0
  3 30  1  0
  2 31  1  0
 31 32  2  0
 32 33  1  0
 33 34  2  0
 34 35  1  0
 35 36  2  0
 36 37  1  0
 37 38  2  0
 38 39  1  0
 38 40  1  0
 37 41  1  0
 36 42  1  0
 35 43  1  0
  9  7  1  0
 24 19  1  0
 39 31  1  0
 39 34  1  0
M  END
>  <plip>  (1) 
-0.03333333333333333

>  <filename>  (1) 
[H][c]1[n][c]([H])[c]([C]([H])([N]([H])[C](=[O])[c]2[n][n][c]3[c]([H])[c]([H])[c]([H])[c]([H])[n]23)[C]([H])([H])[C]([H])([H])[C]2([H])[C]([H])([H])[C]2([H])[H])[c]([H])[c]1[H]

$$$$
