
     RDKit          3D

 31 32  0  0  0  0  0  0  0  0999 V2000
    4.8370    1.2468   19.1107 C   0  0  0  0  0  0  0  0  0  0  0  0
    5.5455    1.2717   17.9073 C   0  0  0  0  0  0  0  0  0  0  0  0
    6.6870    0.5956   17.7172 N   0  0  0  0  0  0  0  0  0  0  0  0
    7.1656   -0.1162   18.7486 C   0  0  0  0  0  0  0  0  0  0  0  0
    6.5697   -0.1616   20.0170 C   0  0  0  0  0  0  0  0  0  0  0  0
    7.3589   -0.6527   21.2146 C   0  0  0  0  0  0  0  0  0  0  0  0
    8.0501    0.5122   21.7883 N   0  0  0  0  0  4  0  0  0  0  0  0
    9.1177    1.1009   20.9497 C   0  0  0  0  0  0  0  0  0  0  0  0
    9.8761    2.0975   21.8233 C   0  0  0  0  0  0  0  0  0  0  0  0
   10.5081    1.4341   23.0214 C   0  0  0  0  0  0  0  0  0  0  0  0
   11.8778    1.4419   23.2586 C   0  0  0  0  0  0  0  0  0  0  0  0
   12.3138    0.8354   24.4294 C   0  0  0  0  0  0  0  0  0  0  0  0
   11.4715    0.3067   25.3212 N   0  0  0  0  0  0  0  0  0  0  0  0
   10.1829    0.3373   25.0119 C   0  0  0  0  0  0  0  0  0  0  0  0
    9.6661    0.8103   23.8710 N   0  0  0  0  0  0  0  0  0  0  0  0
    9.4959   -0.0883   25.7431 H   0  0  0  0  0  0  0  0  0  0  0  0
   13.3780    0.7509   24.6811 H   0  0  0  0  0  0  0  0  0  0  0  0
   12.5596    1.8964   22.5479 H   0  0  0  0  0  0  0  0  0  0  0  0
    9.1985    2.8843   22.1906 H   0  0  0  0  0  0  0  0  0  0  0  0
   10.6385    2.5946   21.2197 H   0  0  0  0  0  0  0  0  0  0  0  0
    9.7935    0.3145   20.5786 H   0  0  0  0  0  0  0  0  0  0  0  0
    8.6947    1.5920   20.0647 H   0  0  0  0  0  0  0  0  0  0  0  0
    8.4630    0.3539   22.7522 H   0  0  0  0  0  0  0  0  0  0  0  0
    7.3043    1.2470   21.8994 H   0  0  0  0  0  0  0  0  0  0  0  0
    6.6943   -1.0904   21.9652 H   0  0  0  0  0  0  0  0  0  0  0  0
    8.0749   -1.4351   20.9259 H   0  0  0  0  0  0  0  0  0  0  0  0
    5.3500    0.5064   20.1817 C   0  0  0  0  0  0  0  0  0  0  0  0
    4.8241    0.4852   21.1386 H   0  0  0  0  0  0  0  0  0  0  0  0
    8.1012   -0.6498   18.5612 H   0  0  0  0  0  0  0  0  0  0  0  0
    5.1807    1.8594   17.0628 H   0  0  0  0  0  0  0  0  0  0  0  0
    3.9334    1.8356   19.2148 H   0  0  0  0  0  0  0  0  0  0  0  0
  1  2  2  0
  2  3  1  0
  3  4  2  0
  4  5  1  0
  5  6  1  0
  6  7  1  0
  7  8  1  0
  8  9  1  0
  9 10  1  0
 10 11  2  0
 11 12  1  0
 12 13  2  0
 13 14  1  0
 14 15  2  0
 14 16  1  0
 12 17  1  0
 11 18  1  0
  9 19  1  0
  9 20  1  0
  8 21  1  0
  8 22  1  0
  7 23  1  0
  7 24  1  0
  6 25  1  0
  6 26  1  0
  5 27  2  0
 27 28  1  0
  4 29  1  0
  2 30  1  0
  1 31  1  0
 27  1  1  0
 15 10  1  0
M  CHG  1   7   1
M  END
>  <plip>  (1) 
-0.0

>  <filename>  (1) 
[H][c]1[n][c]([H])[c]([H])[c]([C]([H])([H])[C]([H])([H])[N+]([H])([H])[C]([H])([H])[c]2[c]([H])[n][c]([H])[c]([H])[c]2[H])[n]1

$$$$
