
     RDKit          3D

 47 49  0  0  0  0  0  0  0  0999 V2000
   10.7599   -4.5912   24.8271 C   0  0  0  0  0  0  0  0  0  0  0  0
    9.3048   -4.7009   24.4182 C   0  0  0  0  0  0  0  0  0  0  0  0
    8.4190   -3.5944   24.4755 C   0  0  0  0  0  0  0  0  0  0  0  0
    8.8859   -2.2506   25.0046 C   0  0  0  0  0  0  0  0  0  0  0  0
    8.5953   -1.4252   24.3464 H   0  0  0  0  0  0  0  0  0  0  0  0
    8.4328   -2.0322   25.9793 H   0  0  0  0  0  0  0  0  0  0  0  0
    9.9673   -2.1902   25.1311 H   0  0  0  0  0  0  0  0  0  0  0  0
    7.0733   -3.7441   24.0675 C   0  0  0  0  0  0  0  0  0  0  0  0
    6.1035   -2.5683   24.0109 C   0  0  0  0  0  0  0  0  0  0  0  0
    6.2111   -1.8984   22.7064 N   0  0  0  0  0  0  0  0  0  0  0  0
    5.6190   -2.6236   21.5846 C   0  0  0  0  0  0  0  0  0  0  0  0
    6.0953   -3.6023   21.4378 H   0  0  0  0  0  0  0  0  0  0  0  0
    5.6868   -2.0563   20.6527 H   0  0  0  0  0  0  0  0  0  0  0  0
    4.5569   -2.8320   21.7751 H   0  0  0  0  0  0  0  0  0  0  0  0
    6.7746   -0.6348   22.6234 C   0  0  0  0  0  0  0  0  0  0  0  0
    6.7150    0.1605   23.5514 O   0  0  0  0  0  0  0  0  0  0  0  0
    7.5563   -0.3026   21.3147 C   0  0  0  0  0  0  0  0  0  0  0  0
    6.7339    0.3604   20.2100 C   0  0  0  0  0  0  0  0  0  0  0  0
    5.4952    0.9693   20.4424 C   0  0  0  0  0  0  0  0  0  0  0  0
    4.7896    1.5048   19.3579 C   0  0  0  0  0  0  0  0  0  0  0  0
    5.3522    1.4357   18.0806 C   0  0  0  0  0  0  0  0  0  0  0  0
    6.5634    0.9149   17.8355 N   0  0  0  0  0  0  0  0  0  0  0  0
    7.2349    0.4274   18.8834 C   0  0  0  0  0  0  0  0  0  0  0  0
    8.2352    0.0583   18.6541 H   0  0  0  0  0  0  0  0  0  0  0  0
    4.8207    1.8101   17.2095 H   0  0  0  0  0  0  0  0  0  0  0  0
    3.8312    1.9926   19.4900 H   0  0  0  0  0  0  0  0  0  0  0  0
    5.1103    1.0371   21.4624 H   0  0  0  0  0  0  0  0  0  0  0  0
    8.3864   -1.5305   20.8302 C   0  0  0  0  0  0  0  0  0  0  0  0
    9.6831   -0.7189   20.8932 C   0  0  0  0  0  0  0  0  0  0  0  0
    8.9183    0.4493   21.5622 C   0  0  0  0  0  0  0  0  0  0  0  0
    8.9997    1.4297   21.0789 H   0  0  0  0  0  0  0  0  0  0  0  0
    9.1524    0.5776   22.6214 H   0  0  0  0  0  0  0  0  0  0  0  0
   10.0383   -0.4749   19.8931 H   0  0  0  0  0  0  0  0  0  0  0  0
   10.5098   -1.1701   21.4522 H   0  0  0  0  0  0  0  0  0  0  0  0
    8.3690   -2.3663   21.5299 H   0  0  0  0  0  0  0  0  0  0  0  0
    8.0689   -1.8609   19.8464 H   0  0  0  0  0  0  0  0  0  0  0  0
    6.2550   -1.8280   24.8068 H   0  0  0  0  0  0  0  0  0  0  0  0
    5.0809   -2.9555   24.1310 H   0  0  0  0  0  0  0  0  0  0  0  0
    6.6265   -4.9930   23.6084 C   0  0  0  0  0  0  0  0  0  0  0  0
    7.5072   -6.0653   23.5074 C   0  0  0  0  0  0  0  0  0  0  0  0
    8.8265   -5.9305   23.9443 C   0  0  0  0  0  0  0  0  0  0  0  0
    9.4758   -6.8037   23.9830 H   0  0  0  0  0  0  0  0  0  0  0  0
    7.1624   -6.9979   23.0778 H   0  0  0  0  0  0  0  0  0  0  0  0
    5.5775   -5.1190   23.3319 H   0  0  0  0  0  0  0  0  0  0  0  0
   11.2465   -5.5694   24.8196 H   0  0  0  0  0  0  0  0  0  0  0  0
   10.8760   -4.1819   25.8347 H   0  0  0  0  0  0  0  0  0  0  0  0
   11.3255   -3.9455   24.1440 H   0  0  0  0  0  0  0  0  0  0  0  0
  1  2  1  0
  2  3  2  0
  3  4  1  0
  4  5  1  0
  4  6  1  0
  4  7  1  0
  3  8  1  0
  8  9  1  0
  9 10  1  0
 10 11  1  0
 11 12  1  0
 11 13  1  0
 11 14  1  0
 10 15  1  0
 15 16  2  0
 15 17  1  0
 17 18  1  0
 18 19  2  0
 19 20  1  0
 20 21  2  0
 21 22  1  0
 22 23  2  0
 23 24  1  0
 21 25  1  0
 20 26  1  0
 19 27  1  0
 17 28  1  0
 28 29  1  0
 29 30  1  0
 30 31  1  0
 30 32  1  0
 29 33  1  0
 29 34  1  0
 28 35  1  0
 28 36  1  0
  9 37  1  0
  9 38  1  0
  8 39  2  0
 39 40  1  0
 40 41  2  0
 41 42  1  0
 40 43  1  0
 39 44  1  0
  1 45  1  0
  1 46  1  0
  1 47  1  0
 41  2  1  0
 30 17  1  0
 23 18  1  0
M  END
>  <plip>  (1) 
-0.10714285714285714

>  <filename>  (1) 
[H][c]1[n][c]([H])[c]([C]2([C](=[O])[N]([C]([H])([H])[H])[C]([H])([H])[c]3[c]([H])[c]([H])[c]([H])[c]([C]([H])([H])[H])[c]3[C]([H])([H])[H])[C]([H])([H])[C]([H])([H])[C]2([H])[H])[c]([H])[c]1[H]

$$$$
