
     RDKit          3D

 37 39  0  0  0  0  0  0  0  0999 V2000
    6.7625    4.7492   21.2546 H   0  0  0  0  0  0  0  0  0  0  0  0
    6.9239    4.4830   22.1714 O   0  0  0  0  0  0  0  0  0  0  0  0
    8.1962    3.8394   22.2424 C   0  0  2  0  0  0  0  0  0  0  0  0
    8.9581    4.4627   21.7664 H   0  0  0  0  0  0  0  0  0  0  0  0
    8.1735    2.4231   21.6065 C   0  0  0  0  0  0  0  0  0  0  0  0
    7.9420    2.4649   20.5342 H   0  0  0  0  0  0  0  0  0  0  0  0
    7.3288    1.8830   22.0785 H   0  0  0  0  0  0  0  0  0  0  0  0
    9.4594    1.7213   21.7778 N   0  0  0  0  0  0  0  0  0  0  0  0
    9.5716    0.5209   20.9891 C   0  0  0  0  0  0  0  0  0  0  0  0
    9.3759    0.7866   19.9490 H   0  0  0  0  0  0  0  0  0  0  0  0
   10.5875    0.1155   21.0630 H   0  0  0  0  0  0  0  0  0  0  0  0
    8.6626   -0.5513   21.3463 N   0  0  0  0  0  0  0  0  0  0  0  0
    8.8638   -1.4166   22.3861 C   0  0  0  0  0  0  0  0  0  0  0  0
    9.8027   -1.4663   22.9267 H   0  0  0  0  0  0  0  0  0  0  0  0
    7.8031   -2.1440   22.6462 N   0  0  0  0  0  0  0  0  0  0  0  0
    6.8492   -1.7096   21.7678 C   0  0  0  0  0  0  0  0  0  0  0  0
    5.8592   -2.1466   21.7232 H   0  0  0  0  0  0  0  0  0  0  0  0
    7.3402   -0.7195   20.9531 C   0  0  0  0  0  0  0  0  0  0  0  0
    6.6715    0.0387   19.8795 C   0  0  0  0  0  0  0  0  0  0  0  0
    7.1659    0.0963   18.5579 C   0  0  0  0  0  0  0  0  0  0  0  0
    8.0980   -0.4085   18.3105 H   0  0  0  0  0  0  0  0  0  0  0  0
    6.5441    0.7039   17.5355 N   0  0  0  0  0  0  0  0  0  0  0  0
    5.3823    1.3209   17.8017 C   0  0  0  0  0  0  0  0  0  0  0  0
    4.9052    1.8216   16.9583 H   0  0  0  0  0  0  0  0  0  0  0  0
    4.7950    1.3341   19.0721 C   0  0  0  0  0  0  0  0  0  0  0  0
    3.8551    1.8529   19.2210 H   0  0  0  0  0  0  0  0  0  0  0  0
    5.4461    0.6773   20.1225 C   0  0  0  0  0  0  0  0  0  0  0  0
    5.0162    0.6526   21.1244 H   0  0  0  0  0  0  0  0  0  0  0  0
    9.8232    1.5800   23.1876 C   0  0  0  0  0  0  0  0  0  0  0  0
    9.0761    0.9683   23.7300 H   0  0  0  0  0  0  0  0  0  0  0  0
   10.7931    1.0647   23.2618 H   0  0  0  0  0  0  0  0  0  0  0  0
    9.9149    2.9554   23.8657 C   0  0  0  0  0  0  0  0  0  0  0  0
   10.7484    3.5193   23.4196 H   0  0  0  0  0  0  0  0  0  0  0  0
   10.1598    2.8011   24.9222 H   0  0  0  0  0  0  0  0  0  0  0  0
    8.5962    3.7445   23.7191 C   0  0  0  0  0  0  0  0  0  0  0  0
    8.6929    4.7602   24.1229 H   0  0  0  0  0  0  0  0  0  0  0  0
    7.7778    3.2650   24.2772 H   0  0  0  0  0  0  0  0  0  0  0  0
  1  2  1  0
  2  3  1  0
  3  4  1  6
  3  5  1  0
  5  6  1  0
  5  7  1  0
  5  8  1  0
  8  9  1  0
  9 10  1  0
  9 11  1  0
  9 12  1  0
 12 13  1  0
 13 14  1  0
 13 15  2  0
 15 16  1  0
 16 17  1  0
 16 18  2  0
 18 19  1  0
 19 20  2  0
 20 21  1  0
 20 22  1  0
 22 23  2  0
 23 24  1  0
 23 25  1  0
 25 26  1  0
 25 27  2  0
 27 28  1  0
  8 29  1  0
 29 30  1  0
 29 31  1  0
 29 32  1  0
 32 33  1  0
 32 34  1  0
 32 35  1  0
 35 36  1  0
 35 37  1  0
 35  3  1  0
 18 12  1  0
 27 19  1  0
M  END
>  <plip>  (1) 
-0.17857142857142858

>  <filename>  (1) 
[H][O][C@]1([H])[C]([H])([H])[N]([C]([H])([H])[n]2[c]([H])[n][c]([H])[c]2-[c]2[c]([H])[n][c]([H])[c]([H])[c]2[H])[C]([H])([H])[C]([H])([H])[C]1([H])[H]

$$$$
