
     RDKit          3D

 25 27  0  0  0  0  0  0  0  0999 V2000
    4.9304    1.7778   16.9937 H   0  0  0  0  0  0  0  0  0  0  0  0
    5.4082    1.2883   17.8401 C   0  0  0  0  0  0  0  0  0  0  0  0
    6.5712    0.6663   17.5926 N   0  0  0  0  0  0  0  0  0  0  0  0
    7.1636    0.0591   18.6240 C   0  0  0  0  0  0  0  0  0  0  0  0
    8.1069   -0.4196   18.3787 H   0  0  0  0  0  0  0  0  0  0  0  0
    6.6440    0.0103   19.9291 C   0  0  0  0  0  0  0  0  0  0  0  0
    7.3649   -0.7011   20.9982 C   0  0  0  0  0  0  0  0  0  0  0  0
    6.8816   -0.7737   22.2277 N   0  0  0  0  0  0  0  0  0  0  0  0
    7.7801   -1.4890   22.9473 N   0  0  0  0  0  0  0  0  0  0  0  0
    7.5302   -1.7292   24.3061 C   0  0  0  0  0  0  0  0  0  0  0  0
    8.4364   -2.4460   25.0143 O   0  0  0  0  0  0  0  0  0  0  0  0
    7.9686   -2.5387   26.2914 C   0  0  0  0  0  0  0  0  0  0  0  0
    8.5785   -3.0874   27.0014 H   0  0  0  0  0  0  0  0  0  0  0  0
    6.7789   -1.8926   26.4021 C   0  0  0  0  0  0  0  0  0  0  0  0
    6.1770   -1.8029   27.3002 H   0  0  0  0  0  0  0  0  0  0  0  0
    6.4899   -1.3624   25.1063 C   0  0  0  0  0  0  0  0  0  0  0  0
    5.6413   -0.7849   24.7645 H   0  0  0  0  0  0  0  0  0  0  0  0
    8.8450   -1.8767   22.1679 C   0  0  0  0  0  0  0  0  0  0  0  0
    9.6700   -2.4573   22.5739 H   0  0  0  0  0  0  0  0  0  0  0  0
    8.6077   -1.3871   20.9147 C   0  0  0  0  0  0  0  0  0  0  0  0
    9.2284   -1.4852   20.0360 H   0  0  0  0  0  0  0  0  0  0  0  0
    5.4199    0.6607   20.1683 C   0  0  0  0  0  0  0  0  0  0  0  0
    4.9923    0.6398   21.1742 H   0  0  0  0  0  0  0  0  0  0  0  0
    4.8018    1.3118   19.1029 C   0  0  0  0  0  0  0  0  0  0  0  0
    3.8701    1.8460   19.2514 H   0  0  0  0  0  0  0  0  0  0  0  0
  1  2  1  0
  2  3  2  0
  3  4  1  0
  4  5  1  0
  4  6  2  0
  6  7  1  0
  7  8  2  0
  8  9  1  0
  9 10  1  0
 10 11  1  0
 11 12  1  0
 12 13  1  0
 12 14  2  0
 14 15  1  0
 14 16  1  0
 16 17  1  0
  9 18  1  0
 18 19  1  0
 18 20  2  0
 20 21  1  0
  6 22  1  0
 22 23  1  0
 22 24  2  0
 24 25  1  0
 24  2  1  0
 20  7  1  0
 16 10  2  0
M  END
>  <plip>  (1) 
-0.03571428571428571

>  <filename>  (1) 
[H][c]1[n][c]([H])[c](-[c]2[n][n](-[c]3[o][c]([H])[c]([H])[c]3[H])[c]([H])[c]2[H])[c]([H])[c]1[H]

$$$$
