
     RDKit          3D

 38 39  0  0  0  0  0  0  0  0999 V2000
   10.0239    1.2338   21.0129 C   0  0  0  0  0  0  0  0  0  0  0  0
    8.7063    1.5056   21.7199 C   0  0  0  0  0  0  0  0  0  0  0  0
    8.0696    0.3071   22.2795 N   0  0  0  0  0  0  0  0  0  0  0  0
    8.8444   -0.3407   23.3755 C   0  0  0  0  0  0  0  0  0  0  0  0
    7.9710   -1.0256   24.4076 C   0  0  0  0  0  0  0  0  0  0  0  0
    7.0533   -0.2510   25.1325 C   0  0  0  0  0  0  0  0  0  0  0  0
    6.2000   -0.8286   26.0764 C   0  0  0  0  0  0  0  0  0  0  0  0
    6.2696   -2.2027   26.3157 C   0  0  0  0  0  0  0  0  0  0  0  0
    7.2011   -2.9792   25.6180 C   0  0  0  0  0  0  0  0  0  0  0  0
    8.0671   -2.4111   24.6708 C   0  0  0  0  0  0  0  0  0  0  0  0
    9.0658   -3.2880   23.9438 C   0  0  0  0  0  0  0  0  0  0  0  0
    8.9053   -3.2505   22.8590 H   0  0  0  0  0  0  0  0  0  0  0  0
   10.0989   -2.9740   24.1355 H   0  0  0  0  0  0  0  0  0  0  0  0
    8.9772   -4.3305   24.2639 H   0  0  0  0  0  0  0  0  0  0  0  0
    7.2631   -4.0511   25.7984 H   0  0  0  0  0  0  0  0  0  0  0  0
    5.6036   -2.6704   27.0378 H   0  0  0  0  0  0  0  0  0  0  0  0
    5.4808   -0.2100   26.6066 H   0  0  0  0  0  0  0  0  0  0  0  0
    7.0019    0.8167   24.9284 H   0  0  0  0  0  0  0  0  0  0  0  0
    9.6250   -1.0093   22.9826 H   0  0  0  0  0  0  0  0  0  0  0  0
    9.3821    0.4634   23.8989 H   0  0  0  0  0  0  0  0  0  0  0  0
    7.5220   -0.8423   21.1708 S   0  0  0  0  0  0  0  0  0  0  0  0
    6.5244   -1.6510   21.8393 O   0  0  0  0  0  0  0  0  0  0  0  0
    8.6847   -1.4612   20.5586 O   0  0  0  0  0  0  0  0  0  0  0  0
    6.6811    0.0632   19.9514 C   0  0  0  0  0  0  0  0  0  0  0  0
    5.4466    0.6679   20.2102 C   0  0  0  0  0  0  0  0  0  0  0  0
    4.8264    1.2992   19.1389 C   0  0  0  0  0  0  0  0  0  0  0  0
    5.4316    1.2674   17.8805 C   0  0  0  0  0  0  0  0  0  0  0  0
    6.5961    0.6469   17.6476 N   0  0  0  0  0  0  0  0  0  0  0  0
    7.2133    0.0519   18.6692 C   0  0  0  0  0  0  0  0  0  0  0  0
    8.1431   -0.4568   18.4126 H   0  0  0  0  0  0  0  0  0  0  0  0
    4.9634    1.7521   17.0254 H   0  0  0  0  0  0  0  0  0  0  0  0
    3.8912    1.8254   19.2616 H   0  0  0  0  0  0  0  0  0  0  0  0
    4.9760    0.6380   21.1952 H   0  0  0  0  0  0  0  0  0  0  0  0
    8.8650    2.1864   22.5665 H   0  0  0  0  0  0  0  0  0  0  0  0
    7.9936    2.0219   21.0642 H   0  0  0  0  0  0  0  0  0  0  0  0
   10.4939    2.1677   20.6884 H   0  0  0  0  0  0  0  0  0  0  0  0
   10.7298    0.7133   21.6706 H   0  0  0  0  0  0  0  0  0  0  0  0
    9.8184    0.5821   20.1638 H   0  0  0  0  0  0  0  0  0  0  0  0
  1  2  1  0
  2  3  1  0
  3  4  1  0
  4  5  1  0
  5  6  2  0
  6  7  1  0
  7  8  2  0
  8  9  1  0
  9 10  2  0
 10 11  1  0
 11 12  1  0
 11 13  1  0
 11 14  1  0
  9 15  1  0
  8 16  1  0
  7 17  1  0
  6 18  1  0
  4 19  1  0
  4 20  1  0
  3 21  1  0
 21 22  2  0
 21 23  2  0
 21 24  1  0
 24 25  2  0
 25 26  1  0
 26 27  2  0
 27 28  1  0
 28 29  2  0
 29 30  1  0
 27 31  1  0
 26 32  1  0
 25 33  1  0
  2 34  1  0
  2 35  1  0
  1 36  1  0
  1 37  1  0
  1 38  1  0
 10  5  1  0
 29 24  1  0
M  END
>  <plip>  (1) 
-0.06896551724137931

>  <filename>  (1) 
[H][c]1[n][c]([H])[c]([S](=[O])(=[O])[N]([C]([H])([H])[c]2[c]([H])[c]([H])[c]([H])[c]([H])[c]2[C]([H])([H])[H])[C]([H])([H])[C]([H])([H])[H])[c]([H])[c]1[H]

$$$$
