
     RDKit          3D

 30 32  0  0  0  0  0  0  0  0999 V2000
    4.9301    1.7941   16.9887 H   0  0  0  0  0  0  0  0  0  0  0  0
    5.3960    1.2922   17.8362 C   0  0  0  0  0  0  0  0  0  0  0  0
    6.5598    0.6703   17.5956 N   0  0  0  0  0  0  0  0  0  0  0  0
    7.1761    0.0657   18.6158 C   0  0  0  0  0  0  0  0  0  0  0  0
    8.1268   -0.4053   18.3667 H   0  0  0  0  0  0  0  0  0  0  0  0
    6.6705    0.0444   19.9344 C   0  0  0  0  0  0  0  0  0  0  0  0
    7.3800   -0.5910   21.0047 N   0  0  0  0  0  0  0  0  0  0  0  0
    7.9222   -1.8399   20.9172 C   0  0  0  0  0  0  0  0  0  0  0  0
    7.7754   -2.3426   19.9940 H   0  0  0  0  0  0  0  0  0  0  0  0
    8.4798   -2.2716   22.0150 N   0  0  0  0  0  0  0  0  0  0  0  0
    8.2718   -1.2540   22.9205 C   0  0  0  0  0  0  0  0  0  0  0  0
    8.6229   -1.3053   23.9521 H   0  0  0  0  0  0  0  0  0  0  0  0
    7.5774   -0.2218   22.3250 C   0  0  0  0  0  0  0  0  0  0  0  0
    7.1150    0.9816   22.7982 N   0  0  0  0  0  0  0  0  0  0  0  0
    7.1523    1.7606   22.1578 H   0  0  0  0  0  0  0  0  0  0  0  0
    6.9296    1.2474   24.1555 C   0  0  0  0  0  0  0  0  0  0  0  0
    6.4080    0.2540   24.9962 C   0  0  0  0  0  0  0  0  0  0  0  0
    6.1904   -0.7118   24.5470 H   0  0  0  0  0  0  0  0  0  0  0  0
    6.2029    0.5261   26.3490 C   0  0  0  0  0  0  0  0  0  0  0  0
    5.8033   -0.2540   26.9960 H   0  0  0  0  0  0  0  0  0  0  0  0
    6.5173    1.7923   26.8583 C   0  0  0  0  0  0  0  0  0  0  0  0
    6.3534    2.0031   27.9090 H   0  0  0  0  0  0  0  0  0  0  0  0
    7.0345    2.7845   26.0140 C   0  0  0  0  0  0  0  0  0  0  0  0
    7.2750    3.7722   26.4018 H   0  0  0  0  0  0  0  0  0  0  0  0
    7.2368    2.5116   24.6577 C   0  0  0  0  0  0  0  0  0  0  0  0
    7.6466    3.2500   23.9746 H   0  0  0  0  0  0  0  0  0  0  0  0
    5.4353    0.6600   20.1633 C   0  0  0  0  0  0  0  0  0  0  0  0
    5.0023    0.6314   21.1604 H   0  0  0  0  0  0  0  0  0  0  0  0
    4.7993    1.3049   19.0993 C   0  0  0  0  0  0  0  0  0  0  0  0
    3.8691    1.8390   19.2462 H   0  0  0  0  0  0  0  0  0  0  0  0
  1  2  1  0
  2  3  2  0
  3  4  1  0
  4  5  1  0
  4  6  2  0
  6  7  1  0
  7  8  1  0
  8  9  1  0
  8 10  2  0
 10 11  1  0
 11 12  1  0
 11 13  2  0
 13 14  1  0
 14 15  1  0
 14 16  1  0
 16 17  2  0
 17 18  1  0
 17 19  1  0
 19 20  1  0
 19 21  2  0
 21 22  1  0
 21 23  1  0
 23 24  1  0
 23 25  2  0
 25 26  1  0
  6 27  1  0
 27 28  1  0
 27 29  2  0
 29 30  1  0
 29  2  1  0
 13  7  1  0
 25 16  1  0
M  END
>  <plip>  (1) 
-0.0

>  <filename>  (1) 
[H][c]1[n][c]([H])[c](-[n]2[c]([H])[n][c]([H])[c]2[N]([H])[c]2[c]([H])[c]([H])[c]([H])[c]([H])[c]2[H])[c]([H])[c]1[H]

$$$$
