
     RDKit          3D

 31 33  0  0  0  0  0  0  0  0999 V2000
    4.8807    1.8689   16.9921 H   0  0  0  0  0  0  0  0  0  0  0  0
    5.4035    1.3372   17.7854 C   0  0  0  0  0  0  0  0  0  0  0  0
    6.5552    0.7403   17.4400 N   0  0  0  0  0  0  0  0  0  0  0  0
    7.2310    0.0891   18.3939 C   0  0  0  0  0  0  0  0  0  0  0  0
    8.1752   -0.3614   18.1001 H   0  0  0  0  0  0  0  0  0  0  0  0
    6.7790   -0.0301   19.7293 C   0  0  0  0  0  0  0  0  0  0  0  0
    7.4958   -0.7836   20.7367 N   0  0  0  0  0  0  0  0  0  0  0  0
    8.8153   -0.5663   21.1132 C   0  0  0  0  0  0  0  0  0  0  0  0
    9.5721    0.2218   20.6149 O   0  0  0  0  0  0  0  0  0  0  0  0
    9.0764   -1.5390   22.2698 C   0  0  0  0  0  0  0  0  0  0  0  0
   10.0884   -1.7044   22.8871 O   0  0  0  0  0  0  0  0  0  0  0  0
    7.8634   -2.2189   22.4545 N   0  0  0  0  0  0  0  0  0  0  0  0
    7.6346   -3.2105   23.3683 C   0  0  0  0  0  0  0  0  0  0  0  0
    7.3602   -4.0287   24.2125 C   0  0  0  0  0  0  0  0  0  0  0  0
    7.0172   -4.9288   25.2893 C   0  0  0  0  0  0  0  0  0  0  0  0
    8.0136   -5.3776   26.1782 C   0  0  0  0  0  0  0  0  0  0  0  0
    9.0412   -5.0529   26.0417 H   0  0  0  0  0  0  0  0  0  0  0  0
    7.6762   -6.2057   27.2496 C   0  0  0  0  0  0  0  0  0  0  0  0
    8.4471   -6.5248   27.9440 H   0  0  0  0  0  0  0  0  0  0  0  0
    6.3538   -6.6226   27.4347 C   0  0  0  0  0  0  0  0  0  0  0  0
    6.1151   -7.3074   28.2439 H   0  0  0  0  0  0  0  0  0  0  0  0
    5.3537   -6.1781   26.5655 C   0  0  0  0  0  0  0  0  0  0  0  0
    4.3235   -6.4911   26.7224 H   0  0  0  0  0  0  0  0  0  0  0  0
    5.6838   -5.3401   25.4953 C   0  0  0  0  0  0  0  0  0  0  0  0
    4.9128   -4.9818   24.8221 H   0  0  0  0  0  0  0  0  0  0  0  0
    6.9199   -1.7950   21.5055 C   0  0  0  0  0  0  0  0  0  0  0  0
    5.8260   -2.2529   21.3538 O   0  0  0  0  0  0  0  0  0  0  0  0
    5.5753    0.5921   20.0717 C   0  0  0  0  0  0  0  0  0  0  0  0
    5.2004    0.5130   21.0909 H   0  0  0  0  0  0  0  0  0  0  0  0
    4.8797    1.2951   19.0807 C   0  0  0  0  0  0  0  0  0  0  0  0
    3.9493    1.8071   19.2982 H   0  0  0  0  0  0  0  0  0  0  0  0
  1  2  1  0
  2  3  2  0
  3  4  1  0
  4  5  1  0
  4  6  2  0
  6  7  1  0
  7  8  1  0
  8  9  2  0
  8 10  1  0
 10 11  2  0
 10 12  1  0
 12 13  1  0
 13 14  3  0
 14 15  1  0
 15 16  2  0
 16 17  1  0
 16 18  1  0
 18 19  1  0
 18 20  2  0
 20 21  1  0
 20 22  1  0
 22 23  1  0
 22 24  2  0
 24 25  1  0
 12 26  1  0
 26 27  2  0
  6 28  1  0
 28 29  1  0
 28 30  2  0
 30 31  1  0
 30  2  1  0
 26  7  1  0
 24 15  1  0
M  END
>  <plip>  (1) 
-0.14285714285714285

>  <filename>  (1) 
[H][c]1[n][c]([H])[c]([N]2[C](=[O])[C](=[O])[N]([C]#[C][c]3[c]([H])[c]([H])[c]([H])[c]([H])[c]3[H])[C]2=[O])[c]([H])[c]1[H]

$$$$
