
     RDKit          3D

 33 35  0  0  0  0  0  0  0  0999 V2000
    4.9326    1.8068   17.0161 H   0  0  0  0  0  0  0  0  0  0  0  0
    5.4224    1.2943   17.8434 C   0  0  0  0  0  0  0  0  0  0  0  0
    6.5879    0.6910   17.5656 N   0  0  0  0  0  0  0  0  0  0  0  0
    7.2183    0.0608   18.5639 C   0  0  0  0  0  0  0  0  0  0  0  0
    8.1598   -0.4255   18.3187 H   0  0  0  0  0  0  0  0  0  0  0  0
    6.7135   -0.0434   19.8788 C   0  0  0  0  0  0  0  0  0  0  0  0
    7.4144   -0.7670   20.8720 N   0  0  0  0  0  0  0  0  0  0  0  0
    6.8198   -1.6455   21.7747 C   0  0  0  0  0  0  0  0  0  0  0  0
    5.7412   -2.1754   21.7344 O   0  0  0  0  0  0  0  0  0  0  0  0
    7.7665   -1.9134   22.7358 N   0  0  0  0  0  0  0  0  0  0  0  0
    7.5852   -2.6171   23.4237 H   0  0  0  0  0  0  0  0  0  0  0  0
    9.0244   -1.5980   22.3200 C   0  0  0  0  0  0  0  0  0  0  0  0
   10.0401   -1.9454   22.8649 O   0  0  0  0  0  0  0  0  0  0  0  0
    8.8681   -0.7163   21.0837 C   0  0  2  0  0  0  0  0  0  0  0  0
    9.4072   -1.2021   20.2609 H   0  0  0  0  0  0  0  0  0  0  0  0
    9.4681    0.6928   21.2809 C   0  0  0  0  0  0  0  0  0  0  0  0
    9.4013    1.2170   20.3278 H   0  0  0  0  0  0  0  0  0  0  0  0
   10.5393    0.5726   21.4794 H   0  0  0  0  0  0  0  0  0  0  0  0
    8.8114    1.5004   22.3790 C   0  0  0  0  0  0  0  0  0  0  0  0
    7.8029    2.4238   22.0646 C   0  0  0  0  0  0  0  0  0  0  0  0
    7.5198    2.5665   21.0255 H   0  0  0  0  0  0  0  0  0  0  0  0
    7.1494    3.1412   23.0730 C   0  0  0  0  0  0  0  0  0  0  0  0
    6.3708    3.8531   22.8097 H   0  0  0  0  0  0  0  0  0  0  0  0
    7.5009    2.9512   24.4119 C   0  0  0  0  0  0  0  0  0  0  0  0
    7.0208    3.4873   25.2255 H   0  0  0  0  0  0  0  0  0  0  0  0
    8.5017    2.0317   24.7107 C   0  0  0  0  0  0  0  0  0  0  0  0
    8.8402    1.8465   25.9974 F   0  0  0  0  0  0  0  0  0  0  0  0
    9.1573    1.2978   23.7243 C   0  0  0  0  0  0  0  0  0  0  0  0
    9.9101    0.5717   24.0227 H   0  0  0  0  0  0  0  0  0  0  0  0
    5.4950    0.6000   20.1570 C   0  0  0  0  0  0  0  0  0  0  0  0
    5.0738    0.5559   21.1641 H   0  0  0  0  0  0  0  0  0  0  0  0
    4.8435    1.2830   19.1201 C   0  0  0  0  0  0  0  0  0  0  0  0
    3.9028    1.8043   19.2820 H   0  0  0  0  0  0  0  0  0  0  0  0
  1  2  1  0
  2  3  2  0
  3  4  1  0
  4  5  1  0
  4  6  2  0
  6  7  1  0
  7  8  1  0
  8  9  2  0
  8 10  1  0
 10 11  1  0
 10 12  1  0
 12 13  2  0
 12 14  1  0
 14 15  1  6
 14 16  1  0
 16 17  1  0
 16 18  1  0
 16 19  1  0
 19 20  2  0
 20 21  1  0
 20 22  1  0
 22 23  1  0
 22 24  2  0
 24 25  1  0
 24 26  1  0
 26 27  1  0
 26 28  2  0
 28 29  1  0
  6 30  1  0
 30 31  1  0
 30 32  2  0
 32 33  1  0
 32  2  1  0
 14  7  1  0
 28 19  1  0
M  END
>  <plip>  (1) 
-0.03571428571428571

>  <filename>  (1) 
[H][c]1[n][c]([H])[c]([N]2[C](=[O])[N]([H])[C](=[O])[C@]2([H])[C]([H])([H])[c]2[c]([H])[c]([H])[c]([H])[c]([F])[c]2[H])[c]([H])[c]1[H]

$$$$
