
     RDKit          3D

 33 35  0  0  0  0  0  0  0  0999 V2000
    4.9673    1.7888   16.9827 H   0  0  0  0  0  0  0  0  0  0  0  0
    5.4249    1.2825   17.8297 C   0  0  0  0  0  0  0  0  0  0  0  0
    6.5927    0.6601   17.5886 N   0  0  0  0  0  0  0  0  0  0  0  0
    7.2033    0.0585   18.6183 C   0  0  0  0  0  0  0  0  0  0  0  0
    8.1657   -0.4127   18.4282 H   0  0  0  0  0  0  0  0  0  0  0  0
    6.6625    0.0053   19.9127 C   0  0  0  0  0  0  0  0  0  0  0  0
    7.3673   -0.6911   20.9420 N   0  0  0  0  0  0  0  0  0  0  0  0
    8.7335   -0.5728   20.9193 N   0  0  0  0  0  0  0  0  0  0  0  0
    9.4209   -1.1300   21.8984 C   0  0  0  0  0  0  0  0  0  0  0  0
   10.8928   -0.9141   21.9352 C   0  0  0  0  0  0  0  0  0  0  0  0
   11.7175   -2.0513   22.0187 C   0  0  0  0  0  0  0  0  0  0  0  0
   11.2473   -3.0219   22.1695 H   0  0  0  0  0  0  0  0  0  0  0  0
   13.1001   -1.9206   21.9493 C   0  0  0  0  0  0  0  0  0  0  0  0
   13.7414   -2.7949   21.8971 H   0  0  0  0  0  0  0  0  0  0  0  0
   13.6701   -0.6495   22.0069 C   0  0  0  0  0  0  0  0  0  0  0  0
   14.7448   -0.5411   22.0477 H   0  0  0  0  0  0  0  0  0  0  0  0
   12.8522    0.4809   22.0788 C   0  0  0  0  0  0  0  0  0  0  0  0
   13.3046    1.4615   22.2080 H   0  0  0  0  0  0  0  0  0  0  0  0
   11.4600    0.3796   21.9513 C   0  0  0  0  0  0  0  0  0  0  0  0
   10.6311    1.6353   21.8904 C   0  0  0  0  0  0  0  0  0  0  0  0
   11.2409    2.5139   22.1120 H   0  0  0  0  0  0  0  0  0  0  0  0
   10.1985    1.7638   20.8934 H   0  0  0  0  0  0  0  0  0  0  0  0
    9.8020    1.6069   22.6043 H   0  0  0  0  0  0  0  0  0  0  0  0
    8.8144   -2.0064   22.9492 C   0  0  0  0  0  0  0  0  0  0  0  0
    9.4448   -2.5910   23.8270 O   0  0  0  0  0  0  0  0  0  0  0  0
    7.3686   -2.1234   22.8452 C   0  0  0  0  0  0  0  0  0  0  0  0
    6.8685   -2.7306   23.5873 H   0  0  0  0  0  0  0  0  0  0  0  0
    6.7137   -1.4677   21.8686 C   0  0  0  0  0  0  0  0  0  0  0  0
    5.6328   -1.5385   21.7300 H   0  0  0  0  0  0  0  0  0  0  0  0
    5.4381    0.6529   20.1549 C   0  0  0  0  0  0  0  0  0  0  0  0
    5.0184    0.6767   21.1605 H   0  0  0  0  0  0  0  0  0  0  0  0
    4.8128    1.3064   19.0873 C   0  0  0  0  0  0  0  0  0  0  0  0
    3.8748    1.8388   19.2218 H   0  0  0  0  0  0  0  0  0  0  0  0
  1  2  1  0
  2  3  2  0
  3  4  1  0
  4  5  1  0
  4  6  2  0
  6  7  1  0
  7  8  1  0
  8  9  2  0
  9 10  1  0
 10 11  2  0
 11 12  1  0
 11 13  1  0
 13 14  1  0
 13 15  2  0
 15 16  1  0
 15 17  1  0
 17 18  1  0
 17 19  2  0
 19 20  1  0
 20 21  1  0
 20 22  1  0
 20 23  1  0
  9 24  1  0
 24 25  2  0
 24 26  1  0
 26 27  1  0
 26 28  2  0
 28 29  1  0
  6 30  1  0
 30 31  1  0
 30 32  2  0
 32 33  1  0
 32  2  1  0
 28  7  1  0
 19 10  1  0
M  END
>  <plip>  (1) 
-0.17857142857142858

>  <filename>  (1) 
[H][c]1[n][c]([H])[c](-[n]2[n][c](-[c]3[c]([H])[c]([H])[c]([H])[c]([H])[c]3[C]([H])([H])[H])[c](=[O])[c]([H])[c]2[H])[c]([H])[c]1[H]

$$$$
