
     RDKit          3D

 28 30  0  0  0  0  0  0  0  0999 V2000
    4.9234    1.8208   16.9672 H   0  0  0  0  0  0  0  0  0  0  0  0
    5.3849    1.3016   17.8031 C   0  0  0  0  0  0  0  0  0  0  0  0
    6.5439    0.6758   17.5375 N   0  0  0  0  0  0  0  0  0  0  0  0
    7.1518    0.0454   18.5480 C   0  0  0  0  0  0  0  0  0  0  0  0
    8.1114   -0.4099   18.2998 H   0  0  0  0  0  0  0  0  0  0  0  0
    6.6498   -0.0073   19.8661 C   0  0  0  0  0  0  0  0  0  0  0  0
    7.3666   -0.6881   20.9540 C   0  0  0  0  0  0  0  0  0  0  0  0
    7.6507   -0.3061   22.2506 C   0  0  0  0  0  0  0  0  0  0  0  0
    7.3125    1.0470   22.8429 C   0  0  2  0  0  0  0  0  0  0  0  0
    6.2499    0.9926   23.1415 H   0  0  0  0  0  0  0  0  0  0  0  0
    7.4690    2.1849   21.9244 N   0  0  0  0  0  0  0  0  0  0  0  0
    8.1618    3.0331   22.5583 C   0  0  0  0  0  0  0  0  0  0  0  0
    8.4223    4.2812   22.1100 N   0  0  0  0  0  0  0  0  0  0  0  0
    9.3168    4.5766   22.4500 H   0  0  0  0  0  0  0  0  0  0  0  0
    8.3709    4.2254   21.1038 H   0  0  0  0  0  0  0  0  0  0  0  0
    8.7039    2.7268   23.7424 O   0  0  0  0  0  0  0  0  0  0  0  0
    8.1756    1.4309   24.0803 C   0  0  0  0  0  0  0  0  0  0  0  0
    7.5628    1.5345   24.9818 H   0  0  0  0  0  0  0  0  0  0  0  0
    9.0070    0.7416   24.2617 H   0  0  0  0  0  0  0  0  0  0  0  0
    8.3035   -1.3202   22.9135 N   0  0  0  0  0  0  0  0  0  0  0  0
    8.4359   -2.2826   22.0399 C   0  0  0  0  0  0  0  0  0  0  0  0
    8.9162   -3.2393   22.2170 H   0  0  0  0  0  0  0  0  0  0  0  0
    7.9109   -1.9441   20.8340 N   0  0  0  0  0  0  0  0  0  0  0  0
    7.8245   -2.5368   20.0251 H   0  0  0  0  0  0  0  0  0  0  0  0
    5.4334    0.6524   20.1134 C   0  0  0  0  0  0  0  0  0  0  0  0
    5.0187    0.6658   21.1222 H   0  0  0  0  0  0  0  0  0  0  0  0
    4.7888    1.3110   19.0665 C   0  0  0  0  0  0  0  0  0  0  0  0
    3.8609    1.8487   19.2224 H   0  0  0  0  0  0  0  0  0  0  0  0
  1  2  1  0
  2  3  2  0
  3  4  1  0
  4  5  1  0
  4  6  2  0
  6  7  1  0
  7  8  2  0
  8  9  1  0
  9 10  1  1
  9 11  1  0
 11 12  2  0
 12 13  1  0
 13 14  1  0
 13 15  1  0
 12 16  1  0
 16 17  1  0
 17 18  1  0
 17 19  1  0
  8 20  1  0
 20 21  2  0
 21 22  1  0
 21 23  1  0
 23 24  1  0
  6 25  1  0
 25 26  1  0
 25 27  2  0
 27 28  1  0
 27  2  1  0
 23  7  1  0
 17  9  1  0
M  END
>  <plip>  (1) 
-0.06896551724137931

>  <filename>  (1) 
[H][c]1[n][c]([H])[c](-[c]2[c]([C@]3([H])[N]=[C]([N]([H])[H])[O][C]3([H])[H])[n][c]([H])[n]2[H])[c]([H])[c]1[H]

$$$$
