
     RDKit          3D

 41 44  0  0  0  0  0  0  0  0999 V2000
    9.6143   -0.6058   27.4854 C   0  0  0  0  0  0  0  0  0  0  0  0
    8.5956   -0.7011   26.5126 O   0  0  0  0  0  0  0  0  0  0  0  0
    7.9939    0.4306   26.0478 C   0  0  0  0  0  0  0  0  0  0  0  0
    8.5665    1.7078   26.1451 C   0  0  0  0  0  0  0  0  0  0  0  0
    7.8770    2.8399   25.7012 C   0  0  0  0  0  0  0  0  0  0  0  0
    6.6031    2.7140   25.1541 C   0  0  0  0  0  0  0  0  0  0  0  0
    6.0692    1.4315   24.9787 C   0  0  0  0  0  0  0  0  0  0  0  0
    6.7627    0.2841   25.3758 C   0  0  0  0  0  0  0  0  0  0  0  0
    6.2023   -1.3213   24.7777 S   0  0  0  0  0  0  0  0  0  0  0  0
    7.0683   -1.2360   23.2157 C   0  0  0  0  0  0  0  0  0  0  0  0
    6.4085   -0.6997   22.1897 N   0  0  0  0  0  0  0  0  0  0  0  0
    7.0815   -0.5119   21.0554 C   0  0  0  0  0  0  0  0  0  0  0  0
    6.3812    0.1340   19.9339 C   0  0  0  0  0  0  0  0  0  0  0  0
    5.1457    0.7975   20.0205 C   0  0  0  0  0  0  0  0  0  0  0  0
    4.6670    1.4121   18.8668 C   0  0  0  0  0  0  0  0  0  0  0  0
    5.4071    1.3242   17.6806 C   0  0  0  0  0  0  0  0  0  0  0  0
    6.5636    0.6576   17.5789 N   0  0  0  0  0  0  0  0  0  0  0  0
    7.0269    0.0867   18.6892 C   0  0  0  0  0  0  0  0  0  0  0  0
    7.9672   -0.4473   18.6090 H   0  0  0  0  0  0  0  0  0  0  0  0
    5.0585    1.8105   16.7746 H   0  0  0  0  0  0  0  0  0  0  0  0
    3.7389    1.9723   18.8683 H   0  0  0  0  0  0  0  0  0  0  0  0
    4.5763    0.8311   20.9553 H   0  0  0  0  0  0  0  0  0  0  0  0
    8.3474   -0.8802   20.8425 N   0  0  0  0  0  0  0  0  0  0  0  0
    8.9627   -1.4503   21.8633 C   0  0  0  0  0  0  0  0  0  0  0  0
    8.3999   -1.6256   23.1241 C   0  0  0  0  0  0  0  0  0  0  0  0
    9.4350   -2.2133   24.0567 C   0  0  0  0  0  0  0  0  0  0  0  0
   10.3809   -2.9194   23.0673 C   0  0  0  0  0  0  0  0  0  0  0  0
   10.3424   -2.0240   21.8119 C   0  0  0  0  0  0  0  0  0  0  0  0
   11.0973   -1.2315   21.8679 H   0  0  0  0  0  0  0  0  0  0  0  0
   10.4765   -2.5274   20.8577 H   0  0  0  0  0  0  0  0  0  0  0  0
   11.3873   -3.0792   23.4598 H   0  0  0  0  0  0  0  0  0  0  0  0
    9.9656   -3.9067   22.8489 H   0  0  0  0  0  0  0  0  0  0  0  0
    9.0309   -2.8617   24.8384 H   0  0  0  0  0  0  0  0  0  0  0  0
    9.9747   -1.3980   24.5562 H   0  0  0  0  0  0  0  0  0  0  0  0
    5.1372    1.2968   24.4381 H   0  0  0  0  0  0  0  0  0  0  0  0
    6.0448    3.5952   24.8417 H   0  0  0  0  0  0  0  0  0  0  0  0
    8.3487    3.8165   25.7910 H   0  0  0  0  0  0  0  0  0  0  0  0
    9.5579    1.7905   26.5628 H   0  0  0  0  0  0  0  0  0  0  0  0
    9.2421   -0.1051   28.3878 H   0  0  0  0  0  0  0  0  0  0  0  0
    9.8778   -1.6348   27.7232 H   0  0  0  0  0  0  0  0  0  0  0  0
   10.5028   -0.0826   27.1019 H   0  0  0  0  0  0  0  0  0  0  0  0
  1  2  1  0
  2  3  1  0
  3  4  2  0
  4  5  1  0
  5  6  2  0
  6  7  1  0
  7  8  2  0
  8  9  1  0
  9 10  1  0
 10 11  2  0
 11 12  1  0
 12 13  1  0
 13 14  2  0
 14 15  1  0
 15 16  2  0
 16 17  1  0
 17 18  2  0
 18 19  1  0
 16 20  1  0
 15 21  1  0
 14 22  1  0
 12 23  2  0
 23 24  1  0
 24 25  2  0
 25 26  1  0
 26 27  1  0
 27 28  1  0
 28 29  1  0
 28 30  1  0
 27 31  1  0
 27 32  1  0
 26 33  1  0
 26 34  1  0
  7 35  1  0
  6 36  1  0
  5 37  1  0
  4 38  1  0
  1 39  1  0
  1 40  1  0
  1 41  1  0
  8  3  1  0
 25 10  1  0
 18 13  1  0
 28 24  1  0
M  END
>  <plip>  (1) 
-0.03571428571428571

>  <filename>  (1) 
[H][c]1[n][c]([H])[c](-[c]2[n][c]([S][c]3[c]([H])[c]([H])[c]([H])[c]([H])[c]3[O][C]([H])([H])[H])[c]3[c]([n]2)[C]([H])([H])[C]([H])([H])[C]3([H])[H])[c]([H])[c]1[H]

$$$$
