
     RDKit          3D

 36 38  0  0  0  0  0  0  0  0999 V2000
    9.8499   -6.6935   25.5115 O   0  0  0  0  0  0  0  0  0  0  0  0
    9.1001   -5.9480   24.6658 C   0  0  0  0  0  0  0  0  0  0  0  0
    8.7723   -6.5012   23.4170 C   0  0  0  0  0  0  0  0  0  0  0  0
    7.9805   -5.7690   22.5347 C   0  0  0  0  0  0  0  0  0  0  0  0
    7.6134   -4.4424   22.8066 C   0  0  0  0  0  0  0  0  0  0  0  0
    6.9316   -3.5482   21.7844 C   0  0  0  0  0  0  0  0  0  0  0  0
    7.3621   -2.0993   22.0175 C   0  0  0  0  0  0  0  0  0  0  0  0
    6.7288   -1.2278   20.9974 N   0  0  0  0  0  4  0  0  0  0  0  0
    7.2092    0.1708   20.8952 C   0  0  0  0  0  0  0  0  0  0  0  0
    6.5647    0.7261   19.6577 C   0  0  0  0  0  0  0  0  0  0  0  0
    5.4207    1.5334   19.7001 C   0  0  0  0  0  0  0  0  0  0  0  0
    4.7930    1.8761   18.4987 C   0  0  0  0  0  0  0  0  0  0  0  0
    5.3524    1.4220   17.3015 C   0  0  0  0  0  0  0  0  0  0  0  0
    6.4720    0.6880   17.2346 N   0  0  0  0  0  0  0  0  0  0  0  0
    7.0629    0.3702   18.3931 C   0  0  0  0  0  0  0  0  0  0  0  0
    8.0056   -0.1698   18.2922 H   0  0  0  0  0  0  0  0  0  0  0  0
    4.8871    1.6558   16.3481 H   0  0  0  0  0  0  0  0  0  0  0  0
    3.9007    2.4968   18.4809 H   0  0  0  0  0  0  0  0  0  0  0  0
    5.0220    1.8818   20.6565 H   0  0  0  0  0  0  0  0  0  0  0  0
    8.3042    0.1892   20.8205 H   0  0  0  0  0  0  0  0  0  0  0  0
    6.9323    0.7483   21.7845 H   0  0  0  0  0  0  0  0  0  0  0  0
    5.6868   -1.1956   21.1488 H   0  0  0  0  0  0  0  0  0  0  0  0
    6.8638   -1.6421   20.0441 H   0  0  0  0  0  0  0  0  0  0  0  0
    7.0646   -1.7431   23.4926 C   0  0  0  0  0  0  0  0  0  0  0  0
    7.7847   -2.5942   24.3912 O   0  0  0  0  0  0  0  0  0  0  0  0
    7.9918   -3.9014   24.0564 C   0  0  0  0  0  0  0  0  0  0  0  0
    8.6718   -4.6669   25.0083 C   0  0  0  0  0  0  0  0  0  0  0  0
    8.9166   -4.2255   25.9671 H   0  0  0  0  0  0  0  0  0  0  0  0
    5.9910   -1.8255   23.7007 H   0  0  0  0  0  0  0  0  0  0  0  0
    7.3699   -0.7293   23.7628 H   0  0  0  0  0  0  0  0  0  0  0  0
    8.4526   -2.0544   21.9141 H   0  0  0  0  0  0  0  0  0  0  0  0
    5.8328   -3.6127   21.8410 H   0  0  0  0  0  0  0  0  0  0  0  0
    7.2195   -3.8434   20.7694 H   0  0  0  0  0  0  0  0  0  0  0  0
    7.6398   -6.2127   21.5992 H   0  0  0  0  0  0  0  0  0  0  0  0
    9.1879   -7.4717   23.1595 H   0  0  0  0  0  0  0  0  0  0  0  0
   10.0433   -6.1766   26.3033 H   0  0  0  0  0  0  0  0  0  0  0  0
  1  2  1  0
  2  3  2  0
  3  4  1  0
  4  5  2  0
  5  6  1  0
  6  7  1  0
  7  8  1  0
  8  9  1  0
  9 10  1  0
 10 11  2  0
 11 12  1  0
 12 13  2  0
 13 14  1  0
 14 15  2  0
 15 16  1  0
 13 17  1  0
 12 18  1  0
 11 19  1  0
  9 20  1  0
  9 21  1  0
  8 22  1  0
  8 23  1  0
  7 24  1  0
 24 25  1  0
 25 26  1  0
 26 27  2  0
 27 28  1  0
 24 29  1  0
 24 30  1  0
  7 31  1  0
  6 32  1  0
  6 33  1  0
  4 34  1  0
  3 35  1  0
  1 36  1  0
 27  2  1  0
 26  5  1  0
 15 10  1  0
M  CHG  1   8   1
M  END
>  <plip>  (1) 
-0.2

>  <filename>  (1) 
[H][O][c]1[c]([H])[c]([H])[c]2[c]([c]1[H])[O][C]([H])([H])[C]([H])([N+]([H])([H])[C]([H])([H])[c]1[c]([H])[n][c]([H])[c]([H])[c]1[H])[C]2([H])[H]

$$$$
