
     RDKit          3D

 32 34  0  0  0  0  0  0  0  0999 V2000
    4.8971    1.8251   16.9402 H   0  0  0  0  0  0  0  0  0  0  0  0
    5.3623    1.2922   17.7686 C   0  0  0  0  0  0  0  0  0  0  0  0
    6.4974    0.6379   17.4821 N   0  0  0  0  0  0  0  0  0  0  0  0
    7.1185    0.0261   18.4978 C   0  0  0  0  0  0  0  0  0  0  0  0
    8.0503   -0.4810   18.2535 H   0  0  0  0  0  0  0  0  0  0  0  0
    6.6598    0.0287   19.8337 C   0  0  0  0  0  0  0  0  0  0  0  0
    7.4504   -0.5574   20.9769 C   0  0  0  0  0  0  0  0  0  0  0  0
    8.1132   -1.3768   20.6875 H   0  0  0  0  0  0  0  0  0  0  0  0
    6.8144   -0.9115   21.7909 H   0  0  0  0  0  0  0  0  0  0  0  0
    8.6648    0.5301   21.8181 S   0  0  0  0  0  0  0  0  0  0  0  0
    9.6931    0.8143   20.8214 O   0  0  0  0  0  0  0  0  0  0  0  0
    8.9743   -0.2254   23.0354 O   0  0  0  0  0  0  0  0  0  0  0  0
    7.7936    2.1016   22.3355 C   0  0  0  0  0  0  0  0  0  0  0  0
    7.9470    3.2105   21.6646 N   0  0  0  0  0  0  0  0  0  0  0  0
    7.1866    4.3107   22.0170 C   0  0  0  0  0  0  0  0  0  0  0  0
    7.3045    5.4906   21.2317 C   0  0  0  0  0  0  0  0  0  0  0  0
    8.0601    5.4875   20.4548 H   0  0  0  0  0  0  0  0  0  0  0  0
    6.4701    6.5635   21.4535 C   0  0  0  0  0  0  0  0  0  0  0  0
    6.5189    7.4384   20.8084 H   0  0  0  0  0  0  0  0  0  0  0  0
    5.5292    6.5367   22.5263 C   0  0  0  0  0  0  0  0  0  0  0  0
    4.8585    7.3824   22.6650 H   0  0  0  0  0  0  0  0  0  0  0  0
    5.4527    5.4411   23.3602 C   0  0  0  0  0  0  0  0  0  0  0  0
    4.7449    5.4192   24.1880 H   0  0  0  0  0  0  0  0  0  0  0  0
    6.2668    4.2892   23.1103 C   0  0  0  0  0  0  0  0  0  0  0  0
    6.1973    3.0749   23.8637 C   0  0  0  0  0  0  0  0  0  0  0  0
    5.5375    3.0188   24.7280 H   0  0  0  0  0  0  0  0  0  0  0  0
    6.9588    1.9881   23.5024 C   0  0  0  0  0  0  0  0  0  0  0  0
    6.9517    1.0642   24.0808 H   0  0  0  0  0  0  0  0  0  0  0  0
    5.4387    0.6582   20.0916 C   0  0  0  0  0  0  0  0  0  0  0  0
    5.0155    0.6365   21.0993 H   0  0  0  0  0  0  0  0  0  0  0  0
    4.7837    1.3079   19.0414 C   0  0  0  0  0  0  0  0  0  0  0  0
    3.8556    1.8414   19.2006 H   0  0  0  0  0  0  0  0  0  0  0  0
  1  2  1  0
  2  3  2  0
  3  4  1  0
  4  5  1  0
  4  6  2  0
  6  7  1  0
  7  8  1  0
  7  9  1  0
  7 10  1  0
 10 11  2  0
 10 12  2  0
 10 13  1  0
 13 14  2  0
 14 15  1  0
 15 16  2  0
 16 17  1  0
 16 18  1  0
 18 19  1  0
 18 20  2  0
 20 21  1  0
 20 22  1  0
 22 23  1  0
 22 24  2  0
 24 25  1  0
 25 26  1  0
 25 27  2  0
 27 28  1  0
  6 29  1  0
 29 30  1  0
 29 31  2  0
 31 32  1  0
 31  2  1  0
 27 13  1  0
 24 15  1  0
M  END
>  <plip>  (1) 
-0.10344827586206896

>  <filename>  (1) 
[H][c]1[n][c]([H])[c]([C]([H])([H])[S](=[O])(=[O])[c]2[n][c]3[c]([H])[c]([H])[c]([H])[c]([H])[c]3[c]([H])[c]2[H])[c]([H])[c]1[H]

$$$$
