
     RDKit          3D

 53 56  0  0  0  0  0  0  0  0999 V2000
    7.4229    4.4919   22.7200 O   0  0  0  0  0  0  0  0  0  0  0  0
    7.4086    4.1456   23.8886 C   0  0  0  0  0  0  0  0  0  0  0  0
    6.6482    4.9700   24.9278 C   0  0  0  0  0  0  0  0  0  0  0  0
    7.0184    4.7606   26.2917 O   0  0  0  0  0  0  0  0  0  0  0  0
    7.2814    3.4535   26.6330 C   0  0  0  0  0  0  0  0  0  0  0  0
    7.0815    3.0634   27.9564 C   0  0  0  0  0  0  0  0  0  0  0  0
    7.3835    1.7570   28.3573 C   0  0  0  0  0  0  0  0  0  0  0  0
    7.8604    0.8337   27.4197 C   0  0  0  0  0  0  0  0  0  0  0  0
    8.0425    1.2125   26.0852 C   0  0  0  0  0  0  0  0  0  0  0  0
    7.7805    2.5342   25.6752 C   0  0  0  0  0  0  0  0  0  0  0  0
    7.9974    2.9817   24.3444 N   0  0  0  0  0  0  0  0  0  0  0  0
    8.6496    2.1080   23.3534 C   0  0  0  0  0  0  0  0  0  0  0  0
    7.6363    1.2051   22.6583 C   0  0  0  0  0  0  0  0  0  0  0  0
    8.3184    0.2824   21.6747 N   0  0  0  0  0  4  0  0  0  0  0  0
    7.4519   -0.7840   21.0191 C   0  0  0  0  0  0  0  0  0  0  0  0
    6.6593   -0.0638   19.9257 C   0  0  0  0  0  0  0  0  0  0  0  0
    5.4479    0.6182   20.1325 C   0  0  0  0  0  0  0  0  0  0  0  0
    4.8587    1.3105   19.0670 C   0  0  0  0  0  0  0  0  0  0  0  0
    5.5086    1.3156   17.8301 C   0  0  0  0  0  0  0  0  0  0  0  0
    6.6634    0.6716   17.6068 N   0  0  0  0  0  0  0  0  0  0  0  0
    7.2104    0.0088   18.6330 C   0  0  0  0  0  0  0  0  0  0  0  0
    8.1444   -0.5009   18.3968 H   0  0  0  0  0  0  0  0  0  0  0  0
    5.0867    1.8562   16.9834 H   0  0  0  0  0  0  0  0  0  0  0  0
    3.9184    1.8402   19.1803 H   0  0  0  0  0  0  0  0  0  0  0  0
    4.9752    0.6332   21.1176 H   0  0  0  0  0  0  0  0  0  0  0  0
    6.6082   -1.5731   22.0619 C   0  0  0  0  0  0  0  0  0  0  0  0
    5.6700   -2.5920   21.3906 C   0  0  0  0  0  0  0  0  0  0  0  0
    6.3337   -3.9298   21.0626 C   0  0  0  0  0  0  0  0  0  0  0  0
    7.0490   -4.4807   22.1528 O   0  0  0  0  0  0  0  0  0  0  0  0
    8.0407   -3.5979   22.6501 C   0  0  0  0  0  0  0  0  0  0  0  0
    7.4037   -2.3076   23.1708 C   0  0  0  0  0  0  0  0  0  0  0  0
    6.6932   -2.5952   23.9611 H   0  0  0  0  0  0  0  0  0  0  0  0
    8.1640   -1.6617   23.6313 H   0  0  0  0  0  0  0  0  0  0  0  0
    8.7771   -3.3694   21.8580 H   0  0  0  0  0  0  0  0  0  0  0  0
    8.5463   -4.1486   23.4485 H   0  0  0  0  0  0  0  0  0  0  0  0
    5.5683   -4.6591   20.7935 H   0  0  0  0  0  0  0  0  0  0  0  0
    6.9912   -3.8208   20.1973 H   0  0  0  0  0  0  0  0  0  0  0  0
    5.3002   -2.1507   20.4643 H   0  0  0  0  0  0  0  0  0  0  0  0
    4.8222   -2.8099   22.0485 H   0  0  0  0  0  0  0  0  0  0  0  0
    6.0186   -0.8007   22.5599 H   0  0  0  0  0  0  0  0  0  0  0  0
    8.1276   -1.4906   20.5264 H   0  0  0  0  0  0  0  0  0  0  0  0
    9.1390   -0.1667   22.1286 H   0  0  0  0  0  0  0  0  0  0  0  0
    8.6436    0.8899   20.8835 H   0  0  0  0  0  0  0  0  0  0  0  0
    6.8960    1.8319   22.1486 H   0  0  0  0  0  0  0  0  0  0  0  0
    7.0892    0.6466   23.4256 H   0  0  0  0  0  0  0  0  0  0  0  0
    9.1624    2.7357   22.6203 H   0  0  0  0  0  0  0  0  0  0  0  0
    9.4166    1.5093   23.8567 H   0  0  0  0  0  0  0  0  0  0  0  0
    8.3725    0.4750   25.3583 H   0  0  0  0  0  0  0  0  0  0  0  0
    8.1113   -0.1770   27.7329 H   0  0  0  0  0  0  0  0  0  0  0  0
    7.2472    1.4626   29.3957 H   0  0  0  0  0  0  0  0  0  0  0  0
    6.6846    3.8009   28.6489 H   0  0  0  0  0  0  0  0  0  0  0  0
    5.5806    4.7594   24.7837 H   0  0  0  0  0  0  0  0  0  0  0  0
    6.8312    6.0183   24.6990 H   0  0  0  0  0  0  0  0  0  0  0  0
  1  2  2  0
  2  3  1  0
  3  4  1  0
  4  5  1  0
  5  6  2  0
  6  7  1  0
  7  8  2  0
  8  9  1  0
  9 10  2  0
 10 11  1  0
 11 12  1  0
 12 13  1  0
 13 14  1  0
 14 15  1  0
 15 16  1  0
 16 17  2  0
 17 18  1  0
 18 19  2  0
 19 20  1  0
 20 21  2  0
 21 22  1  0
 19 23  1  0
 18 24  1  0
 17 25  1  0
 15 26  1  0
 26 27  1  0
 27 28  1  0
 28 29  1  0
 29 30  1  0
 30 31  1  0
 31 32  1  0
 31 33  1  0
 30 34  1  0
 30 35  1  0
 28 36  1  0
 28 37  1  0
 27 38  1  0
 27 39  1  0
 26 40  1  0
 15 41  1  0
 14 42  1  0
 14 43  1  0
 13 44  1  0
 13 45  1  0
 12 46  1  0
 12 47  1  0
  9 48  1  0
  8 49  1  0
  7 50  1  0
  6 51  1  0
  3 52  1  0
  3 53  1  0
 11  2  1  0
 21 16  1  0
 31 26  1  0
 10  5  1  0
M  CHG  1  14   1
M  END
>  <plip>  (1) 
-0.03333333333333333

>  <filename>  (1) 
[H][c]1[n][c]([H])[c]([C]([H])([C]2([H])[C]([H])([H])[C]([H])([H])[O][C]([H])([H])[C]2([H])[H])[N+]([H])([H])[C]([H])([H])[C]([H])([H])[N]2[C](=[O])[C]([H])([H])[O][c]3[c]([H])[c]([H])[c]([H])[c]([H])[c]32)[c]([H])[c]1[H]

$$$$
