
     RDKit          3D

 40 42  0  0  0  0  0  0  0  0999 V2000
    7.2726    1.1436   22.7685 C   0  0  0  0  0  0  0  0  0  0  0  0
    8.2097    0.2452   21.9414 C   0  0  0  0  0  0  0  0  0  0  0  0
    9.2001    1.1261   21.1722 C   0  0  0  0  0  0  0  0  0  0  0  0
    8.6584    1.8084   20.5066 H   0  0  0  0  0  0  0  0  0  0  0  0
    9.8045    1.7184   21.8684 H   0  0  0  0  0  0  0  0  0  0  0  0
    9.8676    0.4982   20.5727 H   0  0  0  0  0  0  0  0  0  0  0  0
    7.4830   -0.7039   20.9609 C   0  0  0  0  0  0  0  0  0  0  0  0
    6.6114   -1.6118   21.6759 N   0  0  0  0  0  0  0  0  0  0  0  0
    7.0884   -2.6353   22.4908 C   0  0  0  0  0  0  0  0  0  0  0  0
    8.3052   -2.8345   22.4840 O   0  0  0  0  0  0  0  0  0  0  0  0
    6.1517   -3.4718   23.3165 C   0  0  0  0  0  0  0  0  0  0  0  0
    4.8317   -3.3238   23.3602 N   0  0  0  0  0  0  0  0  0  0  0  0
    4.3687   -4.2377   24.2505 N   0  0  0  0  0  0  0  0  0  0  0  0
    3.0349   -4.3934   24.6348 C   0  0  0  0  0  0  0  0  0  0  0  0
    2.7037   -5.4020   25.5231 C   0  0  0  0  0  0  0  0  0  0  0  0
    3.7570   -6.2925   26.0701 C   0  0  0  0  0  0  0  0  0  0  0  0
    5.0780   -6.1110   25.6966 C   0  0  0  0  0  0  0  0  0  0  0  0
    5.3831   -5.0342   24.7575 C   0  0  0  0  0  0  0  0  0  0  0  0
    6.5326   -4.5850   24.1932 C   0  0  0  0  0  0  0  0  0  0  0  0
    8.2822   -5.3070   24.4771 Br  0  0  0  0  0  0  0  0  0  0  0  0
    5.8784   -6.7405   26.0812 H   0  0  0  0  0  0  0  0  0  0  0  0
    3.4962   -7.0839   26.7703 H   0  0  0  0  0  0  0  0  0  0  0  0
    1.6631   -5.5281   25.8138 H   0  0  0  0  0  0  0  0  0  0  0  0
    2.3017   -3.7097   24.2166 H   0  0  0  0  0  0  0  0  0  0  0  0
    5.6141   -1.4080   21.6835 H   0  0  0  0  0  0  0  0  0  0  0  0
    6.6674    0.0090   19.9112 C   0  0  0  0  0  0  0  0  0  0  0  0
    5.4495    0.6473   20.1769 C   0  0  0  0  0  0  0  0  0  0  0  0
    4.8246    1.2926   19.1101 C   0  0  0  0  0  0  0  0  0  0  0  0
    5.4022    1.2872   17.8378 C   0  0  0  0  0  0  0  0  0  0  0  0
    6.5614    0.6614   17.5830 N   0  0  0  0  0  0  0  0  0  0  0  0
    7.1733    0.0433   18.6076 C   0  0  0  0  0  0  0  0  0  0  0  0
    8.1254   -0.4414   18.4182 H   0  0  0  0  0  0  0  0  0  0  0  0
    4.8993    1.8080   17.0284 H   0  0  0  0  0  0  0  0  0  0  0  0
    3.8944    1.8200   19.2525 H   0  0  0  0  0  0  0  0  0  0  0  0
    5.0097    0.6512   21.1747 H   0  0  0  0  0  0  0  0  0  0  0  0
    8.2561   -1.3067   20.4606 H   0  0  0  0  0  0  0  0  0  0  0  0
    8.7698   -0.3849   22.6423 H   0  0  0  0  0  0  0  0  0  0  0  0
    7.8514    1.6697   23.5382 H   0  0  0  0  0  0  0  0  0  0  0  0
    6.5042    0.5413   23.2655 H   0  0  0  0  0  0  0  0  0  0  0  0
    6.7800    1.8893   22.1341 H   0  0  0  0  0  0  0  0  0  0  0  0
  1  2  1  0
  2  3  1  0
  3  4  1  0
  3  5  1  0
  3  6  1  0
  2  7  1  0
  7  8  1  0
  8  9  1  0
  9 10  2  0
  9 11  1  0
 11 12  2  0
 12 13  1  0
 13 14  1  0
 14 15  2  0
 15 16  1  0
 16 17  2  0
 17 18  1  0
 18 19  2  0
 19 20  1  0
 17 21  1  0
 16 22  1  0
 15 23  1  0
 14 24  1  0
  8 25  1  0
  7 26  1  0
 26 27  2  0
 27 28  1  0
 28 29  2  0
 29 30  1  0
 30 31  2  0
 31 32  1  0
 29 33  1  0
 28 34  1  0
 27 35  1  0
  7 36  1  0
  2 37  1  0
  1 38  1  0
  1 39  1  0
  1 40  1  0
 19 11  1  0
 31 26  1  0
 18 13  1  0
M  END
>  <plip>  (1) 
-0.13793103448275862

>  <filename>  (1) 
[H][c]1[n][c]([H])[c]([C]([H])([N]([H])[C](=[O])[c]2[n][n]3[c]([H])[c]([H])[c]([H])[c]([H])[c]3[c]2[Br])[C]([H])([C]([H])([H])[H])[C]([H])([H])[H])[c]([H])[c]1[H]

$$$$
