
     RDKit          3D

 42 44  0  0  0  0  0  0  0  0999 V2000
    7.5079   -1.0861   25.5258 C   0  0  0  0  0  0  0  0  0  0  0  0
    6.7037   -2.2371   24.9172 C   0  0  0  0  0  0  0  0  0  0  0  0
    7.3943   -2.9746   23.7339 C   0  0  0  0  0  0  0  0  0  0  0  0
    8.6708   -3.7086   24.1716 C   0  0  0  0  0  0  0  0  0  0  0  0
    8.4620   -4.4133   24.9827 H   0  0  0  0  0  0  0  0  0  0  0  0
    9.4272   -2.9986   24.5217 H   0  0  0  0  0  0  0  0  0  0  0  0
    9.1117   -4.2641   23.3385 H   0  0  0  0  0  0  0  0  0  0  0  0
    7.6792   -2.0160   22.6043 C   0  0  0  0  0  0  0  0  0  0  0  0
    6.7831   -1.6482   21.7118 N   0  0  0  0  0  0  0  0  0  0  0  0
    7.4300   -0.6693   21.0085 N   0  0  0  0  0  0  0  0  0  0  0  0
    6.7401   -0.0041   19.9453 C   0  0  0  0  0  0  0  0  0  0  0  0
    5.5126    0.6257   20.1939 C   0  0  0  0  0  0  0  0  0  0  0  0
    4.8803    1.2849   19.1364 C   0  0  0  0  0  0  0  0  0  0  0  0
    5.4817    1.2690   17.8718 C   0  0  0  0  0  0  0  0  0  0  0  0
    6.6373    0.6367   17.6156 N   0  0  0  0  0  0  0  0  0  0  0  0
    7.2431    0.0081   18.6323 C   0  0  0  0  0  0  0  0  0  0  0  0
    8.1550   -0.5390   18.3919 H   0  0  0  0  0  0  0  0  0  0  0  0
    5.0100    1.7609   17.0253 H   0  0  0  0  0  0  0  0  0  0  0  0
    3.9335    1.7964   19.2785 H   0  0  0  0  0  0  0  0  0  0  0  0
    5.0785    0.5814   21.1948 H   0  0  0  0  0  0  0  0  0  0  0  0
    8.6600   -0.4729   21.5727 C   0  0  0  0  0  0  0  0  0  0  0  0
    9.5609    0.7020   21.3662 C   0  0  0  0  0  0  0  0  0  0  0  0
    9.0243    1.9076   22.1077 C   0  0  0  0  0  0  0  0  0  0  0  0
    8.1765    2.7870   21.4399 C   0  0  0  0  0  0  0  0  0  0  0  0
    7.7188    3.9477   22.0723 C   0  0  0  0  0  0  0  0  0  0  0  0
    8.0612    4.1789   23.4120 C   0  0  0  0  0  0  0  0  0  0  0  0
    8.8394    3.2504   24.1200 C   0  0  0  0  0  0  0  0  0  0  0  0
    9.3156    2.1107   23.4633 C   0  0  0  0  0  0  0  0  0  0  0  0
    9.9151    1.3654   23.9874 H   0  0  0  0  0  0  0  0  0  0  0  0
    9.0633    3.4043   25.1761 H   0  0  0  0  0  0  0  0  0  0  0  0
    7.7404    5.0967   23.8959 H   0  0  0  0  0  0  0  0  0  0  0  0
    7.1233    4.6677   21.5114 H   0  0  0  0  0  0  0  0  0  0  0  0
    7.9016    2.5064   20.4238 H   0  0  0  0  0  0  0  0  0  0  0  0
    9.6692    0.9140   20.3007 H   0  0  0  0  0  0  0  0  0  0  0  0
   10.5535    0.4393   21.7433 H   0  0  0  0  0  0  0  0  0  0  0  0
    8.8600   -1.3461   22.5315 N   0  0  0  0  0  0  0  0  0  0  0  0
    6.6771   -3.7042   23.3432 H   0  0  0  0  0  0  0  0  0  0  0  0
    6.4778   -2.9726   25.7009 H   0  0  0  0  0  0  0  0  0  0  0  0
    5.7358   -1.8547   24.5714 H   0  0  0  0  0  0  0  0  0  0  0  0
    6.9419   -0.6244   26.3399 H   0  0  0  0  0  0  0  0  0  0  0  0
    7.7342   -0.3061   24.7907 H   0  0  0  0  0  0  0  0  0  0  0  0
    8.4639   -1.4261   25.9390 H   0  0  0  0  0  0  0  0  0  0  0  0
  1  2  1  0
  2  3  1  0
  3  4  1  0
  4  5  1  0
  4  6  1  0
  4  7  1  0
  3  8  1  0
  8  9  2  0
  9 10  1  0
 10 11  1  0
 11 12  2  0
 12 13  1  0
 13 14  2  0
 14 15  1  0
 15 16  2  0
 16 17  1  0
 14 18  1  0
 13 19  1  0
 12 20  1  0
 10 21  1  0
 21 22  1  0
 22 23  1  0
 23 24  2  0
 24 25  1  0
 25 26  2  0
 26 27  1  0
 27 28  2  0
 28 29  1  0
 27 30  1  0
 26 31  1  0
 25 32  1  0
 24 33  1  0
 22 34  1  0
 22 35  1  0
 21 36  2  0
  3 37  1  0
  2 38  1  0
  2 39  1  0
  1 40  1  0
  1 41  1  0
  1 42  1  0
 36  8  1  0
 16 11  1  0
 28 23  1  0
M  END
>  <plip>  (1) 
-0.03571428571428571

>  <filename>  (1) 
[H][c]1[n][c]([H])[c](-[n]2[n][c]([C]([H])([C]([H])([H])[H])[C]([H])([H])[C]([H])([H])[H])[n][c]2[C]([H])([H])[c]2[c]([H])[c]([H])[c]([H])[c]([H])[c]2[H])[c]([H])[c]1[H]

$$$$
