
     RDKit          3D

 33 35  0  0  0  0  0  0  0  0999 V2000
    4.8638    1.9427   16.7404 H   0  0  0  0  0  0  0  0  0  0  0  0
    5.2895    1.4015   17.5808 C   0  0  0  0  0  0  0  0  0  0  0  0
    6.4331    0.7347   17.3296 N   0  0  0  0  0  0  0  0  0  0  0  0
    6.9999    0.0660   18.3416 C   0  0  0  0  0  0  0  0  0  0  0  0
    7.9437   -0.4334   18.1238 H   0  0  0  0  0  0  0  0  0  0  0  0
    6.4479   -0.0118   19.6491 C   0  0  0  0  0  0  0  0  0  0  0  0
    7.1577   -0.5897   20.7193 N   0  0  0  0  0  0  0  0  0  0  0  0
    6.6746   -1.3602   21.5883 C   0  0  0  0  0  0  0  0  0  0  0  0
    5.6035   -2.2353   21.4621 N   0  0  0  0  0  0  0  0  0  0  0  0
    5.0793   -2.0694   22.3155 H   0  0  0  0  0  0  0  0  0  0  0  0
    5.0812   -1.9601   20.6436 H   0  0  0  0  0  0  0  0  0  0  0  0
    7.1923   -1.5828   22.8502 N   0  0  0  0  0  0  0  0  0  0  0  0
    7.0134   -2.5649   22.9724 H   0  0  0  0  0  0  0  0  0  0  0  0
    8.4046   -1.0076   23.3376 C   0  0  0  0  0  0  0  0  0  0  0  0
    9.4466   -1.7710   23.9897 C   0  0  0  0  0  0  0  0  0  0  0  0
    9.2698   -2.8358   24.1739 H   0  0  0  0  0  0  0  0  0  0  0  0
   10.6068   -1.2769   24.3520 N   0  0  0  0  0  0  0  0  0  0  0  0
   10.8572    0.0527   24.0992 C   0  0  0  0  0  0  0  0  0  0  0  0
   12.1642    0.5516   24.3512 C   0  0  0  0  0  0  0  0  0  0  0  0
   12.8992   -0.1546   24.7200 H   0  0  0  0  0  0  0  0  0  0  0  0
   12.4712    1.8625   24.0739 C   0  0  0  0  0  0  0  0  0  0  0  0
   13.4872    2.2199   24.2090 H   0  0  0  0  0  0  0  0  0  0  0  0
   11.4759    2.7484   23.5738 C   0  0  0  0  0  0  0  0  0  0  0  0
   11.7451    3.7763   23.3428 H   0  0  0  0  0  0  0  0  0  0  0  0
   10.1944    2.2978   23.3435 C   0  0  0  0  0  0  0  0  0  0  0  0
    9.4160    2.9709   22.9909 H   0  0  0  0  0  0  0  0  0  0  0  0
    9.8620    0.9261   23.5592 C   0  0  0  0  0  0  0  0  0  0  0  0
    8.6102    0.3505   23.1942 C   0  0  0  0  0  0  0  0  0  0  0  0
    7.8256    0.9612   22.7605 H   0  0  0  0  0  0  0  0  0  0  0  0
    5.2563    0.6876   19.8783 C   0  0  0  0  0  0  0  0  0  0  0  0
    4.8513    0.7082   20.8890 H   0  0  0  0  0  0  0  0  0  0  0  0
    4.6649    1.4018   18.8298 C   0  0  0  0  0  0  0  0  0  0  0  0
    3.7543    1.9699   18.9823 H   0  0  0  0  0  0  0  0  0  0  0  0
  1  2  1  0
  2  3  2  0
  3  4  1  0
  4  5  1  0
  4  6  2  0
  6  7  1  0
  7  8  2  3
  8  9  1  0
  9 10  1  0
  9 11  1  0
  8 12  1  0
 12 13  1  0
 12 14  1  0
 14 15  2  0
 15 16  1  0
 15 17  1  0
 17 18  2  0
 18 19  1  0
 19 20  1  0
 19 21  2  0
 21 22  1  0
 21 23  1  0
 23 24  1  0
 23 25  2  0
 25 26  1  0
 25 27  1  0
 27 28  2  0
 28 29  1  0
  6 30  1  0
 30 31  1  0
 30 32  2  0
 32 33  1  0
 32  2  1  0
 28 14  1  0
 27 18  1  0
M  END
>  <plip>  (1) 
-0.13793103448275862

>  <filename>  (1) 
[H][c]1[n][c]([H])[c]([N]=[C]([N]([H])[H])[N]([H])[c]2[c]([H])[n][c]3[c]([H])[c]([H])[c]([H])[c]([H])[c]3[c]2[H])[c]([H])[c]1[H]

$$$$
