
     RDKit          3D

 44 46  0  0  0  0  0  0  0  0999 V2000
    8.1829   -1.7189   20.7040 O   0  0  0  0  0  0  0  0  0  0  0  0
    7.2951   -0.7008   21.1352 C   0  0  0  0  0  0  0  0  0  0  0  0
    8.0039    0.2627   22.1215 C   0  0  0  0  0  0  0  0  0  0  0  0
    8.9594    1.3405   21.5646 N   0  0  0  0  0  4  0  0  0  0  0  0
   10.1803    0.7590   20.8737 C   0  0  0  0  0  0  0  0  0  0  0  0
   11.1360   -0.0420   21.7591 C   0  0  0  0  0  0  0  0  0  0  0  0
   11.8874    0.7952   22.8095 C   0  0  0  0  0  0  0  0  0  0  0  0
   11.0108    1.0314   24.0052 C   0  0  0  0  0  0  0  0  0  0  0  0
   10.5714    0.0508   24.8526 C   0  0  0  0  0  0  0  0  0  0  0  0
    9.7048    0.5783   25.7871 N   0  0  0  0  0  0  0  0  0  0  0  0
    9.5983    1.9308   25.5758 C   0  0  0  0  0  0  0  0  0  0  0  0
    8.8844    2.9019   26.2987 C   0  0  0  0  0  0  0  0  0  0  0  0
    8.9676    4.2192   25.8588 C   0  0  0  0  0  0  0  0  0  0  0  0
    9.7191    4.5655   24.7062 C   0  0  0  0  0  0  0  0  0  0  0  0
   10.4187    3.5960   23.9931 C   0  0  0  0  0  0  0  0  0  0  0  0
   10.3866    2.2561   24.4433 C   0  0  0  0  0  0  0  0  0  0  0  0
   10.9635    3.8370   23.0784 H   0  0  0  0  0  0  0  0  0  0  0  0
    9.7441    5.5971   24.3624 H   0  0  0  0  0  0  0  0  0  0  0  0
    8.4568    5.0023   26.4155 H   0  0  0  0  0  0  0  0  0  0  0  0
    8.3234    2.6219   27.1896 H   0  0  0  0  0  0  0  0  0  0  0  0
    9.4369    0.1420   26.6563 H   0  0  0  0  0  0  0  0  0  0  0  0
   10.7967   -1.0134   24.8340 H   0  0  0  0  0  0  0  0  0  0  0  0
   12.8031    0.2734   23.1235 H   0  0  0  0  0  0  0  0  0  0  0  0
   12.2261    1.7447   22.3690 H   0  0  0  0  0  0  0  0  0  0  0  0
   10.5940   -0.8521   22.2635 H   0  0  0  0  0  0  0  0  0  0  0  0
   11.8579   -0.5368   21.1036 H   0  0  0  0  0  0  0  0  0  0  0  0
   10.7422    1.5786   20.4151 H   0  0  0  0  0  0  0  0  0  0  0  0
    9.8286    0.1113   20.0650 H   0  0  0  0  0  0  0  0  0  0  0  0
    8.4100    1.9210   20.8803 H   0  0  0  0  0  0  0  0  0  0  0  0
    9.2515    1.9862   22.3422 H   0  0  0  0  0  0  0  0  0  0  0  0
    8.5590   -0.3586   22.8240 H   0  0  0  0  0  0  0  0  0  0  0  0
    7.2348    0.7803   22.6933 H   0  0  0  0  0  0  0  0  0  0  0  0
    6.6217   -0.0348   19.9564 C   0  0  0  0  0  0  0  0  0  0  0  0
    5.4137    0.6478   20.1537 C   0  0  0  0  0  0  0  0  0  0  0  0
    4.8287    1.3065   19.0742 C   0  0  0  0  0  0  0  0  0  0  0  0
    5.4679    1.2736   17.8329 C   0  0  0  0  0  0  0  0  0  0  0  0
    6.6196    0.6206   17.6212 N   0  0  0  0  0  0  0  0  0  0  0  0
    7.1668   -0.0234   18.6603 C   0  0  0  0  0  0  0  0  0  0  0  0
    8.1014   -0.5461   18.4459 H   0  0  0  0  0  0  0  0  0  0  0  0
    5.0443    1.8059   16.9801 H   0  0  0  0  0  0  0  0  0  0  0  0
    3.9030    1.8552   19.1821 H   0  0  0  0  0  0  0  0  0  0  0  0
    4.9316    0.6524   21.1340 H   0  0  0  0  0  0  0  0  0  0  0  0
    6.5062   -1.1569   21.7521 H   0  0  0  0  0  0  0  0  0  0  0  0
    7.7509   -2.1371   19.9439 H   0  0  0  0  0  0  0  0  0  0  0  0
  1  2  1  0
  2  3  1  0
  3  4  1  0
  4  5  1  0
  5  6  1  0
  6  7  1  0
  7  8  1  0
  8  9  2  0
  9 10  1  0
 10 11  1  0
 11 12  2  0
 12 13  1  0
 13 14  2  0
 14 15  1  0
 15 16  2  0
 15 17  1  0
 14 18  1  0
 13 19  1  0
 12 20  1  0
 10 21  1  0
  9 22  1  0
  7 23  1  0
  7 24  1  0
  6 25  1  0
  6 26  1  0
  5 27  1  0
  5 28  1  0
  4 29  1  0
  4 30  1  0
  3 31  1  0
  3 32  1  0
  2 33  1  0
 33 34  2  0
 34 35  1  0
 35 36  2  0
 36 37  1  0
 37 38  2  0
 38 39  1  0
 36 40  1  0
 35 41  1  0
 34 42  1  0
  2 43  1  0
  1 44  1  0
 16  8  1  0
 38 33  1  0
 16 11  1  0
M  CHG  1   4   1
M  END
>  <plip>  (1) 
-0.1724137931034483

>  <filename>  (1) 
[H][O][C]([H])([c]1[c]([H])[n][c]([H])[c]([H])[c]1[H])[C]([H])([H])[N+]([H])([H])[C]([H])([H])[C]([H])([H])[C]([H])([H])[c]1[c]([H])[n]([H])[c]2[c]([H])[c]([H])[c]([H])[c]([H])[c]12

$$$$
