
     RDKit          3D

 42 44  0  0  0  0  0  0  0  0999 V2000
    9.3044   -3.2102   24.2861 C   0  0  0  0  0  0  0  0  0  0  0  0
    8.9515   -1.8938   24.9502 C   0  0  0  0  0  0  0  0  0  0  0  0
    8.1855   -1.0563   24.0602 O   0  0  0  0  0  0  0  0  0  0  0  0
    8.8288   -0.4903   23.0214 C   0  0  0  0  0  0  0  0  0  0  0  0
   10.0172   -0.5734   22.8162 O   0  0  0  0  0  0  0  0  0  0  0  0
    7.8684    0.2165   22.1088 C   0  0  0  0  0  0  0  0  0  0  0  0
    7.2780   -0.7834   21.1084 C   0  0  1  0  0  0  0  0  0  0  0  0
    6.4598   -1.7641   21.7865 N   0  0  0  0  0  0  0  0  0  0  0  0
    6.0515   -2.8675   21.1238 C   0  0  0  0  0  0  0  0  0  0  0  0
    6.1146   -2.9620   19.9019 O   0  0  0  0  0  0  0  0  0  0  0  0
    5.5429   -4.0021   21.9240 C   0  0  0  0  0  0  0  0  0  0  0  0
    5.2236   -5.2132   21.3766 C   0  0  0  0  0  0  0  0  0  0  0  0
    4.5380   -6.3292   22.4836 S   0  0  0  0  0  0  0  0  0  0  0  0
    4.6881   -5.1789   23.7815 C   0  0  0  0  0  0  0  0  0  0  0  0
    4.3350   -5.3397   25.1299 C   0  0  0  0  0  0  0  0  0  0  0  0
    4.6596   -4.2898   25.9797 C   0  0  0  0  0  0  0  0  0  0  0  0
    5.3075   -3.1484   25.4689 C   0  0  0  0  0  0  0  0  0  0  0  0
    5.6206   -2.9682   24.1889 N   0  0  0  0  0  0  0  0  0  0  0  0
    5.2968   -3.9736   23.3379 C   0  0  0  0  0  0  0  0  0  0  0  0
    5.5800   -2.3536   26.1591 H   0  0  0  0  0  0  0  0  0  0  0  0
    4.4330   -4.3543   27.0372 H   0  0  0  0  0  0  0  0  0  0  0  0
    3.8378   -6.2392   25.4996 H   0  0  0  0  0  0  0  0  0  0  0  0
    5.3835   -5.5196   20.3452 H   0  0  0  0  0  0  0  0  0  0  0  0
    6.3297   -1.7788   22.7936 H   0  0  0  0  0  0  0  0  0  0  0  0
    6.5424   -0.0687   19.9933 C   0  0  0  0  0  0  0  0  0  0  0  0
    5.3416    0.6211   20.1807 C   0  0  0  0  0  0  0  0  0  0  0  0
    4.7869    1.3045   19.0965 C   0  0  0  0  0  0  0  0  0  0  0  0
    5.4508    1.2737   17.8646 C   0  0  0  0  0  0  0  0  0  0  0  0
    6.5982    0.6111   17.6603 N   0  0  0  0  0  0  0  0  0  0  0  0
    7.1112   -0.0403   18.7121 C   0  0  0  0  0  0  0  0  0  0  0  0
    8.0487   -0.5689   18.5305 H   0  0  0  0  0  0  0  0  0  0  0  0
    5.0430    1.8021   17.0051 H   0  0  0  0  0  0  0  0  0  0  0  0
    3.8645    1.8606   19.1951 H   0  0  0  0  0  0  0  0  0  0  0  0
    4.8557    0.6179   21.1595 H   0  0  0  0  0  0  0  0  0  0  0  0
    8.1104   -1.3155   20.6145 H   0  0  0  0  0  0  0  0  0  0  0  0
    8.4202    0.9851   21.5658 H   0  0  0  0  0  0  0  0  0  0  0  0
    7.0679    0.6876   22.6812 H   0  0  0  0  0  0  0  0  0  0  0  0
    9.8447   -1.3497   25.2791 H   0  0  0  0  0  0  0  0  0  0  0  0
    8.2840   -2.0335   25.8042 H   0  0  0  0  0  0  0  0  0  0  0  0
    9.8446   -3.8460   24.9941 H   0  0  0  0  0  0  0  0  0  0  0  0
    8.3991   -3.7360   23.9615 H   0  0  0  0  0  0  0  0  0  0  0  0
    9.9468   -3.0324   23.4186 H   0  0  0  0  0  0  0  0  0  0  0  0
  1  2  1  0
  2  3  1  0
  3  4  1  0
  4  5  2  0
  4  6  1  0
  6  7  1  0
  7  8  1  0
  8  9  1  0
  9 10  2  0
  9 11  1  0
 11 12  2  0
 12 13  1  0
 13 14  1  0
 14 15  2  0
 15 16  1  0
 16 17  2  0
 17 18  1  0
 18 19  2  0
 17 20  1  0
 16 21  1  0
 15 22  1  0
 12 23  1  0
  8 24  1  0
  7 25  1  0
 25 26  2  0
 26 27  1  0
 27 28  2  0
 28 29  1  0
 29 30  2  0
 30 31  1  0
 28 32  1  0
 27 33  1  0
 26 34  1  0
  7 35  1  6
  6 36  1  0
  6 37  1  0
  2 38  1  0
  2 39  1  0
  1 40  1  0
  1 41  1  0
  1 42  1  0
 19 11  1  0
 30 25  1  0
 19 14  1  0
M  END
>  <plip>  (1) 
-0.13793103448275862

>  <filename>  (1) 
[H][c]1[n][c]([H])[c]([C@]([H])([N]([H])[C](=[O])[c]2[c]([H])[s][c]3[c]([H])[c]([H])[c]([H])[n][c]23)[C]([H])([H])[C](=[O])[O][C]([H])([H])[C]([H])([H])[H])[c]([H])[c]1[H]

$$$$
