
     RDKit          3D

 32 33  0  0  0  0  0  0  0  0999 V2000
    4.9913    1.8398   16.9198 H   0  0  0  0  0  0  0  0  0  0  0  0
    5.4225    1.3058   17.7632 C   0  0  0  0  0  0  0  0  0  0  0  0
    6.5533    0.6297   17.5093 N   0  0  0  0  0  0  0  0  0  0  0  0
    7.1067   -0.0414   18.5285 C   0  0  0  0  0  0  0  0  0  0  0  0
    8.0235   -0.5930   18.3013 H   0  0  0  0  0  0  0  0  0  0  0  0
    6.5796   -0.0761   19.8288 C   0  0  0  0  0  0  0  0  0  0  0  0
    7.2781   -0.7738   20.9697 C   0  0  0  0  0  0  0  0  0  0  0  0
    6.5543   -1.3580   21.5520 H   0  0  0  0  0  0  0  0  0  0  0  0
    8.0236   -1.4911   20.5991 H   0  0  0  0  0  0  0  0  0  0  0  0
    7.9679    0.2277   21.9200 C   0  0  1  0  0  0  0  0  0  0  0  0
    7.2351    0.9052   22.3718 H   0  0  0  0  0  0  0  0  0  0  0  0
    8.6353   -0.7296   23.3025 Cl  0  0  0  0  0  0  0  0  0  0  0  0
    9.0384    1.0896   21.2158 C   0  0  0  0  0  0  0  0  0  0  0  0
    9.7077    0.4163   20.6622 H   0  0  0  0  0  0  0  0  0  0  0  0
    8.5090    1.6842   20.4585 H   0  0  0  0  0  0  0  0  0  0  0  0
    9.8102    1.9683   22.0630 N   0  0  0  0  0  0  0  0  0  0  0  0
    9.4940    2.9212   22.1710 H   0  0  0  0  0  0  0  0  0  0  0  0
   11.1243    1.7422   22.4339 C   0  0  0  0  0  0  0  0  0  0  0  0
   11.6660    0.4398   22.4172 C   0  0  0  0  0  0  0  0  0  0  0  0
   10.9947   -0.3894   22.2228 H   0  0  0  0  0  0  0  0  0  0  0  0
   13.0200    0.2403   22.6885 C   0  0  0  0  0  0  0  0  0  0  0  0
   13.4268   -0.7660   22.6193 H   0  0  0  0  0  0  0  0  0  0  0  0
   13.8428    1.3196   23.0257 C   0  0  0  0  0  0  0  0  0  0  0  0
   14.8943    1.1338   23.2045 H   0  0  0  0  0  0  0  0  0  0  0  0
   13.2895    2.6072   23.1247 C   0  0  0  0  0  0  0  0  0  0  0  0
   13.9157    3.4503   23.4078 H   0  0  0  0  0  0  0  0  0  0  0  0
   11.9370    2.8167   22.8472 C   0  0  0  0  0  0  0  0  0  0  0  0
   11.4974    3.8100   22.9438 H   0  0  0  0  0  0  0  0  0  0  0  0
    5.3980    0.6401   20.0703 C   0  0  0  0  0  0  0  0  0  0  0  0
    4.9761    0.6503   21.0780 H   0  0  0  0  0  0  0  0  0  0  0  0
    4.8034    1.3356   19.0171 C   0  0  0  0  0  0  0  0  0  0  0  0
    3.8897    1.9030   19.1591 H   0  0  0  0  0  0  0  0  0  0  0  0
  1  2  1  0
  2  3  2  0
  3  4  1  0
  4  5  1  0
  4  6  2  0
  6  7  1  0
  7  8  1  0
  7  9  1  0
  7 10  1  0
 10 11  1  1
 10 12  1  0
 10 13  1  0
 13 14  1  0
 13 15  1  0
 13 16  1  0
 16 17  1  0
 16 18  1  0
 18 19  2  0
 19 20  1  0
 19 21  1  0
 21 22  1  0
 21 23  2  0
 23 24  1  0
 23 25  1  0
 25 26  1  0
 25 27  2  0
 27 28  1  0
  6 29  1  0
 29 30  1  0
 29 31  2  0
 31 32  1  0
 31  2  1  0
 27 18  1  0
M  END
>  <plip>  (1) 
-0.14285714285714285

>  <filename>  (1) 
[H][c]1[n][c]([H])[c]([C]([H])([H])[C@@]([H])([Cl])[C]([H])([H])[N]([H])[c]2[c]([H])[c]([H])[c]([H])[c]([H])[c]2[H])[c]([H])[c]1[H]

$$$$
