
     RDKit          3D

 35 37  0  0  0  0  0  0  0  0999 V2000
    4.9109    1.7714   17.0055 H   0  0  0  0  0  0  0  0  0  0  0  0
    5.4046    1.2889   17.8471 C   0  0  0  0  0  0  0  0  0  0  0  0
    6.5726    0.6746   17.5946 N   0  0  0  0  0  0  0  0  0  0  0  0
    7.1801    0.0571   18.6139 C   0  0  0  0  0  0  0  0  0  0  0  0
    8.1262   -0.4315   18.3764 H   0  0  0  0  0  0  0  0  0  0  0  0
    6.6601    0.0038   19.9213 C   0  0  0  0  0  0  0  0  0  0  0  0
    7.3599   -0.7012   21.0067 C   0  0  0  0  0  0  0  0  0  0  0  0
    6.9072   -0.7570   22.2358 N   0  0  0  0  0  0  0  0  0  0  0  0
    7.7781   -1.4772   23.0093 C   0  0  0  0  0  0  0  0  0  0  0  0
    7.4791   -1.7410   24.4636 C   0  0  0  0  0  0  0  0  0  0  0  0
    8.4016   -1.6568   25.0478 H   0  0  0  0  0  0  0  0  0  0  0  0
    6.7873   -0.9744   24.8324 H   0  0  0  0  0  0  0  0  0  0  0  0
    6.8642   -3.1338   24.6944 C   0  0  0  0  0  0  0  0  0  0  0  0
    6.8025   -3.3308   25.7739 H   0  0  0  0  0  0  0  0  0  0  0  0
    7.5300   -3.8997   24.2750 H   0  0  0  0  0  0  0  0  0  0  0  0
    5.4682   -3.2777   24.0773 C   0  0  0  0  0  0  0  0  0  0  0  0
    4.8096   -2.5034   24.4928 H   0  0  0  0  0  0  0  0  0  0  0  0
    5.5135   -3.1014   22.9944 H   0  0  0  0  0  0  0  0  0  0  0  0
    4.8829   -4.6382   24.3517 C   0  0  0  0  0  0  0  0  0  0  0  0
    4.1417   -4.8752   25.5195 C   0  0  0  0  0  0  0  0  0  0  0  0
    3.9535   -4.0591   26.2169 H   0  0  0  0  0  0  0  0  0  0  0  0
    3.6416   -6.1499   25.7977 C   0  0  0  0  0  0  0  0  0  0  0  0
    3.0598   -6.3186   26.7004 H   0  0  0  0  0  0  0  0  0  0  0  0
    3.8911   -7.2057   24.9155 C   0  0  0  0  0  0  0  0  0  0  0  0
    3.5004   -8.1958   25.1307 H   0  0  0  0  0  0  0  0  0  0  0  0
    4.6473   -6.9852   23.7607 C   0  0  0  0  0  0  0  0  0  0  0  0
    4.8500   -7.8030   23.0770 H   0  0  0  0  0  0  0  0  0  0  0  0
    5.1450   -5.7098   23.4847 C   0  0  0  0  0  0  0  0  0  0  0  0
    5.7429   -5.5473   22.5886 H   0  0  0  0  0  0  0  0  0  0  0  0
    8.8502   -1.9898   22.4568 N   0  0  0  0  0  0  0  0  0  0  0  0
    8.8582   -1.5617   20.8493 S   0  0  0  0  0  0  0  0  0  0  0  0
    5.4360    0.6543   20.1630 C   0  0  0  0  0  0  0  0  0  0  0  0
    5.0053    0.6309   21.1615 H   0  0  0  0  0  0  0  0  0  0  0  0
    4.8039    1.3117   19.1107 C   0  0  0  0  0  0  0  0  0  0  0  0
    3.8703    1.8462   19.2661 H   0  0  0  0  0  0  0  0  0  0  0  0
  1  2  1  0
  2  3  2  0
  3  4  1  0
  4  5  1  0
  4  6  2  0
  6  7  1  0
  7  8  2  0
  8  9  1  0
  9 10  1  0
 10 11  1  0
 10 12  1  0
 10 13  1  0
 13 14  1  0
 13 15  1  0
 13 16  1  0
 16 17  1  0
 16 18  1  0
 16 19  1  0
 19 20  2  0
 20 21  1  0
 20 22  1  0
 22 23  1  0
 22 24  2  0
 24 25  1  0
 24 26  1  0
 26 27  1  0
 26 28  2  0
 28 29  1  0
  9 30  2  0
 30 31  1  0
  6 32  1  0
 32 33  1  0
 32 34  2  0
 34 35  1  0
 34  2  1  0
 31  7  1  0
 28 19  1  0
M  END
>  <plip>  (1) 
-0.07142857142857142

>  <filename>  (1) 
[H][c]1[n][c]([H])[c](-[c]2[n][c]([C]([H])([H])[C]([H])([H])[C]([H])([H])[c]3[c]([H])[c]([H])[c]([H])[c]([H])[c]3[H])[n][s]2)[c]([H])[c]1[H]

$$$$
