
     RDKit          3D

 32 33  0  0  0  0  0  0  0  0999 V2000
   11.7123   -2.8939   22.4517 H   0  0  0  0  0  0  0  0  0  0  0  0
   10.9518   -3.0146   23.0298 O   0  0  0  0  0  0  0  0  0  0  0  0
   10.4261   -1.7604   23.3958 C   0  0  0  0  0  0  0  0  0  0  0  0
   10.9177   -1.3911   24.3147 H   0  0  0  0  0  0  0  0  0  0  0  0
    8.9536   -1.9953   23.7209 C   0  0  0  0  0  0  0  0  0  0  0  0
    8.8539   -2.7229   24.5349 H   0  0  0  0  0  0  0  0  0  0  0  0
    8.4727   -2.4155   22.8263 H   0  0  0  0  0  0  0  0  0  0  0  0
    8.2952   -0.6560   24.0857 C   0  0  0  0  0  0  0  0  0  0  0  0
    7.2269   -0.7677   24.3091 H   0  0  0  0  0  0  0  0  0  0  0  0
    8.7719   -0.2477   24.9944 H   0  0  0  0  0  0  0  0  0  0  0  0
    8.4434    0.3239   23.0094 N   0  0  0  0  0  0  0  0  0  0  0  0
    7.4248    0.3578   22.0043 C   0  0  0  0  0  0  0  0  0  0  0  0
    6.4410    0.4971   22.4632 H   0  0  0  0  0  0  0  0  0  0  0  0
    7.6278    1.1846   21.3174 H   0  0  0  0  0  0  0  0  0  0  0  0
    7.1758   -1.0940   20.8428 S   0  0  0  0  0  4  0  0  0  0  0  0
    6.1554   -2.0562   21.3830 O   0  0  0  0  0  0  0  0  0  0  0  0
    6.3543   -0.1030   19.5866 C   0  0  0  0  0  0  0  0  0  0  0  0
    6.9988    0.0409   18.3587 C   0  0  0  0  0  0  0  0  0  0  0  0
    7.9286   -0.4994   18.1724 H   0  0  0  0  0  0  0  0  0  0  0  0
    6.5611    0.8477   17.3842 N   0  0  0  0  0  0  0  0  0  0  0  0
    5.4409    1.5506   17.6184 C   0  0  0  0  0  0  0  0  0  0  0  0
    5.1100    2.2133   16.8178 H   0  0  0  0  0  0  0  0  0  0  0  0
    4.7097    1.4578   18.8074 C   0  0  0  0  0  0  0  0  0  0  0  0
    3.8331    2.0810   18.9471 H   0  0  0  0  0  0  0  0  0  0  0  0
    5.1522    0.5909   19.8118 C   0  0  0  0  0  0  0  0  0  0  0  0
    4.5950    0.4906   20.7437 H   0  0  0  0  0  0  0  0  0  0  0  0
    9.8278    0.5765   22.6084 C   0  0  0  0  0  0  0  0  0  0  0  0
    9.8235    1.2572   21.7479 H   0  0  0  0  0  0  0  0  0  0  0  0
   10.3233    1.1244   23.4229 H   0  0  0  0  0  0  0  0  0  0  0  0
   10.5860   -0.7220   22.2757 C   0  0  0  0  0  0  0  0  0  0  0  0
   10.1471   -1.1475   21.3612 H   0  0  0  0  0  0  0  0  0  0  0  0
   11.6521   -0.5231   22.0928 H   0  0  0  0  0  0  0  0  0  0  0  0
  1  2  1  0
  2  3  1  0
  3  4  1  0
  3  5  1  0
  5  6  1  0
  5  7  1  0
  5  8  1  0
  8  9  1  0
  8 10  1  0
  8 11  1  0
 11 12  1  0
 12 13  1  0
 12 14  1  0
 15 12  1  1
 15 16  2  0
 15 17  1  0
 17 18  2  0
 18 19  1  0
 18 20  1  0
 20 21  2  0
 21 22  1  0
 21 23  1  0
 23 24  1  0
 23 25  2  0
 25 26  1  0
 11 27  1  0
 27 28  1  0
 27 29  1  0
 27 30  1  0
 30 31  1  0
 30 32  1  0
 30  3  1  0
 25 17  1  0
M  END
>  <plip>  (1) 
-0.034482758620689655

>  <filename>  (1) 
[H][O][C]1([H])[C]([H])([H])[C]([H])([H])[N]([C]([H])([H])[S@@](=[O])[c]2[c]([H])[n][c]([H])[c]([H])[c]2[H])[C]([H])([H])[C]1([H])[H]

$$$$
