
     RDKit          3D

 46 49  0  0  0  0  0  0  0  0999 V2000
    6.9569   -3.1349   19.8370 H   0  0  0  0  0  0  0  0  0  0  0  0
    6.1943   -2.5510   19.9108 O   0  0  0  0  0  0  0  0  0  0  0  0
    6.4574   -1.8550   21.1081 C   0  0  1  0  0  0  0  0  0  0  0  0
    5.4843   -1.4876   21.4818 H   0  0  0  0  0  0  0  0  0  0  0  0
    7.0306   -2.7800   22.0647 N   0  0  0  0  0  0  0  0  0  0  0  0
    7.9191   -3.8698   21.6632 C   0  0  0  0  0  0  0  0  0  0  0  0
    8.8386   -3.4770   21.2082 H   0  0  0  0  0  0  0  0  0  0  0  0
    7.4570   -4.5617   20.9332 H   0  0  0  0  0  0  0  0  0  0  0  0
    8.1878   -4.6289   22.9757 C   0  0  0  0  0  0  0  0  0  0  0  0
    8.2079   -5.7067   22.7937 H   0  0  0  0  0  0  0  0  0  0  0  0
    9.1612   -4.3346   23.3777 H   0  0  0  0  0  0  0  0  0  0  0  0
    7.0464   -4.2207   23.9443 C   0  0  2  0  0  0  0  0  0  0  0  0
    7.4683   -3.7131   24.8123 H   0  0  0  0  0  0  0  0  0  0  0  0
    6.0586   -5.3016   24.3904 C   0  0  0  0  0  0  0  0  0  0  0  0
    6.5482   -6.2163   24.7415 H   0  0  0  0  0  0  0  0  0  0  0  0
    5.4609   -4.9100   25.2417 H   0  0  0  0  0  0  0  0  0  0  0  0
    5.2335   -5.5245   23.2037 N   0  0  0  0  0  0  0  0  0  0  0  0
    4.0517   -6.3456   23.3738 C   0  0  0  0  0  0  0  0  0  0  0  0
    4.3272   -7.3620   23.6780 H   0  0  0  0  0  0  0  0  0  0  0  0
    3.5238   -6.4191   22.4148 H   0  0  0  0  0  0  0  0  0  0  0  0
    3.3416   -5.9357   24.1199 H   0  0  0  0  0  0  0  0  0  0  0  0
    4.9470   -4.1825   22.6834 C   0  0  0  0  0  0  0  0  0  0  0  0
    4.0163   -3.7701   23.1172 H   0  0  0  0  0  0  0  0  0  0  0  0
    4.8187   -4.1894   21.5933 H   0  0  0  0  0  0  0  0  0  0  0  0
    6.1482   -3.2861   23.1169 C   0  0  2  0  0  0  0  0  0  0  0  0
    5.7687   -2.4563   23.7342 H   0  0  0  0  0  0  0  0  0  0  0  0
    7.2833   -0.5279   20.9223 C   0  0  0  0  0  0  0  0  0  0  0  0
    6.6557    0.2799   19.7965 C   0  0  0  0  0  0  0  0  0  0  0  0
    7.1778    0.2760   18.4892 C   0  0  0  0  0  0  0  0  0  0  0  0
    8.1235   -0.2253   18.2924 H   0  0  0  0  0  0  0  0  0  0  0  0
    6.5799    0.8297   17.4233 N   0  0  0  0  0  0  0  0  0  0  0  0
    5.4043    1.4438   17.6378 C   0  0  0  0  0  0  0  0  0  0  0  0
    4.9289    1.8770   16.7635 H   0  0  0  0  0  0  0  0  0  0  0  0
    4.7947    1.5238   18.8950 C   0  0  0  0  0  0  0  0  0  0  0  0
    3.8351    2.0180   18.9994 H   0  0  0  0  0  0  0  0  0  0  0  0
    5.4316    0.9384   19.9910 C   0  0  0  0  0  0  0  0  0  0  0  0
    4.9760    0.9760   20.9826 H   0  0  0  0  0  0  0  0  0  0  0  0
    8.8431   -0.6214   20.8888 C   0  0  0  0  0  0  0  0  0  0  0  0
    9.2592    0.0927   20.1732 H   0  0  0  0  0  0  0  0  0  0  0  0
    9.2782   -1.6053   20.6924 H   0  0  0  0  0  0  0  0  0  0  0  0
    8.9230   -0.0932   22.3361 C   0  0  0  0  0  0  0  0  0  0  0  0
    9.1676   -0.8799   23.0576 H   0  0  0  0  0  0  0  0  0  0  0  0
    9.5811    0.7643   22.4977 H   0  0  0  0  0  0  0  0  0  0  0  0
    7.4159    0.2297   22.2924 C   0  0  0  0  0  0  0  0  0  0  0  0
    7.1805    1.2949   22.2124 H   0  0  0  0  0  0  0  0  0  0  0  0
    6.8225   -0.1854   23.1156 H   0  0  0  0  0  0  0  0  0  0  0  0
  1  2  1  0
  2  3  1  0
  3  4  1  1
  3  5  1  0
  5  6  1  0
  6  7  1  0
  6  8  1  0
  6  9  1  0
  9 10  1  0
  9 11  1  0
  9 12  1  0
 12 13  1  1
 12 14  1  0
 14 15  1  0
 14 16  1  0
 14 17  1  0
 17 18  1  0
 18 19  1  0
 18 20  1  0
 18 21  1  0
 17 22  1  0
 22 23  1  0
 22 24  1  0
 22 25  1  0
 25 26  1  1
  3 27  1  0
 27 28  1  0
 28 29  2  0
 29 30  1  0
 29 31  1  0
 31 32  2  0
 32 33  1  0
 32 34  1  0
 34 35  1  0
 34 36  2  0
 36 37  1  0
 27 38  1  0
 38 39  1  0
 38 40  1  0
 38 41  1  0
 41 42  1  0
 41 43  1  0
 41 44  1  0
 44 45  1  0
 44 46  1  0
 25  5  1  0
 44 27  1  0
 25 12  1  0
 36 28  1  0
M  END
>  <plip>  (1) 
-0.10714285714285714

>  <filename>  (1) 
[H][O][C@@]([H])([N]1[C]([H])([H])[C]([H])([H])[C@]2([H])[C]([H])([H])[N]([C]([H])([H])[H])[C]([H])([H])[C@]12[H])[C]1([c]2[c]([H])[n][c]([H])[c]([H])[c]2[H])[C]([H])([H])[C]([H])([H])[C]1([H])[H]

$$$$
