
     RDKit          3D

 42 44  0  0  0  0  0  0  0  0999 V2000
    9.1459    0.7797   21.1264 C   0  0  0  0  0  0  0  0  0  0  0  0
    8.6034   -0.6076   21.5027 C   0  0  0  0  0  0  0  0  0  0  0  0
    9.3811   -1.6520   20.6984 C   0  0  0  0  0  0  0  0  0  0  0  0
    9.1976   -1.5349   19.6302 H   0  0  0  0  0  0  0  0  0  0  0  0
   10.4554   -1.5314   20.8683 H   0  0  0  0  0  0  0  0  0  0  0  0
    9.0981   -2.6631   21.0028 H   0  0  0  0  0  0  0  0  0  0  0  0
    7.0567   -0.6609   21.3266 C   0  0  0  0  0  0  0  0  0  0  0  0
    6.5372    0.0586   20.0985 C   0  0  0  0  0  0  0  0  0  0  0  0
    5.3590    0.8045   20.1802 C   0  0  0  0  0  0  0  0  0  0  0  0
    4.8961    1.4305   19.0270 C   0  0  0  0  0  0  0  0  0  0  0  0
    5.6024    1.2908   17.8277 C   0  0  0  0  0  0  0  0  0  0  0  0
    6.7361    0.5723   17.7412 N   0  0  0  0  0  0  0  0  0  0  0  0
    7.1895   -0.0230   18.8577 C   0  0  0  0  0  0  0  0  0  0  0  0
    8.1140   -0.5795   18.7763 H   0  0  0  0  0  0  0  0  0  0  0  0
    5.2269    1.7923   16.9427 H   0  0  0  0  0  0  0  0  0  0  0  0
    3.9884    2.0229   19.0410 H   0  0  0  0  0  0  0  0  0  0  0  0
    4.8129    0.8873   21.1199 H   0  0  0  0  0  0  0  0  0  0  0  0
    6.5016   -2.0267   21.3678 N   0  0  0  0  0  0  0  0  0  0  0  0
    5.8656   -2.6331   20.1946 C   0  0  0  0  0  0  0  0  0  0  0  0
    6.5630   -3.2976   19.6889 H   0  0  0  0  0  0  0  0  0  0  0  0
    5.0030   -3.2319   20.4780 H   0  0  0  0  0  0  0  0  0  0  0  0
    5.5138   -1.8662   19.4942 H   0  0  0  0  0  0  0  0  0  0  0  0
    6.3963   -2.6751   22.6027 C   0  0  0  0  0  0  0  0  0  0  0  0
    7.0629   -2.2505   23.5430 O   0  0  0  0  0  0  0  0  0  0  0  0
    5.4114   -3.7617   22.8523 C   0  0  0  0  0  0  0  0  0  0  0  0
    5.5557   -4.8027   23.7430 C   0  0  0  0  0  0  0  0  0  0  0  0
    7.0458   -5.1177   24.8965 Br  0  0  0  0  0  0  0  0  0  0  0  0
    4.4015   -5.5575   23.6612 N   0  0  0  0  0  0  0  0  0  0  0  0
    4.0880   -6.6991   24.3527 N   0  0  0  0  0  0  0  0  0  0  0  0
    2.8911   -7.2217   24.1449 C   0  0  0  0  0  0  0  0  0  0  0  0
    1.9179   -6.6306   23.2111 C   0  0  0  0  0  0  0  0  0  0  0  0
    2.2497   -5.4911   22.5023 C   0  0  0  0  0  0  0  0  0  0  0  0
    3.5799   -4.9271   22.7359 C   0  0  0  0  0  0  0  0  0  0  0  0
    4.1696   -3.8737   22.2178 N   0  0  0  0  0  0  0  0  0  0  0  0
    1.5460   -5.0243   21.8161 H   0  0  0  0  0  0  0  0  0  0  0  0
    0.9437   -7.0963   23.0995 H   0  0  0  0  0  0  0  0  0  0  0  0
    2.6074   -8.1257   24.6761 H   0  0  0  0  0  0  0  0  0  0  0  0
    6.6503   -0.1110   22.1890 H   0  0  0  0  0  0  0  0  0  0  0  0
    8.8211   -0.7903   22.5617 H   0  0  0  0  0  0  0  0  0  0  0  0
    9.0073    0.9601   20.0564 H   0  0  0  0  0  0  0  0  0  0  0  0
   10.2146    0.8542   21.3490 H   0  0  0  0  0  0  0  0  0  0  0  0
    8.6161    1.5588   21.6816 H   0  0  0  0  0  0  0  0  0  0  0  0
  1  2  1  0
  2  3  1  0
  3  4  1  0
  3  5  1  0
  3  6  1  0
  2  7  1  0
  7  8  1  0
  8  9  2  0
  9 10  1  0
 10 11  2  0
 11 12  1  0
 12 13  2  0
 13 14  1  0
 11 15  1  0
 10 16  1  0
  9 17  1  0
  7 18  1  0
 18 19  1  0
 19 20  1  0
 19 21  1  0
 19 22  1  0
 18 23  1  0
 23 24  2  0
 23 25  1  0
 25 26  2  0
 26 27  1  0
 26 28  1  0
 28 29  1  0
 29 30  2  0
 30 31  1  0
 31 32  2  0
 32 33  1  0
 33 34  2  0
 32 35  1  0
 31 36  1  0
 30 37  1  0
  7 38  1  0
  2 39  1  0
  1 40  1  0
  1 41  1  0
  1 42  1  0
 13  8  1  0
 34 25  1  0
 33 28  1  0
M  END
>  <plip>  (1) 
-0.06666666666666667

>  <filename>  (1) 
[H][c]1[n][c]([H])[c]([C]([H])([N]([C](=[O])[c]2[n][c]3[c]([H])[c]([H])[c]([H])[n][n]3[c]2[Br])[C]([H])([H])[H])[C]([H])([C]([H])([H])[H])[C]([H])([H])[H])[c]([H])[c]1[H]

$$$$
