
     RDKit          3D

 28 30  0  0  0  0  0  0  0  0999 V2000
    4.9126    1.7782   17.0001 H   0  0  0  0  0  0  0  0  0  0  0  0
    5.4029    1.2912   17.8428 C   0  0  0  0  0  0  0  0  0  0  0  0
    6.5652    0.6727   17.5850 N   0  0  0  0  0  0  0  0  0  0  0  0
    7.1859    0.0546   18.6003 C   0  0  0  0  0  0  0  0  0  0  0  0
    8.1272   -0.4369   18.3695 H   0  0  0  0  0  0  0  0  0  0  0  0
    6.6852    0.0118   19.9162 C   0  0  0  0  0  0  0  0  0  0  0  0
    7.2843   -0.6930   20.9474 O   0  0  0  0  0  0  0  0  0  0  0  0
    8.6531   -0.7612   21.0946 C   0  0  0  0  0  0  0  0  0  0  0  0
    9.6659    0.0866   20.6238 C   0  0  0  0  0  0  0  0  0  0  0  0
    9.5487    0.9523   19.9958 H   0  0  0  0  0  0  0  0  0  0  0  0
   10.8587   -0.3060   21.0654 N   0  0  0  0  0  0  0  0  0  0  0  0
   10.6139   -1.3815   21.8035 N   0  0  0  0  0  0  0  0  0  0  0  0
   11.3788   -1.8664   22.2565 H   0  0  0  0  0  0  0  0  0  0  0  0
    9.2928   -1.7090   21.8787 C   0  0  0  0  0  0  0  0  0  0  0  0
    8.7612   -2.8262   22.6500 C   0  0  0  0  0  0  0  0  0  0  0  0
    9.5964   -3.6127   23.4308 N   0  0  0  0  0  0  0  0  0  0  0  0
    8.9264   -4.5483   24.0175 C   0  0  0  0  0  0  0  0  0  0  0  0
    9.5331   -5.5979   24.8989 C   0  0  0  0  0  0  0  0  0  0  0  0
    8.8486   -5.9193   25.6853 H   0  0  0  0  0  0  0  0  0  0  0  0
   10.4537   -5.2194   25.3474 H   0  0  0  0  0  0  0  0  0  0  0  0
    9.7857   -6.4847   24.3095 H   0  0  0  0  0  0  0  0  0  0  0  0
    7.2178   -4.5500   23.6650 S   0  0  0  0  0  0  0  0  0  0  0  0
    7.4449   -3.1896   22.6540 C   0  0  0  0  0  0  0  0  0  0  0  0
    6.6525   -2.6980   22.1124 H   0  0  0  0  0  0  0  0  0  0  0  0
    5.4594    0.6414   20.1711 C   0  0  0  0  0  0  0  0  0  0  0  0
    5.0247    0.6159   21.1718 H   0  0  0  0  0  0  0  0  0  0  0  0
    4.8183    1.3025   19.1153 C   0  0  0  0  0  0  0  0  0  0  0  0
    3.8830    1.8351   19.2678 H   0  0  0  0  0  0  0  0  0  0  0  0
  1  2  1  0
  2  3  2  0
  3  4  1  0
  4  5  1  0
  4  6  2  0
  6  7  1  0
  7  8  1  0
  8  9  1  0
  9 10  1  0
  9 11  2  0
 11 12  1  0
 12 13  1  0
 12 14  1  0
 14 15  1  0
 15 16  1  0
 16 17  2  0
 17 18  1  0
 18 19  1  0
 18 20  1  0
 18 21  1  0
 17 22  1  0
 22 23  1  0
 23 24  1  0
  6 25  1  0
 25 26  1  0
 25 27  2  0
 27 28  1  0
 27  2  1  0
 14  8  2  0
 23 15  2  0
M  END
>  <plip>  (1) 
-0.10344827586206896

>  <filename>  (1) 
[H][c]1[n][c]([H])[c]([O][c]2[c]([H])[n][n]([H])[c]2-[c]2[n][c]([C]([H])([H])[H])[s][c]2[H])[c]([H])[c]1[H]

$$$$
