
     RDKit          3D

 46 49  0  0  0  0  0  0  0  0999 V2000
    8.1370    2.2359   24.4969 C   0  0  0  0  0  0  0  0  0  0  0  0
    7.9498    2.4923   22.9753 C   0  0  0  0  0  0  0  0  0  0  0  0
    8.3591    1.3698   22.0031 C   0  0  0  0  0  0  0  0  0  0  0  0
    9.0346    1.5841   21.0091 O   0  0  0  0  0  0  0  0  0  0  0  0
    7.7476    0.1526   22.1740 N   0  0  0  0  0  0  0  0  0  0  0  0
    7.1951   -0.4206   23.4022 C   0  0  0  0  0  0  0  0  0  0  0  0
    6.9318   -1.8823   23.0375 C   0  0  0  0  0  0  0  0  0  0  0  0
    6.6857   -1.8566   21.5288 C   0  0  0  0  0  0  0  0  0  0  0  0
    7.4821   -0.6644   20.9794 C   0  0  0  0  0  0  0  0  0  0  0  0
    6.7191    0.0801   19.8898 C   0  0  0  0  0  0  0  0  0  0  0  0
    5.4811    0.7025   20.1211 C   0  0  0  0  0  0  0  0  0  0  0  0
    4.8264    1.3300   19.0579 C   0  0  0  0  0  0  0  0  0  0  0  0
    5.4249    1.3096   17.7938 C   0  0  0  0  0  0  0  0  0  0  0  0
    6.5981    0.7110   17.5482 N   0  0  0  0  0  0  0  0  0  0  0  0
    7.2159    0.1264   18.5854 C   0  0  0  0  0  0  0  0  0  0  0  0
    8.1613   -0.3650   18.3487 H   0  0  0  0  0  0  0  0  0  0  0  0
    4.9407    1.7903   16.9435 H   0  0  0  0  0  0  0  0  0  0  0  0
    3.8726    1.8276   19.1874 H   0  0  0  0  0  0  0  0  0  0  0  0
    5.0268    0.7050   21.1164 H   0  0  0  0  0  0  0  0  0  0  0  0
    8.4529   -0.9762   20.5683 H   0  0  0  0  0  0  0  0  0  0  0  0
    6.9825   -2.7818   21.0363 H   0  0  0  0  0  0  0  0  0  0  0  0
    5.6181   -1.7062   21.3362 H   0  0  0  0  0  0  0  0  0  0  0  0
    6.0732   -2.2765   23.5888 H   0  0  0  0  0  0  0  0  0  0  0  0
    7.7991   -2.5000   23.2943 H   0  0  0  0  0  0  0  0  0  0  0  0
    7.8929   -0.3505   24.2466 H   0  0  0  0  0  0  0  0  0  0  0  0
    6.2551    0.0798   23.6866 H   0  0  0  0  0  0  0  0  0  0  0  0
    6.4724    2.8723   22.6179 C   0  0  0  0  0  0  0  0  0  0  0  0
    6.0980    4.2485   23.1134 C   0  0  0  0  0  0  0  0  0  0  0  0
    4.8257    4.5958   23.5805 C   0  0  0  0  0  0  0  0  0  0  0  0
    4.5348    5.9101   23.9611 C   0  0  0  0  0  0  0  0  0  0  0  0
    5.5328    6.8895   23.8657 C   0  0  0  0  0  0  0  0  0  0  0  0
    6.8068    6.5639   23.3934 C   0  0  0  0  0  0  0  0  0  0  0  0
    7.0844    5.2470   23.0114 C   0  0  0  0  0  0  0  0  0  0  0  0
    8.3521    4.8823   22.5288 N   0  0  0  0  0  0  0  0  0  0  0  0
    8.9121    3.6311   22.6490 C   0  0  0  0  0  0  0  0  0  0  0  0
   10.1159    3.5145   22.6506 O   0  0  0  0  0  0  0  0  0  0  0  0
    9.0847    5.5702   22.4912 H   0  0  0  0  0  0  0  0  0  0  0  0
    7.5880    7.3172   23.3271 H   0  0  0  0  0  0  0  0  0  0  0  0
    5.3081    7.9141   24.1540 H   0  0  0  0  0  0  0  0  0  0  0  0
    3.5374    6.1665   24.3120 H   0  0  0  0  0  0  0  0  0  0  0  0
    4.0439    3.8376   23.6407 H   0  0  0  0  0  0  0  0  0  0  0  0
    6.3625    2.8740   21.5183 H   0  0  0  0  0  0  0  0  0  0  0  0
    5.7781    2.1195   23.0161 H   0  0  0  0  0  0  0  0  0  0  0  0
    8.0387    3.1837   25.0420 H   0  0  0  0  0  0  0  0  0  0  0  0
    7.3929    1.5620   24.9256 H   0  0  0  0  0  0  0  0  0  0  0  0
    9.1407    1.8424   24.6879 H   0  0  0  0  0  0  0  0  0  0  0  0
  1  2  1  0
  2  3  1  0
  3  4  2  0
  3  5  1  0
  5  6  1  0
  6  7  1  0
  7  8  1  0
  8  9  1  0
  9 10  1  0
 10 11  2  0
 11 12  1  0
 12 13  2  0
 13 14  1  0
 14 15  2  0
 15 16  1  0
 13 17  1  0
 12 18  1  0
 11 19  1  0
  9 20  1  0
  8 21  1  0
  8 22  1  0
  7 23  1  0
  7 24  1  0
  6 25  1  0
  6 26  1  0
  2 27  1  0
 27 28  1  0
 28 29  2  0
 29 30  1  0
 30 31  2  0
 31 32  1  0
 32 33  2  0
 33 34  1  0
 34 35  1  0
 35 36  2  0
 34 37  1  0
 32 38  1  0
 31 39  1  0
 30 40  1  0
 29 41  1  0
 27 42  1  0
 27 43  1  0
  1 44  1  0
  1 45  1  0
  1 46  1  0
 35  2  1  0
  9  5  1  0
 15 10  1  0
 33 28  1  0
M  END
>  <plip>  (1) 
-0.07142857142857142

>  <filename>  (1) 
[H][c]1[n][c]([H])[c]([C]2([H])[N]([C](=[O])[C]3([C]([H])([H])[H])[C](=[O])[N]([H])[c]4[c]([H])[c]([H])[c]([H])[c]([H])[c]4[C]3([H])[H])[C]([H])([H])[C]([H])([H])[C]2([H])[H])[c]([H])[c]1[H]

$$$$
