
     RDKit          3D

 51 53  0  0  0  0  0  0  0  0999 V2000
   10.1653    1.6313   21.7077 C   0  0  0  0  0  0  0  0  0  0  0  0
    9.2308    0.7850   21.0634 O   0  0  0  0  0  0  0  0  0  0  0  0
    8.2468    0.2285   21.8850 C   0  0  0  0  0  0  0  0  0  0  0  0
    7.4444    1.2209   22.4942 O   0  0  0  0  0  0  0  0  0  0  0  0
    7.5142    1.3500   23.9014 C   0  0  0  0  0  0  0  0  0  0  0  0
    7.1918    0.4319   24.4196 H   0  0  0  0  0  0  0  0  0  0  0  0
    6.8223    2.1533   24.1663 H   0  0  0  0  0  0  0  0  0  0  0  0
    8.5195    1.6218   24.2586 H   0  0  0  0  0  0  0  0  0  0  0  0
    7.4059   -0.7209   20.9740 C   0  0  0  0  0  0  0  0  0  0  0  0
    6.5917   -1.6229   21.7950 N   0  0  0  0  0  0  0  0  0  0  0  0
    5.9253   -2.6903   21.2199 C   0  0  0  0  0  0  0  0  0  0  0  0
    6.0391   -2.9930   20.0491 O   0  0  0  0  0  0  0  0  0  0  0  0
    5.0616   -3.5001   22.1814 C   0  0  0  0  0  0  0  0  0  0  0  0
    5.7786   -4.6701   22.9094 C   0  0  0  0  0  0  0  0  0  0  0  0
    6.8901   -4.1313   23.8210 C   0  0  0  0  0  0  0  0  0  0  0  0
    7.5197   -5.2533   24.6399 C   0  0  0  0  0  0  0  0  0  0  0  0
    6.4871   -5.9837   25.4753 C   0  0  0  0  0  0  0  0  0  0  0  0
    6.8290   -6.5307   26.7168 C   0  0  0  0  0  0  0  0  0  0  0  0
    5.8970   -7.2528   27.4635 C   0  0  0  0  0  0  0  0  0  0  0  0
    4.6026   -7.4494   26.9689 C   0  0  0  0  0  0  0  0  0  0  0  0
    4.2451   -6.9252   25.7310 C   0  0  0  0  0  0  0  0  0  0  0  0
    5.1761   -6.1703   24.9888 C   0  0  0  0  0  0  0  0  0  0  0  0
    4.7617   -5.5631   23.6766 C   0  0  0  0  0  0  0  0  0  0  0  0
    3.6691   -5.7915   23.1895 O   0  0  0  0  0  0  0  0  0  0  0  0
    3.2544   -7.0924   25.3183 H   0  0  0  0  0  0  0  0  0  0  0  0
    3.8784   -8.0134   27.5458 H   0  0  0  0  0  0  0  0  0  0  0  0
    6.1896   -7.6833   28.4177 H   0  0  0  0  0  0  0  0  0  0  0  0
    7.8447   -6.4098   27.0896 H   0  0  0  0  0  0  0  0  0  0  0  0
    8.3179   -4.8626   25.2792 H   0  0  0  0  0  0  0  0  0  0  0  0
    7.9940   -5.9698   23.9556 H   0  0  0  0  0  0  0  0  0  0  0  0
    6.4587   -3.3900   24.5080 H   0  0  0  0  0  0  0  0  0  0  0  0
    7.6469   -3.6077   23.2241 H   0  0  0  0  0  0  0  0  0  0  0  0
    6.2175   -5.3666   22.1763 H   0  0  0  0  0  0  0  0  0  0  0  0
    4.6493   -2.8729   22.9727 H   0  0  0  0  0  0  0  0  0  0  0  0
    4.2144   -3.8836   21.6154 H   0  0  0  0  0  0  0  0  0  0  0  0
    6.0559   -1.1588   22.5183 H   0  0  0  0  0  0  0  0  0  0  0  0
    6.5956   -0.0201   19.8855 C   0  0  0  0  0  0  0  0  0  0  0  0
    5.3862    0.6528   20.1162 C   0  0  0  0  0  0  0  0  0  0  0  0
    4.7797    1.3151   19.0473 C   0  0  0  0  0  0  0  0  0  0  0  0
    5.3962    1.2916   17.7898 C   0  0  0  0  0  0  0  0  0  0  0  0
    6.5415    0.6428   17.5421 N   0  0  0  0  0  0  0  0  0  0  0  0
    7.1070    0.0061   18.5789 C   0  0  0  0  0  0  0  0  0  0  0  0
    8.0488   -0.4975   18.3592 H   0  0  0  0  0  0  0  0  0  0  0  0
    4.9638    1.8366   16.9527 H   0  0  0  0  0  0  0  0  0  0  0  0
    3.8570    1.8680   19.1748 H   0  0  0  0  0  0  0  0  0  0  0  0
    4.9375    0.6945   21.1135 H   0  0  0  0  0  0  0  0  0  0  0  0
    8.1594   -1.3421   20.4830 H   0  0  0  0  0  0  0  0  0  0  0  0
    8.7249   -0.4110   22.6535 H   0  0  0  0  0  0  0  0  0  0  0  0
   10.7321    1.0970   22.4838 H   0  0  0  0  0  0  0  0  0  0  0  0
    9.6920    2.5118   22.1588 H   0  0  0  0  0  0  0  0  0  0  0  0
   10.8685    1.9639   20.9432 H   0  0  0  0  0  0  0  0  0  0  0  0
  1  2  1  0
  2  3  1  0
  3  4  1  0
  4  5  1  0
  5  6  1  0
  5  7  1  0
  5  8  1  0
  3  9  1  0
  9 10  1  0
 10 11  1  0
 11 12  2  0
 11 13  1  0
 13 14  1  0
 14 15  1  0
 15 16  1  0
 16 17  1  0
 17 18  2  0
 18 19  1  0
 19 20  2  0
 20 21  1  0
 21 22  2  0
 22 23  1  0
 23 24  2  0
 21 25  1  0
 20 26  1  0
 19 27  1  0
 18 28  1  0
 16 29  1  0
 16 30  1  0
 15 31  1  0
 15 32  1  0
 14 33  1  0
 13 34  1  0
 13 35  1  0
 10 36  1  0
  9 37  1  0
 37 38  2  0
 38 39  1  0
 39 40  2  0
 40 41  1  0
 41 42  2  0
 42 43  1  0
 40 44  1  0
 39 45  1  0
 38 46  1  0
  9 47  1  0
  3 48  1  0
  1 49  1  0
  1 50  1  0
  1 51  1  0
 23 14  1  0
 42 37  1  0
 22 17  1  0
M  END
>  <plip>  (1) 
-0.2413793103448276

>  <filename>  (1) 
[H][c]1[n][c]([H])[c]([C]([H])([N]([H])[C](=[O])[C]([H])([H])[C]2([H])[C](=[O])[c]3[c]([H])[c]([H])[c]([H])[c]([H])[c]3[C]([H])([H])[C]2([H])[H])[C]([H])([O][C]([H])([H])[H])[O][C]([H])([H])[H])[c]([H])[c]1[H]

$$$$
