
     RDKit          3D

 34 35  0  0  0  0  0  0  0  0999 V2000
    8.6219    0.2212   21.2708 C   0  0  0  0  0  0  0  0  0  0  0  0
    7.1864   -0.2518   21.0369 C   0  0  2  0  0  0  0  0  0  0  0  0
    7.2449   -1.6354   20.5822 N   0  0  0  0  0  4  0  0  0  0  0  0
    7.0024   -2.6624   21.6156 C   0  0  0  0  0  0  0  0  0  0  0  0
    8.1824   -2.7470   22.5500 C   0  0  0  0  0  0  0  0  0  0  0  0
    7.9476   -2.7724   23.9381 C   0  0  0  0  0  0  0  0  0  0  0  0
    6.1684   -2.6102   24.6371 Br  0  0  0  0  0  0  0  0  0  0  0  0
    9.0220   -2.9245   24.8273 C   0  0  0  0  0  0  0  0  0  0  0  0
    8.8367   -2.9310   26.1849 O   0  0  0  0  0  0  0  0  0  0  0  0
    9.6899   -2.7768   26.6169 H   0  0  0  0  0  0  0  0  0  0  0  0
   10.3194   -3.0314   24.3373 C   0  0  0  0  0  0  0  0  0  0  0  0
   10.5843   -2.9271   22.9674 C   0  0  0  0  0  0  0  0  0  0  0  0
    9.5082   -2.8033   22.0758 C   0  0  0  0  0  0  0  0  0  0  0  0
    9.6983   -2.7577   21.0081 H   0  0  0  0  0  0  0  0  0  0  0  0
   11.6132   -2.9705   22.6094 H   0  0  0  0  0  0  0  0  0  0  0  0
   11.1282   -3.2193   25.0301 H   0  0  0  0  0  0  0  0  0  0  0  0
    6.8355   -3.6471   21.1574 H   0  0  0  0  0  0  0  0  0  0  0  0
    6.1031   -2.4390   22.2061 H   0  0  0  0  0  0  0  0  0  0  0  0
    8.1758   -1.7750   20.1940 H   0  0  0  0  0  0  0  0  0  0  0  0
    6.5661   -1.7341   19.8251 H   0  0  0  0  0  0  0  0  0  0  0  0
    6.5454    0.3932   19.8506 C   0  0  0  0  0  0  0  0  0  0  0  0
    5.3225    1.0708   19.9410 C   0  0  0  0  0  0  0  0  0  0  0  0
    4.7514    1.5405   18.7590 C   0  0  0  0  0  0  0  0  0  0  0  0
    5.4069    1.3443   17.5411 C   0  0  0  0  0  0  0  0  0  0  0  0
    6.5907    0.7099   17.4578 N   0  0  0  0  0  0  0  0  0  0  0  0
    7.1446    0.2537   18.5889 C   0  0  0  0  0  0  0  0  0  0  0  0
    8.0921   -0.2749   18.5197 H   0  0  0  0  0  0  0  0  0  0  0  0
    4.9481    1.7141   16.6303 H   0  0  0  0  0  0  0  0  0  0  0  0
    3.8015    2.0643   18.7617 H   0  0  0  0  0  0  0  0  0  0  0  0
    4.8180    1.2192   20.8956 H   0  0  0  0  0  0  0  0  0  0  0  0
    6.5895   -0.1162   21.9544 H   0  0  0  0  0  0  0  0  0  0  0  0
    9.0914   -0.3724   22.0605 H   0  0  0  0  0  0  0  0  0  0  0  0
    8.6372    1.2721   21.5716 H   0  0  0  0  0  0  0  0  0  0  0  0
    9.2250    0.1152   20.3642 H   0  0  0  0  0  0  0  0  0  0  0  0
  1  2  1  0
  2  3  1  0
  3  4  1  0
  4  5  1  0
  5  6  2  0
  6  7  1  0
  6  8  1  0
  8  9  1  0
  9 10  1  0
  8 11  2  0
 11 12  1  0
 12 13  2  0
 13 14  1  0
 12 15  1  0
 11 16  1  0
  4 17  1  0
  4 18  1  0
  3 19  1  0
  3 20  1  0
  2 21  1  0
 21 22  2  0
 22 23  1  0
 23 24  2  0
 24 25  1  0
 25 26  2  0
 26 27  1  0
 24 28  1  0
 23 29  1  0
 22 30  1  0
  2 31  1  1
  1 32  1  0
  1 33  1  0
  1 34  1  0
 13  5  1  0
 26 21  1  0
M  CHG  1   3   1
M  END
>  <plip>  (1) 
-0.03571428571428571

>  <filename>  (1) 
[H][O][c]1[c]([H])[c]([H])[c]([H])[c]([C]([H])([H])[N+]([H])([H])[C@]([H])([c]2[c]([H])[n][c]([H])[c]([H])[c]2[H])[C]([H])([H])[H])[c]1[Br]

$$$$
