
     RDKit          3D

 29 31  0  0  0  0  0  0  0  0999 V2000
    5.0766    1.8191   16.7361 H   0  0  0  0  0  0  0  0  0  0  0  0
    5.4883    1.3026   17.6008 C   0  0  0  0  0  0  0  0  0  0  0  0
    6.6012    0.5831   17.3880 N   0  0  0  0  0  0  0  0  0  0  0  0
    7.1493   -0.0308   18.4475 C   0  0  0  0  0  0  0  0  0  0  0  0
    8.0544   -0.5983   18.2344 H   0  0  0  0  0  0  0  0  0  0  0  0
    6.6354    0.0189   19.7612 C   0  0  0  0  0  0  0  0  0  0  0  0
    7.3642   -0.5804   20.8998 C   0  0  0  0  0  0  0  0  0  0  0  0
    6.5123   -1.0645   22.3405 S   0  0  0  0  0  0  0  0  0  0  0  0
    7.9774   -1.4676   23.1679 C   0  0  0  0  0  0  0  0  0  0  0  0
    7.9751   -2.0133   24.4430 N   0  0  0  0  0  0  0  0  0  0  0  0
    7.4269   -1.5406   25.1552 H   0  0  0  0  0  0  0  0  0  0  0  0
    8.7776   -3.0748   24.8866 C   0  0  0  0  0  0  0  0  0  0  0  0
    9.6248   -3.8445   24.0475 C   0  0  0  0  0  0  0  0  0  0  0  0
    9.6529   -3.6425   22.9782 H   0  0  0  0  0  0  0  0  0  0  0  0
   10.4047   -4.8416   24.4880 N   0  0  0  0  0  0  0  0  0  0  0  0
   10.3751   -5.1466   25.7941 C   0  0  0  0  0  0  0  0  0  0  0  0
   11.0331   -5.9463   26.1208 H   0  0  0  0  0  0  0  0  0  0  0  0
    9.5548   -4.4745   26.7045 C   0  0  0  0  0  0  0  0  0  0  0  0
    9.5840   -4.7602   27.7540 H   0  0  0  0  0  0  0  0  0  0  0  0
    8.7465   -3.4305   26.2462 C   0  0  0  0  0  0  0  0  0  0  0  0
    8.0629   -2.9024   26.9091 H   0  0  0  0  0  0  0  0  0  0  0  0
    9.0619   -1.1926   22.3790 C   0  0  0  0  0  0  0  0  0  0  0  0
   10.0667   -1.2633   22.7682 H   0  0  0  0  0  0  0  0  0  0  0  0
    8.7159   -0.7394   21.0773 C   0  0  0  0  0  0  0  0  0  0  0  0
    9.4440   -0.5427   20.2984 H   0  0  0  0  0  0  0  0  0  0  0  0
    5.4340    0.7417   19.9385 C   0  0  0  0  0  0  0  0  0  0  0  0
    4.9794    0.8116   20.9269 H   0  0  0  0  0  0  0  0  0  0  0  0
    4.8642    1.4027   18.8492 C   0  0  0  0  0  0  0  0  0  0  0  0
    3.9719    2.0130   18.9595 H   0  0  0  0  0  0  0  0  0  0  0  0
  1  2  1  0
  2  3  2  0
  3  4  1  0
  4  5  1  0
  4  6  2  0
  6  7  1  0
  7  8  1  0
  8  9  1  0
  9 10  1  0
 10 11  1  0
 10 12  1  0
 12 13  2  0
 13 14  1  0
 13 15  1  0
 15 16  2  0
 16 17  1  0
 16 18  1  0
 18 19  1  0
 18 20  2  0
 20 21  1  0
  9 22  2  0
 22 23  1  0
 22 24  1  0
 24 25  1  0
  6 26  1  0
 26 27  1  0
 26 28  2  0
 28 29  1  0
 28  2  1  0
 24  7  2  0
 20 12  1  0
M  END
>  <plip>  (1) 
-0.07142857142857142

>  <filename>  (1) 
[H][c]1[n][c]([H])[c](-[c]2[s][c]([N]([H])[c]3[c]([H])[n][c]([H])[c]([H])[c]3[H])[c]([H])[c]2[H])[c]([H])[c]1[H]

$$$$
