
     RDKit          3D

 34 36  0  0  0  0  0  0  0  0999 V2000
    4.3821   -7.1581   25.1043 H   0  0  0  0  0  0  0  0  0  0  0  0
    4.7509   -6.3124   25.6863 C   0  0  0  0  0  0  0  0  0  0  0  0
    5.3176   -5.3107   24.9946 N   0  0  0  0  0  0  0  0  0  0  0  0
    5.8018   -4.2521   25.6855 C   0  0  0  0  0  0  0  0  0  0  0  0
    6.4799   -3.0666   24.9522 C   0  0  0  0  0  0  0  0  0  0  0  0
    6.9205   -2.1058   25.5538 O   0  0  0  0  0  0  0  0  0  0  0  0
    6.5482   -3.1947   23.5813 N   0  0  0  0  0  0  0  0  0  0  0  0
    6.1422   -4.0301   23.1787 H   0  0  0  0  0  0  0  0  0  0  0  0
    7.3572   -2.3791   22.7636 N   0  0  0  0  0  0  0  0  0  0  0  0
    6.7063   -1.6309   21.7887 C   0  0  0  0  0  0  0  0  0  0  0  0
    5.6364   -1.8341   21.7231 H   0  0  0  0  0  0  0  0  0  0  0  0
    7.3429   -0.7356   20.9793 C   0  0  0  0  0  0  0  0  0  0  0  0
    6.6258   -0.0082   19.8777 C   0  0  0  0  0  0  0  0  0  0  0  0
    7.1317    0.0645   18.5558 C   0  0  0  0  0  0  0  0  0  0  0  0
    8.0894   -0.4009   18.3315 H   0  0  0  0  0  0  0  0  0  0  0  0
    6.5199    0.6815   17.5356 N   0  0  0  0  0  0  0  0  0  0  0  0
    5.3655    1.3116   17.7977 C   0  0  0  0  0  0  0  0  0  0  0  0
    4.9083    1.8415   16.9634 H   0  0  0  0  0  0  0  0  0  0  0  0
    4.7665    1.3232   19.0606 C   0  0  0  0  0  0  0  0  0  0  0  0
    3.8440    1.8766   19.2109 H   0  0  0  0  0  0  0  0  0  0  0  0
    5.4017    0.6468   20.1084 C   0  0  0  0  0  0  0  0  0  0  0  0
    4.9763    0.6612   21.1119 H   0  0  0  0  0  0  0  0  0  0  0  0
    8.7825   -0.4686   21.2458 C   0  0  0  0  0  0  0  0  0  0  0  0
    9.5206    0.3081   20.6741 O   0  0  0  0  0  0  0  0  0  0  0  0
    9.3152   -1.2069   22.2769 N   0  0  0  0  0  0  0  0  0  0  0  0
   10.2903   -1.0583   22.4550 H   0  0  0  0  0  0  0  0  0  0  0  0
    8.7525   -2.1945   23.0193 C   0  0  0  0  0  0  0  0  0  0  0  0
    9.4193   -2.8226   23.8027 O   0  0  0  0  0  0  0  0  0  0  0  0
    5.7299   -4.1724   27.0869 C   0  0  0  0  0  0  0  0  0  0  0  0
    6.1626   -3.3005   27.5721 H   0  0  0  0  0  0  0  0  0  0  0  0
    5.1208   -5.2105   27.7919 C   0  0  0  0  0  0  0  0  0  0  0  0
    5.0399   -5.1620   28.8768 H   0  0  0  0  0  0  0  0  0  0  0  0
    4.6207   -6.3054   27.0787 C   0  0  0  0  0  0  0  0  0  0  0  0
    4.1368   -7.1413   27.5767 H   0  0  0  0  0  0  0  0  0  0  0  0
  1  2  1  0
  2  3  2  0
  3  4  1  0
  4  5  1  0
  5  6  2  0
  5  7  1  0
  7  8  1  0
  7  9  1  0
  9 10  1  0
 10 11  1  0
 10 12  2  0
 12 13  1  0
 13 14  2  0
 14 15  1  0
 14 16  1  0
 16 17  2  0
 17 18  1  0
 17 19  1  0
 19 20  1  0
 19 21  2  0
 21 22  1  0
 12 23  1  0
 23 24  2  0
 23 25  1  0
 25 26  1  0
 25 27  1  0
 27 28  2  0
  4 29  2  0
 29 30  1  0
 29 31  1  0
 31 32  1  0
 31 33  2  0
 33 34  1  0
 33  2  1  0
 27  9  1  0
 21 13  1  0
M  END
>  <plip>  (1) 
-0.03571428571428571

>  <filename>  (1) 
[H][c]1[n][c]([C](=[O])[N]([H])[n]2[c]([H])[c](-[c]3[c]([H])[n][c]([H])[c]([H])[c]3[H])[c](=[O])[n]([H])[c]2=[O])[c]([H])[c]([H])[c]1[H]

$$$$
