
     RDKit          3D

 39 42  0  0  0  0  0  0  0  0999 V2000
    5.1013    1.8359   16.9818 H   0  0  0  0  0  0  0  0  0  0  0  0
    5.4484    1.2814   17.8541 C   0  0  0  0  0  0  0  0  0  0  0  0
    6.5904    0.5948   17.7076 N   0  0  0  0  0  0  0  0  0  0  0  0
    7.0503   -0.0551   18.7776 C   0  0  0  0  0  0  0  0  0  0  0  0
    7.9847   -0.5938   18.6340 H   0  0  0  0  0  0  0  0  0  0  0  0
    6.4209   -0.0809   20.0335 C   0  0  0  0  0  0  0  0  0  0  0  0
    7.1232   -0.7716   21.1295 C   0  0  0  0  0  0  0  0  0  0  0  0
    6.5187   -1.3926   22.1444 N   0  0  0  0  0  0  0  0  0  0  0  0
    7.5381   -1.8103   22.9115 N   0  0  0  0  0  0  0  0  0  0  0  0
    8.7559   -1.4852   22.4621 C   0  0  0  0  0  0  0  0  0  0  0  0
    8.5473   -0.7817   21.2984 C   0  0  0  0  0  0  0  0  0  0  0  0
    9.8008    0.1683   20.5405 S   0  0  0  0  0  0  0  0  0  0  0  0
    9.4652    1.8646   21.1699 C   0  0  0  0  0  0  0  0  0  0  0  0
    8.4821    2.1682   20.7949 H   0  0  0  0  0  0  0  0  0  0  0  0
   10.2376    2.4746   20.6900 H   0  0  0  0  0  0  0  0  0  0  0  0
    9.6177    1.9732   22.6654 C   0  0  0  0  0  0  0  0  0  0  0  0
    8.5398    1.8218   23.5553 C   0  0  0  0  0  0  0  0  0  0  0  0
    7.5180    1.7580   23.1819 H   0  0  0  0  0  0  0  0  0  0  0  0
    8.7661    1.7403   24.9341 C   0  0  0  0  0  0  0  0  0  0  0  0
    7.9324    1.6016   25.6231 H   0  0  0  0  0  0  0  0  0  0  0  0
   10.0726    1.8284   25.4275 C   0  0  0  0  0  0  0  0  0  0  0  0
   10.2561    1.7229   26.4865 H   0  0  0  0  0  0  0  0  0  0  0  0
   11.1472    2.0494   24.5604 C   0  0  0  0  0  0  0  0  0  0  0  0
   12.1591    2.1399   24.9500 H   0  0  0  0  0  0  0  0  0  0  0  0
   10.9149    2.1331   23.1889 C   0  0  0  0  0  0  0  0  0  0  0  0
   11.7503    2.3036   22.5105 H   0  0  0  0  0  0  0  0  0  0  0  0
    9.8145   -1.7258   23.4916 C   0  0  0  0  0  0  0  0  0  0  0  0
   10.5743   -2.4388   23.1567 H   0  0  0  0  0  0  0  0  0  0  0  0
   10.3187   -0.7768   23.7106 H   0  0  0  0  0  0  0  0  0  0  0  0
    9.0046   -2.2549   24.7077 C   0  0  0  0  0  0  0  0  0  0  0  0
    9.3221   -3.2629   24.9834 H   0  0  0  0  0  0  0  0  0  0  0  0
    9.1566   -1.6110   25.5768 H   0  0  0  0  0  0  0  0  0  0  0  0
    7.5007   -2.2532   24.2918 C   0  0  0  0  0  0  0  0  0  0  0  0
    7.0496   -3.2448   24.3674 H   0  0  0  0  0  0  0  0  0  0  0  0
    6.9153   -1.5419   24.8841 H   0  0  0  0  0  0  0  0  0  0  0  0
    5.2094    0.6172   20.1645 C   0  0  0  0  0  0  0  0  0  0  0  0
    4.6567    0.6173   21.1053 H   0  0  0  0  0  0  0  0  0  0  0  0
    4.7300    1.3131   19.0533 C   0  0  0  0  0  0  0  0  0  0  0  0
    3.8224    1.9003   19.1005 H   0  0  0  0  0  0  0  0  0  0  0  0
  1  2  1  0
  2  3  2  0
  3  4  1  0
  4  5  1  0
  4  6  2  0
  6  7  1  0
  7  8  2  0
  8  9  1  0
  9 10  1  0
 10 11  2  0
 11 12  1  0
 12 13  1  0
 13 14  1  0
 13 15  1  0
 13 16  1  0
 16 17  2  0
 17 18  1  0
 17 19  1  0
 19 20  1  0
 19 21  2  0
 21 22  1  0
 21 23  1  0
 23 24  1  0
 23 25  2  0
 25 26  1  0
 10 27  1  0
 27 28  1  0
 27 29  1  0
 27 30  1  0
 30 31  1  0
 30 32  1  0
 30 33  1  0
 33 34  1  0
 33 35  1  0
  6 36  1  0
 36 37  1  0
 36 38  2  0
 38 39  1  0
 38  2  1  0
 11  7  1  0
 25 16  1  0
 33  9  1  0
M  END
>  <plip>  (1) 
-0.03571428571428571

>  <filename>  (1) 
[H][c]1[n][c]([H])[c](-[c]2[n][n]3[c]([c]2[S][C]([H])([H])[c]2[c]([H])[c]([H])[c]([H])[c]([H])[c]2[H])[C]([H])([H])[C]([H])([H])[C]3([H])[H])[c]([H])[c]1[H]

$$$$
