
     RDKit          3D

 43 45  0  0  0  0  0  0  0  0999 V2000
   10.5919    0.9710   23.6060 C   0  0  0  0  0  0  0  0  0  0  0  0
   10.0801    1.5612   22.3049 C   0  0  0  0  0  0  0  0  0  0  0  0
    9.3044    0.5977   21.5627 O   0  0  0  0  0  0  0  0  0  0  0  0
    8.0467    0.3430   21.9878 C   0  0  0  0  0  0  0  0  0  0  0  0
    7.5163    0.8875   22.9216 O   0  0  0  0  0  0  0  0  0  0  0  0
    7.4090   -0.7098   21.0398 C   0  0  0  0  0  0  0  0  0  0  0  0
    6.5806   -1.5824   21.8420 O   0  0  0  0  0  0  0  0  0  0  0  0
    6.0018   -2.6659   21.2510 C   0  0  0  0  0  0  0  0  0  0  0  0
    6.1431   -2.9265   20.0852 O   0  0  0  0  0  0  0  0  0  0  0  0
    5.1554   -3.4459   22.2396 C   0  0  0  0  0  0  0  0  0  0  0  0
    4.4309   -4.4855   21.8169 N   0  0  0  0  0  0  0  0  0  0  0  0
    3.6578   -4.8193   22.8406 N   0  0  0  0  0  0  0  0  0  0  0  0
    3.8310   -4.0319   23.9441 C   0  0  0  0  0  0  0  0  0  0  0  0
    3.0272   -4.1367   25.1902 C   0  0  0  0  0  0  0  0  0  0  0  0
    2.8851   -5.3917   25.8113 C   0  0  0  0  0  0  0  0  0  0  0  0
    2.2778   -5.5385   27.0572 C   0  0  0  0  0  0  0  0  0  0  0  0
    1.7670   -4.4218   27.7205 C   0  0  0  0  0  0  0  0  0  0  0  0
    1.8473   -3.1686   27.1160 C   0  0  0  0  0  0  0  0  0  0  0  0
    2.4571   -3.0269   25.8635 C   0  0  0  0  0  0  0  0  0  0  0  0
    2.4547   -1.4183   25.1879 Cl  0  0  0  0  0  0  0  0  0  0  0  0
    1.4677   -2.2862   27.6184 H   0  0  0  0  0  0  0  0  0  0  0  0
    1.3259   -4.5239   28.7091 H   0  0  0  0  0  0  0  0  0  0  0  0
    2.2333   -6.5190   27.5178 H   0  0  0  0  0  0  0  0  0  0  0  0
    3.2958   -6.2582   25.3033 H   0  0  0  0  0  0  0  0  0  0  0  0
    4.8687   -3.1954   23.6049 C   0  0  0  0  0  0  0  0  0  0  0  0
    5.3069   -2.4578   24.2553 H   0  0  0  0  0  0  0  0  0  0  0  0
    2.9925   -5.5690   22.7162 H   0  0  0  0  0  0  0  0  0  0  0  0
    6.6402   -0.0291   19.9021 C   0  0  0  0  0  0  0  0  0  0  0  0
    5.4314    0.6360   20.1492 C   0  0  0  0  0  0  0  0  0  0  0  0
    4.8009    1.2979   19.0919 C   0  0  0  0  0  0  0  0  0  0  0  0
    5.4096    1.2795   17.8319 C   0  0  0  0  0  0  0  0  0  0  0  0
    6.5612    0.6439   17.5690 N   0  0  0  0  0  0  0  0  0  0  0  0
    7.1496    0.0086   18.5944 C   0  0  0  0  0  0  0  0  0  0  0  0
    8.0972   -0.4807   18.3598 H   0  0  0  0  0  0  0  0  0  0  0  0
    4.9555    1.8073   16.9963 H   0  0  0  0  0  0  0  0  0  0  0  0
    3.8736    1.8456   19.2353 H   0  0  0  0  0  0  0  0  0  0  0  0
    5.0072    0.6491   21.1553 H   0  0  0  0  0  0  0  0  0  0  0  0
    8.2454   -1.2856   20.6317 H   0  0  0  0  0  0  0  0  0  0  0  0
   10.8941    1.8330   21.6280 H   0  0  0  0  0  0  0  0  0  0  0  0
    9.4652    2.4474   22.4846 H   0  0  0  0  0  0  0  0  0  0  0  0
   11.2061    0.0840   23.4246 H   0  0  0  0  0  0  0  0  0  0  0  0
    9.7572    0.6862   24.2522 H   0  0  0  0  0  0  0  0  0  0  0  0
   11.1930    1.7150   24.1377 H   0  0  0  0  0  0  0  0  0  0  0  0
  1  2  1  0
  2  3  1  0
  3  4  1  0
  4  5  2  0
  4  6  1  0
  6  7  1  0
  7  8  1  0
  8  9  2  0
  8 10  1  0
 10 11  2  0
 11 12  1  0
 12 13  1  0
 13 14  1  0
 14 15  2  0
 15 16  1  0
 16 17  2  0
 17 18  1  0
 18 19  2  0
 19 20  1  0
 18 21  1  0
 17 22  1  0
 16 23  1  0
 15 24  1  0
 13 25  2  0
 25 26  1  0
 12 27  1  0
  6 28  1  0
 28 29  2  0
 29 30  1  0
 30 31  2  0
 31 32  1  0
 32 33  2  0
 33 34  1  0
 31 35  1  0
 30 36  1  0
 29 37  1  0
  6 38  1  0
  2 39  1  0
  2 40  1  0
  1 41  1  0
  1 42  1  0
  1 43  1  0
 25 10  1  0
 33 28  1  0
 19 14  1  0
M  END
>  <plip>  (1) 
-0.07142857142857142

>  <filename>  (1) 
[H][c]1[n][c]([H])[c]([C]([H])([O][C](=[O])[c]2[n][n]([H])[c](-[c]3[c]([H])[c]([H])[c]([H])[c]([H])[c]3[Cl])[c]2[H])[C](=[O])[O][C]([H])([H])[C]([H])([H])[H])[c]([H])[c]1[H]

$$$$
