
     RDKit          3D

 28 30  0  0  0  0  0  0  0  0999 V2000
    8.9948   -2.8450   23.6643 H   0  0  0  0  0  0  0  0  0  0  0  0
    8.5366   -2.2374   22.8931 C   0  0  0  0  0  0  0  0  0  0  0  0
    8.2931   -0.9603   23.1998 N   0  0  0  0  0  0  0  0  0  0  0  0
    7.7126   -0.2050   22.2474 C   0  0  0  0  0  0  0  0  0  0  0  0
    7.5240    1.2656   22.5144 C   0  0  0  0  0  0  0  0  0  0  0  0
    7.6005    2.0712   21.5968 O   0  0  0  0  0  0  0  0  0  0  0  0
    7.2302    1.7541   23.8814 C   0  0  0  0  0  0  0  0  0  0  0  0
    7.0291    0.9064   24.9350 O   0  0  0  0  0  0  0  0  0  0  0  0
    6.8028    1.6677   26.0249 C   0  0  0  0  0  0  0  0  0  0  0  0
    6.6472    1.1283   26.9514 H   0  0  0  0  0  0  0  0  0  0  0  0
    6.8307    2.9862   25.7026 C   0  0  0  0  0  0  0  0  0  0  0  0
    6.6743    3.8136   26.3781 H   0  0  0  0  0  0  0  0  0  0  0  0
    7.1000    3.0463   24.3044 C   0  0  0  0  0  0  0  0  0  0  0  0
    7.1912    3.9185   23.6676 H   0  0  0  0  0  0  0  0  0  0  0  0
    7.3695   -0.7505   20.9578 C   0  0  0  0  0  0  0  0  0  0  0  0
    6.6469   -0.0096   19.9017 C   0  0  0  0  0  0  0  0  0  0  0  0
    7.1659    0.0365   18.6005 C   0  0  0  0  0  0  0  0  0  0  0  0
    8.1170   -0.4400   18.3673 H   0  0  0  0  0  0  0  0  0  0  0  0
    6.5706    0.6716   17.5872 N   0  0  0  0  0  0  0  0  0  0  0  0
    5.4056    1.2890   17.8427 C   0  0  0  0  0  0  0  0  0  0  0  0
    4.9257    1.7815   16.9987 H   0  0  0  0  0  0  0  0  0  0  0  0
    4.8046    1.3008   19.1022 C   0  0  0  0  0  0  0  0  0  0  0  0
    3.8807    1.8408   19.2575 H   0  0  0  0  0  0  0  0  0  0  0  0
    5.4301    0.6376   20.1556 C   0  0  0  0  0  0  0  0  0  0  0  0
    4.9926    0.6380   21.1574 H   0  0  0  0  0  0  0  0  0  0  0  0
    7.6760   -2.0258   20.6559 N   0  0  0  0  0  0  0  0  0  0  0  0
    8.2312   -2.7657   21.6267 C   0  0  0  0  0  0  0  0  0  0  0  0
    8.4538   -3.8027   21.3940 H   0  0  0  0  0  0  0  0  0  0  0  0
  1  2  1  0
  2  3  2  0
  3  4  1  0
  4  5  1  0
  5  6  2  0
  5  7  1  0
  7  8  1  0
  8  9  1  0
  9 10  1  0
  9 11  2  0
 11 12  1  0
 11 13  1  0
 13 14  1  0
  4 15  2  0
 15 16  1  0
 16 17  2  0
 17 18  1  0
 17 19  1  0
 19 20  2  0
 20 21  1  0
 20 22  1  0
 22 23  1  0
 22 24  2  0
 24 25  1  0
 15 26  1  0
 26 27  2  0
 27 28  1  0
 27  2  1  0
 13  7  2  0
 24 16  1  0
M  END
>  <plip>  (1) 
-0.03571428571428571

>  <filename>  (1) 
[H][c]1[n][c]([C](=[O])[c]2[o][c]([H])[c]([H])[c]2[H])[c](-[c]2[c]([H])[n][c]([H])[c]([H])[c]2[H])[n][c]1[H]

$$$$
