
     RDKit          3D

 44 47  0  0  0  0  0  0  0  0999 V2000
   10.9693    2.5491   21.2812 C   0  0  0  0  0  0  0  0  0  0  0  0
    9.8105    1.6819   21.6245 N   0  0  0  0  0  4  0  0  0  0  0  0
    9.7569    0.3871   20.8158 C   0  0  0  0  0  0  0  0  0  0  0  0
    8.7370   -0.5355   21.4035 C   0  0  0  0  0  0  0  0  0  0  0  0
    8.8748   -1.3716   22.4931 C   0  0  0  0  0  0  0  0  0  0  0  0
    7.6485   -1.9062   22.7106 N   0  0  0  0  0  0  0  0  0  0  0  0
    6.7184   -1.4627   21.8562 N   0  0  0  0  0  0  0  0  0  0  0  0
    7.3593   -0.6251   21.0457 C   0  0  0  0  0  0  0  0  0  0  0  0
    6.6399    0.0556   19.9507 C   0  0  0  0  0  0  0  0  0  0  0  0
    5.3953    0.6733   20.1503 C   0  0  0  0  0  0  0  0  0  0  0  0
    4.7885    1.3176   19.0733 C   0  0  0  0  0  0  0  0  0  0  0  0
    5.4246    1.2950   17.8296 C   0  0  0  0  0  0  0  0  0  0  0  0
    6.5813    0.6534   17.6054 N   0  0  0  0  0  0  0  0  0  0  0  0
    7.1632    0.0510   18.6499 C   0  0  0  0  0  0  0  0  0  0  0  0
    8.0872   -0.4848   18.4287 H   0  0  0  0  0  0  0  0  0  0  0  0
    4.9819    1.8130   16.9815 H   0  0  0  0  0  0  0  0  0  0  0  0
    3.8468    1.8449   19.1889 H   0  0  0  0  0  0  0  0  0  0  0  0
    4.9076    0.6374   21.1260 H   0  0  0  0  0  0  0  0  0  0  0  0
    7.3741   -2.5789   23.4102 H   0  0  0  0  0  0  0  0  0  0  0  0
    9.7178   -1.6129   23.1372 H   0  0  0  0  0  0  0  0  0  0  0  0
   10.7552   -0.0649   20.8044 H   0  0  0  0  0  0  0  0  0  0  0  0
    9.5145    0.6455   19.7849 H   0  0  0  0  0  0  0  0  0  0  0  0
    8.4985    2.4488   21.5770 C   0  0  0  0  0  0  0  0  0  0  0  0
    7.5278    2.1400   22.6693 C   0  0  0  0  0  0  0  0  0  0  0  0
    8.2545    3.4753   22.6501 C   0  0  0  0  0  0  0  0  0  0  0  0
    7.5696    4.7911   22.3882 C   0  0  0  0  0  0  0  0  0  0  0  0
    6.4709    4.9400   21.5215 C   0  0  0  0  0  0  0  0  0  0  0  0
    5.8593    6.1841   21.3364 C   0  0  0  0  0  0  0  0  0  0  0  0
    6.3645    7.3312   21.9540 C   0  0  0  0  0  0  0  0  0  0  0  0
    7.4482    7.2020   22.8303 C   0  0  0  0  0  0  0  0  0  0  0  0
    8.0280    5.9462   23.0511 C   0  0  0  0  0  0  0  0  0  0  0  0
    8.8555    5.8782   23.7548 H   0  0  0  0  0  0  0  0  0  0  0  0
    7.8227    8.0811   23.3517 H   0  0  0  0  0  0  0  0  0  0  0  0
    5.9240    8.3089   21.7598 H   0  0  0  0  0  0  0  0  0  0  0  0
    4.9642    6.2430   20.7249 H   0  0  0  0  0  0  0  0  0  0  0  0
    6.0910    4.0838   20.9673 H   0  0  0  0  0  0  0  0  0  0  0  0
    9.0842    3.5624   23.3583 H   0  0  0  0  0  0  0  0  0  0  0  0
    7.8659    1.3623   23.3488 H   0  0  0  0  0  0  0  0  0  0  0  0
    6.4674    2.1140   22.4410 H   0  0  0  0  0  0  0  0  0  0  0  0
    8.1261    2.6226   20.5726 H   0  0  0  0  0  0  0  0  0  0  0  0
    9.8859    1.3130   22.6007 H   0  0  0  0  0  0  0  0  0  0  0  0
   11.0076    3.4277   21.9311 H   0  0  0  0  0  0  0  0  0  0  0  0
   11.9230    2.0185   21.3767 H   0  0  0  0  0  0  0  0  0  0  0  0
   10.8948    2.9102   20.2471 H   0  0  0  0  0  0  0  0  0  0  0  0
  1  2  1  0
  2  3  1  0
  3  4  1  0
  4  5  2  0
  5  6  1  0
  6  7  1  0
  7  8  2  0
  8  9  1  0
  9 10  2  0
 10 11  1  0
 11 12  2  0
 12 13  1  0
 13 14  2  0
 14 15  1  0
 12 16  1  0
 11 17  1  0
 10 18  1  0
  6 19  1  0
  5 20  1  0
  3 21  1  0
  3 22  1  0
  2 23  1  0
 23 24  1  0
 24 25  1  0
 25 26  1  0
 26 27  2  0
 27 28  1  0
 28 29  2  0
 29 30  1  0
 30 31  2  0
 31 32  1  0
 30 33  1  0
 29 34  1  0
 28 35  1  0
 27 36  1  0
 25 37  1  0
 24 38  1  0
 24 39  1  0
 23 40  1  0
  2 41  1  0
  1 42  1  0
  1 43  1  0
  1 44  1  0
  8  4  1  0
 14  9  1  0
 25 23  1  0
 31 26  1  0
M  CHG  1   2   1
M  END
>  <plip>  (1) 
-0.06896551724137931

>  <filename>  (1) 
[H][c]1[n][c]([H])[c](-[c]2[n][n]([H])[c]([H])[c]2[C]([H])([H])[N+]([H])([C]([H])([H])[H])[C]2([H])[C]([H])([H])[C]2([H])[c]2[c]([H])[c]([H])[c]([H])[c]([H])[c]2[H])[c]([H])[c]1[H]

$$$$
