
     RDKit          3D

 27 28  0  0  0  0  0  0  0  0999 V2000
    5.0217    1.7043   17.0451 H   0  0  0  0  0  0  0  0  0  0  0  0
    5.4908    1.2323   17.9082 C   0  0  0  0  0  0  0  0  0  0  0  0
    6.6703    0.6201   17.6905 N   0  0  0  0  0  0  0  0  0  0  0  0
    7.2771    0.0258   18.7311 C   0  0  0  0  0  0  0  0  0  0  0  0
    8.2262   -0.4887   18.5619 H   0  0  0  0  0  0  0  0  0  0  0  0
    6.7212    0.0258   20.0211 C   0  0  0  0  0  0  0  0  0  0  0  0
    7.4208   -0.5451   21.0853 O   0  0  0  0  0  0  0  0  0  0  0  0
    6.8260   -1.5671   21.7891 C   0  0  0  0  0  0  0  0  0  0  0  0
    5.8552   -2.1818   21.4198 O   0  0  0  0  0  0  0  0  0  0  0  0
    7.5605   -1.7273   22.9211 N   0  0  0  0  0  0  0  0  0  0  0  0
    8.3388   -1.0968   22.9436 H   0  0  0  0  0  0  0  0  0  0  0  0
    7.2622   -2.5518   24.0187 C   0  0  0  0  0  0  0  0  0  0  0  0
    7.7957   -2.2521   25.2816 C   0  0  0  0  0  0  0  0  0  0  0  0
    8.4336   -1.3797   25.4152 H   0  0  0  0  0  0  0  0  0  0  0  0
    7.4723   -3.0660   26.3763 C   0  0  0  0  0  0  0  0  0  0  0  0
    7.8586   -2.8295   27.3634 H   0  0  0  0  0  0  0  0  0  0  0  0
    6.6455   -4.1828   26.2169 C   0  0  0  0  0  0  0  0  0  0  0  0
    6.3857   -4.8110   27.0634 H   0  0  0  0  0  0  0  0  0  0  0  0
    6.1369   -4.4855   24.9420 C   0  0  0  0  0  0  0  0  0  0  0  0
    5.2918   -5.6403   24.7438 C   0  0  0  0  0  0  0  0  0  0  0  0
    4.6104   -6.5621   24.5713 N   0  0  0  0  0  0  0  0  0  0  0  0
    6.4352   -3.6671   23.8444 C   0  0  0  0  0  0  0  0  0  0  0  0
    6.0319   -3.8591   22.8585 H   0  0  0  0  0  0  0  0  0  0  0  0
    5.4899    0.6414   20.2423 C   0  0  0  0  0  0  0  0  0  0  0  0
    5.0532    0.5899   21.2382 H   0  0  0  0  0  0  0  0  0  0  0  0
    4.8680    1.2777   19.1634 C   0  0  0  0  0  0  0  0  0  0  0  0
    3.9126    1.7813   19.2895 H   0  0  0  0  0  0  0  0  0  0  0  0
  1  2  1  0
  2  3  2  0
  3  4  1  0
  4  5  1  0
  4  6  2  0
  6  7  1  0
  7  8  1  0
  8  9  2  0
  8 10  1  0
 10 11  1  0
 10 12  1  0
 12 13  2  0
 13 14  1  0
 13 15  1  0
 15 16  1  0
 15 17  2  0
 17 18  1  0
 17 19  1  0
 19 20  1  0
 20 21  3  0
 19 22  2  0
 22 23  1  0
  6 24  1  0
 24 25  1  0
 24 26  2  0
 26 27  1  0
 26  2  1  0
 22 12  1  0
M  END
>  <plip>  (1) 
-0.06896551724137931

>  <filename>  (1) 
[H][c]1[n][c]([H])[c]([O][C](=[O])[N]([H])[c]2[c]([H])[c]([H])[c]([H])[c]([C]#[N])[c]2[H])[c]([H])[c]1[H]

$$$$
