
     RDKit          3D

 35 36  0  0  0  0  0  0  0  0999 V2000
    4.9973    2.1909   16.8850 H   0  0  0  0  0  0  0  0  0  0  0  0
    5.4377    1.5238   17.6209 C   0  0  0  0  0  0  0  0  0  0  0  0
    6.5430    0.8741   17.2325 N   0  0  0  0  0  0  0  0  0  0  0  0
    7.1211    0.0617   18.1101 C   0  0  0  0  0  0  0  0  0  0  0  0
    8.0339   -0.4290   17.7807 H   0  0  0  0  0  0  0  0  0  0  0  0
    6.5917   -0.1389   19.3789 C   0  0  0  0  0  0  0  0  0  0  0  0
    7.4304   -1.3789   20.2811 S   0  0  0  0  0  0  0  0  0  0  0  0
    8.8262   -1.3110   19.8195 O   0  0  0  0  0  0  0  0  0  0  0  0
    6.6505   -2.6199   20.2046 O   0  0  0  0  0  0  0  0  0  0  0  0
    7.1748    0.3869   22.5913 O   0  0  0  0  0  0  0  0  0  0  0  0
    7.3988   -0.0301   23.7582 N   0  0  0  0  0  0  0  0  0  0  0  0
    8.5084    0.4939   24.5180 C   0  0  0  0  0  0  0  0  0  0  0  0
    9.2280    0.9075   23.7980 H   0  0  0  0  0  0  0  0  0  0  0  0
    8.1937    1.3346   25.1586 H   0  0  0  0  0  0  0  0  0  0  0  0
    9.2579   -0.5414   25.4069 C   0  0  0  0  0  0  0  0  0  0  0  0
   10.0912   -0.0035   25.8909 H   0  0  0  0  0  0  0  0  0  0  0  0
    9.7004   -1.2940   24.7342 H   0  0  0  0  0  0  0  0  0  0  0  0
    8.4309   -1.2222   26.3854 N   0  0  0  0  0  0  0  0  0  0  0  0
    9.1034   -2.1553   27.2351 C   0  0  0  0  0  0  0  0  0  0  0  0
    9.8446   -1.6672   27.8966 H   0  0  0  0  0  0  0  0  0  0  0  0
    9.6242   -2.9275   26.6454 H   0  0  0  0  0  0  0  0  0  0  0  0
    8.3632   -2.6844   27.8443 H   0  0  0  0  0  0  0  0  0  0  0  0
    7.1853   -0.5955   26.7744 C   0  0  0  0  0  0  0  0  0  0  0  0
    7.3139    0.4937   26.8565 H   0  0  0  0  0  0  0  0  0  0  0  0
    6.9004   -0.9283   27.7783 H   0  0  0  0  0  0  0  0  0  0  0  0
    6.0848   -0.9398   25.7510 C   0  0  0  0  0  0  0  0  0  0  0  0
    5.6336   -1.9040   26.0145 H   0  0  0  0  0  0  0  0  0  0  0  0
    5.2898   -0.1798   25.7897 H   0  0  0  0  0  0  0  0  0  0  0  0
    6.6753   -1.1431   24.3166 C   0  0  0  0  0  0  0  0  0  0  0  0
    5.9252   -1.4456   23.5876 H   0  0  0  0  0  0  0  0  0  0  0  0
    7.3696   -2.0021   24.3959 H   0  0  0  0  0  0  0  0  0  0  0  0
    5.4539    0.5415   19.8179 C   0  0  0  0  0  0  0  0  0  0  0  0
    5.0409    0.4621   20.8269 H   0  0  0  0  0  0  0  0  0  0  0  0
    4.8627    1.3872   18.8850 C   0  0  0  0  0  0  0  0  0  0  0  0
    3.9660    1.9446   19.1200 H   0  0  0  0  0  0  0  0  0  0  0  0
  1  2  1  0
  2  3  2  0
  3  4  1  0
  4  5  1  0
  4  6  2  0
  6  7  1  0
  7  8  2  0
  7  9  2  0
  7 10  1  0
 10 11  1  0
 11 12  1  0
 12 13  1  0
 12 14  1  0
 12 15  1  0
 15 16  1  0
 15 17  1  0
 15 18  1  0
 18 19  1  0
 19 20  1  0
 19 21  1  0
 19 22  1  0
 18 23  1  0
 23 24  1  0
 23 25  1  0
 23 26  1  0
 26 27  1  0
 26 28  1  0
 26 29  1  0
 29 30  1  0
 29 31  1  0
  6 32  1  0
 32 33  1  0
 32 34  2  0
 34 35  1  0
 34  2  1  0
 29 11  1  0
M  END
>  <plip>  (1) 
-0.07142857142857142

>  <filename>  (1) 
[H][c]1[n][c]([H])[c]([S](=[O])(=[O])[O][N]2[C]([H])([H])[C]([H])([H])[N]([C]([H])([H])[H])[C]([H])([H])[C]([H])([H])[C]2([H])[H])[c]([H])[c]1[H]

$$$$
