
     RDKit          3D

 42 43  0  0  0  0  0  0  0  0999 V2000
    7.1293    3.1651   21.7659 C   0  0  0  0  0  0  0  0  0  0  0  0
    7.3811    2.2944   22.9859 C   0  0  0  0  0  0  0  0  0  0  0  0
    7.2226    3.0927   24.2944 C   0  0  0  0  0  0  0  0  0  0  0  0
    7.3651    2.2661   25.4353 O   0  0  0  0  0  0  0  0  0  0  0  0
    8.6357    1.6431   25.5048 C   0  0  0  0  0  0  0  0  0  0  0  0
    8.9398    0.7979   24.2629 C   0  0  0  0  0  0  0  0  0  0  0  0
    8.7961    1.6683   22.9909 C   0  0  0  0  0  0  0  0  0  0  0  0
    9.2594    0.9939   21.6745 C   0  0  0  0  0  0  0  0  0  0  0  0
   10.0717    1.5564   20.9664 O   0  0  0  0  0  0  0  0  0  0  0  0
    8.8312   -0.3229   21.3703 N   0  0  0  0  0  0  0  0  0  0  0  0
    9.9190   -1.2453   20.9963 C   0  0  0  0  0  0  0  0  0  0  0  0
   10.8376   -1.6274   22.1739 C   0  0  0  0  0  0  0  0  0  0  0  0
   12.0529   -2.2156   21.7419 O   0  0  0  0  0  0  0  0  0  0  0  0
   11.8807   -3.0964   21.3833 H   0  0  0  0  0  0  0  0  0  0  0  0
   11.1329   -0.7134   22.6941 H   0  0  0  0  0  0  0  0  0  0  0  0
   10.3059   -2.2533   22.9082 H   0  0  0  0  0  0  0  0  0  0  0  0
   10.5542   -0.7448   20.2636 H   0  0  0  0  0  0  0  0  0  0  0  0
    9.5056   -2.1565   20.5471 H   0  0  0  0  0  0  0  0  0  0  0  0
    7.4172   -0.6474   21.1940 C   0  0  0  0  0  0  0  0  0  0  0  0
    6.7107    0.0431   20.0239 C   0  0  0  0  0  0  0  0  0  0  0  0
    5.4344    0.6136   20.1760 C   0  0  0  0  0  0  0  0  0  0  0  0
    4.8330    1.2535   19.0878 C   0  0  0  0  0  0  0  0  0  0  0  0
    5.5097    1.2659   17.8655 C   0  0  0  0  0  0  0  0  0  0  0  0
    6.7114    0.7019   17.6812 N   0  0  0  0  0  0  0  0  0  0  0  0
    7.2940    0.1238   18.7454 C   0  0  0  0  0  0  0  0  0  0  0  0
    8.2725   -0.3186   18.5533 H   0  0  0  0  0  0  0  0  0  0  0  0
    5.0622    1.7487   16.9980 H   0  0  0  0  0  0  0  0  0  0  0  0
    3.8719    1.7522   19.1788 H   0  0  0  0  0  0  0  0  0  0  0  0
    4.9316    0.5985   21.1458 H   0  0  0  0  0  0  0  0  0  0  0  0
    7.3367   -1.7399   21.0857 H   0  0  0  0  0  0  0  0  0  0  0  0
    6.8776   -0.3921   22.1157 H   0  0  0  0  0  0  0  0  0  0  0  0
    9.5091    2.5062   23.0581 H   0  0  0  0  0  0  0  0  0  0  0  0
    8.2427   -0.0510   24.2073 H   0  0  0  0  0  0  0  0  0  0  0  0
    9.9500    0.3793   24.3674 H   0  0  0  0  0  0  0  0  0  0  0  0
    9.4274    2.4049   25.6290 H   0  0  0  0  0  0  0  0  0  0  0  0
    8.6336    1.0325   26.4114 H   0  0  0  0  0  0  0  0  0  0  0  0
    7.9690    3.9106   24.3135 H   0  0  0  0  0  0  0  0  0  0  0  0
    6.2280    3.5449   24.3662 H   0  0  0  0  0  0  0  0  0  0  0  0
    6.6345    1.4888   23.0369 H   0  0  0  0  0  0  0  0  0  0  0  0
    6.1445    3.6399   21.8285 H   0  0  0  0  0  0  0  0  0  0  0  0
    7.1730    2.5814   20.8410 H   0  0  0  0  0  0  0  0  0  0  0  0
    7.8850    3.9574   21.7039 H   0  0  0  0  0  0  0  0  0  0  0  0
  1  2  1  0
  2  3  1  0
  3  4  1  0
  4  5  1  0
  5  6  1  0
  6  7  1  0
  7  8  1  0
  8  9  2  0
  8 10  1  0
 10 11  1  0
 11 12  1  0
 12 13  1  0
 13 14  1  0
 12 15  1  0
 12 16  1  0
 11 17  1  0
 11 18  1  0
 10 19  1  0
 19 20  1  0
 20 21  2  0
 21 22  1  0
 22 23  2  0
 23 24  1  0
 24 25  2  0
 25 26  1  0
 23 27  1  0
 22 28  1  0
 21 29  1  0
 19 30  1  0
 19 31  1  0
  7 32  1  0
  6 33  1  0
  6 34  1  0
  5 35  1  0
  5 36  1  0
  3 37  1  0
  3 38  1  0
  2 39  1  0
  1 40  1  0
  1 41  1  0
  1 42  1  0
  7  2  1  0
 25 20  1  0
M  END
>  <plip>  (1) 
-0.06896551724137931

>  <filename>  (1) 
[H][O][C]([H])([H])[C]([H])([H])[N]([C](=[O])[C]1([H])[C]([H])([H])[C]([H])([H])[O][C]([H])([H])[C]1([H])[C]([H])([H])[H])[C]([H])([H])[c]1[c]([H])[n][c]([H])[c]([H])[c]1[H]

$$$$
