
     RDKit          3D

 26 27  0  0  0  0  0  0  0  0999 V2000
    5.7996    1.6237   26.0799 O   0  0  0  0  0  0  0  0  0  0  0  0
    6.1298    1.1627   25.0075 N   0  0  0  0  0  4  0  0  0  0  0  0
    5.7243    1.5791   23.9368 O   0  0  0  0  0  1  0  0  0  0  0  0
    7.1013    0.0076   24.9928 C   0  0  0  0  0  0  0  0  0  0  0  0
    7.5200   -0.3715   26.2020 N   0  0  0  0  0  0  0  0  0  0  0  0
    8.3839   -1.3757   26.3034 C   0  0  0  0  0  0  0  0  0  0  0  0
    8.8737   -2.0604   25.1865 C   0  0  0  0  0  0  0  0  0  0  0  0
    8.4392   -1.6688   23.9101 C   0  0  0  0  0  0  0  0  0  0  0  0
    7.5300   -0.6128   23.7865 C   0  0  0  0  0  0  0  0  0  0  0  0
    7.0652   -0.2018   22.5340 O   0  0  0  0  0  0  0  0  0  0  0  0
    7.5566   -0.9016   21.1352 S   0  0  0  0  0  0  0  0  0  0  0  0
    8.9585   -0.6133   20.9138 O   0  0  0  0  0  0  0  0  0  0  0  0
    7.0798   -2.2671   21.0929 O   0  0  0  0  0  0  0  0  0  0  0  0
    6.6423    0.0576   20.0412 C   0  0  0  0  0  0  0  0  0  0  0  0
    5.4154    0.6811   20.2867 C   0  0  0  0  0  0  0  0  0  0  0  0
    4.8252    1.2903   19.1801 C   0  0  0  0  0  0  0  0  0  0  0  0
    5.4684    1.2342   17.9385 C   0  0  0  0  0  0  0  0  0  0  0  0
    6.6289    0.5946   17.7349 N   0  0  0  0  0  0  0  0  0  0  0  0
    7.2132    0.0167   18.7774 C   0  0  0  0  0  0  0  0  0  0  0  0
    8.1667   -0.4682   18.5724 H   0  0  0  0  0  0  0  0  0  0  0  0
    5.0244    1.7154   17.0668 H   0  0  0  0  0  0  0  0  0  0  0  0
    3.8840    1.8193   19.2700 H   0  0  0  0  0  0  0  0  0  0  0  0
    4.9369    0.7045   21.2700 H   0  0  0  0  0  0  0  0  0  0  0  0
    8.7980   -2.1776   23.0203 H   0  0  0  0  0  0  0  0  0  0  0  0
    9.5725   -2.8787   25.3211 H   0  0  0  0  0  0  0  0  0  0  0  0
    8.6890   -1.6394   27.3160 H   0  0  0  0  0  0  0  0  0  0  0  0
  1  2  2  0
  2  3  1  0
  2  4  1  0
  4  5  2  0
  5  6  1  0
  6  7  2  0
  7  8  1  0
  8  9  2  0
  9 10  1  0
 10 11  1  0
 11 12  2  0
 11 13  2  0
 11 14  1  0
 14 15  2  0
 15 16  1  0
 16 17  2  0
 17 18  1  0
 18 19  2  0
 19 20  1  0
 17 21  1  0
 16 22  1  0
 15 23  1  0
  8 24  1  0
  7 25  1  0
  6 26  1  0
  9  4  1  0
 19 14  1  0
M  CHG  2   2   1   3  -1
M  END
>  <plip>  (1) 
-0.0

>  <filename>  (1) 
[H][c]1[n][c]([N+](=[O])[O-])[c]([O][S](=[O])(=[O])[c]2[c]([H])[n][c]([H])[c]([H])[c]2[H])[c]([H])[c]1[H]

$$$$
