
     RDKit          3D

 25 27  0  0  0  0  0  0  0  0999 V2000
    9.4675   -0.8053   20.2614 H   0  0  0  0  0  0  0  0  0  0  0  0
    8.7377   -1.0484   21.0205 C   0  0  0  0  0  0  0  0  0  0  0  0
    9.1747   -1.7048   22.1327 N   0  0  0  0  0  0  0  0  0  0  0  0
    8.1865   -1.8873   22.9668 C   0  0  0  0  0  0  0  0  0  0  0  0
    8.2342   -2.5426   24.2799 C   0  0  0  0  0  0  0  0  0  0  0  0
    7.2501   -2.6872   25.1071 N   0  0  0  0  0  0  0  0  0  0  0  0
    7.7468   -3.4010   26.1812 N   0  0  0  0  0  0  0  0  0  0  0  0
    8.9909   -3.6400   25.9204 C   0  0  0  0  0  0  0  0  0  0  0  0
    9.9899   -4.4210   26.6858 C   0  0  0  0  0  0  0  0  0  0  0  0
   10.9816   -4.2434   26.2685 H   0  0  0  0  0  0  0  0  0  0  0  0
    9.7636   -5.4905   26.6428 H   0  0  0  0  0  0  0  0  0  0  0  0
    9.9754   -4.1215   27.7309 H   0  0  0  0  0  0  0  0  0  0  0  0
    9.3775   -3.1120   24.7372 O   0  0  0  0  0  0  0  0  0  0  0  0
    6.6578   -1.2825   22.4320 S   0  0  0  0  0  0  0  0  0  0  0  0
    7.4004   -0.7212   20.9732 C   0  0  0  0  0  0  0  0  0  0  0  0
    6.6608   -0.0029   19.9089 C   0  0  0  0  0  0  0  0  0  0  0  0
    7.1576    0.0565   18.5864 C   0  0  0  0  0  0  0  0  0  0  0  0
    8.0998   -0.4291   18.3363 H   0  0  0  0  0  0  0  0  0  0  0  0
    6.5539    0.6761   17.5676 N   0  0  0  0  0  0  0  0  0  0  0  0
    5.3940    1.3009   17.8207 C   0  0  0  0  0  0  0  0  0  0  0  0
    4.9316    1.8086   16.9755 H   0  0  0  0  0  0  0  0  0  0  0  0
    4.8000    1.3170   19.0873 C   0  0  0  0  0  0  0  0  0  0  0  0
    3.8650    1.8484   19.2328 H   0  0  0  0  0  0  0  0  0  0  0  0
    5.4384    0.6625   20.1425 C   0  0  0  0  0  0  0  0  0  0  0  0
    4.9979    0.6759   21.1401 H   0  0  0  0  0  0  0  0  0  0  0  0
  1  2  1  0
  2  3  1  0
  3  4  2  0
  4  5  1  0
  5  6  2  0
  6  7  1  0
  7  8  2  0
  8  9  1  0
  9 10  1  0
  9 11  1  0
  9 12  1  0
  8 13  1  0
  4 14  1  0
 14 15  1  0
 15 16  1  0
 16 17  2  0
 17 18  1  0
 17 19  1  0
 19 20  2  0
 20 21  1  0
 20 22  1  0
 22 23  1  0
 22 24  2  0
 24 25  1  0
 15  2  2  0
 24 16  1  0
 13  5  1  0
M  END
>  <plip>  (1) 
-0.03571428571428571

>  <filename>  (1) 
[H][c]1[n][c](-[c]2[n][n][c]([C]([H])([H])[H])[o]2)[s][c]1-[c]1[c]([H])[n][c]([H])[c]([H])[c]1[H]

$$$$
