
     RDKit          3D

 32 35  0  0  0  0  0  0  0  0999 V2000
    5.0516    2.1245   16.2852 H   0  0  0  0  0  0  0  0  0  0  0  0
    5.2650    1.6543   17.2418 C   0  0  0  0  0  0  0  0  0  0  0  0
    6.3697    0.8956   17.2887 N   0  0  0  0  0  0  0  0  0  0  0  0
    6.6574    0.3077   18.4500 C   0  0  0  0  0  0  0  0  0  0  0  0
    7.5564   -0.3055   18.4887 H   0  0  0  0  0  0  0  0  0  0  0  0
    5.8764    0.4456   19.6040 C   0  0  0  0  0  0  0  0  0  0  0  0
    6.3531   -0.2590   20.7888 C   0  0  0  0  0  0  0  0  0  0  0  0
    7.3594   -1.1664   20.6780 N   0  0  0  0  0  0  0  0  0  0  0  0
    7.5634   -1.5653   21.9146 C   0  0  0  0  0  0  0  0  0  0  0  0
    8.7494   -2.2928   22.3378 C   0  0  0  0  0  0  0  0  0  0  0  0
    9.9349   -1.8358   21.7944 C   0  0  0  0  0  0  0  0  0  0  0  0
    9.9153   -1.1057   20.9822 H   0  0  0  0  0  0  0  0  0  0  0  0
   11.1556   -2.2434   22.2054 N   0  0  0  0  0  0  0  0  0  0  0  0
   11.1984   -3.1669   23.1417 C   0  0  0  0  0  0  0  0  0  0  0  0
   12.1838   -3.5096   23.4469 H   0  0  0  0  0  0  0  0  0  0  0  0
   10.0591   -3.7661   23.7469 C   0  0  0  0  0  0  0  0  0  0  0  0
   10.1806   -4.7589   24.7652 C   0  0  0  0  0  0  0  0  0  0  0  0
   11.1726   -5.0563   25.0980 H   0  0  0  0  0  0  0  0  0  0  0  0
    9.0572   -5.3274   25.3017 C   0  0  0  0  0  0  0  0  0  0  0  0
    9.1507   -6.0783   26.0821 H   0  0  0  0  0  0  0  0  0  0  0  0
    7.7688   -4.9265   24.8656 C   0  0  0  0  0  0  0  0  0  0  0  0
    6.9037   -5.3763   25.3398 H   0  0  0  0  0  0  0  0  0  0  0  0
    7.6168   -3.9729   23.8757 C   0  0  0  0  0  0  0  0  0  0  0  0
    6.6186   -3.6979   23.5469 H   0  0  0  0  0  0  0  0  0  0  0  0
    8.7690   -3.3332   23.3171 C   0  0  0  0  0  0  0  0  0  0  0  0
    6.7052   -0.9249   22.7292 N   0  0  0  0  0  0  0  0  0  0  0  0
    6.6147   -1.0261   23.7299 H   0  0  0  0  0  0  0  0  0  0  0  0
    5.9258   -0.0651   22.0193 N   0  0  0  0  0  0  0  0  0  0  0  0
    4.7242    1.2419   19.5516 C   0  0  0  0  0  0  0  0  0  0  0  0
    4.1053    1.3849   20.4391 H   0  0  0  0  0  0  0  0  0  0  0  0
    4.4161    1.8465   18.3381 C   0  0  0  0  0  0  0  0  0  0  0  0
    3.5387    2.4702   18.2240 H   0  0  0  0  0  0  0  0  0  0  0  0
  1  2  1  0
  2  3  2  0
  3  4  1  0
  4  5  1  0
  4  6  2  0
  6  7  1  0
  7  8  1  0
  8  9  2  0
  9 10  1  0
 10 11  2  0
 11 12  1  0
 11 13  1  0
 13 14  2  0
 14 15  1  0
 14 16  1  0
 16 17  2  0
 17 18  1  0
 17 19  1  0
 19 20  1  0
 19 21  2  0
 21 22  1  0
 21 23  1  0
 23 24  1  0
 23 25  2  0
  9 26  1  0
 26 27  1  0
 26 28  1  0
  6 29  1  0
 29 30  1  0
 29 31  2  0
 31 32  1  0
 31  2  1  0
 28  7  2  0
 25 10  1  0
 25 16  1  0
M  END
>  <plip>  (1) 
-0.10714285714285714

>  <filename>  (1) 
[H][c]1[n][c]([H])[c](-[c]2[n][c](-[c]3[c]([H])[n][c]([H])[c]4[c]([H])[c]([H])[c]([H])[c]([H])[c]34)[n]([H])[n]2)[c]([H])[c]1[H]

$$$$
