
     RDKit          3D

 48 50  0  0  0  0  0  0  0  0999 V2000
    6.0119   -4.0627   20.5441 C   0  0  0  0  0  0  0  0  0  0  0  0
    6.6466   -2.8337   20.3046 O   0  0  0  0  0  0  0  0  0  0  0  0
    6.6881   -1.9820   21.4204 C   0  0  0  0  0  0  0  0  0  0  0  0
    7.4064   -0.6961   21.0071 C   0  0  2  0  0  0  0  0  0  0  0  0
    7.6397    0.1052   22.1961 N   0  0  0  0  0  0  0  0  0  0  0  0
    8.4147    1.2232   22.1859 C   0  0  0  0  0  0  0  0  0  0  0  0
    9.0693    1.5412   21.1951 O   0  0  0  0  0  0  0  0  0  0  0  0
    8.4166    2.0125   23.4736 C   0  0  0  0  0  0  0  0  0  0  0  0
    9.2172    3.1089   23.6778 C   0  0  0  0  0  0  0  0  0  0  0  0
   10.0631    3.8593   22.7226 C   0  0  0  0  0  0  0  0  0  0  0  0
   10.8120    3.2101   22.2581 H   0  0  0  0  0  0  0  0  0  0  0  0
   10.5238    4.7390   23.1829 H   0  0  0  0  0  0  0  0  0  0  0  0
    9.3594    4.1756   21.9520 H   0  0  0  0  0  0  0  0  0  0  0  0
    8.8967    3.5570   24.9253 N   0  0  0  0  0  0  0  0  0  0  0  0
    7.8987    2.7725   25.4246 C   0  0  0  0  0  0  0  0  0  0  0  0
    7.2985    3.0080   26.7479 C   0  0  0  0  0  0  0  0  0  0  0  0
    7.7349    4.0095   27.6374 C   0  0  0  0  0  0  0  0  0  0  0  0
    7.1789    4.1065   28.9121 C   0  0  0  0  0  0  0  0  0  0  0  0
    6.1580    3.2355   29.3091 C   0  0  0  0  0  0  0  0  0  0  0  0
    5.6781    2.2586   28.4234 C   0  0  0  0  0  0  0  0  0  0  0  0
    4.5519    1.3279   28.8052 C   0  0  0  0  0  0  0  0  0  0  0  0
    4.6638    0.3606   28.3059 H   0  0  0  0  0  0  0  0  0  0  0  0
    4.5145    1.1406   29.8825 H   0  0  0  0  0  0  0  0  0  0  0  0
    3.5811    1.7381   28.5038 H   0  0  0  0  0  0  0  0  0  0  0  0
    6.2657    2.1541   27.1580 C   0  0  0  0  0  0  0  0  0  0  0  0
    5.9447    1.3775   26.4644 H   0  0  0  0  0  0  0  0  0  0  0  0
    5.7417    3.3094   30.3111 H   0  0  0  0  0  0  0  0  0  0  0  0
    7.5536    4.8557   29.6036 H   0  0  0  0  0  0  0  0  0  0  0  0
    8.5384    4.6957   27.3727 H   0  0  0  0  0  0  0  0  0  0  0  0
    7.5938    1.8184   24.5745 N   0  0  0  0  0  0  0  0  0  0  0  0
    9.1416    4.4440   25.3237 H   0  0  0  0  0  0  0  0  0  0  0  0
    7.0335    0.0232   23.0021 H   0  0  0  0  0  0  0  0  0  0  0  0
    6.6634    0.0588   19.9121 C   0  0  0  0  0  0  0  0  0  0  0  0
    5.4345    0.6937   20.1366 C   0  0  0  0  0  0  0  0  0  0  0  0
    4.7984    1.3293   19.0703 C   0  0  0  0  0  0  0  0  0  0  0  0
    5.4098    1.3012   17.8118 C   0  0  0  0  0  0  0  0  0  0  0  0
    6.5707    0.6796   17.5646 N   0  0  0  0  0  0  0  0  0  0  0  0
    7.1705    0.0829   18.6072 C   0  0  0  0  0  0  0  0  0  0  0  0
    8.1182   -0.4099   18.3784 H   0  0  0  0  0  0  0  0  0  0  0  0
    4.9392    1.7920   16.9628 H   0  0  0  0  0  0  0  0  0  0  0  0
    3.8526    1.8413   19.2010 H   0  0  0  0  0  0  0  0  0  0  0  0
    4.9874    0.7025   21.1334 H   0  0  0  0  0  0  0  0  0  0  0  0
    8.3827   -0.9927   20.6074 H   0  0  0  0  0  0  0  0  0  0  0  0
    5.6633   -1.7394   21.7575 H   0  0  0  0  0  0  0  0  0  0  0  0
    7.2324   -2.4415   22.2673 H   0  0  0  0  0  0  0  0  0  0  0  0
    5.0129   -3.9071   20.9771 H   0  0  0  0  0  0  0  0  0  0  0  0
    6.5881   -4.6989   21.2373 H   0  0  0  0  0  0  0  0  0  0  0  0
    5.9139   -4.5693   19.5780 H   0  0  0  0  0  0  0  0  0  0  0  0
  1  2  1  0
  2  3  1  0
  3  4  1  0
  4  5  1  0
  5  6  1  0
  6  7  2  0
  6  8  1  0
  8  9  2  0
  9 10  1  0
 10 11  1  0
 10 12  1  0
 10 13  1  0
  9 14  1  0
 14 15  1  0
 15 16  1  0
 16 17  2  0
 17 18  1  0
 18 19  2  0
 19 20  1  0
 20 21  1  0
 21 22  1  0
 21 23  1  0
 21 24  1  0
 20 25  2  0
 25 26  1  0
 19 27  1  0
 18 28  1  0
 17 29  1  0
 15 30  2  0
 14 31  1  0
  5 32  1  0
  4 33  1  0
 33 34  2  0
 34 35  1  0
 35 36  2  0
 36 37  1  0
 37 38  2  0
 38 39  1  0
 36 40  1  0
 35 41  1  0
 34 42  1  0
  4 43  1  6
  3 44  1  0
  3 45  1  0
  1 46  1  0
  1 47  1  0
  1 48  1  0
 30  8  1  0
 38 33  1  0
 25 16  1  0
M  END
>  <plip>  (1) 
-0.17857142857142858

>  <filename>  (1) 
[H][c]1[n][c]([H])[c]([C@@]([H])([N]([H])[C](=[O])[c]2[n][c](-[c]3[c]([H])[c]([H])[c]([H])[c]([C]([H])([H])[H])[c]3[H])[n]([H])[c]2[C]([H])([H])[H])[C]([H])([H])[O][C]([H])([H])[H])[c]([H])[c]1[H]

$$$$
