
     RDKit          3D

 31 33  0  0  0  0  0  0  0  0999 V2000
    8.7984   -0.7172   20.9852 C   0  0  0  0  0  0  0  0  0  0  0  0
    7.3371   -0.6616   20.9805 N   0  0  0  0  0  0  0  0  0  0  0  0
    6.5720   -1.5209   21.8235 C   0  0  0  0  0  0  0  0  0  0  0  0
    5.8038   -2.3396   21.3633 O   0  0  0  0  0  0  0  0  0  0  0  0
    6.7608   -1.3718   23.3047 C   0  0  0  0  0  0  0  0  0  0  0  0
    7.1922   -0.1758   23.8881 C   0  0  0  0  0  0  0  0  0  0  0  0
    7.5633    1.0014   23.2948 O   0  0  0  0  0  0  0  0  0  0  0  0
    7.8719    1.8036   24.3544 C   0  0  0  0  0  0  0  0  0  0  0  0
    8.3834    3.4397   24.0132 S   0  0  0  0  0  0  0  0  0  0  0  0
    7.1446    3.9505   24.0908 H   0  0  0  0  0  0  0  0  0  0  0  0
    7.7625    1.2858   25.5226 N   0  0  0  0  0  0  0  0  0  0  0  0
    7.3107   -0.0043   25.2672 C   0  0  0  0  0  0  0  0  0  0  0  0
    6.9841   -1.0445   26.1423 C   0  0  0  0  0  0  0  0  0  0  0  0
    6.5261   -2.2472   25.5886 C   0  0  0  0  0  0  0  0  0  0  0  0
    6.4058   -2.4046   24.1958 C   0  0  0  0  0  0  0  0  0  0  0  0
    6.0306   -3.3466   23.8009 H   0  0  0  0  0  0  0  0  0  0  0  0
    6.2572   -3.0671   26.2508 H   0  0  0  0  0  0  0  0  0  0  0  0
    7.0902   -0.8862   27.2108 H   0  0  0  0  0  0  0  0  0  0  0  0
    6.6692   -0.0043   19.9134 C   0  0  0  0  0  0  0  0  0  0  0  0
    5.4447    0.6429   20.1590 C   0  0  0  0  0  0  0  0  0  0  0  0
    4.8108    1.3099   19.1090 C   0  0  0  0  0  0  0  0  0  0  0  0
    5.4028    1.2923   17.8392 C   0  0  0  0  0  0  0  0  0  0  0  0
    6.5678    0.6798   17.5776 N   0  0  0  0  0  0  0  0  0  0  0  0
    7.1844    0.0669   18.5986 C   0  0  0  0  0  0  0  0  0  0  0  0
    8.1269   -0.4275   18.3746 H   0  0  0  0  0  0  0  0  0  0  0  0
    4.9101    1.7771   16.9989 H   0  0  0  0  0  0  0  0  0  0  0  0
    3.8754    1.8425   19.2647 H   0  0  0  0  0  0  0  0  0  0  0  0
    5.0076    0.6280   21.1587 H   0  0  0  0  0  0  0  0  0  0  0  0
    9.1666   -0.9127   21.9933 H   0  0  0  0  0  0  0  0  0  0  0  0
    9.2097    0.2424   20.6546 H   0  0  0  0  0  0  0  0  0  0  0  0
    9.1882   -1.5027   20.3188 H   0  0  0  0  0  0  0  0  0  0  0  0
  1  2  1  0
  2  3  1  0
  3  4  2  0
  3  5  1  0
  5  6  2  0
  6  7  1  0
  7  8  1  0
  8  9  1  0
  9 10  1  0
  8 11  2  0
 11 12  1  0
 12 13  2  0
 13 14  1  0
 14 15  2  0
 15 16  1  0
 14 17  1  0
 13 18  1  0
  2 19  1  0
 19 20  2  0
 20 21  1  0
 21 22  2  0
 22 23  1  0
 23 24  2  0
 24 25  1  0
 22 26  1  0
 21 27  1  0
 20 28  1  0
  1 29  1  0
  1 30  1  0
  1 31  1  0
 15  5  1  0
 24 19  1  0
 12  6  1  0
M  END
>  <plip>  (1) 
-0.07142857142857142

>  <filename>  (1) 
[H][S][c]1[n][c]2[c]([H])[c]([H])[c]([H])[c]([C](=[O])[N]([c]3[c]([H])[n][c]([H])[c]([H])[c]3[H])[C]([H])([H])[H])[c]2[o]1

$$$$
