
     RDKit          3D

 28 30  0  0  0  0  0  0  0  0999 V2000
    4.9345    1.7626   16.9278 H   0  0  0  0  0  0  0  0  0  0  0  0
    5.3803    1.3597   17.8333 C   0  0  0  0  0  0  0  0  0  0  0  0
    6.6000    0.8224   17.6866 N   0  0  0  0  0  0  0  0  0  0  0  0
    7.1759    0.3179   18.7797 C   0  0  0  0  0  0  0  0  0  0  0  0
    8.1718   -0.0977   18.6196 H   0  0  0  0  0  0  0  0  0  0  0  0
    6.5953    0.3227   20.0669 C   0  0  0  0  0  0  0  0  0  0  0  0
    7.2796   -0.4304   21.1623 C   0  0  0  0  0  0  0  0  0  0  0  0
    7.5269    0.3481   22.7114 S   0  0  0  0  0  0  0  0  0  0  0  0
    8.3343   -0.9124   23.6388 C   0  0  0  0  0  0  0  0  0  0  0  0
    8.5331   -0.5590   25.0689 C   0  0  0  0  0  0  0  0  0  0  0  0
    9.1002   -1.2475   26.0052 N   0  0  0  0  0  0  0  0  0  0  0  0
    8.9100   -0.5406   27.1811 N   0  0  0  0  0  0  0  0  0  0  0  0
    8.2422    0.5168   26.8693 C   0  0  0  0  0  0  0  0  0  0  0  0
    7.7238    1.5831   27.7589 C   0  0  0  0  0  0  0  0  0  0  0  0
    8.2503    2.5231   27.5628 H   0  0  0  0  0  0  0  0  0  0  0  0
    7.8752    1.2820   28.7981 H   0  0  0  0  0  0  0  0  0  0  0  0
    6.6575    1.7329   27.5643 H   0  0  0  0  0  0  0  0  0  0  0  0
    7.9797    0.5919   25.5405 O   0  0  0  0  0  0  0  0  0  0  0  0
    8.6696   -2.1330   23.1690 C   0  0  0  0  0  0  0  0  0  0  0  0
    9.2002   -2.8548   23.7930 H   0  0  0  0  0  0  0  0  0  0  0  0
    8.3110   -2.6264   21.8308 C   0  0  0  0  0  0  0  0  0  0  0  0
    8.5417   -3.7784   21.5028 O   0  0  0  0  0  0  0  0  0  0  0  0
    7.6573   -1.6941   20.9088 C   0  0  0  0  0  0  0  0  0  0  0  0
    7.4500   -2.1322   19.9429 H   0  0  0  0  0  0  0  0  0  0  0  0
    5.3379    0.9321   20.2066 C   0  0  0  0  0  0  0  0  0  0  0  0
    4.8630    1.0093   21.1858 H   0  0  0  0  0  0  0  0  0  0  0  0
    4.7144    1.4380   19.0614 C   0  0  0  0  0  0  0  0  0  0  0  0
    3.7428    1.9150   19.1086 H   0  0  0  0  0  0  0  0  0  0  0  0
  1  2  1  0
  2  3  2  0
  3  4  1  0
  4  5  1  0
  4  6  2  0
  6  7  1  0
  7  8  1  0
  8  9  1  0
  9 10  1  0
 10 11  2  0
 11 12  1  0
 12 13  2  0
 13 14  1  0
 14 15  1  0
 14 16  1  0
 14 17  1  0
 13 18  1  0
  9 19  2  0
 19 20  1  0
 19 21  1  0
 21 22  2  0
 21 23  1  0
 23 24  1  0
  6 25  1  0
 25 26  1  0
 25 27  2  0
 27 28  1  0
 27  2  1  0
 23  7  2  0
 18 10  1  0
M  END
>  <plip>  (1) 
-0.034482758620689655

>  <filename>  (1) 
[H][c]1[n][c]([H])[c](-[c]2[s][c](-[c]3[n][n][c]([C]([H])([H])[H])[o]3)[c]([H])[c](=[O])[c]2[H])[c]([H])[c]1[H]

$$$$
