
     RDKit          3D

 24 25  0  0  0  0  0  0  0  0999 V2000
    5.0637   -3.4543   17.7811 H   0  0  0  0  0  0  0  0  0  0  0  0
    5.4918   -3.5323   18.7690 C   0  0  0  0  0  0  0  0  0  0  0  0
    6.1248   -4.6459   19.2434 N   0  0  0  0  0  0  0  0  0  0  0  0
    6.4978   -4.2668   20.4432 C   0  0  0  0  0  0  0  0  0  0  0  0
    7.0710   -4.8338   21.1675 H   0  0  0  0  0  0  0  0  0  0  0  0
    6.0658   -2.9998   20.6815 N   0  0  0  0  0  0  0  0  0  0  0  0
    6.4230   -1.9136   21.9479 S   0  0  0  0  0  0  0  0  0  0  0  0
    7.4152   -0.6675   21.0137 C   0  0  1  0  0  0  0  0  0  0  0  0
    8.2449   -1.2300   20.5699 H   0  0  0  0  0  0  0  0  0  0  0  0
    6.6611    0.0351   19.8877 C   0  0  0  0  0  0  0  0  0  0  0  0
    7.1525    0.0495   18.5696 C   0  0  0  0  0  0  0  0  0  0  0  0
    8.0919   -0.4547   18.3286 H   0  0  0  0  0  0  0  0  0  0  0  0
    6.5565    0.6662   17.5381 N   0  0  0  0  0  0  0  0  0  0  0  0
    5.4042    1.3083   17.7905 C   0  0  0  0  0  0  0  0  0  0  0  0
    4.9407    1.8151   16.9449 H   0  0  0  0  0  0  0  0  0  0  0  0
    4.8051    1.3370   19.0516 C   0  0  0  0  0  0  0  0  0  0  0  0
    3.8649    1.8611   19.1926 H   0  0  0  0  0  0  0  0  0  0  0  0
    5.4409    0.6896   20.1149 C   0  0  0  0  0  0  0  0  0  0  0  0
    4.9908    0.6680   21.1090 H   0  0  0  0  0  0  0  0  0  0  0  0
    7.9392    0.2918   22.0935 C   0  0  0  0  0  0  0  0  0  0  0  0
    8.4988   -0.2662   22.8506 H   0  0  0  0  0  0  0  0  0  0  0  0
    7.1023    0.7871   22.5984 H   0  0  0  0  0  0  0  0  0  0  0  0
    8.5961    1.0633   21.6759 H   0  0  0  0  0  0  0  0  0  0  0  0
    5.4151   -2.5279   19.6012 N   0  0  0  0  0  0  0  0  0  0  0  0
  1  2  1  0
  2  3  1  0
  3  4  2  0
  4  5  1  0
  4  6  1  0
  6  7  1  0
  7  8  1  0
  8  9  1  6
  8 10  1  0
 10 11  2  0
 11 12  1  0
 11 13  1  0
 13 14  2  0
 14 15  1  0
 14 16  1  0
 16 17  1  0
 16 18  2  0
 18 19  1  0
  8 20  1  0
 20 21  1  0
 20 22  1  0
 20 23  1  0
  6 24  1  0
 24  2  2  0
 18 10  1  0
M  END
>  <plip>  (1) 
-0.13793103448275862

>  <filename>  (1) 
[H][c]1[n][c]([H])[n]([S][C@@]([H])([c]2[c]([H])[n][c]([H])[c]([H])[c]2[H])[C]([H])([H])[H])[n]1

$$$$
