
     RDKit          3D

 25 27  0  0  0  0  0  0  0  0999 V2000
    4.9111    1.7932   16.9840 H   0  0  0  0  0  0  0  0  0  0  0  0
    5.3908    1.3026   17.8249 C   0  0  0  0  0  0  0  0  0  0  0  0
    6.5571    0.6888   17.5575 N   0  0  0  0  0  0  0  0  0  0  0  0
    7.1612    0.0648   18.5742 C   0  0  0  0  0  0  0  0  0  0  0  0
    8.1182   -0.4059   18.3440 H   0  0  0  0  0  0  0  0  0  0  0  0
    6.6506    0.0155   19.8885 C   0  0  0  0  0  0  0  0  0  0  0  0
    7.3602   -0.6561   20.9787 C   0  0  0  0  0  0  0  0  0  0  0  0
    7.5320   -0.3212   22.3122 C   0  0  0  0  0  0  0  0  0  0  0  0
    7.0808    0.8515   22.9346 N   0  0  0  0  0  0  0  0  0  0  0  0
    6.9409    1.6858   22.3947 H   0  0  0  0  0  0  0  0  0  0  0  0
    6.8933    1.0631   24.2623 C   0  0  0  0  0  0  0  0  0  0  0  0
    6.9044    0.0831   25.1943 N   0  0  0  0  0  0  0  0  0  0  0  0
    6.6587    0.6706   26.3289 N   0  0  0  0  0  0  0  0  0  0  0  0
    6.5200    1.9418   26.0607 N   0  0  0  0  0  0  0  0  0  0  0  0
    6.3235    2.5904   26.8156 H   0  0  0  0  0  0  0  0  0  0  0  0
    6.6517    2.2660   24.7701 N   0  0  0  0  0  0  0  0  0  0  0  0
    8.2917   -1.3893   22.8577 C   0  0  0  0  0  0  0  0  0  0  0  0
    8.6036   -1.4607   23.8863 H   0  0  0  0  0  0  0  0  0  0  0  0
    8.5757   -2.3094   21.9458 N   0  0  0  0  0  0  0  0  0  0  0  0
    8.0138   -1.8373   20.8231 N   0  0  0  0  0  0  0  0  0  0  0  0
    8.0741   -2.3788   19.9746 H   0  0  0  0  0  0  0  0  0  0  0  0
    5.4308    0.6602   20.1429 C   0  0  0  0  0  0  0  0  0  0  0  0
    5.0090    0.6222   21.1488 H   0  0  0  0  0  0  0  0  0  0  0  0
    4.7948    1.3178   19.0905 C   0  0  0  0  0  0  0  0  0  0  0  0
    3.8648    1.8485   19.2494 H   0  0  0  0  0  0  0  0  0  0  0  0
  1  2  1  0
  2  3  2  0
  3  4  1  0
  4  5  1  0
  4  6  2  0
  6  7  1  0
  7  8  2  0
  8  9  1  0
  9 10  1  0
  9 11  1  0
 11 12  1  0
 12 13  2  0
 13 14  1  0
 14 15  1  0
 14 16  1  0
  8 17  1  0
 17 18  1  0
 17 19  2  0
 19 20  1  0
 20 21  1  0
  6 22  1  0
 22 23  1  0
 22 24  2  0
 24 25  1  0
 24  2  1  0
 20  7  1  0
 16 11  2  0
M  END
>  <plip>  (1) 
-0.03333333333333333

>  <filename>  (1) 
[H][c]1[n][c]([H])[c](-[c]2[c]([N]([H])[c]3[n][n][n]([H])[n]3)[c]([H])[n][n]2[H])[c]([H])[c]1[H]

$$$$
