
     RDKit          3D

 43 45  0  0  0  0  0  0  0  0999 V2000
    6.9619   -2.5211   25.5255 C   0  0  0  0  0  0  0  0  0  0  0  0
    7.3909   -3.2653   24.2761 C   0  0  0  0  0  0  0  0  0  0  0  0
    6.7251   -4.6535   24.1593 C   0  0  0  0  0  0  0  0  0  0  0  0
    7.2130   -5.5619   25.2420 C   0  0  0  0  0  0  0  0  0  0  0  0
    8.4582   -6.1202   25.3405 C   0  0  0  0  0  0  0  0  0  0  0  0
    8.6427   -6.6280   26.6091 N   0  0  0  0  0  0  0  0  0  0  0  0
    7.5109   -6.3989   27.3522 C   0  0  0  0  0  0  0  0  0  0  0  0
    7.2254   -6.7149   28.6869 C   0  0  0  0  0  0  0  0  0  0  0  0
    5.9518   -6.4191   29.1604 C   0  0  0  0  0  0  0  0  0  0  0  0
    4.9676   -5.8314   28.3209 C   0  0  0  0  0  0  0  0  0  0  0  0
    5.2763   -5.4785   27.0110 C   0  0  0  0  0  0  0  0  0  0  0  0
    6.5670   -5.7657   26.5114 C   0  0  0  0  0  0  0  0  0  0  0  0
    4.5379   -5.0029   26.3675 H   0  0  0  0  0  0  0  0  0  0  0  0
    3.9652   -5.6660   28.7134 H   0  0  0  0  0  0  0  0  0  0  0  0
    5.7089   -6.6519   30.1942 H   0  0  0  0  0  0  0  0  0  0  0  0
    7.9927   -7.2028   29.2815 H   0  0  0  0  0  0  0  0  0  0  0  0
    9.5073   -6.9720   26.9992 H   0  0  0  0  0  0  0  0  0  0  0  0
    9.2280   -6.1922   24.5806 H   0  0  0  0  0  0  0  0  0  0  0  0
    5.6400   -4.4983   24.2251 H   0  0  0  0  0  0  0  0  0  0  0  0
    6.9291   -5.0664   23.1670 H   0  0  0  0  0  0  0  0  0  0  0  0
    6.9880   -2.4333   23.1719 O   0  0  0  0  0  0  0  0  0  0  0  0
    7.3403   -2.8139   21.9293 C   0  0  0  0  0  0  0  0  0  0  0  0
    8.0775   -3.7374   21.6668 O   0  0  0  0  0  0  0  0  0  0  0  0
    6.6766   -1.9182   20.9262 C   0  0  0  0  0  0  0  0  0  0  0  0
    7.3023   -0.5097   20.8473 C   0  0  0  0  0  0  0  0  0  0  0  0
    6.6475    0.2605   19.7320 C   0  0  0  0  0  0  0  0  0  0  0  0
    5.4283    0.9304   19.9168 C   0  0  0  0  0  0  0  0  0  0  0  0
    4.8066    1.5206   18.8156 C   0  0  0  0  0  0  0  0  0  0  0  0
    5.4171    1.4092   17.5630 C   0  0  0  0  0  0  0  0  0  0  0  0
    6.5803    0.7736   17.3590 N   0  0  0  0  0  0  0  0  0  0  0  0
    7.1729    0.2273   18.4286 C   0  0  0  0  0  0  0  0  0  0  0  0
    8.1278   -0.2680   18.2393 H   0  0  0  0  0  0  0  0  0  0  0  0
    4.9495    1.8393   16.6810 H   0  0  0  0  0  0  0  0  0  0  0  0
    3.8730    2.0635   18.9160 H   0  0  0  0  0  0  0  0  0  0  0  0
    4.9710    0.9832   20.9078 H   0  0  0  0  0  0  0  0  0  0  0  0
    7.1770    0.0092   21.8058 H   0  0  0  0  0  0  0  0  0  0  0  0
    8.3844   -0.5834   20.6753 H   0  0  0  0  0  0  0  0  0  0  0  0
    5.6267   -1.8252   21.2155 H   0  0  0  0  0  0  0  0  0  0  0  0
    6.7164   -2.4162   19.9589 H   0  0  0  0  0  0  0  0  0  0  0  0
    8.4840   -3.3800   24.2394 H   0  0  0  0  0  0  0  0  0  0  0  0
    5.8703   -2.4034   25.5292 H   0  0  0  0  0  0  0  0  0  0  0  0
    7.2569   -3.0819   26.4203 H   0  0  0  0  0  0  0  0  0  0  0  0
    7.4127   -1.5262   25.5632 H   0  0  0  0  0  0  0  0  0  0  0  0
  1  2  1  0
  2  3  1  0
  3  4  1  0
  4  5  2  0
  5  6  1  0
  6  7  1  0
  7  8  2  0
  8  9  1  0
  9 10  2  0
 10 11  1  0
 11 12  2  0
 11 13  1  0
 10 14  1  0
  9 15  1  0
  8 16  1  0
  6 17  1  0
  5 18  1  0
  3 19  1  0
  3 20  1  0
  2 21  1  0
 21 22  1  0
 22 23  2  0
 22 24  1  0
 24 25  1  0
 25 26  1  0
 26 27  2  0
 27 28  1  0
 28 29  2  0
 29 30  1  0
 30 31  2  0
 31 32  1  0
 29 33  1  0
 28 34  1  0
 27 35  1  0
 25 36  1  0
 25 37  1  0
 24 38  1  0
 24 39  1  0
  2 40  1  0
  1 41  1  0
  1 42  1  0
  1 43  1  0
 12  4  1  0
 31 26  1  0
 12  7  1  0
M  END
>  <plip>  (1) 
-0.14285714285714285

>  <filename>  (1) 
[H][c]1[n][c]([H])[c]([C]([H])([H])[C]([H])([H])[C](=[O])[O][C]([H])([C]([H])([H])[H])[C]([H])([H])[c]2[c]([H])[n]([H])[c]3[c]([H])[c]([H])[c]([H])[c]([H])[c]23)[c]([H])[c]1[H]

$$$$
