
     RDKit          3D

 21 22  0  0  0  0  0  0  0  0999 V2000
    7.7698   -2.2815   19.9256 H   0  0  0  0  0  0  0  0  0  0  0  0
    7.3346   -2.1224   20.7749 O   0  0  0  0  0  0  0  0  0  0  0  0
    7.3991   -0.7261   20.9934 C   0  0  1  0  0  0  0  0  0  0  0  0
    6.8597   -0.5614   21.9399 H   0  0  0  0  0  0  0  0  0  0  0  0
    8.8167   -0.2552   21.1547 C   0  0  0  0  0  0  0  0  0  0  0  0
    9.2546    1.4135   21.2611 S   0  0  0  0  0  0  0  0  0  0  0  0
   10.8862    0.9264   21.5425 C   0  0  0  0  0  0  0  0  0  0  0  0
   11.6557    1.6720   21.6819 H   0  0  0  0  0  0  0  0  0  0  0  0
   11.1023   -0.3520   21.5667 N   0  0  0  0  0  0  0  0  0  0  0  0
    9.9224   -1.0215   21.3530 C   0  0  0  0  0  0  0  0  0  0  0  0
    9.9155   -2.1044   21.3733 H   0  0  0  0  0  0  0  0  0  0  0  0
    6.6637    0.0183   19.9091 C   0  0  0  0  0  0  0  0  0  0  0  0
    7.1689    0.0529   18.6088 C   0  0  0  0  0  0  0  0  0  0  0  0
    8.1211   -0.4274   18.3761 H   0  0  0  0  0  0  0  0  0  0  0  0
    6.5667    0.6692   17.5815 N   0  0  0  0  0  0  0  0  0  0  0  0
    5.4036    1.2889   17.8430 C   0  0  0  0  0  0  0  0  0  0  0  0
    4.9172    1.7756   16.9993 H   0  0  0  0  0  0  0  0  0  0  0  0
    4.8022    1.3123   19.1049 C   0  0  0  0  0  0  0  0  0  0  0  0
    3.8691    1.8467   19.2598 H   0  0  0  0  0  0  0  0  0  0  0  0
    5.4409    0.6565   20.1582 C   0  0  0  0  0  0  0  0  0  0  0  0
    5.0035    0.6337   21.1611 H   0  0  0  0  0  0  0  0  0  0  0  0
  1  2  1  0
  2  3  1  0
  3  4  1  1
  3  5  1  0
  5  6  1  0
  6  7  1  0
  7  8  1  0
  7  9  2  0
  9 10  1  0
 10 11  1  0
  3 12  1  0
 12 13  2  0
 13 14  1  0
 13 15  1  0
 15 16  2  0
 16 17  1  0
 16 18  1  0
 18 19  1  0
 18 20  2  0
 20 21  1  0
 10  5  2  0
 20 12  1  0
M  END
>  <plip>  (1) 
-0.03571428571428571

>  <filename>  (1) 
[H][O][C@@]([H])([c]1[s][c]([H])[n][c]1[H])[c]1[c]([H])[n][c]([H])[c]([H])[c]1[H]

$$$$
