
     RDKit          3D

 26 27  0  0  0  0  0  0  0  0999 V2000
    5.8034    1.6565   24.6782 H   0  0  0  0  0  0  0  0  0  0  0  0
    6.0224    1.3180   23.7965 O   0  0  0  0  0  0  0  0  0  0  0  0
    7.2715    1.8018   23.6730 C   0  0  0  0  0  0  0  0  0  0  0  0
    7.7143    2.5036   24.5493 O   0  0  0  0  0  0  0  0  0  0  0  0
    7.9231    1.3806   22.3443 C   0  0  2  0  0  0  0  0  0  0  0  0
    7.2857    1.8553   21.5855 H   0  0  0  0  0  0  0  0  0  0  0  0
    7.8997   -0.1338   22.1062 C   0  0  0  0  0  0  0  0  0  0  0  0
    7.3743   -0.7096   20.9776 C   0  0  0  0  0  0  0  0  0  0  0  0
    6.6578    0.0134   19.9045 C   0  0  0  0  0  0  0  0  0  0  0  0
    7.1683    0.0559   18.5917 C   0  0  0  0  0  0  0  0  0  0  0  0
    8.1202   -0.4256   18.3668 H   0  0  0  0  0  0  0  0  0  0  0  0
    6.5648    0.6779   17.5769 N   0  0  0  0  0  0  0  0  0  0  0  0
    5.4000    1.2931   17.8381 C   0  0  0  0  0  0  0  0  0  0  0  0
    4.9214    1.7848   16.9947 H   0  0  0  0  0  0  0  0  0  0  0  0
    4.7999    1.3061   19.1036 C   0  0  0  0  0  0  0  0  0  0  0  0
    3.8706    1.8448   19.2540 H   0  0  0  0  0  0  0  0  0  0  0  0
    5.4342    0.6549   20.1629 C   0  0  0  0  0  0  0  0  0  0  0  0
    5.0141    0.6373   21.1746 H   0  0  0  0  0  0  0  0  0  0  0  0
    7.4588   -2.4413   20.8314 S   0  0  0  0  0  0  0  0  0  0  0  0
    8.4917   -2.6957   22.5825 S   0  0  0  0  0  0  0  0  0  0  0  0
    8.5357   -1.0186   23.0584 C   0  0  0  0  0  0  0  0  0  0  0  0
    9.2222   -0.6235   24.4998 S   0  0  0  0  0  0  0  0  0  0  0  0
    9.3379    1.9437   22.1622 C   0  0  0  0  0  0  0  0  0  0  0  0
   10.0186    1.5852   22.9352 H   0  0  0  0  0  0  0  0  0  0  0  0
    9.7423    1.6381   21.1933 H   0  0  0  0  0  0  0  0  0  0  0  0
    9.3273    3.0353   22.1904 H   0  0  0  0  0  0  0  0  0  0  0  0
  1  2  1  0
  2  3  1  0
  3  4  2  0
  3  5  1  0
  5  6  1  6
  5  7  1  0
  7  8  2  0
  8  9  1  0
  9 10  2  0
 10 11  1  0
 10 12  1  0
 12 13  2  0
 13 14  1  0
 13 15  1  0
 15 16  1  0
 15 17  2  0
 17 18  1  0
  8 19  1  0
 19 20  1  0
 20 21  1  0
 21 22  2  0
  5 23  1  0
 23 24  1  0
 23 25  1  0
 23 26  1  0
 21  7  1  0
 17  9  1  0
M  END
>  <plip>  (1) 
-0.03571428571428571

>  <filename>  (1) 
[H][O][C](=[O])[C@]([H])([c]1[c](-[c]2[c]([H])[n][c]([H])[c]([H])[c]2[H])[s][s][c]1=[S])[C]([H])([H])[H]

$$$$
