
     RDKit          3D

 36 39  0  0  0  0  0  0  0  0999 V2000
    4.8282    1.8747   16.8868 H   0  0  0  0  0  0  0  0  0  0  0  0
    5.2996    1.3825   17.7435 C   0  0  0  0  0  0  0  0  0  0  0  0
    6.4673    0.7973   17.4464 N   0  0  0  0  0  0  0  0  0  0  0  0
    7.1336    0.2411   18.4612 C   0  0  0  0  0  0  0  0  0  0  0  0
    8.0615   -0.2414   18.1897 H   0  0  0  0  0  0  0  0  0  0  0  0
    6.6529    0.2284   19.7887 C   0  0  0  0  0  0  0  0  0  0  0  0
    7.3714   -0.7589   20.8117 N   0  0  0  0  0  0  0  0  0  0  0  0
    7.4092   -2.2544   20.7975 C   0  0  0  0  0  0  0  0  0  0  0  0
    7.4093   -2.2542   20.7973 O   0  0  0  0  0  0  0  0  0  0  0  0
    9.9591   -1.9216   22.0713 N   0  0  0  0  0  0  0  0  0  0  0  0
    9.8268   -2.9837   22.2432 H   0  0  0  0  0  0  0  0  0  0  0  0
    9.2710   -1.0132   22.8648 C   0  0  0  0  0  0  0  0  0  0  0  0
    9.9430   -0.0769   22.9715 H   0  0  0  0  0  0  0  0  0  0  0  0
    8.8538   -1.1528   23.9375 H   0  0  0  0  0  0  0  0  0  0  0  0
    7.8894   -0.2271   22.1644 C   0  0  2  0  0  0  0  0  0  0  0  0
    8.1021    0.8140   21.9698 H   0  0  0  0  0  0  0  0  0  0  0  0
    6.8744    0.0687   23.3796 C   0  0  0  0  0  0  0  0  0  0  0  0
    6.4876    1.3232   23.6786 N   0  0  0  0  0  0  0  0  0  0  0  0
    5.5240    1.4611   24.7262 C   0  0  0  0  0  0  0  0  0  0  0  0
    5.1631    2.7585   25.1779 C   0  0  0  0  0  0  0  0  0  0  0  0
    5.8088    3.5680   24.8361 H   0  0  0  0  0  0  0  0  0  0  0  0
    4.1160    2.9364   26.0847 C   0  0  0  0  0  0  0  0  0  0  0  0
    3.9365    3.9127   26.5348 H   0  0  0  0  0  0  0  0  0  0  0  0
    3.3002    1.8416   26.4657 C   0  0  0  0  0  0  0  0  0  0  0  0
    2.4798    1.9893   27.1666 H   0  0  0  0  0  0  0  0  0  0  0  0
    3.6428    0.5570   26.0469 C   0  0  0  0  0  0  0  0  0  0  0  0
    2.9581   -0.2897   26.2415 H   0  0  0  0  0  0  0  0  0  0  0  0
    4.8651    0.3358   25.3343 C   0  0  0  0  0  0  0  0  0  0  0  0
    5.3126   -0.9220   25.0003 C   0  0  0  0  0  0  0  0  0  0  0  0
    4.7704   -1.8363   25.3136 H   0  0  0  0  0  0  0  0  0  0  0  0
    6.2765   -1.0752   24.0367 C   0  0  0  0  0  0  0  0  0  0  0  0
    6.3562   -1.9571   23.5202 H   0  0  0  0  0  0  0  0  0  0  0  0
    5.4301    0.7694   20.1164 C   0  0  0  0  0  0  0  0  0  0  0  0
    5.0232    0.6621   21.1303 H   0  0  0  0  0  0  0  0  0  0  0  0
    4.7293    1.3925   19.0423 C   0  0  0  0  0  0  0  0  0  0  0  0
    3.7708    1.8972   19.1820 H   0  0  0  0  0  0  0  0  0  0  0  0
  1  2  1  0
  2  3  2  0
  3  4  1  0
  4  5  1  0
  4  6  2  0
  6  7  1  0
  7  8  1  0
  8  9  2  0
  8 10  1  0
 10 11  1  0
 10 12  1  0
 12 13  1  0
 12 14  1  0
 12 15  1  0
 15 16  1  6
 15 17  1  0
 17 18  2  0
 18 19  1  0
 19 20  2  0
 20 21  1  0
 20 22  1  0
 22 23  1  0
 22 24  2  0
 24 25  1  0
 24 26  1  0
 26 27  1  0
 26 28  2  0
 28 29  1  0
 29 30  1  0
 29 31  2  0
 31 32  1  0
  6 33  1  0
 33 34  1  0
 33 35  2  0
 35 36  1  0
 35  2  1  0
 15  7  1  0
 31 17  1  0
 28 19  1  0
M  END
>  <plip>  (1) 
-0.06896551724137931

>  <filename>  (1) 
[H][c]1[n][c]([H])[c]([N]2[C](=[O])[N]([H])[C]([H])([H])[C@]2([H])[c]2[n][c]3[c]([H])[c]([H])[c]([H])[c]([H])[c]3[c]([H])[c]2[H])[c]([H])[c]1[H]

$$$$
