
     RDKit          3D

 34 36  0  0  0  0  0  0  0  0999 V2000
    4.9786    1.7783   16.9764 H   0  0  0  0  0  0  0  0  0  0  0  0
    5.4366    1.2903   17.8364 C   0  0  0  0  0  0  0  0  0  0  0  0
    6.6022    0.6586   17.6262 N   0  0  0  0  0  0  0  0  0  0  0  0
    7.1751    0.0424   18.6674 C   0  0  0  0  0  0  0  0  0  0  0  0
    8.1278   -0.4468   18.4618 H   0  0  0  0  0  0  0  0  0  0  0  0
    6.6208    0.0190   19.9497 C   0  0  0  0  0  0  0  0  0  0  0  0
    7.3074   -0.7141   21.0323 C   0  0  0  0  0  0  0  0  0  0  0  0
    8.0409   -2.1686   20.9088 S   0  0  0  0  0  0  0  0  0  0  0  0
    7.2867   -0.1226   22.2713 N   0  0  0  0  0  0  0  0  0  0  0  0
    7.4679   -0.7532   23.0391 H   0  0  0  0  0  0  0  0  0  0  0  0
    7.4787    1.2238   22.5329 C   0  0  0  0  0  0  0  0  0  0  0  0
    7.7450    2.0234   21.6596 O   0  0  0  0  0  0  0  0  0  0  0  0
    7.3196    1.6244   23.9923 C   0  0  0  0  0  0  0  0  0  0  0  0
    7.0706    0.8295   25.0046 N   0  0  0  0  0  0  0  0  0  0  0  0
    6.9799    1.6636   26.0933 C   0  0  0  0  0  0  0  0  0  0  0  0
    6.6929    1.3468   27.4234 C   0  0  0  0  0  0  0  0  0  0  0  0
    6.4683    0.3109   27.6654 H   0  0  0  0  0  0  0  0  0  0  0  0
    6.6542    2.3746   28.3777 C   0  0  0  0  0  0  0  0  0  0  0  0
    6.3333    2.1321   29.8265 C   0  0  0  0  0  0  0  0  0  0  0  0
    5.9779    2.9992   30.6028 O   0  0  0  0  0  0  0  0  0  0  0  0
    6.4276    0.8433   30.2709 N   0  0  0  0  0  0  0  0  0  0  0  0
    7.1082    0.2382   29.8513 H   0  0  0  0  0  0  0  0  0  0  0  0
    6.3587    0.8357   31.2759 H   0  0  0  0  0  0  0  0  0  0  0  0
    6.8796    3.7189   27.9720 C   0  0  0  0  0  0  0  0  0  0  0  0
    6.8252    4.5051   28.7229 H   0  0  0  0  0  0  0  0  0  0  0  0
    7.1535    4.0498   26.6524 C   0  0  0  0  0  0  0  0  0  0  0  0
    7.3117    5.0791   26.3516 H   0  0  0  0  0  0  0  0  0  0  0  0
    7.2017    3.0068   25.7146 C   0  0  0  0  0  0  0  0  0  0  0  0
    7.4138    2.9459   24.3614 N   0  0  0  0  0  0  0  0  0  0  0  0
    7.6015    3.7027   23.7201 H   0  0  0  0  0  0  0  0  0  0  0  0
    5.3897    0.6664   20.1517 C   0  0  0  0  0  0  0  0  0  0  0  0
    4.9311    0.6831   21.1395 H   0  0  0  0  0  0  0  0  0  0  0  0
    4.7919    1.3130   19.0762 C   0  0  0  0  0  0  0  0  0  0  0  0
    3.8560    1.8441   19.2011 H   0  0  0  0  0  0  0  0  0  0  0  0
  1  2  1  0
  2  3  2  0
  3  4  1  0
  4  5  1  0
  4  6  2  0
  6  7  1  0
  7  8  2  0
  7  9  1  0
  9 10  1  0
  9 11  1  0
 11 12  2  0
 11 13  1  0
 13 14  2  0
 14 15  1  0
 15 16  2  0
 16 17  1  0
 16 18  1  0
 18 19  1  0
 19 20  2  0
 19 21  1  0
 21 22  1  0
 21 23  1  0
 18 24  2  0
 24 25  1  0
 24 26  1  0
 26 27  1  0
 26 28  2  0
 28 29  1  0
 29 30  1  0
  6 31  1  0
 31 32  1  0
 31 33  2  0
 33 34  1  0
 33  2  1  0
 29 13  1  0
 28 15  1  0
M  END
>  <plip>  (1) 
-0.034482758620689655

>  <filename>  (1) 
[H][c]1[n][c]([H])[c]([C](=[S])[N]([H])[C](=[O])[c]2[n][c]3[c]([H])[c]([C](=[O])[N]([H])[H])[c]([H])[c]([H])[c]3[n]2[H])[c]([H])[c]1[H]

$$$$
