
     RDKit          3D

 27 28  0  0  0  0  0  0  0  0999 V2000
    4.7268    1.3854   18.9844 C   0  0  0  0  0  0  0  0  0  0  0  0
    5.3664    1.3400   17.7402 C   0  0  0  0  0  0  0  0  0  0  0  0
    6.5369    0.7106   17.5405 N   0  0  0  0  0  0  0  0  0  0  0  0
    7.1134    0.1239   18.6019 C   0  0  0  0  0  0  0  0  0  0  0  0
    6.5692    0.1255   19.9196 C   0  0  0  0  0  0  0  0  0  0  0  0
    7.1758   -0.4664   21.0159 N   0  0  0  0  0  0  0  0  0  0  0  0
    8.4915   -1.0555   20.9968 C   0  0  0  0  0  0  0  0  0  0  0  0
    8.8443   -1.7058   22.3369 C   0  0  0  0  0  0  0  0  0  0  0  0
   10.3369   -2.0634   22.4166 C   0  0  0  0  0  0  0  0  0  0  0  0
   10.5271   -2.9094   23.6682 C   0  0  0  0  0  0  0  0  0  0  0  0
    9.1124   -4.0639   23.6555 S   0  0  0  0  0  0  0  0  0  0  0  0
    8.0341   -2.9814   22.6567 C   0  0  0  0  0  0  0  0  0  0  0  0
    7.7492   -3.5437   21.7611 H   0  0  0  0  0  0  0  0  0  0  0  0
    7.1187   -2.7637   23.2197 H   0  0  0  0  0  0  0  0  0  0  0  0
   11.4689   -3.4692   23.6707 H   0  0  0  0  0  0  0  0  0  0  0  0
   10.4953   -2.3054   24.5809 H   0  0  0  0  0  0  0  0  0  0  0  0
   10.9756   -1.1684   22.4216 H   0  0  0  0  0  0  0  0  0  0  0  0
   10.6117   -2.6553   21.5364 H   0  0  0  0  0  0  0  0  0  0  0  0
    8.6268   -0.9749   23.1272 H   0  0  0  0  0  0  0  0  0  0  0  0
    8.5399   -1.8038   20.1957 H   0  0  0  0  0  0  0  0  0  0  0  0
    9.2566   -0.3084   20.7361 H   0  0  0  0  0  0  0  0  0  0  0  0
    6.6754   -0.4237   21.8886 H   0  0  0  0  0  0  0  0  0  0  0  0
    5.3244    0.7736   20.0864 C   0  0  0  0  0  0  0  0  0  0  0  0
    4.8541    0.7929   21.0692 H   0  0  0  0  0  0  0  0  0  0  0  0
    8.0582   -0.3864   18.4075 H   0  0  0  0  0  0  0  0  0  0  0  0
    4.9253    1.8090   16.8669 H   0  0  0  0  0  0  0  0  0  0  0  0
    3.7731    1.9036   19.0749 H   0  0  0  0  0  0  0  0  0  0  0  0
  1  2  2  0
  2  3  1  0
  3  4  2  0
  4  5  1  0
  5  6  1  0
  6  7  1  0
  7  8  1  0
  8  9  1  0
  9 10  1  0
 10 11  1  0
 11 12  1  0
 12 13  1  0
 12 14  1  0
 10 15  1  0
 10 16  1  0
  9 17  1  0
  9 18  1  0
  8 19  1  0
  7 20  1  0
  7 21  1  0
  6 22  1  0
  5 23  2  0
 23 24  1  0
  4 25  1  0
  2 26  1  0
  1 27  1  0
 23  1  1  0
 12  8  1  0
M  END
>  <plip>  (1) 
-0.07142857142857142

>  <filename>  (1) 
[H][c]1[n][c]([H])[c]([N]([H])[C]([H])([H])[C]2([H])[C]([H])([H])[S][C]([H])([H])[C]2([H])[H])[c]([H])[c]1[H]

$$$$
