
     RDKit          3D

 47 50  0  0  0  0  0  0  0  0999 V2000
   10.9401   -1.4034   21.0288 O   0  0  0  0  0  0  0  0  0  0  0  0
   10.7082   -0.8502   22.0838 C   0  0  0  0  0  0  0  0  0  0  0  0
   10.4298   -1.5701   23.2024 N   0  0  0  0  0  0  0  0  0  0  0  0
    9.9867   -0.9962   24.3983 C   0  0  0  0  0  0  0  0  0  0  0  0
    9.4158   -1.7576   25.4215 C   0  0  0  0  0  0  0  0  0  0  0  0
    8.9178   -1.1331   26.5733 C   0  0  0  0  0  0  0  0  0  0  0  0
    9.0243    0.2580   26.6999 C   0  0  0  0  0  0  0  0  0  0  0  0
    9.6024    1.0286   25.6783 C   0  0  0  0  0  0  0  0  0  0  0  0
   10.1003    0.4031   24.5354 C   0  0  0  0  0  0  0  0  0  0  0  0
   10.7498    1.1541   23.5785 O   0  0  0  0  0  0  0  0  0  0  0  0
   10.7006    0.6942   22.2185 C   0  0  0  0  0  0  0  0  0  0  0  0
    9.5162    1.4150   21.5212 C   0  0  0  0  0  0  0  0  0  0  0  0
    8.2254    1.2313   22.3052 C   0  0  0  0  0  0  0  0  0  0  0  0
    7.7775    2.1157   23.0080 O   0  0  0  0  0  0  0  0  0  0  0  0
    7.6588   -0.0307   22.2283 N   0  0  0  0  0  0  0  0  0  0  0  0
    6.7352   -0.3768   23.3283 C   0  0  0  0  0  0  0  0  0  0  0  0
    6.4967   -1.8751   23.4180 C   0  0  0  0  0  0  0  0  0  0  0  0
    6.0949   -2.4465   22.0613 C   0  0  0  0  0  0  0  0  0  0  0  0
    7.2424   -2.2156   21.0864 C   0  0  0  0  0  0  0  0  0  0  0  0
    7.6035   -0.7275   20.9304 C   0  0  1  0  0  0  0  0  0  0  0  0
    6.7581    0.0203   19.8992 C   0  0  0  0  0  0  0  0  0  0  0  0
    5.5363    0.6582   20.1623 C   0  0  0  0  0  0  0  0  0  0  0  0
    4.8705    1.2899   19.1066 C   0  0  0  0  0  0  0  0  0  0  0  0
    5.4478    1.2777   17.8328 C   0  0  0  0  0  0  0  0  0  0  0  0
    6.6096    0.6679   17.5578 N   0  0  0  0  0  0  0  0  0  0  0  0
    7.2312    0.0644   18.5776 C   0  0  0  0  0  0  0  0  0  0  0  0
    8.1763   -0.4221   18.3275 H   0  0  0  0  0  0  0  0  0  0  0  0
    4.9598    1.7767   16.9980 H   0  0  0  0  0  0  0  0  0  0  0  0
    3.9270    1.8011   19.2589 H   0  0  0  0  0  0  0  0  0  0  0  0
    5.1120    0.6802   21.1694 H   0  0  0  0  0  0  0  0  0  0  0  0
    8.6233   -0.7430   20.5360 H   0  0  0  0  0  0  0  0  0  0  0  0
    6.9919   -2.6267   20.1038 H   0  0  0  0  0  0  0  0  0  0  0  0
    8.1462   -2.7332   21.4379 H   0  0  0  0  0  0  0  0  0  0  0  0
    5.2076   -1.9369   21.6602 H   0  0  0  0  0  0  0  0  0  0  0  0
    5.8519   -3.5104   22.1398 H   0  0  0  0  0  0  0  0  0  0  0  0
    7.4176   -2.3603   23.7632 H   0  0  0  0  0  0  0  0  0  0  0  0
    5.7398   -2.0742   24.1838 H   0  0  0  0  0  0  0  0  0  0  0  0
    7.1568   -0.0175   24.2737 H   0  0  0  0  0  0  0  0  0  0  0  0
    5.7908    0.1700   23.1972 H   0  0  0  0  0  0  0  0  0  0  0  0
    9.4089    1.0843   20.4860 H   0  0  0  0  0  0  0  0  0  0  0  0
    9.7140    2.4876   21.5234 H   0  0  0  0  0  0  0  0  0  0  0  0
   11.6349    1.0243   21.7568 H   0  0  0  0  0  0  0  0  0  0  0  0
    9.6938    2.1078   25.7566 H   0  0  0  0  0  0  0  0  0  0  0  0
    8.6753    0.7309   27.6118 H   0  0  0  0  0  0  0  0  0  0  0  0
    8.4337   -1.7304   27.3501 H   0  0  0  0  0  0  0  0  0  0  0  0
    9.3723   -2.8389   25.3247 H   0  0  0  0  0  0  0  0  0  0  0  0
   10.3784   -2.5648   23.0369 H   0  0  0  0  0  0  0  0  0  0  0  0
  1  2  2  0
  2  3  1  0
  3  4  1  0
  4  5  2  0
  5  6  1  0
  6  7  2  0
  7  8  1  0
  8  9  2  0
  9 10  1  0
 10 11  1  0
 11 12  1  0
 12 13  1  0
 13 14  2  0
 13 15  1  0
 15 16  1  0
 16 17  1  0
 17 18  1  0
 18 19  1  0
 19 20  1  0
 20 21  1  0
 21 22  2  0
 22 23  1  0
 23 24  2  0
 24 25  1  0
 25 26  2  0
 26 27  1  0
 24 28  1  0
 23 29  1  0
 22 30  1  0
 20 31  1  6
 19 32  1  0
 19 33  1  0
 18 34  1  0
 18 35  1  0
 17 36  1  0
 17 37  1  0
 16 38  1  0
 16 39  1  0
 12 40  1  0
 12 41  1  0
 11 42  1  0
  8 43  1  0
  7 44  1  0
  6 45  1  0
  5 46  1  0
  3 47  1  0
 11  2  1  0
 20 15  1  0
 26 21  1  0
  9  4  1  0
M  END
>  <plip>  (1) 
-0.06666666666666667

>  <filename>  (1) 
[H][c]1[n][c]([H])[c]([C@@]2([H])[N]([C](=[O])[C]([H])([H])[C]3([H])[O][c]4[c]([H])[c]([H])[c]([H])[c]([H])[c]4[N]([H])[C]3=[O])[C]([H])([H])[C]([H])([H])[C]([H])([H])[C]2([H])[H])[c]([H])[c]1[H]

$$$$
