
     RDKit          3D

 30 32  0  0  0  0  0  0  0  0999 V2000
    4.9762    1.8142   16.9650 H   0  0  0  0  0  0  0  0  0  0  0  0
    5.4019    1.2984   17.8237 C   0  0  0  0  0  0  0  0  0  0  0  0
    6.5633    0.6619   17.6133 N   0  0  0  0  0  0  0  0  0  0  0  0
    7.1470    0.0699   18.6593 C   0  0  0  0  0  0  0  0  0  0  0  0
    8.0806   -0.4527   18.4477 H   0  0  0  0  0  0  0  0  0  0  0  0
    6.6115    0.0754   19.9571 C   0  0  0  0  0  0  0  0  0  0  0  0
    7.3445   -0.6336   21.0153 C   0  0  0  0  0  0  0  0  0  0  0  0
    7.9174   -1.7947   20.8047 N   0  0  0  0  0  0  0  0  0  0  0  0
    8.4986   -2.1802   21.9900 O   0  0  0  0  0  0  0  0  0  0  0  0
    8.3078   -1.2248   22.9023 C   0  0  0  0  0  0  0  0  0  0  0  0
    8.7923   -1.3396   23.8641 H   0  0  0  0  0  0  0  0  0  0  0  0
    7.5664   -0.2445   22.3509 C   0  0  0  0  0  0  0  0  0  0  0  0
    7.3974    1.3255   22.9956 S   0  0  0  0  0  0  0  0  0  0  0  0
    7.4028    2.2487   21.8706 O   0  0  0  0  0  0  0  0  0  0  0  0
    8.3738    1.3829   24.0753 O   0  0  0  0  0  0  0  0  0  0  0  0
    5.7683    1.2850   23.7191 C   0  0  0  0  0  0  0  0  0  0  0  0
    5.3984    0.2423   24.5806 C   0  0  0  0  0  0  0  0  0  0  0  0
    6.0339   -0.6254   24.7586 H   0  0  0  0  0  0  0  0  0  0  0  0
    4.1417    0.2638   25.1908 C   0  0  0  0  0  0  0  0  0  0  0  0
    3.8035   -0.5701   25.7988 H   0  0  0  0  0  0  0  0  0  0  0  0
    3.2874    1.3474   24.9713 C   0  0  0  0  0  0  0  0  0  0  0  0
    1.6838    1.3176   25.6479 Cl  0  0  0  0  0  0  0  0  0  0  0  0
    3.6717    2.4163   24.1542 C   0  0  0  0  0  0  0  0  0  0  0  0
    2.9868    3.2445   23.9946 H   0  0  0  0  0  0  0  0  0  0  0  0
    4.9118    2.3747   23.5124 C   0  0  0  0  0  0  0  0  0  0  0  0
    5.1984    3.1825   22.8390 H   0  0  0  0  0  0  0  0  0  0  0  0
    5.3664    0.6899   20.1457 C   0  0  0  0  0  0  0  0  0  0  0  0
    4.8750    0.6749   21.1204 H   0  0  0  0  0  0  0  0  0  0  0  0
    4.7581    1.3234   19.0637 C   0  0  0  0  0  0  0  0  0  0  0  0
    3.8202    1.8535   19.1775 H   0  0  0  0  0  0  0  0  0  0  0  0
  1  2  1  0
  2  3  2  0
  3  4  1  0
  4  5  1  0
  4  6  2  0
  6  7  1  0
  7  8  2  0
  8  9  1  0
  9 10  1  0
 10 11  1  0
 10 12  2  0
 12 13  1  0
 13 14  2  0
 13 15  2  0
 13 16  1  0
 16 17  2  0
 17 18  1  0
 17 19  1  0
 19 20  1  0
 19 21  2  0
 21 22  1  0
 21 23  1  0
 23 24  1  0
 23 25  2  0
 25 26  1  0
  6 27  1  0
 27 28  1  0
 27 29  2  0
 29 30  1  0
 29  2  1  0
 12  7  1  0
 25 16  1  0
M  END
>  <plip>  (1) 
-0.0

>  <filename>  (1) 
[H][c]1[n][c]([H])[c](-[c]2[n][o][c]([H])[c]2[S](=[O])(=[O])[c]2[c]([H])[c]([H])[c]([Cl])[c]([H])[c]2[H])[c]([H])[c]1[H]

$$$$
