
     RDKit          3D

 46 48  0  0  0  0  0  0  0  0999 V2000
    6.3147    2.7337   28.8029 C   0  0  0  0  0  0  0  0  0  0  0  0
    6.0082    1.4952   28.2315 C   0  0  0  0  0  0  0  0  0  0  0  0
    6.4620    1.1781   26.9456 C   0  0  0  0  0  0  0  0  0  0  0  0
    7.2529    2.0775   26.2096 C   0  0  0  0  0  0  0  0  0  0  0  0
    7.8046    1.7026   24.8403 C   0  0  0  0  0  0  0  0  0  0  0  0
    9.2126    1.0688   24.8463 C   0  0  0  0  0  0  0  0  0  0  0  0
    9.7791    0.7146   23.4506 C   0  0  0  0  0  0  0  0  0  0  0  0
   11.1943    0.0497   23.5368 C   0  0  0  0  0  0  0  0  0  0  0  0
   11.0309   -1.3991   23.0427 C   0  0  0  0  0  0  0  0  0  0  0  0
    9.8949   -1.3061   22.0394 C   0  0  0  0  0  0  0  0  0  0  0  0
    8.9133   -0.3098   22.6759 C   0  0  0  0  0  0  0  0  0  0  0  0
    8.0161    0.2619   21.6415 N   0  0  0  0  0  4  0  0  0  0  0  0
    7.1287   -0.7170   20.9620 C   0  0  0  0  0  0  0  0  0  0  0  0
    6.4829    0.0432   19.8515 C   0  0  0  0  0  0  0  0  0  0  0  0
    5.2724    0.7245   20.0299 C   0  0  0  0  0  0  0  0  0  0  0  0
    4.7378    1.4250   18.9488 C   0  0  0  0  0  0  0  0  0  0  0  0
    5.4484    1.4284   17.7439 C   0  0  0  0  0  0  0  0  0  0  0  0
    6.6236    0.8041   17.5660 N   0  0  0  0  0  0  0  0  0  0  0  0
    7.1268    0.1390   18.6100 C   0  0  0  0  0  0  0  0  0  0  0  0
    8.0934   -0.3466   18.4430 H   0  0  0  0  0  0  0  0  0  0  0  0
    5.0613    1.9627   16.8812 H   0  0  0  0  0  0  0  0  0  0  0  0
    3.8053    1.9757   19.0372 H   0  0  0  0  0  0  0  0  0  0  0  0
    4.7859    0.7155   21.0088 H   0  0  0  0  0  0  0  0  0  0  0  0
    7.7089   -1.5582   20.5641 H   0  0  0  0  0  0  0  0  0  0  0  0
    6.3861   -1.1419   21.6519 H   0  0  0  0  0  0  0  0  0  0  0  0
    8.5946    0.7238   20.8906 H   0  0  0  0  0  0  0  0  0  0  0  0
    7.3978    1.0129   22.0263 H   0  0  0  0  0  0  0  0  0  0  0  0
    8.3043   -0.8613   23.4132 H   0  0  0  0  0  0  0  0  0  0  0  0
    9.4302   -2.2730   21.8150 H   0  0  0  0  0  0  0  0  0  0  0  0
   10.2737   -0.8976   21.0913 H   0  0  0  0  0  0  0  0  0  0  0  0
   11.9469   -1.7805   22.5819 H   0  0  0  0  0  0  0  0  0  0  0  0
   10.7606   -2.0804   23.8623 H   0  0  0  0  0  0  0  0  0  0  0  0
   11.8938    0.5698   22.8732 H   0  0  0  0  0  0  0  0  0  0  0  0
   11.6444    0.0948   24.5363 H   0  0  0  0  0  0  0  0  0  0  0  0
    9.8606    1.6356   22.8503 H   0  0  0  0  0  0  0  0  0  0  0  0
    9.1936    0.1557   25.4612 H   0  0  0  0  0  0  0  0  0  0  0  0
    9.9215    1.7446   25.3419 H   0  0  0  0  0  0  0  0  0  0  0  0
    7.8208    2.5965   24.2026 H   0  0  0  0  0  0  0  0  0  0  0  0
    7.1046    1.0072   24.3581 H   0  0  0  0  0  0  0  0  0  0  0  0
    7.5295    3.3274   26.7868 C   0  0  0  0  0  0  0  0  0  0  0  0
    7.0742    3.6537   28.0698 C   0  0  0  0  0  0  0  0  0  0  0  0
    7.2962    4.6305   28.4875 H   0  0  0  0  0  0  0  0  0  0  0  0
    8.0878    4.0673   26.2169 H   0  0  0  0  0  0  0  0  0  0  0  0
    6.1776    0.2267   26.5026 H   0  0  0  0  0  0  0  0  0  0  0  0
    5.4018    0.7795   28.7809 H   0  0  0  0  0  0  0  0  0  0  0  0
    5.9632    2.9819   29.8021 H   0  0  0  0  0  0  0  0  0  0  0  0
  1  2  2  0
  2  3  1  0
  3  4  2  0
  4  5  1  0
  5  6  1  0
  6  7  1  0
  7  8  1  0
  8  9  1  0
  9 10  1  0
 10 11  1  0
 11 12  1  0
 12 13  1  0
 13 14  1  0
 14 15  2  0
 15 16  1  0
 16 17  2  0
 17 18  1  0
 18 19  2  0
 19 20  1  0
 17 21  1  0
 16 22  1  0
 15 23  1  0
 13 24  1  0
 13 25  1  0
 12 26  1  0
 12 27  1  0
 11 28  1  0
 10 29  1  0
 10 30  1  0
  9 31  1  0
  9 32  1  0
  8 33  1  0
  8 34  1  0
  7 35  1  0
  6 36  1  0
  6 37  1  0
  5 38  1  0
  5 39  1  0
  4 40  1  0
 40 41  2  0
 41 42  1  0
 40 43  1  0
  3 44  1  0
  2 45  1  0
  1 46  1  0
 41  1  1  0
 11  7  1  0
 19 14  1  0
M  CHG  1  12   1
M  END
>  <plip>  (1) 
-0.03571428571428571

>  <filename>  (1) 
[H][c]1[n][c]([H])[c]([C]([H])([H])[N+]([H])([H])[C]2([H])[C]([H])([H])[C]([H])([H])[C]([H])([H])[C]2([H])[C]([H])([H])[C]([H])([H])[c]2[c]([H])[c]([H])[c]([H])[c]([H])[c]2[H])[c]([H])[c]1[H]

$$$$
