
     RDKit          3D

 35 37  0  0  0  0  0  0  0  0999 V2000
    4.7962    1.3136   19.0962 C   0  0  0  0  0  0  0  0  0  0  0  0
    5.3968    1.2980   17.8324 C   0  0  0  0  0  0  0  0  0  0  0  0
    6.5616    0.6846   17.5701 N   0  0  0  0  0  0  0  0  0  0  0  0
    7.1588    0.0646   18.5907 C   0  0  0  0  0  0  0  0  0  0  0  0
    6.6329   -0.0123   19.8928 C   0  0  0  0  0  0  0  0  0  0  0  0
    7.4047   -0.7253   20.9694 C   0  0  0  0  0  0  0  0  0  0  0  0
    8.9310    0.1756   21.4047 S   0  0  0  0  0  0  0  0  0  0  0  0
    8.1930    1.4553   22.4797 C   0  0  0  0  0  0  0  0  0  0  0  0
    8.0813    0.9660   23.9231 C   0  0  0  0  0  0  0  0  0  0  0  0
    7.3640    2.0015   24.7897 C   0  0  0  0  0  0  0  0  0  0  0  0
    7.8556    3.4260   24.5818 C   0  0  0  0  0  0  0  0  0  0  0  0
    7.5423    4.4117   25.5296 C   0  0  0  0  0  0  0  0  0  0  0  0
    7.9404    5.7375   25.3539 C   0  0  0  0  0  0  0  0  0  0  0  0
    8.6665    6.0969   24.2111 C   0  0  0  0  0  0  0  0  0  0  0  0
    8.9887    5.1225   23.2648 C   0  0  0  0  0  0  0  0  0  0  0  0
    8.5965    3.7861   23.4356 C   0  0  0  0  0  0  0  0  0  0  0  0
    9.0141    2.7428   22.4082 C   0  0  0  0  0  0  0  0  0  0  0  0
   10.0701    2.4961   22.5546 H   0  0  0  0  0  0  0  0  0  0  0  0
    8.9561    3.1586   21.3962 H   0  0  0  0  0  0  0  0  0  0  0  0
    9.5546    5.3910   22.3730 H   0  0  0  0  0  0  0  0  0  0  0  0
    8.9811    7.1265   24.0592 H   0  0  0  0  0  0  0  0  0  0  0  0
    7.6780    6.4865   26.0968 H   0  0  0  0  0  0  0  0  0  0  0  0
    6.9730    4.1204   26.4116 H   0  0  0  0  0  0  0  0  0  0  0  0
    7.4511    1.7229   25.8459 H   0  0  0  0  0  0  0  0  0  0  0  0
    6.2880    1.9730   24.5716 H   0  0  0  0  0  0  0  0  0  0  0  0
    9.0949    0.7950   24.3036 H   0  0  0  0  0  0  0  0  0  0  0  0
    7.5624    0.0004   23.9641 H   0  0  0  0  0  0  0  0  0  0  0  0
    7.1907    1.6934   22.1056 H   0  0  0  0  0  0  0  0  0  0  0  0
    7.7072   -1.7313   20.6494 H   0  0  0  0  0  0  0  0  0  0  0  0
    6.7920   -0.8463   21.8725 H   0  0  0  0  0  0  0  0  0  0  0  0
    5.4259    0.6465   20.1511 C   0  0  0  0  0  0  0  0  0  0  0  0
    4.9963    0.6366   21.1583 H   0  0  0  0  0  0  0  0  0  0  0  0
    8.1107   -0.4146   18.3734 H   0  0  0  0  0  0  0  0  0  0  0  0
    4.9173    1.7870   16.9887 H   0  0  0  0  0  0  0  0  0  0  0  0
    3.8664    1.8500   19.2525 H   0  0  0  0  0  0  0  0  0  0  0  0
  1  2  2  0
  2  3  1  0
  3  4  2  0
  4  5  1  0
  5  6  1  0
  6  7  1  0
  7  8  1  0
  8  9  1  0
  9 10  1  0
 10 11  1  0
 11 12  2  0
 12 13  1  0
 13 14  2  0
 14 15  1  0
 15 16  2  0
 16 17  1  0
 17 18  1  0
 17 19  1  0
 15 20  1  0
 14 21  1  0
 13 22  1  0
 12 23  1  0
 10 24  1  0
 10 25  1  0
  9 26  1  0
  9 27  1  0
  8 28  1  0
  6 29  1  0
  6 30  1  0
  5 31  2  0
 31 32  1  0
  4 33  1  0
  2 34  1  0
  1 35  1  0
 31  1  1  0
 17  8  1  0
 16 11  1  0
M  END
>  <plip>  (1) 
-0.0

>  <filename>  (1) 
[H][c]1[n][c]([H])[c]([C]([H])([H])[S][C]2([H])[C]([H])([H])[c]3[c]([H])[c]([H])[c]([H])[c]([H])[c]3[C]([H])([H])[C]2([H])[H])[c]([H])[c]1[H]

$$$$
