
     RDKit          3D

 34 36  0  0  0  0  0  0  0  0999 V2000
    5.0242    2.0232   16.3837 H   0  0  0  0  0  0  0  0  0  0  0  0
    5.4199    1.6468   17.3237 C   0  0  0  0  0  0  0  0  0  0  0  0
    6.6913    1.2110   17.3070 N   0  0  0  0  0  0  0  0  0  0  0  0
    7.2124    0.7817   18.4591 C   0  0  0  0  0  0  0  0  0  0  0  0
    8.2641    0.4993   18.4501 H   0  0  0  0  0  0  0  0  0  0  0  0
    6.4904    0.7089   19.6646 C   0  0  0  0  0  0  0  0  0  0  0  0
    7.1048    0.1755   20.8179 N   0  0  0  0  0  0  0  0  0  0  0  0
    6.8384    0.5188   22.1297 C   0  0  0  0  0  0  0  0  0  0  0  0
    6.1314    1.3049   22.3514 H   0  0  0  0  0  0  0  0  0  0  0  0
    7.6125   -0.2638   22.9495 C   0  0  0  0  0  0  0  0  0  0  0  0
    7.6788   -0.2598   24.0257 H   0  0  0  0  0  0  0  0  0  0  0  0
    8.3902   -1.1123   22.1118 C   0  0  0  0  0  0  0  0  0  0  0  0
    9.3637   -2.0410   22.4716 N   0  0  0  0  0  0  0  0  0  0  0  0
   10.2296   -1.9911   21.9636 H   0  0  0  0  0  0  0  0  0  0  0  0
    9.4061   -2.8550   23.5919 C   0  0  0  0  0  0  0  0  0  0  0  0
   10.6148   -3.4988   23.8885 C   0  0  0  0  0  0  0  0  0  0  0  0
   11.4648   -3.3500   23.2300 H   0  0  0  0  0  0  0  0  0  0  0  0
   10.7187   -4.3055   25.0191 C   0  0  0  0  0  0  0  0  0  0  0  0
   11.6622   -4.7965   25.2490 H   0  0  0  0  0  0  0  0  0  0  0  0
    9.6180   -4.5111   25.8634 C   0  0  0  0  0  0  0  0  0  0  0  0
    9.7944   -5.3075   27.1269 C   0  0  0  0  0  0  0  0  0  0  0  0
   10.7331   -5.8702   27.1124 H   0  0  0  0  0  0  0  0  0  0  0  0
    9.8297   -4.6431   27.9977 H   0  0  0  0  0  0  0  0  0  0  0  0
    8.9732   -6.0175   27.2741 H   0  0  0  0  0  0  0  0  0  0  0  0
    8.3908   -3.9250   25.5178 C   0  0  0  0  0  0  0  0  0  0  0  0
    7.5192   -4.1151   26.1455 H   0  0  0  0  0  0  0  0  0  0  0  0
    8.2862   -3.0945   24.4003 C   0  0  0  0  0  0  0  0  0  0  0  0
    7.3481   -2.6210   24.1387 H   0  0  0  0  0  0  0  0  0  0  0  0
    8.0540   -0.8276   20.8219 C   0  0  0  0  0  0  0  0  0  0  0  0
    8.3462   -1.3368   19.9196 H   0  0  0  0  0  0  0  0  0  0  0  0
    5.1597    1.1529   19.6704 C   0  0  0  0  0  0  0  0  0  0  0  0
    4.5658    1.1054   20.5839 H   0  0  0  0  0  0  0  0  0  0  0  0
    4.6244    1.6362   18.4760 C   0  0  0  0  0  0  0  0  0  0  0  0
    3.6105    2.0216   18.4444 H   0  0  0  0  0  0  0  0  0  0  0  0
  1  2  1  0
  2  3  2  0
  3  4  1  0
  4  5  1  0
  4  6  2  0
  6  7  1  0
  7  8  1  0
  8  9  1  0
  8 10  2  0
 10 11  1  0
 10 12  1  0
 12 13  1  0
 13 14  1  0
 13 15  1  0
 15 16  2  0
 16 17  1  0
 16 18  1  0
 18 19  1  0
 18 20  2  0
 20 21  1  0
 21 22  1  0
 21 23  1  0
 21 24  1  0
 20 25  1  0
 25 26  1  0
 25 27  2  0
 27 28  1  0
 12 29  2  0
 29 30  1  0
  6 31  1  0
 31 32  1  0
 31 33  2  0
 33 34  1  0
 33  2  1  0
 29  7  1  0
 27 15  1  0
M  END
>  <plip>  (1) 
-0.06666666666666667

>  <filename>  (1) 
[H][c]1[n][c]([H])[c](-[n]2[c]([H])[c]([H])[c]([N]([H])[c]3[c]([H])[c]([H])[c]([C]([H])([H])[H])[c]([H])[c]3[H])[c]2[H])[c]([H])[c]1[H]

$$$$
