
     RDKit          3D

 28 30  0  0  0  0  0  0  0  0999 V2000
    8.3766   -3.6527   26.9774 C   0  0  0  0  0  0  0  0  0  0  0  0
    7.6289   -2.7101   26.0769 C   0  0  0  0  0  0  0  0  0  0  0  0
    6.5311   -1.9492   26.3308 C   0  0  0  0  0  0  0  0  0  0  0  0
    6.1029   -1.0120   24.9321 S   0  0  0  0  0  0  0  0  0  0  0  0
    7.4522   -1.7396   24.1116 C   0  0  0  0  0  0  0  0  0  0  0  0
    7.7513   -1.3942   22.8042 N   0  0  0  0  0  0  0  0  0  0  0  0
    6.8610   -0.6771   22.0265 N   0  0  0  0  0  0  0  0  0  0  0  0
    7.4071   -0.5098   20.8665 C   0  0  0  0  0  0  0  0  0  0  0  0
    6.6986    0.1378   19.7661 C   0  0  0  0  0  0  0  0  0  0  0  0
    5.4610    0.7719   19.9886 C   0  0  0  0  0  0  0  0  0  0  0  0
    4.8275    1.3800   18.9090 C   0  0  0  0  0  0  0  0  0  0  0  0
    5.4372    1.3340   17.6486 C   0  0  0  0  0  0  0  0  0  0  0  0
    6.6029    0.7085   17.4165 N   0  0  0  0  0  0  0  0  0  0  0  0
    7.2072    0.1297   18.4575 C   0  0  0  0  0  0  0  0  0  0  0  0
    8.1440   -0.3765   18.2219 H   0  0  0  0  0  0  0  0  0  0  0  0
    4.9686    1.8147   16.7917 H   0  0  0  0  0  0  0  0  0  0  0  0
    3.8777    1.8928   19.0314 H   0  0  0  0  0  0  0  0  0  0  0  0
    5.0288    0.7644   20.9933 H   0  0  0  0  0  0  0  0  0  0  0  0
    8.7860   -1.0710   20.7814 C   0  0  0  0  0  0  0  0  0  0  0  0
    8.9468   -1.7038   22.1463 C   0  0  0  0  0  0  0  0  0  0  0  0
    9.8903   -2.3155   22.5566 O   0  0  0  0  0  0  0  0  0  0  0  0
    9.5610   -0.3175   20.6245 H   0  0  0  0  0  0  0  0  0  0  0  0
    8.9016   -1.8069   19.9875 H   0  0  0  0  0  0  0  0  0  0  0  0
    8.1353   -2.5888   24.8011 N   0  0  0  0  0  0  0  0  0  0  0  0
    5.9876   -1.8360   27.2577 H   0  0  0  0  0  0  0  0  0  0  0  0
    9.4399   -3.4942   26.7812 H   0  0  0  0  0  0  0  0  0  0  0  0
    8.1737   -4.6901   26.6997 H   0  0  0  0  0  0  0  0  0  0  0  0
    8.1638   -3.5316   28.0403 H   0  0  0  0  0  0  0  0  0  0  0  0
  1  2  1  0
  2  3  2  0
  3  4  1  0
  4  5  1  0
  5  6  1  0
  6  7  1  0
  7  8  2  0
  8  9  1  0
  9 10  2  0
 10 11  1  0
 11 12  2  0
 12 13  1  0
 13 14  2  0
 14 15  1  0
 12 16  1  0
 11 17  1  0
 10 18  1  0
  8 19  1  0
 19 20  1  0
 20 21  2  0
 19 22  1  0
 19 23  1  0
  5 24  2  0
  3 25  1  0
  1 26  1  0
  1 27  1  0
  1 28  1  0
 24  2  1  0
 20  6  1  0
 14  9  1  0
M  END
>  <plip>  (1) 
-0.03571428571428571

>  <filename>  (1) 
[H][c]1[n][c]([H])[c]([C]2=[N][N]([c]3[n][c]([C]([H])([H])[H])[c]([H])[s]3)[C](=[O])[C]2([H])[H])[c]([H])[c]1[H]

$$$$
