
     RDKit          3D

 31 33  0  0  0  0  0  0  0  0999 V2000
    8.1563   -1.6607   20.7021 O   0  0  0  0  0  0  0  0  0  0  0  0
    7.4168   -0.7419   20.9930 C   0  0  0  0  0  0  0  0  0  0  0  0
    7.1982   -0.3994   22.3044 N   0  0  0  0  0  0  0  0  0  0  0  0
    7.5558   -1.1820   23.3767 C   0  0  0  0  0  0  0  0  0  0  0  0
    7.5144   -0.7004   24.5795 N   0  0  0  0  0  0  0  0  0  0  0  0
    7.8258   -1.6486   25.5255 N   0  0  0  0  0  0  0  0  0  0  0  0
    8.0888   -2.8100   25.0143 C   0  0  0  0  0  0  0  0  0  0  0  0
    8.4568   -4.0367   25.7985 C   0  0  0  0  0  0  0  0  0  0  0  0
    9.8175   -4.6707   25.4111 C   0  0  0  0  0  0  0  0  0  0  0  0
    9.6278   -6.1441   25.7683 C   0  0  0  0  0  0  0  0  0  0  0  0
    8.2374   -6.3905   25.8634 O   0  0  0  0  0  0  0  0  0  0  0  0
    7.4789   -5.2236   25.6293 C   0  0  0  0  0  0  0  0  0  0  0  0
    6.6578   -5.2163   26.3556 H   0  0  0  0  0  0  0  0  0  0  0  0
    7.0337   -5.2504   24.6222 H   0  0  0  0  0  0  0  0  0  0  0  0
   10.0564   -6.8333   25.0346 H   0  0  0  0  0  0  0  0  0  0  0  0
   10.1057   -6.3570   26.7240 H   0  0  0  0  0  0  0  0  0  0  0  0
   10.0194   -4.5552   24.3405 H   0  0  0  0  0  0  0  0  0  0  0  0
   10.6593   -4.2335   25.9583 H   0  0  0  0  0  0  0  0  0  0  0  0
    8.4592   -3.7341   26.8538 H   0  0  0  0  0  0  0  0  0  0  0  0
    8.0045   -2.8498   23.2672 S   0  0  0  0  0  0  0  0  0  0  0  0
    6.8720    0.5160   22.5675 H   0  0  0  0  0  0  0  0  0  0  0  0
    6.6649    0.0483   19.9859 C   0  0  0  0  0  0  0  0  0  0  0  0
    5.4344    0.6900   20.2094 C   0  0  0  0  0  0  0  0  0  0  0  0
    4.8102    1.3162   19.1335 C   0  0  0  0  0  0  0  0  0  0  0  0
    5.4258    1.2739   17.8783 C   0  0  0  0  0  0  0  0  0  0  0  0
    6.5890    0.6481   17.6509 N   0  0  0  0  0  0  0  0  0  0  0  0
    7.1865    0.0528   18.6857 C   0  0  0  0  0  0  0  0  0  0  0  0
    8.1201   -0.4626   18.4619 H   0  0  0  0  0  0  0  0  0  0  0  0
    4.9742    1.7588   17.0148 H   0  0  0  0  0  0  0  0  0  0  0  0
    3.8659    1.8373   19.2433 H   0  0  0  0  0  0  0  0  0  0  0  0
    4.9270    0.6737   21.1756 H   0  0  0  0  0  0  0  0  0  0  0  0
  1  2  2  0
  2  3  1  0
  3  4  1  0
  4  5  2  0
  5  6  1  0
  6  7  2  0
  7  8  1  0
  8  9  1  0
  9 10  1  0
 10 11  1  0
 11 12  1  0
 12 13  1  0
 12 14  1  0
 10 15  1  0
 10 16  1  0
  9 17  1  0
  9 18  1  0
  8 19  1  0
  7 20  1  0
  3 21  1  0
  2 22  1  0
 22 23  2  0
 23 24  1  0
 24 25  2  0
 25 26  1  0
 26 27  2  0
 27 28  1  0
 25 29  1  0
 24 30  1  0
 23 31  1  0
 20  4  1  0
 27 22  1  0
 12  8  1  0
M  END
>  <plip>  (1) 
-0.034482758620689655

>  <filename>  (1) 
[H][c]1[n][c]([H])[c]([C](=[O])[N]([H])[c]2[n][n][c]([C]3([H])[C]([H])([H])[O][C]([H])([H])[C]3([H])[H])[s]2)[c]([H])[c]1[H]

$$$$
