
     RDKit          3D

 28 29  0  0  0  0  0  0  0  0999 V2000
    4.9233    1.7849   16.9930 H   0  0  0  0  0  0  0  0  0  0  0  0
    5.4018    1.2921   17.8374 C   0  0  0  0  0  0  0  0  0  0  0  0
    6.5652    0.6715   17.5877 N   0  0  0  0  0  0  0  0  0  0  0  0
    7.1640    0.0451   18.6091 C   0  0  0  0  0  0  0  0  0  0  0  0
    8.1170   -0.4296   18.3807 H   0  0  0  0  0  0  0  0  0  0  0  0
    6.6532   -0.0164   19.9249 C   0  0  0  0  0  0  0  0  0  0  0  0
    7.3554   -0.6780   20.9309 N   0  0  0  0  0  0  0  0  0  0  0  0
    8.0485   -1.3840   20.7177 H   0  0  0  0  0  0  0  0  0  0  0  0
    7.0480   -0.4982   22.2643 N   0  0  0  0  0  0  0  0  0  0  0  0
    6.9694   -1.5879   23.1203 C   0  0  0  0  0  0  0  0  0  0  0  0
    7.3632   -1.6960   24.4410 C   0  0  0  0  0  0  0  0  0  0  0  0
    7.8546   -0.9330   25.0266 H   0  0  0  0  0  0  0  0  0  0  0  0
    6.9830   -2.9902   24.8101 C   0  0  0  0  0  0  0  0  0  0  0  0
    7.1161   -3.4777   25.7678 H   0  0  0  0  0  0  0  0  0  0  0  0
    6.3910   -3.6471   23.8250 N   0  0  0  0  0  0  0  0  0  0  0  0
    6.3794   -2.7780   22.7938 N   0  0  0  0  0  0  0  0  0  0  0  0
    5.7798   -3.1485   21.5305 C   0  0  0  0  0  0  0  0  0  0  0  0
    6.5301   -3.3735   20.7701 H   0  0  0  0  0  0  0  0  0  0  0  0
    5.1567   -4.0274   21.6945 H   0  0  0  0  0  0  0  0  0  0  0  0
    5.1841   -2.3107   21.1772 H   0  0  0  0  0  0  0  0  0  0  0  0
    7.3534    0.8027   22.8380 C   0  0  0  0  0  0  0  0  0  0  0  0
    7.2470    1.5841   22.0805 H   0  0  0  0  0  0  0  0  0  0  0  0
    6.6308    1.0029   23.6334 H   0  0  0  0  0  0  0  0  0  0  0  0
    8.3686    0.8736   23.2555 H   0  0  0  0  0  0  0  0  0  0  0  0
    5.4340    0.6386   20.1636 C   0  0  0  0  0  0  0  0  0  0  0  0
    5.0210    0.6184   21.1738 H   0  0  0  0  0  0  0  0  0  0  0  0
    4.8090    1.3019   19.1045 C   0  0  0  0  0  0  0  0  0  0  0  0
    3.8825    1.8367   19.2605 H   0  0  0  0  0  0  0  0  0  0  0  0
  1  2  1  0
  2  3  2  0
  3  4  1  0
  4  5  1  0
  4  6  2  0
  6  7  1  0
  7  8  1  0
  7  9  1  0
  9 10  1  0
 10 11  2  0
 11 12  1  0
 11 13  1  0
 13 14  1  0
 13 15  2  0
 15 16  1  0
 16 17  1  0
 17 18  1  0
 17 19  1  0
 17 20  1  0
  9 21  1  0
 21 22  1  0
 21 23  1  0
 21 24  1  0
  6 25  1  0
 25 26  1  0
 25 27  2  0
 27 28  1  0
 27  2  1  0
 16 10  1  0
M  END
>  <plip>  (1) 
-0.0

>  <filename>  (1) 
[H][c]1[n][c]([H])[c]([N]([H])[N]([c]2[c]([H])[c]([H])[n][n]2[C]([H])([H])[H])[C]([H])([H])[H])[c]([H])[c]1[H]

$$$$
