
     RDKit          3D

 28 28  0  0  0  0  0  0  0  0999 V2000
    4.9226    1.7816   16.9974 H   0  0  0  0  0  0  0  0  0  0  0  0
    5.4014    1.2896   17.8466 C   0  0  0  0  0  0  0  0  0  0  0  0
    6.5680    0.6678   17.5996 N   0  0  0  0  0  0  0  0  0  0  0  0
    7.1762    0.0524   18.6190 C   0  0  0  0  0  0  0  0  0  0  0  0
    8.1199   -0.4362   18.4012 H   0  0  0  0  0  0  0  0  0  0  0  0
    6.6709   -0.0025   19.9419 C   0  0  0  0  0  0  0  0  0  0  0  0
    7.4211   -0.7004   20.8458 O   0  0  0  0  0  0  0  0  0  0  0  0
    7.0720   -0.7535   22.2452 C   0  0  1  0  0  0  0  0  0  0  0  0
    5.9995   -0.9357   22.3555 H   0  0  0  0  0  0  0  0  0  0  0  0
    7.8423   -1.9244   22.8344 C   0  0  0  0  0  0  0  0  0  0  0  0
    7.6094   -2.0308   23.8964 H   0  0  0  0  0  0  0  0  0  0  0  0
    7.5885   -2.8556   22.3199 H   0  0  0  0  0  0  0  0  0  0  0  0
    8.9198   -1.7579   22.7376 H   0  0  0  0  0  0  0  0  0  0  0  0
    7.4183    0.5731   22.9228 C   0  0  0  0  0  0  0  0  0  0  0  0
    6.9397    1.4070   22.3832 H   0  0  0  0  0  0  0  0  0  0  0  0
    8.5076    0.7197   22.8395 H   0  0  0  0  0  0  0  0  0  0  0  0
    7.0152    0.5441   24.2785 O   0  0  0  0  0  0  0  0  0  0  0  0
    7.3747    1.7310   24.9604 C   0  0  0  0  0  0  0  0  0  0  0  0
    6.9187    2.6026   24.4628 H   0  0  0  0  0  0  0  0  0  0  0  0
    8.4679    1.8775   24.9238 H   0  0  0  0  0  0  0  0  0  0  0  0
    6.9086    1.6527   26.3983 C   0  0  0  0  0  0  0  0  0  0  0  0
    5.8222    1.5353   26.4507 H   0  0  0  0  0  0  0  0  0  0  0  0
    7.3765    0.8114   26.9180 H   0  0  0  0  0  0  0  0  0  0  0  0
    7.1814    2.5749   26.9225 H   0  0  0  0  0  0  0  0  0  0  0  0
    5.4490    0.6442   20.1896 C   0  0  0  0  0  0  0  0  0  0  0  0
    5.0043    0.6344   21.1831 H   0  0  0  0  0  0  0  0  0  0  0  0
    4.8183    1.2995   19.1139 C   0  0  0  0  0  0  0  0  0  0  0  0
    3.8844    1.8332   19.2609 H   0  0  0  0  0  0  0  0  0  0  0  0
  1  2  1  0
  2  3  2  0
  3  4  1  0
  4  5  1  0
  4  6  2  0
  6  7  1  0
  7  8  1  0
  8  9  1  6
  8 10  1  0
 10 11  1  0
 10 12  1  0
 10 13  1  0
  8 14  1  0
 14 15  1  0
 14 16  1  0
 14 17  1  0
 17 18  1  0
 18 19  1  0
 18 20  1  0
 18 21  1  0
 21 22  1  0
 21 23  1  0
 21 24  1  0
  6 25  1  0
 25 26  1  0
 25 27  2  0
 27 28  1  0
 27  2  1  0
M  END
>  <plip>  (1) 
-0.03571428571428571

>  <filename>  (1) 
[H][c]1[n][c]([H])[c]([O][C@@]([H])([C]([H])([H])[H])[C]([H])([H])[O][C]([H])([H])[C]([H])([H])[H])[c]([H])[c]1[H]

$$$$
