
     RDKit          3D

 33 36  0  0  0  0  0  0  0  0999 V2000
    9.0561   -2.6822   23.7373 H   0  0  0  0  0  0  0  0  0  0  0  0
    8.5512   -2.1041   22.9699 C   0  0  0  0  0  0  0  0  0  0  0  0
    8.1860   -2.7670   21.8732 N   0  0  0  0  0  0  0  0  0  0  0  0
    7.5767   -2.0340   20.9453 C   0  0  0  0  0  0  0  0  0  0  0  0
    7.1858   -2.5884   20.0969 H   0  0  0  0  0  0  0  0  0  0  0  0
    7.3645   -0.6513   21.0219 C   0  0  0  0  0  0  0  0  0  0  0  0
    6.6630    0.0562   19.8787 C   0  0  0  0  0  0  0  0  0  0  0  0
    7.1506    0.0755   18.5477 C   0  0  0  0  0  0  0  0  0  0  0  0
    8.0933   -0.4202   18.3035 H   0  0  0  0  0  0  0  0  0  0  0  0
    6.5361    0.6850   17.5246 N   0  0  0  0  0  0  0  0  0  0  0  0
    5.3766    1.3093   17.7888 C   0  0  0  0  0  0  0  0  0  0  0  0
    4.9140    1.8311   16.9538 H   0  0  0  0  0  0  0  0  0  0  0  0
    4.7783    1.3276   19.0506 C   0  0  0  0  0  0  0  0  0  0  0  0
    3.8324    1.8413   19.1895 H   0  0  0  0  0  0  0  0  0  0  0  0
    5.4364    0.6988   20.1115 C   0  0  0  0  0  0  0  0  0  0  0  0
    5.0209    0.6955   21.1204 H   0  0  0  0  0  0  0  0  0  0  0  0
    7.7549   -0.0741   22.2609 C   0  0  0  0  0  0  0  0  0  0  0  0
    7.5638    1.3867   22.5806 C   0  0  0  0  0  0  0  0  0  0  0  0
    6.8902    1.7590   23.7824 C   0  0  0  0  0  0  0  0  0  0  0  0
    6.5615    0.9753   24.4588 H   0  0  0  0  0  0  0  0  0  0  0  0
    6.6178    3.0824   24.0947 C   0  0  0  0  0  0  0  0  0  0  0  0
    6.0382    3.3203   24.9834 H   0  0  0  0  0  0  0  0  0  0  0  0
    7.0652    4.1048   23.2240 C   0  0  0  0  0  0  0  0  0  0  0  0
    6.9533    5.5406   23.1822 C   0  0  0  0  0  0  0  0  0  0  0  0
    6.4012    6.1700   23.8631 H   0  0  0  0  0  0  0  0  0  0  0  0
    7.5806    5.9696   22.0506 C   0  0  0  0  0  0  0  0  0  0  0  0
    7.6931    6.9733   21.6493 H   0  0  0  0  0  0  0  0  0  0  0  0
    8.0877    4.8820   21.3837 N   0  0  0  0  0  0  0  0  0  0  0  0
    8.5726    4.9193   20.5007 H   0  0  0  0  0  0  0  0  0  0  0  0
    7.7702    3.7251   22.0546 C   0  0  0  0  0  0  0  0  0  0  0  0
    7.9911    2.3841   21.6977 C   0  0  0  0  0  0  0  0  0  0  0  0
    8.4065    2.1338   20.7245 H   0  0  0  0  0  0  0  0  0  0  0  0
    8.3332   -0.8177   23.2199 N   0  0  0  0  0  0  0  0  0  0  0  0
  1  2  1  0
  2  3  2  0
  3  4  1  0
  4  5  1  0
  4  6  2  0
  6  7  1  0
  7  8  2  0
  8  9  1  0
  8 10  1  0
 10 11  2  0
 11 12  1  0
 11 13  1  0
 13 14  1  0
 13 15  2  0
 15 16  1  0
  6 17  1  0
 17 18  1  0
 18 19  2  0
 19 20  1  0
 19 21  1  0
 21 22  1  0
 21 23  2  0
 23 24  1  0
 24 25  1  0
 24 26  2  0
 26 27  1  0
 26 28  1  0
 28 29  1  0
 28 30  1  0
 30 31  2  0
 31 32  1  0
 17 33  2  0
 33  2  1  0
 15  7  1  0
 31 18  1  0
 30 23  1  0
M  END
>  <plip>  (1) 
-0.13793103448275862

>  <filename>  (1) 
[H][c]1[n][c]([H])[c](-[c]2[c]([H])[n][c]([H])[c]([H])[c]2[H])[c](-[c]2[c]([H])[c]([H])[c]3[c]([H])[c]([H])[n]([H])[c]3[c]2[H])[n]1

$$$$
