
     RDKit          3D

 26 27  0  0  0  0  0  0  0  0999 V2000
    4.9208    1.7932   16.9862 H   0  0  0  0  0  0  0  0  0  0  0  0
    5.3923    1.2959   17.8310 C   0  0  0  0  0  0  0  0  0  0  0  0
    6.5538    0.6732   17.5732 N   0  0  0  0  0  0  0  0  0  0  0  0
    7.1560    0.0374   18.5862 C   0  0  0  0  0  0  0  0  0  0  0  0
    8.1215   -0.4189   18.3685 H   0  0  0  0  0  0  0  0  0  0  0  0
    6.6237   -0.0245   19.8909 C   0  0  0  0  0  0  0  0  0  0  0  0
    7.5401   -0.7846   21.2320 S   0  0  0  0  0  0  0  0  0  0  0  0
    8.5271    0.6358   21.7199 C   0  0  0  0  0  0  0  0  0  0  0  0
    9.9807    0.8613   21.0251 S   0  0  0  0  0  0  0  0  0  0  0  0
    7.8822    1.5984   22.6662 C   0  0  0  0  0  0  0  0  0  0  0  0
    6.8621    1.1981   23.5505 C   0  0  0  0  0  0  0  0  0  0  0  0
    6.5043    0.1727   23.5506 H   0  0  0  0  0  0  0  0  0  0  0  0
    6.3237    2.1126   24.4573 C   0  0  0  0  0  0  0  0  0  0  0  0
    5.5536    1.7886   25.1486 H   0  0  0  0  0  0  0  0  0  0  0  0
    6.7697    3.4334   24.4961 C   0  0  0  0  0  0  0  0  0  0  0  0
    6.3638    4.1562   25.1982 H   0  0  0  0  0  0  0  0  0  0  0  0
    7.7725    3.8540   23.6037 C   0  0  0  0  0  0  0  0  0  0  0  0
    8.2377    5.1418   23.6457 N   0  0  0  0  0  0  0  0  0  0  0  0
    7.8266    5.8062   24.2721 H   0  0  0  0  0  0  0  0  0  0  0  0
    8.9263    5.4550   22.9867 H   0  0  0  0  0  0  0  0  0  0  0  0
    8.3131    2.9385   22.6860 C   0  0  0  0  0  0  0  0  0  0  0  0
    9.0881    3.2885   22.0068 H   0  0  0  0  0  0  0  0  0  0  0  0
    5.4166    0.6328   20.1457 C   0  0  0  0  0  0  0  0  0  0  0  0
    5.0020    0.6323   21.1562 H   0  0  0  0  0  0  0  0  0  0  0  0
    4.7940    1.3118   19.0958 C   0  0  0  0  0  0  0  0  0  0  0  0
    3.8681    1.8520   19.2481 H   0  0  0  0  0  0  0  0  0  0  0  0
  1  2  1  0
  2  3  2  0
  3  4  1  0
  4  5  1  0
  4  6  2  0
  6  7  1  0
  7  8  1  0
  8  9  2  0
  8 10  1  0
 10 11  2  0
 11 12  1  0
 11 13  1  0
 13 14  1  0
 13 15  2  0
 15 16  1  0
 15 17  1  0
 17 18  1  0
 18 19  1  0
 18 20  1  0
 17 21  2  0
 21 22  1  0
  6 23  1  0
 23 24  1  0
 23 25  2  0
 25 26  1  0
 25  2  1  0
 21 10  1  0
M  END
>  <plip>  (1) 
-0.03571428571428571

>  <filename>  (1) 
[H][c]1[n][c]([H])[c]([S][C](=[S])[c]2[c]([H])[c]([H])[c]([H])[c]([N]([H])[H])[c]2[H])[c]([H])[c]1[H]

$$$$
