
     RDKit          3D

 34 35  0  0  0  0  0  0  0  0999 V2000
    9.9100   -1.2776   22.9668 H   0  0  0  0  0  0  0  0  0  0  0  0
    9.0231   -1.3198   22.3488 C   0  0  0  0  0  0  0  0  0  0  0  0
    7.9005   -1.9738   22.6656 C   0  0  0  0  0  0  0  0  0  0  0  0
    7.7297   -2.7003   23.8490 N   0  0  0  0  0  0  0  0  0  0  0  0
    8.4322   -2.4291   24.5322 H   0  0  0  0  0  0  0  0  0  0  0  0
    6.4120   -2.8629   24.4490 C   0  0  0  0  0  0  0  0  0  0  0  0
    5.8919   -1.8950   24.5742 H   0  0  0  0  0  0  0  0  0  0  0  0
    5.7970   -3.4577   23.7641 H   0  0  0  0  0  0  0  0  0  0  0  0
    6.5954   -3.5501   25.8014 C   0  0  0  0  0  0  0  0  0  0  0  0
    7.2380   -4.4227   25.6353 H   0  0  0  0  0  0  0  0  0  0  0  0
    5.6364   -3.9480   26.1625 H   0  0  0  0  0  0  0  0  0  0  0  0
    7.2044   -2.6446   26.8889 C   0  0  0  0  0  0  0  0  0  0  0  0
    7.6559   -3.2896   27.6521 H   0  0  0  0  0  0  0  0  0  0  0  0
    8.0460   -2.0607   26.4836 H   0  0  0  0  0  0  0  0  0  0  0  0
    6.1887   -1.6929   27.5335 C   0  0  0  0  0  0  0  0  0  0  0  0
    5.3316   -2.2479   27.9362 H   0  0  0  0  0  0  0  0  0  0  0  0
    5.8044   -0.9436   26.8282 H   0  0  0  0  0  0  0  0  0  0  0  0
    6.6351   -1.1426   28.3655 H   0  0  0  0  0  0  0  0  0  0  0  0
    6.8841   -1.7800   21.5510 C   0  0  0  0  0  0  0  0  0  0  0  0
    5.7796   -2.2614   21.3756 O   0  0  0  0  0  0  0  0  0  0  0  0
    7.5162   -0.8993   20.6555 N   0  0  0  0  0  0  0  0  0  0  0  0
    6.8174   -0.1053   19.7089 C   0  0  0  0  0  0  0  0  0  0  0  0
    7.3226    0.0970   18.4042 C   0  0  0  0  0  0  0  0  0  0  0  0
    8.2865   -0.3280   18.1310 H   0  0  0  0  0  0  0  0  0  0  0  0
    6.6780    0.7758   17.4473 N   0  0  0  0  0  0  0  0  0  0  0  0
    5.5017    1.3348   17.7755 C   0  0  0  0  0  0  0  0  0  0  0  0
    4.9915    1.8708   16.9798 H   0  0  0  0  0  0  0  0  0  0  0  0
    4.9340    1.2418   19.0527 C   0  0  0  0  0  0  0  0  0  0  0  0
    3.9902    1.7393   19.2552 H   0  0  0  0  0  0  0  0  0  0  0  0
    5.6014    0.5143   20.0433 C   0  0  0  0  0  0  0  0  0  0  0  0
    5.2008    0.4285   21.0544 H   0  0  0  0  0  0  0  0  0  0  0  0
    8.9079   -0.6583   21.0106 C   0  0  0  0  0  0  0  0  0  0  0  0
    9.1336    0.4160   21.0593 H   0  0  0  0  0  0  0  0  0  0  0  0
    9.6052   -1.1104   20.2857 H   0  0  0  0  0  0  0  0  0  0  0  0
  1  2  1  0
  2  3  2  0
  3  4  1  0
  4  5  1  0
  4  6  1  0
  6  7  1  0
  6  8  1  0
  6  9  1  0
  9 10  1  0
  9 11  1  0
  9 12  1  0
 12 13  1  0
 12 14  1  0
 12 15  1  0
 15 16  1  0
 15 17  1  0
 15 18  1  0
  3 19  1  0
 19 20  2  0
 19 21  1  0
 21 22  1  0
 22 23  2  0
 23 24  1  0
 23 25  1  0
 25 26  2  0
 26 27  1  0
 26 28  1  0
 28 29  1  0
 28 30  2  0
 30 31  1  0
 21 32  1  0
 32 33  1  0
 32 34  1  0
 32  2  1  0
 30 22  1  0
M  END
>  <plip>  (1) 
-0.07142857142857142

>  <filename>  (1) 
[H][C]1=[C]([N]([H])[C]([H])([H])[C]([H])([H])[C]([H])([H])[C]([H])([H])[H])[C](=[O])[N]([c]2[c]([H])[n][c]([H])[c]([H])[c]2[H])[C]1([H])[H]

$$$$
