
     RDKit          3D

 34 36  0  0  0  0  0  0  0  0999 V2000
    7.2171   -1.9740   21.1557 C   0  0  0  0  0  0  0  0  0  0  0  0
    7.2878   -0.4598   21.1832 C   0  0  1  0  0  0  0  0  0  0  0  0
    8.6813   -0.0765   21.1236 N   0  0  0  0  0  0  0  0  0  0  0  0
    9.1074    1.1267   21.5007 C   0  0  0  0  0  0  0  0  0  0  0  0
   10.4385    1.2973   21.4557 N   0  0  0  0  0  0  0  0  0  0  0  0
   10.8562    2.4782   21.9104 C   0  0  0  0  0  0  0  0  0  0  0  0
    9.9993    3.4492   22.4083 C   0  0  0  0  0  0  0  0  0  0  0  0
   10.2043    4.8263   22.9797 C   0  0  0  0  0  0  0  0  0  0  0  0
    8.7678    5.4356   23.0029 C   0  0  0  0  0  0  0  0  0  0  0  0
    7.7727    4.2941   22.6543 C   0  0  0  0  0  0  0  0  0  0  0  0
    8.6491    3.1523   22.2792 C   0  0  0  0  0  0  0  0  0  0  0  0
    8.1752    1.9949   21.8678 N   0  0  0  0  0  0  0  0  0  0  0  0
    7.1175    4.0008   23.4804 H   0  0  0  0  0  0  0  0  0  0  0  0
    7.1111    4.5353   21.8151 H   0  0  0  0  0  0  0  0  0  0  0  0
    8.5359    5.8712   23.9775 H   0  0  0  0  0  0  0  0  0  0  0  0
    8.6795    6.2339   22.2593 H   0  0  0  0  0  0  0  0  0  0  0  0
   10.8865    5.4237   22.3619 H   0  0  0  0  0  0  0  0  0  0  0  0
   10.6472    4.7806   23.9843 H   0  0  0  0  0  0  0  0  0  0  0  0
   11.9371    2.6411   21.8699 H   0  0  0  0  0  0  0  0  0  0  0  0
    9.4548   -0.7072   21.0508 H   0  0  0  0  0  0  0  0  0  0  0  0
    6.5451    0.1955   20.0383 C   0  0  0  0  0  0  0  0  0  0  0  0
    5.2810    0.7989   20.1558 C   0  0  0  0  0  0  0  0  0  0  0  0
    4.6996    1.3601   19.0146 C   0  0  0  0  0  0  0  0  0  0  0  0
    5.4005    1.3032   17.8073 C   0  0  0  0  0  0  0  0  0  0  0  0
    6.5993    0.7191   17.6728 N   0  0  0  0  0  0  0  0  0  0  0  0
    7.1435    0.1874   18.7726 C   0  0  0  0  0  0  0  0  0  0  0  0
    8.1201   -0.2763   18.6431 H   0  0  0  0  0  0  0  0  0  0  0  0
    4.9858    1.7299   16.8988 H   0  0  0  0  0  0  0  0  0  0  0  0
    3.7321    1.8477   19.0450 H   0  0  0  0  0  0  0  0  0  0  0  0
    4.7687    0.8455   21.1182 H   0  0  0  0  0  0  0  0  0  0  0  0
    6.8545   -0.0920   22.1249 H   0  0  0  0  0  0  0  0  0  0  0  0
    6.1938   -2.3471   21.2604 H   0  0  0  0  0  0  0  0  0  0  0  0
    7.6253   -2.3046   20.2035 H   0  0  0  0  0  0  0  0  0  0  0  0
    7.8307   -2.3780   21.9671 H   0  0  0  0  0  0  0  0  0  0  0  0
  1  2  1  0
  2  3  1  0
  3  4  1  0
  4  5  2  0
  5  6  1  0
  6  7  2  0
  7  8  1  0
  8  9  1  0
  9 10  1  0
 10 11  1  0
 11 12  2  0
 10 13  1  0
 10 14  1  0
  9 15  1  0
  9 16  1  0
  8 17  1  0
  8 18  1  0
  6 19  1  0
  3 20  1  0
  2 21  1  0
 21 22  2  0
 22 23  1  0
 23 24  2  0
 24 25  1  0
 25 26  2  0
 26 27  1  0
 24 28  1  0
 23 29  1  0
 22 30  1  0
  2 31  1  1
  1 32  1  0
  1 33  1  0
  1 34  1  0
 12  4  1  0
 26 21  1  0
 11  7  1  0
M  END
>  <plip>  (1) 
-0.06896551724137931

>  <filename>  (1) 
[H][c]1[n][c]([H])[c]([C@]([H])([N]([H])[c]2[n][c]([H])[c]3[c]([n]2)[C]([H])([H])[C]([H])([H])[C]3([H])[H])[C]([H])([H])[H])[c]([H])[c]1[H]

$$$$
