
     RDKit          3D

 42 42  0  0  0  0  0  0  0  0999 V2000
    7.1393    0.9931   22.8515 C   0  0  0  0  0  0  0  0  0  0  0  0
    8.1421    0.2201   21.9811 C   0  0  0  0  0  0  0  0  0  0  0  0
    9.1439    1.1799   21.3360 C   0  0  0  0  0  0  0  0  0  0  0  0
    8.6409    1.8706   20.6478 H   0  0  0  0  0  0  0  0  0  0  0  0
    9.6516    1.7831   22.0951 H   0  0  0  0  0  0  0  0  0  0  0  0
    9.9055    0.6351   20.7682 H   0  0  0  0  0  0  0  0  0  0  0  0
    7.5002   -0.7072   20.8855 C   0  0  0  0  0  0  0  0  0  0  0  0
    6.6581   -1.8642   21.4910 C   0  0  0  0  0  0  0  0  0  0  0  0
    5.4587   -1.9996   21.3284 O   0  0  0  0  0  0  0  0  0  0  0  0
    7.3932   -2.7602   22.2498 N   0  0  0  0  0  0  0  0  0  0  0  0
    6.8110   -3.9022   23.0103 C   0  0  1  0  0  0  0  0  0  0  0  0
    7.3174   -5.4107   22.6834 C   0  0  0  0  0  0  0  0  0  0  0  0
    6.4143   -6.2414   22.9006 O   0  0  0  0  0  0  0  0  0  0  0  0
    8.4850   -5.5483   22.2908 O   0  0  0  0  0  1  0  0  0  0  0  0
    6.9637   -3.8043   24.5674 C   0  0  0  0  0  0  0  0  0  0  0  0
    6.1378   -4.8697   25.3025 C   0  0  0  0  0  0  0  0  0  0  0  0
    6.4170   -5.8745   24.9692 H   0  0  0  0  0  0  0  0  0  0  0  0
    6.3253   -4.7766   26.3753 H   0  0  0  0  0  0  0  0  0  0  0  0
    5.0627   -4.7448   25.1249 H   0  0  0  0  0  0  0  0  0  0  0  0
    6.5622   -2.4055   25.0634 C   0  0  0  0  0  0  0  0  0  0  0  0
    7.1764   -1.6132   24.6237 H   0  0  0  0  0  0  0  0  0  0  0  0
    6.6766   -2.3577   26.1482 H   0  0  0  0  0  0  0  0  0  0  0  0
    5.5168   -2.1985   24.8118 H   0  0  0  0  0  0  0  0  0  0  0  0
    8.3012   -4.0792   24.9419 O   0  0  0  0  0  0  0  0  0  0  0  0
    8.8858   -3.5470   24.3869 H   0  0  0  0  0  0  0  0  0  0  0  0
    5.7481   -3.8865   22.7613 H   0  0  0  0  0  0  0  0  0  0  0  0
    8.3906   -2.7110   22.1019 H   0  0  0  0  0  0  0  0  0  0  0  0
    6.7337    0.0393   19.7996 C   0  0  0  0  0  0  0  0  0  0  0  0
    5.4896    0.6267   20.0601 C   0  0  0  0  0  0  0  0  0  0  0  0
    4.8415    1.3144   19.0309 C   0  0  0  0  0  0  0  0  0  0  0  0
    5.4342    1.3577   17.7642 C   0  0  0  0  0  0  0  0  0  0  0  0
    6.6073    0.7763   17.4806 N   0  0  0  0  0  0  0  0  0  0  0  0
    7.2269    0.1407   18.4858 C   0  0  0  0  0  0  0  0  0  0  0  0
    8.1647   -0.3481   18.2280 H   0  0  0  0  0  0  0  0  0  0  0  0
    4.9425    1.8733   16.9406 H   0  0  0  0  0  0  0  0  0  0  0  0
    3.8944    1.8073   19.1989 H   0  0  0  0  0  0  0  0  0  0  0  0
    5.0283    0.5067   21.0439 H   0  0  0  0  0  0  0  0  0  0  0  0
    8.3487   -1.2078   20.3907 H   0  0  0  0  0  0  0  0  0  0  0  0
    8.7029   -0.4500   22.6538 H   0  0  0  0  0  0  0  0  0  0  0  0
    7.6685    1.4918   23.6735 H   0  0  0  0  0  0  0  0  0  0  0  0
    6.3727    0.3472   23.2991 H   0  0  0  0  0  0  0  0  0  0  0  0
    6.6250    1.7805   22.2856 H   0  0  0  0  0  0  0  0  0  0  0  0
  1  2  1  0
  2  3  1  0
  3  4  1  0
  3  5  1  0
  3  6  1  0
  2  7  1  0
  7  8  1  0
  8  9  2  0
  8 10  1  0
 10 11  1  0
 11 12  1  0
 12 13  2  0
 12 14  1  0
 11 15  1  0
 15 16  1  0
 16 17  1  0
 16 18  1  0
 16 19  1  0
 15 20  1  0
 20 21  1  0
 20 22  1  0
 20 23  1  0
 15 24  1  0
 24 25  1  0
 11 26  1  1
 10 27  1  0
  7 28  1  0
 28 29  2  0
 29 30  1  0
 30 31  2  0
 31 32  1  0
 32 33  2  0
 33 34  1  0
 31 35  1  0
 30 36  1  0
 29 37  1  0
  7 38  1  0
  2 39  1  0
  1 40  1  0
  1 41  1  0
  1 42  1  0
 33 28  1  0
M  CHG  1  14  -1
M  END
>  <plip>  (1) 
-0.06896551724137931

>  <filename>  (1) 
[H][O][C]([C]([H])([H])[H])([C]([H])([H])[H])[C@]([H])([C](=[O])[O-])[N]([H])[C](=[O])[C]([H])([c]1[c]([H])[n][c]([H])[c]([H])[c]1[H])[C]([H])([C]([H])([H])[H])[C]([H])([H])[H]

$$$$
