
     RDKit          3D

 29 31  0  0  0  0  0  0  0  0999 V2000
    7.0091    5.2576   23.4029 F   0  0  0  0  0  0  0  0  0  0  0  0
    7.6036    4.1380   22.9722 C   0  0  0  0  0  0  0  0  0  0  0  0
    6.8285    2.9452   22.8655 C   0  0  0  0  0  0  0  0  0  0  0  0
    7.3384    1.7954   22.4731 N   0  0  0  0  0  0  0  0  0  0  0  0
    8.6703    1.7801   22.0620 C   0  0  0  0  0  0  0  0  0  0  0  0
    9.3371    0.6421   21.4447 C   0  0  0  0  0  0  0  0  0  0  0  0
    8.7744   -0.5252   21.0173 O   0  0  0  0  0  0  0  0  0  0  0  0
    7.3582   -0.7461   20.9980 C   0  0  0  0  0  0  0  0  0  0  0  0
    6.6445   -0.0148   19.8807 C   0  0  0  0  0  0  0  0  0  0  0  0
    5.4171    0.6229   20.0945 C   0  0  0  0  0  0  0  0  0  0  0  0
    4.7994    1.2770   19.0275 C   0  0  0  0  0  0  0  0  0  0  0  0
    5.4372    1.2854   17.7860 C   0  0  0  0  0  0  0  0  0  0  0  0
    6.6108    0.6786   17.5560 N   0  0  0  0  0  0  0  0  0  0  0  0
    7.1941    0.0534   18.5890 C   0  0  0  0  0  0  0  0  0  0  0  0
    8.1469   -0.4273   18.3724 H   0  0  0  0  0  0  0  0  0  0  0  0
    4.9892    1.8083   16.9409 H   0  0  0  0  0  0  0  0  0  0  0  0
    3.8568    1.7936   19.1543 H   0  0  0  0  0  0  0  0  0  0  0  0
    4.9795    0.6433   21.0941 H   0  0  0  0  0  0  0  0  0  0  0  0
    7.2679   -1.8322   20.8747 H   0  0  0  0  0  0  0  0  0  0  0  0
    6.9381   -0.4773   21.9698 H   0  0  0  0  0  0  0  0  0  0  0  0
   10.7134    0.6914   21.2555 C   0  0  0  0  0  0  0  0  0  0  0  0
   11.4347    1.8663   21.5458 C   0  0  0  0  0  0  0  0  0  0  0  0
   10.8682    2.9685   21.9870 N   0  0  0  0  0  0  0  0  0  0  0  0
    9.5241    2.9366   22.2105 C   0  0  0  0  0  0  0  0  0  0  0  0
    8.9316    4.1531   22.6565 C   0  0  0  0  0  0  0  0  0  0  0  0
    9.5535    5.0418   22.6982 H   0  0  0  0  0  0  0  0  0  0  0  0
   12.5135    1.9065   21.3928 H   0  0  0  0  0  0  0  0  0  0  0  0
   11.2250   -0.1884   20.8754 H   0  0  0  0  0  0  0  0  0  0  0  0
    5.7691    3.0084   23.1099 H   0  0  0  0  0  0  0  0  0  0  0  0
  1  2  1  0
  2  3  2  0
  3  4  1  0
  4  5  2  0
  5  6  1  0
  6  7  1  0
  7  8  1  0
  8  9  1  0
  9 10  2  0
 10 11  1  0
 11 12  2  0
 12 13  1  0
 13 14  2  0
 14 15  1  0
 12 16  1  0
 11 17  1  0
 10 18  1  0
  8 19  1  0
  8 20  1  0
  6 21  2  0
 21 22  1  0
 22 23  2  0
 23 24  1  0
 24 25  2  0
 25 26  1  0
 22 27  1  0
 21 28  1  0
  3 29  1  0
 25  2  1  0
 24  5  1  0
 14  9  1  0
M  END
>  <plip>  (1) 
-0.07142857142857142

>  <filename>  (1) 
[H][c]1[n][c]([H])[c]([C]([H])([H])[O][c]2[c]([H])[c]([H])[n][c]3[c]([H])[c]([F])[c]([H])[n][c]23)[c]([H])[c]1[H]

$$$$
