
     RDKit          3D

 40 42  0  0  0  0  0  0  0  0999 V2000
    7.7602    5.3988   24.2285 C   0  0  0  0  0  0  0  0  0  0  0  0
    8.2271    3.9814   23.8929 C   0  0  0  0  0  0  0  0  0  0  0  0
    9.7500    3.8335   24.0406 C   0  0  0  0  0  0  0  0  0  0  0  0
   10.2358    2.4357   23.6334 C   0  0  0  0  0  0  0  0  0  0  0  0
    9.7503    2.0606   22.2269 C   0  0  0  0  0  0  0  0  0  0  0  0
    8.2085    2.1929   22.0645 N   0  0  0  0  0  4  0  0  0  0  0  0
    7.4429    1.1084   22.8226 C   0  0  0  0  0  0  0  0  0  0  0  0
    7.7430   -0.2205   22.2377 C   0  0  0  0  0  0  0  0  0  0  0  0
    8.4574   -1.2365   22.8321 C   0  0  0  0  0  0  0  0  0  0  0  0
    8.5427   -2.2173   21.9049 N   0  0  0  0  0  0  0  0  0  0  0  0
    7.9450   -1.9047   20.7460 N   0  0  0  0  0  0  0  0  0  0  0  0
    7.4365   -0.6918   20.9351 C   0  0  0  0  0  0  0  0  0  0  0  0
    6.6639    0.0117   19.9016 C   0  0  0  0  0  0  0  0  0  0  0  0
    5.4437    0.6562   20.1607 C   0  0  0  0  0  0  0  0  0  0  0  0
    4.8063    1.3112   19.1075 C   0  0  0  0  0  0  0  0  0  0  0  0
    5.4039    1.2942   17.8413 C   0  0  0  0  0  0  0  0  0  0  0  0
    6.5686    0.6824   17.5842 N   0  0  0  0  0  0  0  0  0  0  0  0
    7.1721    0.0555   18.5971 C   0  0  0  0  0  0  0  0  0  0  0  0
    8.1151   -0.4311   18.3655 H   0  0  0  0  0  0  0  0  0  0  0  0
    4.9270    1.7837   16.9949 H   0  0  0  0  0  0  0  0  0  0  0  0
    3.8734    1.8394   19.2541 H   0  0  0  0  0  0  0  0  0  0  0  0
    5.0026    0.6323   21.1603 H   0  0  0  0  0  0  0  0  0  0  0  0
    9.0161   -3.1027   21.9733 H   0  0  0  0  0  0  0  0  0  0  0  0
    8.9356   -1.2958   23.8086 H   0  0  0  0  0  0  0  0  0  0  0  0
    6.3739    1.3491   22.7958 H   0  0  0  0  0  0  0  0  0  0  0  0
    7.7453    1.1156   23.8701 H   0  0  0  0  0  0  0  0  0  0  0  0
    7.7778    3.5880   22.4692 C   0  0  0  0  0  0  0  0  0  0  0  0
    8.1986    4.3161   21.7661 H   0  0  0  0  0  0  0  0  0  0  0  0
    6.6860    3.6692   22.4026 H   0  0  0  0  0  0  0  0  0  0  0  0
    7.9636    1.9807   21.0680 H   0  0  0  0  0  0  0  0  0  0  0  0
   10.2187    2.7360   21.5022 H   0  0  0  0  0  0  0  0  0  0  0  0
   10.0206    1.0337   21.9710 H   0  0  0  0  0  0  0  0  0  0  0  0
   11.3309    2.3807   23.6554 H   0  0  0  0  0  0  0  0  0  0  0  0
    9.8716    1.6941   24.3529 H   0  0  0  0  0  0  0  0  0  0  0  0
   10.0442    4.0694   25.0715 H   0  0  0  0  0  0  0  0  0  0  0  0
   10.2319    4.5835   23.3987 H   0  0  0  0  0  0  0  0  0  0  0  0
    7.7510    3.2866   24.5967 H   0  0  0  0  0  0  0  0  0  0  0  0
    8.0568    5.6901   25.2439 H   0  0  0  0  0  0  0  0  0  0  0  0
    6.6704    5.4981   24.1563 H   0  0  0  0  0  0  0  0  0  0  0  0
    8.2063    6.1250   23.5377 H   0  0  0  0  0  0  0  0  0  0  0  0
  1  2  1  0
  2  3  1  0
  3  4  1  0
  4  5  1  0
  5  6  1  0
  6  7  1  0
  7  8  1  0
  8  9  2  0
  9 10  1  0
 10 11  1  0
 11 12  2  0
 12 13  1  0
 13 14  2  0
 14 15  1  0
 15 16  2  0
 16 17  1  0
 17 18  2  0
 18 19  1  0
 16 20  1  0
 15 21  1  0
 14 22  1  0
 10 23  1  0
  9 24  1  0
  7 25  1  0
  7 26  1  0
  6 27  1  0
 27 28  1  0
 27 29  1  0
  6 30  1  0
  5 31  1  0
  5 32  1  0
  4 33  1  0
  4 34  1  0
  3 35  1  0
  3 36  1  0
  2 37  1  0
  1 38  1  0
  1 39  1  0
  1 40  1  0
 27  2  1  0
 12  8  1  0
 18 13  1  0
M  CHG  1   6   1
M  END
>  <plip>  (1) 
-0.10344827586206896

>  <filename>  (1) 
[H][c]1[n][c]([H])[c](-[c]2[n][n]([H])[c]([H])[c]2[C]([H])([H])[N+]2([H])[C]([H])([H])[C]([H])([H])[C]([H])([H])[C]([H])([C]([H])([H])[H])[C]2([H])[H])[c]([H])[c]1[H]

$$$$
