
     RDKit          3D

 41 42  0  0  0  0  0  0  0  0999 V2000
    8.0674    1.3211   22.1984 C   0  0  0  0  0  0  0  0  0  0  0  0
    8.5173    0.0736   21.4393 N   0  0  0  0  0  4  0  0  0  0  0  0
    9.4320   -0.7529   22.3632 C   0  0  0  0  0  0  0  0  0  0  0  0
    8.8346   -1.2824   23.6969 C   0  0  0  0  0  0  0  0  0  0  0  0
    8.9065   -0.6159   24.7096 O   0  0  0  0  0  0  0  0  0  0  0  0
    8.2570   -2.5259   23.6501 N   0  0  0  0  0  0  0  0  0  0  0  0
    7.6999   -3.2048   24.7528 C   0  0  0  0  0  0  0  0  0  0  0  0
    8.2995   -3.0805   26.0107 C   0  0  0  0  0  0  0  0  0  0  0  0
    7.7646   -3.7600   27.0953 C   0  0  0  0  0  0  0  0  0  0  0  0
    6.6092   -4.5493   26.9577 C   0  0  0  0  0  0  0  0  0  0  0  0
    6.0085   -5.2913   28.1162 C   0  0  0  0  0  0  0  0  0  0  0  0
    5.2176   -6.2031   27.9888 O   0  0  0  0  0  0  0  0  0  0  0  0
    6.3926   -4.9304   29.3929 N   0  0  0  0  0  0  0  0  0  0  0  0
    5.7333   -5.3827   30.0115 H   0  0  0  0  0  0  0  0  0  0  0  0
    6.5039   -3.9478   29.5756 H   0  0  0  0  0  0  0  0  0  0  0  0
    6.0300   -4.6813   25.6787 C   0  0  0  0  0  0  0  0  0  0  0  0
    6.5778   -4.0252   24.5793 C   0  0  0  0  0  0  0  0  0  0  0  0
    6.1324   -4.1325   23.5959 H   0  0  0  0  0  0  0  0  0  0  0  0
    5.1553   -5.3165   25.5626 H   0  0  0  0  0  0  0  0  0  0  0  0
    8.2743   -3.6890   28.0523 H   0  0  0  0  0  0  0  0  0  0  0  0
    9.1684   -2.4470   26.1227 H   0  0  0  0  0  0  0  0  0  0  0  0
    8.1376   -2.9554   22.7516 H   0  0  0  0  0  0  0  0  0  0  0  0
   10.2621   -0.1291   22.6971 H   0  0  0  0  0  0  0  0  0  0  0  0
    9.8199   -1.6123   21.8121 H   0  0  0  0  0  0  0  0  0  0  0  0
    7.3314   -0.7586   20.9587 C   0  0  0  0  0  0  0  0  0  0  0  0
    6.6148   -0.0157   19.8728 C   0  0  0  0  0  0  0  0  0  0  0  0
    5.4086    0.6523   20.1150 C   0  0  0  0  0  0  0  0  0  0  0  0
    4.7932    1.3273   19.0607 C   0  0  0  0  0  0  0  0  0  0  0  0
    5.4137    1.3206   17.8083 C   0  0  0  0  0  0  0  0  0  0  0  0
    6.5839    0.7100   17.5668 N   0  0  0  0  0  0  0  0  0  0  0  0
    7.1743    0.0813   18.5896 C   0  0  0  0  0  0  0  0  0  0  0  0
    8.1358   -0.3829   18.3582 H   0  0  0  0  0  0  0  0  0  0  0  0
    4.9529    1.8326   16.9656 H   0  0  0  0  0  0  0  0  0  0  0  0
    3.8614    1.8634   19.2012 H   0  0  0  0  0  0  0  0  0  0  0  0
    4.9871    0.6668   21.1239 H   0  0  0  0  0  0  0  0  0  0  0  0
    7.7230   -1.7191   20.6009 H   0  0  0  0  0  0  0  0  0  0  0  0
    6.6820   -0.9511   21.8207 H   0  0  0  0  0  0  0  0  0  0  0  0
    8.9738    0.3925   20.5458 H   0  0  0  0  0  0  0  0  0  0  0  0
    7.3818    1.0255   22.9992 H   0  0  0  0  0  0  0  0  0  0  0  0
    8.9327    1.8081   22.6595 H   0  0  0  0  0  0  0  0  0  0  0  0
    7.5674    2.0318   21.5350 H   0  0  0  0  0  0  0  0  0  0  0  0
  1  2  1  0
  2  3  1  0
  3  4  1  0
  4  5  2  0
  4  6  1  0
  6  7  1  0
  7  8  2  0
  8  9  1  0
  9 10  2  0
 10 11  1  0
 11 12  2  0
 11 13  1  0
 13 14  1  0
 13 15  1  0
 10 16  1  0
 16 17  2  0
 17 18  1  0
 16 19  1  0
  9 20  1  0
  8 21  1  0
  6 22  1  0
  3 23  1  0
  3 24  1  0
  2 25  1  0
 25 26  1  0
 26 27  2  0
 27 28  1  0
 28 29  2  0
 29 30  1  0
 30 31  2  0
 31 32  1  0
 29 33  1  0
 28 34  1  0
 27 35  1  0
 25 36  1  0
 25 37  1  0
  2 38  1  0
  1 39  1  0
  1 40  1  0
  1 41  1  0
 17  7  1  0
 31 26  1  0
M  CHG  1   2   1
M  END
>  <plip>  (1) 
-0.06666666666666667

>  <filename>  (1) 
[H][c]1[n][c]([H])[c]([C]([H])([H])[N+]([H])([C]([H])([H])[H])[C]([H])([H])[C](=[O])[N]([H])[c]2[c]([H])[c]([H])[c]([C](=[O])[N]([H])[H])[c]([H])[c]2[H])[c]([H])[c]1[H]

$$$$
