
     RDKit          3D

 51 53  0  0  0  0  0  0  0  0999 V2000
    8.1540   -3.3246   24.7968 C   0  0  0  0  0  0  0  0  0  0  0  0
    7.0128   -2.5954   24.1042 C   0  0  0  0  0  0  0  0  0  0  0  0
    6.2579   -1.6278   25.0527 C   0  0  0  0  0  0  0  0  0  0  0  0
    5.4600   -2.3143   26.1441 N   0  0  0  0  0  4  0  0  0  0  0  0
    6.0604   -2.1890   27.5516 C   0  0  0  0  0  0  0  0  0  0  0  0
    5.1872   -2.8928   28.6048 C   0  0  0  0  0  0  0  0  0  0  0  0
    3.8364   -2.3197   28.6177 N   0  0  0  0  0  0  0  0  0  0  0  0
    3.1263   -2.4351   29.8429 C   0  0  0  0  0  0  0  0  0  0  0  0
    3.6266   -1.7181   30.9473 C   0  0  0  0  0  0  0  0  0  0  0  0
    2.9665   -1.7351   32.1759 C   0  0  0  0  0  0  0  0  0  0  0  0
    1.8060   -2.4998   32.3344 C   0  0  0  0  0  0  0  0  0  0  0  0
    1.3266   -3.2518   31.2560 C   0  0  0  0  0  0  0  0  0  0  0  0
    1.9767   -3.2229   30.0154 C   0  0  0  0  0  0  0  0  0  0  0  0
    1.6206   -3.8254   29.1845 H   0  0  0  0  0  0  0  0  0  0  0  0
    0.4430   -3.8672   31.3803 H   0  0  0  0  0  0  0  0  0  0  0  0
    1.2815   -2.5026   33.2847 H   0  0  0  0  0  0  0  0  0  0  0  0
    3.3716   -1.1689   33.0100 H   0  0  0  0  0  0  0  0  0  0  0  0
    4.5478   -1.1590   30.8124 H   0  0  0  0  0  0  0  0  0  0  0  0
    3.2026   -2.5381   27.3140 C   0  0  0  0  0  0  0  0  0  0  0  0
    4.0179   -1.8068   26.2296 C   0  0  0  0  0  0  0  0  0  0  0  0
    3.5490   -1.8845   25.2415 H   0  0  0  0  0  0  0  0  0  0  0  0
    4.0637   -0.7500   26.5159 H   0  0  0  0  0  0  0  0  0  0  0  0
    2.1775   -2.1514   27.3081 H   0  0  0  0  0  0  0  0  0  0  0  0
    3.1791   -3.6155   27.0540 H   0  0  0  0  0  0  0  0  0  0  0  0
    5.6098   -2.7919   29.6070 H   0  0  0  0  0  0  0  0  0  0  0  0
    5.1565   -3.9750   28.3726 H   0  0  0  0  0  0  0  0  0  0  0  0
    6.1032   -1.1252   27.8111 H   0  0  0  0  0  0  0  0  0  0  0  0
    7.0837   -2.5796   27.5494 H   0  0  0  0  0  0  0  0  0  0  0  0
    5.4327   -3.3263   25.8863 H   0  0  0  0  0  0  0  0  0  0  0  0
    6.9742   -0.9322   25.5061 H   0  0  0  0  0  0  0  0  0  0  0  0
    5.5760   -1.0238   24.4465 H   0  0  0  0  0  0  0  0  0  0  0  0
    7.5471   -1.9181   22.9249 N   0  0  0  0  0  0  0  0  0  0  0  0
    6.7818   -1.7065   21.8035 C   0  0  0  0  0  0  0  0  0  0  0  0
    5.7197   -2.2514   21.5859 O   0  0  0  0  0  0  0  0  0  0  0  0
    7.3909   -0.8028   20.9492 N   0  0  0  0  0  0  0  0  0  0  0  0
    6.7320   -0.0763   19.9180 C   0  0  0  0  0  0  0  0  0  0  0  0
    5.5100    0.5667   20.1667 C   0  0  0  0  0  0  0  0  0  0  0  0
    4.8886    1.2473   19.1134 C   0  0  0  0  0  0  0  0  0  0  0  0
    5.5049    1.2697   17.8571 C   0  0  0  0  0  0  0  0  0  0  0  0
    6.6857    0.6770   17.6080 N   0  0  0  0  0  0  0  0  0  0  0  0
    7.2834    0.0401   18.6222 C   0  0  0  0  0  0  0  0  0  0  0  0
    8.2384   -0.4412   18.4159 H   0  0  0  0  0  0  0  0  0  0  0  0
    5.0339    1.7700   17.0136 H   0  0  0  0  0  0  0  0  0  0  0  0
    3.9485    1.7708   19.2600 H   0  0  0  0  0  0  0  0  0  0  0  0
    5.0839    0.5254   21.1691 H   0  0  0  0  0  0  0  0  0  0  0  0
    8.3661   -0.6340   21.1243 H   0  0  0  0  0  0  0  0  0  0  0  0
    8.2725   -1.2381   23.0560 H   0  0  0  0  0  0  0  0  0  0  0  0
    6.2747   -3.3245   23.7539 H   0  0  0  0  0  0  0  0  0  0  0  0
    8.6760   -3.9667   24.0821 H   0  0  0  0  0  0  0  0  0  0  0  0
    8.8801   -2.6250   25.2302 H   0  0  0  0  0  0  0  0  0  0  0  0
    7.7803   -3.9533   25.6100 H   0  0  0  0  0  0  0  0  0  0  0  0
  1  2  1  0
  2  3  1  0
  3  4  1  0
  4  5  1  0
  5  6  1  0
  6  7  1  0
  7  8  1  0
  8  9  2  0
  9 10  1  0
 10 11  2  0
 11 12  1  0
 12 13  2  0
 13 14  1  0
 12 15  1  0
 11 16  1  0
 10 17  1  0
  9 18  1  0
  7 19  1  0
 19 20  1  0
 20 21  1  0
 20 22  1  0
 19 23  1  0
 19 24  1  0
  6 25  1  0
  6 26  1  0
  5 27  1  0
  5 28  1  0
  4 29  1  0
  3 30  1  0
  3 31  1  0
  2 32  1  0
 32 33  1  0
 33 34  2  0
 33 35  1  0
 35 36  1  0
 36 37  2  0
 37 38  1  0
 38 39  2  0
 39 40  1  0
 40 41  2  0
 41 42  1  0
 39 43  1  0
 38 44  1  0
 37 45  1  0
 35 46  1  0
 32 47  1  0
  2 48  1  0
  1 49  1  0
  1 50  1  0
  1 51  1  0
 20  4  1  0
 41 36  1  0
 13  8  1  0
M  CHG  1   4   1
M  END
>  <plip>  (1) 
-0.07142857142857142

>  <filename>  (1) 
[H][c]1[n][c]([H])[c]([N]([H])[C](=[O])[N]([H])[C]([H])([C]([H])([H])[H])[C]([H])([H])[N+]2([H])[C]([H])([H])[C]([H])([H])[N]([c]3[c]([H])[c]([H])[c]([H])[c]([H])[c]3[H])[C]([H])([H])[C]2([H])[H])[c]([H])[c]1[H]

$$$$
