
     RDKit          3D

 30 31  0  0  0  0  0  0  0  0999 V2000
    5.2530   -6.2131   21.4368 O   0  0  0  0  0  0  0  0  0  0  0  0
    4.6503   -5.7348   22.3966 C   0  0  0  0  0  0  0  0  0  0  0  0
    3.5305   -5.9203   22.8781 O   0  0  0  0  0  1  0  0  0  0  0  0
    5.4356   -4.6510   23.3785 C   0  0  0  0  0  0  0  0  0  0  0  0
    6.4960   -3.8178   22.8513 O   0  0  0  0  0  0  0  0  0  0  0  0
    6.1545   -2.9178   21.8978 C   0  0  0  0  0  0  0  0  0  0  0  0
    5.0112   -2.7301   21.5626 O   0  0  0  0  0  0  0  0  0  0  0  0
    7.3100   -2.2231   21.1936 C   0  0  2  0  0  0  0  0  0  0  0  0
    8.7369   -2.5744   21.6376 C   0  0  0  0  0  0  0  0  0  0  0  0
    9.5310   -1.3102   21.3221 C   0  0  0  0  0  0  0  0  0  0  0  0
    8.6010   -0.2485   21.2481 O   0  0  0  0  0  0  0  0  0  0  0  0
    7.2503   -0.6730   21.2593 C   0  0  1  0  0  0  0  0  0  0  0  0
    6.5517   -0.0187   20.0817 C   0  0  0  0  0  0  0  0  0  0  0  0
    5.3087    0.6121   20.1921 C   0  0  0  0  0  0  0  0  0  0  0  0
    4.7874    1.2654   19.0699 C   0  0  0  0  0  0  0  0  0  0  0  0
    5.5143    1.2405   17.8774 C   0  0  0  0  0  0  0  0  0  0  0  0
    6.6968    0.6182   17.7395 N   0  0  0  0  0  0  0  0  0  0  0  0
    7.1904    0.0136   18.8269 C   0  0  0  0  0  0  0  0  0  0  0  0
    8.1609   -0.4672   18.6906 H   0  0  0  0  0  0  0  0  0  0  0  0
    5.1375    1.7421   16.9883 H   0  0  0  0  0  0  0  0  0  0  0  0
    3.8472    1.8034   19.1171 H   0  0  0  0  0  0  0  0  0  0  0  0
    4.7743    0.5890   21.1444 H   0  0  0  0  0  0  0  0  0  0  0  0
    6.7970   -0.3099   22.1994 H   0  0  0  0  0  0  0  0  0  0  0  0
   10.0726   -1.3757   20.3731 H   0  0  0  0  0  0  0  0  0  0  0  0
   10.2662   -1.0539   22.0950 H   0  0  0  0  0  0  0  0  0  0  0  0
    8.7704   -2.7682   22.7138 H   0  0  0  0  0  0  0  0  0  0  0  0
    9.1182   -3.4557   21.1203 H   0  0  0  0  0  0  0  0  0  0  0  0
    7.1496   -2.4742   20.1371 H   0  0  0  0  0  0  0  0  0  0  0  0
    4.6640   -4.0294   23.8250 H   0  0  0  0  0  0  0  0  0  0  0  0
    5.9128   -5.2581   24.1519 H   0  0  0  0  0  0  0  0  0  0  0  0
  1  2  2  0
  2  3  1  0
  2  4  1  0
  4  5  1  0
  5  6  1  0
  6  7  2  0
  6  8  1  0
  8  9  1  0
  9 10  1  0
 10 11  1  0
 11 12  1  0
 12 13  1  0
 13 14  2  0
 14 15  1  0
 15 16  2  0
 16 17  1  0
 17 18  2  0
 18 19  1  0
 16 20  1  0
 15 21  1  0
 14 22  1  0
 12 23  1  1
 10 24  1  0
 10 25  1  0
  9 26  1  0
  9 27  1  0
  8 28  1  6
  4 29  1  0
  4 30  1  0
 12  8  1  0
 18 13  1  0
M  CHG  1   3  -1
M  END
>  <plip>  (1) 
-0.07142857142857142

>  <filename>  (1) 
[H][c]1[n][c]([H])[c]([C@]2([H])[O][C]([H])([H])[C]([H])([H])[C@@]2([H])[C](=[O])[O][C]([H])([H])[C](=[O])[O-])[c]([H])[c]1[H]

$$$$
