
     RDKit          3D

 38 40  0  0  0  0  0  0  0  0999 V2000
    8.8127   -1.1494   20.7361 C   0  0  0  0  0  0  0  0  0  0  0  0
    7.3498   -0.7579   21.0514 C   0  0  0  0  0  0  0  0  0  0  0  0
    6.5331   -2.0473   21.3067 C   0  0  0  0  0  0  0  0  0  0  0  0
    6.9790   -2.6352   22.1148 H   0  0  0  0  0  0  0  0  0  0  0  0
    5.5071   -1.8027   21.5966 H   0  0  0  0  0  0  0  0  0  0  0  0
    6.4827   -2.6612   20.4016 H   0  0  0  0  0  0  0  0  0  0  0  0
    6.6700    0.0109   19.8990 C   0  0  0  0  0  0  0  0  0  0  0  0
    5.4406    0.6447   20.1427 C   0  0  0  0  0  0  0  0  0  0  0  0
    4.8041    1.3086   19.0934 C   0  0  0  0  0  0  0  0  0  0  0  0
    5.3979    1.2929   17.8255 C   0  0  0  0  0  0  0  0  0  0  0  0
    6.5548    0.6742   17.5591 N   0  0  0  0  0  0  0  0  0  0  0  0
    7.1665    0.0612   18.5849 C   0  0  0  0  0  0  0  0  0  0  0  0
    8.1122   -0.4147   18.3451 H   0  0  0  0  0  0  0  0  0  0  0  0
    4.9186    1.7903   16.9853 H   0  0  0  0  0  0  0  0  0  0  0  0
    3.8762    1.8414   19.2490 H   0  0  0  0  0  0  0  0  0  0  0  0
    5.0141    0.6325   21.1530 H   0  0  0  0  0  0  0  0  0  0  0  0
    7.3637    0.0873   22.3290 C   0  0  0  0  0  0  0  0  0  0  0  0
    6.8701   -0.1655   23.5082 N   0  0  0  0  0  0  0  0  0  0  0  0
    7.1876    0.9663   24.2039 C   0  0  0  0  0  0  0  0  0  0  0  0
    6.7451    1.1502   25.6092 C   0  0  0  0  0  0  0  0  0  0  0  0
    5.3427    1.7168   25.6400 C   0  0  0  0  0  0  0  0  0  0  0  0
    5.1540    3.1013   25.6042 C   0  0  0  0  0  0  0  0  0  0  0  0
    3.8635    3.6401   25.5785 C   0  0  0  0  0  0  0  0  0  0  0  0
    2.7475    2.7974   25.5677 C   0  0  0  0  0  0  0  0  0  0  0  0
    2.9607    1.4204   25.5714 C   0  0  0  0  0  0  0  0  0  0  0  0
    1.8959    0.6021   25.5516 F   0  0  0  0  0  0  0  0  0  0  0  0
    4.2360    0.8617   25.5964 C   0  0  0  0  0  0  0  0  0  0  0  0
    4.3475   -0.2199   25.5737 H   0  0  0  0  0  0  0  0  0  0  0  0
    1.7301    3.1787   25.5551 H   0  0  0  0  0  0  0  0  0  0  0  0
    3.7257    4.7180   25.5707 H   0  0  0  0  0  0  0  0  0  0  0  0
    6.0250    3.7523   25.5957 H   0  0  0  0  0  0  0  0  0  0  0  0
    6.7841    0.1726   26.0955 H   0  0  0  0  0  0  0  0  0  0  0  0
    7.4595    1.8051   26.1067 H   0  0  0  0  0  0  0  0  0  0  0  0
    7.8470    1.8649   23.5265 N   0  0  0  0  0  0  0  0  0  0  0  0
    7.9745    1.2765   22.2747 O   0  0  0  0  0  0  0  0  0  0  0  0
    9.2749   -1.6131   21.6142 H   0  0  0  0  0  0  0  0  0  0  0  0
    8.8579   -1.8808   19.9335 H   0  0  0  0  0  0  0  0  0  0  0  0
    9.4192   -0.2914   20.4298 H   0  0  0  0  0  0  0  0  0  0  0  0
  1  2  1  0
  2  3  1  0
  3  4  1  0
  3  5  1  0
  3  6  1  0
  2  7  1  0
  7  8  2  0
  8  9  1  0
  9 10  2  0
 10 11  1  0
 11 12  2  0
 12 13  1  0
 10 14  1  0
  9 15  1  0
  8 16  1  0
  2 17  1  0
 17 18  2  0
 18 19  1  0
 19 20  1  0
 20 21  1  0
 21 22  2  0
 22 23  1  0
 23 24  2  0
 24 25  1  0
 25 26  1  0
 25 27  2  0
 27 28  1  0
 24 29  1  0
 23 30  1  0
 22 31  1  0
 20 32  1  0
 20 33  1  0
 19 34  2  0
 34 35  1  0
  1 36  1  0
  1 37  1  0
  1 38  1  0
 12  7  1  0
 35 17  1  0
 27 21  1  0
M  END
>  <plip>  (1) 
-0.03571428571428571

>  <filename>  (1) 
[H][c]1[n][c]([H])[c]([C]([c]2[n][c]([C]([H])([H])[c]3[c]([H])[c]([H])[c]([H])[c]([F])[c]3[H])[n][o]2)([C]([H])([H])[H])[C]([H])([H])[H])[c]([H])[c]1[H]

$$$$
