
     RDKit          3D

 29 31  0  0  0  0  0  0  0  0999 V2000
    4.9761    1.8733   17.0269 H   0  0  0  0  0  0  0  0  0  0  0  0
    5.4425    1.3098   17.8339 C   0  0  0  0  0  0  0  0  0  0  0  0
    6.6049    0.7028   17.5477 N   0  0  0  0  0  0  0  0  0  0  0  0
    7.2286    0.0296   18.5249 C   0  0  0  0  0  0  0  0  0  0  0  0
    8.1685   -0.4469   18.2399 H   0  0  0  0  0  0  0  0  0  0  0  0
    6.7114   -0.0955   19.8410 C   0  0  0  0  0  0  0  0  0  0  0  0
    7.3922   -0.7619   20.9029 N   0  0  0  0  0  0  0  0  0  0  0  0
    6.8106   -1.7285   21.7392 C   0  0  0  0  0  0  0  0  0  0  0  0
    5.7474   -2.2825   21.6597 O   0  0  0  0  0  0  0  0  0  0  0  0
    7.7566   -1.9944   22.7021 N   0  0  0  0  0  0  0  0  0  0  0  0
    7.5906   -2.6607   23.4228 H   0  0  0  0  0  0  0  0  0  0  0  0
    8.9825   -1.4637   22.4559 C   0  0  0  0  0  0  0  0  0  0  0  0
    9.9698   -1.6428   23.1141 O   0  0  0  0  0  0  0  0  0  0  0  0
    8.8198   -0.6184   21.2156 C   0  0  2  0  0  0  0  0  0  0  0  0
    9.4618   -1.0257   20.4256 H   0  0  0  0  0  0  0  0  0  0  0  0
    9.4598    0.7368   21.5737 C   0  0  0  0  0  0  0  0  0  0  0  0
   10.6000    0.8891   21.1956 O   0  0  0  0  0  0  0  0  0  0  0  0
    8.7669    1.7731   22.4050 C   0  0  0  0  0  0  0  0  0  0  0  0
    9.4884    3.3465   22.4027 S   0  0  0  0  0  0  0  0  0  0  0  0
    8.2548    3.9855   23.3987 C   0  0  0  0  0  0  0  0  0  0  0  0
    8.2606    5.0354   23.6606 H   0  0  0  0  0  0  0  0  0  0  0  0
    7.3447    3.0346   23.7663 C   0  0  0  0  0  0  0  0  0  0  0  0
    6.4822    3.2397   24.3932 H   0  0  0  0  0  0  0  0  0  0  0  0
    7.6480    1.7524   23.2145 C   0  0  0  0  0  0  0  0  0  0  0  0
    7.0647    0.8629   23.4410 H   0  0  0  0  0  0  0  0  0  0  0  0
    5.4720    0.5055   20.1047 C   0  0  0  0  0  0  0  0  0  0  0  0
    5.0274    0.3912   21.0919 H   0  0  0  0  0  0  0  0  0  0  0  0
    4.8436    1.2403   19.0953 C   0  0  0  0  0  0  0  0  0  0  0  0
    3.9162    1.7699   19.2797 H   0  0  0  0  0  0  0  0  0  0  0  0
  1  2  1  0
  2  3  2  0
  3  4  1  0
  4  5  1  0
  4  6  2  0
  6  7  1  0
  7  8  1  0
  8  9  2  0
  8 10  1  0
 10 11  1  0
 10 12  1  0
 12 13  2  0
 12 14  1  0
 14 15  1  6
 14 16  1  0
 16 17  2  0
 16 18  1  0
 18 19  1  0
 19 20  1  0
 20 21  1  0
 20 22  2  0
 22 23  1  0
 22 24  1  0
 24 25  1  0
  6 26  1  0
 26 27  1  0
 26 28  2  0
 28 29  1  0
 28  2  1  0
 14  7  1  0
 24 18  2  0
M  END
>  <plip>  (1) 
-0.07142857142857142

>  <filename>  (1) 
[H][c]1[n][c]([H])[c]([N]2[C](=[O])[N]([H])[C](=[O])[C@]2([H])[C](=[O])[c]2[s][c]([H])[c]([H])[c]2[H])[c]([H])[c]1[H]

$$$$
