
     RDKit          3D

 25 26  0  0  0  0  0  0  0  0999 V2000
    4.9347    1.7809   16.9968 H   0  0  0  0  0  0  0  0  0  0  0  0
    5.4125    1.2872   17.8424 C   0  0  0  0  0  0  0  0  0  0  0  0
    6.5776    0.6674   17.5960 N   0  0  0  0  0  0  0  0  0  0  0  0
    7.1788    0.0370   18.6077 C   0  0  0  0  0  0  0  0  0  0  0  0
    8.1238   -0.4425   18.3747 H   0  0  0  0  0  0  0  0  0  0  0  0
    6.6500   -0.0150   19.9080 C   0  0  0  0  0  0  0  0  0  0  0  0
    7.3589   -0.6870   20.9338 N   0  0  0  0  0  0  0  0  0  0  0  0
    7.9156   -1.8930   20.7137 N   0  0  0  0  0  0  0  0  0  0  0  0
    8.4787   -2.2275   21.8606 C   0  0  0  0  0  0  0  0  0  0  0  0
    8.9805   -3.1819   21.9470 H   0  0  0  0  0  0  0  0  0  0  0  0
    8.3155   -1.2326   22.8429 C   0  0  0  0  0  0  0  0  0  0  0  0
    8.7111   -1.1993   23.8493 H   0  0  0  0  0  0  0  0  0  0  0  0
    7.5926   -0.2437   22.2152 C   0  0  0  0  0  0  0  0  0  0  0  0
    7.2226    1.3780   22.8117 S   0  0  0  0  0  0  0  0  0  0  0  0
    8.6717    2.2406   22.1180 C   0  0  0  0  0  0  0  0  0  0  0  0
    8.7806    1.8843   21.0901 H   0  0  0  0  0  0  0  0  0  0  0  0
    8.3860    3.2958   22.0768 H   0  0  0  0  0  0  0  0  0  0  0  0
    9.9275    2.0094   22.9408 C   0  0  0  0  0  0  0  0  0  0  0  0
    9.7623    2.3018   23.9815 H   0  0  0  0  0  0  0  0  0  0  0  0
   10.2008    0.9493   22.9426 H   0  0  0  0  0  0  0  0  0  0  0  0
   10.7691    2.5811   22.5382 H   0  0  0  0  0  0  0  0  0  0  0  0
    5.4348    0.6295   20.1683 C   0  0  0  0  0  0  0  0  0  0  0  0
    4.9969    0.6298   21.1685 H   0  0  0  0  0  0  0  0  0  0  0  0
    4.8151    1.2951   19.1074 C   0  0  0  0  0  0  0  0  0  0  0  0
    3.8860    1.8326   19.2603 H   0  0  0  0  0  0  0  0  0  0  0  0
  1  2  1  0
  2  3  2  0
  3  4  1  0
  4  5  1  0
  4  6  2  0
  6  7  1  0
  7  8  1  0
  8  9  2  0
  9 10  1  0
  9 11  1  0
 11 12  1  0
 11 13  2  0
 13 14  1  0
 14 15  1  0
 15 16  1  0
 15 17  1  0
 15 18  1  0
 18 19  1  0
 18 20  1  0
 18 21  1  0
  6 22  1  0
 22 23  1  0
 22 24  2  0
 24 25  1  0
 24  2  1  0
 13  7  1  0
M  END
>  <plip>  (1) 
-0.0

>  <filename>  (1) 
[H][c]1[n][c]([H])[c](-[n]2[n][c]([H])[c]([H])[c]2[S][C]([H])([H])[C]([H])([H])[H])[c]([H])[c]1[H]

$$$$
