
     RDKit          3D

 37 38  0  0  0  0  0  0  0  0999 V2000
    7.9632    1.6641   26.2488 C   0  0  0  0  0  0  0  0  0  0  0  0
    8.1161    1.9769   24.8547 O   0  0  0  0  0  0  0  0  0  0  0  0
    8.1101    0.9744   23.9600 C   0  0  0  0  0  0  0  0  0  0  0  0
    7.8608   -0.1733   24.2396 O   0  0  0  0  0  0  0  0  0  0  0  0
    8.3063    1.4989   22.5158 C   0  0  0  0  0  0  0  0  0  0  0  0
    8.9766    0.2474   21.3369 S   0  0  0  0  0  0  0  0  0  0  0  0
    7.4295   -0.6444   20.9888 C   0  0  0  0  0  0  0  0  0  0  0  0
    6.6232    0.0120   19.9022 C   0  0  0  0  0  0  0  0  0  0  0  0
    5.3960    0.6449   20.1252 C   0  0  0  0  0  0  0  0  0  0  0  0
    4.7791    1.3059   19.0584 C   0  0  0  0  0  0  0  0  0  0  0  0
    5.4019    1.3050   17.8085 C   0  0  0  0  0  0  0  0  0  0  0  0
    6.5644    0.6781   17.5670 N   0  0  0  0  0  0  0  0  0  0  0  0
    7.1474    0.0559   18.5956 C   0  0  0  0  0  0  0  0  0  0  0  0
    8.0945   -0.4397   18.3835 H   0  0  0  0  0  0  0  0  0  0  0  0
    4.9547    1.8279   16.9644 H   0  0  0  0  0  0  0  0  0  0  0  0
    3.8423    1.8319   19.1873 H   0  0  0  0  0  0  0  0  0  0  0  0
    4.9237    0.6296   21.1116 H   0  0  0  0  0  0  0  0  0  0  0  0
    7.7617   -1.6421   20.6839 H   0  0  0  0  0  0  0  0  0  0  0  0
    6.8717   -0.7649   21.9233 H   0  0  0  0  0  0  0  0  0  0  0  0
    8.9807    2.8666   22.4297 C   0  0  0  0  0  0  0  0  0  0  0  0
    8.1434    3.9649   22.1605 C   0  0  0  0  0  0  0  0  0  0  0  0
    8.6011    5.2816   22.2527 C   0  0  0  0  0  0  0  0  0  0  0  0
    9.9235    5.5272   22.6312 C   0  0  0  0  0  0  0  0  0  0  0  0
   10.7913    4.4543   22.8513 C   0  0  0  0  0  0  0  0  0  0  0  0
   10.3274    3.1223   22.7618 C   0  0  0  0  0  0  0  0  0  0  0  0
   11.3131    1.9739   22.9318 C   0  0  0  0  0  0  0  0  0  0  0  0
   12.4688    2.3542   23.5052 F   0  0  0  0  0  0  0  0  0  0  0  0
   10.8172    0.9732   23.6990 F   0  0  0  0  0  0  0  0  0  0  0  0
   11.6216    1.4272   21.7418 F   0  0  0  0  0  0  0  0  0  0  0  0
   11.8384    4.6548   23.0764 H   0  0  0  0  0  0  0  0  0  0  0  0
   10.2931    6.5506   22.6880 H   0  0  0  0  0  0  0  0  0  0  0  0
    7.9178    6.1056   22.0578 H   0  0  0  0  0  0  0  0  0  0  0  0
    7.0987    3.7813   21.9161 H   0  0  0  0  0  0  0  0  0  0  0  0
    7.2611    1.6425   22.2067 H   0  0  0  0  0  0  0  0  0  0  0  0
    7.9359    2.6344   26.7453 H   0  0  0  0  0  0  0  0  0  0  0  0
    7.0332    1.1166   26.4394 H   0  0  0  0  0  0  0  0  0  0  0  0
    8.8161    1.0835   26.6185 H   0  0  0  0  0  0  0  0  0  0  0  0
  1  2  1  0
  2  3  1  0
  3  4  2  0
  3  5  1  0
  5  6  1  0
  6  7  1  0
  7  8  1  0
  8  9  2  0
  9 10  1  0
 10 11  2  0
 11 12  1  0
 12 13  2  0
 13 14  1  0
 11 15  1  0
 10 16  1  0
  9 17  1  0
  7 18  1  0
  7 19  1  0
  5 20  1  0
 20 21  2  0
 21 22  1  0
 22 23  2  0
 23 24  1  0
 24 25  2  0
 25 26  1  0
 26 27  1  0
 26 28  1  0
 26 29  1  0
 24 30  1  0
 23 31  1  0
 22 32  1  0
 21 33  1  0
  5 34  1  0
  1 35  1  0
  1 36  1  0
  1 37  1  0
 13  8  1  0
 25 20  1  0
M  END
>  <plip>  (1) 
-0.034482758620689655

>  <filename>  (1) 
[H][c]1[n][c]([H])[c]([C]([H])([H])[S][C]([H])([C](=[O])[O][C]([H])([H])[H])[c]2[c]([H])[c]([H])[c]([H])[c]([H])[c]2[C]([F])([F])[F])[c]([H])[c]1[H]

$$$$
