
     RDKit          3D

 27 28  0  0  0  0  0  0  0  0999 V2000
   11.1713   -0.7938   23.2409 H   0  0  0  0  0  0  0  0  0  0  0  0
   10.0845   -0.7735   23.2517 C   0  0  0  0  0  0  0  0  0  0  0  0
    9.4408    0.0048   24.1289 C   0  0  0  0  0  0  0  0  0  0  0  0
    7.6920    0.2100   24.2774 S   0  0  0  0  0  0  0  0  0  0  0  0
    7.8889    1.3362   25.6548 C   0  0  0  0  0  0  0  0  0  0  0  0
    7.0204    1.8815   26.2725 O   0  0  0  0  0  0  0  0  0  0  0  0
    9.2190    1.4980   25.9116 N   0  0  0  0  0  0  0  0  0  0  0  0
    9.5119    2.0644   26.6841 H   0  0  0  0  0  0  0  0  0  0  0  0
   10.1459    0.8350   25.1661 C   0  0  0  0  0  0  0  0  0  0  0  0
   11.3332    0.9385   25.3522 O   0  0  0  0  0  0  0  0  0  0  0  0
    9.3851   -1.5629   22.1821 C   0  0  0  0  0  0  0  0  0  0  0  0
   10.2997   -2.3446   21.5559 F   0  0  0  0  0  0  0  0  0  0  0  0
    8.4548   -2.4071   22.7364 F   0  0  0  0  0  0  0  0  0  0  0  0
    8.7136   -0.6238   21.0940 C   0  0  0  0  0  0  0  0  0  0  0  0
    9.4174    0.1054   20.4293 O   0  0  0  0  0  0  0  0  0  0  0  0
    7.3489   -0.6830   20.9384 N   0  0  0  0  0  0  0  0  0  0  0  0
    6.8020   -1.1166   21.6707 H   0  0  0  0  0  0  0  0  0  0  0  0
    6.6604    0.0005   19.8972 C   0  0  0  0  0  0  0  0  0  0  0  0
    7.1717    0.0612   18.5774 C   0  0  0  0  0  0  0  0  0  0  0  0
    8.1188   -0.4235   18.3585 H   0  0  0  0  0  0  0  0  0  0  0  0
    6.5528    0.6779   17.5668 N   0  0  0  0  0  0  0  0  0  0  0  0
    5.3930    1.2969   17.8389 C   0  0  0  0  0  0  0  0  0  0  0  0
    4.9146    1.7891   16.9974 H   0  0  0  0  0  0  0  0  0  0  0  0
    4.8111    1.3050   19.1099 C   0  0  0  0  0  0  0  0  0  0  0  0
    3.8823    1.8373   19.2632 H   0  0  0  0  0  0  0  0  0  0  0  0
    5.4429    0.6328   20.1642 C   0  0  0  0  0  0  0  0  0  0  0  0
    5.0279    0.6197   21.1743 H   0  0  0  0  0  0  0  0  0  0  0  0
  1  2  1  0
  2  3  2  3
  3  4  1  0
  4  5  1  0
  5  6  2  0
  5  7  1  0
  7  8  1  0
  7  9  1  0
  9 10  2  0
  2 11  1  0
 11 12  1  0
 11 13  1  0
 11 14  1  0
 14 15  2  0
 14 16  1  0
 16 17  1  0
 16 18  1  0
 18 19  2  0
 19 20  1  0
 19 21  1  0
 21 22  2  0
 22 23  1  0
 22 24  1  0
 24 25  1  0
 24 26  2  0
 26 27  1  0
  9  3  1  0
 26 18  1  0
M  END
>  <plip>  (1) 
-0.14285714285714285

>  <filename>  (1) 
[H][C](=[C]1[S][C](=[O])[N]([H])[C]1=[O])[C]([F])([F])[C](=[O])[N]([H])[c]1[c]([H])[n][c]([H])[c]([H])[c]1[H]

$$$$
