
     RDKit          3D

 27 29  0  0  0  0  0  0  0  0999 V2000
    7.1156   -5.3320   20.4329 H   0  0  0  0  0  0  0  0  0  0  0  0
    6.7018   -4.3849   20.7655 C   0  0  0  0  0  0  0  0  0  0  0  0
    5.4799   -4.1171   21.0710 N   0  0  0  0  0  0  0  0  0  0  0  0
    5.5161   -2.7633   21.3585 C   0  0  0  0  0  0  0  0  0  0  0  0
    4.6221   -2.2685   21.6977 H   0  0  0  0  0  0  0  0  0  0  0  0
    6.7581   -2.2538   21.1543 C   0  0  0  0  0  0  0  0  0  0  0  0
    7.3067   -0.8380   21.0596 C   0  0  0  0  0  0  0  0  0  0  0  0
    6.6241   -0.0412   19.9313 C   0  0  0  0  0  0  0  0  0  0  0  0
    7.1525    0.0119   18.6227 C   0  0  0  0  0  0  0  0  0  0  0  0
    8.1004   -0.4788   18.3965 H   0  0  0  0  0  0  0  0  0  0  0  0
    6.5814    0.6417   17.5860 N   0  0  0  0  0  0  0  0  0  0  0  0
    5.4287    1.2851   17.8282 C   0  0  0  0  0  0  0  0  0  0  0  0
    4.9817    1.8086   16.9864 H   0  0  0  0  0  0  0  0  0  0  0  0
    4.8074    1.2969   19.0799 C   0  0  0  0  0  0  0  0  0  0  0  0
    3.8868    1.8482   19.2180 H   0  0  0  0  0  0  0  0  0  0  0  0
    5.4130    0.6332   20.1472 C   0  0  0  0  0  0  0  0  0  0  0  0
    4.9759    0.6810   21.1473 H   0  0  0  0  0  0  0  0  0  0  0  0
    7.3305   -0.1079   22.4564 C   0  0  0  0  0  0  0  0  0  0  0  0
    6.8611   -0.6665   23.2706 H   0  0  0  0  0  0  0  0  0  0  0  0
    6.9212    0.9068   22.4416 H   0  0  0  0  0  0  0  0  0  0  0  0
    8.8737   -0.1317   22.4702 C   0  0  0  0  0  0  0  0  0  0  0  0
    9.3443    0.8566   22.5458 H   0  0  0  0  0  0  0  0  0  0  0  0
    9.3109   -0.7883   23.2332 H   0  0  0  0  0  0  0  0  0  0  0  0
    8.8659   -0.7196   21.0471 C   0  0  0  0  0  0  0  0  0  0  0  0
    9.2128    0.0156   20.3182 H   0  0  0  0  0  0  0  0  0  0  0  0
    9.4123   -1.6538   20.9119 H   0  0  0  0  0  0  0  0  0  0  0  0
    7.5370   -3.3345   20.8235 O   0  0  0  0  0  0  0  0  0  0  0  0
  1  2  1  0
  2  3  2  0
  3  4  1  0
  4  5  1  0
  4  6  2  0
  6  7  1  0
  7  8  1  0
  8  9  2  0
  9 10  1  0
  9 11  1  0
 11 12  2  0
 12 13  1  0
 12 14  1  0
 14 15  1  0
 14 16  2  0
 16 17  1  0
  7 18  1  0
 18 19  1  0
 18 20  1  0
 18 21  1  0
 21 22  1  0
 21 23  1  0
 21 24  1  0
 24 25  1  0
 24 26  1  0
  6 27  1  0
 27  2  1  0
 24  7  1  0
 16  8  1  0
M  END
>  <plip>  (1) 
-0.034482758620689655

>  <filename>  (1) 
[H][c]1[n][c]([H])[c]([C]2([c]3[c]([H])[n][c]([H])[c]([H])[c]3[H])[C]([H])([H])[C]([H])([H])[C]2([H])[H])[o]1

$$$$
