
     RDKit          3D

 31 33  0  0  0  0  0  0  0  0999 V2000
    5.7637   -2.1767   21.6080 O   0  0  0  0  0  0  0  0  0  0  0  0
    6.8547   -1.6838   21.7465 C   0  0  0  0  0  0  0  0  0  0  0  0
    7.7792   -2.0114   22.6961 N   0  0  0  0  0  0  0  0  0  0  0  0
    9.0828   -1.4036   22.4665 C   0  0  0  0  0  0  0  0  0  0  0  0
    9.7055   -0.5885   23.6177 C   0  0  0  0  0  0  0  0  0  0  0  0
    8.8722    0.6031   24.0924 C   0  0  0  0  0  0  0  0  0  0  0  0
    9.9376    1.6391   24.4559 C   0  0  0  0  0  0  0  0  0  0  0  0
   11.0649    1.3163   23.4698 C   0  0  0  0  0  0  0  0  0  0  0  0
   10.9320   -0.0588   23.1416 O   0  0  0  0  0  0  0  0  0  0  0  0
   12.0616    1.4788   23.8987 H   0  0  0  0  0  0  0  0  0  0  0  0
   10.9783    1.9077   22.5480 H   0  0  0  0  0  0  0  0  0  0  0  0
    9.5752    2.6638   24.3479 H   0  0  0  0  0  0  0  0  0  0  0  0
   10.2814    1.5113   25.4881 H   0  0  0  0  0  0  0  0  0  0  0  0
    8.2067    0.3315   24.9167 H   0  0  0  0  0  0  0  0  0  0  0  0
    8.2628    0.9544   23.2503 H   0  0  0  0  0  0  0  0  0  0  0  0
    9.9395   -1.2861   24.4352 H   0  0  0  0  0  0  0  0  0  0  0  0
    8.7930   -0.5580   21.2289 C   0  0  0  0  0  0  0  0  0  0  0  0
    9.5760    0.0787   20.5706 O   0  0  0  0  0  0  0  0  0  0  0  0
    7.4411   -0.7077   20.9268 N   0  0  0  0  0  0  0  0  0  0  0  0
    6.7406   -0.0091   19.8881 C   0  0  0  0  0  0  0  0  0  0  0  0
    5.5148    0.6023   20.1710 C   0  0  0  0  0  0  0  0  0  0  0  0
    4.8516    1.2736   19.1361 C   0  0  0  0  0  0  0  0  0  0  0  0
    5.4244    1.2743   17.8588 C   0  0  0  0  0  0  0  0  0  0  0  0
    6.5887    0.6665   17.5731 N   0  0  0  0  0  0  0  0  0  0  0  0
    7.2383    0.0546   18.5707 C   0  0  0  0  0  0  0  0  0  0  0  0
    8.1899   -0.4285   18.3518 H   0  0  0  0  0  0  0  0  0  0  0  0
    4.9356    1.7826   17.0283 H   0  0  0  0  0  0  0  0  0  0  0  0
    3.9101    1.7902   19.3011 H   0  0  0  0  0  0  0  0  0  0  0  0
    5.1024    0.5334   21.1768 H   0  0  0  0  0  0  0  0  0  0  0  0
    9.8508   -2.1219   22.1523 H   0  0  0  0  0  0  0  0  0  0  0  0
    7.4540   -2.5784   23.4585 H   0  0  0  0  0  0  0  0  0  0  0  0
  1  2  2  0
  2  3  1  0
  3  4  1  0
  4  5  1  0
  5  6  1  0
  6  7  1  0
  7  8  1  0
  8  9  1  0
  8 10  1  0
  8 11  1  0
  7 12  1  0
  7 13  1  0
  6 14  1  0
  6 15  1  0
  5 16  1  0
  4 17  1  0
 17 18  2  0
 17 19  1  0
 19 20  1  0
 20 21  2  0
 21 22  1  0
 22 23  2  0
 23 24  1  0
 24 25  2  0
 25 26  1  0
 23 27  1  0
 22 28  1  0
 21 29  1  0
  4 30  1  0
  3 31  1  0
 19  2  1  0
 25 20  1  0
  9  5  1  0
M  END
>  <plip>  (1) 
-0.14285714285714285

>  <filename>  (1) 
[H][c]1[n][c]([H])[c]([N]2[C](=[O])[N]([H])[C]([H])([C]3([H])[O][C]([H])([H])[C]([H])([H])[C]3([H])[H])[C]2=[O])[c]([H])[c]1[H]

$$$$
