
     RDKit          3D

 39 41  0  0  0  0  0  0  0  0999 V2000
    6.7687   -2.9759   20.6833 C   0  0  0  0  0  0  0  0  0  0  0  0
    7.8504   -1.9266   21.0159 C   0  0  0  0  0  0  0  0  0  0  0  0
    8.6967   -2.4280   22.1933 C   0  0  0  0  0  0  0  0  0  0  0  0
    8.0664   -2.6176   23.0691 H   0  0  0  0  0  0  0  0  0  0  0  0
    9.4711   -1.7043   22.4651 H   0  0  0  0  0  0  0  0  0  0  0  0
    9.1958   -3.3698   21.9364 H   0  0  0  0  0  0  0  0  0  0  0  0
    7.1899   -0.5413   21.2768 C   0  0  0  0  0  0  0  0  0  0  0  0
    8.1200    0.4368   21.8366 N   0  0  0  0  0  0  0  0  0  0  0  0
    9.2034    0.9091   21.1871 C   0  0  0  0  0  0  0  0  0  0  0  0
    9.5370    0.5057   20.0794 O   0  0  0  0  0  0  0  0  0  0  0  0
   10.0019    1.9517   21.9028 C   0  0  0  0  0  0  0  0  0  0  0  0
   11.1972    2.5102   21.4727 C   0  0  0  0  0  0  0  0  0  0  0  0
   11.5446    3.4079   22.4381 N   0  0  0  0  0  0  0  0  0  0  0  0
   12.6389    4.2559   22.5857 C   0  0  0  0  0  0  0  0  0  0  0  0
   12.6807    5.0463   23.6897 C   0  0  0  0  0  0  0  0  0  0  0  0
   11.6879    5.0600   24.6601 N   0  0  0  0  0  0  0  0  0  0  0  0
   10.6604    4.2625   24.5075 C   0  0  0  0  0  0  0  0  0  0  0  0
   10.5369    3.3621   23.3983 C   0  0  0  0  0  0  0  0  0  0  0  0
    9.6055    2.4825   23.0966 N   0  0  0  0  0  0  0  0  0  0  0  0
    9.8714    4.2612   25.2589 H   0  0  0  0  0  0  0  0  0  0  0  0
   13.5151    5.7208   23.8701 H   0  0  0  0  0  0  0  0  0  0  0  0
   13.3873    4.2297   21.8058 H   0  0  0  0  0  0  0  0  0  0  0  0
   11.7826    2.3632   20.5780 H   0  0  0  0  0  0  0  0  0  0  0  0
    7.9435    0.8602   22.7303 H   0  0  0  0  0  0  0  0  0  0  0  0
    6.4911    0.0546   20.0571 C   0  0  0  0  0  0  0  0  0  0  0  0
    5.2753    0.7431   20.1796 C   0  0  0  0  0  0  0  0  0  0  0  0
    4.7209    1.3605   19.0546 C   0  0  0  0  0  0  0  0  0  0  0  0
    5.4011    1.2679   17.8366 C   0  0  0  0  0  0  0  0  0  0  0  0
    6.5530    0.6024   17.6898 N   0  0  0  0  0  0  0  0  0  0  0  0
    7.0824    0.0294   18.7816 C   0  0  0  0  0  0  0  0  0  0  0  0
    8.0594   -0.4223   18.6285 H   0  0  0  0  0  0  0  0  0  0  0  0
    5.0128    1.7484   16.9415 H   0  0  0  0  0  0  0  0  0  0  0  0
    3.7977    1.9258   19.1107 H   0  0  0  0  0  0  0  0  0  0  0  0
    4.7759    0.8115   21.1469 H   0  0  0  0  0  0  0  0  0  0  0  0
    6.4305   -0.7053   22.0540 H   0  0  0  0  0  0  0  0  0  0  0  0
    8.5420   -1.7731   20.1836 H   0  0  0  0  0  0  0  0  0  0  0  0
    6.2708   -2.7846   19.7253 H   0  0  0  0  0  0  0  0  0  0  0  0
    7.1882   -3.9895   20.6418 H   0  0  0  0  0  0  0  0  0  0  0  0
    5.9969   -2.9618   21.4646 H   0  0  0  0  0  0  0  0  0  0  0  0
  1  2  1  0
  2  3  1  0
  3  4  1  0
  3  5  1  0
  3  6  1  0
  2  7  1  0
  7  8  1  0
  8  9  1  0
  9 10  2  0
  9 11  1  0
 11 12  2  0
 12 13  1  0
 13 14  1  0
 14 15  2  0
 15 16  1  0
 16 17  2  0
 17 18  1  0
 18 19  2  0
 17 20  1  0
 15 21  1  0
 14 22  1  0
 12 23  1  0
  8 24  1  0
  7 25  1  0
 25 26  2  0
 26 27  1  0
 27 28  2  0
 28 29  1  0
 29 30  2  0
 30 31  1  0
 28 32  1  0
 27 33  1  0
 26 34  1  0
  7 35  1  0
  2 36  1  0
  1 37  1  0
  1 38  1  0
  1 39  1  0
 19 11  1  0
 30 25  1  0
 18 13  1  0
M  END
>  <plip>  (1) 
-0.03571428571428571

>  <filename>  (1) 
[H][c]1[n][c]([H])[c]([C]([H])([N]([H])[C](=[O])[c]2[n][c]3[c]([H])[n][c]([H])[c]([H])[n]3[c]2[H])[C]([H])([C]([H])([H])[H])[C]([H])([H])[H])[c]([H])[c]1[H]

$$$$
