
     RDKit          3D

 30 31  0  0  0  0  0  0  0  0999 V2000
    4.8014    1.3147   19.1025 C   0  0  0  0  0  0  0  0  0  0  0  0
    5.4008    1.2957   17.8360 C   0  0  0  0  0  0  0  0  0  0  0  0
    6.5657    0.6862   17.5681 N   0  0  0  0  0  0  0  0  0  0  0  0
    7.1667    0.0639   18.5900 C   0  0  0  0  0  0  0  0  0  0  0  0
    6.6442   -0.0111   19.8901 C   0  0  0  0  0  0  0  0  0  0  0  0
    7.4020   -0.6874   20.9939 C   0  0  0  0  0  0  0  0  0  0  0  0
    8.3425    0.2908   21.6953 C   0  0  0  0  0  0  0  0  0  0  0  0
    9.1043   -0.3786   22.8225 C   0  0  0  0  0  0  0  0  0  0  0  0
   10.2864    0.7357   23.6330 S   0  0  0  0  0  0  0  0  0  0  0  0
    9.1270    1.6118   24.6452 C   0  0  0  0  0  0  0  0  0  0  0  0
    8.5334    2.8000   24.2205 C   0  0  0  0  0  0  0  0  0  0  0  0
    7.6047    3.4134   25.0662 C   0  0  0  0  0  0  0  0  0  0  0  0
    7.2450    2.9304   26.2612 N   0  0  0  0  0  0  0  0  0  0  0  0
    7.8219    1.7842   26.6457 C   0  0  0  0  0  0  0  0  0  0  0  0
    8.7560    1.0857   25.8815 C   0  0  0  0  0  0  0  0  0  0  0  0
    9.1858    0.1576   26.2395 H   0  0  0  0  0  0  0  0  0  0  0  0
    7.5286    1.3931   27.6124 H   0  0  0  0  0  0  0  0  0  0  0  0
    7.1387    4.3414   24.7577 H   0  0  0  0  0  0  0  0  0  0  0  0
    8.7827    3.2338   23.2585 H   0  0  0  0  0  0  0  0  0  0  0  0
    9.6722   -1.2362   22.4472 H   0  0  0  0  0  0  0  0  0  0  0  0
    8.4093   -0.7570   23.5806 H   0  0  0  0  0  0  0  0  0  0  0  0
    9.0512    0.7092   20.9737 H   0  0  0  0  0  0  0  0  0  0  0  0
    7.7687    1.1420   22.0805 H   0  0  0  0  0  0  0  0  0  0  0  0
    7.9804   -1.5272   20.5858 H   0  0  0  0  0  0  0  0  0  0  0  0
    6.6898   -1.1020   21.7215 H   0  0  0  0  0  0  0  0  0  0  0  0
    5.4381    0.6493   20.1495 C   0  0  0  0  0  0  0  0  0  0  0  0
    5.0085    0.6320   21.1581 H   0  0  0  0  0  0  0  0  0  0  0  0
    8.1152   -0.4237   18.3693 H   0  0  0  0  0  0  0  0  0  0  0  0
    4.9103    1.7805   16.9962 H   0  0  0  0  0  0  0  0  0  0  0  0
    3.8686    1.8480   19.2599 H   0  0  0  0  0  0  0  0  0  0  0  0
  1  2  2  0
  2  3  1  0
  3  4  2  0
  4  5  1  0
  5  6  1  0
  6  7  1  0
  7  8  1  0
  8  9  1  0
  9 10  1  0
 10 11  2  0
 11 12  1  0
 12 13  2  0
 13 14  1  0
 14 15  2  0
 15 16  1  0
 14 17  1  0
 12 18  1  0
 11 19  1  0
  8 20  1  0
  8 21  1  0
  7 22  1  0
  7 23  1  0
  6 24  1  0
  6 25  1  0
  5 26  2  0
 26 27  1  0
  4 28  1  0
  2 29  1  0
  1 30  1  0
 26  1  1  0
 15 10  1  0
M  END
>  <plip>  (1) 
-0.03571428571428571

>  <filename>  (1) 
[H][c]1[n][c]([H])[c]([C]([H])([H])[C]([H])([H])[C]([H])([H])[S][c]2[c]([H])[c]([H])[n][c]([H])[c]2[H])[c]([H])[c]1[H]

$$$$
