
     RDKit          3D

 39 41  0  0  0  0  0  0  0  0999 V2000
    9.1730    5.7028   24.0318 C   0  0  0  0  0  0  0  0  0  0  0  0
    9.4335    4.3213   23.5414 C   0  0  0  0  0  0  0  0  0  0  0  0
   10.3756    3.5617   24.0113 N   0  0  0  0  0  0  0  0  0  0  0  0
   10.3405    2.3338   23.3994 C   0  0  0  0  0  0  0  0  0  0  0  0
    9.3789    2.1295   22.4643 C   0  0  0  0  0  0  0  0  0  0  0  0
    9.1513    0.9338   21.6153 C   0  0  0  0  0  0  0  0  0  0  0  0
    7.8765    0.2152   22.0504 N   0  0  0  0  0  4  0  0  0  0  0  0
    8.0320   -0.4715   23.4335 C   0  0  0  0  0  0  0  0  0  0  0  0
    8.4154   -1.9566   23.2830 C   0  0  0  0  0  0  0  0  0  0  0  0
    7.3183   -2.7634   22.5397 N   0  0  0  0  0  4  0  0  0  0  0  0
    6.5236   -1.8829   21.5414 C   0  0  0  0  0  0  0  0  0  0  0  0
    7.3885   -0.7524   20.9551 C   0  0  0  0  0  0  0  0  0  0  0  0
    6.6615    0.0299   19.9027 C   0  0  0  0  0  0  0  0  0  0  0  0
    5.4400    0.6699   20.1598 C   0  0  0  0  0  0  0  0  0  0  0  0
    4.8040    1.3172   19.1009 C   0  0  0  0  0  0  0  0  0  0  0  0
    5.3987    1.2984   17.8339 C   0  0  0  0  0  0  0  0  0  0  0  0
    6.5624    0.6866   17.5696 N   0  0  0  0  0  0  0  0  0  0  0  0
    7.1711    0.0834   18.5958 C   0  0  0  0  0  0  0  0  0  0  0  0
    8.1157   -0.4147   18.3691 H   0  0  0  0  0  0  0  0  0  0  0  0
    4.9160    1.7887   16.9915 H   0  0  0  0  0  0  0  0  0  0  0  0
    3.8730    1.8479   19.2529 H   0  0  0  0  0  0  0  0  0  0  0  0
    4.9989    0.6456   21.1617 H   0  0  0  0  0  0  0  0  0  0  0  0
    8.2829   -1.2164   20.5208 H   0  0  0  0  0  0  0  0  0  0  0  0
    6.1383   -2.4708   20.7102 H   0  0  0  0  0  0  0  0  0  0  0  0
    5.6800   -1.4063   22.0428 H   0  0  0  0  0  0  0  0  0  0  0  0
    6.6619   -3.1531   23.2624 H   0  0  0  0  0  0  0  0  0  0  0  0
    7.7546   -3.5407   21.9835 H   0  0  0  0  0  0  0  0  0  0  0  0
    8.5850   -2.3888   24.2679 H   0  0  0  0  0  0  0  0  0  0  0  0
    9.3489   -2.0015   22.7120 H   0  0  0  0  0  0  0  0  0  0  0  0
    8.8040    0.0533   24.0016 H   0  0  0  0  0  0  0  0  0  0  0  0
    7.0864   -0.3850   23.9788 H   0  0  0  0  0  0  0  0  0  0  0  0
    7.1732    1.0052   22.0851 H   0  0  0  0  0  0  0  0  0  0  0  0
   10.0034    0.2479   21.7020 H   0  0  0  0  0  0  0  0  0  0  0  0
    9.0548    1.1959   20.5540 H   0  0  0  0  0  0  0  0  0  0  0  0
    8.4381    3.5712   22.3245 S   0  0  0  0  0  0  0  0  0  0  0  0
   11.0719    1.5835   23.6858 H   0  0  0  0  0  0  0  0  0  0  0  0
    8.4308    5.6754   24.8348 H   0  0  0  0  0  0  0  0  0  0  0  0
    8.7883    6.3486   23.2428 H   0  0  0  0  0  0  0  0  0  0  0  0
   10.0886    6.1272   24.4455 H   0  0  0  0  0  0  0  0  0  0  0  0
  1  2  1  0
  2  3  2  0
  3  4  1  0
  4  5  2  0
  5  6  1  0
  6  7  1  0
  7  8  1  0
  8  9  1  0
  9 10  1  0
 10 11  1  0
 11 12  1  0
 12 13  1  0
 13 14  2  0
 14 15  1  0
 15 16  2  0
 16 17  1  0
 17 18  2  0
 18 19  1  0
 16 20  1  0
 15 21  1  0
 14 22  1  0
 12 23  1  0
 11 24  1  0
 11 25  1  0
 10 26  1  0
 10 27  1  0
  9 28  1  0
  9 29  1  0
  8 30  1  0
  8 31  1  0
  7 32  1  0
  6 33  1  0
  6 34  1  0
  5 35  1  0
  4 36  1  0
  1 37  1  0
  1 38  1  0
  1 39  1  0
 35  2  1  0
 12  7  1  0
 18 13  1  0
M  CHG  2   7   1  10   1
M  END
>  <plip>  (1) 
-0.07142857142857142

>  <filename>  (1) 
[H][c]1[n][c]([C]([H])([H])[H])[s][c]1[C]([H])([H])[N+]1([H])[C]([H])([H])[C]([H])([H])[N+]([H])([H])[C]([H])([H])[C]1([H])[c]1[c]([H])[n][c]([H])[c]([H])[c]1[H]

$$$$
