
     RDKit          3D

 34 36  0  0  0  0  0  0  0  0999 V2000
    4.9236    1.8136   16.9596 H   0  0  0  0  0  0  0  0  0  0  0  0
    5.3824    1.3177   17.8134 C   0  0  0  0  0  0  0  0  0  0  0  0
    6.5461    0.6955   17.5740 N   0  0  0  0  0  0  0  0  0  0  0  0
    7.1453    0.0843   18.6024 C   0  0  0  0  0  0  0  0  0  0  0  0
    8.1005   -0.3922   18.3813 H   0  0  0  0  0  0  0  0  0  0  0  0
    6.6213    0.0432   19.9046 C   0  0  0  0  0  0  0  0  0  0  0  0
    7.3601   -0.6952   21.0014 C   0  0  2  0  0  0  0  0  0  0  0  0
    6.9388   -0.3801   21.9721 H   0  0  0  0  0  0  0  0  0  0  0  0
    8.7836   -0.4745   20.9567 N   0  0  0  0  0  0  0  0  0  0  0  0
    9.2776    0.3771   21.1442 H   0  0  0  0  0  0  0  0  0  0  0  0
    9.5191   -1.6085   21.0825 C   0  0  0  0  0  0  0  0  0  0  0  0
   10.6990   -1.6881   21.2842 O   0  0  0  0  0  0  0  0  0  0  0  0
    8.6891   -2.6706   20.9431 O   0  0  0  0  0  0  0  0  0  0  0  0
    7.3107   -2.2512   20.8672 C   0  0  1  0  0  0  0  0  0  0  0  0
    6.9306   -2.5159   19.8728 H   0  0  0  0  0  0  0  0  0  0  0  0
    6.4974   -3.0097   21.9287 C   0  0  0  0  0  0  0  0  0  0  0  0
    5.5187   -2.5069   22.0163 H   0  0  0  0  0  0  0  0  0  0  0  0
    6.2170   -4.4728   21.5030 C   0  0  0  0  0  0  0  0  0  0  0  0
    7.1629   -4.9762   21.2591 H   0  0  0  0  0  0  0  0  0  0  0  0
    5.5902   -4.5026   20.6025 H   0  0  0  0  0  0  0  0  0  0  0  0
    5.5216   -5.2338   22.6351 C   0  0  0  0  0  0  0  0  0  0  0  0
    4.5067   -4.8227   22.7910 H   0  0  0  0  0  0  0  0  0  0  0  0
    5.4158   -6.2993   22.4082 H   0  0  0  0  0  0  0  0  0  0  0  0
    6.2629   -5.1664   23.8403 O   0  0  0  0  0  0  0  0  0  0  0  0
    6.4514   -3.8434   24.3129 C   0  0  0  0  0  0  0  0  0  0  0  0
    7.0099   -3.9366   25.2492 H   0  0  0  0  0  0  0  0  0  0  0  0
    5.4774   -3.3752   24.5422 H   0  0  0  0  0  0  0  0  0  0  0  0
    7.2054   -2.9917   23.2992 C   0  0  0  0  0  0  0  0  0  0  0  0
    8.2149   -3.4042   23.1783 H   0  0  0  0  0  0  0  0  0  0  0  0
    7.3178   -1.9666   23.6740 H   0  0  0  0  0  0  0  0  0  0  0  0
    5.3990    0.6912   20.1305 C   0  0  0  0  0  0  0  0  0  0  0  0
    4.9534    0.7000   21.1262 H   0  0  0  0  0  0  0  0  0  0  0  0
    4.7669    1.3411   19.0677 C   0  0  0  0  0  0  0  0  0  0  0  0
    3.8272    1.8703   19.1936 H   0  0  0  0  0  0  0  0  0  0  0  0
  1  2  1  0
  2  3  2  0
  3  4  1  0
  4  5  1  0
  4  6  2  0
  6  7  1  0
  7  8  1  1
  7  9  1  0
  9 10  1  0
  9 11  1  0
 11 12  2  0
 11 13  1  0
 13 14  1  0
 14 15  1  6
 14 16  1  0
 16 17  1  0
 16 18  1  0
 18 19  1  0
 18 20  1  0
 18 21  1  0
 21 22  1  0
 21 23  1  0
 21 24  1  0
 24 25  1  0
 25 26  1  0
 25 27  1  0
 25 28  1  0
 28 29  1  0
 28 30  1  0
  6 31  1  0
 31 32  1  0
 31 33  2  0
 33 34  1  0
 33  2  1  0
 14  7  1  0
 28 16  1  0
M  END
>  <plip>  (1) 
-0.03571428571428571

>  <filename>  (1) 
[H][c]1[n][c]([H])[c]([C@]2([H])[N]([H])[C](=[O])[O][C@@]2([H])[C]2([H])[C]([H])([H])[C]([H])([H])[O][C]([H])([H])[C]2([H])[H])[c]([H])[c]1[H]

$$$$
