
     RDKit          3D

 26 27  0  0  0  0  0  0  0  0999 V2000
    4.9181    1.7889   16.9865 H   0  0  0  0  0  0  0  0  0  0  0  0
    5.3967    1.2997   17.8312 C   0  0  0  0  0  0  0  0  0  0  0  0
    6.5660    0.6780   17.5759 N   0  0  0  0  0  0  0  0  0  0  0  0
    7.1699    0.0627   18.5968 C   0  0  0  0  0  0  0  0  0  0  0  0
    8.1139   -0.4344   18.3843 H   0  0  0  0  0  0  0  0  0  0  0  0
    6.6645    0.0313   19.9261 C   0  0  0  0  0  0  0  0  0  0  0  0
    7.3224   -0.7142   20.9152 N   0  0  0  0  0  0  0  0  0  0  0  0
    7.5808   -0.3042   22.0919 C   0  0  0  0  0  0  0  0  0  0  0  0
    7.3142    0.9413   22.5583 N   0  0  0  0  0  0  0  0  0  0  0  0
    7.1468    1.6390   21.8547 H   0  0  0  0  0  0  0  0  0  0  0  0
    7.5491    1.2212   23.4900 H   0  0  0  0  0  0  0  0  0  0  0  0
    8.2946   -1.2518   23.0410 C   0  0  0  0  0  0  0  0  0  0  0  0
    8.0002   -2.2526   22.7414 H   0  0  0  0  0  0  0  0  0  0  0  0
    7.9513   -1.0930   24.0630 H   0  0  0  0  0  0  0  0  0  0  0  0
    9.7483   -1.1624   22.9734 N   0  0  0  0  0  0  0  0  0  0  0  0
   10.5453   -0.2873   23.6600 C   0  0  0  0  0  0  0  0  0  0  0  0
   10.1400    0.3425   24.4437 H   0  0  0  0  0  0  0  0  0  0  0  0
   11.7820   -0.3113   23.2412 N   0  0  0  0  0  0  0  0  0  0  0  0
   11.7963   -1.2336   22.2191 C   0  0  0  0  0  0  0  0  0  0  0  0
   12.7143   -1.4790   21.6963 H   0  0  0  0  0  0  0  0  0  0  0  0
   10.5540   -1.7573   22.0201 C   0  0  0  0  0  0  0  0  0  0  0  0
   10.1757   -2.4613   21.2883 H   0  0  0  0  0  0  0  0  0  0  0  0
    5.4360    0.6603   20.1600 C   0  0  0  0  0  0  0  0  0  0  0  0
    5.0176    0.6146   21.1668 H   0  0  0  0  0  0  0  0  0  0  0  0
    4.7978    1.3095   19.0951 C   0  0  0  0  0  0  0  0  0  0  0  0
    3.8685    1.8436   19.2533 H   0  0  0  0  0  0  0  0  0  0  0  0
  1  2  1  0
  2  3  2  0
  3  4  1  0
  4  5  1  0
  4  6  2  0
  6  7  1  0
  7  8  2  3
  8  9  1  0
  9 10  1  0
  9 11  1  0
  8 12  1  0
 12 13  1  0
 12 14  1  0
 12 15  1  0
 15 16  1  0
 16 17  1  0
 16 18  2  0
 18 19  1  0
 19 20  1  0
 19 21  2  0
 21 22  1  0
  6 23  1  0
 23 24  1  0
 23 25  2  0
 25 26  1  0
 25  2  1  0
 21 15  1  0
M  END
>  <plip>  (1) 
-0.03571428571428571

>  <filename>  (1) 
[H][c]1[n][c]([H])[c]([N]=[C]([N]([H])[H])[C]([H])([H])[n]2[c]([H])[n][c]([H])[c]2[H])[c]([H])[c]1[H]

$$$$
