
     RDKit          3D

 35 36  0  0  0  0  0  0  0  0999 V2000
    8.0449   -0.1890   24.5330 O   0  0  0  0  0  0  0  0  0  0  0  0
    8.9300   -0.5108   23.7636 C   0  0  0  0  0  0  0  0  0  0  0  0
    8.8965   -1.8949   23.0981 C   0  0  0  0  0  0  0  0  0  0  0  0
    9.2354   -1.9597   21.7027 O   0  0  0  0  0  0  0  0  0  0  0  0
    8.5267   -1.2417   20.7705 N   0  0  0  0  0  0  0  0  0  0  0  0
    7.3907   -0.7051   21.0225 C   0  0  0  0  0  0  0  0  0  0  0  0
    6.6793   -0.0059   19.9376 C   0  0  0  0  0  0  0  0  0  0  0  0
    5.4563    0.6393   20.1763 C   0  0  0  0  0  0  0  0  0  0  0  0
    4.8218    1.2932   19.1209 C   0  0  0  0  0  0  0  0  0  0  0  0
    5.4197    1.2734   17.8587 C   0  0  0  0  0  0  0  0  0  0  0  0
    6.5802    0.6520   17.6105 N   0  0  0  0  0  0  0  0  0  0  0  0
    7.1927    0.0377   18.6286 C   0  0  0  0  0  0  0  0  0  0  0  0
    8.1360   -0.4354   18.3718 H   0  0  0  0  0  0  0  0  0  0  0  0
    4.9529    1.7754   17.0110 H   0  0  0  0  0  0  0  0  0  0  0  0
    3.8893    1.8282   19.2569 H   0  0  0  0  0  0  0  0  0  0  0  0
    5.0013    0.6443   21.1676 H   0  0  0  0  0  0  0  0  0  0  0  0
    6.9057   -0.7290   22.0020 H   0  0  0  0  0  0  0  0  0  0  0  0
    9.6204   -2.5761   23.5459 H   0  0  0  0  0  0  0  0  0  0  0  0
    7.8842   -2.2715   23.2677 H   0  0  0  0  0  0  0  0  0  0  0  0
    9.9915    0.2902   23.4562 N   0  0  0  0  0  0  0  0  0  0  0  0
   10.0039    1.6920   23.6206 C   0  0  0  0  0  0  0  0  0  0  0  0
   11.2105    2.3568   23.8640 C   0  0  0  0  0  0  0  0  0  0  0  0
   11.2197    3.7460   24.0083 C   0  0  0  0  0  0  0  0  0  0  0  0
   10.0272    4.4852   23.8902 C   0  0  0  0  0  0  0  0  0  0  0  0
   10.0210    5.9814   24.0986 C   0  0  0  0  0  0  0  0  0  0  0  0
    9.8188    6.3027   25.3936 F   0  0  0  0  0  0  0  0  0  0  0  0
   11.1873    6.5504   23.7370 F   0  0  0  0  0  0  0  0  0  0  0  0
    9.0486    6.5924   23.3949 F   0  0  0  0  0  0  0  0  0  0  0  0
    8.8270    3.8064   23.6251 C   0  0  0  0  0  0  0  0  0  0  0  0
    8.8140    2.4212   23.4945 C   0  0  0  0  0  0  0  0  0  0  0  0
    7.8910    1.8871   23.2989 H   0  0  0  0  0  0  0  0  0  0  0  0
    7.8873    4.3463   23.5254 H   0  0  0  0  0  0  0  0  0  0  0  0
   12.1615    4.2527   24.2010 H   0  0  0  0  0  0  0  0  0  0  0  0
   12.1314    1.7819   23.9453 H   0  0  0  0  0  0  0  0  0  0  0  0
   10.7840   -0.1381   23.0129 H   0  0  0  0  0  0  0  0  0  0  0  0
  1  2  2  0
  2  3  1  0
  3  4  1  0
  4  5  1  0
  5  6  2  3
  6  7  1  0
  7  8  2  0
  8  9  1  0
  9 10  2  0
 10 11  1  0
 11 12  2  0
 12 13  1  0
 10 14  1  0
  9 15  1  0
  8 16  1  0
  6 17  1  0
  3 18  1  0
  3 19  1  0
  2 20  1  0
 20 21  1  0
 21 22  2  0
 22 23  1  0
 23 24  2  0
 24 25  1  0
 25 26  1  0
 25 27  1  0
 25 28  1  0
 24 29  1  0
 29 30  2  0
 30 31  1  0
 29 32  1  0
 23 33  1  0
 22 34  1  0
 20 35  1  0
 12  7  1  0
 30 21  1  0
M  END
>  <plip>  (1) 
-0.07142857142857142

>  <filename>  (1) 
[H][C](=[N][O][C]([H])([H])[C](=[O])[N]([H])[c]1[c]([H])[c]([H])[c]([C]([F])([F])[F])[c]([H])[c]1[H])[c]1[c]([H])[n][c]([H])[c]([H])[c]1[H]

$$$$
