
     RDKit          3D

 32 33  0  0  0  0  0  0  0  0999 V2000
    5.9405   -6.0059   22.1296 O   0  0  0  0  0  0  0  0  0  0  0  0
    5.8717   -4.8555   22.4990 C   0  0  0  0  0  0  0  0  0  0  0  0
    5.2370   -3.8424   21.5214 C   0  0  0  0  0  0  0  0  0  0  0  0
    5.7004   -2.4633   21.4704 O   0  0  0  0  0  0  0  0  0  0  0  0
    7.0281   -2.2318   21.3501 C   0  0  0  0  0  0  0  0  0  0  0  0
    7.8779   -3.0726   21.4985 O   0  0  0  0  0  0  0  0  0  0  0  0
    7.3336   -0.7115   21.0636 C   0  0  0  0  0  0  0  0  0  0  0  0
    7.1069   -0.0436   22.2403 F   0  0  0  0  0  0  0  0  0  0  0  0
    8.6730   -0.6143   20.8160 F   0  0  0  0  0  0  0  0  0  0  0  0
    6.5812   -0.0056   19.9447 C   0  0  0  0  0  0  0  0  0  0  0  0
    5.3485    0.6373   20.1422 C   0  0  0  0  0  0  0  0  0  0  0  0
    4.7726    1.3006   19.0554 C   0  0  0  0  0  0  0  0  0  0  0  0
    5.4310    1.2790   17.8232 C   0  0  0  0  0  0  0  0  0  0  0  0
    6.5981    0.6503   17.6234 N   0  0  0  0  0  0  0  0  0  0  0  0
    7.1605    0.0412   18.6683 C   0  0  0  0  0  0  0  0  0  0  0  0
    8.1223   -0.4346   18.4838 H   0  0  0  0  0  0  0  0  0  0  0  0
    5.0173    1.7961   16.9571 H   0  0  0  0  0  0  0  0  0  0  0  0
    3.8445    1.8546   19.1511 H   0  0  0  0  0  0  0  0  0  0  0  0
    4.8654    0.6412   21.1205 H   0  0  0  0  0  0  0  0  0  0  0  0
    4.1860   -3.7508   21.7922 H   0  0  0  0  0  0  0  0  0  0  0  0
    5.3306   -4.3053   20.5351 H   0  0  0  0  0  0  0  0  0  0  0  0
    6.3058   -4.3966   23.8507 C   0  0  0  0  0  0  0  0  0  0  0  0
    5.6637   -3.3394   24.5221 C   0  0  0  0  0  0  0  0  0  0  0  0
    6.1334   -2.8822   25.7502 C   0  0  0  0  0  0  0  0  0  0  0  0
    7.2306   -3.5250   26.3167 C   0  0  0  0  0  0  0  0  0  0  0  0
    7.7039   -3.0948   27.4905 F   0  0  0  0  0  0  0  0  0  0  0  0
    7.8618   -4.6061   25.7179 C   0  0  0  0  0  0  0  0  0  0  0  0
    7.3735   -5.0395   24.4930 C   0  0  0  0  0  0  0  0  0  0  0  0
    7.9631   -6.0880   23.9129 F   0  0  0  0  0  0  0  0  0  0  0  0
    8.7075   -5.0903   26.1897 H   0  0  0  0  0  0  0  0  0  0  0  0
    5.6788   -2.0450   26.2650 H   0  0  0  0  0  0  0  0  0  0  0  0
    4.7749   -2.8757   24.0914 H   0  0  0  0  0  0  0  0  0  0  0  0
  1  2  2  0
  2  3  1  0
  3  4  1  0
  4  5  1  0
  5  6  2  0
  5  7  1  0
  7  8  1  0
  7  9  1  0
  7 10  1  0
 10 11  2  0
 11 12  1  0
 12 13  2  0
 13 14  1  0
 14 15  2  0
 15 16  1  0
 13 17  1  0
 12 18  1  0
 11 19  1  0
  3 20  1  0
  3 21  1  0
  2 22  1  0
 22 23  2  0
 23 24  1  0
 24 25  2  0
 25 26  1  0
 25 27  1  0
 27 28  2  0
 28 29  1  0
 27 30  1  0
 24 31  1  0
 23 32  1  0
 15 10  1  0
 28 22  1  0
M  END
>  <plip>  (1) 
-0.034482758620689655

>  <filename>  (1) 
[H][c]1[n][c]([H])[c]([C]([F])([F])[C](=[O])[O][C]([H])([H])[C](=[O])[c]2[c]([H])[c]([H])[c]([F])[c]([H])[c]2[F])[c]([H])[c]1[H]

$$$$
