
     RDKit          3D

 32 33  0  0  0  0  0  0  0  0999 V2000
    5.7355   -1.3563   21.9907 H   0  0  0  0  0  0  0  0  0  0  0  0
    6.8146   -1.3357   21.9704 C   0  0  0  0  0  0  0  0  0  0  0  0
    7.3774   -0.6964   20.9507 C   0  0  0  0  0  0  0  0  0  0  0  0
    8.7201   -0.7187   20.7763 F   0  0  0  0  0  0  0  0  0  0  0  0
    6.6714    0.0361   19.8979 C   0  0  0  0  0  0  0  0  0  0  0  0
    7.1898    0.0781   18.5939 C   0  0  0  0  0  0  0  0  0  0  0  0
    8.1288   -0.4219   18.3642 H   0  0  0  0  0  0  0  0  0  0  0  0
    6.5683    0.6715   17.5722 N   0  0  0  0  0  0  0  0  0  0  0  0
    5.4042    1.2897   17.8356 C   0  0  0  0  0  0  0  0  0  0  0  0
    4.9233    1.7798   16.9951 H   0  0  0  0  0  0  0  0  0  0  0  0
    4.8062    1.3116   19.0999 C   0  0  0  0  0  0  0  0  0  0  0  0
    3.8745    1.8403   19.2551 H   0  0  0  0  0  0  0  0  0  0  0  0
    5.4368    0.6582   20.1519 C   0  0  0  0  0  0  0  0  0  0  0  0
    5.0089    0.6426   21.1579 H   0  0  0  0  0  0  0  0  0  0  0  0
    7.5996   -2.0460   23.0195 C   0  0  0  0  0  0  0  0  0  0  0  0
    8.2862   -1.3353   23.5188 H   0  0  0  0  0  0  0  0  0  0  0  0
    8.2549   -2.7956   22.5435 H   0  0  0  0  0  0  0  0  0  0  0  0
    6.7155   -2.6708   23.9237 O   0  0  0  0  0  0  0  0  0  0  0  0
    7.4033   -3.2182   25.0364 C   0  0  0  0  0  0  0  0  0  0  0  0
    6.7561   -4.0155   25.4145 H   0  0  0  0  0  0  0  0  0  0  0  0
    8.3456   -3.6809   24.6984 H   0  0  0  0  0  0  0  0  0  0  0  0
    7.6787   -2.1819   26.1092 C   0  0  0  0  0  0  0  0  0  0  0  0
    8.9713   -1.6890   26.3352 C   0  0  0  0  0  0  0  0  0  0  0  0
    9.7826   -2.0675   25.7169 H   0  0  0  0  0  0  0  0  0  0  0  0
    9.2045   -0.7092   27.3074 C   0  0  0  0  0  0  0  0  0  0  0  0
   10.2156   -0.3532   27.5003 H   0  0  0  0  0  0  0  0  0  0  0  0
    8.1287   -0.1900   28.0344 C   0  0  0  0  0  0  0  0  0  0  0  0
    8.3100    0.5324   28.8276 H   0  0  0  0  0  0  0  0  0  0  0  0
    6.8320   -0.6777   27.8171 C   0  0  0  0  0  0  0  0  0  0  0  0
    5.9994   -0.3161   28.4168 H   0  0  0  0  0  0  0  0  0  0  0  0
    6.6091   -1.6622   26.8536 C   0  0  0  0  0  0  0  0  0  0  0  0
    5.6042   -2.0287   26.6518 H   0  0  0  0  0  0  0  0  0  0  0  0
  1  2  1  0
  2  3  2  3
  3  4  1  0
  3  5  1  0
  5  6  2  0
  6  7  1  0
  6  8  1  0
  8  9  2  0
  9 10  1  0
  9 11  1  0
 11 12  1  0
 11 13  2  0
 13 14  1  0
  2 15  1  0
 15 16  1  0
 15 17  1  0
 15 18  1  0
 18 19  1  0
 19 20  1  0
 19 21  1  0
 19 22  1  0
 22 23  2  0
 23 24  1  0
 23 25  1  0
 25 26  1  0
 25 27  2  0
 27 28  1  0
 27 29  1  0
 29 30  1  0
 29 31  2  0
 31 32  1  0
 13  5  1  0
 31 22  1  0
M  END
>  <plip>  (1) 
-0.03333333333333333

>  <filename>  (1) 
[H][C](=[C]([F])[c]1[c]([H])[n][c]([H])[c]([H])[c]1[H])[C]([H])([H])[O][C]([H])([H])[c]1[c]([H])[c]([H])[c]([H])[c]([H])[c]1[H]

$$$$
