
     RDKit          3D

 26 27  0  0  0  0  0  0  0  0999 V2000
    4.9892    1.7475   17.0192 H   0  0  0  0  0  0  0  0  0  0  0  0
    5.4550    1.2570   17.8712 C   0  0  0  0  0  0  0  0  0  0  0  0
    6.6139    0.6329   17.6225 N   0  0  0  0  0  0  0  0  0  0  0  0
    7.1911   -0.0175   18.6348 C   0  0  0  0  0  0  0  0  0  0  0  0
    8.1430   -0.4930   18.4022 H   0  0  0  0  0  0  0  0  0  0  0  0
    6.6520   -0.0922   19.9287 C   0  0  0  0  0  0  0  0  0  0  0  0
    7.4567   -0.8216   20.9310 C   0  0  0  0  0  0  0  0  0  0  0  0
    8.7074   -0.9957   20.7217 N   0  0  0  0  0  0  0  0  0  0  0  0
    9.5309   -1.4211   21.8238 C   0  0  2  0  0  0  0  0  0  0  0  0
    9.3203   -2.4833   21.9936 H   0  0  0  0  0  0  0  0  0  0  0  0
    9.3354   -0.7069   23.0891 N   0  0  0  0  0  0  0  0  0  0  0  0
   10.4966   -0.3173   23.4350 C   0  0  0  0  0  0  0  0  0  0  0  0
   10.8389    0.3701   24.5168 N   0  0  0  0  0  0  0  0  0  0  0  0
   10.1345    0.6752   25.1507 H   0  0  0  0  0  0  0  0  0  0  0  0
   11.7991    0.6365   24.5586 H   0  0  0  0  0  0  0  0  0  0  0  0
   11.5726   -0.5949   22.6802 O   0  0  0  0  0  0  0  0  0  0  0  0
   11.0306   -1.2241   21.5056 C   0  0  0  0  0  0  0  0  0  0  0  0
   11.5385   -2.1751   21.3546 H   0  0  0  0  0  0  0  0  0  0  0  0
   11.1724   -0.5657   20.6465 H   0  0  0  0  0  0  0  0  0  0  0  0
    6.8180   -1.3324   22.0230 N   0  0  0  0  0  0  0  0  0  0  0  0
    7.4218   -1.1993   22.8296 H   0  0  0  0  0  0  0  0  0  0  0  0
    5.8685   -1.0376   22.1500 H   0  0  0  0  0  0  0  0  0  0  0  0
    5.4529    0.6043   20.1853 C   0  0  0  0  0  0  0  0  0  0  0  0
    5.0139    0.6672   21.1878 H   0  0  0  0  0  0  0  0  0  0  0  0
    4.8462    1.2850   19.1311 C   0  0  0  0  0  0  0  0  0  0  0  0
    3.9137    1.8263   19.2637 H   0  0  0  0  0  0  0  0  0  0  0  0
  1  2  1  0
  2  3  2  0
  3  4  1  0
  4  5  1  0
  4  6  2  0
  6  7  1  0
  7  8  2  3
  8  9  1  0
  9 10  1  1
  9 11  1  0
 11 12  2  0
 12 13  1  0
 13 14  1  0
 13 15  1  0
 12 16  1  0
 16 17  1  0
 17 18  1  0
 17 19  1  0
  7 20  1  0
 20 21  1  0
 20 22  1  0
  6 23  1  0
 23 24  1  0
 23 25  2  0
 25 26  1  0
 25  2  1  0
 17  9  1  0
M  END
>  <plip>  (1) 
-0.06896551724137931

>  <filename>  (1) 
[H][c]1[n][c]([H])[c]([C](=[N][C@]2([H])[N]=[C]([N]([H])[H])[O][C]2([H])[H])[N]([H])[H])[c]([H])[c]1[H]

$$$$
