
     RDKit          3D

 43 44  0  0  0  0  0  0  0  0999 V2000
   10.4378    1.9169   23.3787 C   0  0  0  0  0  0  0  0  0  0  0  0
    9.1622    2.1957   22.6021 C   0  0  0  0  0  0  0  0  0  0  0  0
    8.4001    3.2713   22.8824 C   0  0  0  0  0  0  0  0  0  0  0  0
    8.3146    4.0017   24.1711 C   0  0  0  0  0  0  0  0  0  0  0  0
    8.1675    3.3370   25.3990 C   0  0  0  0  0  0  0  0  0  0  0  0
    8.3053    4.0274   26.6087 C   0  0  0  0  0  0  0  0  0  0  0  0
    8.5484    5.4028   26.6064 C   0  0  0  0  0  0  0  0  0  0  0  0
    8.5589    6.0999   25.3993 C   0  0  0  0  0  0  0  0  0  0  0  0
    8.3505    5.4203   24.1903 C   0  0  0  0  0  0  0  0  0  0  0  0
    8.1104    6.1878   22.9019 C   0  0  0  0  0  0  0  0  0  0  0  0
    6.9726    5.7777   22.2907 F   0  0  0  0  0  0  0  0  0  0  0  0
    9.1053    6.0263   22.0094 F   0  0  0  0  0  0  0  0  0  0  0  0
    7.9752    7.5071   23.1029 F   0  0  0  0  0  0  0  0  0  0  0  0
    8.6902    7.1804   25.4082 H   0  0  0  0  0  0  0  0  0  0  0  0
    8.6738    5.9408   27.5434 H   0  0  0  0  0  0  0  0  0  0  0  0
    8.2325    3.4978   27.5498 H   0  0  0  0  0  0  0  0  0  0  0  0
    7.9174    2.2771   25.3947 H   0  0  0  0  0  0  0  0  0  0  0  0
    7.8150    3.7184   22.0797 H   0  0  0  0  0  0  0  0  0  0  0  0
    8.8415    1.3401   21.3972 C   0  0  0  0  0  0  0  0  0  0  0  0
    7.9889    0.2167   21.8464 N   0  0  0  0  0  4  0  0  0  0  0  0
    7.5321   -0.7648   20.8298 C   0  0  1  0  0  0  0  0  0  0  0  0
    6.7905   -1.8652   21.5659 C   0  0  0  0  0  0  0  0  0  0  0  0
    7.4161   -2.2857   22.3600 H   0  0  0  0  0  0  0  0  0  0  0  0
    5.8683   -1.4890   22.0122 H   0  0  0  0  0  0  0  0  0  0  0  0
    6.5221   -2.6771   20.8891 H   0  0  0  0  0  0  0  0  0  0  0  0
    6.6975   -0.0509   19.7756 C   0  0  0  0  0  0  0  0  0  0  0  0
    5.4587    0.5617   20.0317 C   0  0  0  0  0  0  0  0  0  0  0  0
    4.8580    1.3161   19.0194 C   0  0  0  0  0  0  0  0  0  0  0  0
    5.4834    1.3912   17.7727 C   0  0  0  0  0  0  0  0  0  0  0  0
    6.6316    0.7608   17.4866 N   0  0  0  0  0  0  0  0  0  0  0  0
    7.2076    0.0673   18.4769 C   0  0  0  0  0  0  0  0  0  0  0  0
    8.1435   -0.4316   18.2206 H   0  0  0  0  0  0  0  0  0  0  0  0
    5.0389    1.9738   16.9669 H   0  0  0  0  0  0  0  0  0  0  0  0
    3.9343    1.8613   19.1870 H   0  0  0  0  0  0  0  0  0  0  0  0
    4.9588    0.4548   20.9965 H   0  0  0  0  0  0  0  0  0  0  0  0
    8.4060   -1.1963   20.3254 H   0  0  0  0  0  0  0  0  0  0  0  0
    7.1104    0.6581   22.2202 H   0  0  0  0  0  0  0  0  0  0  0  0
    8.4696   -0.2485   22.6481 H   0  0  0  0  0  0  0  0  0  0  0  0
    9.7715    0.9764   20.9399 H   0  0  0  0  0  0  0  0  0  0  0  0
    8.3070    1.9353   20.6414 H   0  0  0  0  0  0  0  0  0  0  0  0
   11.0506    2.8288   23.4382 H   0  0  0  0  0  0  0  0  0  0  0  0
   11.0515    1.1382   22.9058 H   0  0  0  0  0  0  0  0  0  0  0  0
   10.2298    1.6047   24.4109 H   0  0  0  0  0  0  0  0  0  0  0  0
  1  2  1  0
  2  3  2  3
  3  4  1  0
  4  5  2  0
  5  6  1  0
  6  7  2  0
  7  8  1  0
  8  9  2  0
  9 10  1  0
 10 11  1  0
 10 12  1  0
 10 13  1  0
  8 14  1  0
  7 15  1  0
  6 16  1  0
  5 17  1  0
  3 18  1  0
  2 19  1  0
 19 20  1  0
 20 21  1  0
 21 22  1  0
 22 23  1  0
 22 24  1  0
 22 25  1  0
 21 26  1  0
 26 27  2  0
 27 28  1  0
 28 29  2  0
 29 30  1  0
 30 31  2  0
 31 32  1  0
 29 33  1  0
 28 34  1  0
 27 35  1  0
 21 36  1  6
 20 37  1  0
 20 38  1  0
 19 39  1  0
 19 40  1  0
  1 41  1  0
  1 42  1  0
  1 43  1  0
  9  4  1  0
 31 26  1  0
M  CHG  1  20   1
M  END
>  <plip>  (1) 
-0.06666666666666667

>  <filename>  (1) 
[H][C](=[C]([C]([H])([H])[H])[C]([H])([H])[N+]([H])([H])[C@]([H])([c]1[c]([H])[n][c]([H])[c]([H])[c]1[H])[C]([H])([H])[H])[c]1[c]([H])[c]([H])[c]([H])[c]([H])[c]1[C]([F])([F])[F]

$$$$
