
     RDKit          3D

 35 36  0  0  0  0  0  0  0  0999 V2000
    5.0415    1.7840   17.0470 H   0  0  0  0  0  0  0  0  0  0  0  0
    5.4908    1.2676   17.8923 C   0  0  0  0  0  0  0  0  0  0  0  0
    6.6488    0.6326   17.6484 N   0  0  0  0  0  0  0  0  0  0  0  0
    7.2252   -0.0061   18.6750 C   0  0  0  0  0  0  0  0  0  0  0  0
    8.1598   -0.5346   18.4847 H   0  0  0  0  0  0  0  0  0  0  0  0
    6.6705   -0.0687   19.9661 C   0  0  0  0  0  0  0  0  0  0  0  0
    7.3014   -0.8082   21.0208 N   0  0  0  0  0  0  0  0  0  0  0  0
    6.5914   -1.8450   21.6031 C   0  0  0  0  0  0  0  0  0  0  0  0
    5.5312   -2.2482   21.2178 O   0  0  0  0  0  0  0  0  0  0  0  0
    7.3066   -2.3426   22.6721 O   0  0  0  0  0  0  0  0  0  0  0  0
    6.7432   -3.3299   23.4113 C   0  0  0  0  0  0  0  0  0  0  0  0
    5.7067   -3.8885   23.2084 O   0  0  0  0  0  0  0  0  0  0  0  0
    7.6156   -3.5929   24.3874 O   0  0  0  0  0  0  0  0  0  0  0  0
    7.2324   -4.6501   25.2970 C   0  0  0  0  0  0  0  0  0  0  0  0
    6.8845   -5.5177   24.7228 H   0  0  0  0  0  0  0  0  0  0  0  0
    8.1616   -4.9125   25.8089 H   0  0  0  0  0  0  0  0  0  0  0  0
    6.1903   -4.1818   26.2862 C   0  0  0  0  0  0  0  0  0  0  0  0
    6.5034   -3.1400   27.1752 C   0  0  0  0  0  0  0  0  0  0  0  0
    7.5094   -2.7218   27.1667 H   0  0  0  0  0  0  0  0  0  0  0  0
    5.5294   -2.6456   28.0525 C   0  0  0  0  0  0  0  0  0  0  0  0
    5.7564   -1.8418   28.7554 H   0  0  0  0  0  0  0  0  0  0  0  0
    4.2481   -3.2083   28.0596 C   0  0  0  0  0  0  0  0  0  0  0  0
    3.4960   -2.8029   28.7316 H   0  0  0  0  0  0  0  0  0  0  0  0
    3.9276   -4.2547   27.1875 C   0  0  0  0  0  0  0  0  0  0  0  0
    2.9318   -4.6976   27.2026 H   0  0  0  0  0  0  0  0  0  0  0  0
    4.8989   -4.7324   26.2988 C   0  0  0  0  0  0  0  0  0  0  0  0
    4.6434   -5.5142   25.5853 H   0  0  0  0  0  0  0  0  0  0  0  0
    8.7236   -0.5664   21.2886 C   0  0  0  0  0  0  0  0  0  0  0  0
    9.3554   -1.3625   20.8770 H   0  0  0  0  0  0  0  0  0  0  0  0
    8.9064   -0.4867   22.3630 H   0  0  0  0  0  0  0  0  0  0  0  0
    9.0075    0.3783   20.8189 H   0  0  0  0  0  0  0  0  0  0  0  0
    5.4564    0.5834   20.2014 C   0  0  0  0  0  0  0  0  0  0  0  0
    4.9968    0.5073   21.1886 H   0  0  0  0  0  0  0  0  0  0  0  0
    4.8618    1.2744   19.1444 C   0  0  0  0  0  0  0  0  0  0  0  0
    3.9266    1.8062   19.2831 H   0  0  0  0  0  0  0  0  0  0  0  0
  1  2  1  0
  2  3  2  0
  3  4  1  0
  4  5  1  0
  4  6  2  0
  6  7  1  0
  7  8  1  0
  8  9  2  0
  8 10  1  0
 10 11  1  0
 11 12  2  0
 11 13  1  0
 13 14  1  0
 14 15  1  0
 14 16  1  0
 14 17  1  0
 17 18  2  0
 18 19  1  0
 18 20  1  0
 20 21  1  0
 20 22  2  0
 22 23  1  0
 22 24  1  0
 24 25  1  0
 24 26  2  0
 26 27  1  0
  7 28  1  0
 28 29  1  0
 28 30  1  0
 28 31  1  0
  6 32  1  0
 32 33  1  0
 32 34  2  0
 34 35  1  0
 34  2  1  0
 26 17  1  0
M  END
>  <plip>  (1) 
-0.07142857142857142

>  <filename>  (1) 
[H][c]1[n][c]([H])[c]([N]([C](=[O])[O][C](=[O])[O][C]([H])([H])[c]2[c]([H])[c]([H])[c]([H])[c]([H])[c]2[H])[C]([H])([H])[H])[c]([H])[c]1[H]

$$$$
