
     RDKit          3D

 28 29  0  0  0  0  0  0  0  0999 V2000
    5.6494   -1.7074   21.7083 H   0  0  0  0  0  0  0  0  0  0  0  0
    6.7181   -1.5410   21.8064 C   0  0  0  0  0  0  0  0  0  0  0  0
    7.2254   -2.0231   22.6375 H   0  0  0  0  0  0  0  0  0  0  0  0
    7.3892   -0.7530   20.9548 C   0  0  0  0  0  0  0  0  0  0  0  0
    6.6679   -0.0006   19.8844 C   0  0  0  0  0  0  0  0  0  0  0  0
    7.1865    0.0583   18.5796 C   0  0  0  0  0  0  0  0  0  0  0  0
    8.1381   -0.4264   18.3563 H   0  0  0  0  0  0  0  0  0  0  0  0
    6.5865    0.6827   17.5562 N   0  0  0  0  0  0  0  0  0  0  0  0
    5.4273    1.3066   17.8115 C   0  0  0  0  0  0  0  0  0  0  0  0
    4.9564    1.8092   16.9690 H   0  0  0  0  0  0  0  0  0  0  0  0
    4.8198    1.3221   19.0707 C   0  0  0  0  0  0  0  0  0  0  0  0
    3.8796    1.8444   19.2063 H   0  0  0  0  0  0  0  0  0  0  0  0
    5.4456    0.6573   20.1252 C   0  0  0  0  0  0  0  0  0  0  0  0
    5.0208    0.6827   21.1302 H   0  0  0  0  0  0  0  0  0  0  0  0
    8.8640   -0.5497   21.1078 C   0  0  0  0  0  0  0  0  0  0  0  0
    9.4004    0.7469   20.9869 C   0  0  0  0  0  0  0  0  0  0  0  0
    8.7577    1.5700   20.6883 H   0  0  0  0  0  0  0  0  0  0  0  0
   10.6762    1.0532   21.2379 N   0  0  0  0  0  0  0  0  0  0  0  0
   11.4915    0.0539   21.5958 C   0  0  0  0  0  0  0  0  0  0  0  0
   12.5236    0.3271   21.8022 H   0  0  0  0  0  0  0  0  0  0  0  0
   11.0906   -1.2962   21.7052 C   0  0  0  0  0  0  0  0  0  0  0  0
   11.9337   -2.3077   22.0687 O   0  0  0  0  0  0  0  0  0  0  0  0
   13.3244   -2.0834   21.8339 C   0  0  0  0  0  0  0  0  0  0  0  0
   13.8783   -2.9858   22.0968 H   0  0  0  0  0  0  0  0  0  0  0  0
   13.6947   -1.2632   22.4587 H   0  0  0  0  0  0  0  0  0  0  0  0
   13.4961   -1.8388   20.7791 H   0  0  0  0  0  0  0  0  0  0  0  0
    9.7420   -1.5934   21.4643 C   0  0  0  0  0  0  0  0  0  0  0  0
    9.4136   -2.6288   21.5321 H   0  0  0  0  0  0  0  0  0  0  0  0
  1  2  1  0
  2  3  1  0
  2  4  2  3
  4  5  1  0
  5  6  2  0
  6  7  1  0
  6  8  1  0
  8  9  2  0
  9 10  1  0
  9 11  1  0
 11 12  1  0
 11 13  2  0
 13 14  1  0
  4 15  1  0
 15 16  2  0
 16 17  1  0
 16 18  1  0
 18 19  2  0
 19 20  1  0
 19 21  1  0
 21 22  1  0
 22 23  1  0
 23 24  1  0
 23 25  1  0
 23 26  1  0
 21 27  2  0
 27 28  1  0
 13  5  1  0
 27 15  1  0
M  END
>  <plip>  (1) 
-0.07142857142857142

>  <filename>  (1) 
[H][C]([H])=[C]([c]1[c]([H])[n][c]([H])[c]([H])[c]1[H])[c]1[c]([H])[n][c]([H])[c]([O][C]([H])([H])[H])[c]1[H]

$$$$
