
     RDKit          3D

 42 44  0  0  0  0  0  0  0  0999 V2000
    9.4565   -2.1616   24.6385 C   0  0  0  0  0  0  0  0  0  0  0  0
    9.2918   -1.5399   23.2470 C   0  0  0  0  0  0  0  0  0  0  0  0
    8.3139   -0.3583   23.2654 C   0  0  0  0  0  0  0  0  0  0  0  0
    8.0420    0.2340   21.8879 N   0  0  0  0  0  4  0  0  0  0  0  0
    7.3569   -0.7424   20.9749 C   0  0  0  0  0  0  0  0  0  0  0  0
    6.6282   -0.0079   19.8924 C   0  0  0  0  0  0  0  0  0  0  0  0
    5.4273    0.6639   20.1457 C   0  0  0  0  0  0  0  0  0  0  0  0
    4.7955    1.3267   19.0924 C   0  0  0  0  0  0  0  0  0  0  0  0
    5.3940    1.3082   17.8295 C   0  0  0  0  0  0  0  0  0  0  0  0
    6.5570    0.6907   17.5800 N   0  0  0  0  0  0  0  0  0  0  0  0
    7.1555    0.0606   18.5965 C   0  0  0  0  0  0  0  0  0  0  0  0
    8.1138   -0.4119   18.3644 H   0  0  0  0  0  0  0  0  0  0  0  0
    4.9274    1.8094   16.9811 H   0  0  0  0  0  0  0  0  0  0  0  0
    3.8618    1.8594   19.2311 H   0  0  0  0  0  0  0  0  0  0  0  0
    5.0101    0.6639   21.1538 H   0  0  0  0  0  0  0  0  0  0  0  0
    8.0973   -1.4253   20.5411 H   0  0  0  0  0  0  0  0  0  0  0  0
    6.6665   -1.3504   21.5700 H   0  0  0  0  0  0  0  0  0  0  0  0
    9.2935    0.8758   21.2576 C   0  0  0  0  0  0  0  0  0  0  0  0
    9.8496    1.9266   22.1478 C   0  0  0  0  0  0  0  0  0  0  0  0
   10.9637    1.9327   22.9547 C   0  0  0  0  0  0  0  0  0  0  0  0
   11.1473    3.1147   23.5945 N   0  0  0  0  0  0  0  0  0  0  0  0
   10.1439    3.8795   23.1934 C   0  0  0  0  0  0  0  0  0  0  0  0
    9.8387    5.2444   23.4932 C   0  0  0  0  0  0  0  0  0  0  0  0
    8.7551    5.8396   22.9061 C   0  0  0  0  0  0  0  0  0  0  0  0
    7.9024    5.0891   22.0182 C   0  0  0  0  0  0  0  0  0  0  0  0
    8.1658    3.7714   21.7879 C   0  0  0  0  0  0  0  0  0  0  0  0
    9.2945    3.1870   22.3243 N   0  0  0  0  0  0  0  0  0  0  0  0
    7.5594    3.0943   21.1993 H   0  0  0  0  0  0  0  0  0  0  0  0
    7.0658    5.5717   21.5221 H   0  0  0  0  0  0  0  0  0  0  0  0
    8.5141    6.8771   23.1208 H   0  0  0  0  0  0  0  0  0  0  0  0
   10.4987    5.7526   24.1877 H   0  0  0  0  0  0  0  0  0  0  0  0
   11.6427    1.1030   23.1242 H   0  0  0  0  0  0  0  0  0  0  0  0
   10.0436    0.1028   21.0823 H   0  0  0  0  0  0  0  0  0  0  0  0
    9.0104    1.2568   20.2726 H   0  0  0  0  0  0  0  0  0  0  0  0
    7.4009    1.0524   21.9928 H   0  0  0  0  0  0  0  0  0  0  0  0
    8.6904    0.4422   23.9122 H   0  0  0  0  0  0  0  0  0  0  0  0
    7.3626   -0.6944   23.7086 H   0  0  0  0  0  0  0  0  0  0  0  0
    8.9261   -2.2911   22.5322 H   0  0  0  0  0  0  0  0  0  0  0  0
   10.2665   -1.2011   22.8690 H   0  0  0  0  0  0  0  0  0  0  0  0
   10.1605   -3.0034   24.6280 H   0  0  0  0  0  0  0  0  0  0  0  0
    8.4997   -2.5405   25.0251 H   0  0  0  0  0  0  0  0  0  0  0  0
    9.8348   -1.4260   25.3620 H   0  0  0  0  0  0  0  0  0  0  0  0
  1  2  1  0
  2  3  1  0
  3  4  1  0
  4  5  1  0
  5  6  1  0
  6  7  2  0
  7  8  1  0
  8  9  2  0
  9 10  1  0
 10 11  2  0
 11 12  1  0
  9 13  1  0
  8 14  1  0
  7 15  1  0
  5 16  1  0
  5 17  1  0
  4 18  1  0
 18 19  1  0
 19 20  2  0
 20 21  1  0
 21 22  2  0
 22 23  1  0
 23 24  2  0
 24 25  1  0
 25 26  2  0
 26 27  1  0
 26 28  1  0
 25 29  1  0
 24 30  1  0
 23 31  1  0
 20 32  1  0
 18 33  1  0
 18 34  1  0
  4 35  1  0
  3 36  1  0
  3 37  1  0
  2 38  1  0
  2 39  1  0
  1 40  1  0
  1 41  1  0
  1 42  1  0
 11  6  1  0
 27 19  1  0
 27 22  1  0
M  CHG  1   4   1
M  END
>  <plip>  (1) 
-0.0

>  <filename>  (1) 
[H][c]1[n][c]([H])[c]([C]([H])([H])[N+]([H])([C]([H])([H])[c]2[c]([H])[n][c]3[c]([H])[c]([H])[c]([H])[c]([H])[n]23)[C]([H])([H])[C]([H])([H])[C]([H])([H])[H])[c]([H])[c]1[H]

$$$$
