
     RDKit          3D

 43 44  0  0  0  0  0  0  0  0999 V2000
    9.3867   -1.9075   20.7196 C   0  0  0  0  0  0  0  0  0  0  0  0
    8.6722   -0.7364   21.3884 C   0  0  0  0  0  0  0  0  0  0  0  0
    9.3423    0.6091   21.0655 C   0  0  0  0  0  0  0  0  0  0  0  0
    9.2800    0.8495   19.9994 H   0  0  0  0  0  0  0  0  0  0  0  0
    8.8810    1.4334   21.6216 H   0  0  0  0  0  0  0  0  0  0  0  0
   10.4069    0.5890   21.3295 H   0  0  0  0  0  0  0  0  0  0  0  0
    7.1186   -0.6904   21.1895 C   0  0  0  0  0  0  0  0  0  0  0  0
    6.5346    0.0107   19.9805 C   0  0  0  0  0  0  0  0  0  0  0  0
    5.3244    0.7131   20.1159 C   0  0  0  0  0  0  0  0  0  0  0  0
    4.7857    1.3648   19.0061 C   0  0  0  0  0  0  0  0  0  0  0  0
    5.4645    1.2773   17.7855 C   0  0  0  0  0  0  0  0  0  0  0  0
    6.5911    0.5731   17.6152 N   0  0  0  0  0  0  0  0  0  0  0  0
    7.0932   -0.0532   18.6945 C   0  0  0  0  0  0  0  0  0  0  0  0
    7.9948   -0.6386   18.5085 H   0  0  0  0  0  0  0  0  0  0  0  0
    5.0796    1.7867   16.9054 H   0  0  0  0  0  0  0  0  0  0  0  0
    3.8693    1.9410   19.0768 H   0  0  0  0  0  0  0  0  0  0  0  0
    4.8156    0.7315   21.0833 H   0  0  0  0  0  0  0  0  0  0  0  0
    6.4890   -2.0207   21.3875 N   0  0  0  0  0  0  0  0  0  0  0  0
    6.0889   -2.8770   20.2698 C   0  0  0  0  0  0  0  0  0  0  0  0
    5.0204   -3.1125   20.3251 H   0  0  0  0  0  0  0  0  0  0  0  0
    6.2462   -2.3532   19.3259 H   0  0  0  0  0  0  0  0  0  0  0  0
    6.6446   -3.8306   20.2498 H   0  0  0  0  0  0  0  0  0  0  0  0
    6.3814   -2.4190   22.6989 C   0  0  0  0  0  0  0  0  0  0  0  0
    6.8015   -1.7533   23.6395 O   0  0  0  0  0  0  0  0  0  0  0  0
    5.7250   -3.6136   22.8700 N   0  0  0  0  0  0  0  0  0  0  0  0
    5.2090   -4.0748   24.0781 C   0  0  0  0  0  0  0  0  0  0  0  0
    4.7462   -3.1736   25.0438 C   0  0  0  0  0  0  0  0  0  0  0  0
    4.1609   -3.6343   26.2212 C   0  0  0  0  0  0  0  0  0  0  0  0
    4.0843   -5.0103   26.4322 C   0  0  0  0  0  0  0  0  0  0  0  0
    3.5362   -5.4589   27.5709 F   0  0  0  0  0  0  0  0  0  0  0  0
    4.5446   -5.9358   25.4982 C   0  0  0  0  0  0  0  0  0  0  0  0
    5.0964   -5.4699   24.2994 C   0  0  0  0  0  0  0  0  0  0  0  0
    5.5479   -6.3770   23.2695 C   0  0  0  0  0  0  0  0  0  0  0  0
    5.9345   -6.9967   22.3693 N   0  0  0  0  0  0  0  0  0  0  0  0
    4.4724   -6.9966   25.7174 H   0  0  0  0  0  0  0  0  0  0  0  0
    3.7739   -2.9555   26.9785 H   0  0  0  0  0  0  0  0  0  0  0  0
    4.8660   -2.1154   24.8533 H   0  0  0  0  0  0  0  0  0  0  0  0
    5.8132   -4.2903   22.1344 H   0  0  0  0  0  0  0  0  0  0  0  0
    6.7881   -0.0710   22.0387 H   0  0  0  0  0  0  0  0  0  0  0  0
    8.7714   -0.8986   22.4685 H   0  0  0  0  0  0  0  0  0  0  0  0
    9.3502   -1.8200   19.6306 H   0  0  0  0  0  0  0  0  0  0  0  0
    8.9412   -2.8641   21.0119 H   0  0  0  0  0  0  0  0  0  0  0  0
   10.4354   -1.9279   21.0357 H   0  0  0  0  0  0  0  0  0  0  0  0
  1  2  1  0
  2  3  1  0
  3  4  1  0
  3  5  1  0
  3  6  1  0
  2  7  1  0
  7  8  1  0
  8  9  2  0
  9 10  1  0
 10 11  2  0
 11 12  1  0
 12 13  2  0
 13 14  1  0
 11 15  1  0
 10 16  1  0
  9 17  1  0
  7 18  1  0
 18 19  1  0
 19 20  1  0
 19 21  1  0
 19 22  1  0
 18 23  1  0
 23 24  2  0
 23 25  1  0
 25 26  1  0
 26 27  2  0
 27 28  1  0
 28 29  2  0
 29 30  1  0
 29 31  1  0
 31 32  2  0
 32 33  1  0
 33 34  3  0
 31 35  1  0
 28 36  1  0
 27 37  1  0
 25 38  1  0
  7 39  1  0
  2 40  1  0
  1 41  1  0
  1 42  1  0
  1 43  1  0
 13  8  1  0
 32 26  1  0
M  END
>  <plip>  (1) 
-0.06896551724137931

>  <filename>  (1) 
[H][c]1[n][c]([H])[c]([C]([H])([N]([C](=[O])[N]([H])[c]2[c]([H])[c]([H])[c]([F])[c]([H])[c]2[C]#[N])[C]([H])([H])[H])[C]([H])([C]([H])([H])[H])[C]([H])([H])[H])[c]([H])[c]1[H]

$$$$
