
     RDKit          3D

 33 35  0  0  0  0  0  0  0  0999 V2000
    4.9517    1.7823   17.0366 H   0  0  0  0  0  0  0  0  0  0  0  0
    5.4374    1.2668   17.8623 C   0  0  0  0  0  0  0  0  0  0  0  0
    6.5994    0.6510   17.5782 N   0  0  0  0  0  0  0  0  0  0  0  0
    7.2408    0.0332   18.5781 C   0  0  0  0  0  0  0  0  0  0  0  0
    8.2024   -0.4283   18.3574 H   0  0  0  0  0  0  0  0  0  0  0  0
    6.7453   -0.0354   19.9044 C   0  0  0  0  0  0  0  0  0  0  0  0
    7.4209   -0.7361   20.9339 N   0  0  0  0  0  0  0  0  0  0  0  0
    8.7889   -0.7567   21.1216 C   0  0  0  0  0  0  0  0  0  0  0  0
    9.6373   -0.2653   20.4159 O   0  0  0  0  0  0  0  0  0  0  0  0
    9.0238   -1.4979   22.2636 N   0  0  0  0  0  0  0  0  0  0  0  0
   10.2930   -1.9859   22.5306 C   0  0  0  0  0  0  0  0  0  0  0  0
   10.4295   -3.1483   22.8619 O   0  0  0  0  0  0  0  0  0  0  0  0
   11.4413   -1.0341   22.4459 C   0  0  0  0  0  0  0  0  0  0  0  0
   12.7128   -1.5767   22.2065 C   0  0  0  0  0  0  0  0  0  0  0  0
   12.8189   -2.6424   22.0390 H   0  0  0  0  0  0  0  0  0  0  0  0
   13.8519   -0.7858   22.2763 C   0  0  0  0  0  0  0  0  0  0  0  0
   14.8420   -1.2014   22.1521 H   0  0  0  0  0  0  0  0  0  0  0  0
   13.7035    0.5625   22.5810 C   0  0  0  0  0  0  0  0  0  0  0  0
   14.7977    1.3212   22.7056 F   0  0  0  0  0  0  0  0  0  0  0  0
   12.4578    1.1434   22.7937 C   0  0  0  0  0  0  0  0  0  0  0  0
   12.4037    2.2018   23.0186 H   0  0  0  0  0  0  0  0  0  0  0  0
   11.3237    0.3364   22.7400 C   0  0  0  0  0  0  0  0  0  0  0  0
   10.3540    0.7797   22.9490 H   0  0  0  0  0  0  0  0  0  0  0  0
    7.8321   -2.2073   22.7200 C   0  0  0  0  0  0  0  0  0  0  0  0
    7.7446   -2.1168   23.8043 H   0  0  0  0  0  0  0  0  0  0  0  0
    7.9045   -3.2716   22.4754 H   0  0  0  0  0  0  0  0  0  0  0  0
    6.7130   -1.4758   21.9732 C   0  0  0  0  0  0  0  0  0  0  0  0
    6.1981   -0.7874   22.6542 H   0  0  0  0  0  0  0  0  0  0  0  0
    5.9850   -2.1551   21.5189 H   0  0  0  0  0  0  0  0  0  0  0  0
    5.5206    0.5967   20.1735 C   0  0  0  0  0  0  0  0  0  0  0  0
    5.1045    0.5712   21.1798 H   0  0  0  0  0  0  0  0  0  0  0  0
    4.8615    1.2653   19.1373 C   0  0  0  0  0  0  0  0  0  0  0  0
    3.9229    1.7870   19.3119 H   0  0  0  0  0  0  0  0  0  0  0  0
  1  2  1  0
  2  3  2  0
  3  4  1  0
  4  5  1  0
  4  6  2  0
  6  7  1  0
  7  8  1  0
  8  9  2  0
  8 10  1  0
 10 11  1  0
 11 12  2  0
 11 13  1  0
 13 14  2  0
 14 15  1  0
 14 16  1  0
 16 17  1  0
 16 18  2  0
 18 19  1  0
 18 20  1  0
 20 21  1  0
 20 22  2  0
 22 23  1  0
 10 24  1  0
 24 25  1  0
 24 26  1  0
 24 27  1  0
 27 28  1  0
 27 29  1  0
  6 30  1  0
 30 31  1  0
 30 32  2  0
 32 33  1  0
 32  2  1  0
 27  7  1  0
 22 13  1  0
M  END
>  <plip>  (1) 
-0.1

>  <filename>  (1) 
[H][c]1[n][c]([H])[c]([N]2[C](=[O])[N]([C](=[O])[c]3[c]([H])[c]([H])[c]([F])[c]([H])[c]3[H])[C]([H])([H])[C]2([H])[H])[c]([H])[c]1[H]

$$$$
