
     RDKit          3D

 30 33  0  0  0  0  0  0  0  0999 V2000
    4.8030    1.2956   19.1037 C   0  0  0  0  0  0  0  0  0  0  0  0
    5.4068    1.2904   17.8427 C   0  0  0  0  0  0  0  0  0  0  0  0
    6.5767    0.6754   17.5966 N   0  0  0  0  0  0  0  0  0  0  0  0
    7.1780    0.0421   18.6045 C   0  0  0  0  0  0  0  0  0  0  0  0
    6.6454   -0.0149   19.9019 C   0  0  0  0  0  0  0  0  0  0  0  0
    7.3536   -0.6953   20.9294 N   0  0  0  0  0  0  0  0  0  0  0  0
    7.8550   -1.9247   20.7155 N   0  0  0  0  0  0  0  0  0  0  0  0
    8.3644   -2.3011   21.8785 C   0  0  0  0  0  0  0  0  0  0  0  0
    8.2182   -1.3116   22.8572 C   0  0  0  0  0  0  0  0  0  0  0  0
    7.5781   -0.2638   22.2177 C   0  0  0  0  0  0  0  0  0  0  0  0
    7.3102    1.0636   22.7341 C   0  0  0  0  0  0  0  0  0  0  0  0
    6.8771    1.3668   24.0286 C   0  0  0  0  0  0  0  0  0  0  0  0
    6.4878    0.4967   25.0832 C   0  0  0  0  0  0  0  0  0  0  0  0
    6.0937    1.0297   26.2986 C   0  0  0  0  0  0  0  0  0  0  0  0
    6.0594    2.4542   26.4911 C   0  0  0  0  0  0  0  0  0  0  0  0
    6.4091    3.3261   25.4960 C   0  0  0  0  0  0  0  0  0  0  0  0
    6.8312    2.7926   24.2186 C   0  0  0  0  0  0  0  0  0  0  0  0
    7.1935    3.5403   23.1780 N   0  0  0  0  0  0  0  0  0  0  0  0
    7.6352    2.5585   21.9275 S   0  0  0  0  0  0  0  0  0  0  0  0
    6.3845    4.4072   25.6143 H   0  0  0  0  0  0  0  0  0  0  0  0
    5.7388    2.8336   27.4589 H   0  0  0  0  0  0  0  0  0  0  0  0
    5.8030    0.3653   27.1070 H   0  0  0  0  0  0  0  0  0  0  0  0
    6.5062   -0.5743   24.8981 H   0  0  0  0  0  0  0  0  0  0  0  0
    8.5859   -1.3199   23.8715 H   0  0  0  0  0  0  0  0  0  0  0  0
    8.8384   -3.2685   21.9786 H   0  0  0  0  0  0  0  0  0  0  0  0
    5.4222    0.6190   20.1561 C   0  0  0  0  0  0  0  0  0  0  0  0
    4.9909    0.6162   21.1607 H   0  0  0  0  0  0  0  0  0  0  0  0
    8.1264   -0.4389   18.3806 H   0  0  0  0  0  0  0  0  0  0  0  0
    4.9222    1.7796   16.9974 H   0  0  0  0  0  0  0  0  0  0  0  0
    3.8777    1.8417   19.2631 H   0  0  0  0  0  0  0  0  0  0  0  0
  1  2  2  0
  2  3  1  0
  3  4  2  0
  4  5  1  0
  5  6  1  0
  6  7  1  0
  7  8  2  0
  8  9  1  0
  9 10  2  0
 10 11  1  0
 11 12  2  0
 12 13  1  0
 13 14  2  0
 14 15  1  0
 15 16  2  0
 16 17  1  0
 17 18  2  0
 18 19  1  0
 16 20  1  0
 15 21  1  0
 14 22  1  0
 13 23  1  0
  9 24  1  0
  8 25  1  0
  5 26  2  0
 26 27  1  0
  4 28  1  0
  2 29  1  0
  1 30  1  0
 26  1  1  0
 10  6  1  0
 19 11  1  0
 17 12  1  0
M  END
>  <plip>  (1) 
-0.0

>  <filename>  (1) 
[H][c]1[n][c]([H])[c](-[n]2[n][c]([H])[c]([H])[c]2-[c]2[s][n][c]3[c]([H])[c]([H])[c]([H])[c]([H])[c]23)[c]([H])[c]1[H]

$$$$
