
     RDKit          3D

 37 40  0  0  0  0  0  0  0  0999 V2000
   10.4859   -0.8733   22.1508 H   0  0  0  0  0  0  0  0  0  0  0  0
    9.4375   -1.1039   22.0380 C   0  0  0  0  0  0  0  0  0  0  0  0
    8.7541   -1.9193   22.8683 C   0  0  0  0  0  0  0  0  0  0  0  0
    9.3946   -2.7191   23.9422 C   0  0  0  0  0  0  0  0  0  0  0  0
   10.4843   -3.5680   23.7208 C   0  0  0  0  0  0  0  0  0  0  0  0
   10.9963   -3.5235   22.7625 H   0  0  0  0  0  0  0  0  0  0  0  0
   10.8692   -4.5244   24.6887 C   0  0  0  0  0  0  0  0  0  0  0  0
   11.6804   -5.2153   24.4894 H   0  0  0  0  0  0  0  0  0  0  0  0
   10.2107   -4.6355   25.9097 C   0  0  0  0  0  0  0  0  0  0  0  0
   10.4469   -5.4383   26.6026 H   0  0  0  0  0  0  0  0  0  0  0  0
    9.2137   -3.6935   26.1925 C   0  0  0  0  0  0  0  0  0  0  0  0
    8.8122   -2.7274   25.2419 C   0  0  0  0  0  0  0  0  0  0  0  0
    7.8045   -1.9270   25.8784 C   0  0  0  0  0  0  0  0  0  0  0  0
    7.2688   -1.1074   25.4157 H   0  0  0  0  0  0  0  0  0  0  0  0
    7.6375   -2.4063   27.1387 C   0  0  0  0  0  0  0  0  0  0  0  0
    6.9820   -2.0433   27.9169 H   0  0  0  0  0  0  0  0  0  0  0  0
    8.4743   -3.4885   27.3338 N   0  0  0  0  0  0  0  0  0  0  0  0
    8.6611   -3.9616   28.2059 H   0  0  0  0  0  0  0  0  0  0  0  0
    7.2436   -1.9590   22.7280 C   0  0  0  0  0  0  0  0  0  0  0  0
    6.8209   -1.0949   23.2631 H   0  0  0  0  0  0  0  0  0  0  0  0
    6.8271   -2.8615   23.1823 H   0  0  0  0  0  0  0  0  0  0  0  0
    6.8301   -1.8327   21.2669 C   0  0  0  0  0  0  0  0  0  0  0  0
    5.7419   -1.7245   21.1920 H   0  0  0  0  0  0  0  0  0  0  0  0
    7.1086   -2.7237   20.6774 H   0  0  0  0  0  0  0  0  0  0  0  0
    7.4513   -0.6325   20.6988 N   0  0  0  0  0  0  0  0  0  0  0  0
    6.7158    0.0658   19.6861 C   0  0  0  0  0  0  0  0  0  0  0  0
    7.1424    0.1164   18.3409 C   0  0  0  0  0  0  0  0  0  0  0  0
    8.0709   -0.3731   18.0634 H   0  0  0  0  0  0  0  0  0  0  0  0
    6.4744    0.7369   17.3605 N   0  0  0  0  0  0  0  0  0  0  0  0
    5.3320    1.3624   17.6922 C   0  0  0  0  0  0  0  0  0  0  0  0
    4.8243    1.8861   16.8866 H   0  0  0  0  0  0  0  0  0  0  0  0
    4.8003    1.3583   18.9874 C   0  0  0  0  0  0  0  0  0  0  0  0
    3.8620    1.8679   19.1887 H   0  0  0  0  0  0  0  0  0  0  0  0
    5.4958    0.6810   19.9981 C   0  0  0  0  0  0  0  0  0  0  0  0
    5.1232    0.6236   21.0214 H   0  0  0  0  0  0  0  0  0  0  0  0
    8.8002   -0.3219   20.9610 C   0  0  0  0  0  0  0  0  0  0  0  0
    9.4110    0.5388   20.3474 O   0  0  0  0  0  0  0  0  0  0  0  0
  1  2  1  0
  2  3  2  0
  3  4  1  0
  4  5  2  0
  5  6  1  0
  5  7  1  0
  7  8  1  0
  7  9  2  0
  9 10  1  0
  9 11  1  0
 11 12  2  0
 12 13  1  0
 13 14  1  0
 13 15  2  0
 15 16  1  0
 15 17  1  0
 17 18  1  0
  3 19  1  0
 19 20  1  0
 19 21  1  0
 19 22  1  0
 22 23  1  0
 22 24  1  0
 22 25  1  0
 25 26  1  0
 26 27  2  0
 27 28  1  0
 27 29  1  0
 29 30  2  0
 30 31  1  0
 30 32  1  0
 32 33  1  0
 32 34  2  0
 34 35  1  0
 25 36  1  0
 36 37  2  0
 36  2  1  0
 12  4  1  0
 34 26  1  0
 17 11  1  0
M  END
>  <plip>  (1) 
-0.14285714285714285

>  <filename>  (1) 
[H][C]1=[C]([c]2[c]([H])[c]([H])[c]([H])[c]3[c]2[c]([H])[c]([H])[n]3[H])[C]([H])([H])[C]([H])([H])[N]([c]2[c]([H])[n][c]([H])[c]([H])[c]2[H])[C]1=[O]

$$$$
