
     RDKit          3D

 30 32  0  0  0  0  0  0  0  0999 V2000
    4.9231    1.8137   16.9648 H   0  0  0  0  0  0  0  0  0  0  0  0
    5.3873    1.3042   17.8084 C   0  0  0  0  0  0  0  0  0  0  0  0
    6.5474    0.6777   17.5533 N   0  0  0  0  0  0  0  0  0  0  0  0
    7.1484    0.0637   18.5794 C   0  0  0  0  0  0  0  0  0  0  0  0
    8.1061   -0.4090   18.3542 H   0  0  0  0  0  0  0  0  0  0  0  0
    6.6405    0.0202   19.8927 C   0  0  0  0  0  0  0  0  0  0  0  0
    7.3577   -0.6619   20.9662 C   0  0  0  0  0  0  0  0  0  0  0  0
    7.5097   -0.2713   22.2598 C   0  0  0  0  0  0  0  0  0  0  0  0
    7.1536    0.9805   22.7872 N   0  0  0  0  0  0  0  0  0  0  0  0
    7.4573    2.1947   22.1706 C   0  0  0  0  0  0  0  0  0  0  0  0
    8.0802    2.3336   21.1400 O   0  0  0  0  0  0  0  0  0  0  0  0
    6.9105    3.2976   23.0543 C   0  0  0  0  0  0  0  0  0  0  0  0
    6.2856    3.9537   22.4401 H   0  0  0  0  0  0  0  0  0  0  0  0
    7.7704    3.8892   23.3878 H   0  0  0  0  0  0  0  0  0  0  0  0
    6.1572    2.5962   24.2018 C   0  0  0  0  0  0  0  0  0  0  0  0
    5.0742    2.7230   24.1023 H   0  0  0  0  0  0  0  0  0  0  0  0
    6.4215    2.9940   25.1845 H   0  0  0  0  0  0  0  0  0  0  0  0
    6.5311    1.0993   24.1013 C   0  0  0  0  0  0  0  0  0  0  0  0
    5.6535    0.4417   24.1606 H   0  0  0  0  0  0  0  0  0  0  0  0
    7.2345    0.7488   24.8654 H   0  0  0  0  0  0  0  0  0  0  0  0
    8.1379   -1.3939   23.0305 C   0  0  0  0  0  0  0  0  0  0  0  0
    8.4376   -1.5015   24.1924 O   0  0  0  0  0  0  0  0  0  0  0  0
    8.3672   -2.3942   22.1403 O   0  0  0  0  0  0  0  0  0  0  0  0
    7.9606   -2.0231   20.8342 C   0  0  0  0  0  0  0  0  0  0  0  0
    7.2383   -2.7725   20.4815 H   0  0  0  0  0  0  0  0  0  0  0  0
    8.8464   -2.0225   20.1843 H   0  0  0  0  0  0  0  0  0  0  0  0
    5.4131    0.6639   20.1235 C   0  0  0  0  0  0  0  0  0  0  0  0
    4.9874    0.6570   21.1269 H   0  0  0  0  0  0  0  0  0  0  0  0
    4.7821    1.3190   19.0703 C   0  0  0  0  0  0  0  0  0  0  0  0
    3.8532    1.8539   19.2225 H   0  0  0  0  0  0  0  0  0  0  0  0
  1  2  1  0
  2  3  2  0
  3  4  1  0
  4  5  1  0
  4  6  2  0
  6  7  1  0
  7  8  2  0
  8  9  1  0
  9 10  1  0
 10 11  2  0
 10 12  1  0
 12 13  1  0
 12 14  1  0
 12 15  1  0
 15 16  1  0
 15 17  1  0
 15 18  1  0
 18 19  1  0
 18 20  1  0
  8 21  1  0
 21 22  2  0
 21 23  1  0
 23 24  1  0
 24 25  1  0
 24 26  1  0
  6 27  1  0
 27 28  1  0
 27 29  2  0
 29 30  1  0
 29  2  1  0
 24  7  1  0
 18  9  1  0
M  END
>  <plip>  (1) 
-0.03571428571428571

>  <filename>  (1) 
[H][c]1[n][c]([H])[c]([C]2=[C]([N]3[C](=[O])[C]([H])([H])[C]([H])([H])[C]3([H])[H])[C](=[O])[O][C]2([H])[H])[c]([H])[c]1[H]

$$$$
