
     RDKit          3D

 35 36  0  0  0  0  0  0  0  0999 V2000
    9.4731   -3.7231   24.8483 O   0  0  0  0  0  0  0  0  0  0  0  0
    8.4403   -4.0129   24.2740 C   0  0  0  0  0  0  0  0  0  0  0  0
    7.5965   -5.2389   24.6410 C   0  0  0  0  0  0  0  0  0  0  0  0
    6.4922   -4.8925   25.6176 C   0  0  0  0  0  0  0  0  0  0  0  0
    6.7466   -4.7935   26.9935 C   0  0  0  0  0  0  0  0  0  0  0  0
    5.7153   -4.3955   27.8454 C   0  0  0  0  0  0  0  0  0  0  0  0
    4.4531   -4.0944   27.2954 C   0  0  0  0  0  0  0  0  0  0  0  0
    3.3077   -3.6585   28.2317 C   0  0  0  0  0  0  0  0  0  0  0  0
    2.1461   -3.4316   27.6122 F   0  0  0  0  0  0  0  0  0  0  0  0
    3.6428   -2.5296   28.8928 F   0  0  0  0  0  0  0  0  0  0  0  0
    3.0857   -4.5994   29.1758 F   0  0  0  0  0  0  0  0  0  0  0  0
    4.2121   -4.1708   25.9777 N   0  0  0  0  0  0  0  0  0  0  0  0
    5.2014   -4.5576   25.1747 C   0  0  0  0  0  0  0  0  0  0  0  0
    4.9615   -4.5958   24.1135 H   0  0  0  0  0  0  0  0  0  0  0  0
    5.8741   -4.3197   28.9145 H   0  0  0  0  0  0  0  0  0  0  0  0
    7.7457   -5.0170   27.3807 H   0  0  0  0  0  0  0  0  0  0  0  0
    7.1932   -5.7271   23.7433 H   0  0  0  0  0  0  0  0  0  0  0  0
    8.2968   -5.9376   25.1005 H   0  0  0  0  0  0  0  0  0  0  0  0
    7.9502   -3.2364   23.2735 N   0  0  0  0  0  0  0  0  0  0  0  0
    8.6309   -2.0070   22.8944 C   0  0  0  0  0  0  0  0  0  0  0  0
    7.9059   -1.3267   21.8287 C   0  0  0  0  0  0  0  0  0  0  0  0
    7.3561   -0.7016   20.9538 C   0  0  0  0  0  0  0  0  0  0  0  0
    6.6638    0.0058   19.9120 C   0  0  0  0  0  0  0  0  0  0  0  0
    5.4401    0.6534   20.1574 C   0  0  0  0  0  0  0  0  0  0  0  0
    4.8039    1.3112   19.1022 C   0  0  0  0  0  0  0  0  0  0  0  0
    5.3972    1.2944   17.8359 C   0  0  0  0  0  0  0  0  0  0  0  0
    6.5606    0.6768   17.5762 N   0  0  0  0  0  0  0  0  0  0  0  0
    7.1727    0.0607   18.5951 C   0  0  0  0  0  0  0  0  0  0  0  0
    8.1198   -0.4212   18.3579 H   0  0  0  0  0  0  0  0  0  0  0  0
    4.9226    1.7891   16.9894 H   0  0  0  0  0  0  0  0  0  0  0  0
    3.8723    1.8442   19.2473 H   0  0  0  0  0  0  0  0  0  0  0  0
    5.0070    0.6381   21.1577 H   0  0  0  0  0  0  0  0  0  0  0  0
    9.6565   -2.2296   22.5669 H   0  0  0  0  0  0  0  0  0  0  0  0
    8.7420   -1.3346   23.7595 H   0  0  0  0  0  0  0  0  0  0  0  0
    7.0724   -3.4457   22.8340 H   0  0  0  0  0  0  0  0  0  0  0  0
  1  2  2  0
  2  3  1  0
  3  4  1  0
  4  5  2  0
  5  6  1  0
  6  7  2  0
  7  8  1  0
  8  9  1  0
  8 10  1  0
  8 11  1  0
  7 12  1  0
 12 13  2  0
 13 14  1  0
  6 15  1  0
  5 16  1  0
  3 17  1  0
  3 18  1  0
  2 19  1  0
 19 20  1  0
 20 21  1  0
 21 22  3  0
 22 23  1  0
 23 24  2  0
 24 25  1  0
 25 26  2  0
 26 27  1  0
 27 28  2  0
 28 29  1  0
 26 30  1  0
 25 31  1  0
 24 32  1  0
 20 33  1  0
 20 34  1  0
 19 35  1  0
 13  4  1  0
 28 23  1  0
M  END
>  <plip>  (1) 
-0.06896551724137931

>  <filename>  (1) 
[H][c]1[n][c]([H])[c]([C]#[C][C]([H])([H])[N]([H])[C](=[O])[C]([H])([H])[c]2[c]([H])[n][c]([C]([F])([F])[F])[c]([H])[c]2[H])[c]([H])[c]1[H]

$$$$
