
     RDKit          3D

 43 45  0  0  0  0  0  0  0  0999 V2000
    9.2861    0.7102   21.2618 C   0  0  0  0  0  0  0  0  0  0  0  0
    8.0965   -0.0135   21.8874 C   0  0  0  0  0  0  0  0  0  0  0  0
    7.3258   -0.7202   20.8834 O   0  0  0  0  0  0  0  0  0  0  0  0
    6.6744    0.0056   19.9118 C   0  0  0  0  0  0  0  0  0  0  0  0
    5.4531    0.6387   20.1639 C   0  0  0  0  0  0  0  0  0  0  0  0
    4.8195    1.2987   19.1056 C   0  0  0  0  0  0  0  0  0  0  0  0
    5.4206    1.2900   17.8422 C   0  0  0  0  0  0  0  0  0  0  0  0
    6.5846    0.6743   17.5834 N   0  0  0  0  0  0  0  0  0  0  0  0
    7.1894    0.0507   18.6032 C   0  0  0  0  0  0  0  0  0  0  0  0
    8.1387   -0.4438   18.3936 H   0  0  0  0  0  0  0  0  0  0  0  0
    4.9462    1.7889   17.0012 H   0  0  0  0  0  0  0  0  0  0  0  0
    3.8812    1.8262   19.2506 H   0  0  0  0  0  0  0  0  0  0  0  0
    5.0249    0.5997   21.1670 H   0  0  0  0  0  0  0  0  0  0  0  0
    7.2195    0.9226   22.7850 C   0  0  0  0  0  0  0  0  0  0  0  0
    7.2142    2.1370   22.6560 O   0  0  0  0  0  0  0  0  0  0  0  0
    6.4266    0.3136   23.7209 N   0  0  0  0  0  0  0  0  0  0  0  0
    5.5419    1.0844   24.6068 C   0  0  0  0  0  0  0  0  0  0  0  0
    6.3033    1.9491   25.6280 C   0  0  0  0  0  0  0  0  0  0  0  0
    5.3441    2.1370   26.8104 C   0  0  0  0  0  0  0  0  0  0  0  0
    4.3951    1.0223   26.6844 N   0  0  0  0  0  0  0  0  0  0  0  0
    3.3256    0.8887   27.5402 C   0  0  0  0  0  0  0  0  0  0  0  0
    2.8473    2.0435   28.0435 N   0  0  0  0  0  0  0  0  0  0  0  0
    1.7635    2.0213   28.8168 C   0  0  0  0  0  0  0  0  0  0  0  0
    1.1031    0.8517   29.1877 C   0  0  0  0  0  0  0  0  0  0  0  0
    1.6126   -0.3714   28.7291 C   0  0  0  0  0  0  0  0  0  0  0  0
    2.7349   -0.3658   27.9055 C   0  0  0  0  0  0  0  0  0  0  0  0
    3.3849   -1.9136   27.4261 Cl  0  0  0  0  0  0  0  0  0  0  0  0
    1.1594   -1.3234   29.0006 H   0  0  0  0  0  0  0  0  0  0  0  0
    0.2292    0.9065   29.8226 H   0  0  0  0  0  0  0  0  0  0  0  0
    1.4048    2.9924   29.1526 H   0  0  0  0  0  0  0  0  0  0  0  0
    4.6141    0.2190   25.4777 C   0  0  0  0  0  0  0  0  0  0  0  0
    5.1015   -0.7370   25.7084 H   0  0  0  0  0  0  0  0  0  0  0  0
    3.6678   -0.0037   24.9656 H   0  0  0  0  0  0  0  0  0  0  0  0
    5.8746    2.0908   27.7745 H   0  0  0  0  0  0  0  0  0  0  0  0
    4.8145    3.1022   26.8034 H   0  0  0  0  0  0  0  0  0  0  0  0
    7.2023    1.4143   25.9582 H   0  0  0  0  0  0  0  0  0  0  0  0
    6.6192    2.8913   25.1712 H   0  0  0  0  0  0  0  0  0  0  0  0
    4.9229    1.7629   24.0025 H   0  0  0  0  0  0  0  0  0  0  0  0
    6.4487   -0.6936   23.7841 H   0  0  0  0  0  0  0  0  0  0  0  0
    8.4431   -0.8462   22.5056 H   0  0  0  0  0  0  0  0  0  0  0  0
    9.9330    1.1366   22.0347 H   0  0  0  0  0  0  0  0  0  0  0  0
    8.9404    1.5246   20.6171 H   0  0  0  0  0  0  0  0  0  0  0  0
    9.8756    0.0088   20.6616 H   0  0  0  0  0  0  0  0  0  0  0  0
  1  2  1  0
  2  3  1  0
  3  4  1  0
  4  5  2  0
  5  6  1  0
  6  7  2  0
  7  8  1  0
  8  9  2  0
  9 10  1  0
  7 11  1  0
  6 12  1  0
  5 13  1  0
  2 14  1  0
 14 15  2  0
 14 16  1  0
 16 17  1  0
 17 18  1  0
 18 19  1  0
 19 20  1  0
 20 21  1  0
 21 22  2  0
 22 23  1  0
 23 24  2  0
 24 25  1  0
 25 26  2  0
 26 27  1  0
 25 28  1  0
 24 29  1  0
 23 30  1  0
 20 31  1  0
 31 32  1  0
 31 33  1  0
 19 34  1  0
 19 35  1  0
 18 36  1  0
 18 37  1  0
 17 38  1  0
 16 39  1  0
  2 40  1  0
  1 41  1  0
  1 42  1  0
  1 43  1  0
  9  4  1  0
 31 17  1  0
 26 21  1  0
M  END
>  <plip>  (1) 
-0.07142857142857142

>  <filename>  (1) 
[H][c]1[n][c]([N]2[C]([H])([H])[C]([H])([H])[C]([H])([N]([H])[C](=[O])[C]([H])([O][c]3[c]([H])[n][c]([H])[c]([H])[c]3[H])[C]([H])([H])[H])[C]2([H])[H])[c]([Cl])[c]([H])[c]1[H]

$$$$
