
     RDKit          3D

 31 33  0  0  0  0  0  0  0  0999 V2000
    4.9311    1.7890   16.9907 H   0  0  0  0  0  0  0  0  0  0  0  0
    5.3971    1.2987   17.8417 C   0  0  0  0  0  0  0  0  0  0  0  0
    6.5564    0.6718   17.5905 N   0  0  0  0  0  0  0  0  0  0  0  0
    7.1570    0.0500   18.6067 C   0  0  0  0  0  0  0  0  0  0  0  0
    8.0996   -0.4422   18.3751 H   0  0  0  0  0  0  0  0  0  0  0  0
    6.6527    0.0319   19.9147 C   0  0  0  0  0  0  0  0  0  0  0  0
    7.4174   -0.7015   20.9238 C   0  0  0  0  0  0  0  0  0  0  0  0
    7.8345   -1.9420   20.7943 N   0  0  0  0  0  0  0  0  0  0  0  0
    8.4593   -2.2506   21.9740 C   0  0  0  0  0  0  0  0  0  0  0  0
    8.8959   -3.2346   22.1221 H   0  0  0  0  0  0  0  0  0  0  0  0
    8.4519   -1.1742   22.8127 C   0  0  0  0  0  0  0  0  0  0  0  0
    8.8446   -1.0215   23.8096 H   0  0  0  0  0  0  0  0  0  0  0  0
    7.7930   -0.1713   22.1274 N   0  0  0  0  0  0  0  0  0  0  0  0
    7.5447    1.1774   22.6144 C   0  0  0  0  0  0  0  0  0  0  0  0
    7.5188    1.8633   21.7599 H   0  0  0  0  0  0  0  0  0  0  0  0
    8.4149    1.4502   23.2215 H   0  0  0  0  0  0  0  0  0  0  0  0
    6.2987    1.2733   23.4496 C   0  0  0  0  0  0  0  0  0  0  0  0
    5.8149    0.3831   24.3825 C   0  0  0  0  0  0  0  0  0  0  0  0
    6.2462   -0.5826   24.5994 H   0  0  0  0  0  0  0  0  0  0  0  0
    4.6524    0.9835   24.8874 C   0  0  0  0  0  0  0  0  0  0  0  0
    3.9662    0.6022   25.6380 H   0  0  0  0  0  0  0  0  0  0  0  0
    4.4363    2.1630   24.3219 N   0  0  0  0  0  0  0  0  0  0  0  0
    5.4531    2.3355   23.4643 N   0  0  0  0  0  0  0  0  0  0  0  0
    5.5465    3.5470   22.6728 C   0  0  0  0  0  0  0  0  0  0  0  0
    5.4223    3.3187   21.6075 H   0  0  0  0  0  0  0  0  0  0  0  0
    6.5218    4.0195   22.8252 H   0  0  0  0  0  0  0  0  0  0  0  0
    4.7602    4.2245   23.0072 H   0  0  0  0  0  0  0  0  0  0  0  0
    5.4309    0.6803   20.1645 C   0  0  0  0  0  0  0  0  0  0  0  0
    4.9857    0.6474   21.1625 H   0  0  0  0  0  0  0  0  0  0  0  0
    4.8000    1.3271   19.1070 C   0  0  0  0  0  0  0  0  0  0  0  0
    3.8632    1.8525   19.2414 H   0  0  0  0  0  0  0  0  0  0  0  0
  1  2  1  0
  2  3  2  0
  3  4  1  0
  4  5  1  0
  4  6  2  0
  6  7  1  0
  7  8  2  0
  8  9  1  0
  9 10  1  0
  9 11  2  0
 11 12  1  0
 11 13  1  0
 13 14  1  0
 14 15  1  0
 14 16  1  0
 14 17  1  0
 17 18  2  0
 18 19  1  0
 18 20  1  0
 20 21  1  0
 20 22  2  0
 22 23  1  0
 23 24  1  0
 24 25  1  0
 24 26  1  0
 24 27  1  0
  6 28  1  0
 28 29  1  0
 28 30  2  0
 30 31  1  0
 30  2  1  0
 13  7  1  0
 23 17  1  0
M  END
>  <plip>  (1) 
-0.06896551724137931

>  <filename>  (1) 
[H][c]1[n][c]([H])[c](-[c]2[n][c]([H])[c]([H])[n]2[C]([H])([H])[c]2[c]([H])[c]([H])[n][n]2[C]([H])([H])[H])[c]([H])[c]1[H]

$$$$
