
     RDKit          3D

 29 31  0  0  0  0  0  0  0  0999 V2000
    9.4253   -3.7154   27.7386 H   0  0  0  0  0  0  0  0  0  0  0  0
    9.4985   -3.8379   26.6662 C   0  0  0  0  0  0  0  0  0  0  0  0
    8.6620   -3.0975   25.9416 N   0  0  0  0  0  0  0  0  0  0  0  0
    8.7224   -3.2649   24.6159 C   0  0  0  0  0  0  0  0  0  0  0  0
    7.7970   -2.4634   23.9859 N   0  0  0  0  0  0  0  0  0  0  0  0
    7.4258   -1.9237   24.7627 H   0  0  0  0  0  0  0  0  0  0  0  0
    7.9599   -1.7980   22.7577 C   0  0  0  0  0  0  0  0  0  0  0  0
    9.0717   -1.5679   21.8976 C   0  0  0  0  0  0  0  0  0  0  0  0
   10.1015   -1.8500   22.0524 H   0  0  0  0  0  0  0  0  0  0  0  0
    8.7217   -0.9040   20.8083 N   0  0  0  0  0  0  0  0  0  0  0  0
    7.3993   -0.6735   20.9473 N   0  0  0  0  0  0  0  0  0  0  0  0
    6.6822   -0.0036   19.9310 C   0  0  0  0  0  0  0  0  0  0  0  0
    7.2067    0.0202   18.6261 C   0  0  0  0  0  0  0  0  0  0  0  0
    8.1511   -0.4825   18.4312 H   0  0  0  0  0  0  0  0  0  0  0  0
    6.6021    0.6314   17.6047 N   0  0  0  0  0  0  0  0  0  0  0  0
    5.4416    1.2657   17.8498 C   0  0  0  0  0  0  0  0  0  0  0  0
    4.9782    1.7711   17.0057 H   0  0  0  0  0  0  0  0  0  0  0  0
    4.8387    1.2904   19.1118 C   0  0  0  0  0  0  0  0  0  0  0  0
    3.9044    1.8237   19.2518 H   0  0  0  0  0  0  0  0  0  0  0  0
    5.4653    0.6449   20.1805 C   0  0  0  0  0  0  0  0  0  0  0  0
    5.0417    0.6745   21.1844 H   0  0  0  0  0  0  0  0  0  0  0  0
    6.9221   -1.1983   22.1066 C   0  0  0  0  0  0  0  0  0  0  0  0
    5.8973   -1.1668   22.4150 H   0  0  0  0  0  0  0  0  0  0  0  0
    9.5980   -4.1481   23.9705 C   0  0  0  0  0  0  0  0  0  0  0  0
    9.5645   -4.2523   22.8974 H   0  0  0  0  0  0  0  0  0  0  0  0
   10.5053   -4.8573   24.7548 C   0  0  0  0  0  0  0  0  0  0  0  0
   11.2625   -5.4983   24.3110 H   0  0  0  0  0  0  0  0  0  0  0  0
   10.4279   -4.7272   26.1383 C   0  0  0  0  0  0  0  0  0  0  0  0
   11.0499   -5.2887   26.8182 H   0  0  0  0  0  0  0  0  0  0  0  0
  1  2  1  0
  2  3  2  0
  3  4  1  0
  4  5  1  0
  5  6  1  0
  5  7  1  0
  7  8  1  0
  8  9  1  0
  8 10  2  0
 10 11  1  0
 11 12  1  0
 12 13  2  0
 13 14  1  0
 13 15  1  0
 15 16  2  0
 16 17  1  0
 16 18  1  0
 18 19  1  0
 18 20  2  0
 20 21  1  0
 11 22  1  0
 22 23  1  0
  4 24  2  0
 24 25  1  0
 24 26  1  0
 26 27  1  0
 26 28  2  0
 28 29  1  0
 28  2  1  0
 22  7  2  0
 20 12  1  0
M  END
>  <plip>  (1) 
-0.07142857142857142

>  <filename>  (1) 
[H][c]1[n][c]([N]([H])[c]2[c]([H])[n][n](-[c]3[c]([H])[n][c]([H])[c]([H])[c]3[H])[c]2[H])[c]([H])[c]([H])[c]1[H]

$$$$
