
     RDKit          3D

 31 33  0  0  0  0  0  0  0  0999 V2000
    4.9720    1.7776   17.0114 H   0  0  0  0  0  0  0  0  0  0  0  0
    5.4335    1.2664   17.8561 C   0  0  0  0  0  0  0  0  0  0  0  0
    6.5902    0.6337   17.6119 N   0  0  0  0  0  0  0  0  0  0  0  0
    7.1840    0.0197   18.6417 C   0  0  0  0  0  0  0  0  0  0  0  0
    8.1289   -0.4746   18.4261 H   0  0  0  0  0  0  0  0  0  0  0  0
    6.6695   -0.0099   19.9598 C   0  0  0  0  0  0  0  0  0  0  0  0
    7.4207   -0.6422   21.0490 C   0  0  0  0  0  0  0  0  0  0  0  0
    7.3484   -0.5687   22.4201 C   0  0  0  0  0  0  0  0  0  0  0  0
    6.7557    0.3067   23.2956 N   0  0  0  0  0  0  0  0  0  0  0  0
    6.6488    0.0231   24.2579 H   0  0  0  0  0  0  0  0  0  0  0  0
    6.6733    1.6870   23.0854 C   0  0  0  0  0  0  0  0  0  0  0  0
    7.2834    2.2374   22.1941 O   0  0  0  0  0  0  0  0  0  0  0  0
    5.7665    2.3976   24.0531 C   0  0  0  0  0  0  0  0  0  0  0  0
    4.8495    1.7238   24.8901 C   0  0  0  0  0  0  0  0  0  0  0  0
    4.7535    0.6360   24.8668 H   0  0  0  0  0  0  0  0  0  0  0  0
    4.0089    2.4475   25.7379 C   0  0  0  0  0  0  0  0  0  0  0  0
    3.3043    1.9224   26.3769 H   0  0  0  0  0  0  0  0  0  0  0  0
    4.0667    3.8446   25.7614 C   0  0  0  0  0  0  0  0  0  0  0  0
    3.4060    4.4102   26.4106 H   0  0  0  0  0  0  0  0  0  0  0  0
    4.9664    4.5179   24.9306 C   0  0  0  0  0  0  0  0  0  0  0  0
    5.0086    5.6021   24.9266 H   0  0  0  0  0  0  0  0  0  0  0  0
    5.8098    3.8035   24.0814 C   0  0  0  0  0  0  0  0  0  0  0  0
    6.5031    4.3232   23.4206 H   0  0  0  0  0  0  0  0  0  0  0  0
    8.2911   -1.6994   22.6542 C   0  0  0  0  0  0  0  0  0  0  0  0
    8.6245   -2.3748   23.5923 O   0  0  0  0  0  0  0  0  0  0  0  0
    8.5621   -1.6065   21.1107 C   0  0  0  0  0  0  0  0  0  0  0  0
    9.3738   -2.0313   20.3344 O   0  0  0  0  0  0  0  0  0  0  0  0
    5.4288    0.6236   20.1745 C   0  0  0  0  0  0  0  0  0  0  0  0
    4.9681    0.6312   21.1629 H   0  0  0  0  0  0  0  0  0  0  0  0
    4.8138    1.2814   19.1099 C   0  0  0  0  0  0  0  0  0  0  0  0
    3.8821    1.8236   19.2385 H   0  0  0  0  0  0  0  0  0  0  0  0
  1  2  1  0
  2  3  2  0
  3  4  1  0
  4  5  1  0
  4  6  2  0
  6  7  1  0
  7  8  2  0
  8  9  1  0
  9 10  1  0
  9 11  1  0
 11 12  2  0
 11 13  1  0
 13 14  2  0
 14 15  1  0
 14 16  1  0
 16 17  1  0
 16 18  2  0
 18 19  1  0
 18 20  1  0
 20 21  1  0
 20 22  2  0
 22 23  1  0
  8 24  1  0
 24 25  2  0
 24 26  1  0
 26 27  2  0
  6 28  1  0
 28 29  1  0
 28 30  2  0
 30 31  1  0
 30  2  1  0
 26  7  1  0
 22 13  1  0
M  END
>  <plip>  (1) 
-0.0

>  <filename>  (1) 
[H][c]1[n][c]([H])[c](-[c]2[c]([N]([H])[C](=[O])[c]3[c]([H])[c]([H])[c]([H])[c]([H])[c]3[H])[c](=[O])[c]2=[O])[c]([H])[c]1[H]

$$$$
