
     RDKit          3D

 38 39  0  0  0  0  0  0  0  0999 V2000
    7.1238   -5.7398   26.3895 C   0  0  0  0  0  0  0  0  0  0  0  0
    6.0615   -6.2751   25.4658 C   0  0  0  0  0  0  0  0  0  0  0  0
    5.0734   -7.1473   25.9570 C   0  0  0  0  0  0  0  0  0  0  0  0
    4.9276   -7.5668   27.8200 Br  0  0  0  0  0  0  0  0  0  0  0  0
    4.1621   -7.7365   25.0752 C   0  0  0  0  0  0  0  0  0  0  0  0
    4.2196   -7.4786   23.7045 C   0  0  0  0  0  0  0  0  0  0  0  0
    5.1640   -6.5772   23.2274 C   0  0  0  0  0  0  0  0  0  0  0  0
    6.0523   -5.9472   24.0961 C   0  0  0  0  0  0  0  0  0  0  0  0
    6.8579   -4.9412   23.5718 N   0  0  0  0  0  0  0  0  0  0  0  0
    6.3500   -3.9374   22.7386 C   0  0  0  0  0  0  0  0  0  0  0  0
    5.1458   -4.0056   22.4574 O   0  0  0  0  0  0  0  0  0  0  0  0
    7.1999   -2.8021   22.1982 C   0  0  0  0  0  0  0  0  0  0  0  0
    8.4209   -2.7615   22.3699 O   0  0  0  0  0  0  0  0  0  0  0  0
    6.6645   -1.7544   21.4479 N   0  0  0  0  0  0  0  0  0  0  0  0
    7.4665   -0.6681   20.9475 C   0  0  2  0  0  0  0  0  0  0  0  0
    7.8125    0.2687   22.0956 C   0  0  0  0  0  0  0  0  0  0  0  0
    8.3820    1.1260   21.7263 H   0  0  0  0  0  0  0  0  0  0  0  0
    8.4187   -0.2686   22.8317 H   0  0  0  0  0  0  0  0  0  0  0  0
    6.9031    0.6347   22.5845 H   0  0  0  0  0  0  0  0  0  0  0  0
    6.6748    0.0225   19.8818 C   0  0  0  0  0  0  0  0  0  0  0  0
    5.4575    0.6562   20.1487 C   0  0  0  0  0  0  0  0  0  0  0  0
    4.8248    1.3005   19.0884 C   0  0  0  0  0  0  0  0  0  0  0  0
    5.4083    1.2912   17.8153 C   0  0  0  0  0  0  0  0  0  0  0  0
    6.5632    0.6536   17.5547 N   0  0  0  0  0  0  0  0  0  0  0  0
    7.1767    0.0323   18.5753 C   0  0  0  0  0  0  0  0  0  0  0  0
    8.1157   -0.4776   18.3784 H   0  0  0  0  0  0  0  0  0  0  0  0
    4.9082    1.8118   17.0052 H   0  0  0  0  0  0  0  0  0  0  0  0
    3.8893    1.8230   19.2435 H   0  0  0  0  0  0  0  0  0  0  0  0
    5.0264    0.6499   21.1507 H   0  0  0  0  0  0  0  0  0  0  0  0
    8.3922   -1.0695   20.5163 H   0  0  0  0  0  0  0  0  0  0  0  0
    5.6563   -1.6455   21.3994 H   0  0  0  0  0  0  0  0  0  0  0  0
    7.7631   -4.7968   24.0044 H   0  0  0  0  0  0  0  0  0  0  0  0
    5.2001   -6.3335   22.1727 H   0  0  0  0  0  0  0  0  0  0  0  0
    3.5071   -7.9168   23.0118 H   0  0  0  0  0  0  0  0  0  0  0  0
    3.4007   -8.3939   25.4784 H   0  0  0  0  0  0  0  0  0  0  0  0
    8.0664   -6.2569   26.1889 H   0  0  0  0  0  0  0  0  0  0  0  0
    6.8599   -5.9200   27.4390 H   0  0  0  0  0  0  0  0  0  0  0  0
    7.2684   -4.6683   26.2220 H   0  0  0  0  0  0  0  0  0  0  0  0
  1  2  1  0
  2  3  2  0
  3  4  1  0
  3  5  1  0
  5  6  2  0
  6  7  1  0
  7  8  2  0
  8  9  1  0
  9 10  1  0
 10 11  2  0
 10 12  1  0
 12 13  2  0
 12 14  1  0
 14 15  1  0
 15 16  1  0
 16 17  1  0
 16 18  1  0
 16 19  1  0
 15 20  1  0
 20 21  2  0
 21 22  1  0
 22 23  2  0
 23 24  1  0
 24 25  2  0
 25 26  1  0
 23 27  1  0
 22 28  1  0
 21 29  1  0
 15 30  1  6
 14 31  1  0
  9 32  1  0
  7 33  1  0
  6 34  1  0
  5 35  1  0
  1 36  1  0
  1 37  1  0
  1 38  1  0
  8  2  1  0
 25 20  1  0
M  END
>  <plip>  (1) 
-0.12903225806451613

>  <filename>  (1) 
[H][c]1[n][c]([H])[c]([C@]([H])([N]([H])[C](=[O])[C](=[O])[N]([H])[c]2[c]([H])[c]([H])[c]([H])[c]([Br])[c]2[C]([H])([H])[H])[C]([H])([H])[H])[c]([H])[c]1[H]

$$$$
