
     RDKit          3D

 24 25  0  0  0  0  0  0  0  0999 V2000
    4.9169    1.7839   16.9930 H   0  0  0  0  0  0  0  0  0  0  0  0
    5.4003    1.2927   17.8347 C   0  0  0  0  0  0  0  0  0  0  0  0
    6.5599    0.6777   17.5686 N   0  0  0  0  0  0  0  0  0  0  0  0
    7.1710    0.0685   18.5934 C   0  0  0  0  0  0  0  0  0  0  0  0
    8.1240   -0.4130   18.3751 H   0  0  0  0  0  0  0  0  0  0  0  0
    6.6659    0.0190   19.8952 C   0  0  0  0  0  0  0  0  0  0  0  0
    7.4215   -0.6643   21.0026 C   0  0  0  0  0  0  0  0  0  0  0  0
    6.7549   -1.3299   21.5579 H   0  0  0  0  0  0  0  0  0  0  0  0
    8.2588   -1.2571   20.6157 H   0  0  0  0  0  0  0  0  0  0  0  0
    7.8844    0.2764   21.9976 O   0  0  0  0  0  0  0  0  0  0  0  0
    8.9087    1.0931   21.6553 C   0  0  0  0  0  0  0  0  0  0  0  0
    9.4885    1.0172   20.5949 O   0  0  0  0  0  0  0  0  0  0  0  0
    9.2442    2.0770   22.7464 C   0  0  0  0  0  0  0  0  0  0  0  0
   10.2679    2.9868   22.6402 C   0  0  0  0  0  0  0  0  0  0  0  0
   10.9442    3.1408   21.8088 H   0  0  0  0  0  0  0  0  0  0  0  0
   10.4217    3.9667   24.0216 S   0  0  0  0  0  0  0  0  0  0  0  0
    9.1071    3.1754   24.7922 C   0  0  0  0  0  0  0  0  0  0  0  0
    8.7950    3.4769   25.7835 H   0  0  0  0  0  0  0  0  0  0  0  0
    8.5737    2.1993   24.0141 C   0  0  0  0  0  0  0  0  0  0  0  0
    7.7335    1.5729   24.3070 H   0  0  0  0  0  0  0  0  0  0  0  0
    5.4431    0.6529   20.1535 C   0  0  0  0  0  0  0  0  0  0  0  0
    5.0176    0.6346   21.1603 H   0  0  0  0  0  0  0  0  0  0  0  0
    4.8064    1.3107   19.1018 C   0  0  0  0  0  0  0  0  0  0  0  0
    3.8741    1.8430   19.2555 H   0  0  0  0  0  0  0  0  0  0  0  0
  1  2  1  0
  2  3  2  0
  3  4  1  0
  4  5  1  0
  4  6  2  0
  6  7  1  0
  7  8  1  0
  7  9  1  0
  7 10  1  0
 10 11  1  0
 11 12  2  0
 11 13  1  0
 13 14  2  0
 14 15  1  0
 14 16  1  0
 16 17  1  0
 17 18  1  0
 17 19  2  0
 19 20  1  0
  6 21  1  0
 21 22  1  0
 21 23  2  0
 23 24  1  0
 23  2  1  0
 19 13  1  0
M  END
>  <plip>  (1) 
-0.07142857142857142

>  <filename>  (1) 
[H][c]1[n][c]([H])[c]([C]([H])([H])[O][C](=[O])[c]2[c]([H])[s][c]([H])[c]2[H])[c]([H])[c]1[H]

$$$$
