
     RDKit          3D

 36 38  0  0  0  0  0  0  0  0999 V2000
    4.9397    1.8167   16.9632 H   0  0  0  0  0  0  0  0  0  0  0  0
    5.3920    1.2969   17.8082 C   0  0  0  0  0  0  0  0  0  0  0  0
    6.5506    0.6614   17.5627 N   0  0  0  0  0  0  0  0  0  0  0  0
    7.1408    0.0379   18.5899 C   0  0  0  0  0  0  0  0  0  0  0  0
    8.1018   -0.4299   18.3577 H   0  0  0  0  0  0  0  0  0  0  0  0
    6.6224   -0.0043   19.8998 C   0  0  0  0  0  0  0  0  0  0  0  0
    7.3175   -0.7230   20.9676 C   0  0  0  0  0  0  0  0  0  0  0  0
    7.5820   -0.2500   22.2079 C   0  0  0  0  0  0  0  0  0  0  0  0
    7.3886    1.1282   22.6870 C   0  0  0  0  0  0  0  0  0  0  0  0
    7.6763    2.0675   21.9606 O   0  0  0  0  0  0  0  0  0  0  0  0
    6.8300    1.3562   24.0608 C   0  0  0  0  0  0  0  0  0  0  0  0
    7.0834    2.5856   24.6885 C   0  0  0  0  0  0  0  0  0  0  0  0
    7.6666    3.3367   24.1559 H   0  0  0  0  0  0  0  0  0  0  0  0
    6.5774    2.8364   25.9616 C   0  0  0  0  0  0  0  0  0  0  0  0
    6.7781    3.7897   26.4434 H   0  0  0  0  0  0  0  0  0  0  0  0
    5.7927    1.8841   26.6364 C   0  0  0  0  0  0  0  0  0  0  0  0
    5.2780    2.1498   28.0312 C   0  0  0  0  0  0  0  0  0  0  0  0
    5.9949    1.8159   28.7922 H   0  0  0  0  0  0  0  0  0  0  0  0
    4.3373    1.6205   28.2148 H   0  0  0  0  0  0  0  0  0  0  0  0
    5.1018    3.2180   28.1933 H   0  0  0  0  0  0  0  0  0  0  0  0
    5.5200    0.6708   25.9858 C   0  0  0  0  0  0  0  0  0  0  0  0
    4.9151   -0.0775   26.4903 H   0  0  0  0  0  0  0  0  0  0  0  0
    6.0326    0.4011   24.7180 C   0  0  0  0  0  0  0  0  0  0  0  0
    5.8326   -0.5642   24.2540 H   0  0  0  0  0  0  0  0  0  0  0  0
    8.2629   -1.2576   23.0286 C   0  0  0  0  0  0  0  0  0  0  0  0
    8.6368   -1.1153   24.1739 O   0  0  0  0  0  0  0  0  0  0  0  0
    8.4218   -2.5251   22.1737 C   0  0  0  0  0  0  0  0  0  0  0  0
    7.8795   -3.3471   22.6590 H   0  0  0  0  0  0  0  0  0  0  0  0
    9.4796   -2.8083   22.1540 H   0  0  0  0  0  0  0  0  0  0  0  0
    7.8900   -2.0956   20.7899 C   0  0  0  0  0  0  0  0  0  0  0  0
    8.7123   -1.9829   20.0766 H   0  0  0  0  0  0  0  0  0  0  0  0
    7.1384   -2.7621   20.3584 H   0  0  0  0  0  0  0  0  0  0  0  0
    5.4049    0.6554   20.1233 C   0  0  0  0  0  0  0  0  0  0  0  0
    4.9709    0.6548   21.1219 H   0  0  0  0  0  0  0  0  0  0  0  0
    4.7852    1.3166   19.0672 C   0  0  0  0  0  0  0  0  0  0  0  0
    3.8590    1.8563   19.2150 H   0  0  0  0  0  0  0  0  0  0  0  0
  1  2  1  0
  2  3  2  0
  3  4  1  0
  4  5  1  0
  4  6  2  0
  6  7  1  0
  7  8  2  0
  8  9  1  0
  9 10  2  0
  9 11  1  0
 11 12  2  0
 12 13  1  0
 12 14  1  0
 14 15  1  0
 14 16  2  0
 16 17  1  0
 17 18  1  0
 17 19  1  0
 17 20  1  0
 16 21  1  0
 21 22  1  0
 21 23  2  0
 23 24  1  0
  8 25  1  0
 25 26  2  0
 25 27  1  0
 27 28  1  0
 27 29  1  0
 27 30  1  0
 30 31  1  0
 30 32  1  0
  6 33  1  0
 33 34  1  0
 33 35  2  0
 35 36  1  0
 35  2  1  0
 30  7  1  0
 23 11  1  0
M  END
>  <plip>  (1) 
-0.03571428571428571

>  <filename>  (1) 
[H][c]1[n][c]([H])[c]([C]2=[C]([C](=[O])[c]3[c]([H])[c]([H])[c]([C]([H])([H])[H])[c]([H])[c]3[H])[C](=[O])[C]([H])([H])[C]2([H])[H])[c]([H])[c]1[H]

$$$$
