
     RDKit          3D

 44 47  0  0  0  0  0  0  0  0999 V2000
    8.9895   -3.3248   22.3640 C   0  0  0  0  0  0  0  0  0  0  0  0
    8.2302   -2.1322   22.0435 N   0  0  0  0  0  0  0  0  0  0  0  0
    7.8993   -1.1451   22.9083 C   0  0  0  0  0  0  0  0  0  0  0  0
    7.1683   -0.2127   22.1892 C   0  0  0  0  0  0  0  0  0  0  0  0
    6.5694    1.0977   22.6004 C   0  0  0  0  0  0  0  0  0  0  0  0
    7.5503    1.6857   23.5161 N   0  0  0  0  0  4  0  0  0  0  0  0
    7.2533    2.8908   24.3204 C   0  0  1  0  0  0  0  0  0  0  0  0
    6.1041    2.7733   25.3687 C   0  0  0  0  0  0  0  0  0  0  0  0
    6.7890    3.1635   26.7168 C   0  0  1  0  0  0  0  0  0  0  0  0
    7.7208    2.0279   27.1932 C   0  0  0  0  0  0  0  0  0  0  0  0
    8.8466    2.0506   26.1198 C   0  0  0  0  0  0  0  0  0  0  0  0
    8.4568    3.2402   25.2134 C   0  0  2  0  0  0  0  0  0  0  0  0
    7.8203    4.2047   26.2388 C   0  0  0  0  0  0  0  0  0  0  0  0
    7.3621    5.1120   25.8191 H   0  0  0  0  0  0  0  0  0  0  0  0
    8.5179    4.5257   27.0261 H   0  0  0  0  0  0  0  0  0  0  0  0
    9.3017    3.6352   24.6445 H   0  0  0  0  0  0  0  0  0  0  0  0
    8.9465    1.1052   25.5866 H   0  0  0  0  0  0  0  0  0  0  0  0
    9.8385    2.2231   26.5263 H   0  0  0  0  0  0  0  0  0  0  0  0
    7.1887    1.0713   27.2698 H   0  0  0  0  0  0  0  0  0  0  0  0
    8.1465    2.2442   28.1809 H   0  0  0  0  0  0  0  0  0  0  0  0
    6.0822    3.4884   27.4870 H   0  0  0  0  0  0  0  0  0  0  0  0
    5.3104    3.4881   25.1243 H   0  0  0  0  0  0  0  0  0  0  0  0
    5.6562    1.7722   25.3821 H   0  0  0  0  0  0  0  0  0  0  0  0
    7.0422    3.7500   23.6678 H   0  0  0  0  0  0  0  0  0  0  0  0
    8.4167    1.8243   22.9477 H   0  0  0  0  0  0  0  0  0  0  0  0
    7.7460    0.9082   24.1760 H   0  0  0  0  0  0  0  0  0  0  0  0
    6.4071    1.7524   21.7391 H   0  0  0  0  0  0  0  0  0  0  0  0
    5.5947    0.9759   23.0925 H   0  0  0  0  0  0  0  0  0  0  0  0
    7.1187   -0.7506   20.8785 C   0  0  0  0  0  0  0  0  0  0  0  0
    6.4530   -0.1134   19.7368 C   0  0  0  0  0  0  0  0  0  0  0  0
    5.2087    0.5285   19.8588 C   0  0  0  0  0  0  0  0  0  0  0  0
    4.7343    1.2822   18.7909 C   0  0  0  0  0  0  0  0  0  0  0  0
    5.4817    1.3157   17.6120 C   0  0  0  0  0  0  0  0  0  0  0  0
    6.6279    0.6383   17.4520 N   0  0  0  0  0  0  0  0  0  0  0  0
    7.0993   -0.0551   18.4926 C   0  0  0  0  0  0  0  0  0  0  0  0
    8.0518   -0.5614   18.3376 H   0  0  0  0  0  0  0  0  0  0  0  0
    5.1501    1.9144   16.7655 H   0  0  0  0  0  0  0  0  0  0  0  0
    3.8302    1.8693   18.8773 H   0  0  0  0  0  0  0  0  0  0  0  0
    4.6259    0.4517   20.7784 H   0  0  0  0  0  0  0  0  0  0  0  0
    7.7958   -1.8929   20.8005 N   0  0  0  0  0  0  0  0  0  0  0  0
    8.2174   -1.2685   23.9415 H   0  0  0  0  0  0  0  0  0  0  0  0
    8.7147   -4.0998   21.6467 H   0  0  0  0  0  0  0  0  0  0  0  0
   10.0708   -3.1389   22.3276 H   0  0  0  0  0  0  0  0  0  0  0  0
    8.7295   -3.6654   23.3727 H   0  0  0  0  0  0  0  0  0  0  0  0
  1  2  1  0
  2  3  1  0
  3  4  2  0
  4  5  1  0
  5  6  1  0
  6  7  1  0
  7  8  1  0
  8  9  1  0
  9 10  1  0
 10 11  1  0
 11 12  1  0
 12 13  1  0
 13 14  1  0
 13 15  1  0
 12 16  1  6
 11 17  1  0
 11 18  1  0
 10 19  1  0
 10 20  1  0
  9 21  1  1
  8 22  1  0
  8 23  1  0
  7 24  1  6
  6 25  1  0
  6 26  1  0
  5 27  1  0
  5 28  1  0
  4 29  1  0
 29 30  1  0
 30 31  2  0
 31 32  1  0
 32 33  2  0
 33 34  1  0
 34 35  2  0
 35 36  1  0
 33 37  1  0
 32 38  1  0
 31 39  1  0
 29 40  2  0
  3 41  1  0
  1 42  1  0
  1 43  1  0
  1 44  1  0
 40  2  1  0
 12  7  1  0
 35 30  1  0
 13  9  1  0
M  CHG  1   6   1
M  END
>  <plip>  (1) 
-0.07142857142857142

>  <filename>  (1) 
[H][c]1[n][c]([H])[c](-[c]2[n][n]([C]([H])([H])[H])[c]([H])[c]2[C]([H])([H])[N+]([H])([H])[C@@]2([H])[C]([H])([H])[C@@]3([H])[C]([H])([H])[C]([H])([H])[C@]2([H])[C]3([H])[H])[c]([H])[c]1[H]

$$$$
