
     RDKit          3D

 30 32  0  0  0  0  0  0  0  0999 V2000
    4.9095    1.8328   16.9590 H   0  0  0  0  0  0  0  0  0  0  0  0
    5.3729    1.3221   17.8006 C   0  0  0  0  0  0  0  0  0  0  0  0
    6.5307    0.6997   17.5276 N   0  0  0  0  0  0  0  0  0  0  0  0
    7.1485    0.0821   18.5383 C   0  0  0  0  0  0  0  0  0  0  0  0
    8.0952   -0.4018   18.3060 H   0  0  0  0  0  0  0  0  0  0  0  0
    6.6516    0.0294   19.8572 C   0  0  0  0  0  0  0  0  0  0  0  0
    7.3805   -0.6663   20.8875 C   0  0  0  0  0  0  0  0  0  0  0  0
    7.9587   -1.2553   21.7739 C   0  0  0  0  0  0  0  0  0  0  0  0
    8.5242   -1.8631   22.9311 C   0  0  0  0  0  0  0  0  0  0  0  0
    8.1469   -1.9009   24.2695 C   0  0  0  0  0  0  0  0  0  0  0  0
    7.0691   -1.3204   24.8837 O   0  0  0  0  0  0  0  0  0  0  0  0
    6.6020   -0.0878   24.4885 C   0  0  0  0  0  0  0  0  0  0  0  0
    5.2328    0.1495   24.7049 C   0  0  0  0  0  0  0  0  0  0  0  0
    4.6274   -0.6399   25.1524 H   0  0  0  0  0  0  0  0  0  0  0  0
    4.6071    1.2684   24.3176 N   0  0  0  0  0  0  0  0  0  0  0  0
    5.3539    2.2343   23.7583 C   0  0  0  0  0  0  0  0  0  0  0  0
    4.8087    3.1191   23.4361 H   0  0  0  0  0  0  0  0  0  0  0  0
    6.7391    2.1376   23.5938 C   0  0  0  0  0  0  0  0  0  0  0  0
    7.2762    2.9893   23.1768 H   0  0  0  0  0  0  0  0  0  0  0  0
    7.3911    0.9506   23.9731 C   0  0  0  0  0  0  0  0  0  0  0  0
    8.4655    0.8152   23.8509 H   0  0  0  0  0  0  0  0  0  0  0  0
    9.0746   -2.7388   24.9131 C   0  0  0  0  0  0  0  0  0  0  0  0
    9.1044   -3.0492   25.9511 H   0  0  0  0  0  0  0  0  0  0  0  0
    9.9864   -3.1718   24.0507 N   0  0  0  0  0  0  0  0  0  0  0  0
    9.6400   -2.6418   22.8809 N   0  0  0  0  0  0  0  0  0  0  0  0
   10.1947   -2.8331   22.0625 H   0  0  0  0  0  0  0  0  0  0  0  0
    5.4342    0.6811   20.1171 C   0  0  0  0  0  0  0  0  0  0  0  0
    5.0297    0.6647   21.1314 H   0  0  0  0  0  0  0  0  0  0  0  0
    4.7780    1.3369   19.0695 C   0  0  0  0  0  0  0  0  0  0  0  0
    3.8372    1.8692   19.2046 H   0  0  0  0  0  0  0  0  0  0  0  0
  1  2  1  0
  2  3  2  0
  3  4  1  0
  4  5  1  0
  4  6  2  0
  6  7  1  0
  7  8  3  0
  8  9  1  0
  9 10  2  0
 10 11  1  0
 11 12  1  0
 12 13  2  0
 13 14  1  0
 13 15  1  0
 15 16  2  0
 16 17  1  0
 16 18  1  0
 18 19  1  0
 18 20  2  0
 20 21  1  0
 10 22  1  0
 22 23  1  0
 22 24  2  0
 24 25  1  0
 25 26  1  0
  6 27  1  0
 27 28  1  0
 27 29  2  0
 29 30  1  0
 29  2  1  0
 25  9  1  0
 20 12  1  0
M  END
>  <plip>  (1) 
-0.06896551724137931

>  <filename>  (1) 
[H][c]1[n][c]([H])[c]([C]#[C][c]2[c]([O][c]3[c]([H])[n][c]([H])[c]([H])[c]3[H])[c]([H])[n][n]2[H])[c]([H])[c]1[H]

$$$$
