
     RDKit          3D

 29 31  0  0  0  0  0  0  0  0999 V2000
    9.5303   -0.8080   20.3199 H   0  0  0  0  0  0  0  0  0  0  0  0
    8.7651   -1.0362   21.0500 C   0  0  0  0  0  0  0  0  0  0  0  0
    9.1384   -1.7189   22.1798 N   0  0  0  0  0  0  0  0  0  0  0  0
    8.1138   -1.9532   22.9385 C   0  0  0  0  0  0  0  0  0  0  0  0
    8.2851   -2.6495   24.2507 C   0  0  0  0  0  0  0  0  0  0  0  0
    9.1663   -3.2943   24.1767 H   0  0  0  0  0  0  0  0  0  0  0  0
    7.4253   -3.2710   24.5174 H   0  0  0  0  0  0  0  0  0  0  0  0
    8.4531   -1.5582   25.2677 C   0  0  0  0  0  0  0  0  0  0  0  0
    7.3192   -1.1595   25.8458 N   0  0  0  0  0  0  0  0  0  0  0  0
    7.3751   -0.1438   26.7114 C   0  0  0  0  0  0  0  0  0  0  0  0
    6.4285    0.1408   27.1675 H   0  0  0  0  0  0  0  0  0  0  0  0
    8.5510    0.5315   27.0302 C   0  0  0  0  0  0  0  0  0  0  0  0
    8.5029    1.3772   27.6998 H   0  0  0  0  0  0  0  0  0  0  0  0
    9.7442    0.1049   26.4386 C   0  0  0  0  0  0  0  0  0  0  0  0
   10.6865    0.5863   26.6890 H   0  0  0  0  0  0  0  0  0  0  0  0
    9.6882   -0.9395   25.5166 C   0  0  0  0  0  0  0  0  0  0  0  0
   10.5664   -1.2513   24.9719 H   0  0  0  0  0  0  0  0  0  0  0  0
    6.6330   -1.2685   22.3721 S   0  0  0  0  0  0  0  0  0  0  0  0
    7.4380   -0.6979   20.9438 C   0  0  0  0  0  0  0  0  0  0  0  0
    6.6938    0.0016   19.8748 C   0  0  0  0  0  0  0  0  0  0  0  0
    7.1748    0.0443   18.5470 C   0  0  0  0  0  0  0  0  0  0  0  0
    8.1038   -0.4698   18.3025 H   0  0  0  0  0  0  0  0  0  0  0  0
    6.5669    0.6735   17.5337 N   0  0  0  0  0  0  0  0  0  0  0  0
    5.4146    1.3058   17.8053 C   0  0  0  0  0  0  0  0  0  0  0  0
    4.9416    1.8275   16.9761 H   0  0  0  0  0  0  0  0  0  0  0  0
    4.8219    1.3112   19.0729 C   0  0  0  0  0  0  0  0  0  0  0  0
    3.8844    1.8340   19.2270 H   0  0  0  0  0  0  0  0  0  0  0  0
    5.4666    0.6546   20.1210 C   0  0  0  0  0  0  0  0  0  0  0  0
    5.0365    0.6612   21.1234 H   0  0  0  0  0  0  0  0  0  0  0  0
  1  2  1  0
  2  3  1  0
  3  4  2  0
  4  5  1  0
  5  6  1  0
  5  7  1  0
  5  8  1  0
  8  9  2  0
  9 10  1  0
 10 11  1  0
 10 12  2  0
 12 13  1  0
 12 14  1  0
 14 15  1  0
 14 16  2  0
 16 17  1  0
  4 18  1  0
 18 19  1  0
 19 20  1  0
 20 21  2  0
 21 22  1  0
 21 23  1  0
 23 24  2  0
 24 25  1  0
 24 26  1  0
 26 27  1  0
 26 28  2  0
 28 29  1  0
 19  2  2  0
 28 20  1  0
 16  8  1  0
M  END
>  <plip>  (1) 
-0.06896551724137931

>  <filename>  (1) 
[H][c]1[n][c]([C]([H])([H])[c]2[n][c]([H])[c]([H])[c]([H])[c]2[H])[s][c]1-[c]1[c]([H])[n][c]([H])[c]([H])[c]1[H]

$$$$
