
     RDKit          3D

 27 27  0  0  0  0  0  0  0  0999 V2000
    5.0850    1.7249   17.0425 H   0  0  0  0  0  0  0  0  0  0  0  0
    5.5061    1.2230   17.9100 C   0  0  0  0  0  0  0  0  0  0  0  0
    6.6671    0.5693   17.7111 N   0  0  0  0  0  0  0  0  0  0  0  0
    7.2013   -0.0472   18.7669 C   0  0  0  0  0  0  0  0  0  0  0  0
    8.1398   -0.5752   18.5981 H   0  0  0  0  0  0  0  0  0  0  0  0
    6.6403   -0.0610   20.0571 C   0  0  0  0  0  0  0  0  0  0  0  0
    7.4136   -0.7723   21.0152 N   0  0  0  0  0  0  0  0  0  0  0  0
    6.9281   -0.8390   22.1663 N   0  0  0  0  0  0  0  0  0  0  0  0
    7.7055   -1.5572   22.9697 N   0  0  0  0  0  0  0  0  0  0  0  0
    8.6351   -1.6707   22.5813 H   0  0  0  0  0  0  0  0  0  0  0  0
    7.4364   -1.6429   24.3910 C   0  0  0  0  0  0  0  0  0  0  0  0
    8.3489   -2.0066   24.8785 H   0  0  0  0  0  0  0  0  0  0  0  0
    7.2312   -0.6461   24.8142 H   0  0  0  0  0  0  0  0  0  0  0  0
    6.2518   -2.5377   24.7798 C   0  0  0  0  0  0  0  0  0  0  0  0
    5.3401   -2.0959   24.3574 H   0  0  0  0  0  0  0  0  0  0  0  0
    6.1479   -2.4449   25.8651 H   0  0  0  0  0  0  0  0  0  0  0  0
    6.3079   -4.0318   24.4388 C   0  0  0  0  0  0  0  0  0  0  0  0
    5.4204   -4.4903   24.8962 H   0  0  0  0  0  0  0  0  0  0  0  0
    7.1577   -4.4936   24.9633 H   0  0  0  0  0  0  0  0  0  0  0  0
    6.3386   -4.3979   22.9518 C   0  0  0  0  0  0  0  0  0  0  0  0
    6.1238   -5.4653   22.8217 H   0  0  0  0  0  0  0  0  0  0  0  0
    7.3068   -4.1875   22.4869 H   0  0  0  0  0  0  0  0  0  0  0  0
    5.5803   -3.8417   22.3879 H   0  0  0  0  0  0  0  0  0  0  0  0
    5.4199    0.6119   20.2527 C   0  0  0  0  0  0  0  0  0  0  0  0
    4.9574    0.6156   21.2384 H   0  0  0  0  0  0  0  0  0  0  0  0
    4.8507    1.2644   19.1476 C   0  0  0  0  0  0  0  0  0  0  0  0
    3.9168    1.8128   19.2412 H   0  0  0  0  0  0  0  0  0  0  0  0
  1  2  1  0
  2  3  2  0
  3  4  1  0
  4  5  1  0
  4  6  2  0
  6  7  1  0
  7  8  2  3
  8  9  1  0
  9 10  1  0
  9 11  1  0
 11 12  1  0
 11 13  1  0
 11 14  1  0
 14 15  1  0
 14 16  1  0
 14 17  1  0
 17 18  1  0
 17 19  1  0
 17 20  1  0
 20 21  1  0
 20 22  1  0
 20 23  1  0
  6 24  1  0
 24 25  1  0
 24 26  2  0
 26 27  1  0
 26  2  1  0
M  END
>  <plip>  (1) 
-0.03571428571428571

>  <filename>  (1) 
[H][c]1[n][c]([H])[c]([N]=[N][N]([H])[C]([H])([H])[C]([H])([H])[C]([H])([H])[C]([H])([H])[H])[c]([H])[c]1[H]

$$$$
