
     RDKit          3D

 36 38  0  0  0  0  0  0  0  0999 V2000
    9.0872   -0.9456   26.7870 H   0  0  0  0  0  0  0  0  0  0  0  0
    8.8596   -1.6328   27.4331 O   0  0  0  0  0  0  0  0  0  0  0  0
    8.5621   -2.7339   26.7019 C   0  0  0  0  0  0  0  0  0  0  0  0
    8.2156   -3.9086   27.3624 C   0  0  0  0  0  0  0  0  0  0  0  0
    8.1966   -3.9251   28.4391 H   0  0  0  0  0  0  0  0  0  0  0  0
    7.8999   -5.0551   26.6338 C   0  0  0  0  0  0  0  0  0  0  0  0
    7.4375   -6.4771   27.5041 Cl  0  0  0  0  0  0  0  0  0  0  0  0
    7.9380   -5.0690   25.2436 C   0  0  0  0  0  0  0  0  0  0  0  0
    7.6769   -5.9685   24.6945 H   0  0  0  0  0  0  0  0  0  0  0  0
    8.3006   -3.8941   24.5796 C   0  0  0  0  0  0  0  0  0  0  0  0
    8.3514   -3.8752   23.4986 H   0  0  0  0  0  0  0  0  0  0  0  0
    8.5939   -2.7300   25.2927 C   0  0  0  0  0  0  0  0  0  0  0  0
    8.9443   -1.5250   24.6960 O   0  0  0  0  0  0  0  0  0  0  0  0
    8.4434   -1.2322   23.4447 C   0  0  0  0  0  0  0  0  0  0  0  0
    9.2563   -0.7932   22.4865 C   0  0  0  0  0  0  0  0  0  0  0  0
   10.3025   -0.6147   22.7065 H   0  0  0  0  0  0  0  0  0  0  0  0
    8.7882   -0.5449   21.0719 C   0  0  0  0  0  0  0  0  0  0  0  0
    9.1260    0.4596   20.7621 H   0  0  0  0  0  0  0  0  0  0  0  0
    9.3034   -1.2588   20.3922 H   0  0  0  0  0  0  0  0  0  0  0  0
    7.3345   -0.6139   20.9523 N   0  0  0  0  0  0  0  0  0  0  0  0
    6.6793    0.0128   19.8778 C   0  0  0  0  0  0  0  0  0  0  0  0
    7.1978    0.0893   18.5553 C   0  0  0  0  0  0  0  0  0  0  0  0
    8.1500   -0.3849   18.3212 H   0  0  0  0  0  0  0  0  0  0  0  0
    6.5872    0.7083   17.5331 N   0  0  0  0  0  0  0  0  0  0  0  0
    5.4158    1.3151   17.7824 C   0  0  0  0  0  0  0  0  0  0  0  0
    4.9448    1.8291   16.9473 H   0  0  0  0  0  0  0  0  0  0  0  0
    4.8077    1.3026   19.0428 C   0  0  0  0  0  0  0  0  0  0  0  0
    3.8645    1.8133   19.1939 H   0  0  0  0  0  0  0  0  0  0  0  0
    5.4376    0.6380   20.0967 C   0  0  0  0  0  0  0  0  0  0  0  0
    5.0181    0.6239   21.1009 H   0  0  0  0  0  0  0  0  0  0  0  0
    6.6722   -1.6424   21.7535 C   0  0  0  0  0  0  0  0  0  0  0  0
    5.5951   -1.6607   21.5474 H   0  0  0  0  0  0  0  0  0  0  0  0
    7.0555   -2.6472   21.4881 H   0  0  0  0  0  0  0  0  0  0  0  0
    6.9543   -1.3756   23.2365 C   0  0  0  0  0  0  0  0  0  0  0  0
    6.5521   -2.1802   23.8547 H   0  0  0  0  0  0  0  0  0  0  0  0
    6.4573   -0.4492   23.5568 H   0  0  0  0  0  0  0  0  0  0  0  0
  1  2  1  0
  2  3  1  0
  3  4  2  0
  4  5  1  0
  4  6  1  0
  6  7  1  0
  6  8  2  0
  8  9  1  0
  8 10  1  0
 10 11  1  0
 10 12  2  0
 12 13  1  0
 13 14  1  0
 14 15  2  0
 15 16  1  0
 15 17  1  0
 17 18  1  0
 17 19  1  0
 17 20  1  0
 20 21  1  0
 21 22  2  0
 22 23  1  0
 22 24  1  0
 24 25  2  0
 25 26  1  0
 25 27  1  0
 27 28  1  0
 27 29  2  0
 29 30  1  0
 20 31  1  0
 31 32  1  0
 31 33  1  0
 31 34  1  0
 34 35  1  0
 34 36  1  0
 12  3  1  0
 34 14  1  0
 29 21  1  0
M  END
>  <plip>  (1) 
-0.10714285714285714

>  <filename>  (1) 
[H][O][c]1[c]([H])[c]([Cl])[c]([H])[c]([H])[c]1[O][C]1=[C]([H])[C]([H])([H])[N]([c]2[c]([H])[n][c]([H])[c]([H])[c]2[H])[C]([H])([H])[C]1([H])[H]

$$$$
