
     RDKit          3D

 42 42  0  0  0  0  0  0  0  0999 V2000
    1.1427   -6.3065   21.7892 C   0  0  0  0  0  0  0  0  0  0  0  0
    1.6549   -5.0829   22.5530 C   0  0  0  0  0  0  0  0  0  0  0  0
    2.8163   -5.3188   23.3286 O   0  0  0  0  0  0  0  0  0  0  0  0
    4.1061   -5.1504   22.7518 C   0  0  0  0  0  0  0  0  0  0  0  0
    4.6891   -3.7758   23.1094 C   0  0  0  0  0  0  0  0  0  0  0  0
    6.1354   -3.4435   22.6900 C   0  0  0  0  0  0  0  0  0  0  0  0
    6.5269   -3.3502   20.9582 S   0  0  0  0  0  0  0  0  0  0  0  0
    7.2763   -4.5370   20.6005 O   0  0  0  0  0  0  0  0  0  0  0  0
    5.3741   -2.9332   20.1916 O   0  0  0  0  0  0  0  0  0  0  0  0
    7.7228   -2.1770   20.8887 N   0  0  0  0  0  0  0  0  0  0  0  0
    7.4733   -0.7378   21.0944 C   0  0  1  0  0  0  0  0  0  0  0  0
    8.8529   -0.0558   21.3086 C   0  0  0  0  0  0  0  0  0  0  0  0
    8.6904    1.3079   21.6519 O   0  0  0  0  0  0  0  0  0  0  0  0
    9.8979    2.0088   21.8534 C   0  0  0  0  0  0  0  0  0  0  0  0
   10.5346    2.0207   20.9528 H   0  0  0  0  0  0  0  0  0  0  0  0
   10.4841    1.5890   22.6878 H   0  0  0  0  0  0  0  0  0  0  0  0
    9.6291    3.0407   22.1001 H   0  0  0  0  0  0  0  0  0  0  0  0
    9.3688   -0.6095   22.1065 H   0  0  0  0  0  0  0  0  0  0  0  0
    9.4658   -0.1581   20.3941 H   0  0  0  0  0  0  0  0  0  0  0  0
    6.6883   -0.1240   19.9579 C   0  0  0  0  0  0  0  0  0  0  0  0
    5.5018    0.5944   20.1801 C   0  0  0  0  0  0  0  0  0  0  0  0
    4.8999    1.2608   19.1066 C   0  0  0  0  0  0  0  0  0  0  0  0
    5.5169    1.1909   17.8503 C   0  0  0  0  0  0  0  0  0  0  0  0
    6.6379    0.4933   17.6111 N   0  0  0  0  0  0  0  0  0  0  0  0
    7.1931   -0.1462   18.6506 C   0  0  0  0  0  0  0  0  0  0  0  0
    8.1188   -0.6765   18.4111 H   0  0  0  0  0  0  0  0  0  0  0  0
    5.0856    1.7108   16.9981 H   0  0  0  0  0  0  0  0  0  0  0  0
    3.9918    1.8408   19.2351 H   0  0  0  0  0  0  0  0  0  0  0  0
    5.0645    0.6384   21.1815 H   0  0  0  0  0  0  0  0  0  0  0  0
    6.9230   -0.6054   22.0371 H   0  0  0  0  0  0  0  0  0  0  0  0
    8.0014   -2.3928   19.9337 H   0  0  0  0  0  0  0  0  0  0  0  0
    6.8854   -4.1427   23.0669 H   0  0  0  0  0  0  0  0  0  0  0  0
    6.4006   -2.4418   23.0410 H   0  0  0  0  0  0  0  0  0  0  0  0
    4.6400   -3.6773   24.2014 H   0  0  0  0  0  0  0  0  0  0  0  0
    4.0531   -3.0088   22.6734 H   0  0  0  0  0  0  0  0  0  0  0  0
    4.1076   -5.3007   21.6610 H   0  0  0  0  0  0  0  0  0  0  0  0
    4.7203   -5.9381   23.2061 H   0  0  0  0  0  0  0  0  0  0  0  0
    0.8806   -4.7622   23.2634 H   0  0  0  0  0  0  0  0  0  0  0  0
    1.7901   -4.2555   21.8478 H   0  0  0  0  0  0  0  0  0  0  0  0
    0.4985   -5.9813   20.9642 H   0  0  0  0  0  0  0  0  0  0  0  0
    1.9542   -6.8966   21.3506 H   0  0  0  0  0  0  0  0  0  0  0  0
    0.5531   -6.9576   22.4421 H   0  0  0  0  0  0  0  0  0  0  0  0
  1  2  1  0
  2  3  1  0
  3  4  1  0
  4  5  1  0
  5  6  1  0
  6  7  1  0
  7  8  2  0
  7  9  2  0
  7 10  1  0
 10 11  1  0
 11 12  1  0
 12 13  1  0
 13 14  1  0
 14 15  1  0
 14 16  1  0
 14 17  1  0
 12 18  1  0
 12 19  1  0
 11 20  1  0
 20 21  2  0
 21 22  1  0
 22 23  2  0
 23 24  1  0
 24 25  2  0
 25 26  1  0
 23 27  1  0
 22 28  1  0
 21 29  1  0
 11 30  1  1
 10 31  1  0
  6 32  1  0
  6 33  1  0
  5 34  1  0
  5 35  1  0
  4 36  1  0
  4 37  1  0
  2 38  1  0
  2 39  1  0
  1 40  1  0
  1 41  1  0
  1 42  1  0
 25 20  1  0
M  END
>  <plip>  (1) 
-0.1935483870967742

>  <filename>  (1) 
[H][c]1[n][c]([H])[c]([C@@]([H])([N]([H])[S](=[O])(=[O])[C]([H])([H])[C]([H])([H])[C]([H])([H])[O][C]([H])([H])[C]([H])([H])[H])[C]([H])([H])[O][C]([H])([H])[H])[c]([H])[c]1[H]

$$$$
