
     RDKit          3D

 28 29  0  0  0  0  0  0  0  0999 V2000
    5.6344   -7.3563   21.3637 H   0  0  0  0  0  0  0  0  0  0  0  0
    6.5108   -6.8444   21.7588 C   0  0  0  0  0  0  0  0  0  0  0  0
    6.5043   -5.5072   21.7005 N   0  0  0  0  0  0  0  0  0  0  0  0
    7.5724   -4.8553   22.1903 C   0  0  0  0  0  0  0  0  0  0  0  0
    7.6082   -3.3489   22.0700 C   0  0  0  0  0  0  0  0  0  0  0  0
    7.8210   -2.9020   23.0481 H   0  0  0  0  0  0  0  0  0  0  0  0
    6.6408   -3.0081   21.6830 H   0  0  0  0  0  0  0  0  0  0  0  0
    8.6831   -2.9537   21.1243 O   0  0  0  0  0  0  0  0  0  0  0  0
    8.9842   -1.3404   21.0006 S   0  0  0  0  0  4  0  0  0  0  0  0
    9.2032   -0.7704   22.3415 O   0  0  0  0  0  0  0  0  0  0  0  0
    7.3405   -0.8219   20.8642 N   0  0  0  0  0  0  0  0  0  0  0  0
    7.2423   -0.3817   21.7840 H   0  0  0  0  0  0  0  0  0  0  0  0
    6.7351   -0.0793   19.8178 C   0  0  0  0  0  0  0  0  0  0  0  0
    7.2008    0.0073   18.4826 C   0  0  0  0  0  0  0  0  0  0  0  0
    8.1320   -0.4865   18.2033 H   0  0  0  0  0  0  0  0  0  0  0  0
    6.5627    0.6893   17.5212 N   0  0  0  0  0  0  0  0  0  0  0  0
    5.4151    1.3060   17.8471 C   0  0  0  0  0  0  0  0  0  0  0  0
    4.9150    1.8477   17.0507 H   0  0  0  0  0  0  0  0  0  0  0  0
    4.8680    1.2704   19.1333 C   0  0  0  0  0  0  0  0  0  0  0  0
    3.9393    1.7879   19.3421 H   0  0  0  0  0  0  0  0  0  0  0  0
    5.5377    0.5731   20.1395 C   0  0  0  0  0  0  0  0  0  0  0  0
    5.1600    0.5207   21.1595 H   0  0  0  0  0  0  0  0  0  0  0  0
    8.6400   -5.5148   22.8145 C   0  0  0  0  0  0  0  0  0  0  0  0
    9.4149   -4.9301   23.2937 H   0  0  0  0  0  0  0  0  0  0  0  0
    8.6755   -6.9069   22.8093 C   0  0  0  0  0  0  0  0  0  0  0  0
    9.5357   -7.4514   23.2026 H   0  0  0  0  0  0  0  0  0  0  0  0
    7.5809   -7.5801   22.2653 C   0  0  0  0  0  0  0  0  0  0  0  0
    7.5659   -8.6522   22.1913 H   0  0  0  0  0  0  0  0  0  0  0  0
  1  2  1  0
  2  3  2  0
  3  4  1  0
  4  5  1  0
  5  6  1  0
  5  7  1  0
  5  8  1  0
  9  8  1  1
  9 10  2  0
  9 11  1  0
 11 12  1  0
 11 13  1  0
 13 14  2  0
 14 15  1  0
 14 16  1  0
 16 17  2  0
 17 18  1  0
 17 19  1  0
 19 20  1  0
 19 21  2  0
 21 22  1  0
  4 23  2  0
 23 24  1  0
 23 25  1  0
 25 26  1  0
 25 27  2  0
 27 28  1  0
 27  2  1  0
 21 13  1  0
M  END
>  <plip>  (1) 
-0.13333333333333333

>  <filename>  (1) 
[H][c]1[n][c]([C]([H])([H])[O][S@](=[O])[N]([H])[c]2[c]([H])[n][c]([H])[c]([H])[c]2[H])[c]([H])[c]([H])[c]1[H]

$$$$
