
     RDKit          3D

 39 41  0  0  0  0  0  0  0  0999 V2000
    6.8001    1.5035   24.5435 C   0  0  0  0  0  0  0  0  0  0  0  0
    5.6183    0.6260   24.9063 C   0  0  0  0  0  0  0  0  0  0  0  0
    4.3652    1.1965   25.1966 C   0  0  0  0  0  0  0  0  0  0  0  0
    3.2610    0.4134   25.5537 C   0  0  0  0  0  0  0  0  0  0  0  0
    3.3911   -0.9739   25.6712 C   0  0  0  0  0  0  0  0  0  0  0  0
    4.6206   -1.5711   25.3884 C   0  0  0  0  0  0  0  0  0  0  0  0
    5.6815   -0.7824   24.9419 C   0  0  0  0  0  0  0  0  0  0  0  0
    6.8008   -1.4926   24.5518 O   0  0  0  0  0  0  0  0  0  0  0  0
    7.3352   -1.3884   23.3153 C   0  0  0  0  0  0  0  0  0  0  0  0
    6.6520   -0.8295   22.3409 N   0  0  0  0  0  0  0  0  0  0  0  0
    7.2933   -0.6885   21.1827 C   0  0  0  0  0  0  0  0  0  0  0  0
    6.5837   -0.0119   20.0895 C   0  0  0  0  0  0  0  0  0  0  0  0
    5.3541    0.6605   20.2308 C   0  0  0  0  0  0  0  0  0  0  0  0
    4.8191    1.2891   19.1091 C   0  0  0  0  0  0  0  0  0  0  0  0
    5.5155    1.2189   17.8956 C   0  0  0  0  0  0  0  0  0  0  0  0
    6.6721    0.5620   17.7462 N   0  0  0  0  0  0  0  0  0  0  0  0
    7.1878   -0.0309   18.8249 C   0  0  0  0  0  0  0  0  0  0  0  0
    8.1287   -0.5569   18.6800 H   0  0  0  0  0  0  0  0  0  0  0  0
    5.1283    1.7013   17.0011 H   0  0  0  0  0  0  0  0  0  0  0  0
    3.8847    1.8391   19.1475 H   0  0  0  0  0  0  0  0  0  0  0  0
    4.8282    0.6864   21.1924 H   0  0  0  0  0  0  0  0  0  0  0  0
    8.5430   -1.0782   20.9629 N   0  0  0  0  0  0  0  0  0  0  0  0
    9.2052   -1.6605   21.9723 C   0  0  0  0  0  0  0  0  0  0  0  0
   10.6226   -2.0251   21.6691 C   0  0  0  0  0  0  0  0  0  0  0  0
   11.0055   -2.8245   22.3075 H   0  0  0  0  0  0  0  0  0  0  0  0
   10.6435   -2.3445   20.6361 H   0  0  0  0  0  0  0  0  0  0  0  0
   11.2748   -1.1571   21.7711 H   0  0  0  0  0  0  0  0  0  0  0  0
    8.6302   -1.9067   23.2067 C   0  0  0  0  0  0  0  0  0  0  0  0
    9.2905   -2.6475   24.3589 C   0  0  0  0  0  0  0  0  0  0  0  0
    9.2773   -3.7347   24.2031 H   0  0  0  0  0  0  0  0  0  0  0  0
   10.3368   -2.3517   24.4901 H   0  0  0  0  0  0  0  0  0  0  0  0
    8.7426   -2.4395   25.2842 H   0  0  0  0  0  0  0  0  0  0  0  0
    4.7639   -2.6470   25.4314 H   0  0  0  0  0  0  0  0  0  0  0  0
    2.5418   -1.5913   25.9565 H   0  0  0  0  0  0  0  0  0  0  0  0
    2.3039    0.8873   25.7450 H   0  0  0  0  0  0  0  0  0  0  0  0
    4.2698    2.2797   25.1482 H   0  0  0  0  0  0  0  0  0  0  0  0
    7.7553    1.0394   24.8136 H   0  0  0  0  0  0  0  0  0  0  0  0
    6.8296    1.6680   23.4609 H   0  0  0  0  0  0  0  0  0  0  0  0
    6.7418    2.4839   25.0263 H   0  0  0  0  0  0  0  0  0  0  0  0
  1  2  1  0
  2  3  2  0
  3  4  1  0
  4  5  2  0
  5  6  1  0
  6  7  2  0
  7  8  1  0
  8  9  1  0
  9 10  2  0
 10 11  1  0
 11 12  1  0
 12 13  2  0
 13 14  1  0
 14 15  2  0
 15 16  1  0
 16 17  2  0
 17 18  1  0
 15 19  1  0
 14 20  1  0
 13 21  1  0
 11 22  2  0
 22 23  1  0
 23 24  1  0
 24 25  1  0
 24 26  1  0
 24 27  1  0
 23 28  2  0
 28 29  1  0
 29 30  1  0
 29 31  1  0
 29 32  1  0
  6 33  1  0
  5 34  1  0
  4 35  1  0
  3 36  1  0
  1 37  1  0
  1 38  1  0
  1 39  1  0
  7  2  1  0
 28  9  1  0
 17 12  1  0
M  END
>  <plip>  (1) 
-0.0

>  <filename>  (1) 
[H][c]1[n][c]([H])[c](-[c]2[n][c]([O][c]3[c]([H])[c]([H])[c]([H])[c]([H])[c]3[C]([H])([H])[H])[c]([C]([H])([H])[H])[c]([C]([H])([H])[H])[n]2)[c]([H])[c]1[H]

$$$$
