
     RDKit          3D

 43 45  0  0  0  0  0  0  0  0999 V2000
    6.0401   -4.0531   20.5691 C   0  0  0  0  0  0  0  0  0  0  0  0
    6.6519   -2.8087   20.3598 O   0  0  0  0  0  0  0  0  0  0  0  0
    6.6836   -1.9526   21.4725 C   0  0  0  0  0  0  0  0  0  0  0  0
    7.3821   -0.6592   21.0445 C   0  0  2  0  0  0  0  0  0  0  0  0
    7.5645    0.1953   22.2090 N   0  0  0  0  0  0  0  0  0  0  0  0
    8.3387    1.3057   22.1380 C   0  0  0  0  0  0  0  0  0  0  0  0
    9.0742    1.5203   21.1884 O   0  0  0  0  0  0  0  0  0  0  0  0
    8.2564    2.2249   23.3086 C   0  0  0  0  0  0  0  0  0  0  0  0
    7.0831    2.3549   24.0973 C   0  0  0  0  0  0  0  0  0  0  0  0
    6.9514    3.2148   25.0787 N   0  0  0  0  0  0  0  0  0  0  0  0
    7.9998    4.0505   25.3730 C   0  0  0  0  0  0  0  0  0  0  0  0
    7.8472    5.0001   26.4454 C   0  0  0  0  0  0  0  0  0  0  0  0
    6.5665    5.1048   27.2461 C   0  0  0  0  0  0  0  0  0  0  0  0
    6.0906    6.0813   27.0829 H   0  0  0  0  0  0  0  0  0  0  0  0
    5.8491    4.3218   26.9821 H   0  0  0  0  0  0  0  0  0  0  0  0
    6.7924    5.0308   28.3164 H   0  0  0  0  0  0  0  0  0  0  0  0
    8.9361    5.8175   26.7059 C   0  0  0  0  0  0  0  0  0  0  0  0
    8.8634    6.9720   28.0074 Cl  0  0  0  0  0  0  0  0  0  0  0  0
   10.1483    5.7771   25.9674 C   0  0  0  0  0  0  0  0  0  0  0  0
   10.2869    4.8886   24.9352 C   0  0  0  0  0  0  0  0  0  0  0  0
    9.2302    3.9940   24.6227 C   0  0  0  0  0  0  0  0  0  0  0  0
    9.3276    3.0499   23.5715 C   0  0  0  0  0  0  0  0  0  0  0  0
   10.2276    2.9865   22.9512 H   0  0  0  0  0  0  0  0  0  0  0  0
   11.2061    4.8502   24.3539 H   0  0  0  0  0  0  0  0  0  0  0  0
   10.9480    6.4583   26.2385 H   0  0  0  0  0  0  0  0  0  0  0  0
    6.1958    1.7525   23.8921 H   0  0  0  0  0  0  0  0  0  0  0  0
    7.0372    0.0380   23.0475 H   0  0  0  0  0  0  0  0  0  0  0  0
    6.6430    0.0678   19.9246 C   0  0  0  0  0  0  0  0  0  0  0  0
    5.4108    0.7012   20.1279 C   0  0  0  0  0  0  0  0  0  0  0  0
    4.7913    1.3300   19.0471 C   0  0  0  0  0  0  0  0  0  0  0  0
    5.4214    1.3010   17.7968 C   0  0  0  0  0  0  0  0  0  0  0  0
    6.5858    0.6815   17.5702 N   0  0  0  0  0  0  0  0  0  0  0  0
    7.1700    0.0895   18.6262 C   0  0  0  0  0  0  0  0  0  0  0  0
    8.1183   -0.4067   18.4152 H   0  0  0  0  0  0  0  0  0  0  0  0
    4.9623    1.7891   16.9392 H   0  0  0  0  0  0  0  0  0  0  0  0
    3.8461    1.8441   19.1594 H   0  0  0  0  0  0  0  0  0  0  0  0
    4.9481    0.7191   21.1186 H   0  0  0  0  0  0  0  0  0  0  0  0
    8.3738   -0.9380   20.6640 H   0  0  0  0  0  0  0  0  0  0  0  0
    7.2411   -2.3905   22.3203 H   0  0  0  0  0  0  0  0  0  0  0  0
    5.6603   -1.7216   21.8193 H   0  0  0  0  0  0  0  0  0  0  0  0
    5.0537   -3.9498   21.0417 H   0  0  0  0  0  0  0  0  0  0  0  0
    6.6468   -4.7132   21.2043 H   0  0  0  0  0  0  0  0  0  0  0  0
    5.9205   -4.5131   19.5849 H   0  0  0  0  0  0  0  0  0  0  0  0
  1  2  1  0
  2  3  1  0
  3  4  1  0
  4  5  1  0
  5  6  1  0
  6  7  2  0
  6  8  1  0
  8  9  2  0
  9 10  1  0
 10 11  2  0
 11 12  1  0
 12 13  1  0
 13 14  1  0
 13 15  1  0
 13 16  1  0
 12 17  2  0
 17 18  1  0
 17 19  1  0
 19 20  2  0
 20 21  1  0
 21 22  2  0
 22 23  1  0
 20 24  1  0
 19 25  1  0
  9 26  1  0
  5 27  1  0
  4 28  1  0
 28 29  2  0
 29 30  1  0
 30 31  2  0
 31 32  1  0
 32 33  2  0
 33 34  1  0
 31 35  1  0
 30 36  1  0
 29 37  1  0
  4 38  1  6
  3 39  1  0
  3 40  1  0
  1 41  1  0
  1 42  1  0
  1 43  1  0
 22  8  1  0
 33 28  1  0
 21 11  1  0
M  END
>  <plip>  (1) 
-0.17857142857142858

>  <filename>  (1) 
[H][c]1[n][c]([H])[c]([C@@]([H])([N]([H])[C](=[O])[c]2[c]([H])[n][c]3[c]([C]([H])([H])[H])[c]([Cl])[c]([H])[c]([H])[c]3[c]2[H])[C]([H])([H])[O][C]([H])([H])[H])[c]([H])[c]1[H]

$$$$
