
     RDKit          3D

 37 39  0  0  0  0  0  0  0  0999 V2000
    4.9086    1.7777   16.9988 H   0  0  0  0  0  0  0  0  0  0  0  0
    5.4009    1.2941   17.8386 C   0  0  0  0  0  0  0  0  0  0  0  0
    6.5639    0.6806   17.5681 N   0  0  0  0  0  0  0  0  0  0  0  0
    7.1739    0.0696   18.5935 C   0  0  0  0  0  0  0  0  0  0  0  0
    8.1162   -0.4300   18.3729 H   0  0  0  0  0  0  0  0  0  0  0  0
    6.6604    0.0102   19.9024 C   0  0  0  0  0  0  0  0  0  0  0  0
    7.3778   -0.7151   20.9851 C   0  0  0  0  0  0  0  0  0  0  0  0
    8.7680   -0.5804   21.1591 C   0  0  0  0  0  0  0  0  0  0  0  0
    9.3274    0.0742   20.4915 H   0  0  0  0  0  0  0  0  0  0  0  0
    9.4539   -1.2059   22.1249 N   0  0  0  0  0  0  0  0  0  0  0  0
    8.7558   -1.9931   22.9585 C   0  0  0  0  0  0  0  0  0  0  0  0
    9.3231   -2.5066   23.7260 H   0  0  0  0  0  0  0  0  0  0  0  0
    7.3540   -2.2183   22.8868 C   0  0  0  0  0  0  0  0  0  0  0  0
    6.6762   -3.0532   23.7702 N   0  0  0  0  0  0  0  0  0  0  0  0
    5.5418   -3.8724   23.3221 C   0  0  0  0  0  0  0  0  0  0  0  0
    4.6221   -3.2751   23.2375 H   0  0  0  0  0  0  0  0  0  0  0  0
    5.7562   -4.2765   22.3226 H   0  0  0  0  0  0  0  0  0  0  0  0
    5.2826   -5.0483   24.2790 C   0  0  0  0  0  0  0  0  0  0  0  0
    4.4183   -5.6170   23.9155 H   0  0  0  0  0  0  0  0  0  0  0  0
    6.1532   -5.7317   24.2272 H   0  0  0  0  0  0  0  0  0  0  0  0
    5.0171   -4.6059   25.6584 N   0  0  0  0  0  0  0  0  0  0  0  0
    5.0304   -5.7250   26.5821 C   0  0  0  0  0  0  0  0  0  0  0  0
    4.6905   -5.3965   27.5691 H   0  0  0  0  0  0  0  0  0  0  0  0
    4.3405   -6.5023   26.2398 H   0  0  0  0  0  0  0  0  0  0  0  0
    6.0363   -6.1727   26.6865 H   0  0  0  0  0  0  0  0  0  0  0  0
    5.8934   -3.4866   26.0854 C   0  0  0  0  0  0  0  0  0  0  0  0
    6.2706   -3.6615   27.1042 H   0  0  0  0  0  0  0  0  0  0  0  0
    5.3054   -2.5608   26.1443 H   0  0  0  0  0  0  0  0  0  0  0  0
    7.1043   -3.2280   25.1606 C   0  0  0  0  0  0  0  0  0  0  0  0
    7.6172   -2.3250   25.5074 H   0  0  0  0  0  0  0  0  0  0  0  0
    7.8178   -4.0648   25.2519 H   0  0  0  0  0  0  0  0  0  0  0  0
    6.6730   -1.5474   21.8594 C   0  0  0  0  0  0  0  0  0  0  0  0
    5.5982   -1.6741   21.7399 H   0  0  0  0  0  0  0  0  0  0  0  0
    5.4396    0.6486   20.1527 C   0  0  0  0  0  0  0  0  0  0  0  0
    5.0133    0.6310   21.1598 H   0  0  0  0  0  0  0  0  0  0  0  0
    4.8027    1.3170   19.1053 C   0  0  0  0  0  0  0  0  0  0  0  0
    3.8689    1.8470   19.2628 H   0  0  0  0  0  0  0  0  0  0  0  0
  1  2  1  0
  2  3  2  0
  3  4  1  0
  4  5  1  0
  4  6  2  0
  6  7  1  0
  7  8  2  0
  8  9  1  0
  8 10  1  0
 10 11  2  0
 11 12  1  0
 11 13  1  0
 13 14  1  0
 14 15  1  0
 15 16  1  0
 15 17  1  0
 15 18  1  0
 18 19  1  0
 18 20  1  0
 18 21  1  0
 21 22  1  0
 22 23  1  0
 22 24  1  0
 22 25  1  0
 21 26  1  0
 26 27  1  0
 26 28  1  0
 26 29  1  0
 29 30  1  0
 29 31  1  0
 13 32  2  0
 32 33  1  0
  6 34  1  0
 34 35  1  0
 34 36  2  0
 36 37  1  0
 36  2  1  0
 32  7  1  0
 29 14  1  0
M  END
>  <plip>  (1) 
-0.03571428571428571

>  <filename>  (1) 
[H][c]1[n][c]([H])[c](-[c]2[c]([H])[n][c]([H])[c]([N]3[C]([H])([H])[C]([H])([H])[N]([C]([H])([H])[H])[C]([H])([H])[C]3([H])[H])[c]2[H])[c]([H])[c]1[H]

$$$$
