
     RDKit          3D

 32 33  0  0  0  0  0  0  0  0999 V2000
    4.9539    1.8425   16.9725 H   0  0  0  0  0  0  0  0  0  0  0  0
    5.3998    1.2990   17.8035 C   0  0  0  0  0  0  0  0  0  0  0  0
    6.5645    0.6784   17.5512 N   0  0  0  0  0  0  0  0  0  0  0  0
    7.1527    0.0464   18.5739 C   0  0  0  0  0  0  0  0  0  0  0  0
    8.1135   -0.4229   18.3487 H   0  0  0  0  0  0  0  0  0  0  0  0
    6.6225   -0.0400   19.8753 C   0  0  0  0  0  0  0  0  0  0  0  0
    7.4004   -0.7258   20.9797 C   0  0  0  0  0  0  0  0  0  0  0  0
    6.7584   -0.9649   21.8329 H   0  0  0  0  0  0  0  0  0  0  0  0
    7.8482   -1.6687   20.6396 H   0  0  0  0  0  0  0  0  0  0  0  0
    8.8320    0.2358   21.6185 S   0  0  0  0  0  0  0  0  0  0  0  0
    7.9539    1.5903   22.3814 C   0  0  0  0  0  0  0  0  0  0  0  0
    7.5145    1.5255   23.7076 C   0  0  0  0  0  0  0  0  0  0  0  0
    7.7548    0.6597   24.3211 H   0  0  0  0  0  0  0  0  0  0  0  0
    6.7513    2.5807   24.2141 C   0  0  0  0  0  0  0  0  0  0  0  0
    6.3670    2.5212   25.2261 H   0  0  0  0  0  0  0  0  0  0  0  0
    6.4617    3.7043   23.4415 C   0  0  0  0  0  0  0  0  0  0  0  0
    5.8733    4.5221   23.8427 H   0  0  0  0  0  0  0  0  0  0  0  0
    6.9286    3.7849   22.1234 C   0  0  0  0  0  0  0  0  0  0  0  0
    6.6171    4.9243   21.3395 N   0  0  0  0  0  0  0  0  0  0  0  0
    6.2501    4.7610   20.4128 H   0  0  0  0  0  0  0  0  0  0  0  0
    6.4220    6.1898   21.8460 C   0  0  0  0  0  0  0  0  0  0  0  0
    6.7125    6.5054   22.9820 O   0  0  0  0  0  0  0  0  0  0  0  0
    5.8532    7.1840   20.8586 C   0  0  0  0  0  0  0  0  0  0  0  0
    5.4638    8.0362   21.4188 H   0  0  0  0  0  0  0  0  0  0  0  0
    5.0444    6.7556   20.2596 H   0  0  0  0  0  0  0  0  0  0  0  0
    6.6494    7.5345   20.1927 H   0  0  0  0  0  0  0  0  0  0  0  0
    7.6633    2.7116   21.5982 C   0  0  0  0  0  0  0  0  0  0  0  0
    8.0165    2.6587   20.5810 H   0  0  0  0  0  0  0  0  0  0  0  0
    5.3923    0.5987   20.1049 C   0  0  0  0  0  0  0  0  0  0  0  0
    4.9342    0.5908   21.0955 H   0  0  0  0  0  0  0  0  0  0  0  0
    4.7797    1.2842   19.0519 C   0  0  0  0  0  0  0  0  0  0  0  0
    3.8444    1.8173   19.1911 H   0  0  0  0  0  0  0  0  0  0  0  0
  1  2  1  0
  2  3  2  0
  3  4  1  0
  4  5  1  0
  4  6  2  0
  6  7  1  0
  7  8  1  0
  7  9  1  0
  7 10  1  0
 10 11  1  0
 11 12  2  0
 12 13  1  0
 12 14  1  0
 14 15  1  0
 14 16  2  0
 16 17  1  0
 16 18  1  0
 18 19  1  0
 19 20  1  0
 19 21  1  0
 21 22  2  0
 21 23  1  0
 23 24  1  0
 23 25  1  0
 23 26  1  0
 18 27  2  0
 27 28  1  0
  6 29  1  0
 29 30  1  0
 29 31  2  0
 31 32  1  0
 31  2  1  0
 27 11  1  0
M  END
>  <plip>  (1) 
-0.10344827586206896

>  <filename>  (1) 
[H][c]1[n][c]([H])[c]([C]([H])([H])[S][c]2[c]([H])[c]([H])[c]([H])[c]([N]([H])[C](=[O])[C]([H])([H])[H])[c]2[H])[c]([H])[c]1[H]

$$$$
