
     RDKit          3D

 48 49  0  0  0  0  0  0  0  0999 V2000
    2.0270   -1.5415   28.4655 C   0  0  0  0  0  0  0  0  0  0  0  0
    2.3586   -1.0211   27.1505 N   0  0  0  0  0  0  0  0  0  0  0  0
    3.4866   -1.5989   26.4308 C   0  0  0  0  0  0  0  0  0  0  0  0
    4.7578   -0.7210   26.4115 C   0  0  0  0  0  0  0  0  0  0  0  0
    5.9984   -1.4515   25.9018 C   0  0  0  0  0  0  0  0  0  0  0  0
    5.8910   -1.6715   24.4337 N   0  0  0  0  0  4  0  0  0  0  0  0
    7.0200   -2.4078   23.8193 C   0  0  0  0  0  0  0  0  0  0  0  0
    7.9817   -1.3557   23.2351 C   0  0  0  0  0  0  0  0  0  0  0  0
    7.1777   -0.4369   22.3433 C   0  0  0  0  0  0  0  0  0  0  0  0
    6.3730    0.3441   22.8446 O   0  0  0  0  0  0  0  0  0  0  0  0
    7.3205   -0.6212   21.0082 N   0  0  0  0  0  0  0  0  0  0  0  0
    6.6437    0.0399   19.9485 C   0  0  0  0  0  0  0  0  0  0  0  0
    5.4433    0.7355   20.1484 C   0  0  0  0  0  0  0  0  0  0  0  0
    4.8498    1.3514   19.0416 C   0  0  0  0  0  0  0  0  0  0  0  0
    5.4616    1.2659   17.7868 C   0  0  0  0  0  0  0  0  0  0  0  0
    6.6126    0.6028   17.5806 N   0  0  0  0  0  0  0  0  0  0  0  0
    7.1776    0.0136   18.6380 C   0  0  0  0  0  0  0  0  0  0  0  0
    8.1096   -0.5163   18.4513 H   0  0  0  0  0  0  0  0  0  0  0  0
    5.0134    1.7361   16.9143 H   0  0  0  0  0  0  0  0  0  0  0  0
    3.9246    1.9099   19.1474 H   0  0  0  0  0  0  0  0  0  0  0  0
    5.0091    0.7940   21.1435 H   0  0  0  0  0  0  0  0  0  0  0  0
    8.0415   -1.2758   20.7501 H   0  0  0  0  0  0  0  0  0  0  0  0
    8.3698   -0.7075   24.0277 H   0  0  0  0  0  0  0  0  0  0  0  0
    8.8227   -1.8288   22.7251 H   0  0  0  0  0  0  0  0  0  0  0  0
    6.6578   -3.0873   23.0342 H   0  0  0  0  0  0  0  0  0  0  0  0
    7.5147   -3.0454   24.5708 H   0  0  0  0  0  0  0  0  0  0  0  0
    5.8428   -0.7255   23.9659 H   0  0  0  0  0  0  0  0  0  0  0  0
    4.9644   -2.0991   24.2148 H   0  0  0  0  0  0  0  0  0  0  0  0
    6.9092   -0.8663   26.1262 H   0  0  0  0  0  0  0  0  0  0  0  0
    6.1090   -2.4138   26.4335 H   0  0  0  0  0  0  0  0  0  0  0  0
    4.5651    0.1656   25.7875 H   0  0  0  0  0  0  0  0  0  0  0  0
    4.9533   -0.3608   27.4275 H   0  0  0  0  0  0  0  0  0  0  0  0
    3.1853   -1.8396   25.3983 H   0  0  0  0  0  0  0  0  0  0  0  0
    3.7078   -2.5671   26.9059 H   0  0  0  0  0  0  0  0  0  0  0  0
    1.8566    0.2395   26.7740 C   0  0  0  0  0  0  0  0  0  0  0  0
    1.5604    0.5020   25.4245 C   0  0  0  0  0  0  0  0  0  0  0  0
    1.0482    1.7431   25.0329 C   0  0  0  0  0  0  0  0  0  0  0  0
    0.8312    2.7484   25.9814 C   0  0  0  0  0  0  0  0  0  0  0  0
    1.1238    2.5006   27.3258 C   0  0  0  0  0  0  0  0  0  0  0  0
    1.6259    1.2569   27.7227 C   0  0  0  0  0  0  0  0  0  0  0  0
    1.8490    1.0516   28.7642 H   0  0  0  0  0  0  0  0  0  0  0  0
    0.9483    3.2691   28.0746 H   0  0  0  0  0  0  0  0  0  0  0  0
    0.4365    3.7143   25.6737 H   0  0  0  0  0  0  0  0  0  0  0  0
    0.8135    1.9161   23.9864 H   0  0  0  0  0  0  0  0  0  0  0  0
    1.7067   -0.3066   24.7158 H   0  0  0  0  0  0  0  0  0  0  0  0
    2.2231   -2.6198   28.4869 H   0  0  0  0  0  0  0  0  0  0  0  0
    2.5806   -1.0799   29.3033 H   0  0  0  0  0  0  0  0  0  0  0  0
    0.9544   -1.4099   28.6566 H   0  0  0  0  0  0  0  0  0  0  0  0
  1  2  1  0
  2  3  1  0
  3  4  1  0
  4  5  1  0
  5  6  1  0
  6  7  1  0
  7  8  1  0
  8  9  1  0
  9 10  2  0
  9 11  1  0
 11 12  1  0
 12 13  2  0
 13 14  1  0
 14 15  2  0
 15 16  1  0
 16 17  2  0
 17 18  1  0
 15 19  1  0
 14 20  1  0
 13 21  1  0
 11 22  1  0
  8 23  1  0
  8 24  1  0
  7 25  1  0
  7 26  1  0
  6 27  1  0
  6 28  1  0
  5 29  1  0
  5 30  1  0
  4 31  1  0
  4 32  1  0
  3 33  1  0
  3 34  1  0
  2 35  1  0
 35 36  2  0
 36 37  1  0
 37 38  2  0
 38 39  1  0
 39 40  2  0
 40 41  1  0
 39 42  1  0
 38 43  1  0
 37 44  1  0
 36 45  1  0
  1 46  1  0
  1 47  1  0
  1 48  1  0
 17 12  1  0
 40 35  1  0
M  CHG  1   6   1
M  END
>  <plip>  (1) 
-0.10714285714285714

>  <filename>  (1) 
[H][c]1[n][c]([H])[c]([N]([H])[C](=[O])[C]([H])([H])[C]([H])([H])[N+]([H])([H])[C]([H])([H])[C]([H])([H])[C]([H])([H])[N]([c]2[c]([H])[c]([H])[c]([H])[c]([H])[c]2[H])[C]([H])([H])[H])[c]([H])[c]1[H]

$$$$
