
     RDKit          3D

 40 42  0  0  0  0  0  0  0  0999 V2000
    9.2514    0.7997   21.2114 C   0  0  0  0  0  0  0  0  0  0  0  0
    8.0329    0.2895   21.8786 N   0  0  0  0  0  4  0  0  0  0  0  0
    7.3625   -0.7272   21.0500 C   0  0  0  0  0  0  0  0  0  0  0  0
    6.6507    0.0075   19.9636 C   0  0  0  0  0  0  0  0  0  0  0  0
    5.4341    0.6485   20.1959 C   0  0  0  0  0  0  0  0  0  0  0  0
    4.8422    1.3011   19.1171 C   0  0  0  0  0  0  0  0  0  0  0  0
    5.4698    1.3014   17.8660 C   0  0  0  0  0  0  0  0  0  0  0  0
    6.6479    0.6895   17.6522 N   0  0  0  0  0  0  0  0  0  0  0  0
    7.2268    0.0610   18.6878 C   0  0  0  0  0  0  0  0  0  0  0  0
    8.1769   -0.4372   18.5163 H   0  0  0  0  0  0  0  0  0  0  0  0
    4.9871    1.8170   17.0401 H   0  0  0  0  0  0  0  0  0  0  0  0
    3.9024    1.8238   19.2360 H   0  0  0  0  0  0  0  0  0  0  0  0
    4.9707    0.6506   21.1842 H   0  0  0  0  0  0  0  0  0  0  0  0
    6.6514   -1.3201   21.6412 H   0  0  0  0  0  0  0  0  0  0  0  0
    8.1001   -1.4222   20.6289 H   0  0  0  0  0  0  0  0  0  0  0  0
    8.4224   -0.2213   23.2098 C   0  0  0  0  0  0  0  0  0  0  0  0
    7.1987   -0.4700   24.0875 C   0  0  0  0  0  0  0  0  0  0  0  0
    7.6643   -0.8533   25.5013 C   0  0  0  0  0  0  0  0  0  0  0  0
    8.6787   -1.9803   25.4745 C   0  0  0  0  0  0  0  0  0  0  0  0
    8.8302   -2.8105   26.5905 C   0  0  0  0  0  0  0  0  0  0  0  0
    9.6788   -3.9213   26.5341 C   0  0  0  0  0  0  0  0  0  0  0  0
    9.7248   -5.1710   27.9508 Br  0  0  0  0  0  0  0  0  0  0  0  0
   10.4637   -4.1535   25.4022 C   0  0  0  0  0  0  0  0  0  0  0  0
   10.3662   -3.2999   24.3110 C   0  0  0  0  0  0  0  0  0  0  0  0
    9.4501   -2.2495   24.3217 C   0  0  0  0  0  0  0  0  0  0  0  0
    9.1972   -1.5252   23.0308 C   0  0  0  0  0  0  0  0  0  0  0  0
    8.6118   -2.1731   22.3710 H   0  0  0  0  0  0  0  0  0  0  0  0
   10.1353   -1.3175   22.5151 H   0  0  0  0  0  0  0  0  0  0  0  0
   10.9515   -3.4758   23.4140 H   0  0  0  0  0  0  0  0  0  0  0  0
   11.1256   -5.0097   25.3476 H   0  0  0  0  0  0  0  0  0  0  0  0
    8.2466   -2.6284   27.4876 H   0  0  0  0  0  0  0  0  0  0  0  0
    6.7869   -1.1382   26.0959 H   0  0  0  0  0  0  0  0  0  0  0  0
    8.1200    0.0166   25.9872 H   0  0  0  0  0  0  0  0  0  0  0  0
    6.5976   -1.2753   23.6564 H   0  0  0  0  0  0  0  0  0  0  0  0
    6.5692    0.4225   24.1210 H   0  0  0  0  0  0  0  0  0  0  0  0
    9.0669    0.5084   23.7176 H   0  0  0  0  0  0  0  0  0  0  0  0
    7.3683    1.0600   21.9987 H   0  0  0  0  0  0  0  0  0  0  0  0
    9.9162   -0.0316   20.9473 H   0  0  0  0  0  0  0  0  0  0  0  0
    9.8053    1.4727   21.8778 H   0  0  0  0  0  0  0  0  0  0  0  0
    8.9965    1.3447   20.2969 H   0  0  0  0  0  0  0  0  0  0  0  0
  1  2  1  0
  2  3  1  0
  3  4  1  0
  4  5  2  0
  5  6  1  0
  6  7  2  0
  7  8  1  0
  8  9  2  0
  9 10  1  0
  7 11  1  0
  6 12  1  0
  5 13  1  0
  3 14  1  0
  3 15  1  0
  2 16  1  0
 16 17  1  0
 17 18  1  0
 18 19  1  0
 19 20  2  0
 20 21  1  0
 21 22  1  0
 21 23  2  0
 23 24  1  0
 24 25  2  0
 25 26  1  0
 26 27  1  0
 26 28  1  0
 24 29  1  0
 23 30  1  0
 20 31  1  0
 18 32  1  0
 18 33  1  0
 17 34  1  0
 17 35  1  0
 16 36  1  0
  2 37  1  0
  1 38  1  0
  1 39  1  0
  1 40  1  0
  9  4  1  0
 26 16  1  0
 25 19  1  0
M  CHG  1   2   1
M  END
>  <plip>  (1) 
-0.03571428571428571

>  <filename>  (1) 
[H][c]1[n][c]([H])[c]([C]([H])([H])[N+]([H])([C]([H])([H])[H])[C]2([H])[C]([H])([H])[c]3[c]([H])[c]([H])[c]([Br])[c]([H])[c]3[C]([H])([H])[C]2([H])[H])[c]([H])[c]1[H]

$$$$
