
     RDKit          3D

 59 61  0  0  0  0  0  0  0  0999 V2000
    5.2126   -3.1555   22.0827 C   0  0  0  0  0  0  0  0  0  0  0  0
    6.4126   -3.9289   21.5390 C   0  0  0  0  0  0  0  0  0  0  0  0
    7.7664   -3.2024   21.6236 C   0  0  0  0  0  0  0  0  0  0  0  0
    8.1761   -2.7512   23.0374 C   0  0  0  0  0  0  0  0  0  0  0  0
    7.9383   -3.8960   23.9795 C   0  0  0  0  0  0  0  0  0  0  0  0
    8.3957   -4.9899   23.7084 O   0  0  0  0  0  0  0  0  0  0  0  0
    7.1279   -3.6534   25.0565 N   0  0  0  0  0  0  0  0  0  0  0  0
    6.4684   -4.6632   25.7983 C   0  0  0  0  0  0  0  0  0  0  0  0
    6.3336   -4.5644   27.1897 C   0  0  0  0  0  0  0  0  0  0  0  0
    5.6916   -5.5835   27.8949 C   0  0  0  0  0  0  0  0  0  0  0  0
    5.1608   -6.6888   27.2189 C   0  0  0  0  0  0  0  0  0  0  0  0
    5.2883   -6.7785   25.8275 C   0  0  0  0  0  0  0  0  0  0  0  0
    5.9309   -5.7671   25.1172 C   0  0  0  0  0  0  0  0  0  0  0  0
    6.0375   -5.8097   24.0365 H   0  0  0  0  0  0  0  0  0  0  0  0
    4.9042   -7.6449   25.2960 H   0  0  0  0  0  0  0  0  0  0  0  0
    4.6570   -7.4639   27.7818 H   0  0  0  0  0  0  0  0  0  0  0  0
    5.5800   -5.5172   28.9752 H   0  0  0  0  0  0  0  0  0  0  0  0
    6.7741   -3.7234   27.7171 H   0  0  0  0  0  0  0  0  0  0  0  0
    7.0081   -2.6953   25.3319 H   0  0  0  0  0  0  0  0  0  0  0  0
    7.6440   -1.8571   23.3637 H   0  0  0  0  0  0  0  0  0  0  0  0
    9.2535   -2.5602   23.0448 H   0  0  0  0  0  0  0  0  0  0  0  0
    7.7641   -2.0788   20.6670 N   0  0  0  0  0  4  0  0  0  0  0  0
    7.3969   -0.6795   21.0938 C   0  0  0  0  0  0  0  0  0  0  0  0
    8.6719    0.1248   21.4065 C   0  0  0  0  0  0  0  0  0  0  0  0
    8.4493    1.4789   21.9858 N   0  0  0  0  0  4  0  0  0  0  0  0
    9.7129    2.2811   22.1411 C   0  0  0  0  0  0  0  0  0  0  0  0
    9.3238    3.4172   23.0815 C   0  0  0  0  0  0  0  0  0  0  0  0
    8.1837    2.8545   23.9606 C   0  0  0  0  0  0  0  0  0  0  0  0
    7.8110    1.4940   23.3595 C   0  0  0  0  0  0  0  0  0  0  0  0
    6.7321    1.3377   23.2786 H   0  0  0  0  0  0  0  0  0  0  0  0
    8.2313    0.6720   23.9524 H   0  0  0  0  0  0  0  0  0  0  0  0
    8.4921    2.7239   25.0024 H   0  0  0  0  0  0  0  0  0  0  0  0
    7.3218    3.5294   23.9646 H   0  0  0  0  0  0  0  0  0  0  0  0
   10.1860    3.7504   23.6671 H   0  0  0  0  0  0  0  0  0  0  0  0
    8.9824    4.2799   22.4979 H   0  0  0  0  0  0  0  0  0  0  0  0
   10.0812    2.6234   21.1689 H   0  0  0  0  0  0  0  0  0  0  0  0
   10.4816    1.6386   22.5898 H   0  0  0  0  0  0  0  0  0  0  0  0
    7.8182    2.0244   21.3410 H   0  0  0  0  0  0  0  0  0  0  0  0
    9.2435    0.1861   20.4707 H   0  0  0  0  0  0  0  0  0  0  0  0
    9.2774   -0.4756   22.0991 H   0  0  0  0  0  0  0  0  0  0  0  0
    6.6142   -0.1091   19.9414 C   0  0  0  0  0  0  0  0  0  0  0  0
    5.4334    0.6209   20.1420 C   0  0  0  0  0  0  0  0  0  0  0  0
    4.8638    1.2889   19.0564 C   0  0  0  0  0  0  0  0  0  0  0  0
    5.4901    1.1990   17.8091 C   0  0  0  0  0  0  0  0  0  0  0  0
    6.5924    0.4685   17.5912 N   0  0  0  0  0  0  0  0  0  0  0  0
    7.1154   -0.1885   18.6315 C   0  0  0  0  0  0  0  0  0  0  0  0
    8.0044   -0.7794   18.4064 H   0  0  0  0  0  0  0  0  0  0  0  0
    5.0911    1.7333   16.9478 H   0  0  0  0  0  0  0  0  0  0  0  0
    3.9706    1.8917   19.1630 H   0  0  0  0  0  0  0  0  0  0  0  0
    4.9723    0.6702   21.1334 H   0  0  0  0  0  0  0  0  0  0  0  0
    6.7577   -0.7094   21.9851 H   0  0  0  0  0  0  0  0  0  0  0  0
    8.6978   -2.0201   20.2013 H   0  0  0  0  0  0  0  0  0  0  0  0
    7.0823   -2.2939   19.9050 H   0  0  0  0  0  0  0  0  0  0  0  0
    8.5222   -3.9329   21.3170 H   0  0  0  0  0  0  0  0  0  0  0  0
    6.2674   -4.1989   20.4865 H   0  0  0  0  0  0  0  0  0  0  0  0
    6.5091   -4.8765   22.0790 H   0  0  0  0  0  0  0  0  0  0  0  0
    5.3546   -2.9228   23.1427 H   0  0  0  0  0  0  0  0  0  0  0  0
    4.2976   -3.7499   21.9982 H   0  0  0  0  0  0  0  0  0  0  0  0
    5.0594   -2.2056   21.5588 H   0  0  0  0  0  0  0  0  0  0  0  0
  1  2  1  0
  2  3  1  0
  3  4  1  0
  4  5  1  0
  5  6  2  0
  5  7  1  0
  7  8  1  0
  8  9  2  0
  9 10  1  0
 10 11  2  0
 11 12  1  0
 12 13  2  0
 13 14  1  0
 12 15  1  0
 11 16  1  0
 10 17  1  0
  9 18  1  0
  7 19  1  0
  4 20  1  0
  4 21  1  0
  3 22  1  0
 22 23  1  0
 23 24  1  0
 24 25  1  0
 25 26  1  0
 26 27  1  0
 27 28  1  0
 28 29  1  0
 29 30  1  0
 29 31  1  0
 28 32  1  0
 28 33  1  0
 27 34  1  0
 27 35  1  0
 26 36  1  0
 26 37  1  0
 25 38  1  0
 24 39  1  0
 24 40  1  0
 23 41  1  0
 41 42  2  0
 42 43  1  0
 43 44  2  0
 44 45  1  0
 45 46  2  0
 46 47  1  0
 44 48  1  0
 43 49  1  0
 42 50  1  0
 23 51  1  0
 22 52  1  0
 22 53  1  0
  3 54  1  0
  2 55  1  0
  2 56  1  0
  1 57  1  0
  1 58  1  0
  1 59  1  0
 13  8  1  0
 29 25  1  0
 46 41  1  0
M  CHG  2  22   1  25   1
M  END
>  <plip>  (1) 
-0.12903225806451613

>  <filename>  (1) 
[H][c]1[n][c]([H])[c]([C]([H])([C]([H])([H])[N+]2([H])[C]([H])([H])[C]([H])([H])[C]([H])([H])[C]2([H])[H])[N+]([H])([H])[C]([H])([C]([H])([H])[C](=[O])[N]([H])[c]2[c]([H])[c]([H])[c]([H])[c]([H])[c]2[H])[C]([H])([H])[C]([H])([H])[H])[c]([H])[c]1[H]

$$$$
