
     RDKit          3D

 40 43  0  0  0  0  0  0  0  0999 V2000
   14.2125   -2.0319   21.8547 C   0  0  0  0  0  0  0  0  0  0  0  0
   12.9273   -1.4241   22.1192 N   0  0  0  0  0  0  0  0  0  0  0  0
   11.8363   -2.2047   22.2438 N   0  0  0  0  0  0  0  0  0  0  0  0
   10.7912   -1.4498   22.3691 N   0  0  0  0  0  0  0  0  0  0  0  0
   11.1856   -0.1321   22.3340 C   0  0  0  0  0  0  0  0  0  0  0  0
   10.4347    1.1138   22.2320 C   0  0  0  0  0  0  0  0  0  0  0  0
    9.2366    1.1242   21.3193 C   0  0  0  0  0  0  0  0  0  0  0  0
    8.6575    2.1023   20.8528 O   0  0  0  0  0  0  0  0  0  0  0  0
    8.6986   -0.1221   21.1023 N   0  0  0  0  0  0  0  0  0  0  0  0
    7.2675   -0.3533   21.0836 C   0  0  0  0  0  0  0  0  0  0  0  0
    6.6157    0.2392   19.8536 C   0  0  0  0  0  0  0  0  0  0  0  0
    5.4483    1.0151   19.9297 C   0  0  0  0  0  0  0  0  0  0  0  0
    4.8957    1.5324   18.7548 C   0  0  0  0  0  0  0  0  0  0  0  0
    5.5335    1.2513   17.5408 C   0  0  0  0  0  0  0  0  0  0  0  0
    6.6485    0.5120   17.4442 N   0  0  0  0  0  0  0  0  0  0  0  0
    7.1745    0.0412   18.5866 C   0  0  0  0  0  0  0  0  0  0  0  0
    8.0996   -0.5234   18.4871 H   0  0  0  0  0  0  0  0  0  0  0  0
    5.1328    1.6407   16.6048 H   0  0  0  0  0  0  0  0  0  0  0  0
    4.0050    2.1557   18.7632 H   0  0  0  0  0  0  0  0  0  0  0  0
    4.9880    1.2341   20.8968 H   0  0  0  0  0  0  0  0  0  0  0  0
    7.0713   -1.8635   21.2808 C   0  0  0  0  0  0  0  0  0  0  0  0
    6.3564   -2.8463   20.3855 C   0  0  0  0  0  0  0  0  0  0  0  0
    5.7099   -2.3705   21.6469 C   0  0  0  0  0  0  0  0  0  0  0  0
    5.5890   -3.0034   22.5215 H   0  0  0  0  0  0  0  0  0  0  0  0
    4.9233   -1.6497   21.4771 H   0  0  0  0  0  0  0  0  0  0  0  0
    6.7457   -3.8598   20.3422 H   0  0  0  0  0  0  0  0  0  0  0  0
    5.9255   -2.4853   19.4521 H   0  0  0  0  0  0  0  0  0  0  0  0
    7.8877   -2.3117   21.8507 H   0  0  0  0  0  0  0  0  0  0  0  0
    6.7905    0.1453   21.9532 H   0  0  0  0  0  0  0  0  0  0  0  0
    9.2415   -0.8897   21.4816 H   0  0  0  0  0  0  0  0  0  0  0  0
   11.6490    2.1598   21.9181 C   0  0  0  0  0  0  0  0  0  0  0  0
   11.6574    2.4396   22.1192 C   0  0  0  0  0  0  0  0  0  0  0  0
   13.1330    1.2161   22.1422 C   0  0  0  0  0  0  0  0  0  0  0  0
   12.5961   -0.1124   22.2273 C   0  0  0  0  0  0  0  0  0  0  0  0
   13.8901    1.3833   22.9766 H   0  0  0  0  0  0  0  0  0  0  0  0
   11.6582    3.1566   23.0585 H   0  0  0  0  0  0  0  0  0  0  0  0
   11.5111    3.1417   21.0541 H   0  0  0  0  0  0  0  0  0  0  0  0
   14.4764   -1.9567   20.7931 H   0  0  0  0  0  0  0  0  0  0  0  0
   14.9587   -1.5206   22.4647 H   0  0  0  0  0  0  0  0  0  0  0  0
   14.1729   -3.0906   22.1186 H   0  0  0  0  0  0  0  0  0  0  0  0
  1  2  1  0
  2  3  1  0
  3  4  2  0
  4  5  1  0
  5  6  2  0
  6  7  1  0
  7  8  2  0
  7  9  1  0
  9 10  1  0
 10 11  1  0
 11 12  2  0
 12 13  1  0
 13 14  2  0
 14 15  1  0
 15 16  2  0
 16 17  1  0
 14 18  1  0
 13 19  1  0
 12 20  1  0
 10 21  1  0
 21 22  1  0
 22 23  1  0
 23 24  1  0
 23 25  1  0
 22 26  1  0
 22 27  1  0
 21 28  1  0
 10 29  1  0
  9 30  1  0
  6 31  1  0
 31 32  2  0
 32 33  1  0
 33 34  2  0
 33 35  1  0
 32 36  1  0
 31 37  1  0
  1 38  1  0
  1 39  1  0
  1 40  1  0
 34  2  1  0
 34  5  1  0
 16 11  1  0
 23 21  1  0
M  END
>  <plip>  (1) 
-0.1

>  <filename>  (1) 
[H][c]1[n][c]([H])[c]([C]([H])([N]([H])[C](=[O])[c]2[c]([H])[c]([H])[c]([H])[c]3[c]2[n][n][n]3[C]([H])([H])[H])[C]2([H])[C]([H])([H])[C]2([H])[H])[c]([H])[c]1[H]

$$$$
