
     RDKit          3D

 36 38  0  0  0  0  0  0  0  0999 V2000
    5.6503   -2.8615   24.5263 H   0  0  0  0  0  0  0  0  0  0  0  0
    6.3924   -2.9673   23.7239 C   0  0  0  0  0  0  0  0  0  0  0  0
    6.8336   -4.1728   23.3265 C   0  0  0  0  0  0  0  0  0  0  0  0
    6.1027   -5.7323   23.7524 S   0  0  0  0  0  0  0  0  0  0  0  0
    7.2051   -6.5982   22.6188 C   0  0  0  0  0  0  0  0  0  0  0  0
    7.1359   -7.7316   22.2406 O   0  0  0  0  0  0  0  0  0  0  0  0
    8.1862   -5.7352   22.2348 N   0  0  0  0  0  0  0  0  0  0  0  0
    8.9159   -6.0895   21.6465 H   0  0  0  0  0  0  0  0  0  0  0  0
    8.0188   -4.3992   22.4619 C   0  0  0  0  0  0  0  0  0  0  0  0
    8.7791   -3.5828   21.9895 O   0  0  0  0  0  0  0  0  0  0  0  0
    6.8018   -1.7818   23.0850 N   0  0  0  0  0  0  0  0  0  0  0  0
    6.6265   -1.7378   21.6830 C   0  0  0  0  0  0  0  0  0  0  0  0
    5.8780   -2.5213   21.1286 O   0  0  0  0  0  0  0  0  0  0  0  0
    7.3111   -0.7337   20.9837 N   0  0  0  0  0  0  0  0  0  0  0  0
    6.6455   -0.0651   19.9001 C   0  0  0  0  0  0  0  0  0  0  0  0
    7.1803    0.0135   18.5900 C   0  0  0  0  0  0  0  0  0  0  0  0
    8.1136   -0.4959   18.3530 H   0  0  0  0  0  0  0  0  0  0  0  0
    6.5926    0.6645   17.5779 N   0  0  0  0  0  0  0  0  0  0  0  0
    5.4374    1.3000   17.8305 C   0  0  0  0  0  0  0  0  0  0  0  0
    4.9872    1.8344   16.9956 H   0  0  0  0  0  0  0  0  0  0  0  0
    4.8188    1.2866   19.0851 C   0  0  0  0  0  0  0  0  0  0  0  0
    3.8909    1.8283   19.2351 H   0  0  0  0  0  0  0  0  0  0  0  0
    5.4238    0.5827   20.1304 C   0  0  0  0  0  0  0  0  0  0  0  0
    4.9732    0.5297   21.1220 H   0  0  0  0  0  0  0  0  0  0  0  0
    8.7090   -0.3887   21.2849 C   0  0  0  0  0  0  0  0  0  0  0  0
    9.2807   -1.3153   21.4261 H   0  0  0  0  0  0  0  0  0  0  0  0
    9.1188    0.1211   20.4060 H   0  0  0  0  0  0  0  0  0  0  0  0
    8.8483    0.5352   22.4970 C   0  0  0  0  0  0  0  0  0  0  0  0
    8.1896    1.4041   22.3567 H   0  0  0  0  0  0  0  0  0  0  0  0
    9.8747    0.9215   22.5222 H   0  0  0  0  0  0  0  0  0  0  0  0
    8.5246   -0.1458   23.8271 C   0  0  0  0  0  0  0  0  0  0  0  0
    9.1610   -1.0300   23.9710 H   0  0  0  0  0  0  0  0  0  0  0  0
    8.7355    0.5488   24.6505 H   0  0  0  0  0  0  0  0  0  0  0  0
    7.0734   -0.6052   23.9348 C   0  0  0  0  0  0  0  0  0  0  0  0
    6.8734   -0.8970   24.9722 H   0  0  0  0  0  0  0  0  0  0  0  0
    6.3831    0.2246   23.7146 H   0  0  0  0  0  0  0  0  0  0  0  0
  1  2  1  0
  2  3  2  3
  3  4  1  0
  4  5  1  0
  5  6  2  0
  5  7  1  0
  7  8  1  0
  7  9  1  0
  9 10  2  0
  2 11  1  0
 11 12  1  0
 12 13  2  0
 12 14  1  0
 14 15  1  0
 15 16  2  0
 16 17  1  0
 16 18  1  0
 18 19  2  0
 19 20  1  0
 19 21  1  0
 21 22  1  0
 21 23  2  0
 23 24  1  0
 14 25  1  0
 25 26  1  0
 25 27  1  0
 25 28  1  0
 28 29  1  0
 28 30  1  0
 28 31  1  0
 31 32  1  0
 31 33  1  0
 31 34  1  0
 34 35  1  0
 34 36  1  0
  9  3  1  0
 34 11  1  0
 23 15  1  0
M  END
>  <plip>  (1) 
-0.034482758620689655

>  <filename>  (1) 
[H][C](=[C]1[S][C](=[O])[N]([H])[C]1=[O])[N]1[C](=[O])[N]([c]2[c]([H])[n][c]([H])[c]([H])[c]2[H])[C]([H])([H])[C]([H])([H])[C]([H])([H])[C]1([H])[H]

$$$$
