
     RDKit          3D

 37 40  0  0  0  0  0  0  0  0999 V2000
    4.9323    1.7937   16.9985 H   0  0  0  0  0  0  0  0  0  0  0  0
    5.3957    1.2809   17.8400 C   0  0  0  0  0  0  0  0  0  0  0  0
    6.5537    0.6505   17.5856 N   0  0  0  0  0  0  0  0  0  0  0  0
    7.1764    0.0558   18.6125 C   0  0  0  0  0  0  0  0  0  0  0  0
    8.1194   -0.4273   18.3622 H   0  0  0  0  0  0  0  0  0  0  0  0
    6.7061    0.0299   19.9602 C   0  0  0  0  0  0  0  0  0  0  0  0
    7.4878   -0.5172   20.9922 N   0  0  0  0  0  0  0  0  0  0  0  0
    8.2796   -1.7531   20.7583 C   0  0  0  0  0  0  0  0  0  0  0  0
    9.2432   -1.5269   20.2903 H   0  0  0  0  0  0  0  0  0  0  0  0
    7.6734   -2.4304   20.1574 H   0  0  0  0  0  0  0  0  0  0  0  0
    8.4285   -2.3654   22.1714 C   0  0  2  0  0  0  0  0  0  0  0  0
    9.2466   -3.0709   22.3161 H   0  0  0  0  0  0  0  0  0  0  0  0
    7.1281   -3.0840   22.4365 N   0  0  0  0  0  0  0  0  0  0  0  0
    7.2334   -3.7292   23.6839 O   0  0  0  0  0  0  0  0  0  0  0  0
    6.2802   -4.7439   23.9261 C   0  0  0  0  0  0  0  0  0  0  0  0
    5.2316   -5.1281   23.0795 C   0  0  0  0  0  0  0  0  0  0  0  0
    5.1231   -4.6433   22.1170 H   0  0  0  0  0  0  0  0  0  0  0  0
    4.3479   -6.1410   23.4917 C   0  0  0  0  0  0  0  0  0  0  0  0
    3.5264   -6.4625   22.8587 H   0  0  0  0  0  0  0  0  0  0  0  0
    4.5225   -6.7525   24.7356 C   0  0  0  0  0  0  0  0  0  0  0  0
    3.4311   -8.0131   25.2375 Cl  0  0  0  0  0  0  0  0  0  0  0  0
    5.5701   -6.3647   25.5800 C   0  0  0  0  0  0  0  0  0  0  0  0
    5.6834   -6.8538   26.5451 H   0  0  0  0  0  0  0  0  0  0  0  0
    6.4509   -5.3548   25.1667 C   0  0  0  0  0  0  0  0  0  0  0  0
    7.2686   -5.0224   25.7965 H   0  0  0  0  0  0  0  0  0  0  0  0
    6.1965   -1.9092   22.6096 C   0  0  0  0  0  0  0  0  0  0  0  0
    5.8102   -1.9453   23.6346 H   0  0  0  0  0  0  0  0  0  0  0  0
    5.3909   -1.9744   21.8640 H   0  0  0  0  0  0  0  0  0  0  0  0
    7.0671   -0.6299   22.4007 C   0  0  1  0  0  0  0  0  0  0  0  0
    6.5993    0.2830   22.7811 H   0  0  0  0  0  0  0  0  0  0  0  0
    8.3802   -1.1037   23.0534 C   0  0  0  0  0  0  0  0  0  0  0  0
    9.2051   -0.4105   22.8608 H   0  0  0  0  0  0  0  0  0  0  0  0
    8.3011   -1.3421   24.1239 H   0  0  0  0  0  0  0  0  0  0  0  0
    5.4535    0.6468   20.1737 C   0  0  0  0  0  0  0  0  0  0  0  0
    5.0031    0.6314   21.1628 H   0  0  0  0  0  0  0  0  0  0  0  0
    4.8087    1.2904   19.1084 C   0  0  0  0  0  0  0  0  0  0  0  0
    3.8771    1.8297   19.2561 H   0  0  0  0  0  0  0  0  0  0  0  0
  1  2  1  0
  2  3  2  0
  3  4  1  0
  4  5  1  0
  4  6  2  0
  6  7  1  0
  7  8  1  0
  8  9  1  0
  8 10  1  0
  8 11  1  0
 11 12  1  6
 11 13  1  0
 13 14  1  0
 14 15  1  0
 15 16  2  0
 16 17  1  0
 16 18  1  0
 18 19  1  0
 18 20  2  0
 20 21  1  0
 20 22  1  0
 22 23  1  0
 22 24  2  0
 24 25  1  0
 13 26  1  0
 26 27  1  0
 26 28  1  0
 26 29  1  0
 29 30  1  1
 29 31  1  0
 31 32  1  0
 31 33  1  0
  6 34  1  0
 34 35  1  0
 34 36  2  0
 36 37  1  0
 36  2  1  0
 29  7  1  0
 31 11  1  0
 24 15  1  0
M  END
>  <plip>  (1) 
-0.03571428571428571

>  <filename>  (1) 
[H][c]1[n][c]([H])[c]([N]2[C]([H])([H])[C@]3([H])[N]([O][c]4[c]([H])[c]([H])[c]([Cl])[c]([H])[c]4[H])[C]([H])([H])[C@@]2([H])[C]3([H])[H])[c]([H])[c]1[H]

$$$$
