
     RDKit          3D

 40 41  0  0  0  0  0  0  0  0999 V2000
    4.9138    1.7890   16.9890 H   0  0  0  0  0  0  0  0  0  0  0  0
    5.3951    1.3000   17.8318 C   0  0  0  0  0  0  0  0  0  0  0  0
    6.5553    0.6834   17.5659 N   0  0  0  0  0  0  0  0  0  0  0  0
    7.1517    0.0530   18.5842 C   0  0  0  0  0  0  0  0  0  0  0  0
    8.1057   -0.4268   18.3566 H   0  0  0  0  0  0  0  0  0  0  0  0
    6.6389   -0.0165   19.8943 C   0  0  0  0  0  0  0  0  0  0  0  0
    7.3961   -0.7241   20.9873 C   0  0  0  0  0  0  0  0  0  0  0  0
    7.9044   -1.6026   20.5643 H   0  0  0  0  0  0  0  0  0  0  0  0
    6.6866   -1.0911   21.7419 H   0  0  0  0  0  0  0  0  0  0  0  0
    8.4742    0.1396   21.7216 C   0  0  2  0  0  0  0  0  0  0  0  0
    9.5102    0.6665   20.8077 N   0  0  0  0  0  0  0  0  0  0  0  0
    9.0571    1.3055   20.1603 H   0  0  0  0  0  0  0  0  0  0  0  0
    9.8378   -0.1058   20.2294 H   0  0  0  0  0  0  0  0  0  0  0  0
    9.1866   -0.7454   22.7476 C   0  0  0  0  0  0  0  0  0  0  0  0
    8.4700   -1.1656   23.4611 H   0  0  0  0  0  0  0  0  0  0  0  0
    9.7005   -1.5728   22.2471 H   0  0  0  0  0  0  0  0  0  0  0  0
    9.9354   -0.1732   23.3060 H   0  0  0  0  0  0  0  0  0  0  0  0
    7.8054    1.3396   22.4486 C   0  0  0  0  0  0  0  0  0  0  0  0
    8.6168    1.9366   22.8927 H   0  0  0  0  0  0  0  0  0  0  0  0
    7.3400    2.0067   21.7078 H   0  0  0  0  0  0  0  0  0  0  0  0
    6.8278    0.9199   23.4689 N   0  0  0  0  0  0  0  0  0  0  0  0
    5.9224    1.3337   23.2772 H   0  0  0  0  0  0  0  0  0  0  0  0
    7.1837    1.2615   24.8377 C   0  0  0  0  0  0  0  0  0  0  0  0
    8.2167    0.9294   25.0097 H   0  0  0  0  0  0  0  0  0  0  0  0
    7.0909    2.7692   25.1610 C   0  0  0  0  0  0  0  0  0  0  0  0
    8.0805    3.2332   25.1159 H   0  0  0  0  0  0  0  0  0  0  0  0
    6.4902    3.2728   24.3931 H   0  0  0  0  0  0  0  0  0  0  0  0
    6.4283    2.8932   26.5501 C   0  0  0  0  0  0  0  0  0  0  0  0
    7.0182    3.5233   27.2214 H   0  0  0  0  0  0  0  0  0  0  0  0
    5.4449    3.3657   26.4512 H   0  0  0  0  0  0  0  0  0  0  0  0
    6.2913    1.4542   27.0908 C   0  0  0  0  0  0  0  0  0  0  0  0
    7.1450    1.2057   27.7343 H   0  0  0  0  0  0  0  0  0  0  0  0
    5.3859    1.3237   27.6913 H   0  0  0  0  0  0  0  0  0  0  0  0
    6.2852    0.5536   25.8479 C   0  0  0  0  0  0  0  0  0  0  0  0
    5.2761    0.4641   25.4269 H   0  0  0  0  0  0  0  0  0  0  0  0
    6.6356   -0.4647   26.0553 H   0  0  0  0  0  0  0  0  0  0  0  0
    5.4318    0.6478   20.1493 C   0  0  0  0  0  0  0  0  0  0  0  0
    5.0136    0.6375   21.1619 H   0  0  0  0  0  0  0  0  0  0  0  0
    4.7992    1.3167   19.0979 C   0  0  0  0  0  0  0  0  0  0  0  0
    3.8690    1.8482   19.2515 H   0  0  0  0  0  0  0  0  0  0  0  0
  1  2  1  0
  2  3  2  0
  3  4  1  0
  4  5  1  0
  4  6  2  0
  6  7  1  0
  7  8  1  0
  7  9  1  0
  7 10  1  0
 10 11  1  6
 11 12  1  0
 11 13  1  0
 10 14  1  0
 14 15  1  0
 14 16  1  0
 14 17  1  0
 10 18  1  0
 18 19  1  0
 18 20  1  0
 18 21  1  0
 21 22  1  0
 21 23  1  0
 23 24  1  0
 23 25  1  0
 25 26  1  0
 25 27  1  0
 25 28  1  0
 28 29  1  0
 28 30  1  0
 28 31  1  0
 31 32  1  0
 31 33  1  0
 31 34  1  0
 34 35  1  0
 34 36  1  0
  6 37  1  0
 37 38  1  0
 37 39  2  0
 39 40  1  0
 39  2  1  0
 34 23  1  0
M  END
>  <plip>  (1) 
-0.10344827586206896

>  <filename>  (1) 
[H][c]1[n][c]([H])[c]([C]([H])([H])[C@]([N]([H])[H])([C]([H])([H])[H])[C]([H])([H])[N]([H])[C]2([H])[C]([H])([H])[C]([H])([H])[C]([H])([H])[C]2([H])[H])[c]([H])[c]1[H]

$$$$
