
     RDKit          3D

 30 32  0  0  0  0  0  0  0  0999 V2000
    4.8970    1.8858   16.9795 H   0  0  0  0  0  0  0  0  0  0  0  0
    5.4287    1.3556   17.7671 C   0  0  0  0  0  0  0  0  0  0  0  0
    6.5832    0.7690   17.4137 N   0  0  0  0  0  0  0  0  0  0  0  0
    7.2588    0.0997   18.3557 C   0  0  0  0  0  0  0  0  0  0  0  0
    8.2038   -0.3425   18.0519 H   0  0  0  0  0  0  0  0  0  0  0  0
    6.8017   -0.0431   19.6861 C   0  0  0  0  0  0  0  0  0  0  0  0
    7.4895   -0.8433   20.6753 N   0  0  0  0  0  0  0  0  0  0  0  0
    8.7967   -0.6385   21.1173 C   0  0  0  0  0  0  0  0  0  0  0  0
    9.5724    0.1700   20.6912 O   0  0  0  0  0  0  0  0  0  0  0  0
    8.9669   -1.6732   22.2614 C   0  0  0  0  0  0  0  0  0  0  0  0
    9.9541   -2.0745   22.8129 O   0  0  0  0  0  0  0  0  0  0  0  0
    7.6822   -2.1267   22.5226 N   0  0  0  0  0  0  0  0  0  0  0  0
    7.4027   -3.2581   23.3338 C   0  0  0  0  0  0  0  0  0  0  0  0
    6.7659   -4.1740   22.8859 O   0  0  0  0  0  0  0  0  0  0  0  0
    8.0351   -3.2974   24.7231 C   0  0  0  0  0  0  0  0  0  0  0  0
    8.2822   -2.1877   25.5583 C   0  0  0  0  0  0  0  0  0  0  0  0
    8.0146   -1.1688   25.2936 H   0  0  0  0  0  0  0  0  0  0  0  0
    8.9289   -2.4007   26.7833 C   0  0  0  0  0  0  0  0  0  0  0  0
    9.1863   -1.5611   27.4248 H   0  0  0  0  0  0  0  0  0  0  0  0
    9.2753   -3.6076   27.2428 N   0  0  0  0  0  0  0  0  0  0  0  0
    9.0178   -4.6651   26.4684 C   0  0  0  0  0  0  0  0  0  0  0  0
    9.2963   -5.6423   26.8546 H   0  0  0  0  0  0  0  0  0  0  0  0
    8.4041   -4.5622   25.2212 C   0  0  0  0  0  0  0  0  0  0  0  0
    8.2637   -5.4477   24.6112 H   0  0  0  0  0  0  0  0  0  0  0  0
    6.8421   -1.7997   21.4648 C   0  0  0  0  0  0  0  0  0  0  0  0
    5.7577   -2.2595   21.2795 O   0  0  0  0  0  0  0  0  0  0  0  0
    5.6077    0.5897   20.0427 C   0  0  0  0  0  0  0  0  0  0  0  0
    5.2459    0.5054   21.0662 H   0  0  0  0  0  0  0  0  0  0  0  0
    4.9093    1.3013   19.0634 C   0  0  0  0  0  0  0  0  0  0  0  0
    3.9772    1.8036   19.2916 H   0  0  0  0  0  0  0  0  0  0  0  0
  1  2  1  0
  2  3  2  0
  3  4  1  0
  4  5  1  0
  4  6  2  0
  6  7  1  0
  7  8  1  0
  8  9  2  0
  8 10  1  0
 10 11  2  0
 10 12  1  0
 12 13  1  0
 13 14  2  0
 13 15  1  0
 15 16  2  0
 16 17  1  0
 16 18  1  0
 18 19  1  0
 18 20  2  0
 20 21  1  0
 21 22  1  0
 21 23  2  0
 23 24  1  0
 12 25  1  0
 25 26  2  0
  6 27  1  0
 27 28  1  0
 27 29  2  0
 29 30  1  0
 29  2  1  0
 25  7  1  0
 23 15  1  0
M  END
>  <plip>  (1) 
-0.10714285714285714

>  <filename>  (1) 
[H][c]1[n][c]([H])[c]([N]2[C](=[O])[C](=[O])[N]([C](=[O])[c]3[c]([H])[c]([H])[n][c]([H])[c]3[H])[C]2=[O])[c]([H])[c]1[H]

$$$$
