
     RDKit          3D

 32 33  0  0  0  0  0  0  0  0999 V2000
    4.9315    1.8137   17.0018 H   0  0  0  0  0  0  0  0  0  0  0  0
    5.4041    1.2931   17.8331 C   0  0  0  0  0  0  0  0  0  0  0  0
    6.5662    0.6664   17.5655 N   0  0  0  0  0  0  0  0  0  0  0  0
    7.1810    0.0464   18.5766 C   0  0  0  0  0  0  0  0  0  0  0  0
    8.1308   -0.4508   18.3780 H   0  0  0  0  0  0  0  0  0  0  0  0
    6.6777   -0.0019   19.8964 C   0  0  0  0  0  0  0  0  0  0  0  0
    7.4855   -0.6366   20.7936 O   0  0  0  0  0  0  0  0  0  0  0  0
    7.0328   -0.9460   22.1078 C   0  0  2  0  0  0  0  0  0  0  0  0
    6.4954   -0.0756   22.5316 H   0  0  0  0  0  0  0  0  0  0  0  0
    8.1688   -1.2490   22.8382 O   0  0  0  0  0  0  0  0  0  0  0  0
    8.9971   -0.1684   23.2479 C   0  0  0  0  0  0  0  0  0  0  0  0
    9.0707    0.6222   22.4817 H   0  0  0  0  0  0  0  0  0  0  0  0
    8.5677    0.4507   24.5836 C   0  0  0  0  0  0  0  0  0  0  0  0
    8.1020   -0.3327   25.1894 H   0  0  0  0  0  0  0  0  0  0  0  0
    7.8293    1.2475   24.4489 H   0  0  0  0  0  0  0  0  0  0  0  0
    9.8687    0.9435   25.2590 C   0  0  0  0  0  0  0  0  0  0  0  0
    9.9402    2.0348   25.2401 H   0  0  0  0  0  0  0  0  0  0  0  0
    9.8920    0.6348   26.3099 H   0  0  0  0  0  0  0  0  0  0  0  0
   11.0346    0.3172   24.4529 C   0  0  0  0  0  0  0  0  0  0  0  0
   11.5197    1.0873   23.8428 H   0  0  0  0  0  0  0  0  0  0  0  0
   11.8014   -0.1170   25.1025 H   0  0  0  0  0  0  0  0  0  0  0  0
   10.3802   -0.7249   23.5404 C   0  0  0  0  0  0  0  0  0  0  0  0
   10.9361   -0.9107   22.6165 H   0  0  0  0  0  0  0  0  0  0  0  0
   10.2563   -1.6799   24.0637 H   0  0  0  0  0  0  0  0  0  0  0  0
    6.1600   -2.1819   22.0991 C   0  0  0  0  0  0  0  0  0  0  0  0
    5.8489   -2.4254   23.1197 H   0  0  0  0  0  0  0  0  0  0  0  0
    6.7417   -3.0151   21.6957 H   0  0  0  0  0  0  0  0  0  0  0  0
    5.2665   -2.0363   21.4862 H   0  0  0  0  0  0  0  0  0  0  0  0
    5.4529    0.6189   20.1599 C   0  0  0  0  0  0  0  0  0  0  0  0
    5.0098    0.6061   21.1540 H   0  0  0  0  0  0  0  0  0  0  0  0
    4.8196    1.2869   19.0995 C   0  0  0  0  0  0  0  0  0  0  0  0
    3.8865    1.8166   19.2533 H   0  0  0  0  0  0  0  0  0  0  0  0
  1  2  1  0
  2  3  2  0
  3  4  1  0
  4  5  1  0
  4  6  2  0
  6  7  1  0
  7  8  1  0
  8  9  1  1
  8 10  1  0
 10 11  1  0
 11 12  1  0
 11 13  1  0
 13 14  1  0
 13 15  1  0
 13 16  1  0
 16 17  1  0
 16 18  1  0
 16 19  1  0
 19 20  1  0
 19 21  1  0
 19 22  1  0
 22 23  1  0
 22 24  1  0
  8 25  1  0
 25 26  1  0
 25 27  1  0
 25 28  1  0
  6 29  1  0
 29 30  1  0
 29 31  2  0
 31 32  1  0
 31  2  1  0
 22 11  1  0
M  END
>  <plip>  (1) 
-0.034482758620689655

>  <filename>  (1) 
[H][c]1[n][c]([H])[c]([O][C@]([H])([O][C]2([H])[C]([H])([H])[C]([H])([H])[C]([H])([H])[C]2([H])[H])[C]([H])([H])[H])[c]([H])[c]1[H]

$$$$
