
     RDKit          3D

 33 36  0  0  0  0  0  0  0  0999 V2000
   10.0790   -2.4396   21.5055 H   0  0  0  0  0  0  0  0  0  0  0  0
    9.1383   -1.9326   21.6963 C   0  0  0  0  0  0  0  0  0  0  0  0
    8.6789   -1.9964   22.9439 N   0  0  0  0  0  0  0  0  0  0  0  0
    7.5124   -1.3564   23.1538 C   0  0  0  0  0  0  0  0  0  0  0  0
    6.8969   -1.3626   24.5799 C   0  0  0  0  0  0  0  0  0  0  0  0
    5.7567   -0.7199   24.7957 N   0  0  0  0  0  0  0  0  0  0  0  0
    5.1895   -0.7371   26.0354 C   0  0  0  0  0  0  0  0  0  0  0  0
    3.9443   -0.0579   26.2312 C   0  0  0  0  0  0  0  0  0  0  0  0
    3.5054    0.4294   25.3637 H   0  0  0  0  0  0  0  0  0  0  0  0
    3.3533   -0.0363   27.4744 C   0  0  0  0  0  0  0  0  0  0  0  0
    2.4072    0.4825   27.6331 H   0  0  0  0  0  0  0  0  0  0  0  0
    3.9703   -0.6925   28.5839 C   0  0  0  0  0  0  0  0  0  0  0  0
    3.4923   -0.6665   29.5605 H   0  0  0  0  0  0  0  0  0  0  0  0
    5.1650   -1.3576   28.4251 C   0  0  0  0  0  0  0  0  0  0  0  0
    5.6476   -1.8632   29.2609 H   0  0  0  0  0  0  0  0  0  0  0  0
    5.7998   -1.3973   27.1496 C   0  0  0  0  0  0  0  0  0  0  0  0
    7.0359   -2.0639   26.9057 C   0  0  0  0  0  0  0  0  0  0  0  0
    7.5351   -2.5758   27.7267 H   0  0  0  0  0  0  0  0  0  0  0  0
    7.5821   -2.0571   25.6504 C   0  0  0  0  0  0  0  0  0  0  0  0
    8.5252   -2.5655   25.4669 H   0  0  0  0  0  0  0  0  0  0  0  0
    6.8690   -0.7179   22.1813 N   0  0  0  0  0  0  0  0  0  0  0  0
    7.4184   -0.7216   20.9709 C   0  0  0  0  0  0  0  0  0  0  0  0
    6.6724   -0.0045   19.9264 C   0  0  0  0  0  0  0  0  0  0  0  0
    7.1867    0.0460   18.6286 C   0  0  0  0  0  0  0  0  0  0  0  0
    8.1275   -0.4329   18.3826 H   0  0  0  0  0  0  0  0  0  0  0  0
    6.5778    0.6613   17.6102 N   0  0  0  0  0  0  0  0  0  0  0  0
    5.4155    1.2799   17.8559 C   0  0  0  0  0  0  0  0  0  0  0  0
    4.9297    1.7688   17.0088 H   0  0  0  0  0  0  0  0  0  0  0  0
    4.8170    1.2993   19.1207 C   0  0  0  0  0  0  0  0  0  0  0  0
    3.8839    1.8361   19.2639 H   0  0  0  0  0  0  0  0  0  0  0  0
    5.4470    0.6441   20.1755 C   0  0  0  0  0  0  0  0  0  0  0  0
    5.0055    0.6305   21.1766 H   0  0  0  0  0  0  0  0  0  0  0  0
    8.5668   -1.3215   20.6624 N   0  0  0  0  0  0  0  0  0  0  0  0
  1  2  1  0
  2  3  2  0
  3  4  1  0
  4  5  1  0
  5  6  2  0
  6  7  1  0
  7  8  2  0
  8  9  1  0
  8 10  1  0
 10 11  1  0
 10 12  2  0
 12 13  1  0
 12 14  1  0
 14 15  1  0
 14 16  2  0
 16 17  1  0
 17 18  1  0
 17 19  2  0
 19 20  1  0
  4 21  2  0
 21 22  1  0
 22 23  1  0
 23 24  2  0
 24 25  1  0
 24 26  1  0
 26 27  2  0
 27 28  1  0
 27 29  1  0
 29 30  1  0
 29 31  2  0
 31 32  1  0
 22 33  2  0
 33  2  1  0
 19  5  1  0
 31 23  1  0
 16  7  1  0
M  END
>  <plip>  (1) 
-0.06896551724137931

>  <filename>  (1) 
[H][c]1[n][c](-[c]2[n][c]3[c]([H])[c]([H])[c]([H])[c]([H])[c]3[c]([H])[c]2[H])[n][c](-[c]2[c]([H])[n][c]([H])[c]([H])[c]2[H])[n]1

$$$$
