
     RDKit          3D

 33 35  0  0  0  0  0  0  0  0999 V2000
   11.2469   -1.0651   20.2939 H   0  0  0  0  0  0  0  0  0  0  0  0
   11.6030   -0.6603   21.1104 O   0  0  0  0  0  0  0  0  0  0  0  0
   10.6659    0.2770   21.2987 C   0  0  0  0  0  0  0  0  0  0  0  0
    9.7667    0.3917   20.4883 O   0  0  0  0  0  0  0  0  0  0  0  0
   10.7656    1.0629   22.5532 C   0  0  0  0  0  0  0  0  0  0  0  0
    9.7515    1.8766   23.0448 C   0  0  0  0  0  0  0  0  0  0  0  0
    8.4589    2.2404   22.3884 C   0  0  0  0  0  0  0  0  0  0  0  0
    8.1546    3.2536   22.6763 H   0  0  0  0  0  0  0  0  0  0  0  0
    8.5388    2.1738   21.2989 H   0  0  0  0  0  0  0  0  0  0  0  0
    7.0571    1.1717   22.9835 S   0  0  0  0  0  0  0  0  0  0  0  0
    7.4669   -0.3860   22.2567 C   0  0  0  0  0  0  0  0  0  0  0  0
    7.9485   -1.4357   22.8834 N   0  0  0  0  0  0  0  0  0  0  0  0
    8.1544   -2.3806   21.9342 N   0  0  0  0  0  0  0  0  0  0  0  0
    7.8043   -1.9575   20.7797 N   0  0  0  0  0  0  0  0  0  0  0  0
    7.3358   -0.7111   20.9458 N   0  0  0  0  0  0  0  0  0  0  0  0
    6.6851   -0.0178   19.8878 C   0  0  0  0  0  0  0  0  0  0  0  0
    7.2275   -0.0020   18.5927 C   0  0  0  0  0  0  0  0  0  0  0  0
    8.1564   -0.5255   18.3764 H   0  0  0  0  0  0  0  0  0  0  0  0
    6.6402    0.6379   17.5719 N   0  0  0  0  0  0  0  0  0  0  0  0
    5.4798    1.2700   17.8110 C   0  0  0  0  0  0  0  0  0  0  0  0
    5.0232    1.7766   16.9638 H   0  0  0  0  0  0  0  0  0  0  0  0
    4.8552    1.2805   19.0616 C   0  0  0  0  0  0  0  0  0  0  0  0
    3.9139    1.8006   19.1982 H   0  0  0  0  0  0  0  0  0  0  0  0
    5.4668    0.6215   20.1293 C   0  0  0  0  0  0  0  0  0  0  0  0
    5.0074    0.6040   21.1182 H   0  0  0  0  0  0  0  0  0  0  0  0
   10.0778    2.0978   24.4048 C   0  0  0  0  0  0  0  0  0  0  0  0
    9.2148    2.7944   25.4121 C   0  0  0  0  0  0  0  0  0  0  0  0
    9.6382    2.7501   26.4129 H   0  0  0  0  0  0  0  0  0  0  0  0
    9.0409    3.8415   25.1522 H   0  0  0  0  0  0  0  0  0  0  0  0
    8.2279    2.3233   25.4393 H   0  0  0  0  0  0  0  0  0  0  0  0
   11.2355    1.5310   24.7021 N   0  0  0  0  0  0  0  0  0  0  0  0
   11.6439    0.9090   23.5892 N   0  0  0  0  0  0  0  0  0  0  0  0
   12.5133    0.3901   23.6458 H   0  0  0  0  0  0  0  0  0  0  0  0
  1  2  1  0
  2  3  1  0
  3  4  2  0
  3  5  1  0
  5  6  2  0
  6  7  1  0
  7  8  1  0
  7  9  1  0
  7 10  1  0
 10 11  1  0
 11 12  2  0
 12 13  1  0
 13 14  2  0
 14 15  1  0
 15 16  1  0
 16 17  2  0
 17 18  1  0
 17 19  1  0
 19 20  2  0
 20 21  1  0
 20 22  1  0
 22 23  1  0
 22 24  2  0
 24 25  1  0
  6 26  1  0
 26 27  1  0
 27 28  1  0
 27 29  1  0
 27 30  1  0
 26 31  2  0
 31 32  1  0
 32 33  1  0
 32  5  1  0
 15 11  1  0
 24 16  1  0
M  END
>  <plip>  (1) 
-0.1

>  <filename>  (1) 
[H][O][C](=[O])[c]1[c]([C]([H])([H])[S][c]2[n][n][n][n]2-[c]2[c]([H])[n][c]([H])[c]([H])[c]2[H])[c]([C]([H])([H])[H])[n][n]1[H]

$$$$
