
     RDKit          3D

 35 36  0  0  0  0  0  0  0  0999 V2000
    9.6737    1.8826   21.2556 C   0  0  0  0  0  0  0  0  0  0  0  0
   10.6973    1.6084   22.3702 C   0  0  0  0  0  0  0  0  0  0  0  0
   10.7947    0.1426   22.6766 C   0  0  0  0  0  0  0  0  0  0  0  0
   11.8287   -0.5784   22.3215 N   0  0  0  0  0  0  0  0  0  0  0  0
   11.5062   -1.8783   22.6512 O   0  0  0  0  0  0  0  0  0  0  0  0
   10.2895   -1.9192   23.2189 C   0  0  0  0  0  0  0  0  0  0  0  0
    9.7669   -3.2540   23.6389 C   0  0  0  0  0  0  0  0  0  0  0  0
   10.5699   -3.9894   23.6512 H   0  0  0  0  0  0  0  0  0  0  0  0
    9.3152   -3.2024   24.6357 H   0  0  0  0  0  0  0  0  0  0  0  0
    8.9857   -3.5814   22.9433 H   0  0  0  0  0  0  0  0  0  0  0  0
    9.7746   -0.6642   23.2559 C   0  0  0  0  0  0  0  0  0  0  0  0
    8.3983   -0.2889   23.6887 C   0  0  0  0  0  0  0  0  0  0  0  0
    7.4304   -1.2554   23.2060 N   0  0  0  0  0  0  0  0  0  0  0  0
    6.9571   -1.4444   21.9562 C   0  0  0  0  0  0  0  0  0  0  0  0
    5.8688   -2.6703   21.6697 S   0  0  0  0  0  0  0  0  0  0  0  0
    7.4786   -0.6069   21.0100 N   0  0  0  0  0  0  0  0  0  0  0  0
    6.7839    0.0043   19.9162 C   0  0  0  0  0  0  0  0  0  0  0  0
    5.5315    0.5952   20.1279 C   0  0  0  0  0  0  0  0  0  0  0  0
    4.8837    1.2171   19.0559 C   0  0  0  0  0  0  0  0  0  0  0  0
    5.5020    1.2224   17.8003 C   0  0  0  0  0  0  0  0  0  0  0  0
    6.6883    0.6414   17.5678 N   0  0  0  0  0  0  0  0  0  0  0  0
    7.3115    0.0581   18.6049 C   0  0  0  0  0  0  0  0  0  0  0  0
    8.2744   -0.4035   18.3957 H   0  0  0  0  0  0  0  0  0  0  0  0
    5.0220    1.7004   16.9493 H   0  0  0  0  0  0  0  0  0  0  0  0
    3.9276    1.7118   19.1892 H   0  0  0  0  0  0  0  0  0  0  0  0
    5.1011    0.5776   21.1309 H   0  0  0  0  0  0  0  0  0  0  0  0
    8.3804   -0.2503   21.2772 H   0  0  0  0  0  0  0  0  0  0  0  0
    7.0638   -1.9528   23.8287 H   0  0  0  0  0  0  0  0  0  0  0  0
    8.1348    0.7159   23.3345 H   0  0  0  0  0  0  0  0  0  0  0  0
    8.3102   -0.2584   24.7807 H   0  0  0  0  0  0  0  0  0  0  0  0
   10.4114    2.1494   23.2812 H   0  0  0  0  0  0  0  0  0  0  0  0
   11.6856    1.9832   22.0780 H   0  0  0  0  0  0  0  0  0  0  0  0
    9.6178    2.9439   21.0236 H   0  0  0  0  0  0  0  0  0  0  0  0
    9.9543    1.3301   20.3526 H   0  0  0  0  0  0  0  0  0  0  0  0
    8.6597    1.5783   21.5298 H   0  0  0  0  0  0  0  0  0  0  0  0
  1  2  1  0
  2  3  1  0
  3  4  2  0
  4  5  1  0
  5  6  1  0
  6  7  1  0
  7  8  1  0
  7  9  1  0
  7 10  1  0
  6 11  2  0
 11 12  1  0
 12 13  1  0
 13 14  1  0
 14 15  2  0
 14 16  1  0
 16 17  1  0
 17 18  2  0
 18 19  1  0
 19 20  2  0
 20 21  1  0
 21 22  2  0
 22 23  1  0
 20 24  1  0
 19 25  1  0
 18 26  1  0
 16 27  1  0
 13 28  1  0
 12 29  1  0
 12 30  1  0
  2 31  1  0
  2 32  1  0
  1 33  1  0
  1 34  1  0
  1 35  1  0
 11  3  1  0
 22 17  1  0
M  END
>  <plip>  (1) 
-0.0

>  <filename>  (1) 
[H][c]1[n][c]([H])[c]([N]([H])[C](=[S])[N]([H])[C]([H])([H])[c]2[c]([C]([H])([H])[C]([H])([H])[H])[n][o][c]2[C]([H])([H])[H])[c]([H])[c]1[H]

$$$$
