
     RDKit          3D

 55 57  0  0  0  0  0  0  0  0999 V2000
   11.5182    3.3695   23.7872 C   0  0  0  0  0  0  0  0  0  0  0  0
   10.4081    2.3980   24.1967 C   0  0  0  0  0  0  0  0  0  0  0  0
    8.9711    2.8950   23.9260 C   0  0  0  0  0  0  0  0  0  0  0  0
    8.3718    3.7148   25.0754 C   0  0  0  0  0  0  0  0  0  0  0  0
    8.9867    5.0868   25.2269 C   0  0  0  0  0  0  0  0  0  0  0  0
    9.7041    5.4649   26.3681 C   0  0  0  0  0  0  0  0  0  0  0  0
   10.3138    6.7165   26.4523 C   0  0  0  0  0  0  0  0  0  0  0  0
   10.2264    7.6066   25.3800 C   0  0  0  0  0  0  0  0  0  0  0  0
    9.5290    7.2395   24.2232 C   0  0  0  0  0  0  0  0  0  0  0  0
    8.8850    6.0066   24.1675 C   0  0  0  0  0  0  0  0  0  0  0  0
    8.2854    5.7544   23.2922 H   0  0  0  0  0  0  0  0  0  0  0  0
    9.5109    7.8945   23.3533 H   0  0  0  0  0  0  0  0  0  0  0  0
   10.6923    8.5830   25.4595 H   0  0  0  0  0  0  0  0  0  0  0  0
   10.8430    7.0012   27.3593 H   0  0  0  0  0  0  0  0  0  0  0  0
    9.7835    4.7802   27.2045 H   0  0  0  0  0  0  0  0  0  0  0  0
    7.3027    3.8185   24.8576 H   0  0  0  0  0  0  0  0  0  0  0  0
    8.4573    3.1414   26.0060 H   0  0  0  0  0  0  0  0  0  0  0  0
    8.0426    1.7594   23.6646 N   0  0  0  0  0  4  0  0  0  0  0  0
    8.1774    1.1313   22.3564 C   0  0  0  0  0  0  0  0  0  0  0  0
    7.4670   -0.2079   22.3264 C   0  0  2  0  0  0  0  0  0  0  0  0
    8.0879   -1.3438   23.1587 C   0  0  0  0  0  0  0  0  0  0  0  0
    7.7729   -2.6584   22.4018 C   0  0  0  0  0  0  0  0  0  0  0  0
    7.2176   -2.2539   21.0369 N   0  0  0  0  0  4  0  0  0  0  0  0
    5.7620   -2.6165   20.8625 C   0  0  0  0  0  0  0  0  0  0  0  0
    5.5962   -3.6745   21.0895 H   0  0  0  0  0  0  0  0  0  0  0  0
    5.4539   -2.4081   19.8357 H   0  0  0  0  0  0  0  0  0  0  0  0
    5.1314   -2.0109   21.5259 H   0  0  0  0  0  0  0  0  0  0  0  0
    7.5180   -0.7483   20.9101 C   0  0  1  0  0  0  0  0  0  0  0  0
    6.7084   -0.0458   19.8638 C   0  0  0  0  0  0  0  0  0  0  0  0
    5.5602    0.7248   20.1043 C   0  0  0  0  0  0  0  0  0  0  0  0
    4.9603    1.3778   19.0272 C   0  0  0  0  0  0  0  0  0  0  0  0
    5.5150    1.2278   17.7516 C   0  0  0  0  0  0  0  0  0  0  0  0
    6.5795    0.4501   17.4991 N   0  0  0  0  0  0  0  0  0  0  0  0
    7.1416   -0.1741   18.5379 C   0  0  0  0  0  0  0  0  0  0  0  0
    8.0104   -0.7959   18.3166 H   0  0  0  0  0  0  0  0  0  0  0  0
    5.0831    1.7510   16.9009 H   0  0  0  0  0  0  0  0  0  0  0  0
    4.0998    2.0232   19.1654 H   0  0  0  0  0  0  0  0  0  0  0  0
    5.1478    0.8256   21.1107 H   0  0  0  0  0  0  0  0  0  0  0  0
    8.5678   -0.7126   20.6005 H   0  0  0  0  0  0  0  0  0  0  0  0
    7.7490   -2.6851   20.2535 H   0  0  0  0  0  0  0  0  0  0  0  0
    8.6641   -3.2744   22.2649 H   0  0  0  0  0  0  0  0  0  0  0  0
    7.0336   -3.2752   22.9178 H   0  0  0  0  0  0  0  0  0  0  0  0
    9.1769   -1.2148   23.2296 H   0  0  0  0  0  0  0  0  0  0  0  0
    7.6989   -1.3686   24.1827 H   0  0  0  0  0  0  0  0  0  0  0  0
    6.4207   -0.0776   22.6315 H   0  0  0  0  0  0  0  0  0  0  0  0
    9.2391    0.9857   22.1205 H   0  0  0  0  0  0  0  0  0  0  0  0
    7.8004    1.7982   21.5675 H   0  0  0  0  0  0  0  0  0  0  0  0
    8.1841    1.0383   24.4183 H   0  0  0  0  0  0  0  0  0  0  0  0
    7.0526    2.0860   23.7672 H   0  0  0  0  0  0  0  0  0  0  0  0
    8.9965    3.5200   23.0198 H   0  0  0  0  0  0  0  0  0  0  0  0
   10.5616    1.4577   23.6531 H   0  0  0  0  0  0  0  0  0  0  0  0
   10.5116    2.1522   25.2622 H   0  0  0  0  0  0  0  0  0  0  0  0
   11.5064    3.5694   22.7095 H   0  0  0  0  0  0  0  0  0  0  0  0
   12.5051    2.9552   24.0145 H   0  0  0  0  0  0  0  0  0  0  0  0
   11.4465    4.3314   24.3002 H   0  0  0  0  0  0  0  0  0  0  0  0
  1  2  1  0
  2  3  1  0
  3  4  1  0
  4  5  1  0
  5  6  2  0
  6  7  1  0
  7  8  2  0
  8  9  1  0
  9 10  2  0
 10 11  1  0
  9 12  1  0
  8 13  1  0
  7 14  1  0
  6 15  1  0
  4 16  1  0
  4 17  1  0
  3 18  1  0
 18 19  1  0
 19 20  1  0
 20 21  1  0
 21 22  1  0
 22 23  1  0
 23 24  1  0
 24 25  1  0
 24 26  1  0
 24 27  1  0
 23 28  1  0
 28 29  1  0
 29 30  2  0
 30 31  1  0
 31 32  2  0
 32 33  1  0
 33 34  2  0
 34 35  1  0
 32 36  1  0
 31 37  1  0
 30 38  1  0
 28 39  1  6
 23 40  1  0
 22 41  1  0
 22 42  1  0
 21 43  1  0
 21 44  1  0
 20 45  1  1
 19 46  1  0
 19 47  1  0
 18 48  1  0
 18 49  1  0
  3 50  1  0
  2 51  1  0
  2 52  1  0
  1 53  1  0
  1 54  1  0
  1 55  1  0
 10  5  1  0
 28 20  1  0
 34 29  1  0
M  CHG  2  18   1  23   1
M  END
>  <plip>  (1) 
-0.13793103448275862

>  <filename>  (1) 
[H][c]1[n][c]([H])[c]([C@@]2([H])[C@]([H])([C]([H])([H])[N+]([H])([H])[C]([H])([C]([H])([H])[c]3[c]([H])[c]([H])[c]([H])[c]([H])[c]3[H])[C]([H])([H])[C]([H])([H])[H])[C]([H])([H])[C]([H])([H])[N+]2([H])[C]([H])([H])[H])[c]([H])[c]1[H]

$$$$
