
     RDKit          3D

 45 47  0  0  0  0  0  0  0  0999 V2000
   10.7100    6.6958   24.2076 H   0  0  0  0  0  0  0  0  0  0  0  0
   10.1583    6.3457   24.9199 O   0  0  0  0  0  0  0  0  0  0  0  0
   10.2312    4.9280   24.8793 C   0  0  0  0  0  0  0  0  0  0  0  0
   11.2698    4.5724   24.9108 H   0  0  0  0  0  0  0  0  0  0  0  0
    9.7238    4.5702   25.7839 H   0  0  0  0  0  0  0  0  0  0  0  0
    9.5579    4.3029   23.6510 C   0  0  0  0  0  0  0  0  0  0  0  0
    8.5111    4.6501   23.5990 H   0  0  0  0  0  0  0  0  0  0  0  0
   10.0560    4.6905   22.7496 H   0  0  0  0  0  0  0  0  0  0  0  0
    9.6973    2.8388   23.6972 N   0  0  0  0  0  0  0  0  0  0  0  0
    9.9019    2.1868   22.3909 C   0  0  0  0  0  0  0  0  0  0  0  0
   10.6756    2.7249   21.8359 H   0  0  0  0  0  0  0  0  0  0  0  0
   10.2921    1.1763   22.5819 H   0  0  0  0  0  0  0  0  0  0  0  0
    8.6159    2.0554   21.5332 C   0  0  0  0  0  0  0  0  0  0  0  0
    8.2330    3.0628   21.3068 H   0  0  0  0  0  0  0  0  0  0  0  0
    8.8365    1.5814   20.5709 H   0  0  0  0  0  0  0  0  0  0  0  0
    7.5443    1.3282   22.2403 N   0  0  0  0  0  0  0  0  0  0  0  0
    7.7145   -0.1218   22.2018 C   0  0  2  0  0  0  0  0  0  0  0  0
    8.7611   -0.4203   22.4092 H   0  0  0  0  0  0  0  0  0  0  0  0
    7.4373   -0.6677   20.8674 N   0  0  0  0  0  0  0  0  0  0  0  0
    6.7158    0.0208   19.8407 C   0  0  0  0  0  0  0  0  0  0  0  0
    7.1753    0.0563   18.4993 C   0  0  0  0  0  0  0  0  0  0  0  0
    8.0982   -0.4596   18.2350 H   0  0  0  0  0  0  0  0  0  0  0  0
    6.5550    0.6940   17.4904 N   0  0  0  0  0  0  0  0  0  0  0  0
    5.3980    1.3158   17.7781 C   0  0  0  0  0  0  0  0  0  0  0  0
    4.9018    1.8266   16.9516 H   0  0  0  0  0  0  0  0  0  0  0  0
    4.8275    1.3060   19.0554 C   0  0  0  0  0  0  0  0  0  0  0  0
    3.8746    1.7974   19.2248 H   0  0  0  0  0  0  0  0  0  0  0  0
    5.5005    0.6640   20.1025 C   0  0  0  0  0  0  0  0  0  0  0  0
    5.1192    0.6644   21.1232 H   0  0  0  0  0  0  0  0  0  0  0  0
    7.3877   -2.1277   20.8534 C   0  0  0  0  0  0  0  0  0  0  0  0
    6.9852   -2.4520   19.8876 H   0  0  0  0  0  0  0  0  0  0  0  0
    8.4000   -2.5449   20.9782 H   0  0  0  0  0  0  0  0  0  0  0  0
    6.4897   -2.7008   21.9553 C   0  0  0  0  0  0  0  0  0  0  0  0
    6.5886   -3.7891   21.9887 H   0  0  0  0  0  0  0  0  0  0  0  0
    5.4426   -2.4637   21.7273 H   0  0  0  0  0  0  0  0  0  0  0  0
    6.8468   -2.2252   23.2418 O   0  0  0  0  0  0  0  0  0  0  0  0
    6.8901   -0.8095   23.3256 C   0  0  0  0  0  0  0  0  0  0  0  0
    7.3764   -0.5887   24.2768 H   0  0  0  0  0  0  0  0  0  0  0  0
    5.8933   -0.3495   23.3366 H   0  0  0  0  0  0  0  0  0  0  0  0
    7.3186    1.9903   23.5478 C   0  0  0  0  0  0  0  0  0  0  0  0
    6.9181    2.9917   23.3328 H   0  0  0  0  0  0  0  0  0  0  0  0
    6.5369    1.4800   24.1176 H   0  0  0  0  0  0  0  0  0  0  0  0
    8.6027    2.1428   24.4052 C   0  0  0  0  0  0  0  0  0  0  0  0
    8.3580    2.6730   25.3326 H   0  0  0  0  0  0  0  0  0  0  0  0
    8.9715    1.1482   24.7043 H   0  0  0  0  0  0  0  0  0  0  0  0
  1  2  1  0
  2  3  1  0
  3  4  1  0
  3  5  1  0
  3  6  1  0
  6  7  1  0
  6  8  1  0
  6  9  1  0
  9 10  1  0
 10 11  1  0
 10 12  1  0
 10 13  1  0
 13 14  1  0
 13 15  1  0
 13 16  1  0
 16 17  1  0
 17 18  1  1
 17 19  1  0
 19 20  1  0
 20 21  2  0
 21 22  1  0
 21 23  1  0
 23 24  2  0
 24 25  1  0
 24 26  1  0
 26 27  1  0
 26 28  2  0
 28 29  1  0
 19 30  1  0
 30 31  1  0
 30 32  1  0
 30 33  1  0
 33 34  1  0
 33 35  1  0
 33 36  1  0
 36 37  1  0
 37 38  1  0
 37 39  1  0
 16 40  1  0
 40 41  1  0
 40 42  1  0
 40 43  1  0
 43 44  1  0
 43 45  1  0
 43  9  1  0
 37 17  1  0
 28 20  1  0
M  END
>  <plip>  (1) 
-0.03571428571428571

>  <filename>  (1) 
[H][O][C]([H])([H])[C]([H])([H])[N]1[C]([H])([H])[C]([H])([H])[N]([C@]2([H])[N]([c]3[c]([H])[n][c]([H])[c]([H])[c]3[H])[C]([H])([H])[C]([H])([H])[O][C]2([H])[H])[C]([H])([H])[C]1([H])[H]

$$$$
