
     RDKit          3D

 34 35  0  0  0  0  0  0  0  0999 V2000
    5.0612    1.6498   16.9493 H   0  0  0  0  0  0  0  0  0  0  0  0
    5.4911    1.2367   17.8611 C   0  0  0  0  0  0  0  0  0  0  0  0
    6.6819    0.6349   17.7327 N   0  0  0  0  0  0  0  0  0  0  0  0
    7.2605    0.1619   18.8326 C   0  0  0  0  0  0  0  0  0  0  0  0
    8.2390   -0.2972   18.6983 H   0  0  0  0  0  0  0  0  0  0  0  0
    6.6542    0.2426   20.0776 C   0  0  0  0  0  0  0  0  0  0  0  0
    7.5281   -0.6069   21.2955 S   0  0  0  0  0  0  0  0  0  0  0  0
    6.8933   -1.8483   21.6840 O   0  0  0  0  0  0  0  0  0  0  0  0
    8.9275   -0.5874   20.9408 O   0  0  0  0  0  0  0  0  0  0  0  0
    7.1710    0.3350   22.5855 N   0  0  0  0  0  0  0  0  0  0  0  0
    7.2524   -0.3023   23.3571 H   0  0  0  0  0  0  0  0  0  0  0  0
    7.9675    1.4377   22.7060 C   0  0  0  0  0  0  0  0  0  0  0  0
    8.5893    1.9658   21.8240 O   0  0  0  0  0  0  0  0  0  0  0  0
    7.8887    1.8430   23.9955 N   0  0  0  0  0  0  0  0  0  0  0  0
    6.9999    1.6664   24.4218 H   0  0  0  0  0  0  0  0  0  0  0  0
    8.2527    3.1106   24.4050 C   0  0  0  0  0  0  0  0  0  0  0  0
    7.5359    3.6455   25.2218 O   0  0  0  0  0  0  0  0  0  0  0  0
    9.4042    3.5552   23.8693 N   0  0  0  0  0  0  0  0  0  0  0  0
    9.6278    3.1007   22.9958 H   0  0  0  0  0  0  0  0  0  0  0  0
   10.1191    4.6803   24.2957 C   0  0  0  0  0  0  0  0  0  0  0  0
    9.8931    5.2767   25.5450 C   0  0  0  0  0  0  0  0  0  0  0  0
    9.1067    4.8823   26.1732 H   0  0  0  0  0  0  0  0  0  0  0  0
   10.6712    6.3677   25.9388 C   0  0  0  0  0  0  0  0  0  0  0  0
   10.5253    6.8229   26.9133 H   0  0  0  0  0  0  0  0  0  0  0  0
   11.6600    6.8579   25.0800 C   0  0  0  0  0  0  0  0  0  0  0  0
   12.6595    8.1955   25.5736 Cl  0  0  0  0  0  0  0  0  0  0  0  0
   11.8887    6.2655   23.8348 C   0  0  0  0  0  0  0  0  0  0  0  0
   12.6621    6.6673   23.1889 H   0  0  0  0  0  0  0  0  0  0  0  0
   11.1126    5.1704   23.4458 C   0  0  0  0  0  0  0  0  0  0  0  0
   11.2542    4.6906   22.4802 H   0  0  0  0  0  0  0  0  0  0  0  0
    5.3965    0.8372   20.2344 C   0  0  0  0  0  0  0  0  0  0  0  0
    4.8804    0.9211   21.1944 H   0  0  0  0  0  0  0  0  0  0  0  0
    4.8145    1.3498   19.0795 C   0  0  0  0  0  0  0  0  0  0  0  0
    3.8558    1.8549   19.1054 H   0  0  0  0  0  0  0  0  0  0  0  0
  1  2  1  0
  2  3  2  0
  3  4  1  0
  4  5  1  0
  4  6  2  0
  6  7  1  0
  7  8  2  0
  7  9  2  0
  7 10  1  0
 10 11  1  0
 10 12  1  0
 12 13  2  0
 12 14  1  0
 14 15  1  0
 14 16  1  0
 16 17  2  0
 16 18  1  0
 18 19  1  0
 18 20  1  0
 20 21  2  0
 21 22  1  0
 21 23  1  0
 23 24  1  0
 23 25  2  0
 25 26  1  0
 25 27  1  0
 27 28  1  0
 27 29  2  0
 29 30  1  0
  6 31  1  0
 31 32  1  0
 31 33  2  0
 33 34  1  0
 33  2  1  0
 29 20  1  0
M  END
>  <plip>  (1) 
-0.17857142857142858

>  <filename>  (1) 
[H][c]1[n][c]([H])[c]([S](=[O])(=[O])[N]([H])[C](=[O])[N]([H])[C](=[O])[N]([H])[c]2[c]([H])[c]([H])[c]([Cl])[c]([H])[c]2[H])[c]([H])[c]1[H]

$$$$
