
     RDKit          3D

 30 32  0  0  0  0  0  0  0  0999 V2000
   13.1927    5.1323   22.6597 C   0  0  0  0  0  0  0  0  0  0  0  0
   12.0103    4.2479   22.4993 C   0  0  0  0  0  0  0  0  0  0  0  0
   10.8067    4.5423   22.8556 N   0  0  0  0  0  0  0  0  0  0  0  0
   10.0610    3.4216   22.4754 C   0  0  0  0  0  0  0  0  0  0  0  0
    8.7001    3.1292   22.5479 C   0  0  0  0  0  0  0  0  0  0  0  0
    8.2390    1.8922   22.0820 C   0  0  0  0  0  0  0  0  0  0  0  0
    9.1480    0.9510   21.5275 C   0  0  0  0  0  0  0  0  0  0  0  0
    8.7995   -0.2936   21.0757 O   0  0  0  0  0  0  0  0  0  0  0  0
    7.4269   -0.6890   20.9888 C   0  0  0  0  0  0  0  0  0  0  0  0
    6.6508    0.0226   19.9081 C   0  0  0  0  0  0  0  0  0  0  0  0
    5.4260    0.6534   20.1533 C   0  0  0  0  0  0  0  0  0  0  0  0
    4.7937    1.3124   19.0951 C   0  0  0  0  0  0  0  0  0  0  0  0
    5.3977    1.2965   17.8339 C   0  0  0  0  0  0  0  0  0  0  0  0
    6.5613    0.6800   17.5769 N   0  0  0  0  0  0  0  0  0  0  0  0
    7.1665    0.0727   18.6036 C   0  0  0  0  0  0  0  0  0  0  0  0
    8.1104   -0.4175   18.3783 H   0  0  0  0  0  0  0  0  0  0  0  0
    4.9243    1.7884   16.9868 H   0  0  0  0  0  0  0  0  0  0  0  0
    3.8654    1.8495   19.2438 H   0  0  0  0  0  0  0  0  0  0  0  0
    4.9895    0.6402   21.1586 H   0  0  0  0  0  0  0  0  0  0  0  0
    7.4960   -1.7592   20.7749 H   0  0  0  0  0  0  0  0  0  0  0  0
    6.9195   -0.5924   21.9609 H   0  0  0  0  0  0  0  0  0  0  0  0
   10.5205    1.2459   21.4334 C   0  0  0  0  0  0  0  0  0  0  0  0
   10.9256    2.4818   21.9039 C   0  0  0  0  0  0  0  0  0  0  0  0
   12.1830    3.0205   21.9204 O   0  0  0  0  0  0  0  0  0  0  0  0
   11.2051    0.5079   21.0345 H   0  0  0  0  0  0  0  0  0  0  0  0
    7.1781    1.6589   22.1541 H   0  0  0  0  0  0  0  0  0  0  0  0
    8.0366    3.8797   22.9664 H   0  0  0  0  0  0  0  0  0  0  0  0
   13.2319    5.8548   21.8380 H   0  0  0  0  0  0  0  0  0  0  0  0
   14.1265    4.5685   22.6862 H   0  0  0  0  0  0  0  0  0  0  0  0
   13.0668    5.7123   23.5761 H   0  0  0  0  0  0  0  0  0  0  0  0
  1  2  1  0
  2  3  2  0
  3  4  1  0
  4  5  2  0
  5  6  1  0
  6  7  2  0
  7  8  1  0
  8  9  1  0
  9 10  1  0
 10 11  2  0
 11 12  1  0
 12 13  2  0
 13 14  1  0
 14 15  2  0
 15 16  1  0
 13 17  1  0
 12 18  1  0
 11 19  1  0
  9 20  1  0
  9 21  1  0
  7 22  1  0
 22 23  2  0
 23 24  1  0
 22 25  1  0
  6 26  1  0
  5 27  1  0
  1 28  1  0
  1 29  1  0
  1 30  1  0
 24  2  1  0
 23  4  1  0
 15 10  1  0
M  END
>  <plip>  (1) 
-0.07142857142857142

>  <filename>  (1) 
[H][c]1[n][c]([H])[c]([C]([H])([H])[O][c]2[c]([H])[c]([H])[c]3[n][c]([C]([H])([H])[H])[o][c]3[c]2[H])[c]([H])[c]1[H]

$$$$
