
     RDKit          3D

 31 32  0  0  0  0  0  0  0  0999 V2000
   10.6538    2.6898   21.4194 N   0  0  0  0  0  0  0  0  0  0  0  0
    9.5526    2.1005   21.8934 C   0  0  0  0  0  0  0  0  0  0  0  0
    9.1408    1.0180   21.1891 N   0  0  0  0  0  4  0  0  0  0  0  0
    8.1366    0.2548   21.8531 O   0  0  0  0  0  0  0  0  0  0  0  0
    7.4454   -0.6360   20.9770 C   0  0  0  0  0  0  0  0  0  0  0  0
    6.6571    0.0402   19.8897 C   0  0  0  0  0  0  0  0  0  0  0  0
    5.4280    0.6689   20.1199 C   0  0  0  0  0  0  0  0  0  0  0  0
    4.8096    1.3412   19.0645 C   0  0  0  0  0  0  0  0  0  0  0  0
    5.4345    1.3445   17.8131 C   0  0  0  0  0  0  0  0  0  0  0  0
    6.5971    0.7233   17.5670 N   0  0  0  0  0  0  0  0  0  0  0  0
    7.1815    0.0960   18.5915 C   0  0  0  0  0  0  0  0  0  0  0  0
    8.1335   -0.3937   18.3740 H   0  0  0  0  0  0  0  0  0  0  0  0
    4.9839    1.8688   16.9721 H   0  0  0  0  0  0  0  0  0  0  0  0
    3.8735    1.8753   19.1960 H   0  0  0  0  0  0  0  0  0  0  0  0
    4.9645    0.6135   21.1083 H   0  0  0  0  0  0  0  0  0  0  0  0
    8.1525   -1.3512   20.5372 H   0  0  0  0  0  0  0  0  0  0  0  0
    6.8108   -1.1925   21.6730 H   0  0  0  0  0  0  0  0  0  0  0  0
    9.9639    0.4311   21.0001 H   0  0  0  0  0  0  0  0  0  0  0  0
    8.9078    2.5901   23.1259 C   0  0  0  0  0  0  0  0  0  0  0  0
    7.6624    3.2413   22.7672 N   0  0  0  0  0  0  0  0  0  0  0  0
    6.4035    2.7642   22.8349 C   0  0  0  0  0  0  0  0  0  0  0  0
    5.5925    3.6932   22.2051 C   0  0  0  0  0  0  0  0  0  0  0  0
    6.4983    4.6894   21.7628 C   0  0  0  0  0  0  0  0  0  0  0  0
    7.7465    4.3901   22.1061 N   0  0  0  0  0  0  0  0  0  0  0  0
    6.3059    5.5893   21.1889 H   0  0  0  0  0  0  0  0  0  0  0  0
    4.5196    3.6628   22.0672 H   0  0  0  0  0  0  0  0  0  0  0  0
    6.2314    1.8040   23.3007 H   0  0  0  0  0  0  0  0  0  0  0  0
    8.7179    1.7637   23.8076 H   0  0  0  0  0  0  0  0  0  0  0  0
    9.5374    3.3439   23.6048 H   0  0  0  0  0  0  0  0  0  0  0  0
   10.7654    3.6707   21.6685 H   0  0  0  0  0  0  0  0  0  0  0  0
   10.8445    2.5537   20.4295 H   0  0  0  0  0  0  0  0  0  0  0  0
  1  2  1  0
  2  3  2  3
  3  4  1  0
  4  5  1  0
  5  6  1  0
  6  7  2  0
  7  8  1  0
  8  9  2  0
  9 10  1  0
 10 11  2  0
 11 12  1  0
  9 13  1  0
  8 14  1  0
  7 15  1  0
  5 16  1  0
  5 17  1  0
  3 18  1  0
  2 19  1  0
 19 20  1  0
 20 21  1  0
 21 22  2  0
 22 23  1  0
 23 24  2  0
 23 25  1  0
 22 26  1  0
 21 27  1  0
 19 28  1  0
 19 29  1  0
  1 30  1  0
  1 31  1  0
 11  6  1  0
 24 20  1  0
M  CHG  1   3   1
M  END
>  <plip>  (1) 
-0.14285714285714285

>  <filename>  (1) 
[H][c]1[n][c]([H])[c]([C]([H])([H])[O][N+]([H])=[C]([N]([H])[H])[C]([H])([H])[n]2[n][c]([H])[c]([H])[c]2[H])[c]([H])[c]1[H]

$$$$
