
     RDKit          3D

 37 39  0  0  0  0  0  0  0  0999 V2000
    4.9158    1.7859   16.9936 H   0  0  0  0  0  0  0  0  0  0  0  0
    5.3966    1.2978   17.8374 C   0  0  0  0  0  0  0  0  0  0  0  0
    6.5573    0.6805   17.5728 N   0  0  0  0  0  0  0  0  0  0  0  0
    7.1637    0.0670   18.5976 C   0  0  0  0  0  0  0  0  0  0  0  0
    8.1144   -0.4165   18.3793 H   0  0  0  0  0  0  0  0  0  0  0  0
    6.6422    0.0053   19.8971 C   0  0  0  0  0  0  0  0  0  0  0  0
    7.4031   -0.7064   20.9880 C   0  0  0  0  0  0  0  0  0  0  0  0
    6.8738   -0.6012   21.9445 H   0  0  0  0  0  0  0  0  0  0  0  0
    7.4367   -1.7775   20.7685 H   0  0  0  0  0  0  0  0  0  0  0  0
    8.7849   -0.2525   21.1280 N   0  0  0  0  0  0  0  0  0  0  0  0
    9.8979   -1.0590   20.9910 C   0  0  0  0  0  0  0  0  0  0  0  0
    9.7816   -2.1177   20.8035 H   0  0  0  0  0  0  0  0  0  0  0  0
   11.0196   -0.2785   21.0907 C   0  0  0  0  0  0  0  0  0  0  0  0
   12.0350   -0.6419   20.9952 H   0  0  0  0  0  0  0  0  0  0  0  0
   10.5841    1.0720   21.2582 C   0  0  0  0  0  0  0  0  0  0  0  0
   11.1979    1.9656   21.3541 H   0  0  0  0  0  0  0  0  0  0  0  0
    9.2042    1.0583   21.2748 C   0  0  0  0  0  0  0  0  0  0  0  0
    8.2952    2.1233   21.3119 N   0  0  0  0  0  0  0  0  0  0  0  0
    8.7284    2.9831   20.9959 H   0  0  0  0  0  0  0  0  0  0  0  0
    7.5335    2.3817   22.5352 C   0  0  0  0  0  0  0  0  0  0  0  0
    7.0484    1.4457   22.8282 H   0  0  0  0  0  0  0  0  0  0  0  0
    8.3306    2.9091   23.7443 C   0  0  0  0  0  0  0  0  0  0  0  0
    8.7909    2.0936   24.3104 H   0  0  0  0  0  0  0  0  0  0  0  0
    9.1462    3.5523   23.3919 H   0  0  0  0  0  0  0  0  0  0  0  0
    7.3277    3.7298   24.5930 C   0  0  0  0  0  0  0  0  0  0  0  0
    7.0040    3.1701   25.4780 H   0  0  0  0  0  0  0  0  0  0  0  0
    7.7913    4.6493   24.9663 H   0  0  0  0  0  0  0  0  0  0  0  0
    6.1132    4.0334   23.6756 C   0  0  0  0  0  0  0  0  0  0  0  0
    5.9055    5.1058   23.6079 H   0  0  0  0  0  0  0  0  0  0  0  0
    5.2069    3.5680   24.0781 H   0  0  0  0  0  0  0  0  0  0  0  0
    6.4647    3.4477   22.2942 C   0  0  0  0  0  0  0  0  0  0  0  0
    6.8799    4.2198   21.6347 H   0  0  0  0  0  0  0  0  0  0  0  0
    5.6003    3.0256   21.7733 H   0  0  0  0  0  0  0  0  0  0  0  0
    5.4300    0.6489   20.1518 C   0  0  0  0  0  0  0  0  0  0  0  0
    4.9974    0.6364   21.1574 H   0  0  0  0  0  0  0  0  0  0  0  0
    4.7985    1.3187   19.1006 C   0  0  0  0  0  0  0  0  0  0  0  0
    3.8673    1.8507   19.2510 H   0  0  0  0  0  0  0  0  0  0  0  0
  1  2  1  0
  2  3  2  0
  3  4  1  0
  4  5  1  0
  4  6  2  0
  6  7  1  0
  7  8  1  0
  7  9  1  0
  7 10  1  0
 10 11  1  0
 11 12  1  0
 11 13  2  0
 13 14  1  0
 13 15  1  0
 15 16  1  0
 15 17  2  0
 17 18  1  0
 18 19  1  0
 18 20  1  0
 20 21  1  0
 20 22  1  0
 22 23  1  0
 22 24  1  0
 22 25  1  0
 25 26  1  0
 25 27  1  0
 25 28  1  0
 28 29  1  0
 28 30  1  0
 28 31  1  0
 31 32  1  0
 31 33  1  0
  6 34  1  0
 34 35  1  0
 34 36  2  0
 36 37  1  0
 36  2  1  0
 17 10  1  0
 31 20  1  0
M  END
>  <plip>  (1) 
-0.10714285714285714

>  <filename>  (1) 
[H][c]1[n][c]([H])[c]([C]([H])([H])[n]2[c]([H])[c]([H])[c]([H])[c]2[N]([H])[C]2([H])[C]([H])([H])[C]([H])([H])[C]([H])([H])[C]2([H])[H])[c]([H])[c]1[H]

$$$$
