
     RDKit          3D

 38 40  0  0  0  0  0  0  0  0999 V2000
    7.6197    1.3626   22.4770 C   0  0  0  0  0  0  0  0  0  0  0  0
    8.2146    0.1816   21.7107 N   0  0  0  0  0  4  0  0  0  0  0  0
    9.2793    0.6714   20.6923 C   0  0  0  0  0  0  0  0  0  0  0  0
   10.4339    1.3075   21.3999 C   0  0  0  0  0  0  0  0  0  0  0  0
   10.4469    2.6060   21.7924 C   0  0  0  0  0  0  0  0  0  0  0  0
   11.8826    3.0829   22.6396 S   0  0  0  0  0  0  0  0  0  0  0  0
   12.5297    1.4725   22.4778 C   0  0  0  0  0  0  0  0  0  0  0  0
   13.7595    1.0148   22.9744 C   0  0  0  0  0  0  0  0  0  0  0  0
   14.0794   -0.3236   22.8033 C   0  0  0  0  0  0  0  0  0  0  0  0
   13.2123   -1.1995   22.1188 C   0  0  0  0  0  0  0  0  0  0  0  0
   12.0101   -0.7398   21.6014 C   0  0  0  0  0  0  0  0  0  0  0  0
   11.6435    0.6139   21.7900 C   0  0  0  0  0  0  0  0  0  0  0  0
   11.3449   -1.4187   21.0681 H   0  0  0  0  0  0  0  0  0  0  0  0
   13.4961   -2.2430   21.9921 H   0  0  0  0  0  0  0  0  0  0  0  0
   15.0060   -0.7216   23.1955 H   0  0  0  0  0  0  0  0  0  0  0  0
   14.4202    1.7168   23.4651 H   0  0  0  0  0  0  0  0  0  0  0  0
    9.6422    3.3146   21.6525 H   0  0  0  0  0  0  0  0  0  0  0  0
    8.8054    1.3890   20.0218 H   0  0  0  0  0  0  0  0  0  0  0  0
    9.5950   -0.1947   20.1075 H   0  0  0  0  0  0  0  0  0  0  0  0
    7.0750   -0.7044   21.1561 C   0  0  0  0  0  0  0  0  0  0  0  0
    7.4596   -2.4105   20.9876 C   0  0  0  0  0  0  0  0  0  0  0  0
    6.4523   -3.0955   20.8316 O   0  0  0  0  0  0  0  0  0  0  0  0
    8.6684   -2.6269   21.1605 O   0  0  0  0  0  1  0  0  0  0  0  0
    6.4285   -0.0622   19.9499 C   0  0  0  0  0  0  0  0  0  0  0  0
    5.2527    0.6876   20.0985 C   0  0  0  0  0  0  0  0  0  0  0  0
    4.7441    1.3684   18.9901 C   0  0  0  0  0  0  0  0  0  0  0  0
    5.4316    1.2806   17.7742 C   0  0  0  0  0  0  0  0  0  0  0  0
    6.5541    0.5669   17.6093 N   0  0  0  0  0  0  0  0  0  0  0  0
    7.0208   -0.0990   18.6782 C   0  0  0  0  0  0  0  0  0  0  0  0
    7.9361   -0.6683   18.5178 H   0  0  0  0  0  0  0  0  0  0  0  0
    5.0714    1.8181   16.9002 H   0  0  0  0  0  0  0  0  0  0  0  0
    3.8509    1.9772   19.0545 H   0  0  0  0  0  0  0  0  0  0  0  0
    4.7723    0.7461   21.0767 H   0  0  0  0  0  0  0  0  0  0  0  0
    6.3448   -0.7841   21.9598 H   0  0  0  0  0  0  0  0  0  0  0  0
    8.8055   -0.4045   22.3544 H   0  0  0  0  0  0  0  0  0  0  0  0
    8.3521    1.7915   23.1627 H   0  0  0  0  0  0  0  0  0  0  0  0
    6.7552    1.0399   23.0599 H   0  0  0  0  0  0  0  0  0  0  0  0
    7.2879    2.1275   21.7652 H   0  0  0  0  0  0  0  0  0  0  0  0
  1  2  1  0
  2  3  1  0
  3  4  1  0
  4  5  2  0
  5  6  1  0
  6  7  1  0
  7  8  2  0
  8  9  1  0
  9 10  2  0
 10 11  1  0
 11 12  2  0
 11 13  1  0
 10 14  1  0
  9 15  1  0
  8 16  1  0
  5 17  1  0
  3 18  1  0
  3 19  1  0
  2 20  1  0
 20 21  1  0
 21 22  2  0
 21 23  1  0
 20 24  1  0
 24 25  2  0
 25 26  1  0
 26 27  2  0
 27 28  1  0
 28 29  2  0
 29 30  1  0
 27 31  1  0
 26 32  1  0
 25 33  1  0
 20 34  1  0
  2 35  1  0
  1 36  1  0
  1 37  1  0
  1 38  1  0
 12  4  1  0
 29 24  1  0
 12  7  1  0
M  CHG  2   2   1  23  -1
M  END
>  <plip>  (1) 
-0.1724137931034483

>  <filename>  (1) 
[H][c]1[n][c]([H])[c]([C]([H])([C](=[O])[O-])[N+]([H])([C]([H])([H])[H])[C]([H])([H])[c]2[c]([H])[s][c]3[c]([H])[c]([H])[c]([H])[c]([H])[c]23)[c]([H])[c]1[H]

$$$$
