
     RDKit          3D

 35 37  0  0  0  0  0  0  0  0999 V2000
    4.9866    1.7473   17.1400 H   0  0  0  0  0  0  0  0  0  0  0  0
    5.4683    1.2149   17.9548 C   0  0  0  0  0  0  0  0  0  0  0  0
    6.6251    0.6052   17.6468 N   0  0  0  0  0  0  0  0  0  0  0  0
    7.2453   -0.0492   18.6322 C   0  0  0  0  0  0  0  0  0  0  0  0
    8.2012   -0.5177   18.4106 H   0  0  0  0  0  0  0  0  0  0  0  0
    6.7413   -0.1504   19.9473 C   0  0  0  0  0  0  0  0  0  0  0  0
    7.4953   -0.8314   20.9650 N   0  0  0  0  0  0  0  0  0  0  0  0
    6.9657   -1.7967   21.8362 C   0  0  0  0  0  0  0  0  0  0  0  0
    5.8970   -2.3287   21.7383 O   0  0  0  0  0  0  0  0  0  0  0  0
    7.9564   -2.0954   22.7529 N   0  0  0  0  0  0  0  0  0  0  0  0
    7.5206   -2.4746   24.0394 C   0  0  0  0  0  0  0  0  0  0  0  0
    6.4418   -2.1367   24.4661 O   0  0  0  0  0  0  0  0  0  0  0  0
    8.4477   -3.2011   24.7612 N   0  0  0  0  0  0  0  0  0  0  0  0
    9.5603   -3.9441   24.1569 C   0  0  0  0  0  0  0  0  0  0  0  0
    9.2890   -4.2379   23.1378 H   0  0  0  0  0  0  0  0  0  0  0  0
   10.4724   -3.3305   24.1158 H   0  0  0  0  0  0  0  0  0  0  0  0
    9.8675   -5.2000   24.9825 C   0  0  0  0  0  0  0  0  0  0  0  0
    9.0505   -5.9283   24.8655 H   0  0  0  0  0  0  0  0  0  0  0  0
   10.7985   -5.6546   24.6349 H   0  0  0  0  0  0  0  0  0  0  0  0
   10.0590   -4.8967   26.3519 O   0  0  0  0  0  0  0  0  0  0  0  0
    8.9123   -4.2832   26.9148 C   0  0  0  0  0  0  0  0  0  0  0  0
    9.1527   -4.1095   27.9639 H   0  0  0  0  0  0  0  0  0  0  0  0
    8.0515   -4.9678   26.8624 H   0  0  0  0  0  0  0  0  0  0  0  0
    8.5752   -2.9720   26.2087 C   0  0  0  0  0  0  0  0  0  0  0  0
    7.6301   -2.5821   26.5969 H   0  0  0  0  0  0  0  0  0  0  0  0
    9.3668   -2.2334   26.4087 H   0  0  0  0  0  0  0  0  0  0  0  0
    9.2316   -1.4814   22.3690 C   0  0  0  0  0  0  0  0  0  0  0  0
    9.9929   -2.1955   22.0401 H   0  0  0  0  0  0  0  0  0  0  0  0
    9.6724   -0.8416   23.1342 H   0  0  0  0  0  0  0  0  0  0  0  0
    8.8488   -0.6188   21.1912 C   0  0  0  0  0  0  0  0  0  0  0  0
    9.5769    0.1132   20.5714 O   0  0  0  0  0  0  0  0  0  0  0  0
    5.5262    0.4694   20.2530 C   0  0  0  0  0  0  0  0  0  0  0  0
    5.1135    0.4111   21.2624 H   0  0  0  0  0  0  0  0  0  0  0  0
    4.8879    1.1806   19.2284 C   0  0  0  0  0  0  0  0  0  0  0  0
    3.9660    1.7222   19.4090 H   0  0  0  0  0  0  0  0  0  0  0  0
  1  2  1  0
  2  3  2  0
  3  4  1  0
  4  5  1  0
  4  6  2  0
  6  7  1  0
  7  8  1  0
  8  9  2  0
  8 10  1  0
 10 11  1  0
 11 12  2  0
 11 13  1  0
 13 14  1  0
 14 15  1  0
 14 16  1  0
 14 17  1  0
 17 18  1  0
 17 19  1  0
 17 20  1  0
 20 21  1  0
 21 22  1  0
 21 23  1  0
 21 24  1  0
 24 25  1  0
 24 26  1  0
 10 27  1  0
 27 28  1  0
 27 29  1  0
 27 30  1  0
 30 31  2  0
  6 32  1  0
 32 33  1  0
 32 34  2  0
 34 35  1  0
 34  2  1  0
 30  7  1  0
 24 13  1  0
M  END
>  <plip>  (1) 
-0.07142857142857142

>  <filename>  (1) 
[H][c]1[n][c]([H])[c]([N]2[C](=[O])[N]([C](=[O])[N]3[C]([H])([H])[C]([H])([H])[O][C]([H])([H])[C]3([H])[H])[C]([H])([H])[C]2=[O])[c]([H])[c]1[H]

$$$$
