
     RDKit          3D

 33 36  0  0  0  0  0  0  0  0999 V2000
    4.9390    1.7884   17.0048 H   0  0  0  0  0  0  0  0  0  0  0  0
    5.4095    1.2837   17.8397 C   0  0  0  0  0  0  0  0  0  0  0  0
    6.5715    0.6645   17.5794 N   0  0  0  0  0  0  0  0  0  0  0  0
    7.1878    0.0472   18.5974 C   0  0  0  0  0  0  0  0  0  0  0  0
    8.1331   -0.4246   18.3438 H   0  0  0  0  0  0  0  0  0  0  0  0
    6.6905   -0.0150   19.9383 C   0  0  0  0  0  0  0  0  0  0  0  0
    7.3615   -0.6586   20.9627 N   0  0  0  0  0  0  0  0  0  0  0  0
    8.6375   -1.3414   20.7814 C   0  0  0  0  0  0  0  0  0  0  0  0
    9.4215   -0.6718   20.4054 H   0  0  0  0  0  0  0  0  0  0  0  0
    8.5274   -2.1632   20.0934 H   0  0  0  0  0  0  0  0  0  0  0  0
    8.9946   -1.9066   22.1423 C   0  0  1  0  0  0  0  0  0  0  0  0
    9.5051   -2.8624   22.1545 H   0  0  0  0  0  0  0  0  0  0  0  0
    9.2626   -0.9207   23.2582 C   0  0  1  0  0  0  0  0  0  0  0  0
    9.8617   -1.3063   24.0778 H   0  0  0  0  0  0  0  0  0  0  0  0
    9.5535    0.5195   22.9601 C   0  0  0  0  0  0  0  0  0  0  0  0
   10.4390    0.9237   22.1274 N   0  0  0  0  0  0  0  0  0  0  0  0
   10.3739    2.3920   22.1094 C   0  0  0  0  0  0  0  0  0  0  0  0
   11.3728    2.7912   22.3262 H   0  0  0  0  0  0  0  0  0  0  0  0
   10.0834    2.7081   21.0966 H   0  0  0  0  0  0  0  0  0  0  0  0
    9.3218    2.8174   23.1804 C   0  0  0  0  0  0  0  0  0  0  0  0
    9.7589    3.4179   23.9898 H   0  0  0  0  0  0  0  0  0  0  0  0
    8.4936    3.4106   22.7613 H   0  0  0  0  0  0  0  0  0  0  0  0
    8.8930    1.5031   23.6479 N   0  0  0  0  0  0  0  0  0  0  0  0
    8.2089    1.2823   24.3457 H   0  0  0  0  0  0  0  0  0  0  0  0
    7.8945   -1.5580   23.0926 C   0  0  1  0  0  0  0  0  0  0  0  0
    7.5485   -2.2508   23.8538 H   0  0  0  0  0  0  0  0  0  0  0  0
    6.8352   -0.7902   22.3209 C   0  0  0  0  0  0  0  0  0  0  0  0
    5.9059   -1.3651   22.3156 H   0  0  0  0  0  0  0  0  0  0  0  0
    6.6487    0.1919   22.7764 H   0  0  0  0  0  0  0  0  0  0  0  0
    5.4561    0.6372   20.1677 C   0  0  0  0  0  0  0  0  0  0  0  0
    5.0166    0.6292   21.1634 H   0  0  0  0  0  0  0  0  0  0  0  0
    4.8237    1.2925   19.1108 C   0  0  0  0  0  0  0  0  0  0  0  0
    3.8904    1.8225   19.2668 H   0  0  0  0  0  0  0  0  0  0  0  0
  1  2  1  0
  2  3  2  0
  3  4  1  0
  4  5  1  0
  4  6  2  0
  6  7  1  0
  7  8  1  0
  8  9  1  0
  8 10  1  0
  8 11  1  0
 11 12  1  6
 11 13  1  0
 13 14  1  1
 13 15  1  0
 15 16  2  0
 16 17  1  0
 17 18  1  0
 17 19  1  0
 17 20  1  0
 20 21  1  0
 20 22  1  0
 20 23  1  0
 23 24  1  0
 13 25  1  0
 25 26  1  1
 25 27  1  0
 27 28  1  0
 27 29  1  0
  6 30  1  0
 30 31  1  0
 30 32  2  0
 32 33  1  0
 32  2  1  0
 27  7  1  0
 25 11  1  0
 23 15  1  0
M  END
>  <plip>  (1) 
-0.07142857142857142

>  <filename>  (1) 
[H][c]1[n][c]([H])[c]([N]2[C]([H])([H])[C@@]3([H])[C@@]([H])([C]4=[N][C]([H])([H])[C]([H])([H])[N]4[H])[C@@]3([H])[C]2([H])[H])[c]([H])[c]1[H]

$$$$
