
     RDKit          3D

 27 28  0  0  0  0  0  0  0  0999 V2000
    6.3395   -2.0298   24.4298 H   0  0  0  0  0  0  0  0  0  0  0  0
    7.3794   -2.1860   24.1536 C   0  0  0  0  0  0  0  0  0  0  0  0
    7.8519   -1.7720   22.9668 C   0  0  0  0  0  0  0  0  0  0  0  0
    6.9833   -1.0894   21.9911 C   0  0  0  0  0  0  0  0  0  0  0  0
    5.9305   -0.9910   22.2917 H   0  0  0  0  0  0  0  0  0  0  0  0
    7.4368   -0.6831   20.8725 N   0  0  0  0  0  0  0  0  0  0  0  0
    6.6594   -0.0022   19.9145 C   0  0  0  0  0  0  0  0  0  0  0  0
    7.1734    0.0642   18.5944 C   0  0  0  0  0  0  0  0  0  0  0  0
    8.1213   -0.4308   18.3913 H   0  0  0  0  0  0  0  0  0  0  0  0
    6.5677    0.6785   17.5767 N   0  0  0  0  0  0  0  0  0  0  0  0
    5.3978    1.2943   17.8406 C   0  0  0  0  0  0  0  0  0  0  0  0
    4.9100    1.7789   16.9980 H   0  0  0  0  0  0  0  0  0  0  0  0
    4.8064    1.3101   19.1076 C   0  0  0  0  0  0  0  0  0  0  0  0
    3.8723    1.8437   19.2649 H   0  0  0  0  0  0  0  0  0  0  0  0
    5.4404    0.6452   20.1654 C   0  0  0  0  0  0  0  0  0  0  0  0
    5.0074    0.6357   21.1671 H   0  0  0  0  0  0  0  0  0  0  0  0
    9.3272   -1.9500   22.6241 C   0  0  0  0  0  0  0  0  0  0  0  0
    9.8150   -0.9689   22.6851 H   0  0  0  0  0  0  0  0  0  0  0  0
    9.4307   -2.2711   21.5845 H   0  0  0  0  0  0  0  0  0  0  0  0
   10.0443   -2.9259   23.5641 C   0  0  0  0  0  0  0  0  0  0  0  0
   11.1292   -2.8459   23.4380 H   0  0  0  0  0  0  0  0  0  0  0  0
    9.7806   -3.9571   23.2993 H   0  0  0  0  0  0  0  0  0  0  0  0
    9.6923   -2.7131   24.9709 N   0  0  0  0  0  0  0  0  0  0  0  0
    9.8915   -1.7339   25.1763 H   0  0  0  0  0  0  0  0  0  0  0  0
    8.2504   -2.9048   25.1643 C   0  0  0  0  0  0  0  0  0  0  0  0
    8.0405   -3.9816   25.1047 H   0  0  0  0  0  0  0  0  0  0  0  0
    7.9812   -2.6092   26.1842 H   0  0  0  0  0  0  0  0  0  0  0  0
  1  2  1  0
  2  3  2  0
  3  4  1  0
  4  5  1  0
  4  6  2  3
  6  7  1  0
  7  8  2  0
  8  9  1  0
  8 10  1  0
 10 11  2  0
 11 12  1  0
 11 13  1  0
 13 14  1  0
 13 15  2  0
 15 16  1  0
  3 17  1  0
 17 18  1  0
 17 19  1  0
 17 20  1  0
 20 21  1  0
 20 22  1  0
 20 23  1  0
 23 24  1  0
 23 25  1  0
 25 26  1  0
 25 27  1  0
 25  2  1  0
 15  7  1  0
M  END
>  <plip>  (1) 
-0.03571428571428571

>  <filename>  (1) 
[H][C](=[N][c]1[c]([H])[n][c]([H])[c]([H])[c]1[H])[C]1=[C]([H])[C]([H])([H])[N]([H])[C]([H])([H])[C]1([H])[H]

$$$$
