
     RDKit          3D

 33 34  0  0  0  0  0  0  0  0999 V2000
   10.2383   -2.6731   23.8257 N   0  0  0  0  0  0  0  0  0  0  0  0
    9.4648   -3.6664   24.3542 C   0  0  0  0  0  0  0  0  0  0  0  0
    9.4812   -3.8899   25.5520 O   0  0  0  0  0  0  0  0  0  0  0  0
    8.6836   -4.4927   23.3741 C   0  0  0  0  0  0  0  0  0  0  0  0
    8.5778   -5.8875   23.5390 C   0  0  0  0  0  0  0  0  0  0  0  0
    7.9542   -6.6799   22.5736 C   0  0  0  0  0  0  0  0  0  0  0  0
    7.4011   -6.0797   21.4463 C   0  0  0  0  0  0  0  0  0  0  0  0
    7.4341   -4.7002   21.2961 C   0  0  0  0  0  0  0  0  0  0  0  0
    8.0241   -3.8984   22.2817 C   0  0  0  0  0  0  0  0  0  0  0  0
    7.9441   -2.5319   22.2607 O   0  0  0  0  0  0  0  0  0  0  0  0
    7.4250   -1.9262   21.0821 C   0  0  0  0  0  0  0  0  0  0  0  0
    7.4172   -0.4051   21.1824 C   0  0  0  0  0  0  0  0  0  0  0  0
    8.7288    0.1433   21.2169 O   0  0  0  0  0  0  0  0  0  0  0  0
    9.2045   -0.2052   20.4527 H   0  0  0  0  0  0  0  0  0  0  0  0
    6.6264    0.1702   20.0260 C   0  0  0  0  0  0  0  0  0  0  0  0
    5.3564    0.7474   20.1749 C   0  0  0  0  0  0  0  0  0  0  0  0
    4.7487    1.3328   19.0601 C   0  0  0  0  0  0  0  0  0  0  0  0
    5.4155    1.2923   17.8318 C   0  0  0  0  0  0  0  0  0  0  0  0
    6.5964    0.6817   17.6552 N   0  0  0  0  0  0  0  0  0  0  0  0
    7.1735    0.1416   18.7336 C   0  0  0  0  0  0  0  0  0  0  0  0
    8.1276   -0.3550   18.5436 H   0  0  0  0  0  0  0  0  0  0  0  0
    4.9785    1.7542   16.9480 H   0  0  0  0  0  0  0  0  0  0  0  0
    3.7926    1.8391   19.1346 H   0  0  0  0  0  0  0  0  0  0  0  0
    4.8615    0.7550   21.1493 H   0  0  0  0  0  0  0  0  0  0  0  0
    6.9559   -0.1204   22.1342 H   0  0  0  0  0  0  0  0  0  0  0  0
    6.4061   -2.2791   20.8942 H   0  0  0  0  0  0  0  0  0  0  0  0
    8.0583   -2.1900   20.2310 H   0  0  0  0  0  0  0  0  0  0  0  0
    6.9650   -4.2545   20.4307 H   0  0  0  0  0  0  0  0  0  0  0  0
    6.9370   -6.6581   20.6609 H   0  0  0  0  0  0  0  0  0  0  0  0
    7.8971   -7.7581   22.6682 H   0  0  0  0  0  0  0  0  0  0  0  0
    8.9902   -6.3527   24.4326 H   0  0  0  0  0  0  0  0  0  0  0  0
    9.7958   -2.1749   23.0724 H   0  0  0  0  0  0  0  0  0  0  0  0
   10.6116   -2.1291   24.5867 H   0  0  0  0  0  0  0  0  0  0  0  0
  1  2  1  0
  2  3  2  0
  2  4  1  0
  4  5  2  0
  5  6  1  0
  6  7  2  0
  7  8  1  0
  8  9  2  0
  9 10  1  0
 10 11  1  0
 11 12  1  0
 12 13  1  0
 13 14  1  0
 12 15  1  0
 15 16  2  0
 16 17  1  0
 17 18  2  0
 18 19  1  0
 19 20  2  0
 20 21  1  0
 18 22  1  0
 17 23  1  0
 16 24  1  0
 12 25  1  0
 11 26  1  0
 11 27  1  0
  8 28  1  0
  7 29  1  0
  6 30  1  0
  5 31  1  0
  1 32  1  0
  1 33  1  0
  9  4  1  0
 20 15  1  0
M  END
>  <plip>  (1) 
-0.06451612903225806

>  <filename>  (1) 
[H][O][C]([H])([c]1[c]([H])[n][c]([H])[c]([H])[c]1[H])[C]([H])([H])[O][c]1[c]([H])[c]([H])[c]([H])[c]([H])[c]1[C](=[O])[N]([H])[H]

$$$$
