
     RDKit          3D

 39 41  0  0  0  0  0  0  0  0999 V2000
    4.9381    1.8308   16.9667 H   0  0  0  0  0  0  0  0  0  0  0  0
    5.4051    1.3126   17.8050 C   0  0  0  0  0  0  0  0  0  0  0  0
    6.5577    0.6767   17.5417 N   0  0  0  0  0  0  0  0  0  0  0  0
    7.1584    0.0480   18.5612 C   0  0  0  0  0  0  0  0  0  0  0  0
    8.0877   -0.4633   18.3150 H   0  0  0  0  0  0  0  0  0  0  0  0
    6.6650   -0.0019   19.8811 C   0  0  0  0  0  0  0  0  0  0  0  0
    7.3874   -0.7282   20.9713 C   0  0  0  0  0  0  0  0  0  0  0  0
    8.7948   -0.6102   21.1898 C   0  0  0  0  0  0  0  0  0  0  0  0
    9.4170    0.0276   20.5661 H   0  0  0  0  0  0  0  0  0  0  0  0
    9.4258   -1.2351   22.1684 N   0  0  0  0  0  0  0  0  0  0  0  0
    8.7459   -2.0407   23.0216 N   0  0  0  0  0  0  0  0  0  0  0  0
    7.4381   -2.2066   22.8643 C   0  0  0  0  0  0  0  0  0  0  0  0
    6.7281   -3.0179   23.6736 O   0  0  0  0  0  0  0  0  0  0  0  0
    7.2800   -3.5935   24.8868 C   0  0  0  0  0  0  0  0  0  0  0  0
    6.5530   -4.3580   25.1760 H   0  0  0  0  0  0  0  0  0  0  0  0
    8.2254   -4.0738   24.6181 H   0  0  0  0  0  0  0  0  0  0  0  0
    7.5408   -2.6227   26.0590 C   0  0  0  0  0  0  0  0  0  0  0  0
    8.0841   -1.7580   25.6529 H   0  0  0  0  0  0  0  0  0  0  0  0
    8.2409   -3.1385   26.7316 H   0  0  0  0  0  0  0  0  0  0  0  0
    6.4233   -2.1311   26.8772 N   0  0  0  0  0  0  0  0  0  0  0  0
    5.4938   -1.2745   26.1410 C   0  0  0  0  0  0  0  0  0  0  0  0
    5.0231   -0.5555   26.8322 H   0  0  0  0  0  0  0  0  0  0  0  0
    6.0677   -0.6682   25.4279 H   0  0  0  0  0  0  0  0  0  0  0  0
    4.4078   -2.0610   25.3548 C   0  0  0  0  0  0  0  0  0  0  0  0
    3.5306   -1.4127   25.2135 H   0  0  0  0  0  0  0  0  0  0  0  0
    4.8052   -2.3388   24.3827 H   0  0  0  0  0  0  0  0  0  0  0  0
    4.0181   -3.3169   25.9159 O   0  0  0  0  0  0  0  0  0  0  0  0
    4.2766   -3.4691   27.2934 C   0  0  0  0  0  0  0  0  0  0  0  0
    3.5628   -2.8807   27.8918 H   0  0  0  0  0  0  0  0  0  0  0  0
    4.1087   -4.5259   27.5038 H   0  0  0  0  0  0  0  0  0  0  0  0
    5.7205   -3.1006   27.7357 C   0  0  0  0  0  0  0  0  0  0  0  0
    5.6318   -2.6931   28.7565 H   0  0  0  0  0  0  0  0  0  0  0  0
    6.3291   -4.0120   27.8156 H   0  0  0  0  0  0  0  0  0  0  0  0
    6.7118   -1.5600   21.8397 C   0  0  0  0  0  0  0  0  0  0  0  0
    5.6468   -1.7441   21.7587 H   0  0  0  0  0  0  0  0  0  0  0  0
    5.4432    0.6529   20.1211 C   0  0  0  0  0  0  0  0  0  0  0  0
    5.0070    0.6539   21.1194 H   0  0  0  0  0  0  0  0  0  0  0  0
    4.8113    1.3229   19.0691 C   0  0  0  0  0  0  0  0  0  0  0  0
    3.8765    1.8556   19.2152 H   0  0  0  0  0  0  0  0  0  0  0  0
  1  2  1  0
  2  3  2  0
  3  4  1  0
  4  5  1  0
  4  6  2  0
  6  7  1  0
  7  8  2  0
  8  9  1  0
  8 10  1  0
 10 11  2  0
 11 12  1  0
 12 13  1  0
 13 14  1  0
 14 15  1  0
 14 16  1  0
 14 17  1  0
 17 18  1  0
 17 19  1  0
 17 20  1  0
 20 21  1  0
 21 22  1  0
 21 23  1  0
 21 24  1  0
 24 25  1  0
 24 26  1  0
 24 27  1  0
 27 28  1  0
 28 29  1  0
 28 30  1  0
 28 31  1  0
 31 32  1  0
 31 33  1  0
 12 34  2  0
 34 35  1  0
  6 36  1  0
 36 37  1  0
 36 38  2  0
 38 39  1  0
 38  2  1  0
 34  7  1  0
 31 20  1  0
M  END
>  <plip>  (1) 
-0.03571428571428571

>  <filename>  (1) 
[H][c]1[n][c]([H])[c](-[c]2[c]([H])[n][n][c]([O][C]([H])([H])[C]([H])([H])[N]3[C]([H])([H])[C]([H])([H])[O][C]([H])([H])[C]3([H])[H])[c]2[H])[c]([H])[c]1[H]

$$$$
