
     RDKit          3D

 20 21  0  0  0  0  0  0  0  0999 V2000
    4.3953   -4.1929   21.6953 H   0  0  0  0  0  0  0  0  0  0  0  0
    5.1914   -3.4801   21.5829 C   0  0  0  0  0  0  0  0  0  0  0  0
    6.0827   -2.6705   21.5453 C   0  0  0  0  0  0  0  0  0  0  0  0
    7.2370   -1.8207   21.6507 C   0  0  0  0  0  0  0  0  0  0  0  0
    8.1321   -1.9992   22.5804 N   0  0  0  0  0  0  0  0  0  0  0  0
    9.0921   -1.0701   22.3016 N   0  0  0  0  0  0  0  0  0  0  0  0
    9.9345   -0.9325   22.8390 H   0  0  0  0  0  0  0  0  0  0  0  0
    8.8270   -0.2982   21.2146 C   0  0  0  0  0  0  0  0  0  0  0  0
    9.5289    0.5728   20.7408 O   0  0  0  0  0  0  0  0  0  0  0  0
    7.5772   -0.7887   20.7783 N   0  0  0  0  0  0  0  0  0  0  0  0
    6.7901   -0.0986   19.7899 C   0  0  0  0  0  0  0  0  0  0  0  0
    7.2459    0.0296   18.4599 C   0  0  0  0  0  0  0  0  0  0  0  0
    8.2154   -0.3897   18.2043 H   0  0  0  0  0  0  0  0  0  0  0  0
    6.5749    0.6666   17.4930 N   0  0  0  0  0  0  0  0  0  0  0  0
    5.4189    1.2624   17.8306 C   0  0  0  0  0  0  0  0  0  0  0  0
    4.8925    1.7889   17.0304 H   0  0  0  0  0  0  0  0  0  0  0  0
    4.9017    1.2262   19.1304 C   0  0  0  0  0  0  0  0  0  0  0  0
    3.9734    1.7440   19.3409 H   0  0  0  0  0  0  0  0  0  0  0  0
    5.5939    0.5344   20.1360 C   0  0  0  0  0  0  0  0  0  0  0  0
    5.2352    0.5041   21.1658 H   0  0  0  0  0  0  0  0  0  0  0  0
  1  2  1  0
  2  3  3  0
  3  4  1  0
  4  5  2  0
  5  6  1  0
  6  7  1  0
  6  8  1  0
  8  9  2  0
  8 10  1  0
 10 11  1  0
 11 12  2  0
 12 13  1  0
 12 14  1  0
 14 15  2  0
 15 16  1  0
 15 17  1  0
 17 18  1  0
 17 19  2  0
 19 20  1  0
 10  4  1  0
 19 11  1  0
M  END
>  <plip>  (1) 
-0.06666666666666667

>  <filename>  (1) 
[H][C]#[C][c]1[n][n]([H])[c](=[O])[n]1-[c]1[c]([H])[n][c]([H])[c]([H])[c]1[H]

$$$$
