
     RDKit          3D

 38 40  0  0  0  0  0  0  0  0999 V2000
    5.1365    1.7419   16.9287 H   0  0  0  0  0  0  0  0  0  0  0  0
    5.5075    1.2316   17.8164 C   0  0  0  0  0  0  0  0  0  0  0  0
    6.6316    0.5195   17.6545 N   0  0  0  0  0  0  0  0  0  0  0  0
    7.1212   -0.1157   18.7274 C   0  0  0  0  0  0  0  0  0  0  0  0
    8.0321   -0.6863   18.5687 H   0  0  0  0  0  0  0  0  0  0  0  0
    6.5365   -0.0594   19.9928 C   0  0  0  0  0  0  0  0  0  0  0  0
    7.2620   -0.7977   21.0899 C   0  0  0  0  0  0  0  0  0  0  0  0
    6.9668   -2.1883   20.9917 N   0  0  0  0  0  0  0  0  0  0  0  0
    5.9694   -2.3049   20.8959 H   0  0  0  0  0  0  0  0  0  0  0  0
    7.4405   -3.0582   22.0635 C   0  0  0  0  0  0  0  0  0  0  0  0
    8.3037   -2.5852   22.5575 H   0  0  0  0  0  0  0  0  0  0  0  0
    7.9296   -4.3818   21.4537 C   0  0  0  0  0  0  0  0  0  0  0  0
    8.7316   -4.1127   20.7639 H   0  0  0  0  0  0  0  0  0  0  0  0
    7.1278   -4.8292   20.8483 H   0  0  0  0  0  0  0  0  0  0  0  0
    8.3720   -5.4068   22.5178 C   0  0  0  0  0  0  0  0  0  0  0  0
    9.2605   -5.0377   23.0525 H   0  0  0  0  0  0  0  0  0  0  0  0
    8.6456   -6.3595   22.0430 H   0  0  0  0  0  0  0  0  0  0  0  0
    7.2571   -5.6223   23.5533 C   0  0  0  0  0  0  0  0  0  0  0  0
    7.5886   -6.3021   24.3466 H   0  0  0  0  0  0  0  0  0  0  0  0
    6.3963   -6.0831   23.0483 H   0  0  0  0  0  0  0  0  0  0  0  0
    6.8190   -4.2939   24.1880 C   0  0  0  0  0  0  0  0  0  0  0  0
    6.0268   -4.4669   24.9261 H   0  0  0  0  0  0  0  0  0  0  0  0
    7.6802   -3.8593   24.7213 H   0  0  0  0  0  0  0  0  0  0  0  0
    6.3504   -3.2844   23.1301 C   0  0  0  0  0  0  0  0  0  0  0  0
    5.4367   -3.6639   22.6387 H   0  0  0  0  0  0  0  0  0  0  0  0
    6.1069   -2.3198   23.5943 H   0  0  0  0  0  0  0  0  0  0  0  0
    6.9235   -0.2883   22.3685 O   0  0  0  0  0  0  0  0  0  0  0  0
    7.9267    0.6333   22.7796 C   0  0  0  0  0  0  0  0  0  0  0  0
    8.0939    0.5081   23.8560 H   0  0  0  0  0  0  0  0  0  0  0  0
    7.5994    1.6632   22.5897 H   0  0  0  0  0  0  0  0  0  0  0  0
    9.1534    0.2579   21.9328 C   0  0  0  0  0  0  0  0  0  0  0  0
    9.5946    1.1302   21.4361 H   0  0  0  0  0  0  0  0  0  0  0  0
    9.9260   -0.2536   22.5224 H   0  0  0  0  0  0  0  0  0  0  0  0
    8.6594   -0.6467   20.9581 O   0  0  0  0  0  0  0  0  0  0  0  0
    5.3469    0.6635   20.1466 C   0  0  0  0  0  0  0  0  0  0  0  0
    4.8466    0.7221   21.1167 H   0  0  0  0  0  0  0  0  0  0  0  0
    4.8219    1.3173   19.0345 C   0  0  0  0  0  0  0  0  0  0  0  0
    3.9035    1.8967   19.0868 H   0  0  0  0  0  0  0  0  0  0  0  0
  1  2  1  0
  2  3  2  0
  3  4  1  0
  4  5  1  0
  4  6  2  0
  6  7  1  0
  7  8  1  0
  8  9  1  0
  8 10  1  0
 10 11  1  0
 10 12  1  0
 12 13  1  0
 12 14  1  0
 12 15  1  0
 15 16  1  0
 15 17  1  0
 15 18  1  0
 18 19  1  0
 18 20  1  0
 18 21  1  0
 21 22  1  0
 21 23  1  0
 21 24  1  0
 24 25  1  0
 24 26  1  0
  7 27  1  0
 27 28  1  0
 28 29  1  0
 28 30  1  0
 28 31  1  0
 31 32  1  0
 31 33  1  0
 31 34  1  0
  6 35  1  0
 35 36  1  0
 35 37  2  0
 37 38  1  0
 37  2  1  0
 34  7  1  0
 24 10  1  0
M  END
>  <plip>  (1) 
-0.10344827586206896

>  <filename>  (1) 
[H][c]1[n][c]([H])[c]([C]2([N]([H])[C]3([H])[C]([H])([H])[C]([H])([H])[C]([H])([H])[C]([H])([H])[C]3([H])[H])[O][C]([H])([H])[C]([H])([H])[O]2)[c]([H])[c]1[H]

$$$$
