
     RDKit          3D

 27 29  0  0  0  0  0  0  0  0999 V2000
    4.8150    1.3038   19.1120 C   0  0  0  0  0  0  0  0  0  0  0  0
    5.3992    1.2942   17.8371 C   0  0  0  0  0  0  0  0  0  0  0  0
    6.5637    0.6801   17.5751 N   0  0  0  0  0  0  0  0  0  0  0  0
    7.1771    0.0618   18.5939 C   0  0  0  0  0  0  0  0  0  0  0  0
    6.6742   -0.0035   19.9249 C   0  0  0  0  0  0  0  0  0  0  0  0
    7.3181   -0.6564   20.9584 N   0  0  0  0  0  0  0  0  0  0  0  0
    8.5885   -1.3322   20.8214 C   0  0  0  0  0  0  0  0  0  0  0  0
    9.0097   -1.9815   22.1124 C   0  0  0  0  0  0  0  0  0  0  0  0
    8.5964   -3.2570   22.4160 C   0  0  0  0  0  0  0  0  0  0  0  0
    8.9774   -3.8190   23.6783 C   0  0  0  0  0  0  0  0  0  0  0  0
    8.6605   -5.0292   24.1396 N   0  0  0  0  0  0  0  0  0  0  0  0
    9.3397   -5.1594   25.6113 S   0  0  0  0  0  0  0  0  0  0  0  0
   10.0481   -3.7035   25.7245 N   0  0  0  0  0  0  0  0  0  0  0  0
    9.7786   -3.0524   24.5928 C   0  0  0  0  0  0  0  0  0  0  0  0
   10.1998   -1.7221   24.2458 C   0  0  0  0  0  0  0  0  0  0  0  0
    9.8197   -1.2206   23.0331 C   0  0  0  0  0  0  0  0  0  0  0  0
   10.1196   -0.2122   22.7482 H   0  0  0  0  0  0  0  0  0  0  0  0
   10.7995   -1.1594   24.9539 H   0  0  0  0  0  0  0  0  0  0  0  0
    7.9768   -3.8597   21.7565 H   0  0  0  0  0  0  0  0  0  0  0  0
    9.3659   -0.6516   20.4491 H   0  0  0  0  0  0  0  0  0  0  0  0
    8.4945   -2.1024   20.0676 H   0  0  0  0  0  0  0  0  0  0  0  0
    6.8804   -0.6507   21.8691 H   0  0  0  0  0  0  0  0  0  0  0  0
    5.4458    0.6461   20.1689 C   0  0  0  0  0  0  0  0  0  0  0  0
    5.0121    0.6267   21.1713 H   0  0  0  0  0  0  0  0  0  0  0  0
    8.1230   -0.4249   18.3626 H   0  0  0  0  0  0  0  0  0  0  0  0
    4.9107    1.7817   16.9961 H   0  0  0  0  0  0  0  0  0  0  0  0
    3.8816    1.8373   19.2644 H   0  0  0  0  0  0  0  0  0  0  0  0
  1  2  2  0
  2  3  1  0
  3  4  2  0
  4  5  1  0
  5  6  1  0
  6  7  1  0
  7  8  1  0
  8  9  2  0
  9 10  1  0
 10 11  2  0
 11 12  1  0
 12 13  1  0
 13 14  2  0
 14 15  1  0
 15 16  2  0
 16 17  1  0
 15 18  1  0
  9 19  1  0
  7 20  1  0
  7 21  1  0
  6 22  1  0
  5 23  2  0
 23 24  1  0
  4 25  1  0
  2 26  1  0
  1 27  1  0
 23  1  1  0
 16  8  1  0
 14 10  1  0
M  END
>  <plip>  (1) 
-0.07142857142857142

>  <filename>  (1) 
[H][c]1[n][c]([H])[c]([N]([H])[C]([H])([H])[c]2[c]([H])[c]([H])[c]3[n][s][n][c]3[c]2[H])[c]([H])[c]1[H]

$$$$
