
     RDKit          3D

 20 21  0  0  0  0  0  0  0  0999 V2000
    5.2972   -0.6660   25.2955 H   0  0  0  0  0  0  0  0  0  0  0  0
    6.0682   -1.2201   25.6967 N   0  0  0  0  0  0  0  0  0  0  0  0
    6.9045   -1.4835   24.8625 N   0  0  0  0  0  4  0  0  0  0  0  0
    7.8507   -1.8628   24.2211 N   0  0  0  0  0  0  0  0  0  0  0  0
    7.8979   -1.5159   22.8490 C   0  0  0  0  0  0  0  0  0  0  0  0
    6.9258   -0.7692   22.1929 N   0  0  0  0  0  0  0  0  0  0  0  0
    7.3492   -0.6857   20.9809 C   0  0  0  0  0  0  0  0  0  0  0  0
    6.6575    0.0098   19.9041 C   0  0  0  0  0  0  0  0  0  0  0  0
    7.1863    0.0542   18.6097 C   0  0  0  0  0  0  0  0  0  0  0  0
    8.1325   -0.4354   18.3774 H   0  0  0  0  0  0  0  0  0  0  0  0
    6.5749    0.6728   17.5928 N   0  0  0  0  0  0  0  0  0  0  0  0
    5.4078    1.2877   17.8480 C   0  0  0  0  0  0  0  0  0  0  0  0
    4.9138    1.7716   17.0056 H   0  0  0  0  0  0  0  0  0  0  0  0
    4.8048    1.3107   19.1123 C   0  0  0  0  0  0  0  0  0  0  0  0
    3.8722    1.8459   19.2651 H   0  0  0  0  0  0  0  0  0  0  0  0
    5.4373    0.6548   20.1607 C   0  0  0  0  0  0  0  0  0  0  0  0
    5.0094    0.6282   21.1647 H   0  0  0  0  0  0  0  0  0  0  0  0
    8.5270   -1.3157   20.7543 O   0  0  0  0  0  0  0  0  0  0  0  0
    8.8659   -1.8425   21.9698 C   0  0  0  0  0  0  0  0  0  0  0  0
    9.7798   -2.4069   22.0720 H   0  0  0  0  0  0  0  0  0  0  0  0
  1  2  1  0
  2  3  2  0
  3  4  2  0
  4  5  1  0
  5  6  1  0
  6  7  2  0
  7  8  1  0
  8  9  2  0
  9 10  1  0
  9 11  1  0
 11 12  2  0
 12 13  1  0
 12 14  1  0
 14 15  1  0
 14 16  2  0
 16 17  1  0
  7 18  1  0
 18 19  1  0
 19 20  1  0
 19  5  2  0
 16  8  1  0
M  CHG  1   3   1
M  END
>  <plip>  (1) 
-0.06896551724137931

>  <filename>  (1) 
[H][N]=[N+]=[N][c]1[n][c](-[c]2[c]([H])[n][c]([H])[c]([H])[c]2[H])[o][c]1[H]

$$$$
