
     RDKit          3D

 30 31  0  0  0  0  0  0  0  0999 V2000
    4.9388    1.5366   16.8646 H   0  0  0  0  0  0  0  0  0  0  0  0
    5.4934    1.1588   17.7209 C   0  0  0  0  0  0  0  0  0  0  0  0
    6.6061    0.4639   17.4559 N   0  0  0  0  0  0  0  0  0  0  0  0
    7.3173    0.0140   18.5012 C   0  0  0  0  0  0  0  0  0  0  0  0
    8.2212   -0.5290   18.2351 H   0  0  0  0  0  0  0  0  0  0  0  0
    6.9796    0.2246   19.8608 C   0  0  0  0  0  0  0  0  0  0  0  0
    7.7890   -0.3443   21.0645 C   0  0  0  0  0  0  0  0  0  0  0  0
    9.2244   -0.7346   20.6638 C   0  0  0  0  0  0  0  0  0  0  0  0
    9.7573    0.1258   20.2504 H   0  0  0  0  0  0  0  0  0  0  0  0
    9.2119   -1.5330   19.9154 H   0  0  0  0  0  0  0  0  0  0  0  0
    9.7949   -1.1130   21.5197 H   0  0  0  0  0  0  0  0  0  0  0  0
    7.0463   -1.5719   21.6412 C   0  0  0  0  0  0  0  0  0  0  0  0
    6.8599   -2.2806   20.8272 H   0  0  0  0  0  0  0  0  0  0  0  0
    7.6244   -2.0955   22.4147 H   0  0  0  0  0  0  0  0  0  0  0  0
    6.0724   -1.2860   22.0504 H   0  0  0  0  0  0  0  0  0  0  0  0
    7.9336    1.0029   22.4117 S   0  0  0  0  0  0  0  0  0  0  0  0
    8.6699    2.1198   21.8462 O   0  0  0  0  0  0  0  0  0  0  0  0
    6.6397    1.1784   23.0605 O   0  0  0  0  0  0  0  0  0  0  0  0
    8.8910    0.3207   23.6258 N   0  0  0  0  0  0  0  0  0  0  0  0
    8.2940   -0.4118   24.6263 C   0  0  0  0  0  0  0  0  0  0  0  0
    7.2181   -0.5240   24.6900 H   0  0  0  0  0  0  0  0  0  0  0  0
    9.1684   -0.9118   25.4394 N   0  0  0  0  0  0  0  0  0  0  0  0
   10.3992   -0.4929   24.9937 C   0  0  0  0  0  0  0  0  0  0  0  0
   11.3054   -0.7465   25.5264 H   0  0  0  0  0  0  0  0  0  0  0  0
   10.2759    0.2739   23.8757 C   0  0  0  0  0  0  0  0  0  0  0  0
   11.0145    0.8068   23.2918 H   0  0  0  0  0  0  0  0  0  0  0  0
    5.7870    0.9299   20.0984 C   0  0  0  0  0  0  0  0  0  0  0  0
    5.4458    1.1044   21.1166 H   0  0  0  0  0  0  0  0  0  0  0  0
    5.0403    1.4090   19.0184 C   0  0  0  0  0  0  0  0  0  0  0  0
    4.1302    1.9746   19.1783 H   0  0  0  0  0  0  0  0  0  0  0  0
  1  2  1  0
  2  3  2  0
  3  4  1  0
  4  5  1  0
  4  6  2  0
  6  7  1  0
  7  8  1  0
  8  9  1  0
  8 10  1  0
  8 11  1  0
  7 12  1  0
 12 13  1  0
 12 14  1  0
 12 15  1  0
  7 16  1  0
 16 17  2  0
 16 18  2  0
 16 19  1  0
 19 20  1  0
 20 21  1  0
 20 22  2  0
 22 23  1  0
 23 24  1  0
 23 25  2  0
 25 26  1  0
  6 27  1  0
 27 28  1  0
 27 29  2  0
 29 30  1  0
 29  2  1  0
 25 19  1  0
M  END
>  <plip>  (1) 
-0.07142857142857142

>  <filename>  (1) 
[H][c]1[n][c]([H])[c]([C]([C]([H])([H])[H])([C]([H])([H])[H])[S](=[O])(=[O])[n]2[c]([H])[n][c]([H])[c]2[H])[c]([H])[c]1[H]

$$$$
