
     RDKit          3D

 45 47  0  0  0  0  0  0  0  0999 V2000
    7.4254    0.5943   22.9202 C   0  0  0  0  0  0  0  0  0  0  0  0
    7.0824   -0.7382   22.2414 C   0  0  0  0  0  0  0  0  0  0  0  0
    7.4290   -0.6952   20.8358 O   0  0  0  0  0  0  0  0  0  0  0  0
    6.6765    0.0050   19.9160 C   0  0  0  0  0  0  0  0  0  0  0  0
    5.4559    0.6435   20.1817 C   0  0  0  0  0  0  0  0  0  0  0  0
    4.8229    1.3031   19.1119 C   0  0  0  0  0  0  0  0  0  0  0  0
    5.3969    1.2975   17.8294 C   0  0  0  0  0  0  0  0  0  0  0  0
    6.5601    0.6804   17.5693 N   0  0  0  0  0  0  0  0  0  0  0  0
    7.1741    0.0615   18.5991 C   0  0  0  0  0  0  0  0  0  0  0  0
    8.1164   -0.4350   18.4085 H   0  0  0  0  0  0  0  0  0  0  0  0
    4.8840    1.8012   17.0135 H   0  0  0  0  0  0  0  0  0  0  0  0
    3.8855    1.8283   19.2598 H   0  0  0  0  0  0  0  0  0  0  0  0
    5.0144    0.6284   21.1807 H   0  0  0  0  0  0  0  0  0  0  0  0
    7.8875   -1.8846   22.9079 C   0  0  0  0  0  0  0  0  0  0  0  0
    9.0573   -2.0626   22.5816 O   0  0  0  0  0  0  0  0  0  0  0  0
    7.3295   -2.7760   23.8279 N   0  0  0  0  0  0  0  0  0  0  0  0
    8.0687   -3.9853   24.2055 C   0  0  0  0  0  0  0  0  0  0  0  0
    7.1065   -5.1620   24.4086 C   0  0  0  0  0  0  0  0  0  0  0  0
    5.9372   -4.8538   25.3798 C   0  0  0  0  0  0  0  0  0  0  0  0
    6.0037   -5.6875   26.6526 C   0  0  0  0  0  0  0  0  0  0  0  0
    7.1805   -5.7013   27.4181 C   0  0  0  0  0  0  0  0  0  0  0  0
    7.2650   -6.4494   28.5963 C   0  0  0  0  0  0  0  0  0  0  0  0
    6.1718   -7.1982   29.0347 C   0  0  0  0  0  0  0  0  0  0  0  0
    4.9912   -7.1903   28.2891 C   0  0  0  0  0  0  0  0  0  0  0  0
    4.8970   -6.4402   27.1075 C   0  0  0  0  0  0  0  0  0  0  0  0
    3.2315   -6.4607   26.1626 Br  0  0  0  0  0  0  0  0  0  0  0  0
    4.1367   -7.7673   28.6307 H   0  0  0  0  0  0  0  0  0  0  0  0
    6.2372   -7.7829   29.9487 H   0  0  0  0  0  0  0  0  0  0  0  0
    8.1856   -6.4480   29.1666 H   0  0  0  0  0  0  0  0  0  0  0  0
    8.0403   -5.1238   27.0964 H   0  0  0  0  0  0  0  0  0  0  0  0
    5.8755   -3.3594   25.7411 C   0  0  0  0  0  0  0  0  0  0  0  0
    6.0723   -2.4734   24.5084 C   0  0  0  0  0  0  0  0  0  0  0  0
    6.0650   -1.4246   24.8222 H   0  0  0  0  0  0  0  0  0  0  0  0
    5.2385   -2.6345   23.8261 H   0  0  0  0  0  0  0  0  0  0  0  0
    6.6436   -3.1192   26.4803 H   0  0  0  0  0  0  0  0  0  0  0  0
    4.9069   -3.1392   26.1938 H   0  0  0  0  0  0  0  0  0  0  0  0
    5.0114   -5.1079   24.8546 H   0  0  0  0  0  0  0  0  0  0  0  0
    7.6764   -6.0245   24.7628 H   0  0  0  0  0  0  0  0  0  0  0  0
    6.6886   -5.4321   23.4343 H   0  0  0  0  0  0  0  0  0  0  0  0
    8.6349   -3.7994   25.1219 H   0  0  0  0  0  0  0  0  0  0  0  0
    8.7896   -4.2528   23.4214 H   0  0  0  0  0  0  0  0  0  0  0  0
    6.0194   -0.9416   22.3566 H   0  0  0  0  0  0  0  0  0  0  0  0
    7.2383    0.5367   23.9978 H   0  0  0  0  0  0  0  0  0  0  0  0
    8.4836    0.8262   22.7710 H   0  0  0  0  0  0  0  0  0  0  0  0
    6.8265    1.4133   22.5079 H   0  0  0  0  0  0  0  0  0  0  0  0
  1  2  1  0
  2  3  1  0
  3  4  1  0
  4  5  2  0
  5  6  1  0
  6  7  2  0
  7  8  1  0
  8  9  2  0
  9 10  1  0
  7 11  1  0
  6 12  1  0
  5 13  1  0
  2 14  1  0
 14 15  2  0
 14 16  1  0
 16 17  1  0
 17 18  1  0
 18 19  1  0
 19 20  1  0
 20 21  2  0
 21 22  1  0
 22 23  2  0
 23 24  1  0
 24 25  2  0
 25 26  1  0
 24 27  1  0
 23 28  1  0
 22 29  1  0
 21 30  1  0
 19 31  1  0
 31 32  1  0
 32 33  1  0
 32 34  1  0
 31 35  1  0
 31 36  1  0
 19 37  1  0
 18 38  1  0
 18 39  1  0
 17 40  1  0
 17 41  1  0
  2 42  1  0
  1 43  1  0
  1 44  1  0
  1 45  1  0
  9  4  1  0
 32 16  1  0
 25 20  1  0
M  END
>  <plip>  (1) 
-0.07142857142857142

>  <filename>  (1) 
[H][c]1[n][c]([H])[c]([O][C]([H])([C](=[O])[N]2[C]([H])([H])[C]([H])([H])[C]([H])([c]3[c]([H])[c]([H])[c]([H])[c]([H])[c]3[Br])[C]([H])([H])[C]2([H])[H])[C]([H])([H])[H])[c]([H])[c]1[H]

$$$$
