
     RDKit          3D

 33 37  0  0  0  0  0  0  0  0999 V2000
    4.9510    1.7856   16.9683 H   0  0  0  0  0  0  0  0  0  0  0  0
    5.4099    1.2944   17.8237 C   0  0  0  0  0  0  0  0  0  0  0  0
    6.5761    0.6695   17.5928 N   0  0  0  0  0  0  0  0  0  0  0  0
    7.1628    0.0806   18.6385 C   0  0  0  0  0  0  0  0  0  0  0  0
    8.1100   -0.4099   18.4197 H   0  0  0  0  0  0  0  0  0  0  0  0
    6.6534    0.0784   19.9551 C   0  0  0  0  0  0  0  0  0  0  0  0
    7.4301   -0.6072   21.0091 C   0  0  0  0  0  0  0  0  0  0  0  0
    8.3076   -1.6183   20.8437 C   0  0  0  0  0  0  0  0  0  0  0  0
    8.7318   -1.9709   19.9206 H   0  0  0  0  0  0  0  0  0  0  0  0
    8.8916   -2.2959   22.3358 S   0  0  0  0  0  0  0  0  0  0  0  0
    8.0867   -1.0340   23.2083 C   0  0  0  0  0  0  0  0  0  0  0  0
    8.1296   -0.5157   24.4118 N   0  0  0  0  0  0  0  0  0  0  0  0
    7.3498    0.5992   24.2635 C   0  0  0  0  0  0  0  0  0  0  0  0
    7.1408    1.5361   25.3772 C   0  0  0  0  0  0  0  0  0  0  0  0
    7.8024    1.4702   26.5672 C   0  0  0  0  0  0  0  0  0  0  0  0
    8.5594    0.7511   26.8703 H   0  0  0  0  0  0  0  0  0  0  0  0
    7.3551    2.7049   27.6843 S   0  0  0  0  0  0  0  0  0  0  0  0
    6.2119    3.3800   26.5535 C   0  0  0  0  0  0  0  0  0  0  0  0
    5.3770    4.4993   26.7425 C   0  0  0  0  0  0  0  0  0  0  0  0
    5.3978    5.0565   27.6771 H   0  0  0  0  0  0  0  0  0  0  0  0
    4.5302    4.8752   25.7042 C   0  0  0  0  0  0  0  0  0  0  0  0
    3.8763    5.7345   25.8245 H   0  0  0  0  0  0  0  0  0  0  0  0
    4.5126    4.1578   24.4886 C   0  0  0  0  0  0  0  0  0  0  0  0
    3.8496    4.4669   23.6848 H   0  0  0  0  0  0  0  0  0  0  0  0
    5.3398    3.0637   24.2994 C   0  0  0  0  0  0  0  0  0  0  0  0
    5.3575    2.5167   23.3625 H   0  0  0  0  0  0  0  0  0  0  0  0
    6.2026    2.6523   25.3430 C   0  0  0  0  0  0  0  0  0  0  0  0
    6.8432    0.7737   23.0401 N   0  0  0  0  0  0  0  0  0  0  0  0
    7.3215   -0.2993   22.3718 N   0  0  0  0  0  0  0  0  0  0  0  0
    5.4126    0.7095   20.1662 C   0  0  0  0  0  0  0  0  0  0  0  0
    4.9592    0.7175   21.1602 H   0  0  0  0  0  0  0  0  0  0  0  0
    4.7898    1.3223   19.0788 C   0  0  0  0  0  0  0  0  0  0  0  0
    3.8409    1.8340   19.1905 H   0  0  0  0  0  0  0  0  0  0  0  0
  1  2  1  0
  2  3  2  0
  3  4  1  0
  4  5  1  0
  4  6  2  0
  6  7  1  0
  7  8  2  0
  8  9  1  0
  8 10  1  0
 10 11  1  0
 11 12  2  0
 12 13  1  0
 13 14  1  0
 14 15  2  0
 15 16  1  0
 15 17  1  0
 17 18  1  0
 18 19  2  0
 19 20  1  0
 19 21  1  0
 21 22  1  0
 21 23  2  0
 23 24  1  0
 23 25  1  0
 25 26  1  0
 25 27  2  0
 13 28  2  0
 28 29  1  0
  6 30  1  0
 30 31  1  0
 30 32  2  0
 32 33  1  0
 32  2  1  0
 29  7  1  0
 29 11  1  0
 27 14  1  0
 27 18  1  0
M  END
>  <plip>  (1) 
-0.03571428571428571

>  <filename>  (1) 
[H][c]1[n][c]([H])[c](-[c]2[c]([H])[s][c]3[n][c](-[c]4[c]([H])[s][c]5[c]([H])[c]([H])[c]([H])[c]([H])[c]45)[n][n]23)[c]([H])[c]1[H]

$$$$
