
     RDKit          3D

 39 41  0  0  0  0  0  0  0  0999 V2000
    6.4816   -2.7797   21.8846 C   0  0  0  0  0  0  0  0  0  0  0  0
    7.4461   -2.0964   20.9079 C   0  0  0  0  0  0  0  0  0  0  0  0
    8.8809   -2.6056   21.0751 C   0  0  0  0  0  0  0  0  0  0  0  0
    8.9045   -3.6805   20.8765 H   0  0  0  0  0  0  0  0  0  0  0  0
    9.5533   -2.1041   20.3716 H   0  0  0  0  0  0  0  0  0  0  0  0
    9.2520   -2.4305   22.0881 H   0  0  0  0  0  0  0  0  0  0  0  0
    7.3970   -0.6140   20.9656 N   0  0  0  0  0  0  0  0  0  0  0  0
    7.8848    0.0208   22.1047 C   0  0  0  0  0  0  0  0  0  0  0  0
    8.0571   -0.5741   23.1531 O   0  0  0  0  0  0  0  0  0  0  0  0
    8.1690    1.5371   21.9662 C   0  0  0  0  0  0  0  0  0  0  0  0
    7.0157    2.4086   22.5462 C   0  0  0  0  0  0  0  0  0  0  0  0
    7.7480    3.2121   23.5782 C   0  0  0  0  0  0  0  0  0  0  0  0
    9.0959    2.8631   23.5813 C   0  0  0  0  0  0  0  0  0  0  0  0
   10.0260    3.4232   24.4572 C   0  0  0  0  0  0  0  0  0  0  0  0
    9.5597    4.4073   25.3464 C   0  0  0  0  0  0  0  0  0  0  0  0
    8.2096    4.7800   25.3663 C   0  0  0  0  0  0  0  0  0  0  0  0
    7.3213    4.1777   24.4768 C   0  0  0  0  0  0  0  0  0  0  0  0
    6.0299    4.5510   24.4930 F   0  0  0  0  0  0  0  0  0  0  0  0
    7.8271    5.5269   26.0483 H   0  0  0  0  0  0  0  0  0  0  0  0
   10.2391    4.9132   26.0317 H   0  0  0  0  0  0  0  0  0  0  0  0
   11.0578    3.0851   24.4342 H   0  0  0  0  0  0  0  0  0  0  0  0
    9.3828    1.9120   22.6476 O   0  0  0  0  0  0  0  0  0  0  0  0
    6.1972    1.8230   22.9835 H   0  0  0  0  0  0  0  0  0  0  0  0
    6.5629    3.0443   21.7765 H   0  0  0  0  0  0  0  0  0  0  0  0
    8.3303    1.7510   20.9095 H   0  0  0  0  0  0  0  0  0  0  0  0
    6.6954    0.0624   19.9058 C   0  0  0  0  0  0  0  0  0  0  0  0
    5.4664    0.6802   20.1525 C   0  0  0  0  0  0  0  0  0  0  0  0
    4.8108    1.3241   19.0962 C   0  0  0  0  0  0  0  0  0  0  0  0
    5.3914    1.3057   17.8244 C   0  0  0  0  0  0  0  0  0  0  0  0
    6.5498    0.6806   17.5570 N   0  0  0  0  0  0  0  0  0  0  0  0
    7.1729    0.0744   18.5768 C   0  0  0  0  0  0  0  0  0  0  0  0
    8.1126   -0.4239   18.3373 H   0  0  0  0  0  0  0  0  0  0  0  0
    4.9139    1.8084   16.9860 H   0  0  0  0  0  0  0  0  0  0  0  0
    3.8691    1.8414   19.2441 H   0  0  0  0  0  0  0  0  0  0  0  0
    5.0321    0.6316   21.1514 H   0  0  0  0  0  0  0  0  0  0  0  0
    7.0799   -2.3323   19.8986 H   0  0  0  0  0  0  0  0  0  0  0  0
    6.7764   -2.6272   22.9268 H   0  0  0  0  0  0  0  0  0  0  0  0
    5.4652   -2.4014   21.7365 H   0  0  0  0  0  0  0  0  0  0  0  0
    6.4705   -3.8566   21.6758 H   0  0  0  0  0  0  0  0  0  0  0  0
  1  2  1  0
  2  3  1  0
  3  4  1  0
  3  5  1  0
  3  6  1  0
  2  7  1  0
  7  8  1  0
  8  9  2  0
  8 10  1  0
 10 11  1  0
 11 12  1  0
 12 13  2  0
 13 14  1  0
 14 15  2  0
 15 16  1  0
 16 17  2  0
 17 18  1  0
 16 19  1  0
 15 20  1  0
 14 21  1  0
 13 22  1  0
 11 23  1  0
 11 24  1  0
 10 25  1  0
  7 26  1  0
 26 27  2  0
 27 28  1  0
 28 29  2  0
 29 30  1  0
 30 31  2  0
 31 32  1  0
 29 33  1  0
 28 34  1  0
 27 35  1  0
  2 36  1  0
  1 37  1  0
  1 38  1  0
  1 39  1  0
 22 10  1  0
 31 26  1  0
 17 12  1  0
M  END
>  <plip>  (1) 
-0.07142857142857142

>  <filename>  (1) 
[H][c]1[n][c]([H])[c]([N]([C](=[O])[C]2([H])[O][c]3[c]([H])[c]([H])[c]([H])[c]([F])[c]3[C]2([H])[H])[C]([H])([C]([H])([H])[H])[C]([H])([H])[H])[c]([H])[c]1[H]

$$$$
