
     RDKit          3D

 35 38  0  0  0  0  0  0  0  0999 V2000
    4.9596    1.8507   16.9491 H   0  0  0  0  0  0  0  0  0  0  0  0
    5.4108    1.3071   17.7770 C   0  0  0  0  0  0  0  0  0  0  0  0
    6.5592    0.6690   17.5178 N   0  0  0  0  0  0  0  0  0  0  0  0
    7.1453    0.0208   18.5334 C   0  0  0  0  0  0  0  0  0  0  0  0
    8.0842   -0.4718   18.2876 H   0  0  0  0  0  0  0  0  0  0  0  0
    6.6379   -0.0540   19.8454 C   0  0  0  0  0  0  0  0  0  0  0  0
    7.3669   -0.8177   20.9431 C   0  0  1  0  0  0  0  0  0  0  0  0
    7.0240   -1.8608   20.9306 H   0  0  0  0  0  0  0  0  0  0  0  0
    8.9375   -0.8696   20.8002 C   0  0  0  0  0  0  0  0  0  0  0  0
    9.3107   -0.0339   20.1944 H   0  0  0  0  0  0  0  0  0  0  0  0
    9.2930   -1.8094   20.3693 H   0  0  0  0  0  0  0  0  0  0  0  0
    9.4149   -0.6924   22.2118 C   0  0  0  0  0  0  0  0  0  0  0  0
   10.6002   -0.6637   22.8080 N   0  0  0  0  0  0  0  0  0  0  0  0
   10.2913   -0.2582   24.0608 N   0  0  0  0  0  0  0  0  0  0  0  0
   10.9975   -0.1135   24.7762 H   0  0  0  0  0  0  0  0  0  0  0  0
    8.9664   -0.0085   24.2426 C   0  0  0  0  0  0  0  0  0  0  0  0
    8.3723    0.6038   25.4731 C   0  0  2  0  0  0  0  0  0  0  0  0
    8.1136    1.6510   25.2465 H   0  0  0  0  0  0  0  0  0  0  0  0
    9.3207    0.5435   26.5721 N   0  0  0  0  0  0  0  0  0  0  0  0
    8.6663    0.0069   27.5171 C   0  0  0  0  0  0  0  0  0  0  0  0
    9.1825   -0.2566   28.7322 N   0  0  0  0  0  0  0  0  0  0  0  0
    8.4606   -0.0820   29.4109 H   0  0  0  0  0  0  0  0  0  0  0  0
    9.9958    0.3321   28.8228 H   0  0  0  0  0  0  0  0  0  0  0  0
    7.3757   -0.3237   27.3777 O   0  0  0  0  0  0  0  0  0  0  0  0
    7.0817   -0.1163   25.9821 C   0  0  0  0  0  0  0  0  0  0  0  0
    6.1681    0.4826   25.8889 H   0  0  0  0  0  0  0  0  0  0  0  0
    6.8960   -1.0911   25.5133 H   0  0  0  0  0  0  0  0  0  0  0  0
    8.3766   -0.3352   23.0586 C   0  0  0  0  0  0  0  0  0  0  0  0
    7.0620   -0.2600   22.3768 C   0  0  0  0  0  0  0  0  0  0  0  0
    6.2854   -0.8459   22.8843 H   0  0  0  0  0  0  0  0  0  0  0  0
    6.7243    0.7854   22.3453 H   0  0  0  0  0  0  0  0  0  0  0  0
    5.4175    0.6085   20.0761 C   0  0  0  0  0  0  0  0  0  0  0  0
    4.9572    0.6073   21.0671 H   0  0  0  0  0  0  0  0  0  0  0  0
    4.7995    1.2978   19.0333 C   0  0  0  0  0  0  0  0  0  0  0  0
    3.8821    1.8526   19.1935 H   0  0  0  0  0  0  0  0  0  0  0  0
  1  2  1  0
  2  3  2  0
  3  4  1  0
  4  5  1  0
  4  6  2  0
  6  7  1  0
  7  8  1  1
  7  9  1  0
  9 10  1  0
  9 11  1  0
  9 12  1  0
 12 13  2  0
 13 14  1  0
 14 15  1  0
 14 16  1  0
 16 17  1  0
 17 18  1  6
 17 19  1  0
 19 20  2  0
 20 21  1  0
 21 22  1  0
 21 23  1  0
 20 24  1  0
 24 25  1  0
 25 26  1  0
 25 27  1  0
 16 28  2  0
 28 29  1  0
 29 30  1  0
 29 31  1  0
  6 32  1  0
 32 33  1  0
 32 34  2  0
 34 35  1  0
 34  2  1  0
 29  7  1  0
 28 12  1  0
 25 17  1  0
M  END
>  <plip>  (1) 
-0.03571428571428571

>  <filename>  (1) 
[H][c]1[n][c]([H])[c]([C@@]2([H])[C]([H])([H])[c]3[n][n]([H])[c]([C@]4([H])[N]=[C]([N]([H])[H])[O][C]4([H])[H])[c]3[C]2([H])[H])[c]([H])[c]1[H]

$$$$
