
     RDKit          3D

 30 31  0  0  0  0  0  0  0  0999 V2000
    7.7071   -1.8973   20.2264 H   0  0  0  0  0  0  0  0  0  0  0  0
    7.6880   -1.3787   21.1807 C   0  0  0  0  0  0  0  0  0  0  0  0
    8.3283   -1.9696   22.2373 O   0  0  0  0  0  0  0  0  0  0  0  0
    8.8649   -3.2598   21.8920 C   0  0  0  0  0  0  0  0  0  0  0  0
    9.4094   -3.1837   20.9430 H   0  0  0  0  0  0  0  0  0  0  0  0
    9.5753   -3.5582   22.6642 H   0  0  0  0  0  0  0  0  0  0  0  0
    7.7910   -4.3568   21.7621 C   0  0  1  0  0  0  0  0  0  0  0  0
    7.1670   -4.1131   20.8998 H   0  0  0  0  0  0  0  0  0  0  0  0
    8.4077   -5.6449   21.5772 O   0  0  0  0  0  0  0  0  0  0  0  0
    8.0677   -6.5166   22.6678 C   0  0  0  0  0  0  0  0  0  0  0  0
    7.2617   -7.1875   22.3589 H   0  0  0  0  0  0  0  0  0  0  0  0
    8.9171   -7.1255   22.9963 H   0  0  0  0  0  0  0  0  0  0  0  0
    7.5993   -5.5994   23.7836 C   0  0  0  0  0  0  0  0  0  0  0  0
    8.4557   -5.2187   24.3453 H   0  0  0  0  0  0  0  0  0  0  0  0
    6.9147   -6.0839   24.4822 H   0  0  0  0  0  0  0  0  0  0  0  0
    6.9276   -4.4812   23.0170 C   0  0  0  0  0  0  0  0  0  0  0  0
    5.9043   -4.7546   22.7440 H   0  0  0  0  0  0  0  0  0  0  0  0
    6.8844   -3.5534   23.5938 H   0  0  0  0  0  0  0  0  0  0  0  0
    7.0176   -0.1710   21.2495 C   0  0  0  0  0  0  0  0  0  0  0  0
    6.8606    0.8149   22.8964 Br  0  0  0  0  0  0  0  0  0  0  0  0
    6.4200    0.3795   20.0238 C   0  0  0  0  0  0  0  0  0  0  0  0
    7.0375    0.2222   18.7685 C   0  0  0  0  0  0  0  0  0  0  0  0
    7.9833   -0.3054   18.7260 H   0  0  0  0  0  0  0  0  0  0  0  0
    6.5265    0.7015   17.6165 N   0  0  0  0  0  0  0  0  0  0  0  0
    5.3467    1.3425   17.6716 C   0  0  0  0  0  0  0  0  0  0  0  0
    4.8944    1.6953   16.7488 H   0  0  0  0  0  0  0  0  0  0  0  0
    4.6757    1.5488   18.8819 C   0  0  0  0  0  0  0  0  0  0  0  0
    3.7257    2.0642   18.8812 H   0  0  0  0  0  0  0  0  0  0  0  0
    5.2293    1.0942   20.0782 C   0  0  0  0  0  0  0  0  0  0  0  0
    4.7460    1.2808   21.0337 H   0  0  0  0  0  0  0  0  0  0  0  0
  1  2  1  0
  2  3  1  0
  3  4  1  0
  4  5  1  0
  4  6  1  0
  4  7  1  0
  7  8  1  6
  7  9  1  0
  9 10  1  0
 10 11  1  0
 10 12  1  0
 10 13  1  0
 13 14  1  0
 13 15  1  0
 13 16  1  0
 16 17  1  0
 16 18  1  0
  2 19  2  3
 19 20  1  0
 19 21  1  0
 21 22  2  0
 22 23  1  0
 22 24  1  0
 24 25  2  0
 25 26  1  0
 25 27  1  0
 27 28  1  0
 27 29  2  0
 29 30  1  0
 16  7  1  0
 29 21  1  0
M  END
>  <plip>  (1) 
-0.06896551724137931

>  <filename>  (1) 
[H][C]([O][C]([H])([H])[C@@]1([H])[O][C]([H])([H])[C]([H])([H])[C]1([H])[H])=[C]([Br])[c]1[c]([H])[n][c]([H])[c]([H])[c]1[H]

$$$$
