
     RDKit          3D

 31 32  0  0  0  0  0  0  0  0999 V2000
    4.9745    1.7868   16.9199 H   0  0  0  0  0  0  0  0  0  0  0  0
    5.4137    1.2873   17.7849 C   0  0  0  0  0  0  0  0  0  0  0  0
    6.5647    0.6322   17.5613 N   0  0  0  0  0  0  0  0  0  0  0  0
    7.1362    0.0139   18.6089 C   0  0  0  0  0  0  0  0  0  0  0  0
    8.0700   -0.5131   18.4101 H   0  0  0  0  0  0  0  0  0  0  0  0
    6.6093    0.0215   19.9209 C   0  0  0  0  0  0  0  0  0  0  0  0
    7.2826   -0.6465   21.0857 C   0  0  0  0  0  0  0  0  0  0  0  0
    7.8394    0.0458   22.1445 C   0  0  0  0  0  0  0  0  0  0  0  0
    7.8159    1.4165   22.3268 N   0  0  0  0  0  0  0  0  0  0  0  0
    8.5807    2.2503   21.4027 C   0  0  0  0  0  0  0  0  0  0  0  0
    8.1189    3.2489   21.3663 H   0  0  0  0  0  0  0  0  0  0  0  0
    8.4777    1.8110   20.4085 H   0  0  0  0  0  0  0  0  0  0  0  0
   10.0536    2.3491   21.8056 C   0  0  0  0  0  0  0  0  0  0  0  0
   10.1776    2.9932   22.6867 H   0  0  0  0  0  0  0  0  0  0  0  0
   10.6601    2.7659   20.9956 H   0  0  0  0  0  0  0  0  0  0  0  0
   10.4573    1.3571   22.0410 H   0  0  0  0  0  0  0  0  0  0  0  0
    7.3528    1.9875   23.5943 C   0  0  0  0  0  0  0  0  0  0  0  0
    7.6024    3.0577   23.6110 H   0  0  0  0  0  0  0  0  0  0  0  0
    7.8739    1.5277   24.4466 H   0  0  0  0  0  0  0  0  0  0  0  0
    5.8468    1.7922   23.7222 C   0  0  0  0  0  0  0  0  0  0  0  0
    5.4612    2.1971   24.6653 H   0  0  0  0  0  0  0  0  0  0  0  0
    5.6181    0.7228   23.6764 H   0  0  0  0  0  0  0  0  0  0  0  0
    5.3261    2.2910   22.8966 H   0  0  0  0  0  0  0  0  0  0  0  0
    8.7192   -0.8896   23.3475 S   0  0  0  0  0  0  0  0  0  0  0  0
    8.4353   -2.6784   22.3682 S   0  0  0  0  0  0  0  0  0  0  0  0
    7.2341   -2.0931   21.2287 C   0  0  0  0  0  0  0  0  0  0  0  0
    6.2340   -3.1584   20.4806 S   0  0  0  0  0  0  0  0  0  0  0  0
    5.3974    0.7006   20.1164 C   0  0  0  0  0  0  0  0  0  0  0  0
    4.9354    0.7120   21.1070 H   0  0  0  0  0  0  0  0  0  0  0  0
    4.7881    1.3377   19.0318 C   0  0  0  0  0  0  0  0  0  0  0  0
    3.8551    1.8771   19.1494 H   0  0  0  0  0  0  0  0  0  0  0  0
  1  2  1  0
  2  3  2  0
  3  4  1  0
  4  5  1  0
  4  6  2  0
  6  7  1  0
  7  8  2  0
  8  9  1  0
  9 10  1  0
 10 11  1  0
 10 12  1  0
 10 13  1  0
 13 14  1  0
 13 15  1  0
 13 16  1  0
  9 17  1  0
 17 18  1  0
 17 19  1  0
 17 20  1  0
 20 21  1  0
 20 22  1  0
 20 23  1  0
  8 24  1  0
 24 25  1  0
 25 26  1  0
 26 27  2  0
  6 28  1  0
 28 29  1  0
 28 30  2  0
 30 31  1  0
 30  2  1  0
 26  7  1  0
M  END
>  <plip>  (1) 
-0.03571428571428571

>  <filename>  (1) 
[H][c]1[n][c]([H])[c](-[c]2[c]([N]([C]([H])([H])[C]([H])([H])[H])[C]([H])([H])[C]([H])([H])[H])[s][s][c]2=[S])[c]([H])[c]1[H]

$$$$
