
     RDKit          3D

 44 46  0  0  0  0  0  0  0  0999 V2000
    8.1063   -4.7757   27.1966 C   0  0  0  0  0  0  0  0  0  0  0  0
    7.0549   -4.4923   26.1605 C   0  0  0  0  0  0  0  0  0  0  0  0
    5.8532   -3.8274   26.4545 C   0  0  0  0  0  0  0  0  0  0  0  0
    5.4121   -3.5094   28.1115 Cl  0  0  0  0  0  0  0  0  0  0  0  0
    4.9583   -3.3719   25.4608 C   0  0  0  0  0  0  0  0  0  0  0  0
    5.2283   -3.5802   24.1194 C   0  0  0  0  0  0  0  0  0  0  0  0
    6.3844   -4.3059   23.7735 C   0  0  0  0  0  0  0  0  0  0  0  0
    7.2337   -4.7736   24.7886 C   0  0  0  0  0  0  0  0  0  0  0  0
    8.2576   -5.4863   24.2380 O   0  0  0  0  0  0  0  0  0  0  0  0
    8.0613   -5.4672   22.8846 C   0  0  0  0  0  0  0  0  0  0  0  0
    6.9710   -4.7572   22.5299 C   0  0  0  0  0  0  0  0  0  0  0  0
    6.5112   -4.3805   21.1451 C   0  0  0  0  0  0  0  0  0  0  0  0
    6.3442   -2.8669   21.0667 C   0  0  0  0  0  0  0  0  0  0  0  0
    5.2883   -2.3314   21.3601 O   0  0  0  0  0  0  0  0  0  0  0  0
    7.4594   -2.1780   20.7244 N   0  0  0  0  0  0  0  0  0  0  0  0
    7.6048   -0.7363   20.9025 C   0  0  2  0  0  0  0  0  0  0  0  0
    7.3528   -0.3236   22.3589 C   0  0  0  0  0  0  0  0  0  0  0  0
    8.2448   -1.0358   23.3798 C   0  0  0  0  0  0  0  0  0  0  0  0
    7.7924   -0.7602   24.6895 O   0  0  0  0  0  0  0  0  0  0  0  0
    6.9283   -1.1945   24.7682 H   0  0  0  0  0  0  0  0  0  0  0  0
    8.2770   -2.1272   23.2075 H   0  0  0  0  0  0  0  0  0  0  0  0
    9.2803   -0.6728   23.3220 H   0  0  0  0  0  0  0  0  0  0  0  0
    6.3043   -0.5238   22.6133 H   0  0  0  0  0  0  0  0  0  0  0  0
    7.5263    0.7550   22.4488 H   0  0  0  0  0  0  0  0  0  0  0  0
    6.7632   -0.0094   19.8634 C   0  0  0  0  0  0  0  0  0  0  0  0
    5.5433    0.6370   20.1027 C   0  0  0  0  0  0  0  0  0  0  0  0
    4.9143    1.3023   19.0455 C   0  0  0  0  0  0  0  0  0  0  0  0
    5.5079    1.2792   17.7819 C   0  0  0  0  0  0  0  0  0  0  0  0
    6.6443    0.6155   17.5164 N   0  0  0  0  0  0  0  0  0  0  0  0
    7.2306   -0.0174   18.5385 C   0  0  0  0  0  0  0  0  0  0  0  0
    8.1429   -0.5571   18.2817 H   0  0  0  0  0  0  0  0  0  0  0  0
    5.0492    1.8052   16.9461 H   0  0  0  0  0  0  0  0  0  0  0  0
    3.9879    1.8465   19.1914 H   0  0  0  0  0  0  0  0  0  0  0  0
    5.0785    0.6134   21.0917 H   0  0  0  0  0  0  0  0  0  0  0  0
    8.6598   -0.5169   20.6749 H   0  0  0  0  0  0  0  0  0  0  0  0
    8.2654   -2.7232   20.4860 H   0  0  0  0  0  0  0  0  0  0  0  0
    5.5242   -4.8023   20.9349 H   0  0  0  0  0  0  0  0  0  0  0  0
    7.2066   -4.7460   20.3795 H   0  0  0  0  0  0  0  0  0  0  0  0
    8.7822   -6.0252   22.2986 H   0  0  0  0  0  0  0  0  0  0  0  0
    4.5891   -3.1813   23.3378 H   0  0  0  0  0  0  0  0  0  0  0  0
    4.0679   -2.8369   25.7707 H   0  0  0  0  0  0  0  0  0  0  0  0
    8.4719   -3.8313   27.6125 H   0  0  0  0  0  0  0  0  0  0  0  0
    7.7000   -5.3541   28.0291 H   0  0  0  0  0  0  0  0  0  0  0  0
    8.9580   -5.3145   26.7773 H   0  0  0  0  0  0  0  0  0  0  0  0
  1  2  1  0
  2  3  2  0
  3  4  1  0
  3  5  1  0
  5  6  2  0
  6  7  1  0
  7  8  2  0
  8  9  1  0
  9 10  1  0
 10 11  2  0
 11 12  1  0
 12 13  1  0
 13 14  2  0
 13 15  1  0
 15 16  1  0
 16 17  1  0
 17 18  1  0
 18 19  1  0
 19 20  1  0
 18 21  1  0
 18 22  1  0
 17 23  1  0
 17 24  1  0
 16 25  1  0
 25 26  2  0
 26 27  1  0
 27 28  2  0
 28 29  1  0
 29 30  2  0
 30 31  1  0
 28 32  1  0
 27 33  1  0
 26 34  1  0
 16 35  1  6
 15 36  1  0
 12 37  1  0
 12 38  1  0
 10 39  1  0
  6 40  1  0
  5 41  1  0
  1 42  1  0
  1 43  1  0
  1 44  1  0
  8  2  1  0
 30 25  1  0
 11  7  1  0
M  END
>  <plip>  (1) 
-0.10714285714285714

>  <filename>  (1) 
[H][O][C]([H])([H])[C]([H])([H])[C@]([H])([c]1[c]([H])[n][c]([H])[c]([H])[c]1[H])[N]([H])[C](=[O])[C]([H])([H])[c]1[c]([H])[o][c]2[c]([C]([H])([H])[H])[c]([Cl])[c]([H])[c]([H])[c]12

$$$$
