
     RDKit          3D

 43 45  0  0  0  0  0  0  0  0999 V2000
    7.4116    0.6021   22.8562 C   0  0  0  0  0  0  0  0  0  0  0  0
    7.1625   -0.7474   22.1634 C   0  0  0  0  0  0  0  0  0  0  0  0
    7.5582   -0.6610   20.7778 O   0  0  0  0  0  0  0  0  0  0  0  0
    6.7624    0.0072   19.8716 C   0  0  0  0  0  0  0  0  0  0  0  0
    5.5449    0.6275   20.1809 C   0  0  0  0  0  0  0  0  0  0  0  0
    4.8604    1.2841   19.1492 C   0  0  0  0  0  0  0  0  0  0  0  0
    5.3940    1.3050   17.8529 C   0  0  0  0  0  0  0  0  0  0  0  0
    6.5490    0.6917   17.5432 N   0  0  0  0  0  0  0  0  0  0  0  0
    7.2079    0.0633   18.5375 C   0  0  0  0  0  0  0  0  0  0  0  0
    8.1419   -0.4323   18.2940 H   0  0  0  0  0  0  0  0  0  0  0  0
    4.8607    1.8313   17.0680 H   0  0  0  0  0  0  0  0  0  0  0  0
    3.9216    1.7932   19.3362 H   0  0  0  0  0  0  0  0  0  0  0  0
    5.1507    0.6024   21.1953 H   0  0  0  0  0  0  0  0  0  0  0  0
    7.9222   -1.8928   22.8768 C   0  0  0  0  0  0  0  0  0  0  0  0
    9.0428   -2.2498   22.5324 O   0  0  0  0  0  0  0  0  0  0  0  0
    7.3056   -2.5876   23.9084 N   0  0  0  0  0  0  0  0  0  0  0  0
    7.9437   -3.6713   24.6628 C   0  0  0  0  0  0  0  0  0  0  0  0
    9.1317   -3.1574   25.4756 C   0  0  0  0  0  0  0  0  0  0  0  0
    9.2290   -4.1028   26.6607 C   0  0  0  0  0  0  0  0  0  0  0  0
    7.8305   -4.4599   26.8985 N   0  0  0  0  0  0  0  0  0  0  0  0
    7.5006   -5.4206   27.8240 C   0  0  0  0  0  0  0  0  0  0  0  0
    8.2420   -6.5692   27.8441 C   0  0  0  0  0  0  0  0  0  0  0  0
    8.0132   -7.5031   28.8421 C   0  0  0  0  0  0  0  0  0  0  0  0
    7.0622   -7.3328   29.7660 N   0  0  0  0  0  0  0  0  0  0  0  0
    6.2955   -6.2327   29.7009 C   0  0  0  0  0  0  0  0  0  0  0  0
    6.4702   -5.2471   28.7403 C   0  0  0  0  0  0  0  0  0  0  0  0
    5.3019   -3.7176   28.7588 Br  0  0  0  0  0  0  0  0  0  0  0  0
    5.5054   -6.0864   30.4327 H   0  0  0  0  0  0  0  0  0  0  0  0
    8.6203   -8.4008   28.8974 H   0  0  0  0  0  0  0  0  0  0  0  0
    8.9951   -6.7024   27.0760 H   0  0  0  0  0  0  0  0  0  0  0  0
    7.0009   -4.2980   25.7035 C   0  0  0  0  0  0  0  0  0  0  0  0
    6.6237   -5.2613   25.3421 H   0  0  0  0  0  0  0  0  0  0  0  0
    6.1516   -3.6427   25.9210 H   0  0  0  0  0  0  0  0  0  0  0  0
    9.6701   -3.6143   27.5306 H   0  0  0  0  0  0  0  0  0  0  0  0
    9.8289   -4.9858   26.4144 H   0  0  0  0  0  0  0  0  0  0  0  0
    8.9276   -2.1433   25.8336 H   0  0  0  0  0  0  0  0  0  0  0  0
   10.0593   -3.1481   24.8964 H   0  0  0  0  0  0  0  0  0  0  0  0
    8.2866   -4.4654   23.9868 H   0  0  0  0  0  0  0  0  0  0  0  0
    6.4293   -2.2080   24.2532 H   0  0  0  0  0  0  0  0  0  0  0  0
    6.0970   -0.9815   22.2206 H   0  0  0  0  0  0  0  0  0  0  0  0
    6.8093    1.3853   22.3856 H   0  0  0  0  0  0  0  0  0  0  0  0
    7.1415    0.5517   23.9166 H   0  0  0  0  0  0  0  0  0  0  0  0
    8.4670    0.8829   22.7789 H   0  0  0  0  0  0  0  0  0  0  0  0
  1  2  1  0
  2  3  1  0
  3  4  1  0
  4  5  2  0
  5  6  1  0
  6  7  2  0
  7  8  1  0
  8  9  2  0
  9 10  1  0
  7 11  1  0
  6 12  1  0
  5 13  1  0
  2 14  1  0
 14 15  2  0
 14 16  1  0
 16 17  1  0
 17 18  1  0
 18 19  1  0
 19 20  1  0
 20 21  1  0
 21 22  2  0
 22 23  1  0
 23 24  2  0
 24 25  1  0
 25 26  2  0
 26 27  1  0
 25 28  1  0
 23 29  1  0
 22 30  1  0
 20 31  1  0
 31 32  1  0
 31 33  1  0
 19 34  1  0
 19 35  1  0
 18 36  1  0
 18 37  1  0
 17 38  1  0
 16 39  1  0
  2 40  1  0
  1 41  1  0
  1 42  1  0
  1 43  1  0
  9  4  1  0
 31 17  1  0
 26 21  1  0
M  END
>  <plip>  (1) 
-0.06896551724137931

>  <filename>  (1) 
[H][c]1[n][c]([H])[c]([O][C]([H])([C](=[O])[N]([H])[C]2([H])[C]([H])([H])[N]([c]3[c]([H])[c]([H])[n][c]([H])[c]3[Br])[C]([H])([H])[C]2([H])[H])[C]([H])([H])[H])[c]([H])[c]1[H]

$$$$
