
     RDKit          3D

 24 26  0  0  0  0  0  0  0  0999 V2000
    4.7927    1.3107   19.0939 C   0  0  0  0  0  0  0  0  0  0  0  0
    5.4039    1.2858   17.8349 C   0  0  0  0  0  0  0  0  0  0  0  0
    6.5657    0.6599   17.5979 N   0  0  0  0  0  0  0  0  0  0  0  0
    7.1635    0.0529   18.6256 C   0  0  0  0  0  0  0  0  0  0  0  0
    6.6432    0.0208   19.9304 C   0  0  0  0  0  0  0  0  0  0  0  0
    7.3678   -0.6655   21.0086 C   0  0  0  0  0  0  0  0  0  0  0  0
    8.3352   -1.6061   20.8159 C   0  0  0  0  0  0  0  0  0  0  0  0
    8.8627   -2.2374   22.3148 S   0  0  0  0  0  0  0  0  0  0  0  0
    7.7991   -1.1222   23.1141 C   0  0  0  0  0  0  0  0  0  0  0  0
    7.7890   -1.0725   24.5663 C   0  0  0  0  0  0  0  0  0  0  0  0
    8.4904   -1.7862   25.5262 C   0  0  0  0  0  0  0  0  0  0  0  0
    8.0220   -1.2654   26.7461 C   0  0  0  0  0  0  0  0  0  0  0  0
    7.1104   -0.3125   26.5591 N   0  0  0  0  0  0  0  0  0  0  0  0
    6.9833   -0.2069   25.2419 N   0  0  0  0  0  0  0  0  0  0  0  0
    6.3346    0.4632   24.8421 H   0  0  0  0  0  0  0  0  0  0  0  0
    8.2916   -1.5273   27.7612 H   0  0  0  0  0  0  0  0  0  0  0  0
    9.2279   -2.5711   25.3652 H   0  0  0  0  0  0  0  0  0  0  0  0
    7.0700   -0.3872   22.3241 N   0  0  0  0  0  0  0  0  0  0  0  0
    8.7935   -1.8952   19.8876 H   0  0  0  0  0  0  0  0  0  0  0  0
    5.4183    0.6698   20.1604 C   0  0  0  0  0  0  0  0  0  0  0  0
    4.9924    0.6714   21.1653 H   0  0  0  0  0  0  0  0  0  0  0  0
    8.1174   -0.4085   18.3752 H   0  0  0  0  0  0  0  0  0  0  0  0
    4.9568    1.7921   16.9818 H   0  0  0  0  0  0  0  0  0  0  0  0
    3.8596    1.8477   19.2248 H   0  0  0  0  0  0  0  0  0  0  0  0
  1  2  2  0
  2  3  1  0
  3  4  2  0
  4  5  1  0
  5  6  1  0
  6  7  2  0
  7  8  1  0
  8  9  1  0
  9 10  1  0
 10 11  2  0
 11 12  1  0
 12 13  2  0
 13 14  1  0
 14 15  1  0
 12 16  1  0
 11 17  1  0
  9 18  2  0
  7 19  1  0
  5 20  2  0
 20 21  1  0
  4 22  1  0
  2 23  1  0
  1 24  1  0
 20  1  1  0
 18  6  1  0
 14 10  1  0
M  END
>  <plip>  (1) 
-0.03571428571428571

>  <filename>  (1) 
[H][c]1[n][c]([H])[c](-[c]2[n][c](-[c]3[c]([H])[c]([H])[n][n]3[H])[s][c]2[H])[c]([H])[c]1[H]

$$$$
