
     RDKit          3D

 36 38  0  0  0  0  0  0  0  0999 V2000
    4.9206    1.8027   16.9751 H   0  0  0  0  0  0  0  0  0  0  0  0
    5.3921    1.3009   17.8210 C   0  0  0  0  0  0  0  0  0  0  0  0
    6.5547    0.6818   17.5659 N   0  0  0  0  0  0  0  0  0  0  0  0
    7.1699    0.0684   18.5859 C   0  0  0  0  0  0  0  0  0  0  0  0
    8.1079   -0.4239   18.3348 H   0  0  0  0  0  0  0  0  0  0  0  0
    6.6709    0.0146   19.8990 C   0  0  0  0  0  0  0  0  0  0  0  0
    7.3938   -0.7086   20.9698 C   0  0  0  0  0  0  0  0  0  0  0  0
    8.7513   -0.7893   21.0951 C   0  0  0  0  0  0  0  0  0  0  0  0
    9.4885   -0.3324   20.4535 H   0  0  0  0  0  0  0  0  0  0  0  0
    9.2236   -1.6958   22.4767 S   0  0  0  0  0  0  0  0  0  0  0  0
    7.5714   -2.0033   22.9299 C   0  0  0  0  0  0  0  0  0  0  0  0
    7.2349   -2.8015   24.1336 C   0  0  0  0  0  0  0  0  0  0  0  0
    5.9489   -2.7692   24.6677 C   0  0  0  0  0  0  0  0  0  0  0  0
    5.1645   -2.1528   24.2694 H   0  0  0  0  0  0  0  0  0  0  0  0
    5.6039   -3.5315   25.7934 C   0  0  0  0  0  0  0  0  0  0  0  0
    4.3124   -3.3984   26.1841 O   0  0  0  0  0  0  0  0  0  0  0  0
    3.8179   -4.0950   27.3110 C   0  0  0  0  0  0  0  0  0  0  0  0
    3.8770   -5.1850   27.1766 H   0  0  0  0  0  0  0  0  0  0  0  0
    4.3473   -3.8119   28.2326 H   0  0  0  0  0  0  0  0  0  0  0  0
    2.7697   -3.7923   27.3844 H   0  0  0  0  0  0  0  0  0  0  0  0
    6.5528   -4.3360   26.4118 C   0  0  0  0  0  0  0  0  0  0  0  0
    6.3257   -4.9349   27.2868 H   0  0  0  0  0  0  0  0  0  0  0  0
    7.8557   -4.3667   25.8834 C   0  0  0  0  0  0  0  0  0  0  0  0
    8.7097   -5.1729   26.5558 O   0  0  0  0  0  0  0  0  0  0  0  0
   10.0518   -5.2963   26.1319 C   0  0  0  0  0  0  0  0  0  0  0  0
   10.1207   -5.7094   25.1150 H   0  0  0  0  0  0  0  0  0  0  0  0
   10.5782   -4.3315   26.1640 H   0  0  0  0  0  0  0  0  0  0  0  0
   10.4927   -5.9867   26.8484 H   0  0  0  0  0  0  0  0  0  0  0  0
    8.2035   -3.6135   24.7577 C   0  0  0  0  0  0  0  0  0  0  0  0
    9.2115   -3.6582   24.3676 H   0  0  0  0  0  0  0  0  0  0  0  0
    6.7359   -1.4270   22.0147 C   0  0  0  0  0  0  0  0  0  0  0  0
    5.6655   -1.5490   21.9994 H   0  0  0  0  0  0  0  0  0  0  0  0
    5.4464    0.6607   20.1381 C   0  0  0  0  0  0  0  0  0  0  0  0
    5.0224    0.6532   21.1411 H   0  0  0  0  0  0  0  0  0  0  0  0
    4.8010    1.3173   19.0895 C   0  0  0  0  0  0  0  0  0  0  0  0
    3.8659    1.8467   19.2362 H   0  0  0  0  0  0  0  0  0  0  0  0
  1  2  1  0
  2  3  2  0
  3  4  1  0
  4  5  1  0
  4  6  2  0
  6  7  1  0
  7  8  2  0
  8  9  1  0
  8 10  1  0
 10 11  1  0
 11 12  1  0
 12 13  2  0
 13 14  1  0
 13 15  1  0
 15 16  1  0
 16 17  1  0
 17 18  1  0
 17 19  1  0
 17 20  1  0
 15 21  2  0
 21 22  1  0
 21 23  1  0
 23 24  1  0
 24 25  1  0
 25 26  1  0
 25 27  1  0
 25 28  1  0
 23 29  2  0
 29 30  1  0
 11 31  2  0
 31 32  1  0
  6 33  1  0
 33 34  1  0
 33 35  2  0
 35 36  1  0
 35  2  1  0
 31  7  1  0
 29 12  1  0
M  END
>  <plip>  (1) 
-0.07142857142857142

>  <filename>  (1) 
[H][c]1[n][c]([H])[c](-[c]2[c]([H])[s][c](-[c]3[c]([H])[c]([O][C]([H])([H])[H])[c]([H])[c]([O][C]([H])([H])[H])[c]3[H])[c]2[H])[c]([H])[c]1[H]

$$$$
