
     RDKit          3D

 37 38  0  0  0  0  0  0  0  0999 V2000
   12.3138    3.0786   23.7687 C   0  0  0  0  0  0  0  0  0  0  0  0
   11.1065    2.8243   22.9402 C   0  0  0  0  0  0  0  0  0  0  0  0
   10.8766    1.6931   22.3218 N   0  0  0  0  0  0  0  0  0  0  0  0
    9.6227    1.8129   21.7691 C   0  0  0  0  0  0  0  0  0  0  0  0
    9.0022    0.7094   20.9724 C   0  0  0  0  0  0  0  0  0  0  0  0
    7.7888    0.0056   21.6589 N   0  0  0  0  0  4  0  0  0  0  0  0
    8.1192   -0.4414   23.0716 C   0  0  0  0  0  0  0  0  0  0  0  0
    9.2596   -1.4739   23.1284 C   0  0  0  0  0  0  0  0  0  0  0  0
    9.2564   -2.1684   24.4199 C   0  0  0  0  0  0  0  0  0  0  0  0
    9.2141   -2.6994   25.4471 N   0  0  0  0  0  0  0  0  0  0  0  0
   10.2206   -0.9661   22.9942 H   0  0  0  0  0  0  0  0  0  0  0  0
    9.1461   -2.2135   22.3283 H   0  0  0  0  0  0  0  0  0  0  0  0
    8.4171    0.4372   23.6509 H   0  0  0  0  0  0  0  0  0  0  0  0
    7.2178   -0.8292   23.5613 H   0  0  0  0  0  0  0  0  0  0  0  0
    7.1297   -1.0337   20.7686 C   0  0  0  0  0  0  0  0  0  0  0  0
    6.3982   -0.2796   19.6853 C   0  0  0  0  0  0  0  0  0  0  0  0
    5.2600    0.4892   19.9704 C   0  0  0  0  0  0  0  0  0  0  0  0
    4.7506    1.3387   18.9845 C   0  0  0  0  0  0  0  0  0  0  0  0
    5.3861    1.3740   17.7404 C   0  0  0  0  0  0  0  0  0  0  0  0
    6.4418    0.6065   17.4324 N   0  0  0  0  0  0  0  0  0  0  0  0
    6.9192   -0.2024   18.3862 C   0  0  0  0  0  0  0  0  0  0  0  0
    7.7889   -0.8013   18.1059 H   0  0  0  0  0  0  0  0  0  0  0  0
    5.0201    2.0399   16.9599 H   0  0  0  0  0  0  0  0  0  0  0  0
    3.9181    2.0084   19.1797 H   0  0  0  0  0  0  0  0  0  0  0  0
    4.7799    0.4225   20.9479 H   0  0  0  0  0  0  0  0  0  0  0  0
    6.4551   -1.6413   21.3835 H   0  0  0  0  0  0  0  0  0  0  0  0
    7.8934   -1.7000   20.3512 H   0  0  0  0  0  0  0  0  0  0  0  0
    7.0563    0.7536   21.6972 H   0  0  0  0  0  0  0  0  0  0  0  0
    8.6481    1.1259   20.0287 H   0  0  0  0  0  0  0  0  0  0  0  0
    9.7788   -0.0285   20.7539 H   0  0  0  0  0  0  0  0  0  0  0  0
    9.0839    3.0312   22.0695 C   0  0  0  0  0  0  0  0  0  0  0  0
   10.0469    3.6665   22.8293 N   0  0  0  0  0  0  0  0  0  0  0  0
   10.0180    4.6026   23.1966 H   0  0  0  0  0  0  0  0  0  0  0  0
    8.1499    3.4919   21.7692 H   0  0  0  0  0  0  0  0  0  0  0  0
   12.1758    2.5547   24.7186 H   0  0  0  0  0  0  0  0  0  0  0  0
   12.4811    4.1386   23.9663 H   0  0  0  0  0  0  0  0  0  0  0  0
   13.1982    2.6580   23.2850 H   0  0  0  0  0  0  0  0  0  0  0  0
  1  2  1  0
  2  3  2  0
  3  4  1  0
  4  5  1  0
  5  6  1  0
  6  7  1  0
  7  8  1  0
  8  9  1  0
  9 10  3  0
  8 11  1  0
  8 12  1  0
  7 13  1  0
  7 14  1  0
  6 15  1  0
 15 16  1  0
 16 17  2  0
 17 18  1  0
 18 19  2  0
 19 20  1  0
 20 21  2  0
 21 22  1  0
 19 23  1  0
 18 24  1  0
 17 25  1  0
 15 26  1  0
 15 27  1  0
  6 28  1  0
  5 29  1  0
  5 30  1  0
  4 31  2  0
 31 32  1  0
 32 33  1  0
 31 34  1  0
  1 35  1  0
  1 36  1  0
  1 37  1  0
 32  2  1  0
 21 16  1  0
M  CHG  1   6   1
M  END
>  <plip>  (1) 
-0.14285714285714285

>  <filename>  (1) 
[H][c]1[n][c]([H])[c]([C]([H])([H])[N+]([H])([C]([H])([H])[c]2[n][c]([C]([H])([H])[H])[n]([H])[c]2[H])[C]([H])([H])[C]([H])([H])[C]#[N])[c]([H])[c]1[H]

$$$$
