
     RDKit          3D

 26 27  0  0  0  0  0  0  0  0999 V2000
    5.1098    1.7659   16.9753 H   0  0  0  0  0  0  0  0  0  0  0  0
    5.5332    1.3048   17.8654 C   0  0  0  0  0  0  0  0  0  0  0  0
    6.7111    0.6856   17.7059 N   0  0  0  0  0  0  0  0  0  0  0  0
    7.2524    0.0910   18.7713 C   0  0  0  0  0  0  0  0  0  0  0  0
    8.2005   -0.4179   18.5921 H   0  0  0  0  0  0  0  0  0  0  0  0
    6.6533    0.0605   20.0383 C   0  0  0  0  0  0  0  0  0  0  0  0
    7.2917   -0.7078   21.1301 C   0  0  0  0  0  0  0  0  0  0  0  0
    6.4449   -1.7461   22.0466 S   0  0  0  0  0  0  0  0  0  0  0  0
    8.7900   -0.5969   21.3095 C   0  0  0  0  0  0  0  0  0  0  0  0
    9.2839   -0.9954   20.4167 H   0  0  0  0  0  0  0  0  0  0  0  0
    9.0917   -1.2578   22.1299 H   0  0  0  0  0  0  0  0  0  0  0  0
    9.3425    0.7867   21.5185 C   0  0  0  0  0  0  0  0  0  0  0  0
   10.3914    1.2146   20.8597 N   0  0  0  0  0  0  0  0  0  0  0  0
   10.6769    2.4620   21.3528 C   0  0  0  0  0  0  0  0  0  0  0  0
   11.5156    3.0521   21.0001 H   0  0  0  0  0  0  0  0  0  0  0  0
    9.7816    2.7937   22.3231 C   0  0  0  0  0  0  0  0  0  0  0  0
    9.5927    3.7246   22.8467 H   0  0  0  0  0  0  0  0  0  0  0  0
    8.9295    1.7134   22.4427 N   0  0  0  0  0  0  0  0  0  0  0  0
    7.9561    1.5787   23.5117 C   0  0  0  0  0  0  0  0  0  0  0  0
    8.1231    2.4150   24.1957 H   0  0  0  0  0  0  0  0  0  0  0  0
    8.0902    0.6470   24.0691 H   0  0  0  0  0  0  0  0  0  0  0  0
    6.9299    1.6387   23.1421 H   0  0  0  0  0  0  0  0  0  0  0  0
    5.3946    0.6787   20.1789 C   0  0  0  0  0  0  0  0  0  0  0  0
    4.8657    0.6348   21.1330 H   0  0  0  0  0  0  0  0  0  0  0  0
    4.8384    1.3234   19.0793 C   0  0  0  0  0  0  0  0  0  0  0  0
    3.8777    1.8222   19.1395 H   0  0  0  0  0  0  0  0  0  0  0  0
  1  2  1  0
  2  3  2  0
  3  4  1  0
  4  5  1  0
  4  6  2  0
  6  7  1  0
  7  8  2  0
  7  9  1  0
  9 10  1  0
  9 11  1  0
  9 12  1  0
 12 13  2  0
 13 14  1  0
 14 15  1  0
 14 16  2  0
 16 17  1  0
 16 18  1  0
 18 19  1  0
 19 20  1  0
 19 21  1  0
 19 22  1  0
  6 23  1  0
 23 24  1  0
 23 25  2  0
 25 26  1  0
 25  2  1  0
 18 12  1  0
M  END
>  <plip>  (1) 
-0.07142857142857142

>  <filename>  (1) 
[H][c]1[n][c]([H])[c]([C](=[S])[C]([H])([H])[c]2[n][c]([H])[c]([H])[n]2[C]([H])([H])[H])[c]([H])[c]1[H]

$$$$
