
     RDKit          3D

 31 32  0  0  0  0  0  0  0  0999 V2000
    5.0479    1.8184   16.9203 H   0  0  0  0  0  0  0  0  0  0  0  0
    5.4359    1.2707   17.7791 C   0  0  0  0  0  0  0  0  0  0  0  0
    6.5589    0.5669   17.5591 N   0  0  0  0  0  0  0  0  0  0  0  0
    7.0769   -0.0873   18.6027 C   0  0  0  0  0  0  0  0  0  0  0  0
    7.9860   -0.6606   18.4130 H   0  0  0  0  0  0  0  0  0  0  0  0
    6.5292   -0.1028   19.8973 C   0  0  0  0  0  0  0  0  0  0  0  0
    7.2829   -0.8008   20.9650 C   0  0  0  0  0  0  0  0  0  0  0  0
    6.7832   -1.5766   21.9639 C   0  0  0  0  0  0  0  0  0  0  0  0
    5.7522   -1.8125   22.1606 H   0  0  0  0  0  0  0  0  0  0  0  0
    8.0218   -2.2896   22.9437 S   0  0  0  0  0  0  0  0  0  0  0  0
    9.2603   -1.5034   22.0022 C   0  0  0  0  0  0  0  0  0  0  0  0
   10.6407   -1.6371   22.2158 N   0  0  0  0  0  0  0  0  0  0  0  0
   10.9951   -2.3715   22.8067 H   0  0  0  0  0  0  0  0  0  0  0  0
   11.5699   -0.7252   21.7619 C   0  0  0  0  0  0  0  0  0  0  0  0
   11.2671    0.3289   21.2471 O   0  0  0  0  0  0  0  0  0  0  0  0
   13.0202   -1.1048   22.0102 C   0  0  0  0  0  0  0  0  0  0  0  0
   13.0557   -2.0970   22.4626 H   0  0  0  0  0  0  0  0  0  0  0  0
   13.4814   -1.2221   21.0239 H   0  0  0  0  0  0  0  0  0  0  0  0
   13.7984   -0.0312   22.8167 C   0  0  0  0  0  0  0  0  0  0  0  0
   14.7166   -0.4713   23.2253 H   0  0  0  0  0  0  0  0  0  0  0  0
   14.1236    0.7531   22.1253 H   0  0  0  0  0  0  0  0  0  0  0  0
   12.9768    0.6526   23.9155 C   0  0  0  0  0  0  0  0  0  0  0  0
   13.4906    1.5411   24.3001 H   0  0  0  0  0  0  0  0  0  0  0  0
   12.0211    0.9925   23.4997 H   0  0  0  0  0  0  0  0  0  0  0  0
   12.7545   -0.0161   24.7532 H   0  0  0  0  0  0  0  0  0  0  0  0
    8.7041   -0.7651   21.0108 C   0  0  0  0  0  0  0  0  0  0  0  0
    9.3125   -0.1648   20.3551 H   0  0  0  0  0  0  0  0  0  0  0  0
    5.3272    0.5944   20.0953 C   0  0  0  0  0  0  0  0  0  0  0  0
    4.8399    0.6040   21.0710 H   0  0  0  0  0  0  0  0  0  0  0  0
    4.7861    1.3039   19.0168 C   0  0  0  0  0  0  0  0  0  0  0  0
    3.8884    1.9023   19.1208 H   0  0  0  0  0  0  0  0  0  0  0  0
  1  2  1  0
  2  3  2  0
  3  4  1  0
  4  5  1  0
  4  6  2  0
  6  7  1  0
  7  8  2  0
  8  9  1  0
  8 10  1  0
 10 11  1  0
 11 12  1  0
 12 13  1  0
 12 14  1  0
 14 15  2  0
 14 16  1  0
 16 17  1  0
 16 18  1  0
 16 19  1  0
 19 20  1  0
 19 21  1  0
 19 22  1  0
 22 23  1  0
 22 24  1  0
 22 25  1  0
 11 26  2  0
 26 27  1  0
  6 28  1  0
 28 29  1  0
 28 30  2  0
 30 31  1  0
 30  2  1  0
 26  7  1  0
M  END
>  <plip>  (1) 
-0.10344827586206896

>  <filename>  (1) 
[H][c]1[n][c]([H])[c](-[c]2[c]([H])[s][c]([N]([H])[C](=[O])[C]([H])([H])[C]([H])([H])[C]([H])([H])[H])[c]2[H])[c]([H])[c]1[H]

$$$$
