
     RDKit          3D

 24 25  0  0  0  0  0  0  0  0999 V2000
    4.9886    1.8227   17.0043 H   0  0  0  0  0  0  0  0  0  0  0  0
    5.4372    1.2864   17.8381 C   0  0  0  0  0  0  0  0  0  0  0  0
    6.5913    0.6472   17.5814 N   0  0  0  0  0  0  0  0  0  0  0  0
    7.1640   -0.0200   18.5894 C   0  0  0  0  0  0  0  0  0  0  0  0
    8.1121   -0.5110   18.3822 H   0  0  0  0  0  0  0  0  0  0  0  0
    6.6279   -0.0999   19.8892 C   0  0  0  0  0  0  0  0  0  0  0  0
    7.3628   -0.7648   20.9454 C   0  0  0  0  0  0  0  0  0  0  0  0
    8.0972   -1.1147   21.8421 C   0  0  0  0  0  0  0  0  0  0  0  0
    8.6013   -1.7359   22.8875 O   0  0  0  0  0  0  0  0  0  0  0  0
    8.3713   -3.1032   23.0493 C   0  0  0  0  0  0  0  0  0  0  0  0
    7.4606   -3.8687   22.3163 C   0  0  0  0  0  0  0  0  0  0  0  0
    6.7946   -3.4398   21.5726 H   0  0  0  0  0  0  0  0  0  0  0  0
    7.4011   -5.2449   22.5912 C   0  0  0  0  0  0  0  0  0  0  0  0
    6.6994   -5.8800   22.0536 H   0  0  0  0  0  0  0  0  0  0  0  0
    8.2177   -5.8237   23.5633 C   0  0  0  0  0  0  0  0  0  0  0  0
    8.2129   -6.8844   23.7134 H   0  0  0  0  0  0  0  0  0  0  0  0
    9.0610   -5.0184   24.3328 C   0  0  0  0  0  0  0  0  0  0  0  0
    9.9970   -5.6840   25.6423 Cl  0  0  0  0  0  0  0  0  0  0  0  0
    9.1409   -3.6554   24.0755 C   0  0  0  0  0  0  0  0  0  0  0  0
    9.7723   -3.0122   24.6679 H   0  0  0  0  0  0  0  0  0  0  0  0
    5.4261    0.5862   20.1387 C   0  0  0  0  0  0  0  0  0  0  0  0
    5.0084    0.5954   21.1434 H   0  0  0  0  0  0  0  0  0  0  0  0
    4.8207    1.2836   19.0924 C   0  0  0  0  0  0  0  0  0  0  0  0
    3.9051    1.8444   19.2425 H   0  0  0  0  0  0  0  0  0  0  0  0
  1  2  1  0
  2  3  2  0
  3  4  1  0
  4  5  1  0
  4  6  2  0
  6  7  1  0
  7  8  3  0
  8  9  1  0
  9 10  1  0
 10 11  2  0
 11 12  1  0
 11 13  1  0
 13 14  1  0
 13 15  2  0
 15 16  1  0
 15 17  1  0
 17 18  1  0
 17 19  2  0
 19 20  1  0
  6 21  1  0
 21 22  1  0
 21 23  2  0
 23 24  1  0
 23  2  1  0
 19 10  1  0
M  END
>  <plip>  (1) 
-0.034482758620689655

>  <filename>  (1) 
[H][c]1[n][c]([H])[c]([C]#[C][O][c]2[c]([H])[c]([H])[c]([H])[c]([Cl])[c]2[H])[c]([H])[c]1[H]

$$$$
