
     RDKit          3D

 33 35  0  0  0  0  0  0  0  0999 V2000
    4.9716    1.7912   16.9988 H   0  0  0  0  0  0  0  0  0  0  0  0
    5.4171    1.2768   17.8448 C   0  0  0  0  0  0  0  0  0  0  0  0
    6.5833    0.6540   17.6118 N   0  0  0  0  0  0  0  0  0  0  0  0
    7.1822    0.0501   18.6430 C   0  0  0  0  0  0  0  0  0  0  0  0
    8.1351   -0.4318   18.4194 H   0  0  0  0  0  0  0  0  0  0  0  0
    6.6502    0.0325   19.9462 C   0  0  0  0  0  0  0  0  0  0  0  0
    7.3384   -0.6556   20.9871 N   0  0  0  0  0  0  0  0  0  0  0  0
    7.7006   -1.9776   20.8801 C   0  0  0  0  0  0  0  0  0  0  0  0
    7.3526   -2.5060   20.0131 H   0  0  0  0  0  0  0  0  0  0  0  0
    8.2932   -2.3814   22.0464 C   0  0  0  0  0  0  0  0  0  0  0  0
    8.7492   -3.3426   22.2576 H   0  0  0  0  0  0  0  0  0  0  0  0
    8.2244   -1.2820   22.9367 C   0  0  0  0  0  0  0  0  0  0  0  0
    8.5296   -1.2522   23.9736 H   0  0  0  0  0  0  0  0  0  0  0  0
    7.6434   -0.2246   22.2736 C   0  0  0  0  0  0  0  0  0  0  0  0
    7.3589    1.1227   22.7804 C   0  0  0  0  0  0  0  0  0  0  0  0
    7.6251    2.2781   22.0252 C   0  0  0  0  0  0  0  0  0  0  0  0
    7.9943    2.1443   21.0121 H   0  0  0  0  0  0  0  0  0  0  0  0
    7.3537    3.5391   22.5513 C   0  0  0  0  0  0  0  0  0  0  0  0
    7.5564    4.4162   21.9465 H   0  0  0  0  0  0  0  0  0  0  0  0
    6.8093    3.6697   23.8296 C   0  0  0  0  0  0  0  0  0  0  0  0
    6.5913    4.6550   24.2349 H   0  0  0  0  0  0  0  0  0  0  0  0
    6.5383    2.5240   24.5996 C   0  0  0  0  0  0  0  0  0  0  0  0
    5.9398    2.6851   25.9705 C   0  0  0  0  0  0  0  0  0  0  0  0
    5.3835    3.6935   26.3611 O   0  0  0  0  0  0  0  0  0  0  0  0
    6.0161    1.6014   26.8087 N   0  0  0  0  0  0  0  0  0  0  0  0
    6.8071    0.9877   26.7223 H   0  0  0  0  0  0  0  0  0  0  0  0
    5.7675    1.8941   27.7411 H   0  0  0  0  0  0  0  0  0  0  0  0
    6.8112    1.2584   24.0603 C   0  0  0  0  0  0  0  0  0  0  0  0
    6.5441    0.3494   24.6015 H   0  0  0  0  0  0  0  0  0  0  0  0
    5.4157    0.6610   20.1702 C   0  0  0  0  0  0  0  0  0  0  0  0
    4.9784    0.6657   21.1703 H   0  0  0  0  0  0  0  0  0  0  0  0
    4.7935    1.2982   19.0969 C   0  0  0  0  0  0  0  0  0  0  0  0
    3.8563    1.8297   19.2274 H   0  0  0  0  0  0  0  0  0  0  0  0
  1  2  1  0
  2  3  2  0
  3  4  1  0
  4  5  1  0
  4  6  2  0
  6  7  1  0
  7  8  1  0
  8  9  1  0
  8 10  2  0
 10 11  1  0
 10 12  1  0
 12 13  1  0
 12 14  2  0
 14 15  1  0
 15 16  2  0
 16 17  1  0
 16 18  1  0
 18 19  1  0
 18 20  2  0
 20 21  1  0
 20 22  1  0
 22 23  1  0
 23 24  2  0
 23 25  1  0
 25 26  1  0
 25 27  1  0
 22 28  2  0
 28 29  1  0
  6 30  1  0
 30 31  1  0
 30 32  2  0
 32 33  1  0
 32  2  1  0
 14  7  1  0
 28 15  1  0
M  END
>  <plip>  (1) 
-0.03571428571428571

>  <filename>  (1) 
[H][c]1[n][c]([H])[c](-[n]2[c]([H])[c]([H])[c]([H])[c]2-[c]2[c]([H])[c]([H])[c]([H])[c]([C](=[O])[N]([H])[H])[c]2[H])[c]([H])[c]1[H]

$$$$
