
     RDKit          3D

 22 23  0  0  0  0  0  0  0  0999 V2000
    4.9273    1.8003   16.9749 H   0  0  0  0  0  0  0  0  0  0  0  0
    5.3940    1.3012   17.8227 C   0  0  0  0  0  0  0  0  0  0  0  0
    6.5548    0.6800   17.5672 N   0  0  0  0  0  0  0  0  0  0  0  0
    7.1514    0.0688   18.5978 C   0  0  0  0  0  0  0  0  0  0  0  0
    8.1005   -0.4104   18.3647 H   0  0  0  0  0  0  0  0  0  0  0  0
    6.6382    0.0132   19.9063 C   0  0  0  0  0  0  0  0  0  0  0  0
    7.4073   -0.6538   21.0291 C   0  0  0  0  0  0  0  0  0  0  0  0
    7.9454   -1.5376   20.6609 H   0  0  0  0  0  0  0  0  0  0  0  0
    6.7426   -1.0025   21.8264 H   0  0  0  0  0  0  0  0  0  0  0  0
    8.4076    0.2279   21.6167 N   0  0  0  0  0  0  0  0  0  0  0  0
    9.6827    0.4112   21.1826 C   0  0  0  0  0  0  0  0  0  0  0  0
   10.1427   -0.1934   20.4178 H   0  0  0  0  0  0  0  0  0  0  0  0
   10.2637    1.3852   21.8122 N   0  0  0  0  0  0  0  0  0  0  0  0
    9.3533    1.8981   22.6884 N   0  0  0  0  0  0  0  0  0  0  0  0
    8.2501    1.2093   22.5486 C   0  0  0  0  0  0  0  0  0  0  0  0
    7.0589    1.3769   23.2339 N   0  0  0  0  0  0  0  0  0  0  0  0
    6.8775    2.2491   24.0709 C   0  0  0  0  0  0  0  0  0  0  0  0
    6.6220    3.3303   25.1664 S   0  0  0  0  0  0  0  0  0  0  0  0
    5.4149    0.6467   20.1397 C   0  0  0  0  0  0  0  0  0  0  0  0
    4.9790    0.6341   21.1430 H   0  0  0  0  0  0  0  0  0  0  0  0
    4.7921    1.3150   19.0838 C   0  0  0  0  0  0  0  0  0  0  0  0
    3.8655    1.8508   19.2332 H   0  0  0  0  0  0  0  0  0  0  0  0
  1  2  1  0
  2  3  2  0
  3  4  1  0
  4  5  1  0
  4  6  2  0
  6  7  1  0
  7  8  1  0
  7  9  1  0
  7 10  1  0
 10 11  1  0
 11 12  1  0
 11 13  2  0
 13 14  1  0
 14 15  2  0
 15 16  1  0
 16 17  2  0
 17 18  2  0
  6 19  1  0
 19 20  1  0
 19 21  2  0
 21 22  1  0
 21  2  1  0
 15 10  1  0
M  END
>  <plip>  (1) 
-0.03571428571428571

>  <filename>  (1) 
[H][c]1[n][c]([H])[c]([C]([H])([H])[n]2[c]([H])[n][n][c]2[N]=[C]=[S])[c]([H])[c]1[H]

$$$$
