
     RDKit          3D

 31 32  0  0  0  0  0  0  0  0999 V2000
    9.9039    0.5292   24.7433 N   0  0  0  0  0  0  0  0  0  0  0  0
    9.3241    0.9069   23.6072 C   0  0  0  0  0  0  0  0  0  0  0  0
    8.9967   -0.0597   22.7238 N   0  0  0  0  0  4  0  0  0  0  0  0
    8.1262    0.3981   21.6732 O   0  0  0  0  0  0  0  0  0  0  0  0
    7.4284   -0.6655   21.0197 C   0  0  0  0  0  0  0  0  0  0  0  0
    6.6469   -0.0131   19.9162 C   0  0  0  0  0  0  0  0  0  0  0  0
    5.4326    0.6429   20.1533 C   0  0  0  0  0  0  0  0  0  0  0  0
    4.8170    1.3073   19.0920 C   0  0  0  0  0  0  0  0  0  0  0  0
    5.4325    1.3023   17.8376 C   0  0  0  0  0  0  0  0  0  0  0  0
    6.5920    0.6735   17.5930 N   0  0  0  0  0  0  0  0  0  0  0  0
    7.1719    0.0442   18.6204 C   0  0  0  0  0  0  0  0  0  0  0  0
    8.1220   -0.4445   18.4007 H   0  0  0  0  0  0  0  0  0  0  0  0
    4.9779    1.8233   16.9946 H   0  0  0  0  0  0  0  0  0  0  0  0
    3.8863    1.8422   19.2254 H   0  0  0  0  0  0  0  0  0  0  0  0
    4.9943    0.6499   21.1541 H   0  0  0  0  0  0  0  0  0  0  0  0
    6.7576   -1.1717   21.7331 H   0  0  0  0  0  0  0  0  0  0  0  0
    8.1453   -1.3980   20.6212 H   0  0  0  0  0  0  0  0  0  0  0  0
    8.6005   -0.8818   23.2029 H   0  0  0  0  0  0  0  0  0  0  0  0
    9.1445    2.3624   23.3562 C   0  0  0  0  0  0  0  0  0  0  0  0
    7.7469    2.8044   23.5328 N   0  0  0  0  0  0  0  0  0  0  0  0
    6.9025    3.0440   22.4727 C   0  0  0  0  0  0  0  0  0  0  0  0
    5.7255    3.4837   23.0062 C   0  0  0  0  0  0  0  0  0  0  0  0
    5.8161    3.5225   24.3786 N   0  0  0  0  0  0  0  0  0  0  0  0
    7.0311    3.1185   24.6605 C   0  0  0  0  0  0  0  0  0  0  0  0
    7.4415    3.0555   25.6636 H   0  0  0  0  0  0  0  0  0  0  0  0
    4.8145    3.7734   22.4911 H   0  0  0  0  0  0  0  0  0  0  0  0
    7.2258    2.8880   21.4510 H   0  0  0  0  0  0  0  0  0  0  0  0
    9.8223    2.9552   23.9827 H   0  0  0  0  0  0  0  0  0  0  0  0
    9.4053    2.5394   22.3145 H   0  0  0  0  0  0  0  0  0  0  0  0
   10.1259    1.2554   25.4168 H   0  0  0  0  0  0  0  0  0  0  0  0
    9.8386   -0.4064   25.1357 H   0  0  0  0  0  0  0  0  0  0  0  0
  1  2  1  0
  2  3  2  3
  3  4  1  0
  4  5  1  0
  5  6  1  0
  6  7  2  0
  7  8  1  0
  8  9  2  0
  9 10  1  0
 10 11  2  0
 11 12  1  0
  9 13  1  0
  8 14  1  0
  7 15  1  0
  5 16  1  0
  5 17  1  0
  3 18  1  0
  2 19  1  0
 19 20  1  0
 20 21  1  0
 21 22  2  0
 22 23  1  0
 23 24  2  0
 24 25  1  0
 22 26  1  0
 21 27  1  0
 19 28  1  0
 19 29  1  0
  1 30  1  0
  1 31  1  0
 11  6  1  0
 24 20  1  0
M  CHG  1   3   1
M  END
>  <plip>  (1) 
-0.07142857142857142

>  <filename>  (1) 
[H][c]1[n][c]([H])[c]([C]([H])([H])[O][N+]([H])=[C]([N]([H])[H])[C]([H])([H])[n]2[c]([H])[n][c]([H])[c]2[H])[c]([H])[c]1[H]

$$$$
