
     RDKit          3D

 33 35  0  0  0  0  0  0  0  0999 V2000
    5.3942    1.6564   16.8329 H   0  0  0  0  0  0  0  0  0  0  0  0
    5.7697    1.0855   17.6808 C   0  0  0  0  0  0  0  0  0  0  0  0
    6.9174    0.4256   17.4797 N   0  0  0  0  0  0  0  0  0  0  0  0
    7.4188   -0.2690   18.5122 C   0  0  0  0  0  0  0  0  0  0  0  0
    8.3493   -0.8061   18.3216 H   0  0  0  0  0  0  0  0  0  0  0  0
    6.8138   -0.3515   19.7802 C   0  0  0  0  0  0  0  0  0  0  0  0
    7.4537   -1.0763   20.8856 C   0  0  0  0  0  0  0  0  0  0  0  0
    8.5965   -0.6635   21.5008 C   0  0  0  0  0  0  0  0  0  0  0  0
    9.3768    0.6161   21.3314 C   0  0  0  0  0  0  0  0  0  0  0  0
    9.2923    0.9848   20.2997 H   0  0  0  0  0  0  0  0  0  0  0  0
   10.4399    0.3676   21.5001 H   0  0  0  0  0  0  0  0  0  0  0  0
    8.9663    1.7724   22.2592 C   0  0  0  0  0  0  0  0  0  0  0  0
    9.2315    1.8039   23.6642 C   0  0  0  0  0  0  0  0  0  0  0  0
    9.7544    1.0347   24.2479 H   0  0  0  0  0  0  0  0  0  0  0  0
    8.7608    3.0448   24.2074 C   0  0  0  0  0  0  0  0  0  0  0  0
    9.3847    3.8880   24.4769 H   0  0  0  0  0  0  0  0  0  0  0  0
    8.0794    3.8655   23.1029 C   0  0  0  0  0  0  0  0  0  0  0  0
    7.4811    4.8956   23.0816 H   0  0  0  0  0  0  0  0  0  0  0  0
    7.9457    3.7950   23.0110 C   0  0  0  0  0  0  0  0  0  0  0  0
    5.9575    2.5647   23.1399 Cl  0  0  0  0  0  0  0  0  0  0  0  0
    8.3043    2.9666   21.7690 C   0  0  0  0  0  0  0  0  0  0  0  0
    7.3234    2.9452   21.2888 H   0  0  0  0  0  0  0  0  0  0  0  0
    8.8455   -1.5223   22.6699 C   0  0  0  0  0  0  0  0  0  0  0  0
    9.6945   -1.4435   23.5393 O   0  0  0  0  0  0  0  0  0  0  0  0
    7.8860   -2.5011   22.6246 N   0  0  0  0  0  0  0  0  0  0  0  0
    7.7846   -3.0445   23.4638 H   0  0  0  0  0  0  0  0  0  0  0  0
    6.8835   -2.2738   21.6008 C   0  0  0  0  0  0  0  0  0  0  0  0
    6.7813   -3.1390   20.9276 H   0  0  0  0  0  0  0  0  0  0  0  0
    5.8800   -2.0652   22.0141 H   0  0  0  0  0  0  0  0  0  0  0  0
    5.6018    0.3372   19.9604 C   0  0  0  0  0  0  0  0  0  0  0  0
    5.1247    0.3382   20.9457 H   0  0  0  0  0  0  0  0  0  0  0  0
    5.0747    1.0675   18.8953 C   0  0  0  0  0  0  0  0  0  0  0  0
    4.1549    1.6313   18.9953 H   0  0  0  0  0  0  0  0  0  0  0  0
  1  2  1  0
  2  3  2  0
  3  4  1  0
  4  5  1  0
  4  6  2  0
  6  7  1  0
  7  8  2  0
  8  9  1  0
  9 10  1  0
  9 11  1  0
  9 12  1  0
 12 13  2  0
 13 14  1  0
 13 15  1  0
 15 16  1  0
 15 17  2  0
 17 18  1  0
 17 19  1  0
 19 20  1  0
 19 21  2  0
 21 22  1  0
  8 23  1  0
 23 24  2  0
 23 25  1  0
 25 26  1  0
 25 27  1  0
 27 28  1  0
 27 29  1  0
  6 30  1  0
 30 31  1  0
 30 32  2  0
 32 33  1  0
 32  2  1  0
 27  7  1  0
 21 12  1  0
M  END
>  <plip>  (1) 
-0.0

>  <filename>  (1) 
[H][c]1[n][c]([H])[c]([C]2=[C]([C]([H])([H])[c]3[c]([H])[c]([H])[c]([H])[c]([Cl])[c]3[H])[C](=[O])[N]([H])[C]2([H])[H])[c]([H])[c]1[H]

$$$$
