
     RDKit          3D

 34 36  0  0  0  0  0  0  0  0999 V2000
    4.9161    1.7879   16.9856 H   0  0  0  0  0  0  0  0  0  0  0  0
    5.3949    1.2937   17.8275 C   0  0  0  0  0  0  0  0  0  0  0  0
    6.5552    0.6767   17.5621 N   0  0  0  0  0  0  0  0  0  0  0  0
    7.1694    0.0747   18.5901 C   0  0  0  0  0  0  0  0  0  0  0  0
    8.1159   -0.4135   18.3564 H   0  0  0  0  0  0  0  0  0  0  0  0
    6.6765    0.0379   19.9010 C   0  0  0  0  0  0  0  0  0  0  0  0
    7.3758   -0.7298   20.9922 C   0  0  0  0  0  0  0  0  0  0  0  0
    8.4431   -0.8389   20.7478 H   0  0  0  0  0  0  0  0  0  0  0  0
    7.3266   -0.1485   21.9222 H   0  0  0  0  0  0  0  0  0  0  0  0
    6.7666   -2.0939   21.2227 C   0  0  0  0  0  0  0  0  0  0  0  0
    6.2055   -2.9574   20.2627 C   0  0  0  0  0  0  0  0  0  0  0  0
    6.1322   -2.8014   19.1950 H   0  0  0  0  0  0  0  0  0  0  0  0
    5.7239   -4.0655   20.8026 N   0  0  0  0  0  0  0  0  0  0  0  0
    5.9659   -3.9304   22.1091 N   0  0  0  0  0  0  0  0  0  0  0  0
    5.6800   -4.6582   22.7498 H   0  0  0  0  0  0  0  0  0  0  0  0
    6.5903   -2.7668   22.4284 C   0  0  0  0  0  0  0  0  0  0  0  0
    6.9848   -2.4063   23.8077 C   0  0  0  0  0  0  0  0  0  0  0  0
    6.1814   -2.8076   24.8188 N   0  0  0  0  0  0  0  0  0  0  0  0
    6.5361   -2.4412   26.0410 C   0  0  0  0  0  0  0  0  0  0  0  0
    5.7687   -2.7723   27.0986 O   0  0  0  0  0  0  0  0  0  0  0  0
    4.5575   -3.4965   26.9046 C   0  0  0  0  0  0  0  0  0  0  0  0
    3.8337   -2.9450   26.2960 H   0  0  0  0  0  0  0  0  0  0  0  0
    4.1495   -3.6360   27.9031 H   0  0  0  0  0  0  0  0  0  0  0  0
    4.7237   -4.4759   26.4442 H   0  0  0  0  0  0  0  0  0  0  0  0
    7.7112   -1.7227   26.3566 C   0  0  0  0  0  0  0  0  0  0  0  0
    7.9176   -1.4975   27.3937 H   0  0  0  0  0  0  0  0  0  0  0  0
    8.5583   -1.3585   25.3263 C   0  0  0  0  0  0  0  0  0  0  0  0
    9.4901   -0.8117   25.5038 H   0  0  0  0  0  0  0  0  0  0  0  0
    8.1782   -1.7134   24.0222 C   0  0  0  0  0  0  0  0  0  0  0  0
    8.8130   -1.4728   23.1836 H   0  0  0  0  0  0  0  0  0  0  0  0
    5.4485    0.6673   20.1498 C   0  0  0  0  0  0  0  0  0  0  0  0
    5.0148    0.6297   21.1533 H   0  0  0  0  0  0  0  0  0  0  0  0
    4.8024    1.3146   19.0952 C   0  0  0  0  0  0  0  0  0  0  0  0
    3.8703    1.8429   19.2492 H   0  0  0  0  0  0  0  0  0  0  0  0
  1  2  1  0
  2  3  2  0
  3  4  1  0
  4  5  1  0
  4  6  2  0
  6  7  1  0
  7  8  1  0
  7  9  1  0
  7 10  1  0
 10 11  1  0
 11 12  1  0
 11 13  2  0
 13 14  1  0
 14 15  1  0
 14 16  1  0
 16 17  1  0
 17 18  2  0
 18 19  1  0
 19 20  1  0
 20 21  1  0
 21 22  1  0
 21 23  1  0
 21 24  1  0
 19 25  2  0
 25 26  1  0
 25 27  1  0
 27 28  1  0
 27 29  2  0
 29 30  1  0
  6 31  1  0
 31 32  1  0
 31 33  2  0
 33 34  1  0
 33  2  1  0
 16 10  2  0
 29 17  1  0
M  END
>  <plip>  (1) 
-0.07142857142857142

>  <filename>  (1) 
[H][c]1[n][c]([H])[c]([C]([H])([H])[c]2[c]([H])[n][n]([H])[c]2-[c]2[n][c]([O][C]([H])([H])[H])[c]([H])[c]([H])[c]2[H])[c]([H])[c]1[H]

$$$$
