
     RDKit          3D

 31 32  0  0  0  0  0  0  0  0999 V2000
    4.9604    1.5787   17.0341 H   0  0  0  0  0  0  0  0  0  0  0  0
    5.4846    1.1877   17.9009 C   0  0  0  0  0  0  0  0  0  0  0  0
    6.6437    0.5593   17.6504 N   0  0  0  0  0  0  0  0  0  0  0  0
    7.2946    0.0305   18.6992 C   0  0  0  0  0  0  0  0  0  0  0  0
    8.2260   -0.4855   18.4713 H   0  0  0  0  0  0  0  0  0  0  0  0
    6.8394    0.1010   20.0438 C   0  0  0  0  0  0  0  0  0  0  0  0
    7.5465   -0.5188   21.1353 N   0  0  0  0  0  0  0  0  0  0  0  0
    7.8614   -1.9456   21.0315 C   0  0  0  0  0  0  0  0  0  0  0  0
    8.8158   -2.0858   20.5082 H   0  0  0  0  0  0  0  0  0  0  0  0
    7.0826   -2.4663   20.4629 H   0  0  0  0  0  0  0  0  0  0  0  0
    7.9321   -2.4244   22.0115 H   0  0  0  0  0  0  0  0  0  0  0  0
    7.4177    0.1207   22.7016 S   0  0  0  0  0  0  0  0  0  0  0  0
    7.1677    1.5459   22.6224 O   0  0  0  0  0  0  0  0  0  0  0  0
    6.5951   -0.7508   23.5202 O   0  0  0  0  0  0  0  0  0  0  0  0
    9.0241   -0.0904   23.2143 C   0  0  0  0  0  0  0  0  0  0  0  0
   10.1391    0.3857   22.5065 C   0  0  0  0  0  0  0  0  0  0  0  0
   10.1487    1.1113   21.2095 C   0  0  0  0  0  0  0  0  0  0  0  0
   11.1648    1.4371   20.9803 H   0  0  0  0  0  0  0  0  0  0  0  0
    9.4793    1.9680   21.2894 H   0  0  0  0  0  0  0  0  0  0  0  0
    9.7505    0.4681   20.4188 H   0  0  0  0  0  0  0  0  0  0  0  0
   11.2233    0.0968   23.1737 N   0  0  0  0  0  0  0  0  0  0  0  0
   10.8084   -0.5312   24.3393 O   0  0  0  0  0  0  0  0  0  0  0  0
    9.4676   -0.6136   24.3685 C   0  0  0  0  0  0  0  0  0  0  0  0
    8.7576   -1.2284   25.5180 C   0  0  0  0  0  0  0  0  0  0  0  0
    9.4582   -1.4950   26.3120 H   0  0  0  0  0  0  0  0  0  0  0  0
    8.2204   -2.1085   25.1496 H   0  0  0  0  0  0  0  0  0  0  0  0
    7.9957   -0.5390   25.8982 H   0  0  0  0  0  0  0  0  0  0  0  0
    5.6370    0.7827   20.2753 C   0  0  0  0  0  0  0  0  0  0  0  0
    5.2701    0.8912   21.2932 H   0  0  0  0  0  0  0  0  0  0  0  0
    4.9457    1.3215   19.1842 C   0  0  0  0  0  0  0  0  0  0  0  0
    4.0017    1.8380   19.3300 H   0  0  0  0  0  0  0  0  0  0  0  0
  1  2  1  0
  2  3  2  0
  3  4  1  0
  4  5  1  0
  4  6  2  0
  6  7  1  0
  7  8  1  0
  8  9  1  0
  8 10  1  0
  8 11  1  0
  7 12  1  0
 12 13  2  0
 12 14  2  0
 12 15  1  0
 15 16  1  0
 16 17  1  0
 17 18  1  0
 17 19  1  0
 17 20  1  0
 16 21  2  0
 21 22  1  0
 22 23  1  0
 23 24  1  0
 24 25  1  0
 24 26  1  0
 24 27  1  0
  6 28  1  0
 28 29  1  0
 28 30  2  0
 30 31  1  0
 30  2  1  0
 23 15  2  0
M  END
>  <plip>  (1) 
-0.10714285714285714

>  <filename>  (1) 
[H][c]1[n][c]([H])[c]([N]([C]([H])([H])[H])[S](=[O])(=[O])[c]2[c]([C]([H])([H])[H])[n][o][c]2[C]([H])([H])[H])[c]([H])[c]1[H]

$$$$
