
     RDKit          3D

 38 40  0  0  0  0  0  0  0  0999 V2000
    9.9717    1.1341   21.6011 C   0  0  0  0  0  0  0  0  0  0  0  0
    8.5802    1.3424   21.6293 O   0  0  0  0  0  0  0  0  0  0  0  0
    7.8144    0.2649   22.1328 C   0  0  0  0  0  0  0  0  0  0  0  0
    7.3873   -0.7332   21.0142 C   0  0  1  0  0  0  0  0  0  0  0  0
    6.6150   -1.8506   21.5495 N   0  0  0  0  0  0  0  0  0  0  0  0
    7.1919   -2.8650   22.2469 C   0  0  0  0  0  0  0  0  0  0  0  0
    8.4036   -2.9363   22.4184 O   0  0  0  0  0  0  0  0  0  0  0  0
    6.3105   -3.9161   22.8355 C   0  0  0  0  0  0  0  0  0  0  0  0
    6.6868   -4.9318   23.6568 C   0  0  0  0  0  0  0  0  0  0  0  0
    5.4876   -5.6190   24.0320 C   0  0  0  0  0  0  0  0  0  0  0  0
    4.4532   -4.9688   23.3375 C   0  0  0  0  0  0  0  0  0  0  0  0
    4.9419   -3.9260   22.6159 O   0  0  0  0  0  0  0  0  0  0  0  0
    3.1220   -5.4111   23.4459 C   0  0  0  0  0  0  0  0  0  0  0  0
    2.1099   -4.7921   22.8397 F   0  0  0  0  0  0  0  0  0  0  0  0
    2.8772   -6.5597   24.1988 C   0  0  0  0  0  0  0  0  0  0  0  0
    1.2631   -7.1801   24.2848 Cl  0  0  0  0  0  0  0  0  0  0  0  0
    3.9154   -7.2309   24.8806 C   0  0  0  0  0  0  0  0  0  0  0  0
    5.2031   -6.7203   24.8628 C   0  0  0  0  0  0  0  0  0  0  0  0
    5.9698   -7.1526   25.4967 H   0  0  0  0  0  0  0  0  0  0  0  0
    3.6637   -8.1361   25.4261 H   0  0  0  0  0  0  0  0  0  0  0  0
    7.7004   -5.2123   23.9094 H   0  0  0  0  0  0  0  0  0  0  0  0
    5.6113   -1.8518   21.4610 H   0  0  0  0  0  0  0  0  0  0  0  0
    6.6151   -0.0478   19.9053 C   0  0  0  0  0  0  0  0  0  0  0  0
    5.4097    0.6273   20.1420 C   0  0  0  0  0  0  0  0  0  0  0  0
    4.7908    1.3001   19.0867 C   0  0  0  0  0  0  0  0  0  0  0  0
    5.4011    1.2826   17.8280 C   0  0  0  0  0  0  0  0  0  0  0  0
    6.5573    0.6526   17.5780 N   0  0  0  0  0  0  0  0  0  0  0  0
    7.1408    0.0203   18.6057 C   0  0  0  0  0  0  0  0  0  0  0  0
    8.0965   -0.4548   18.3791 H   0  0  0  0  0  0  0  0  0  0  0  0
    4.9455    1.8060   16.9889 H   0  0  0  0  0  0  0  0  0  0  0  0
    3.8683    1.8500   19.2332 H   0  0  0  0  0  0  0  0  0  0  0  0
    4.9706    0.6506   21.1421 H   0  0  0  0  0  0  0  0  0  0  0  0
    8.3247   -1.1315   20.6011 H   0  0  0  0  0  0  0  0  0  0  0  0
    6.9162    0.7005   22.5864 H   0  0  0  0  0  0  0  0  0  0  0  0
    8.3476   -0.2988   22.9129 H   0  0  0  0  0  0  0  0  0  0  0  0
   10.4087    2.0065   21.1078 H   0  0  0  0  0  0  0  0  0  0  0  0
   10.3916    1.0578   22.6170 H   0  0  0  0  0  0  0  0  0  0  0  0
   10.2545    0.2308   21.0369 H   0  0  0  0  0  0  0  0  0  0  0  0
  1  2  1  0
  2  3  1  0
  3  4  1  0
  4  5  1  0
  5  6  1  0
  6  7  2  0
  6  8  1  0
  8  9  2  0
  9 10  1  0
 10 11  2  0
 11 12  1  0
 11 13  1  0
 13 14  1  0
 13 15  2  0
 15 16  1  0
 15 17  1  0
 17 18  2  0
 18 19  1  0
 17 20  1  0
  9 21  1  0
  5 22  1  0
  4 23  1  0
 23 24  2  0
 24 25  1  0
 25 26  2  0
 26 27  1  0
 27 28  2  0
 28 29  1  0
 26 30  1  0
 25 31  1  0
 24 32  1  0
  4 33  1  6
  3 34  1  0
  3 35  1  0
  1 36  1  0
  1 37  1  0
  1 38  1  0
 12  8  1  0
 28 23  1  0
 18 10  1  0
M  END
>  <plip>  (1) 
-0.13793103448275862

>  <filename>  (1) 
[H][c]1[n][c]([H])[c]([C@]([H])([N]([H])[C](=[O])[c]2[o][c]3[c]([F])[c]([Cl])[c]([H])[c]([H])[c]3[c]2[H])[C]([H])([H])[O][C]([H])([H])[H])[c]([H])[c]1[H]

$$$$
