
     RDKit          3D

 29 31  0  0  0  0  0  0  0  0999 V2000
    4.9108    1.8130   16.9665 H   0  0  0  0  0  0  0  0  0  0  0  0
    5.3808    1.3090   17.8102 C   0  0  0  0  0  0  0  0  0  0  0  0
    6.5415    0.6840   17.5480 N   0  0  0  0  0  0  0  0  0  0  0  0
    7.1546    0.0651   18.5637 C   0  0  0  0  0  0  0  0  0  0  0  0
    8.1107   -0.3978   18.3196 H   0  0  0  0  0  0  0  0  0  0  0  0
    6.6590    0.0277   19.8875 C   0  0  0  0  0  0  0  0  0  0  0  0
    7.3756   -0.6358   20.9807 C   0  0  0  0  0  0  0  0  0  0  0  0
    7.5189   -0.3467   22.3328 C   0  0  0  0  0  0  0  0  0  0  0  0
    7.1017    0.8088   22.9360 N   0  0  0  0  0  0  0  0  0  0  0  0
    7.0107    1.5793   22.3001 H   0  0  0  0  0  0  0  0  0  0  0  0
    6.9742    1.0597   24.2800 C   0  0  0  0  0  0  0  0  0  0  0  0
    7.1540    2.3522   24.7686 C   0  0  0  0  0  0  0  0  0  0  0  0
    7.4117    3.1786   24.1149 H   0  0  0  0  0  0  0  0  0  0  0  0
    7.0151    2.5435   26.1377 C   0  0  0  0  0  0  0  0  0  0  0  0
    7.1674    3.5284   26.5815 H   0  0  0  0  0  0  0  0  0  0  0  0
    6.6928    1.5688   26.9996 N   0  0  0  0  0  0  0  0  0  0  0  0
    6.4962    0.3404   26.4976 C   0  0  0  0  0  0  0  0  0  0  0  0
    6.2378   -0.4397   27.2168 H   0  0  0  0  0  0  0  0  0  0  0  0
    6.6170    0.0317   25.1526 C   0  0  0  0  0  0  0  0  0  0  0  0
    6.4586   -0.9655   24.7623 H   0  0  0  0  0  0  0  0  0  0  0  0
    8.2144   -1.3211   22.9694 N   0  0  0  0  0  0  0  0  0  0  0  0
    8.5171   -2.1904   22.0380 C   0  0  0  0  0  0  0  0  0  0  0  0
    9.0811   -3.1042   22.1845 H   0  0  0  0  0  0  0  0  0  0  0  0
    8.0487   -1.8288   20.8211 N   0  0  0  0  0  0  0  0  0  0  0  0
    8.0656   -2.3841   19.9826 H   0  0  0  0  0  0  0  0  0  0  0  0
    5.4338    0.6715   20.1290 C   0  0  0  0  0  0  0  0  0  0  0  0
    5.0108    0.6332   21.1327 H   0  0  0  0  0  0  0  0  0  0  0  0
    4.7888    1.3249   19.0781 C   0  0  0  0  0  0  0  0  0  0  0  0
    3.8558    1.8564   19.2280 H   0  0  0  0  0  0  0  0  0  0  0  0
  1  2  1  0
  2  3  2  0
  3  4  1  0
  4  5  1  0
  4  6  2  0
  6  7  1  0
  7  8  2  0
  8  9  1  0
  9 10  1  0
  9 11  1  0
 11 12  2  0
 12 13  1  0
 12 14  1  0
 14 15  1  0
 14 16  2  0
 16 17  1  0
 17 18  1  0
 17 19  2  0
 19 20  1  0
  8 21  1  0
 21 22  2  0
 22 23  1  0
 22 24  1  0
 24 25  1  0
  6 26  1  0
 26 27  1  0
 26 28  2  0
 28 29  1  0
 28  2  1  0
 24  7  1  0
 19 11  1  0
M  END
>  <plip>  (1) 
-0.03333333333333333

>  <filename>  (1) 
[H][c]1[n][c]([H])[c](-[c]2[c]([N]([H])[c]3[c]([H])[c]([H])[n][c]([H])[c]3[H])[n][c]([H])[n]2[H])[c]([H])[c]1[H]

$$$$
