
     RDKit          3D

 36 37  0  0  0  0  0  0  0  0999 V2000
    9.7784    1.8851   23.4926 H   0  0  0  0  0  0  0  0  0  0  0  0
    9.1725    1.1965   23.8128 O   0  0  0  0  0  0  0  0  0  0  0  0
    9.8520    0.7915   24.9001 C   0  0  0  0  0  0  0  0  0  0  0  0
   10.9049    1.3198   25.1828 O   0  0  0  0  0  0  0  0  0  0  0  0
    9.2285   -0.3002   25.6665 C   0  0  0  0  0  0  0  0  0  0  0  0
    8.0902   -1.0848   25.4644 C   0  0  0  0  0  0  0  0  0  0  0  0
    7.1276   -1.0347   24.3014 C   0  0  0  0  0  0  0  0  0  0  0  0
    6.1798   -1.5169   24.5920 H   0  0  0  0  0  0  0  0  0  0  0  0
    6.8908    0.0139   24.0966 H   0  0  0  0  0  0  0  0  0  0  0  0
    7.7085   -1.7122   23.0303 C   0  0  2  0  0  0  0  0  0  0  0  0
    8.6673   -1.2339   22.8134 H   0  0  0  0  0  0  0  0  0  0  0  0
    6.8415   -1.4568   21.8016 C   0  0  0  0  0  0  0  0  0  0  0  0
    5.8337   -2.0555   21.5198 O   0  0  0  0  0  0  0  0  0  0  0  0
    7.3886   -0.4740   21.0155 O   0  0  0  0  0  0  0  0  0  0  0  0
    6.6855    0.0569   19.9342 C   0  0  0  0  0  0  0  0  0  0  0  0
    7.2250    0.0573   18.6351 C   0  0  0  0  0  0  0  0  0  0  0  0
    8.1727   -0.4381   18.4269 H   0  0  0  0  0  0  0  0  0  0  0  0
    6.6070    0.6518   17.6011 N   0  0  0  0  0  0  0  0  0  0  0  0
    5.4403    1.2786   17.8320 C   0  0  0  0  0  0  0  0  0  0  0  0
    4.9766    1.7699   16.9776 H   0  0  0  0  0  0  0  0  0  0  0  0
    4.8303    1.3053   19.0902 C   0  0  0  0  0  0  0  0  0  0  0  0
    3.8896    1.8245   19.2207 H   0  0  0  0  0  0  0  0  0  0  0  0
    5.4556    0.6661   20.1621 C   0  0  0  0  0  0  0  0  0  0  0  0
    5.0315    0.6288   21.1621 H   0  0  0  0  0  0  0  0  0  0  0  0
    7.8892   -3.2254   23.2406 C   0  0  0  0  0  0  0  0  0  0  0  0
    8.5550   -3.4227   24.0887 H   0  0  0  0  0  0  0  0  0  0  0  0
    8.3123   -3.7028   22.3512 H   0  0  0  0  0  0  0  0  0  0  0  0
    6.9124   -3.6874   23.4368 H   0  0  0  0  0  0  0  0  0  0  0  0
    8.1023   -1.9827   26.5634 C   0  0  0  0  0  0  0  0  0  0  0  0
    7.1294   -3.0672   26.8892 C   0  0  0  0  0  0  0  0  0  0  0  0
    6.1508   -2.6428   27.1372 H   0  0  0  0  0  0  0  0  0  0  0  0
    7.4900   -3.6612   27.7326 H   0  0  0  0  0  0  0  0  0  0  0  0
    6.9900   -3.7246   26.0254 H   0  0  0  0  0  0  0  0  0  0  0  0
    9.1418   -1.7614   27.3576 N   0  0  0  0  0  0  0  0  0  0  0  0
    9.8107   -0.7475   26.8143 N   0  0  0  0  0  0  0  0  0  0  0  0
   10.6471   -0.4084   27.2768 H   0  0  0  0  0  0  0  0  0  0  0  0
  1  2  1  0
  2  3  1  0
  3  4  2  0
  3  5  1  0
  5  6  2  0
  6  7  1  0
  7  8  1  0
  7  9  1  0
  7 10  1  0
 10 11  1  6
 10 12  1  0
 12 13  2  0
 12 14  1  0
 14 15  1  0
 15 16  2  0
 16 17  1  0
 16 18  1  0
 18 19  2  0
 19 20  1  0
 19 21  1  0
 21 22  1  0
 21 23  2  0
 23 24  1  0
 10 25  1  0
 25 26  1  0
 25 27  1  0
 25 28  1  0
  6 29  1  0
 29 30  1  0
 30 31  1  0
 30 32  1  0
 30 33  1  0
 29 34  2  0
 34 35  1  0
 35 36  1  0
 35  5  1  0
 23 15  1  0
M  END
>  <plip>  (1) 
-0.10714285714285714

>  <filename>  (1) 
[H][O][C](=[O])[c]1[c]([C]([H])([H])[C@]([H])([C](=[O])[O][c]2[c]([H])[n][c]([H])[c]([H])[c]2[H])[C]([H])([H])[H])[c]([C]([H])([H])[H])[n][n]1[H]

$$$$
