
     RDKit          3D

 31 32  0  0  0  0  0  0  0  0999 V2000
    4.7967    1.7874   16.7793 H   0  0  0  0  0  0  0  0  0  0  0  0
    5.2928    1.2727   17.5985 C   0  0  0  0  0  0  0  0  0  0  0  0
    6.3752    0.5520   17.2688 N   0  0  0  0  0  0  0  0  0  0  0  0
    7.0387   -0.0544   18.2605 C   0  0  0  0  0  0  0  0  0  0  0  0
    7.9146   -0.6288   17.9580 H   0  0  0  0  0  0  0  0  0  0  0  0
    6.6893    0.0480   19.6283 C   0  0  0  0  0  0  0  0  0  0  0  0
    7.5330   -0.4869   20.7757 C   0  0  0  0  0  0  0  0  0  0  0  0
    6.9058   -0.9260   21.5567 H   0  0  0  0  0  0  0  0  0  0  0  0
    8.2943   -1.2168   20.4887 H   0  0  0  0  0  0  0  0  0  0  0  0
    8.4960    0.7535   21.6866 S   0  0  0  0  0  0  0  0  0  0  0  0
    7.6123    1.7655   22.2170 O   0  0  0  0  0  0  0  0  0  0  0  0
    9.6594    1.0954   20.9076 O   0  0  0  0  0  0  0  0  0  0  0  0
    9.0802   -0.1484   22.9067 O   0  0  0  0  0  0  0  0  0  0  0  0
    8.3049   -0.5694   23.9907 C   0  0  0  0  0  0  0  0  0  0  0  0
    6.9844   -0.1949   24.2463 C   0  0  0  0  0  0  0  0  0  0  0  0
    6.4532    0.4758   23.5862 H   0  0  0  0  0  0  0  0  0  0  0  0
    6.3696   -0.6853   25.4090 C   0  0  0  0  0  0  0  0  0  0  0  0
    5.3511   -0.3761   25.6280 H   0  0  0  0  0  0  0  0  0  0  0  0
    7.0527   -1.5495   26.2742 C   0  0  0  0  0  0  0  0  0  0  0  0
    6.5644   -1.9184   27.1730 H   0  0  0  0  0  0  0  0  0  0  0  0
    8.3651   -1.9544   25.9869 C   0  0  0  0  0  0  0  0  0  0  0  0
    9.1445   -2.8952   26.8706 C   0  0  0  0  0  0  0  0  0  0  0  0
    9.6529   -3.6603   26.2692 H   0  0  0  0  0  0  0  0  0  0  0  0
    9.8994   -2.3143   27.4131 H   0  0  0  0  0  0  0  0  0  0  0  0
    8.5178   -3.4139   27.6024 H   0  0  0  0  0  0  0  0  0  0  0  0
    8.9818   -1.4366   24.8360 C   0  0  0  0  0  0  0  0  0  0  0  0
    9.9952   -1.7121   24.5670 H   0  0  0  0  0  0  0  0  0  0  0  0
    5.5053    0.7379   19.9304 C   0  0  0  0  0  0  0  0  0  0  0  0
    5.1527    0.8009   20.9622 H   0  0  0  0  0  0  0  0  0  0  0  0
    4.8019    1.3663   18.9020 C   0  0  0  0  0  0  0  0  0  0  0  0
    3.9000    1.9349   19.0964 H   0  0  0  0  0  0  0  0  0  0  0  0
  1  2  1  0
  2  3  2  0
  3  4  1  0
  4  5  1  0
  4  6  2  0
  6  7  1  0
  7  8  1  0
  7  9  1  0
  7 10  1  0
 10 11  2  0
 10 12  2  0
 10 13  1  0
 13 14  1  0
 14 15  2  0
 15 16  1  0
 15 17  1  0
 17 18  1  0
 17 19  2  0
 19 20  1  0
 19 21  1  0
 21 22  1  0
 22 23  1  0
 22 24  1  0
 22 25  1  0
 21 26  2  0
 26 27  1  0
  6 28  1  0
 28 29  1  0
 28 30  2  0
 30 31  1  0
 30  2  1  0
 26 14  1  0
M  END
>  <plip>  (1) 
-0.10344827586206896

>  <filename>  (1) 
[H][c]1[n][c]([H])[c]([C]([H])([H])[S](=[O])(=[O])[O][c]2[c]([H])[c]([H])[c]([H])[c]([C]([H])([H])[H])[c]2[H])[c]([H])[c]1[H]

$$$$
