
     RDKit          3D

 23 24  0  0  0  0  0  0  0  0999 V2000
    5.0671    1.6984   17.0557 H   0  0  0  0  0  0  0  0  0  0  0  0
    5.5285    1.2135   17.9117 C   0  0  0  0  0  0  0  0  0  0  0  0
    6.6949    0.5842   17.6846 N   0  0  0  0  0  0  0  0  0  0  0  0
    7.2945   -0.0209   18.7138 C   0  0  0  0  0  0  0  0  0  0  0  0
    8.2306   -0.5388   18.5108 H   0  0  0  0  0  0  0  0  0  0  0  0
    6.7578   -0.0217   20.0070 C   0  0  0  0  0  0  0  0  0  0  0  0
    7.4164   -0.7302   21.0418 N   0  0  0  0  0  0  0  0  0  0  0  0
    6.8383   -0.9257   22.2101 N   0  0  0  0  0  0  0  0  0  0  0  0
    7.6090   -1.7456   22.8728 N   0  0  0  0  0  0  0  0  0  0  0  0
    8.6429   -1.9957   22.0528 C   0  0  0  0  0  0  0  0  0  0  0  0
    9.6412   -2.8871   22.2939 N   0  0  0  0  0  0  0  0  0  0  0  0
   10.4579   -2.6835   21.7567 H   0  0  0  0  0  0  0  0  0  0  0  0
   10.1273   -2.9817   23.8538 S   0  0  0  0  0  0  0  0  0  0  0  0
   11.4177   -3.5943   23.7446 O   0  0  0  0  0  0  0  0  0  0  0  0
    9.8697   -1.7904   24.6084 O   0  0  0  0  0  0  0  0  0  0  0  0
    8.9757   -4.1173   24.1187 N   0  0  0  0  0  0  0  0  0  0  0  0
    8.1402   -3.5568   23.9500 H   0  0  0  0  0  0  0  0  0  0  0  0
    9.1467   -4.5766   23.2319 H   0  0  0  0  0  0  0  0  0  0  0  0
    8.5705   -1.3974   20.8888 N   0  0  0  0  0  0  0  0  0  0  0  0
    5.5328    0.6195   20.2438 C   0  0  0  0  0  0  0  0  0  0  0  0
    5.0887    0.5999   21.2405 H   0  0  0  0  0  0  0  0  0  0  0  0
    4.9131    1.2490   19.1676 C   0  0  0  0  0  0  0  0  0  0  0  0
    3.9697    1.7653   19.2982 H   0  0  0  0  0  0  0  0  0  0  0  0
  1  2  1  0
  2  3  2  0
  3  4  1  0
  4  5  1  0
  4  6  2  0
  6  7  1  0
  7  8  1  0
  8  9  2  0
  9 10  1  0
 10 11  1  0
 11 12  1  0
 11 13  1  0
 13 14  2  0
 13 15  2  0
 13 16  1  0
 16 17  1  0
 16 18  1  0
 10 19  2  0
  6 20  1  0
 20 21  1  0
 20 22  2  0
 22 23  1  0
 22  2  1  0
 19  7  1  0
M  END
>  <plip>  (1) 
-0.06451612903225806

>  <filename>  (1) 
[H][c]1[n][c]([H])[c](-[n]2[n][n][c]([N]([H])[S](=[O])(=[O])[N]([H])[H])[n]2)[c]([H])[c]1[H]

$$$$
