
     RDKit          3D

 36 38  0  0  0  0  0  0  0  0999 V2000
    7.4522   -2.9326   22.2702 C   0  0  0  0  0  0  0  0  0  0  0  0
    6.7199   -2.0522   21.2591 C   0  0  0  0  0  0  0  0  0  0  0  0
    7.4033   -0.7048   21.0009 C   0  0  0  0  0  0  0  0  0  0  0  0
    7.4251    0.0461   22.2322 O   0  0  0  0  0  0  0  0  0  0  0  0
    8.1538    1.1851   22.2705 C   0  0  0  0  0  0  0  0  0  0  0  0
    8.8365    1.5526   21.3348 O   0  0  0  0  0  0  0  0  0  0  0  0
    8.0492    1.9343   23.5689 C   0  0  0  0  0  0  0  0  0  0  0  0
    8.7654    3.1006   23.7831 C   0  0  0  0  0  0  0  0  0  0  0  0
    8.6777    3.8127   25.0241 C   0  0  0  0  0  0  0  0  0  0  0  0
    7.8802    3.3605   26.0312 C   0  0  0  0  0  0  0  0  0  0  0  0
    7.1632    2.2047   25.8275 N   0  0  0  0  0  0  0  0  0  0  0  0
    6.2822    1.5535   26.7072 C   0  0  0  0  0  0  0  0  0  0  0  0
    5.9387    1.8428   27.8356 O   0  0  0  0  0  0  0  0  0  0  0  0
    5.8951    0.4924   25.9523 N   0  0  0  0  0  0  0  0  0  0  0  0
    6.4315    0.4151   24.7091 N   0  0  0  0  0  0  0  0  0  0  0  0
    7.2095    1.4703   24.6396 C   0  0  0  0  0  0  0  0  0  0  0  0
    5.2493   -0.1951   26.2983 H   0  0  0  0  0  0  0  0  0  0  0  0
    7.7458    3.8306   27.0017 H   0  0  0  0  0  0  0  0  0  0  0  0
    9.2422    4.7247   25.1740 H   0  0  0  0  0  0  0  0  0  0  0  0
    9.4097    3.4903   22.9992 H   0  0  0  0  0  0  0  0  0  0  0  0
    6.6749    0.0582   19.9167 C   0  0  0  0  0  0  0  0  0  0  0  0
    5.4406    0.6752   20.1562 C   0  0  0  0  0  0  0  0  0  0  0  0
    4.7997    1.3149   19.0962 C   0  0  0  0  0  0  0  0  0  0  0  0
    5.3965    1.2883   17.8296 C   0  0  0  0  0  0  0  0  0  0  0  0
    6.5573    0.6692   17.5743 N   0  0  0  0  0  0  0  0  0  0  0  0
    7.1737    0.0828   18.6115 C   0  0  0  0  0  0  0  0  0  0  0  0
    8.1191   -0.4079   18.3752 H   0  0  0  0  0  0  0  0  0  0  0  0
    4.9248    1.7858   16.9831 H   0  0  0  0  0  0  0  0  0  0  0  0
    3.8665    1.8429   19.2426 H   0  0  0  0  0  0  0  0  0  0  0  0
    5.0056    0.6470   21.1579 H   0  0  0  0  0  0  0  0  0  0  0  0
    8.4411   -0.8852   20.6893 H   0  0  0  0  0  0  0  0  0  0  0  0
    6.6531   -2.5698   20.2938 H   0  0  0  0  0  0  0  0  0  0  0  0
    5.6791   -1.8790   21.5661 H   0  0  0  0  0  0  0  0  0  0  0  0
    7.4968   -2.4383   23.2464 H   0  0  0  0  0  0  0  0  0  0  0  0
    8.4825   -3.1270   21.9452 H   0  0  0  0  0  0  0  0  0  0  0  0
    6.9504   -3.8992   22.3938 H   0  0  0  0  0  0  0  0  0  0  0  0
  1  2  1  0
  2  3  1  0
  3  4  1  0
  4  5  1  0
  5  6  2  0
  5  7  1  0
  7  8  2  0
  8  9  1  0
  9 10  2  0
 10 11  1  0
 11 12  1  0
 12 13  2  0
 12 14  1  0
 14 15  1  0
 15 16  2  0
 14 17  1  0
 10 18  1  0
  9 19  1  0
  8 20  1  0
  3 21  1  0
 21 22  2  0
 22 23  1  0
 23 24  2  0
 24 25  1  0
 25 26  2  0
 26 27  1  0
 24 28  1  0
 23 29  1  0
 22 30  1  0
  3 31  1  0
  2 32  1  0
  2 33  1  0
  1 34  1  0
  1 35  1  0
  1 36  1  0
 16  7  1  0
 26 21  1  0
 16 11  1  0
M  END
>  <plip>  (1) 
-0.14285714285714285

>  <filename>  (1) 
[H][c]1[n][c]([H])[c]([C]([H])([O][C](=[O])[c]2[c]([H])[c]([H])[c]([H])[n]3[c](=[O])[n]([H])[n][c]23)[C]([H])([H])[C]([H])([H])[H])[c]([H])[c]1[H]

$$$$
