
     RDKit          3D

 30 32  0  0  0  0  0  0  0  0999 V2000
    5.8645    1.7810   28.5833 H   0  0  0  0  0  0  0  0  0  0  0  0
    6.1401    2.5598   28.0869 O   0  0  0  0  0  0  0  0  0  0  0  0
    6.3308    2.1518   26.8016 C   0  0  0  0  0  0  0  0  0  0  0  0
    6.8199    3.0840   25.8750 C   0  0  0  0  0  0  0  0  0  0  0  0
    7.0153    4.1075   26.1887 H   0  0  0  0  0  0  0  0  0  0  0  0
    7.0366    2.6873   24.5550 C   0  0  0  0  0  0  0  0  0  0  0  0
    7.4358    3.3702   23.8100 H   0  0  0  0  0  0  0  0  0  0  0  0
    6.7578    1.3758   24.1648 C   0  0  0  0  0  0  0  0  0  0  0  0
    6.9479    1.1190   22.8128 O   0  0  0  0  0  0  0  0  0  0  0  0
    7.5495   -0.0013   22.3748 C   0  0  0  0  0  0  0  0  0  0  0  0
    8.6963   -0.9439   23.3007 S   0  0  0  0  0  0  0  0  0  0  0  0
    8.6176   -2.1879   22.0965 C   0  0  0  0  0  0  0  0  0  0  0  0
    9.1198   -3.1321   22.2538 H   0  0  0  0  0  0  0  0  0  0  0  0
    7.8606   -1.8174   21.0379 C   0  0  0  0  0  0  0  0  0  0  0  0
    7.5948   -2.4666   20.2228 H   0  0  0  0  0  0  0  0  0  0  0  0
    7.2997   -0.5119   21.1379 C   0  0  0  0  0  0  0  0  0  0  0  0
    6.5886    0.1738   20.0253 C   0  0  0  0  0  0  0  0  0  0  0  0
    7.1412    0.1590   18.7283 C   0  0  0  0  0  0  0  0  0  0  0  0
    8.1067   -0.3214   18.5822 H   0  0  0  0  0  0  0  0  0  0  0  0
    6.5784    0.7182   17.6504 N   0  0  0  0  0  0  0  0  0  0  0  0
    5.3919    1.3176   17.8325 C   0  0  0  0  0  0  0  0  0  0  0  0
    4.9256    1.7403   16.9455 H   0  0  0  0  0  0  0  0  0  0  0  0
    4.7522    1.4001   19.0732 C   0  0  0  0  0  0  0  0  0  0  0  0
    3.7930    1.8960   19.1520 H   0  0  0  0  0  0  0  0  0  0  0  0
    5.3752    0.8493   20.1955 C   0  0  0  0  0  0  0  0  0  0  0  0
    4.9472    0.9423   21.1896 H   0  0  0  0  0  0  0  0  0  0  0  0
    6.2292    0.4476   25.0663 C   0  0  0  0  0  0  0  0  0  0  0  0
    6.0014   -0.5725   24.7502 H   0  0  0  0  0  0  0  0  0  0  0  0
    6.0361    0.8410   26.4005 C   0  0  0  0  0  0  0  0  0  0  0  0
    5.6635    0.1268   27.1381 H   0  0  0  0  0  0  0  0  0  0  0  0
  1  2  1  0
  2  3  1  0
  3  4  2  0
  4  5  1  0
  4  6  1  0
  6  7  1  0
  6  8  2  0
  8  9  1  0
  9 10  1  0
 10 11  1  0
 11 12  1  0
 12 13  1  0
 12 14  2  0
 14 15  1  0
 14 16  1  0
 16 17  1  0
 17 18  2  0
 18 19  1  0
 18 20  1  0
 20 21  2  0
 21 22  1  0
 21 23  1  0
 23 24  1  0
 23 25  2  0
 25 26  1  0
  8 27  1  0
 27 28  1  0
 27 29  2  0
 29 30  1  0
 29  3  1  0
 16 10  2  0
 25 17  1  0
M  END
>  <plip>  (1) 
-0.07142857142857142

>  <filename>  (1) 
[H][O][c]1[c]([H])[c]([H])[c]([O][c]2[s][c]([H])[c]([H])[c]2-[c]2[c]([H])[n][c]([H])[c]([H])[c]2[H])[c]([H])[c]1[H]

$$$$
