
     RDKit          3D

 46 46  0  0  0  0  0  0  0  0999 V2000
    5.0383    1.7666   16.8814 H   0  0  0  0  0  0  0  0  0  0  0  0
    5.4838    1.2763   17.7436 C   0  0  0  0  0  0  0  0  0  0  0  0
    6.6466    0.6523   17.5343 N   0  0  0  0  0  0  0  0  0  0  0  0
    7.2152    0.0449   18.5832 C   0  0  0  0  0  0  0  0  0  0  0  0
    8.1516   -0.4672   18.3599 H   0  0  0  0  0  0  0  0  0  0  0  0
    6.6896    0.0215   19.8815 C   0  0  0  0  0  0  0  0  0  0  0  0
    7.4259   -0.6650   21.0412 C   0  0  0  0  0  0  0  0  0  0  0  0
    7.5531    0.1978   22.2229 N   0  0  0  0  0  0  0  0  0  0  0  0
    6.6457    0.2583   22.6745 H   0  0  0  0  0  0  0  0  0  0  0  0
    8.1030    1.5450   22.0480 C   0  0  0  0  0  0  0  0  0  0  0  0
    7.3525    2.2503   21.6459 H   0  0  0  0  0  0  0  0  0  0  0  0
    8.9210    1.5329   21.3154 H   0  0  0  0  0  0  0  0  0  0  0  0
    8.6405    2.0483   23.3851 C   0  0  0  0  0  0  0  0  0  0  0  0
    7.8224    1.9853   24.1114 H   0  0  0  0  0  0  0  0  0  0  0  0
    9.4205    1.3577   23.7390 H   0  0  0  0  0  0  0  0  0  0  0  0
    9.1608    3.4919   23.3568 C   0  0  0  0  0  0  0  0  0  0  0  0
    9.1676    3.9000   24.3774 H   0  0  0  0  0  0  0  0  0  0  0  0
    8.4493    4.1153   22.7895 H   0  0  0  0  0  0  0  0  0  0  0  0
   10.5659    3.6688   22.7628 C   0  0  0  0  0  0  0  0  0  0  0  0
   11.2944    3.1313   23.3854 H   0  0  0  0  0  0  0  0  0  0  0  0
   10.6293    3.1915   21.7749 H   0  0  0  0  0  0  0  0  0  0  0  0
   10.9747    5.1480   22.6295 C   0  0  0  0  0  0  0  0  0  0  0  0
   11.8122    5.2444   21.9230 H   0  0  0  0  0  0  0  0  0  0  0  0
   10.1365    5.6854   22.1632 H   0  0  0  0  0  0  0  0  0  0  0  0
   11.3139    5.8855   23.9341 C   0  0  0  0  0  0  0  0  0  0  0  0
   10.4506    5.8197   24.6086 H   0  0  0  0  0  0  0  0  0  0  0  0
   11.4272    6.9569   23.7221 H   0  0  0  0  0  0  0  0  0  0  0  0
   12.5403    5.3953   24.7140 C   0  0  0  0  0  0  0  0  0  0  0  0
   12.2892    4.4311   25.1688 H   0  0  0  0  0  0  0  0  0  0  0  0
   13.3930    5.2074   24.0409 H   0  0  0  0  0  0  0  0  0  0  0  0
   12.9500    6.3700   25.8250 C   0  0  0  0  0  0  0  0  0  0  0  0
   13.7034    5.9327   26.4764 H   0  0  0  0  0  0  0  0  0  0  0  0
   13.3686    7.3011   25.4219 H   0  0  0  0  0  0  0  0  0  0  0  0
   12.1015    6.6286   26.4739 H   0  0  0  0  0  0  0  0  0  0  0  0
    8.8620   -1.0897   20.7005 C   0  0  0  0  0  0  0  0  0  0  0  0
    8.8965   -1.7925   19.8688 H   0  0  0  0  0  0  0  0  0  0  0  0
    9.4864   -0.2283   20.4428 H   0  0  0  0  0  0  0  0  0  0  0  0
    9.3031   -1.5656   21.5798 H   0  0  0  0  0  0  0  0  0  0  0  0
    6.6353   -1.9069   21.4726 C   0  0  0  0  0  0  0  0  0  0  0  0
    6.6348   -2.6673   20.6821 H   0  0  0  0  0  0  0  0  0  0  0  0
    5.5921   -1.6617   21.6958 H   0  0  0  0  0  0  0  0  0  0  0  0
    7.0829   -2.3395   22.3739 H   0  0  0  0  0  0  0  0  0  0  0  0
    5.4409    0.6501   20.0642 C   0  0  0  0  0  0  0  0  0  0  0  0
    4.9401    0.6409   21.0376 H   0  0  0  0  0  0  0  0  0  0  0  0
    4.8366    1.2983   18.9873 C   0  0  0  0  0  0  0  0  0  0  0  0
    3.8914    1.8186   19.0949 H   0  0  0  0  0  0  0  0  0  0  0  0
  1  2  1  0
  2  3  2  0
  3  4  1  0
  4  5  1  0
  4  6  2  0
  6  7  1  0
  7  8  1  0
  8  9  1  0
  8 10  1  0
 10 11  1  0
 10 12  1  0
 10 13  1  0
 13 14  1  0
 13 15  1  0
 13 16  1  0
 16 17  1  0
 16 18  1  0
 16 19  1  0
 19 20  1  0
 19 21  1  0
 19 22  1  0
 22 23  1  0
 22 24  1  0
 22 25  1  0
 25 26  1  0
 25 27  1  0
 25 28  1  0
 28 29  1  0
 28 30  1  0
 28 31  1  0
 31 32  1  0
 31 33  1  0
 31 34  1  0
  7 35  1  0
 35 36  1  0
 35 37  1  0
 35 38  1  0
  7 39  1  0
 39 40  1  0
 39 41  1  0
 39 42  1  0
  6 43  1  0
 43 44  1  0
 43 45  2  0
 45 46  1  0
 45  2  1  0
M  END
>  <plip>  (1) 
-0.14285714285714285

>  <filename>  (1) 
[H][c]1[n][c]([H])[c]([C]([N]([H])[C]([H])([H])[C]([H])([H])[C]([H])([H])[C]([H])([H])[C]([H])([H])[C]([H])([H])[C]([H])([H])[C]([H])([H])[H])([C]([H])([H])[H])[C]([H])([H])[H])[c]([H])[c]1[H]

$$$$
