
     RDKit          3D

 28 30  0  0  0  0  0  0  0  0999 V2000
    4.9107    1.8079   16.9764 H   0  0  0  0  0  0  0  0  0  0  0  0
    5.3809    1.3092   17.8250 C   0  0  0  0  0  0  0  0  0  0  0  0
    6.5446    0.6897   17.5691 N   0  0  0  0  0  0  0  0  0  0  0  0
    7.1538    0.0720   18.5864 C   0  0  0  0  0  0  0  0  0  0  0  0
    8.1008   -0.4164   18.3625 H   0  0  0  0  0  0  0  0  0  0  0  0
    6.6534    0.0072   19.9107 C   0  0  0  0  0  0  0  0  0  0  0  0
    7.3573   -0.7132   20.9761 C   0  0  0  0  0  0  0  0  0  0  0  0
    7.1977   -0.8204   22.3449 C   0  0  0  0  0  0  0  0  0  0  0  0
    6.2634   -0.0498   23.5967 S   0  0  0  0  0  0  0  0  0  0  0  0
    7.2977    1.3920   23.8316 C   0  0  0  0  0  0  0  0  0  0  0  0
    8.3570    1.3330   24.7451 C   0  0  0  0  0  0  0  0  0  0  0  0
    8.5261    0.4119   25.2984 H   0  0  0  0  0  0  0  0  0  0  0  0
    9.2086    2.4313   24.8888 C   0  0  0  0  0  0  0  0  0  0  0  0
   10.0342    2.3706   25.5942 H   0  0  0  0  0  0  0  0  0  0  0  0
    9.0018    3.5848   24.1206 C   0  0  0  0  0  0  0  0  0  0  0  0
    9.6632    4.4399   24.2329 H   0  0  0  0  0  0  0  0  0  0  0  0
    7.9447    3.6389   23.2019 C   0  0  0  0  0  0  0  0  0  0  0  0
    7.7828    4.5282   22.5943 H   0  0  0  0  0  0  0  0  0  0  0  0
    7.0935    2.5375   23.0568 C   0  0  0  0  0  0  0  0  0  0  0  0
    6.2882    2.5485   22.3258 H   0  0  0  0  0  0  0  0  0  0  0  0
    8.3839   -1.7070   22.5177 C   0  0  0  0  0  0  0  0  0  0  0  0
    8.9530   -2.2247   23.4414 O   0  0  0  0  0  0  0  0  0  0  0  0
    8.5965   -1.5547   20.9824 C   0  0  0  0  0  0  0  0  0  0  0  0
    9.4126   -1.9156   20.1851 O   0  0  0  0  0  0  0  0  0  0  0  0
    5.4319    0.6636   20.1472 C   0  0  0  0  0  0  0  0  0  0  0  0
    4.9964    0.6439   21.1445 H   0  0  0  0  0  0  0  0  0  0  0  0
    4.7946    1.3231   19.0945 C   0  0  0  0  0  0  0  0  0  0  0  0
    3.8598    1.8528   19.2380 H   0  0  0  0  0  0  0  0  0  0  0  0
  1  2  1  0
  2  3  2  0
  3  4  1  0
  4  5  1  0
  4  6  2  0
  6  7  1  0
  7  8  2  0
  8  9  1  0
  9 10  1  0
 10 11  2  0
 11 12  1  0
 11 13  1  0
 13 14  1  0
 13 15  2  0
 15 16  1  0
 15 17  1  0
 17 18  1  0
 17 19  2  0
 19 20  1  0
  8 21  1  0
 21 22  2  0
 21 23  1  0
 23 24  2  0
  6 25  1  0
 25 26  1  0
 25 27  2  0
 27 28  1  0
 27  2  1  0
 23  7  1  0
 19 10  1  0
M  END
>  <plip>  (1) 
-0.07142857142857142

>  <filename>  (1) 
[H][c]1[n][c]([H])[c](-[c]2[c]([S][c]3[c]([H])[c]([H])[c]([H])[c]([H])[c]3[H])[c](=[O])[c]2=[O])[c]([H])[c]1[H]

$$$$
