
     RDKit          3D

 50 53  0  0  0  0  0  0  0  0999 V2000
    5.1856    1.6308   16.9353 H   0  0  0  0  0  0  0  0  0  0  0  0
    5.5679    1.1866   17.8502 C   0  0  0  0  0  0  0  0  0  0  0  0
    6.7023    0.4895   17.7338 N   0  0  0  0  0  0  0  0  0  0  0  0
    7.1885   -0.0890   18.8423 C   0  0  0  0  0  0  0  0  0  0  0  0
    8.1061   -0.6507   18.6969 H   0  0  0  0  0  0  0  0  0  0  0  0
    6.5912   -0.0087   20.1156 C   0  0  0  0  0  0  0  0  0  0  0  0
    7.1450   -0.6506   21.3954 C   0  0  2  0  0  0  0  0  0  0  0  0
    6.2671   -0.9063   22.0093 H   0  0  0  0  0  0  0  0  0  0  0  0
    7.9605    0.3646   22.2546 C   0  0  1  0  0  0  0  0  0  0  0  0
    8.6841    0.8252   21.5604 H   0  0  0  0  0  0  0  0  0  0  0  0
    7.0931    1.4280   22.7392 N   0  0  0  0  0  0  0  0  0  0  0  0
    6.5702    1.0535   23.5291 H   0  0  0  0  0  0  0  0  0  0  0  0
    7.7820    2.6439   23.1801 C   0  0  0  0  0  0  0  0  0  0  0  0
    8.3362    2.5160   24.1260 H   0  0  0  0  0  0  0  0  0  0  0  0
    8.5226    2.9297   22.4222 H   0  0  0  0  0  0  0  0  0  0  0  0
    6.7896    3.7886   23.3696 C   0  0  0  0  0  0  0  0  0  0  0  0
    6.2950    4.0087   22.4058 H   0  0  0  0  0  0  0  0  0  0  0  0
    5.9978    3.4224   24.0381 H   0  0  0  0  0  0  0  0  0  0  0  0
    7.4280    4.9613   23.9617 N   0  0  0  0  0  0  0  0  0  0  0  0
    6.5224    5.7610   24.7829 C   0  0  0  0  0  0  0  0  0  0  0  0
    6.2639    5.1580   25.6637 H   0  0  0  0  0  0  0  0  0  0  0  0
    5.5718    5.9806   24.2574 H   0  0  0  0  0  0  0  0  0  0  0  0
    7.1557    7.1087   25.2273 C   0  0  0  0  0  0  0  0  0  0  0  0
    6.9732    7.2660   26.2936 H   0  0  0  0  0  0  0  0  0  0  0  0
    6.6748    7.9357   24.6778 H   0  0  0  0  0  0  0  0  0  0  0  0
    8.5604    7.1580   25.0666 O   0  0  0  0  0  0  0  0  0  0  0  0
    8.9943    6.8576   23.7432 C   0  0  0  0  0  0  0  0  0  0  0  0
   10.0266    6.5173   23.8585 H   0  0  0  0  0  0  0  0  0  0  0  0
    9.0039    7.7713   23.1368 H   0  0  0  0  0  0  0  0  0  0  0  0
    8.1576    5.7826   23.0027 C   0  0  0  0  0  0  0  0  0  0  0  0
    7.4791    6.2552   22.2611 H   0  0  0  0  0  0  0  0  0  0  0  0
    8.8409    5.1518   22.4195 H   0  0  0  0  0  0  0  0  0  0  0  0
    8.7109   -0.2506   23.4591 C   0  0  0  0  0  0  0  0  0  0  0  0
    8.0060   -0.3763   24.2935 H   0  0  0  0  0  0  0  0  0  0  0  0
    9.4641    0.4815   23.7797 H   0  0  0  0  0  0  0  0  0  0  0  0
    9.4011   -1.5839   23.1654 C   0  0  1  0  0  0  0  0  0  0  0  0
    9.9506   -1.9236   24.0477 H   0  0  0  0  0  0  0  0  0  0  0  0
    8.1265   -2.8308   22.7728 S   0  0  0  0  0  0  0  0  0  0  0  0
    7.9134   -1.9829   21.1670 C   0  0  2  0  0  0  0  0  0  0  0  0
    7.3207   -2.6267   20.5102 H   0  0  0  0  0  0  0  0  0  0  0  0
    9.3785   -1.8725   20.6934 C   0  0  0  0  0  0  0  0  0  0  0  0
    9.4997   -1.1696   19.8667 H   0  0  0  0  0  0  0  0  0  0  0  0
    9.6878   -2.8538   20.3337 H   0  0  0  0  0  0  0  0  0  0  0  0
   10.2716   -1.4887   21.8962 C   0  0  0  0  0  0  0  0  0  0  0  0
   10.6602   -0.4711   21.7827 H   0  0  0  0  0  0  0  0  0  0  0  0
   11.1381   -2.1498   21.9674 H   0  0  0  0  0  0  0  0  0  0  0  0
    5.4167    0.7565   20.2072 C   0  0  0  0  0  0  0  0  0  0  0  0
    4.9445    0.8939   21.1800 H   0  0  0  0  0  0  0  0  0  0  0  0
    4.8895    1.3523   19.0624 C   0  0  0  0  0  0  0  0  0  0  0  0
    3.9798    1.9380   19.0975 H   0  0  0  0  0  0  0  0  0  0  0  0
  1  2  1  0
  2  3  2  0
  3  4  1  0
  4  5  1  0
  4  6  2  0
  6  7  1  0
  7  8  1  1
  7  9  1  0
  9 10  1  6
  9 11  1  0
 11 12  1  0
 11 13  1  0
 13 14  1  0
 13 15  1  0
 13 16  1  0
 16 17  1  0
 16 18  1  0
 16 19  1  0
 19 20  1  0
 20 21  1  0
 20 22  1  0
 20 23  1  0
 23 24  1  0
 23 25  1  0
 23 26  1  0
 26 27  1  0
 27 28  1  0
 27 29  1  0
 27 30  1  0
 30 31  1  0
 30 32  1  0
  9 33  1  0
 33 34  1  0
 33 35  1  0
 33 36  1  0
 36 37  1  1
 36 38  1  0
 38 39  1  0
 39 40  1  6
 39 41  1  0
 41 42  1  0
 41 43  1  0
 41 44  1  0
 44 45  1  0
 44 46  1  0
  6 47  1  0
 47 48  1  0
 47 49  2  0
 49 50  1  0
 49  2  1  0
 39  7  1  0
 30 19  1  0
 44 36  1  0
M  END
>  <plip>  (1) 
-0.07142857142857142

>  <filename>  (1) 
[H][c]1[n][c]([H])[c]([C@]2([H])[C@@]([H])([N]([H])[C]([H])([H])[C]([H])([H])[N]3[C]([H])([H])[C]([H])([H])[O][C]([H])([H])[C]3([H])[H])[C]([H])([H])[C@@]3([H])[S][C@]2([H])[C]([H])([H])[C]3([H])[H])[c]([H])[c]1[H]

$$$$
