
     RDKit          3D

 36 37  0  0  0  0  0  0  0  0999 V2000
    4.9852    1.7955   16.9094 H   0  0  0  0  0  0  0  0  0  0  0  0
    5.4414    1.3042   17.7651 C   0  0  0  0  0  0  0  0  0  0  0  0
    6.5984    0.6720   17.5348 N   0  0  0  0  0  0  0  0  0  0  0  0
    7.1939    0.0756   18.5775 C   0  0  0  0  0  0  0  0  0  0  0  0
    8.1256   -0.4314   18.3366 H   0  0  0  0  0  0  0  0  0  0  0  0
    6.7013    0.0654   19.8979 C   0  0  0  0  0  0  0  0  0  0  0  0
    7.4083   -0.6538   21.0683 C   0  0  0  0  0  0  0  0  0  0  0  0
    7.4706    0.2723   22.3066 C   0  0  0  0  0  0  0  0  0  0  0  0
    6.4833    0.5635   22.6810 H   0  0  0  0  0  0  0  0  0  0  0  0
    8.0141    1.1937   22.0708 H   0  0  0  0  0  0  0  0  0  0  0  0
    8.0078   -0.2164   23.1257 H   0  0  0  0  0  0  0  0  0  0  0  0
    8.8639   -1.0194   20.7291 C   0  0  0  0  0  0  0  0  0  0  0  0
    8.9429   -1.6979   19.8772 H   0  0  0  0  0  0  0  0  0  0  0  0
    9.3397   -1.5064   21.5855 H   0  0  0  0  0  0  0  0  0  0  0  0
    9.4455   -0.1218   20.4890 H   0  0  0  0  0  0  0  0  0  0  0  0
    6.5743   -1.9444   21.3747 C   0  0  0  0  0  0  0  0  0  0  0  0
    6.5591   -2.5575   20.4667 H   0  0  0  0  0  0  0  0  0  0  0  0
    5.5386   -1.6221   21.5325 H   0  0  0  0  0  0  0  0  0  0  0  0
    6.9885   -2.7940   22.5527 C   0  0  0  0  0  0  0  0  0  0  0  0
    6.6651   -2.4101   23.8740 C   0  0  0  0  0  0  0  0  0  0  0  0
    6.0919   -1.5116   24.0634 H   0  0  0  0  0  0  0  0  0  0  0  0
    7.0798   -3.1860   24.9438 C   0  0  0  0  0  0  0  0  0  0  0  0
    6.8917   -2.8627   25.9668 H   0  0  0  0  0  0  0  0  0  0  0  0
    7.7514   -4.3347   24.8046 N   0  0  0  0  0  0  0  0  0  0  0  0
    8.0270   -4.7101   23.5635 C   0  0  0  0  0  0  0  0  0  0  0  0
    8.6809   -5.8655   23.3542 O   0  0  0  0  0  0  0  0  0  0  0  0
    9.4111   -6.4543   24.4289 C   0  0  0  0  0  0  0  0  0  0  0  0
    8.7555   -6.7314   25.2659 H   0  0  0  0  0  0  0  0  0  0  0  0
    9.8665   -7.3382   23.9773 H   0  0  0  0  0  0  0  0  0  0  0  0
   10.1957   -5.7795   24.7927 H   0  0  0  0  0  0  0  0  0  0  0  0
    7.6797   -3.9885   22.3993 C   0  0  0  0  0  0  0  0  0  0  0  0
    7.9679   -4.3847   21.4310 H   0  0  0  0  0  0  0  0  0  0  0  0
    5.4614    0.7059   20.0940 C   0  0  0  0  0  0  0  0  0  0  0  0
    4.9893    0.7112   21.0791 H   0  0  0  0  0  0  0  0  0  0  0  0
    4.8273    1.3354   19.0220 C   0  0  0  0  0  0  0  0  0  0  0  0
    3.8795    1.8513   19.1436 H   0  0  0  0  0  0  0  0  0  0  0  0
  1  2  1  0
  2  3  2  0
  3  4  1  0
  4  5  1  0
  4  6  2  0
  6  7  1  0
  7  8  1  0
  8  9  1  0
  8 10  1  0
  8 11  1  0
  7 12  1  0
 12 13  1  0
 12 14  1  0
 12 15  1  0
  7 16  1  0
 16 17  1  0
 16 18  1  0
 16 19  1  0
 19 20  2  0
 20 21  1  0
 20 22  1  0
 22 23  1  0
 22 24  2  0
 24 25  1  0
 25 26  1  0
 26 27  1  0
 27 28  1  0
 27 29  1  0
 27 30  1  0
 25 31  2  0
 31 32  1  0
  6 33  1  0
 33 34  1  0
 33 35  2  0
 35 36  1  0
 35  2  1  0
 31 19  1  0
M  END
>  <plip>  (1) 
-0.03571428571428571

>  <filename>  (1) 
[H][c]1[n][c]([H])[c]([C]([C]([H])([H])[H])([C]([H])([H])[H])[C]([H])([H])[c]2[c]([H])[c]([H])[n][c]([O][C]([H])([H])[H])[c]2[H])[c]([H])[c]1[H]

$$$$
