
     RDKit          3D

 25 27  0  0  0  0  0  0  0  0999 V2000
    7.0272    4.4854   21.9777 H   0  0  0  0  0  0  0  0  0  0  0  0
    6.8995    3.4894   22.3925 C   0  0  0  0  0  0  0  0  0  0  0  0
    6.1317    3.0576   23.3973 C   0  0  0  0  0  0  0  0  0  0  0  0
    5.4218    3.5674   24.0406 H   0  0  0  0  0  0  0  0  0  0  0  0
    6.3144    1.5888   23.5536 C   0  0  0  0  0  0  0  0  0  0  0  0
    5.7449    0.8520   24.3154 O   0  0  0  0  0  0  0  0  0  0  0  0
    7.2661    1.2221   22.5865 N   0  0  0  0  0  0  0  0  0  0  0  0
    7.6305   -0.1037   22.2748 C   0  0  0  0  0  0  0  0  0  0  0  0
    7.3850   -0.6223   21.0217 C   0  0  0  0  0  0  0  0  0  0  0  0
    6.6620    0.0399   19.9165 C   0  0  0  0  0  0  0  0  0  0  0  0
    7.1706    0.0631   18.5986 C   0  0  0  0  0  0  0  0  0  0  0  0
    8.1240   -0.4131   18.3647 H   0  0  0  0  0  0  0  0  0  0  0  0
    6.5596    0.6710   17.5773 N   0  0  0  0  0  0  0  0  0  0  0  0
    5.3992    1.2949   17.8324 C   0  0  0  0  0  0  0  0  0  0  0  0
    4.9291    1.7918   16.9856 H   0  0  0  0  0  0  0  0  0  0  0  0
    4.7974    1.3151   19.0931 C   0  0  0  0  0  0  0  0  0  0  0  0
    3.8623    1.8388   19.2342 H   0  0  0  0  0  0  0  0  0  0  0  0
    5.4297    0.6714   20.1539 C   0  0  0  0  0  0  0  0  0  0  0  0
    4.9808    0.6353   21.1485 H   0  0  0  0  0  0  0  0  0  0  0  0
    7.8424   -2.2661   20.7893 S   0  0  0  0  0  0  0  0  0  0  0  0
    8.6568   -2.5131   22.6366 S   0  0  0  0  0  0  0  0  0  0  0  0
    8.3041   -0.9359   23.2665 C   0  0  0  0  0  0  0  0  0  0  0  0
    8.7776   -0.6204   24.8036 S   0  0  0  0  0  0  0  0  0  0  0  0
    7.6592    2.3395   21.8207 C   0  0  0  0  0  0  0  0  0  0  0  0
    8.4576    2.3221   20.9218 O   0  0  0  0  0  0  0  0  0  0  0  0
  1  2  1  0
  2  3  2  0
  3  4  1  0
  3  5  1  0
  5  6  2  0
  5  7  1  0
  7  8  1  0
  8  9  2  0
  9 10  1  0
 10 11  2  0
 11 12  1  0
 11 13  1  0
 13 14  2  0
 14 15  1  0
 14 16  1  0
 16 17  1  0
 16 18  2  0
 18 19  1  0
  9 20  1  0
 20 21  1  0
 21 22  1  0
 22 23  2  0
  7 24  1  0
 24 25  2  0
 24  2  1  0
 22  8  1  0
 18 10  1  0
M  END
>  <plip>  (1) 
-0.10714285714285714

>  <filename>  (1) 
[H][C]1=[C]([H])[C](=[O])[N]([c]2[c](-[c]3[c]([H])[n][c]([H])[c]([H])[c]3[H])[s][s][c]2=[S])[C]1=[O]

$$$$
