
     RDKit          3D

 24 26  0  0  0  0  0  0  0  0999 V2000
    7.8862   -4.4300   26.6275 H   0  0  0  0  0  0  0  0  0  0  0  0
    7.3673   -3.9071   25.8397 C   0  0  0  0  0  0  0  0  0  0  0  0
    6.0887   -3.8010   25.6880 N   0  0  0  0  0  0  0  0  0  0  0  0
    5.9647   -3.0407   24.5446 C   0  0  0  0  0  0  0  0  0  0  0  0
    5.0032   -2.7667   24.1350 H   0  0  0  0  0  0  0  0  0  0  0  0
    7.1955   -2.7269   24.0584 C   0  0  0  0  0  0  0  0  0  0  0  0
    7.6166   -1.9788   22.9095 C   0  0  0  0  0  0  0  0  0  0  0  0
    9.2669   -1.6837   22.4631 S   0  0  0  0  0  0  0  0  0  0  0  0
    8.7580   -0.7929   21.0835 C   0  0  0  0  0  0  0  0  0  0  0  0
    9.4645   -0.3262   20.4184 H   0  0  0  0  0  0  0  0  0  0  0  0
    7.4008   -0.6967   20.9626 C   0  0  0  0  0  0  0  0  0  0  0  0
    6.6671    0.0209   19.8979 C   0  0  0  0  0  0  0  0  0  0  0  0
    7.1686    0.0760   18.5857 C   0  0  0  0  0  0  0  0  0  0  0  0
    8.1063   -0.4234   18.3554 H   0  0  0  0  0  0  0  0  0  0  0  0
    6.5585    0.6809   17.5594 N   0  0  0  0  0  0  0  0  0  0  0  0
    5.3969    1.2980   17.8272 C   0  0  0  0  0  0  0  0  0  0  0  0
    4.9165    1.7877   16.9861 H   0  0  0  0  0  0  0  0  0  0  0  0
    4.8014    1.3160   19.0956 C   0  0  0  0  0  0  0  0  0  0  0  0
    3.8690    1.8461   19.2522 H   0  0  0  0  0  0  0  0  0  0  0  0
    5.4358    0.6557   20.1469 C   0  0  0  0  0  0  0  0  0  0  0  0
    5.0177    0.6419   21.1579 H   0  0  0  0  0  0  0  0  0  0  0  0
    6.7595   -1.3939   22.0132 C   0  0  0  0  0  0  0  0  0  0  0  0
    5.6833   -1.4823   22.0325 H   0  0  0  0  0  0  0  0  0  0  0  0
    8.1165   -3.2917   24.9019 O   0  0  0  0  0  0  0  0  0  0  0  0
  1  2  1  0
  2  3  2  0
  3  4  1  0
  4  5  1  0
  4  6  2  0
  6  7  1  0
  7  8  1  0
  8  9  1  0
  9 10  1  0
  9 11  2  0
 11 12  1  0
 12 13  2  0
 13 14  1  0
 13 15  1  0
 15 16  2  0
 16 17  1  0
 16 18  1  0
 18 19  1  0
 18 20  2  0
 20 21  1  0
 11 22  1  0
 22 23  1  0
  6 24  1  0
 24  2  1  0
 22  7  2  0
 20 12  1  0
M  END
>  <plip>  (1) 
-0.03571428571428571

>  <filename>  (1) 
[H][c]1[n][c]([H])[c](-[c]2[s][c]([H])[c](-[c]3[c]([H])[n][c]([H])[c]([H])[c]3[H])[c]2[H])[o]1

$$$$
