
     RDKit          3D

 37 40  0  0  0  0  0  0  0  0999 V2000
    8.4183   -3.2781   21.7373 O   0  0  0  0  0  0  0  0  0  0  0  0
    7.2104   -3.0897   21.8024 C   0  0  0  0  0  0  0  0  0  0  0  0
    6.6285   -1.9076   21.4550 N   0  0  0  0  0  0  0  0  0  0  0  0
    7.3841   -0.7509   21.0032 C   0  0  0  0  0  0  0  0  0  0  0  0
    6.6293   -0.0216   19.9126 C   0  0  0  0  0  0  0  0  0  0  0  0
    5.4196    0.6470   20.1523 C   0  0  0  0  0  0  0  0  0  0  0  0
    4.7942    1.3101   19.0958 C   0  0  0  0  0  0  0  0  0  0  0  0
    5.3997    1.2908   17.8342 C   0  0  0  0  0  0  0  0  0  0  0  0
    6.5613    0.6699   17.5862 N   0  0  0  0  0  0  0  0  0  0  0  0
    7.1501    0.0420   18.6122 C   0  0  0  0  0  0  0  0  0  0  0  0
    8.1080   -0.4283   18.3832 H   0  0  0  0  0  0  0  0  0  0  0  0
    4.9353    1.7915   16.9870 H   0  0  0  0  0  0  0  0  0  0  0  0
    3.8659    1.8512   19.2401 H   0  0  0  0  0  0  0  0  0  0  0  0
    4.9801    0.6717   21.1542 H   0  0  0  0  0  0  0  0  0  0  0  0
    7.7419    0.1926   22.1525 C   0  0  0  0  0  0  0  0  0  0  0  0
    8.9013    1.1389   21.9785 C   0  0  0  0  0  0  0  0  0  0  0  0
    9.0135   -0.0355   22.9212 C   0  0  0  0  0  0  0  0  0  0  0  0
    9.6212   -0.8916   22.6219 H   0  0  0  0  0  0  0  0  0  0  0  0
    9.0145    0.1493   23.9942 H   0  0  0  0  0  0  0  0  0  0  0  0
    9.4392    1.1021   21.0299 H   0  0  0  0  0  0  0  0  0  0  0  0
    8.8245    2.1479   22.3835 H   0  0  0  0  0  0  0  0  0  0  0  0
    6.8762    0.5634   22.7086 H   0  0  0  0  0  0  0  0  0  0  0  0
    8.3292   -1.1355   20.5870 H   0  0  0  0  0  0  0  0  0  0  0  0
    5.6611   -1.7690   21.6978 H   0  0  0  0  0  0  0  0  0  0  0  0
    6.2563   -4.1625   22.2342 C   0  0  0  0  0  0  0  0  0  0  0  0
    4.8903   -4.2114   22.2259 C   0  0  0  0  0  0  0  0  0  0  0  0
    4.3746   -5.4587   22.6987 C   0  0  0  0  0  0  0  0  0  0  0  0
    3.0341   -5.8583   22.8373 C   0  0  0  0  0  0  0  0  0  0  0  0
    2.7751   -7.1186   23.3438 C   0  0  0  0  0  0  0  0  0  0  0  0
    3.7444   -7.9924   23.6981 N   0  0  0  0  0  0  0  0  0  0  0  0
    5.0151   -7.6437   23.5357 C   0  0  0  0  0  0  0  0  0  0  0  0
    5.3922   -6.3642   23.0585 C   0  0  0  0  0  0  0  0  0  0  0  0
    6.9581   -5.6584   22.8102 S   0  0  0  0  0  0  0  0  0  0  0  0
    5.7149   -8.4426   23.7738 H   0  0  0  0  0  0  0  0  0  0  0  0
    1.7563   -7.4800   23.4686 H   0  0  0  0  0  0  0  0  0  0  0  0
    2.2244   -5.1985   22.5605 H   0  0  0  0  0  0  0  0  0  0  0  0
    4.2035   -3.4397   21.8950 H   0  0  0  0  0  0  0  0  0  0  0  0
  1  2  2  0
  2  3  1  0
  3  4  1  0
  4  5  1  0
  5  6  2  0
  6  7  1  0
  7  8  2  0
  8  9  1  0
  9 10  2  0
 10 11  1  0
  8 12  1  0
  7 13  1  0
  6 14  1  0
  4 15  1  0
 15 16  1  0
 16 17  1  0
 17 18  1  0
 17 19  1  0
 16 20  1  0
 16 21  1  0
 15 22  1  0
  4 23  1  0
  3 24  1  0
  2 25  1  0
 25 26  2  0
 26 27  1  0
 27 28  2  0
 28 29  1  0
 29 30  2  0
 30 31  1  0
 31 32  2  0
 32 33  1  0
 31 34  1  0
 29 35  1  0
 28 36  1  0
 26 37  1  0
 10  5  1  0
 17 15  1  0
 33 25  1  0
 32 27  1  0
M  END
>  <plip>  (1) 
-0.03225806451612903

>  <filename>  (1) 
[H][c]1[n][c]([H])[c]([C]([H])([N]([H])[C](=[O])[c]2[s][c]3[c]([H])[n][c]([H])[c]([H])[c]3[c]2[H])[C]2([H])[C]([H])([H])[C]2([H])[H])[c]([H])[c]1[H]

$$$$
