
     RDKit          3D

 47 50  0  0  0  0  0  0  0  0999 V2000
    4.9710    1.8576   16.8870 H   0  0  0  0  0  0  0  0  0  0  0  0
    5.3791    1.3525   17.7583 C   0  0  0  0  0  0  0  0  0  0  0  0
    6.5281    0.6936   17.5574 N   0  0  0  0  0  0  0  0  0  0  0  0
    7.0721    0.0868   18.6178 C   0  0  0  0  0  0  0  0  0  0  0  0
    8.0062   -0.4422   18.4239 H   0  0  0  0  0  0  0  0  0  0  0  0
    6.5303    0.0926   19.9222 C   0  0  0  0  0  0  0  0  0  0  0  0
    7.3166   -0.5320   21.0860 C   0  0  2  0  0  0  0  0  0  0  0  0
    8.2500    0.5727   21.6579 C   0  0  0  0  0  0  0  0  0  0  0  0
    8.8492    0.9294   20.8119 H   0  0  0  0  0  0  0  0  0  0  0  0
    7.5872    1.4135   21.9230 H   0  0  0  0  0  0  0  0  0  0  0  0
    9.1123    0.1952   22.7767 N   0  0  0  0  0  0  0  0  0  0  0  0
    8.7046    0.6721   24.1010 C   0  0  0  0  0  0  0  0  0  0  0  0
    8.5153    1.7641   24.1142 H   0  0  0  0  0  0  0  0  0  0  0  0
    7.7719    0.2001   24.4332 H   0  0  0  0  0  0  0  0  0  0  0  0
    9.8805    0.3001   25.0107 C   0  0  0  0  0  0  0  0  0  0  0  0
    9.7439   -0.7186   25.3943 H   0  0  0  0  0  0  0  0  0  0  0  0
    9.9592    0.9527   25.8845 H   0  0  0  0  0  0  0  0  0  0  0  0
   11.1185    0.3548   24.1031 C   0  0  2  0  0  0  0  0  0  0  0  0
   11.7045   -0.5406   24.2397 H   0  0  0  0  0  0  0  0  0  0  0  0
   12.0696    1.5611   24.2373 C   0  0  0  0  0  0  0  0  0  0  0  0
   11.6135    2.3615   24.8496 H   0  0  0  0  0  0  0  0  0  0  0  0
   13.0151    1.2939   24.7364 H   0  0  0  0  0  0  0  0  0  0  0  0
   12.3349    1.9794   22.8581 N   0  0  0  0  0  0  0  0  0  0  0  0
   12.8650    3.3247   22.7156 C   0  0  0  0  0  0  0  0  0  0  0  0
   12.2075    4.1188   23.1247 H   0  0  0  0  0  0  0  0  0  0  0  0
   13.8365    3.4095   23.2149 H   0  0  0  0  0  0  0  0  0  0  0  0
   13.0278    3.5503   21.6556 H   0  0  0  0  0  0  0  0  0  0  0  0
   11.0997    1.7409   22.1070 C   0  0  0  0  0  0  0  0  0  0  0  0
   10.3409    2.5363   22.2578 H   0  0  0  0  0  0  0  0  0  0  0  0
   11.2940    1.6815   21.0270 H   0  0  0  0  0  0  0  0  0  0  0  0
   10.5705    0.3994   22.6552 C   0  0  2  0  0  0  0  0  0  0  0  0
   10.9992   -0.4105   22.0455 H   0  0  0  0  0  0  0  0  0  0  0  0
    8.0794   -1.8048   20.6545 C   0  0  0  0  0  0  0  0  0  0  0  0
    7.3582   -2.3848   20.0657 H   0  0  0  0  0  0  0  0  0  0  0  0
    8.9606   -1.6256   20.0257 H   0  0  0  0  0  0  0  0  0  0  0  0
    8.4132   -2.5622   21.8517 N   0  0  0  0  0  0  0  0  0  0  0  0
    9.2080   -2.0995   22.2776 H   0  0  0  0  0  0  0  0  0  0  0  0
    7.2841   -2.3494   22.7701 C   0  0  0  0  0  0  0  0  0  0  0  0
    6.6930   -3.2728   22.8429 H   0  0  0  0  0  0  0  0  0  0  0  0
    7.6618   -2.1276   23.7779 H   0  0  0  0  0  0  0  0  0  0  0  0
    6.4441   -1.1774   22.1925 C   0  0  0  0  0  0  0  0  0  0  0  0
    5.5430   -1.5840   21.7165 H   0  0  0  0  0  0  0  0  0  0  0  0
    6.1433   -0.4587   22.9654 H   0  0  0  0  0  0  0  0  0  0  0  0
    5.3186    0.7824   20.0965 C   0  0  0  0  0  0  0  0  0  0  0  0
    4.8431    0.8343   21.0802 H   0  0  0  0  0  0  0  0  0  0  0  0
    4.7335    1.4150   18.9958 C   0  0  0  0  0  0  0  0  0  0  0  0
    3.8076    1.9739   19.0867 H   0  0  0  0  0  0  0  0  0  0  0  0
  1  2  1  0
  2  3  2  0
  3  4  1  0
  4  5  1  0
  4  6  2  0
  6  7  1  0
  7  8  1  1
  8  9  1  0
  8 10  1  0
  8 11  1  0
 11 12  1  0
 12 13  1  0
 12 14  1  0
 12 15  1  0
 15 16  1  0
 15 17  1  0
 15 18  1  0
 18 19  1  6
 18 20  1  0
 20 21  1  0
 20 22  1  0
 20 23  1  0
 23 24  1  0
 24 25  1  0
 24 26  1  0
 24 27  1  0
 23 28  1  0
 28 29  1  0
 28 30  1  0
 28 31  1  0
 31 32  1  6
  7 33  1  0
 33 34  1  0
 33 35  1  0
 33 36  1  0
 36 37  1  0
 36 38  1  0
 38 39  1  0
 38 40  1  0
 38 41  1  0
 41 42  1  0
 41 43  1  0
  6 44  1  0
 44 45  1  0
 44 46  2  0
 46 47  1  0
 46  2  1  0
 41  7  1  0
 31 11  1  0
 31 18  1  0
M  END
>  <plip>  (1) 
-0.034482758620689655

>  <filename>  (1) 
[H][c]1[n][c]([H])[c]([C@]2([C]([H])([H])[N]3[C]([H])([H])[C]([H])([H])[C@]4([H])[C]([H])([H])[N]([C]([H])([H])[H])[C]([H])([H])[C@]34[H])[C]([H])([H])[N]([H])[C]([H])([H])[C]2([H])[H])[c]([H])[c]1[H]

$$$$
