
     RDKit          3D

 28 29  0  0  0  0  0  0  0  0999 V2000
    5.0862    1.7414   16.9494 H   0  0  0  0  0  0  0  0  0  0  0  0
    5.5372    1.2845   17.8274 C   0  0  0  0  0  0  0  0  0  0  0  0
    6.7207    0.6752   17.6407 N   0  0  0  0  0  0  0  0  0  0  0  0
    7.2824    0.0763   18.6973 C   0  0  0  0  0  0  0  0  0  0  0  0
    8.2498   -0.4015   18.5152 H   0  0  0  0  0  0  0  0  0  0  0  0
    6.7112    0.0223   19.9954 C   0  0  0  0  0  0  0  0  0  0  0  0
    7.4009   -0.7542   20.9887 N   0  0  0  0  0  0  0  0  0  0  0  0
    8.3045   -0.3277   21.1990 H   0  0  0  0  0  0  0  0  0  0  0  0
    6.6514   -0.8315   22.5538 S   0  0  0  0  0  0  0  0  0  0  0  0
    7.5517    0.6447   22.9380 N   0  0  0  0  0  0  0  0  0  0  0  0
    6.9022    1.3468   23.2766 H   0  0  0  0  0  0  0  0  0  0  0  0
    8.6925    0.4985   23.8779 C   0  0  0  0  0  0  0  0  0  0  0  0
    8.4558   -0.0558   24.8008 H   0  0  0  0  0  0  0  0  0  0  0  0
    8.9959    1.5209   24.1590 H   0  0  0  0  0  0  0  0  0  0  0  0
    9.8441   -0.1042   23.1332 C   0  0  0  0  0  0  0  0  0  0  0  0
   10.4062    0.7231   22.1581 C   0  0  0  0  0  0  0  0  0  0  0  0
   10.0831    1.7628   22.0710 H   0  0  0  0  0  0  0  0  0  0  0  0
   11.3110    0.3276   21.2686 N   0  0  0  0  0  0  0  0  0  0  0  0
   11.6945   -0.9533   21.3163 C   0  0  0  0  0  0  0  0  0  0  0  0
   12.4131   -1.2508   20.5593 H   0  0  0  0  0  0  0  0  0  0  0  0
   11.2275   -1.8608   22.2653 C   0  0  0  0  0  0  0  0  0  0  0  0
   11.5961   -2.8784   22.2518 H   0  0  0  0  0  0  0  0  0  0  0  0
   10.2833   -1.4323   23.2015 C   0  0  0  0  0  0  0  0  0  0  0  0
    9.8666   -2.1252   23.9364 H   0  0  0  0  0  0  0  0  0  0  0  0
    5.4905    0.7079   20.1777 C   0  0  0  0  0  0  0  0  0  0  0  0
    4.9898    0.7932   21.1412 H   0  0  0  0  0  0  0  0  0  0  0  0
    4.8999    1.3302   19.0669 C   0  0  0  0  0  0  0  0  0  0  0  0
    3.9521    1.8482   19.1672 H   0  0  0  0  0  0  0  0  0  0  0  0
  1  2  1  0
  2  3  2  0
  3  4  1  0
  4  5  1  0
  4  6  2  0
  6  7  1  0
  7  8  1  0
  7  9  1  0
  9 10  1  0
 10 11  1  0
 10 12  1  0
 12 13  1  0
 12 14  1  0
 12 15  1  0
 15 16  2  0
 16 17  1  0
 16 18  1  0
 18 19  2  0
 19 20  1  0
 19 21  1  0
 21 22  1  0
 21 23  2  0
 23 24  1  0
  6 25  1  0
 25 26  1  0
 25 27  2  0
 27 28  1  0
 27  2  1  0
 23 15  1  0
M  END
>  <plip>  (1) 
-0.10714285714285714

>  <filename>  (1) 
[H][c]1[n][c]([H])[c]([N]([H])[S][N]([H])[C]([H])([H])[c]2[c]([H])[n][c]([H])[c]([H])[c]2[H])[c]([H])[c]1[H]

$$$$
