
     RDKit          3D

 32 33  0  0  0  0  0  0  0  0999 V2000
    8.3589    3.6521   22.2802 C   0  0  0  0  0  0  0  0  0  0  0  0
    9.5990    2.9879   22.7762 C   0  0  0  0  0  0  0  0  0  0  0  0
   10.4530    3.5527   23.6030 N   0  0  0  0  0  0  0  0  0  0  0  0
   11.4042    2.6205   23.8646 C   0  0  0  0  0  0  0  0  0  0  0  0
   11.1168    1.4666   23.1924 C   0  0  0  0  0  0  0  0  0  0  0  0
   11.8423    0.2276   23.2446 N   0  0  0  0  0  4  0  0  0  0  0  0
   12.8533    0.2143   23.9294 O   0  0  0  0  0  0  0  0  0  0  0  0
   11.4184   -0.7375   22.6185 O   0  0  0  0  0  1  0  0  0  0  0  0
    9.9543    1.7056   22.4699 N   0  0  0  0  0  0  0  0  0  0  0  0
    9.3083    0.8626   21.4610 C   0  0  0  0  0  0  0  0  0  0  0  0
    8.0926    0.1231   22.0232 C   0  0  0  0  0  0  0  0  0  0  0  0
    7.3592   -0.7552   20.9914 C   0  0  0  0  0  0  0  0  0  0  0  0
    6.6586   -0.0131   19.8697 C   0  0  0  0  0  0  0  0  0  0  0  0
    5.4501    0.6670   20.0917 C   0  0  0  0  0  0  0  0  0  0  0  0
    4.8436    1.3462   19.0328 C   0  0  0  0  0  0  0  0  0  0  0  0
    5.4652    1.3235   17.7800 C   0  0  0  0  0  0  0  0  0  0  0  0
    6.6063    0.6650   17.5341 N   0  0  0  0  0  0  0  0  0  0  0  0
    7.1706    0.0124   18.5604 C   0  0  0  0  0  0  0  0  0  0  0  0
    8.0801   -0.5460   18.3285 H   0  0  0  0  0  0  0  0  0  0  0  0
    5.0254    1.8485   16.9331 H   0  0  0  0  0  0  0  0  0  0  0  0
    3.9092    1.8837   19.1599 H   0  0  0  0  0  0  0  0  0  0  0  0
    4.9942    0.6441   21.0850 H   0  0  0  0  0  0  0  0  0  0  0  0
    8.0706   -1.4739   20.5615 H   0  0  0  0  0  0  0  0  0  0  0  0
    6.6168   -1.3567   21.5300 H   0  0  0  0  0  0  0  0  0  0  0  0
    7.3962    0.8558   22.4569 H   0  0  0  0  0  0  0  0  0  0  0  0
    8.4329   -0.5120   22.8529 H   0  0  0  0  0  0  0  0  0  0  0  0
    9.0129    1.5124   20.6299 H   0  0  0  0  0  0  0  0  0  0  0  0
   10.0560    0.1698   21.0746 H   0  0  0  0  0  0  0  0  0  0  0  0
   12.2330    2.7960   24.5402 H   0  0  0  0  0  0  0  0  0  0  0  0
    8.5303    4.7293   22.2056 H   0  0  0  0  0  0  0  0  0  0  0  0
    7.5230    3.4873   22.9722 H   0  0  0  0  0  0  0  0  0  0  0  0
    8.0589    3.2572   21.3091 H   0  0  0  0  0  0  0  0  0  0  0  0
  1  2  1  0
  2  3  2  0
  3  4  1  0
  4  5  2  0
  5  6  1  0
  6  7  2  0
  6  8  1  0
  5  9  1  0
  9 10  1  0
 10 11  1  0
 11 12  1  0
 12 13  1  0
 13 14  2  0
 14 15  1  0
 15 16  2  0
 16 17  1  0
 17 18  2  0
 18 19  1  0
 16 20  1  0
 15 21  1  0
 14 22  1  0
 12 23  1  0
 12 24  1  0
 11 25  1  0
 11 26  1  0
 10 27  1  0
 10 28  1  0
  4 29  1  0
  1 30  1  0
  1 31  1  0
  1 32  1  0
  9  2  1  0
 18 13  1  0
M  CHG  2   6   1   8  -1
M  END
>  <plip>  (1) 
-0.0

>  <filename>  (1) 
[H][c]1[n][c]([H])[c]([C]([H])([H])[C]([H])([H])[C]([H])([H])[n]2[c]([C]([H])([H])[H])[n][c]([H])[c]2[N+](=[O])[O-])[c]([H])[c]1[H]

$$$$
