
     RDKit          3D

 42 44  0  0  0  0  0  0  0  0999 V2000
    4.9403    1.7820   17.0139 H   0  0  0  0  0  0  0  0  0  0  0  0
    5.4090    1.2809   17.8569 C   0  0  0  0  0  0  0  0  0  0  0  0
    6.5623    0.6499   17.5885 N   0  0  0  0  0  0  0  0  0  0  0  0
    7.1790    0.0329   18.6017 C   0  0  0  0  0  0  0  0  0  0  0  0
    8.1351   -0.4301   18.3727 H   0  0  0  0  0  0  0  0  0  0  0  0
    6.6664   -0.0193   19.9124 C   0  0  0  0  0  0  0  0  0  0  0  0
    7.3628   -0.7232   20.9493 N   0  0  0  0  0  0  0  0  0  0  0  0
    6.5367   -1.5271   21.7454 N   0  0  0  0  0  0  0  0  0  0  0  0
    7.0849   -2.3391   22.6058 C   0  0  0  0  0  0  0  0  0  0  0  0
    6.2917   -3.1392   23.4080 N   0  0  0  0  0  0  0  0  0  0  0  0
    4.9526   -3.5327   22.9423 C   0  0  0  0  0  0  0  0  0  0  0  0
    4.8547   -3.1956   21.9061 H   0  0  0  0  0  0  0  0  0  0  0  0
    4.1747   -3.0279   23.5336 H   0  0  0  0  0  0  0  0  0  0  0  0
    4.6715   -5.0487   23.0369 C   0  0  0  0  0  0  0  0  0  0  0  0
    5.6086   -5.5891   22.7971 H   0  0  0  0  0  0  0  0  0  0  0  0
    3.9354   -5.2969   22.2625 H   0  0  0  0  0  0  0  0  0  0  0  0
    4.1130   -5.4759   24.3294 N   0  0  0  0  0  0  0  0  0  0  0  0
    3.4724   -6.7785   24.2406 C   0  0  0  0  0  0  0  0  0  0  0  0
    4.1661   -7.5954   23.9586 H   0  0  0  0  0  0  0  0  0  0  0  0
    3.0183   -7.0361   25.2038 H   0  0  0  0  0  0  0  0  0  0  0  0
    2.6676   -6.7429   23.4979 H   0  0  0  0  0  0  0  0  0  0  0  0
    5.1084   -5.4361   25.3996 C   0  0  0  0  0  0  0  0  0  0  0  0
    4.6388   -5.8494   26.3033 H   0  0  0  0  0  0  0  0  0  0  0  0
    5.9743   -6.1003   25.1760 H   0  0  0  0  0  0  0  0  0  0  0  0
    5.6216   -4.0253   25.6995 C   0  0  0  0  0  0  0  0  0  0  0  0
    4.7777   -3.3262   25.7367 H   0  0  0  0  0  0  0  0  0  0  0  0
    6.0627   -4.0428   26.7033 H   0  0  0  0  0  0  0  0  0  0  0  0
    6.7240   -3.5026   24.7643 C   0  0  0  0  0  0  0  0  0  0  0  0
    7.1841   -2.6223   25.2436 H   0  0  0  0  0  0  0  0  0  0  0  0
    7.5191   -4.2684   24.7241 H   0  0  0  0  0  0  0  0  0  0  0  0
    8.5918   -2.5239   22.6641 C   0  0  0  0  0  0  0  0  0  0  0  0
    8.8382   -3.2832   21.9057 H   0  0  0  0  0  0  0  0  0  0  0  0
    8.9003   -2.9582   23.6199 H   0  0  0  0  0  0  0  0  0  0  0  0
    9.3223   -1.2048   22.3724 C   0  0  0  0  0  0  0  0  0  0  0  0
    9.2862   -0.5150   23.2287 H   0  0  0  0  0  0  0  0  0  0  0  0
   10.3805   -1.3546   22.1462 H   0  0  0  0  0  0  0  0  0  0  0  0
    8.7313   -0.4533   21.1872 C   0  0  0  0  0  0  0  0  0  0  0  0
    9.3822    0.3241   20.5165 O   0  0  0  0  0  0  0  0  0  0  0  0
    5.4525    0.6275   20.1803 C   0  0  0  0  0  0  0  0  0  0  0  0
    5.0350    0.5813   21.1860 H   0  0  0  0  0  0  0  0  0  0  0  0
    4.8246    1.3011   19.1281 C   0  0  0  0  0  0  0  0  0  0  0  0
    3.8928    1.8327   19.2727 H   0  0  0  0  0  0  0  0  0  0  0  0
  1  2  1  0
  2  3  2  0
  3  4  1  0
  4  5  1  0
  4  6  2  0
  6  7  1  0
  7  8  1  0
  8  9  2  0
  9 10  1  0
 10 11  1  0
 11 12  1  0
 11 13  1  0
 11 14  1  0
 14 15  1  0
 14 16  1  0
 14 17  1  0
 17 18  1  0
 18 19  1  0
 18 20  1  0
 18 21  1  0
 17 22  1  0
 22 23  1  0
 22 24  1  0
 22 25  1  0
 25 26  1  0
 25 27  1  0
 25 28  1  0
 28 29  1  0
 28 30  1  0
  9 31  1  0
 31 32  1  0
 31 33  1  0
 31 34  1  0
 34 35  1  0
 34 36  1  0
 34 37  1  0
 37 38  2  0
  6 39  1  0
 39 40  1  0
 39 41  2  0
 41 42  1  0
 41  2  1  0
 37  7  1  0
 28 10  1  0
M  END
>  <plip>  (1) 
-0.07142857142857142

>  <filename>  (1) 
[H][c]1[n][c]([H])[c]([N]2[N]=[C]([N]3[C]([H])([H])[C]([H])([H])[N]([C]([H])([H])[H])[C]([H])([H])[C]([H])([H])[C]3([H])[H])[C]([H])([H])[C]([H])([H])[C]2=[O])[c]([H])[c]1[H]

$$$$
