
     RDKit          3D

 30 32  0  0  0  0  0  0  0  0999 V2000
   12.7229    5.4257   22.8889 C   0  0  0  0  0  0  0  0  0  0  0  0
   11.6512    4.3992   22.6747 C   0  0  0  0  0  0  0  0  0  0  0  0
   11.8498    3.2148   22.0903 N   0  0  0  0  0  0  0  0  0  0  0  0
   10.6216    2.6813   22.0860 N   0  0  0  0  0  0  0  0  0  0  0  0
   10.3365    1.4628   21.5726 N   0  0  0  0  0  0  0  0  0  0  0  0
    9.0672    1.1229   21.6669 C   0  0  0  0  0  0  0  0  0  0  0  0
    8.7750   -0.1109   21.1822 N   0  0  0  0  0  0  0  0  0  0  0  0
    7.4523   -0.6702   21.0008 C   0  0  0  0  0  0  0  0  0  0  0  0
    6.6572    0.0259   19.9203 C   0  0  0  0  0  0  0  0  0  0  0  0
    5.4262    0.6551   20.1520 C   0  0  0  0  0  0  0  0  0  0  0  0
    4.7924    1.3087   19.0931 C   0  0  0  0  0  0  0  0  0  0  0  0
    5.3985    1.2938   17.8351 C   0  0  0  0  0  0  0  0  0  0  0  0
    6.5645    0.6798   17.5877 N   0  0  0  0  0  0  0  0  0  0  0  0
    7.1738    0.0783   18.6169 C   0  0  0  0  0  0  0  0  0  0  0  0
    8.1196   -0.4093   18.3765 H   0  0  0  0  0  0  0  0  0  0  0  0
    4.9353    1.7905   16.9845 H   0  0  0  0  0  0  0  0  0  0  0  0
    3.8652    1.8461   19.2353 H   0  0  0  0  0  0  0  0  0  0  0  0
    4.9761    0.6440   21.1495 H   0  0  0  0  0  0  0  0  0  0  0  0
    7.5836   -1.7305   20.7601 H   0  0  0  0  0  0  0  0  0  0  0  0
    6.8816   -0.6593   21.9440 H   0  0  0  0  0  0  0  0  0  0  0  0
    9.6179   -0.5594   20.8602 H   0  0  0  0  0  0  0  0  0  0  0  0
    8.0388    1.9418   22.2587 C   0  0  0  0  0  0  0  0  0  0  0  0
    8.3683    3.1662   22.7644 C   0  0  0  0  0  0  0  0  0  0  0  0
    9.7346    3.5567   22.6796 C   0  0  0  0  0  0  0  0  0  0  0  0
   10.3806    4.6548   23.0607 N   0  0  0  0  0  0  0  0  0  0  0  0
    7.6613    3.8522   23.2146 H   0  0  0  0  0  0  0  0  0  0  0  0
    7.0391    1.5346   22.2742 H   0  0  0  0  0  0  0  0  0  0  0  0
   12.8050    6.0873   22.0215 H   0  0  0  0  0  0  0  0  0  0  0  0
   13.7019    4.9690   23.0462 H   0  0  0  0  0  0  0  0  0  0  0  0
   12.4675    6.0501   23.7468 H   0  0  0  0  0  0  0  0  0  0  0  0
  1  2  1  0
  2  3  2  0
  3  4  1  0
  4  5  1  0
  5  6  2  0
  6  7  1  0
  7  8  1  0
  8  9  1  0
  9 10  2  0
 10 11  1  0
 11 12  2  0
 12 13  1  0
 13 14  2  0
 14 15  1  0
 12 16  1  0
 11 17  1  0
 10 18  1  0
  8 19  1  0
  8 20  1  0
  7 21  1  0
  6 22  1  0
 22 23  2  0
 23 24  1  0
 24 25  2  0
 23 26  1  0
 22 27  1  0
  1 28  1  0
  1 29  1  0
  1 30  1  0
 25  2  1  0
 24  4  1  0
 14  9  1  0
M  END
>  <plip>  (1) 
-0.034482758620689655

>  <filename>  (1) 
[H][c]1[n][c]([H])[c]([C]([H])([H])[N]([H])[c]2[n][n]3[n][c]([C]([H])([H])[H])[n][c]3[c]([H])[c]2[H])[c]([H])[c]1[H]

$$$$
