
     RDKit          3D

 38 40  0  0  0  0  0  0  0  0999 V2000
    6.2969    2.7213   27.3186 C   0  0  0  0  0  0  0  0  0  0  0  0
    7.3894    3.5016   26.6438 C   0  0  0  0  0  0  0  0  0  0  0  0
    7.9696    4.6299   27.2106 C   0  0  0  0  0  0  0  0  0  0  0  0
    9.0045    5.3556   26.5575 C   0  0  0  0  0  0  0  0  0  0  0  0
    9.4533    4.9432   25.3184 C   0  0  0  0  0  0  0  0  0  0  0  0
   10.4318    5.6230   24.6871 F   0  0  0  0  0  0  0  0  0  0  0  0
    8.8830    3.8011   24.7141 C   0  0  0  0  0  0  0  0  0  0  0  0
    7.8567    3.0823   25.3713 C   0  0  0  0  0  0  0  0  0  0  0  0
    7.5008    2.0064   24.5150 C   0  0  0  0  0  0  0  0  0  0  0  0
    8.2828    2.0707   23.3844 C   0  0  0  0  0  0  0  0  0  0  0  0
    8.3305    1.2106   22.1564 C   0  0  0  0  0  0  0  0  0  0  0  0
    9.0361    1.4684   21.1900 O   0  0  0  0  0  0  0  0  0  0  0  0
    7.5509    0.0889   22.1779 N   0  0  0  0  0  0  0  0  0  0  0  0
    7.3971   -0.7341   20.9907 C   0  0  0  0  0  0  0  0  0  0  0  0
    6.6814   -2.0381   21.3084 C   0  0  0  0  0  0  0  0  0  0  0  0
    7.2101   -2.6185   22.0695 H   0  0  0  0  0  0  0  0  0  0  0  0
    6.6208   -2.6447   20.4018 H   0  0  0  0  0  0  0  0  0  0  0  0
    5.6493   -1.8643   21.6329 H   0  0  0  0  0  0  0  0  0  0  0  0
    6.6664    0.0271   19.9047 C   0  0  0  0  0  0  0  0  0  0  0  0
    5.4393    0.6562   20.1513 C   0  0  0  0  0  0  0  0  0  0  0  0
    4.8030    1.3088   19.0977 C   0  0  0  0  0  0  0  0  0  0  0  0
    5.4028    1.2894   17.8310 C   0  0  0  0  0  0  0  0  0  0  0  0
    6.5629    0.6720   17.5682 N   0  0  0  0  0  0  0  0  0  0  0  0
    7.1715    0.0745   18.6047 C   0  0  0  0  0  0  0  0  0  0  0  0
    8.1159   -0.4172   18.3755 H   0  0  0  0  0  0  0  0  0  0  0  0
    4.9182    1.7823   16.9909 H   0  0  0  0  0  0  0  0  0  0  0  0
    3.8731    1.8421   19.2559 H   0  0  0  0  0  0  0  0  0  0  0  0
    5.0035    0.6412   21.1553 H   0  0  0  0  0  0  0  0  0  0  0  0
    8.4082   -0.9583   20.6339 H   0  0  0  0  0  0  0  0  0  0  0  0
    6.9928   -0.1018   22.9867 H   0  0  0  0  0  0  0  0  0  0  0  0
    9.1188    3.1734   23.5227 N   0  0  0  0  0  0  0  0  0  0  0  0
    9.7970    3.4976   22.8496 H   0  0  0  0  0  0  0  0  0  0  0  0
    6.7235    1.2871   24.7513 H   0  0  0  0  0  0  0  0  0  0  0  0
    9.4502    6.2382   27.0127 H   0  0  0  0  0  0  0  0  0  0  0  0
    7.6225    4.9617   28.1875 H   0  0  0  0  0  0  0  0  0  0  0  0
    5.3911    2.7041   26.7018 H   0  0  0  0  0  0  0  0  0  0  0  0
    6.0338    3.1370   28.2940 H   0  0  0  0  0  0  0  0  0  0  0  0
    6.5945    1.6767   27.4639 H   0  0  0  0  0  0  0  0  0  0  0  0
  1  2  1  0
  2  3  2  0
  3  4  1  0
  4  5  2  0
  5  6  1  0
  5  7  1  0
  7  8  2  0
  8  9  1  0
  9 10  2  0
 10 11  1  0
 11 12  2  0
 11 13  1  0
 13 14  1  0
 14 15  1  0
 15 16  1  0
 15 17  1  0
 15 18  1  0
 14 19  1  0
 19 20  2  0
 20 21  1  0
 21 22  2  0
 22 23  1  0
 23 24  2  0
 24 25  1  0
 22 26  1  0
 21 27  1  0
 20 28  1  0
 14 29  1  0
 13 30  1  0
 10 31  1  0
 31 32  1  0
  9 33  1  0
  4 34  1  0
  3 35  1  0
  1 36  1  0
  1 37  1  0
  1 38  1  0
  8  2  1  0
 24 19  1  0
 31  7  1  0
M  END
>  <plip>  (1) 
-0.14285714285714285

>  <filename>  (1) 
[H][c]1[n][c]([H])[c]([C]([H])([N]([H])[C](=[O])[c]2[c]([H])[c]3[c]([C]([H])([H])[H])[c]([H])[c]([H])[c]([F])[c]3[n]2[H])[C]([H])([H])[H])[c]([H])[c]1[H]

$$$$
