
     RDKit          3D

 40 41  0  0  0  0  0  0  0  0999 V2000
    9.3636   -0.8139   22.5385 C   0  0  0  0  0  0  0  0  0  0  0  0
    8.5156   -0.0351   21.5350 C   0  0  0  0  0  0  0  0  0  0  0  0
    7.3067   -0.7892   20.9686 C   0  0  0  0  0  0  0  0  0  0  0  0
    6.6064   -0.0446   19.8465 C   0  0  0  0  0  0  0  0  0  0  0  0
    5.4062    0.6435   20.0782 C   0  0  0  0  0  0  0  0  0  0  0  0
    4.8016    1.3396   19.0305 C   0  0  0  0  0  0  0  0  0  0  0  0
    5.4216    1.3349   17.7787 C   0  0  0  0  0  0  0  0  0  0  0  0
    6.5723    0.6945   17.5298 N   0  0  0  0  0  0  0  0  0  0  0  0
    7.1428    0.0312   18.5420 C   0  0  0  0  0  0  0  0  0  0  0  0
    8.0804   -0.4786   18.3047 H   0  0  0  0  0  0  0  0  0  0  0  0
    4.9754    1.8627   16.9351 H   0  0  0  0  0  0  0  0  0  0  0  0
    3.8778    1.8874   19.1736 H   0  0  0  0  0  0  0  0  0  0  0  0
    4.9717    0.6328   21.0813 H   0  0  0  0  0  0  0  0  0  0  0  0
    6.6116   -0.9672   21.7995 H   0  0  0  0  0  0  0  0  0  0  0  0
    7.6304   -1.7755   20.6132 H   0  0  0  0  0  0  0  0  0  0  0  0
    8.0089    1.2179   22.1642 N   0  0  0  0  0  4  0  0  0  0  0  0
    8.9628    2.1819   22.8082 C   0  0  0  0  0  0  0  0  0  0  0  0
   10.0942    2.5182   21.8235 C   0  0  0  0  0  0  0  0  0  0  0  0
   11.2600    3.3788   22.3326 C   0  0  0  0  0  0  0  0  0  0  0  0
   10.9796    4.7272   23.0031 C   0  0  0  0  0  0  0  0  0  0  0  0
   10.3059    4.6987   24.6796 S   0  0  0  0  0  0  0  0  0  0  0  0
    8.6017    4.0806   24.5499 C   0  0  0  0  0  0  0  0  0  0  0  0
    8.1315    3.3907   23.2607 C   0  0  0  0  0  0  0  0  0  0  0  0
    8.0630    4.1238   22.4412 H   0  0  0  0  0  0  0  0  0  0  0  0
    7.1023    3.0568   23.4658 H   0  0  0  0  0  0  0  0  0  0  0  0
    8.5336    3.3866   25.3968 H   0  0  0  0  0  0  0  0  0  0  0  0
    7.9234    4.9095   24.7875 H   0  0  0  0  0  0  0  0  0  0  0  0
   10.3867    5.3915   22.3650 H   0  0  0  0  0  0  0  0  0  0  0  0
   11.9470    5.2040   23.1856 H   0  0  0  0  0  0  0  0  0  0  0  0
   11.9165    3.5969   21.4770 H   0  0  0  0  0  0  0  0  0  0  0  0
   11.8569    2.7652   23.0188 H   0  0  0  0  0  0  0  0  0  0  0  0
   10.5291    1.5732   21.4856 H   0  0  0  0  0  0  0  0  0  0  0  0
    9.6044    2.9187   20.9287 H   0  0  0  0  0  0  0  0  0  0  0  0
    9.4059    1.7126   23.7001 H   0  0  0  0  0  0  0  0  0  0  0  0
    7.4701    1.7439   21.4290 H   0  0  0  0  0  0  0  0  0  0  0  0
    7.3027    0.9249   22.8824 H   0  0  0  0  0  0  0  0  0  0  0  0
    9.1478    0.2167   20.6770 H   0  0  0  0  0  0  0  0  0  0  0  0
    8.8083   -0.9846   23.4701 H   0  0  0  0  0  0  0  0  0  0  0  0
   10.2585   -0.2317   22.7878 H   0  0  0  0  0  0  0  0  0  0  0  0
    9.6881   -1.7783   22.1348 H   0  0  0  0  0  0  0  0  0  0  0  0
  1  2  1  0
  2  3  1  0
  3  4  1  0
  4  5  2  0
  5  6  1  0
  6  7  2  0
  7  8  1  0
  8  9  2  0
  9 10  1  0
  7 11  1  0
  6 12  1  0
  5 13  1  0
  3 14  1  0
  3 15  1  0
  2 16  1  0
 16 17  1  0
 17 18  1  0
 18 19  1  0
 19 20  1  0
 20 21  1  0
 21 22  1  0
 22 23  1  0
 23 24  1  0
 23 25  1  0
 22 26  1  0
 22 27  1  0
 20 28  1  0
 20 29  1  0
 19 30  1  0
 19 31  1  0
 18 32  1  0
 18 33  1  0
 17 34  1  0
 16 35  1  0
 16 36  1  0
  2 37  1  0
  1 38  1  0
  1 39  1  0
  1 40  1  0
  9  4  1  0
 23 17  1  0
M  CHG  1  16   1
M  END
>  <plip>  (1) 
-0.03571428571428571

>  <filename>  (1) 
[H][c]1[n][c]([H])[c]([C]([H])([H])[C]([H])([C]([H])([H])[H])[N+]([H])([H])[C]2([H])[C]([H])([H])[C]([H])([H])[S][C]([H])([H])[C]([H])([H])[C]2([H])[H])[c]([H])[c]1[H]

$$$$
