
     RDKit          3D

 42 44  0  0  0  0  0  0  0  0999 V2000
    8.7362   -0.5609   27.7984 C   0  0  0  0  0  0  0  0  0  0  0  0
    8.5007    0.2712   26.6867 O   0  0  0  0  0  0  0  0  0  0  0  0
    7.3160    0.8928   26.4871 C   0  0  0  0  0  0  0  0  0  0  0  0
    6.1753    0.8560   27.3108 C   0  0  0  0  0  0  0  0  0  0  0  0
    5.0016    1.5410   26.9423 C   0  0  0  0  0  0  0  0  0  0  0  0
    4.9284    2.2561   25.7415 C   0  0  0  0  0  0  0  0  0  0  0  0
    6.0507    2.2809   24.9174 C   0  0  0  0  0  0  0  0  0  0  0  0
    7.2246    1.6581   25.3025 C   0  0  0  0  0  0  0  0  0  0  0  0
    8.2420    1.8348   24.4043 O   0  0  0  0  0  0  0  0  0  0  0  0
    7.7108    2.4742   23.2239 C   0  0  0  0  0  0  0  0  0  0  0  0
    7.8392    1.5443   21.9954 C   0  0  0  0  0  0  0  0  0  0  0  0
    8.3611    1.9475   20.9683 O   0  0  0  0  0  0  0  0  0  0  0  0
    7.2898    0.2785   22.1385 N   0  0  0  0  0  0  0  0  0  0  0  0
    7.3049   -0.6810   21.0074 C   0  0  0  0  0  0  0  0  0  0  0  0
    8.7705   -1.0933   20.7739 C   0  0  0  0  0  0  0  0  0  0  0  0
    8.8747   -1.7806   19.9335 H   0  0  0  0  0  0  0  0  0  0  0  0
    9.3611   -0.1929   20.5820 H   0  0  0  0  0  0  0  0  0  0  0  0
    9.1511   -1.5891   21.6738 H   0  0  0  0  0  0  0  0  0  0  0  0
    6.4003   -2.2719   21.3909 C   0  0  0  0  0  0  0  0  0  0  0  0
    6.6634   -2.6952   22.5136 O   0  0  0  0  0  0  0  0  0  0  0  0
    5.7290   -2.7142   20.4624 O   0  0  0  0  0  1  0  0  0  0  0  0
    6.6292   -0.0129   19.8195 C   0  0  0  0  0  0  0  0  0  0  0  0
    5.3647    0.5767   19.9890 C   0  0  0  0  0  0  0  0  0  0  0  0
    4.7762    1.2467   18.9144 C   0  0  0  0  0  0  0  0  0  0  0  0
    5.4646    1.2992   17.6968 C   0  0  0  0  0  0  0  0  0  0  0  0
    6.6686    0.7427   17.5044 N   0  0  0  0  0  0  0  0  0  0  0  0
    7.2251    0.1167   18.5555 C   0  0  0  0  0  0  0  0  0  0  0  0
    8.2095   -0.3163   18.3726 H   0  0  0  0  0  0  0  0  0  0  0  0
    5.0468    1.8347   16.8448 H   0  0  0  0  0  0  0  0  0  0  0  0
    3.8237    1.7529   19.0188 H   0  0  0  0  0  0  0  0  0  0  0  0
    4.8674    0.5161   20.9610 H   0  0  0  0  0  0  0  0  0  0  0  0
    7.3794   -0.1179   23.0634 H   0  0  0  0  0  0  0  0  0  0  0  0
    6.2637    2.9265   23.5813 C   0  0  0  0  0  0  0  0  0  0  0  0
    6.1865    4.0157   23.6660 H   0  0  0  0  0  0  0  0  0  0  0  0
    5.5005    2.6213   22.8582 H   0  0  0  0  0  0  0  0  0  0  0  0
    8.3445    3.3321   23.0055 H   0  0  0  0  0  0  0  0  0  0  0  0
    4.0313    2.7962   25.4533 H   0  0  0  0  0  0  0  0  0  0  0  0
    4.1356    1.5116   27.5979 H   0  0  0  0  0  0  0  0  0  0  0  0
    6.1899    0.2882   28.2380 H   0  0  0  0  0  0  0  0  0  0  0  0
    8.6872   -0.0006   28.7392 H   0  0  0  0  0  0  0  0  0  0  0  0
    9.7523   -0.9345   27.6680 H   0  0  0  0  0  0  0  0  0  0  0  0
    8.0490   -1.4155   27.8245 H   0  0  0  0  0  0  0  0  0  0  0  0
  1  2  1  0
  2  3  1  0
  3  4  2  0
  4  5  1  0
  5  6  2  0
  6  7  1  0
  7  8  2  0
  8  9  1  0
  9 10  1  0
 10 11  1  0
 11 12  2  0
 11 13  1  0
 13 14  1  0
 14 15  1  0
 15 16  1  0
 15 17  1  0
 15 18  1  0
 14 19  1  0
 19 20  2  0
 19 21  1  0
 14 22  1  0
 22 23  2  0
 23 24  1  0
 24 25  2  0
 25 26  1  0
 26 27  2  0
 27 28  1  0
 25 29  1  0
 24 30  1  0
 23 31  1  0
 13 32  1  0
 10 33  1  0
 33 34  1  0
 33 35  1  0
 10 36  1  0
  6 37  1  0
  5 38  1  0
  4 39  1  0
  1 40  1  0
  1 41  1  0
  1 42  1  0
  8  3  1  0
 27 22  1  0
 33  7  1  0
M  CHG  1  21  -1
M  END
>  <plip>  (1) 
-0.07142857142857142

>  <filename>  (1) 
[H][c]1[n][c]([H])[c]([C]([C](=[O])[O-])([N]([H])[C](=[O])[C]2([H])[O][c]3[c]([O][C]([H])([H])[H])[c]([H])[c]([H])[c]([H])[c]3[C]2([H])[H])[C]([H])([H])[H])[c]([H])[c]1[H]

$$$$
