
     RDKit          3D

 31 32  0  0  0  0  0  0  0  0999 V2000
    6.6990   -1.6400   21.7196 C   0  0  0  0  0  0  0  0  0  0  0  0
    7.4048   -0.5982   20.9581 N   0  0  0  0  0  0  0  0  0  0  0  0
    8.7505   -0.3772   21.2950 C   0  0  0  0  0  0  0  0  0  0  0  0
    9.3885   -1.1636   21.9788 O   0  0  0  0  0  0  0  0  0  0  0  0
    9.2889    0.7843   20.8048 N   0  0  0  0  0  0  0  0  0  0  0  0
   10.6470    1.1972   21.1492 C   0  0  0  0  0  0  0  0  0  0  0  0
   10.8383    1.6170   22.6097 C   0  0  0  0  0  0  0  0  0  0  0  0
   10.0810    2.8941   23.0142 C   0  0  0  0  0  0  0  0  0  0  0  0
   11.0959    3.7680   23.4903 O   0  0  0  0  0  0  0  0  0  0  0  0
   12.3206    3.2215   23.3252 C   0  0  0  0  0  0  0  0  0  0  0  0
   13.3419    3.7700   23.5935 O   0  0  0  0  0  0  0  0  0  0  0  0
   12.2113    1.9702   22.8176 O   0  0  0  0  0  0  0  0  0  0  0  0
    9.3496    2.7252   23.8100 H   0  0  0  0  0  0  0  0  0  0  0  0
    9.5766    3.3810   22.1653 H   0  0  0  0  0  0  0  0  0  0  0  0
   10.5946    0.7515   23.2371 H   0  0  0  0  0  0  0  0  0  0  0  0
   11.3411    0.3661   20.9823 H   0  0  0  0  0  0  0  0  0  0  0  0
   10.9578    2.0254   20.5030 H   0  0  0  0  0  0  0  0  0  0  0  0
    8.6098    1.4215   20.4140 H   0  0  0  0  0  0  0  0  0  0  0  0
    6.6918    0.0502   19.8925 C   0  0  0  0  0  0  0  0  0  0  0  0
    5.4550    0.6588   20.1447 C   0  0  0  0  0  0  0  0  0  0  0  0
    4.8077    1.3163   19.0923 C   0  0  0  0  0  0  0  0  0  0  0  0
    5.3821    1.3045   17.8175 C   0  0  0  0  0  0  0  0  0  0  0  0
    6.5360    0.6758   17.5412 N   0  0  0  0  0  0  0  0  0  0  0  0
    7.1656    0.0708   18.5569 C   0  0  0  0  0  0  0  0  0  0  0  0
    8.1089   -0.4221   18.3238 H   0  0  0  0  0  0  0  0  0  0  0  0
    4.9064    1.8075   16.9798 H   0  0  0  0  0  0  0  0  0  0  0  0
    3.8747    1.8361   19.2531 H   0  0  0  0  0  0  0  0  0  0  0  0
    5.0435    0.6121   21.1556 H   0  0  0  0  0  0  0  0  0  0  0  0
    6.4528   -1.3234   22.7427 H   0  0  0  0  0  0  0  0  0  0  0  0
    7.2940   -2.5575   21.7930 H   0  0  0  0  0  0  0  0  0  0  0  0
    5.7648   -1.8783   21.2053 H   0  0  0  0  0  0  0  0  0  0  0  0
  1  2  1  0
  2  3  1  0
  3  4  2  0
  3  5  1  0
  5  6  1  0
  6  7  1  0
  7  8  1  0
  8  9  1  0
  9 10  1  0
 10 11  2  0
 10 12  1  0
  8 13  1  0
  8 14  1  0
  7 15  1  0
  6 16  1  0
  6 17  1  0
  5 18  1  0
  2 19  1  0
 19 20  2  0
 20 21  1  0
 21 22  2  0
 22 23  1  0
 23 24  2  0
 24 25  1  0
 22 26  1  0
 21 27  1  0
 20 28  1  0
  1 29  1  0
  1 30  1  0
  1 31  1  0
 12  7  1  0
 24 19  1  0
M  END
>  <plip>  (1) 
-0.1

>  <filename>  (1) 
[H][c]1[n][c]([H])[c]([N]([C](=[O])[N]([H])[C]([H])([H])[C]2([H])[O][C](=[O])[O][C]2([H])[H])[C]([H])([H])[H])[c]([H])[c]1[H]

$$$$
