
     RDKit          3D

 28 29  0  0  0  0  0  0  0  0999 V2000
    5.0254    1.7724   16.9773 H   0  0  0  0  0  0  0  0  0  0  0  0
    5.4198    1.2459   17.8424 C   0  0  0  0  0  0  0  0  0  0  0  0
    6.5604    0.5670   17.6410 N   0  0  0  0  0  0  0  0  0  0  0  0
    7.0995   -0.0642   18.6915 C   0  0  0  0  0  0  0  0  0  0  0  0
    8.0229   -0.6165   18.5180 H   0  0  0  0  0  0  0  0  0  0  0  0
    6.5576   -0.0395   20.0044 C   0  0  0  0  0  0  0  0  0  0  0  0
    7.2773   -0.5360   21.1456 N   0  0  0  0  0  0  0  0  0  0  0  0
    6.8801   -1.3671   21.5719 H   0  0  0  0  0  0  0  0  0  0  0  0
    8.6803   -0.7866   20.8764 N   0  0  0  0  0  0  0  0  0  0  0  0
    9.2630   -1.5278   21.9567 N   0  0  0  0  0  0  0  0  0  0  0  0
    8.8754   -1.8307   23.2609 C   0  0  0  0  0  0  0  0  0  0  0  0
    7.6553   -1.4010   24.0080 C   0  0  0  0  0  0  0  0  0  0  0  0
    7.8551   -1.5720   25.0684 H   0  0  0  0  0  0  0  0  0  0  0  0
    7.4151   -0.3470   23.8623 H   0  0  0  0  0  0  0  0  0  0  0  0
    6.7856   -2.0110   23.7432 H   0  0  0  0  0  0  0  0  0  0  0  0
    9.7818   -2.5852   23.8381 N   0  0  0  0  0  0  0  0  0  0  0  0
   10.7902   -2.7547   22.9214 C   0  0  0  0  0  0  0  0  0  0  0  0
   11.6682   -3.3354   23.1584 H   0  0  0  0  0  0  0  0  0  0  0  0
   10.5011   -2.0988   21.7657 C   0  0  0  0  0  0  0  0  0  0  0  0
   11.0548   -1.9500   20.8488 H   0  0  0  0  0  0  0  0  0  0  0  0
    9.3549    0.5486   20.7466 C   0  0  0  0  0  0  0  0  0  0  0  0
    9.6325    0.7246   19.7042 H   0  0  0  0  0  0  0  0  0  0  0  0
   10.2410    0.5711   21.3808 H   0  0  0  0  0  0  0  0  0  0  0  0
    8.6653    1.3379   21.0563 H   0  0  0  0  0  0  0  0  0  0  0  0
    5.3260    0.6135   20.1707 C   0  0  0  0  0  0  0  0  0  0  0  0
    4.8477    0.6419   21.1504 H   0  0  0  0  0  0  0  0  0  0  0  0
    4.7563    1.2785   19.0737 C   0  0  0  0  0  0  0  0  0  0  0  0
    3.8331    1.8480   19.1640 H   0  0  0  0  0  0  0  0  0  0  0  0
  1  2  1  0
  2  3  2  0
  3  4  1  0
  4  5  1  0
  4  6  2  0
  6  7  1  0
  7  8  1  0
  7  9  1  0
  9 10  1  0
 10 11  1  0
 11 12  1  0
 12 13  1  0
 12 14  1  0
 12 15  1  0
 11 16  2  0
 16 17  1  0
 17 18  1  0
 17 19  2  0
 19 20  1  0
  9 21  1  0
 21 22  1  0
 21 23  1  0
 21 24  1  0
  6 25  1  0
 25 26  1  0
 25 27  2  0
 27 28  1  0
 27  2  1  0
 19 10  1  0
M  END
>  <plip>  (1) 
-0.07142857142857142

>  <filename>  (1) 
[H][c]1[n][c]([H])[c]([N]([H])[N]([n]2[c]([C]([H])([H])[H])[n][c]([H])[c]2[H])[C]([H])([H])[H])[c]([H])[c]1[H]

$$$$
