
     RDKit          3D

 29 30  0  0  0  0  0  0  0  0999 V2000
    4.9301    1.7885   17.0210 H   0  0  0  0  0  0  0  0  0  0  0  0
    5.4086    1.2796   17.8495 C   0  0  0  0  0  0  0  0  0  0  0  0
    6.5657    0.6612   17.5608 N   0  0  0  0  0  0  0  0  0  0  0  0
    7.2090    0.0622   18.5683 C   0  0  0  0  0  0  0  0  0  0  0  0
    8.1559   -0.4196   18.3401 H   0  0  0  0  0  0  0  0  0  0  0  0
    6.7179    0.0190   19.8922 C   0  0  0  0  0  0  0  0  0  0  0  0
    7.4215   -0.6774   20.9345 N   0  0  0  0  0  0  0  0  0  0  0  0
    6.8050   -1.6308   21.7668 C   0  0  0  0  0  0  0  0  0  0  0  0
    5.7165   -2.1127   21.5945 O   0  0  0  0  0  0  0  0  0  0  0  0
    7.7508   -1.8940   22.7448 N   0  0  0  0  0  0  0  0  0  0  0  0
    7.6059   -2.9424   23.6201 O   0  0  0  0  0  0  0  0  0  0  0  0
    7.3369   -2.4907   24.9680 C   0  0  0  0  0  0  0  0  0  0  0  0
    6.5821   -3.1843   25.3565 H   0  0  0  0  0  0  0  0  0  0  0  0
    6.9143   -1.4758   24.9581 H   0  0  0  0  0  0  0  0  0  0  0  0
    8.5940   -2.5326   25.8458 C   0  0  0  0  0  0  0  0  0  0  0  0
    8.9649   -3.5666   25.8766 H   0  0  0  0  0  0  0  0  0  0  0  0
    9.3877   -1.9364   25.3716 H   0  0  0  0  0  0  0  0  0  0  0  0
    8.3801   -2.0502   27.2082 N   0  0  0  0  0  0  0  0  0  0  0  0
    8.0614   -1.0825   27.2037 H   0  0  0  0  0  0  0  0  0  0  0  0
    7.6606   -2.5939   27.6789 H   0  0  0  0  0  0  0  0  0  0  0  0
    9.0868   -1.5438   22.3391 C   0  0  0  0  0  0  0  0  0  0  0  0
    9.6469   -0.9871   23.0938 H   0  0  0  0  0  0  0  0  0  0  0  0
    9.6884   -2.4070   22.0482 H   0  0  0  0  0  0  0  0  0  0  0  0
    8.7956   -0.6664   21.1503 C   0  0  0  0  0  0  0  0  0  0  0  0
    9.6099   -0.0717   20.4951 O   0  0  0  0  0  0  0  0  0  0  0  0
    5.4905    0.6323   20.1712 C   0  0  0  0  0  0  0  0  0  0  0  0
    5.0699    0.5685   21.1741 H   0  0  0  0  0  0  0  0  0  0  0  0
    4.8325    1.2935   19.1256 C   0  0  0  0  0  0  0  0  0  0  0  0
    3.8945    1.8190   19.2851 H   0  0  0  0  0  0  0  0  0  0  0  0
  1  2  1  0
  2  3  2  0
  3  4  1  0
  4  5  1  0
  4  6  2  0
  6  7  1  0
  7  8  1  0
  8  9  2  0
  8 10  1  0
 10 11  1  0
 11 12  1  0
 12 13  1  0
 12 14  1  0
 12 15  1  0
 15 16  1  0
 15 17  1  0
 15 18  1  0
 18 19  1  0
 18 20  1  0
 10 21  1  0
 21 22  1  0
 21 23  1  0
 21 24  1  0
 24 25  2  0
  6 26  1  0
 26 27  1  0
 26 28  2  0
 28 29  1  0
 28  2  1  0
 24  7  1  0
M  END
>  <plip>  (1) 
-0.10714285714285714

>  <filename>  (1) 
[H][c]1[n][c]([H])[c]([N]2[C](=[O])[N]([O][C]([H])([H])[C]([H])([H])[N]([H])[H])[C]([H])([H])[C]2=[O])[c]([H])[c]1[H]

$$$$
