
     RDKit          3D

 37 40  0  0  0  0  0  0  0  0999 V2000
    5.0412    1.7879   16.9906 H   0  0  0  0  0  0  0  0  0  0  0  0
    5.4916    1.2853   17.8442 C   0  0  0  0  0  0  0  0  0  0  0  0
    6.6788    0.6931   17.6208 N   0  0  0  0  0  0  0  0  0  0  0  0
    7.2559    0.0658   18.6497 C   0  0  0  0  0  0  0  0  0  0  0  0
    8.2381   -0.3781   18.5009 H   0  0  0  0  0  0  0  0  0  0  0  0
    6.6554   -0.0582   19.9133 C   0  0  0  0  0  0  0  0  0  0  0  0
    7.3383   -0.7920   20.9295 N   0  0  0  0  0  0  0  0  0  0  0  0
    8.7129   -0.5436   20.9635 N   0  0  0  0  0  0  0  0  0  0  0  0
    9.3614   -0.9003   22.0222 C   0  0  0  0  0  0  0  0  0  0  0  0
   10.8314   -0.6341   22.0688 C   0  0  0  0  0  0  0  0  0  0  0  0
   11.7132   -1.6992   22.0241 C   0  0  0  0  0  0  0  0  0  0  0  0
   11.3220   -2.7082   21.9430 H   0  0  0  0  0  0  0  0  0  0  0  0
   13.1187   -1.5119   22.0978 C   0  0  0  0  0  0  0  0  0  0  0  0
   13.7733   -2.3739   21.9835 H   0  0  0  0  0  0  0  0  0  0  0  0
   13.6348   -0.2567   22.3206 C   0  0  0  0  0  0  0  0  0  0  0  0
   14.6950   -0.0690   22.4376 H   0  0  0  0  0  0  0  0  0  0  0  0
   12.7777    0.8782   22.3851 C   0  0  0  0  0  0  0  0  0  0  0  0
   13.3626    2.1010   22.6114 N   0  0  0  0  0  0  0  0  0  0  0  0
   12.5939    3.1644   22.5651 C   0  0  0  0  0  0  0  0  0  0  0  0
   13.0709    4.1304   22.7458 H   0  0  0  0  0  0  0  0  0  0  0  0
   11.1978    3.1209   22.3000 C   0  0  0  0  0  0  0  0  0  0  0  0
   10.6317    4.0469   22.2740 H   0  0  0  0  0  0  0  0  0  0  0  0
   10.5875    1.9035   22.1151 C   0  0  0  0  0  0  0  0  0  0  0  0
    9.5201    1.8334   21.9098 H   0  0  0  0  0  0  0  0  0  0  0  0
   11.3642    0.7040   22.1765 C   0  0  0  0  0  0  0  0  0  0  0  0
    8.6669   -1.5370   23.2066 C   0  0  0  0  0  0  0  0  0  0  0  0
    9.3751   -2.1173   23.8047 H   0  0  0  0  0  0  0  0  0  0  0  0
    8.3309   -0.7083   23.8469 H   0  0  0  0  0  0  0  0  0  0  0  0
    7.4820   -2.4066   22.7796 C   0  0  0  0  0  0  0  0  0  0  0  0
    7.8024   -3.4069   22.4647 H   0  0  0  0  0  0  0  0  0  0  0  0
    6.7751   -2.5496   23.5996 H   0  0  0  0  0  0  0  0  0  0  0  0
    6.6875   -1.8387   21.6213 C   0  0  0  0  0  0  0  0  0  0  0  0
    5.5990   -2.2843   21.2994 O   0  0  0  0  0  0  0  0  0  0  0  0
    5.4287    0.5723   20.1502 C   0  0  0  0  0  0  0  0  0  0  0  0
    4.9602    0.5276   21.1332 H   0  0  0  0  0  0  0  0  0  0  0  0
    4.8451    1.2683   19.0851 C   0  0  0  0  0  0  0  0  0  0  0  0
    3.9097    1.8055   19.2040 H   0  0  0  0  0  0  0  0  0  0  0  0
  1  2  1  0
  2  3  2  0
  3  4  1  0
  4  5  1  0
  4  6  2  0
  6  7  1  0
  7  8  1  0
  8  9  2  0
  9 10  1  0
 10 11  2  0
 11 12  1  0
 11 13  1  0
 13 14  1  0
 13 15  2  0
 15 16  1  0
 15 17  1  0
 17 18  2  0
 18 19  1  0
 19 20  1  0
 19 21  2  0
 21 22  1  0
 21 23  1  0
 23 24  1  0
 23 25  2  0
  9 26  1  0
 26 27  1  0
 26 28  1  0
 26 29  1  0
 29 30  1  0
 29 31  1  0
 29 32  1  0
 32 33  2  0
  6 34  1  0
 34 35  1  0
 34 36  2  0
 36 37  1  0
 36  2  1  0
 32  7  1  0
 25 10  1  0
 25 17  1  0
M  END
>  <plip>  (1) 
-0.13793103448275862

>  <filename>  (1) 
[H][c]1[n][c]([H])[c]([N]2[N]=[C]([c]3[c]([H])[c]([H])[c]([H])[c]4[n][c]([H])[c]([H])[c]([H])[c]34)[C]([H])([H])[C]([H])([H])[C]2=[O])[c]([H])[c]1[H]

$$$$
