
     RDKit          3D

 33 35  0  0  0  0  0  0  0  0999 V2000
    4.8141    1.3207   19.0468 C   0  0  0  0  0  0  0  0  0  0  0  0
    5.4434    1.2941   17.7987 C   0  0  0  0  0  0  0  0  0  0  0  0
    6.5757    0.6135   17.5573 N   0  0  0  0  0  0  0  0  0  0  0  0
    7.1316   -0.0435   18.5810 C   0  0  0  0  0  0  0  0  0  0  0  0
    6.6325   -0.0140   19.8946 C   0  0  0  0  0  0  0  0  0  0  0  0
    7.3909   -0.7127   20.9717 C   0  0  0  0  0  0  0  0  0  0  0  0
    7.7421   -1.9725   20.6845 N   0  0  0  0  0  0  0  0  0  0  0  0
    8.3104   -2.7164   21.6406 C   0  0  0  0  0  0  0  0  0  0  0  0
    8.6149   -2.2120   22.9051 C   0  0  0  0  0  0  0  0  0  0  0  0
    8.3347   -0.8726   23.1902 C   0  0  0  0  0  0  0  0  0  0  0  0
    7.7113   -0.0623   22.2281 C   0  0  0  0  0  0  0  0  0  0  0  0
    7.4890    1.2989   22.4936 N   0  0  0  0  0  0  0  0  0  0  0  0
    7.3263    1.8666   23.8154 C   0  0  0  0  0  0  0  0  0  0  0  0
    6.0395    1.4199   24.4530 C   0  0  0  0  0  0  0  0  0  0  0  0
    5.9796    0.3645   25.3550 C   0  0  0  0  0  0  0  0  0  0  0  0
    4.8411   -0.0475   25.9245 N   0  0  0  0  0  0  0  0  0  0  0  0
    3.7283    0.5634   25.5314 C   0  0  0  0  0  0  0  0  0  0  0  0
    3.6492    1.5493   24.6343 N   0  0  0  0  0  0  0  0  0  0  0  0
    4.8057    1.9606   24.1074 C   0  0  0  0  0  0  0  0  0  0  0  0
    4.7305    2.7997   23.4064 H   0  0  0  0  0  0  0  0  0  0  0  0
    2.7916    0.2377   25.9951 H   0  0  0  0  0  0  0  0  0  0  0  0
    6.8916   -0.1595   25.6614 H   0  0  0  0  0  0  0  0  0  0  0  0
    8.1931    1.6206   24.4445 H   0  0  0  0  0  0  0  0  0  0  0  0
    7.3602    2.9586   23.7043 H   0  0  0  0  0  0  0  0  0  0  0  0
    7.0695    1.8389   21.7473 H   0  0  0  0  0  0  0  0  0  0  0  0
    8.6026   -0.4581   24.1613 H   0  0  0  0  0  0  0  0  0  0  0  0
    9.0795   -2.8551   23.6434 H   0  0  0  0  0  0  0  0  0  0  0  0
    8.5379   -3.7482   21.3854 H   0  0  0  0  0  0  0  0  0  0  0  0
    5.4248    0.6627   20.1175 C   0  0  0  0  0  0  0  0  0  0  0  0
    4.9580    0.6573   21.1053 H   0  0  0  0  0  0  0  0  0  0  0  0
    8.0322   -0.6080   18.3506 H   0  0  0  0  0  0  0  0  0  0  0  0
    5.0109    1.8293   16.9541 H   0  0  0  0  0  0  0  0  0  0  0  0
    3.8763    1.8540   19.1639 H   0  0  0  0  0  0  0  0  0  0  0  0
  1  2  2  0
  2  3  1  0
  3  4  2  0
  4  5  1  0
  5  6  1  0
  6  7  2  0
  7  8  1  0
  8  9  2  0
  9 10  1  0
 10 11  2  0
 11 12  1  0
 12 13  1  0
 13 14  1  0
 14 15  2  0
 15 16  1  0
 16 17  2  0
 17 18  1  0
 18 19  2  0
 19 20  1  0
 17 21  1  0
 15 22  1  0
 13 23  1  0
 13 24  1  0
 12 25  1  0
 10 26  1  0
  9 27  1  0
  8 28  1  0
  5 29  2  0
 29 30  1  0
  4 31  1  0
  2 32  1  0
  1 33  1  0
 29  1  1  0
 11  6  1  0
 19 14  1  0
M  END
>  <plip>  (1) 
-0.10714285714285714

>  <filename>  (1) 
[H][c]1[n][c]([H])[c]([C]([H])([H])[N]([H])[c]2[c](-[c]3[c]([H])[n][c]([H])[c]([H])[c]3[H])[n][c]([H])[c]([H])[c]2[H])[c]([H])[n]1

$$$$
