
     RDKit          3D

 37 39  0  0  0  0  0  0  0  0999 V2000
    4.9504    1.7892   16.9960 H   0  0  0  0  0  0  0  0  0  0  0  0
    5.4024    1.2897   17.8520 C   0  0  0  0  0  0  0  0  0  0  0  0
    6.5636    0.6653   17.6117 N   0  0  0  0  0  0  0  0  0  0  0  0
    7.1515    0.0378   18.6343 C   0  0  0  0  0  0  0  0  0  0  0  0
    8.1003   -0.4357   18.3810 H   0  0  0  0  0  0  0  0  0  0  0  0
    6.6175   -0.0356   19.9345 C   0  0  0  0  0  0  0  0  0  0  0  0
    7.3721   -0.7354   20.9976 C   0  0  0  0  0  0  0  0  0  0  0  0
    6.6025   -1.2782   22.0021 O   0  0  0  0  0  0  0  0  0  0  0  0
    7.1853   -1.9607   23.0149 C   0  0  0  0  0  0  0  0  0  0  0  0
    6.2581   -2.4268   23.8366 O   0  0  0  0  0  0  0  0  0  0  0  0
    6.6770   -3.1889   24.9863 C   0  0  0  0  0  0  0  0  0  0  0  0
    7.2619   -4.0607   24.6573 H   0  0  0  0  0  0  0  0  0  0  0  0
    7.3138   -2.5608   25.6272 H   0  0  0  0  0  0  0  0  0  0  0  0
    5.4462   -3.6550   25.7670 C   0  0  0  0  0  0  0  0  0  0  0  0
    5.8098   -4.1430   26.6808 H   0  0  0  0  0  0  0  0  0  0  0  0
    4.8691   -2.7775   26.0882 H   0  0  0  0  0  0  0  0  0  0  0  0
    4.5726   -4.6123   24.9842 C   0  0  0  0  0  0  0  0  0  0  0  0
    3.5009   -4.1207   24.2266 C   0  0  0  0  0  0  0  0  0  0  0  0
    3.3026   -3.0521   24.2603 H   0  0  0  0  0  0  0  0  0  0  0  0
    2.7218   -4.9820   23.4453 C   0  0  0  0  0  0  0  0  0  0  0  0
    1.8906   -4.5933   22.8623 H   0  0  0  0  0  0  0  0  0  0  0  0
    3.0153   -6.3492   23.4101 C   0  0  0  0  0  0  0  0  0  0  0  0
    2.4159   -7.0169   22.7957 H   0  0  0  0  0  0  0  0  0  0  0  0
    4.0800   -6.8543   24.1665 C   0  0  0  0  0  0  0  0  0  0  0  0
    4.3123   -7.9162   24.1388 H   0  0  0  0  0  0  0  0  0  0  0  0
    4.8507   -5.9894   24.9512 C   0  0  0  0  0  0  0  0  0  0  0  0
    5.6771   -6.3777   25.5437 H   0  0  0  0  0  0  0  0  0  0  0  0
    8.5236   -2.1074   23.1312 C   0  0  0  0  0  0  0  0  0  0  0  0
    8.9944   -2.6285   23.9536 H   0  0  0  0  0  0  0  0  0  0  0  0
    9.3998   -1.5121   22.1414 C   0  0  0  0  0  0  0  0  0  0  0  0
   10.6165   -1.5780   22.2055 O   0  0  0  0  0  0  0  0  0  0  0  0
    8.7167   -0.8155   21.0466 C   0  0  0  0  0  0  0  0  0  0  0  0
    9.3365   -0.3247   20.3177 H   0  0  0  0  0  0  0  0  0  0  0  0
    5.4017    0.6318   20.1699 C   0  0  0  0  0  0  0  0  0  0  0  0
    4.9675    0.6342   21.1702 H   0  0  0  0  0  0  0  0  0  0  0  0
    4.7927    1.3056   19.1106 C   0  0  0  0  0  0  0  0  0  0  0  0
    3.8662    1.8549   19.2373 H   0  0  0  0  0  0  0  0  0  0  0  0
  1  2  1  0
  2  3  2  0
  3  4  1  0
  4  5  1  0
  4  6  2  0
  6  7  1  0
  7  8  1  0
  8  9  1  0
  9 10  1  0
 10 11  1  0
 11 12  1  0
 11 13  1  0
 11 14  1  0
 14 15  1  0
 14 16  1  0
 14 17  1  0
 17 18  2  0
 18 19  1  0
 18 20  1  0
 20 21  1  0
 20 22  2  0
 22 23  1  0
 22 24  1  0
 24 25  1  0
 24 26  2  0
 26 27  1  0
  9 28  2  0
 28 29  1  0
 28 30  1  0
 30 31  2  0
 30 32  1  0
 32 33  1  0
  6 34  1  0
 34 35  1  0
 34 36  2  0
 36 37  1  0
 36  2  1  0
 32  7  2  0
 26 17  1  0
M  END
>  <plip>  (1) 
-0.034482758620689655

>  <filename>  (1) 
[H][c]1[n][c]([H])[c](-[c]2[o][c]([O][C]([H])([H])[C]([H])([H])[c]3[c]([H])[c]([H])[c]([H])[c]([H])[c]3[H])[c]([H])[c](=[O])[c]2[H])[c]([H])[c]1[H]

$$$$
