
     RDKit          3D

 21 22  0  0  0  0  0  0  0  0999 V2000
    7.6418   -2.2601   19.8923 H   0  0  0  0  0  0  0  0  0  0  0  0
    7.8529   -1.9342   20.8350 N   0  0  0  0  0  0  0  0  0  0  0  0
    7.3941   -0.7579   20.9717 C   0  0  0  0  0  0  0  0  0  0  0  0
    6.6581    0.0042   19.9164 C   0  0  0  0  0  0  0  0  0  0  0  0
    7.1730    0.0487   18.6170 C   0  0  0  0  0  0  0  0  0  0  0  0
    8.1226   -0.4288   18.3798 H   0  0  0  0  0  0  0  0  0  0  0  0
    6.5727    0.6728   17.5974 N   0  0  0  0  0  0  0  0  0  0  0  0
    5.4059    1.2886   17.8443 C   0  0  0  0  0  0  0  0  0  0  0  0
    4.9221    1.7759   16.9994 H   0  0  0  0  0  0  0  0  0  0  0  0
    4.8027    1.3079   19.1065 C   0  0  0  0  0  0  0  0  0  0  0  0
    3.8708    1.8437   19.2567 H   0  0  0  0  0  0  0  0  0  0  0  0
    5.4373    0.6575   20.1636 C   0  0  0  0  0  0  0  0  0  0  0  0
    5.0003    0.6395   21.1684 H   0  0  0  0  0  0  0  0  0  0  0  0
    7.5633   -0.0941   22.2132 N   0  0  0  0  0  0  0  0  0  0  0  0
    7.9225   -0.7235   23.3825 C   0  0  0  0  0  0  0  0  0  0  0  0
    8.0739   -1.7931   23.4568 H   0  0  0  0  0  0  0  0  0  0  0  0
    8.0514    0.1100   24.3702 N   0  0  0  0  0  0  0  0  0  0  0  0
    7.7769    1.3578   23.8597 C   0  0  0  0  0  0  0  0  0  0  0  0
    7.8192    2.2551   24.4669 H   0  0  0  0  0  0  0  0  0  0  0  0
    7.4740    1.2690   22.5396 C   0  0  0  0  0  0  0  0  0  0  0  0
    7.2294    2.0316   21.8173 H   0  0  0  0  0  0  0  0  0  0  0  0
  1  2  1  0
  2  3  2  3
  3  4  1  0
  4  5  2  0
  5  6  1  0
  5  7  1  0
  7  8  2  0
  8  9  1  0
  8 10  1  0
 10 11  1  0
 10 12  2  0
 12 13  1  0
  3 14  1  0
 14 15  1  0
 15 16  1  0
 15 17  2  0
 17 18  1  0
 18 19  1  0
 18 20  2  0
 20 21  1  0
 12  4  1  0
 20 14  1  0
M  END
>  <plip>  (1) 
-0.0

>  <filename>  (1) 
[H][N]=[C]([c]1[c]([H])[n][c]([H])[c]([H])[c]1[H])[n]1[c]([H])[n][c]([H])[c]1[H]

$$$$
