
     RDKit          3D

 39 42  0  0  0  0  0  0  0  0999 V2000
    5.9919    6.0827   23.0145 C   0  0  0  0  0  0  0  0  0  0  0  0
    7.4243    5.6005   23.1024 C   0  0  0  0  0  0  0  0  0  0  0  0
    8.4797    6.3740   22.5912 C   0  0  0  0  0  0  0  0  0  0  0  0
    9.8003    5.9153   22.6382 C   0  0  0  0  0  0  0  0  0  0  0  0
   10.0848    4.6701   23.2057 C   0  0  0  0  0  0  0  0  0  0  0  0
    9.0549    3.8925   23.7450 C   0  0  0  0  0  0  0  0  0  0  0  0
    9.3551    2.5058   24.2848 C   0  0  0  0  0  0  0  0  0  0  0  0
    9.2229    1.4996   23.1927 C   0  0  0  0  0  0  0  0  0  0  0  0
   10.2156    1.1039   22.4452 N   0  0  0  0  0  0  0  0  0  0  0  0
    9.6035    0.2315   21.5539 O   0  0  0  0  0  0  0  0  0  0  0  0
    8.3055    0.1983   21.8639 C   0  0  0  0  0  0  0  0  0  0  0  0
    7.3842   -0.6596   21.0573 C   0  0  0  0  0  0  0  0  0  0  0  0
    6.6662    0.0237   19.9133 C   0  0  0  0  0  0  0  0  0  0  0  0
    5.4537    0.6753   20.1477 C   0  0  0  0  0  0  0  0  0  0  0  0
    4.8053    1.3216   19.0941 C   0  0  0  0  0  0  0  0  0  0  0  0
    5.3933    1.2950   17.8263 C   0  0  0  0  0  0  0  0  0  0  0  0
    6.5532    0.6698   17.5708 N   0  0  0  0  0  0  0  0  0  0  0  0
    7.1665    0.0586   18.5945 C   0  0  0  0  0  0  0  0  0  0  0  0
    8.1158   -0.4219   18.3507 H   0  0  0  0  0  0  0  0  0  0  0  0
    4.9200    1.7981   16.9828 H   0  0  0  0  0  0  0  0  0  0  0  0
    3.8697    1.8466   19.2404 H   0  0  0  0  0  0  0  0  0  0  0  0
    5.0350    0.6496   21.1543 H   0  0  0  0  0  0  0  0  0  0  0  0
    7.7186   -2.1110   20.8614 C   0  0  0  0  0  0  0  0  0  0  0  0
    6.6504   -1.7412   21.8421 C   0  0  0  0  0  0  0  0  0  0  0  0
    6.8099   -1.8181   22.9189 H   0  0  0  0  0  0  0  0  0  0  0  0
    5.6371   -1.9679   21.5175 H   0  0  0  0  0  0  0  0  0  0  0  0
    8.6992   -2.4947   21.1380 H   0  0  0  0  0  0  0  0  0  0  0  0
    7.2765   -2.5097   19.9624 H   0  0  0  0  0  0  0  0  0  0  0  0
    8.0051    0.9606   22.8724 N   0  0  0  0  0  0  0  0  0  0  0  0
    8.6348    2.2196   25.0581 H   0  0  0  0  0  0  0  0  0  0  0  0
   10.3646    2.4432   24.7033 H   0  0  0  0  0  0  0  0  0  0  0  0
    7.7342    4.3529   23.6670 C   0  0  0  0  0  0  0  0  0  0  0  0
    6.9295    3.7139   24.0305 H   0  0  0  0  0  0  0  0  0  0  0  0
   11.1018    4.2818   23.2127 H   0  0  0  0  0  0  0  0  0  0  0  0
   10.6031    6.5117   22.2140 H   0  0  0  0  0  0  0  0  0  0  0  0
    8.2500    7.3373   22.1404 H   0  0  0  0  0  0  0  0  0  0  0  0
    5.9360    7.1773   23.0300 H   0  0  0  0  0  0  0  0  0  0  0  0
    5.5116    5.7459   22.0854 H   0  0  0  0  0  0  0  0  0  0  0  0
    5.3912    5.7064   23.8501 H   0  0  0  0  0  0  0  0  0  0  0  0
  1  2  1  0
  2  3  2  0
  3  4  1  0
  4  5  2  0
  5  6  1  0
  6  7  1  0
  7  8  1  0
  8  9  2  0
  9 10  1  0
 10 11  1  0
 11 12  1  0
 12 13  1  0
 13 14  2  0
 14 15  1  0
 15 16  2  0
 16 17  1  0
 17 18  2  0
 18 19  1  0
 16 20  1  0
 15 21  1  0
 14 22  1  0
 12 23  1  0
 23 24  1  0
 24 25  1  0
 24 26  1  0
 23 27  1  0
 23 28  1  0
 11 29  2  0
  7 30  1  0
  7 31  1  0
  6 32  2  0
 32 33  1  0
  5 34  1  0
  4 35  1  0
  3 36  1  0
  1 37  1  0
  1 38  1  0
  1 39  1  0
 32  2  1  0
 29  8  1  0
 24 12  1  0
 18 13  1  0
M  END
>  <plip>  (1) 
-0.10714285714285714

>  <filename>  (1) 
[H][c]1[n][c]([H])[c]([C]2([c]3[n][c]([C]([H])([H])[c]4[c]([H])[c]([H])[c]([H])[c]([C]([H])([H])[H])[c]4[H])[n][o]3)[C]([H])([H])[C]2([H])[H])[c]([H])[c]1[H]

$$$$
