
     RDKit          3D

 37 39  0  0  0  0  0  0  0  0999 V2000
    7.5196    1.1238   22.5770 C   0  0  0  0  0  0  0  0  0  0  0  0
    7.2880   -0.2944   22.2963 N   0  0  0  0  0  0  0  0  0  0  0  0
    7.2406   -0.7891   21.0063 C   0  0  0  0  0  0  0  0  0  0  0  0
    7.6811   -1.8868   20.7137 O   0  0  0  0  0  0  0  0  0  0  0  0
    6.5982    0.0655   19.9552 C   0  0  0  0  0  0  0  0  0  0  0  0
    5.3939    0.7725   20.1066 C   0  0  0  0  0  0  0  0  0  0  0  0
    4.8388    1.3866   18.9835 C   0  0  0  0  0  0  0  0  0  0  0  0
    5.5307    1.3170   17.7692 C   0  0  0  0  0  0  0  0  0  0  0  0
    6.6849    0.6483   17.6155 N   0  0  0  0  0  0  0  0  0  0  0  0
    7.1827    0.0215   18.6850 C   0  0  0  0  0  0  0  0  0  0  0  0
    8.0965   -0.5427   18.5158 H   0  0  0  0  0  0  0  0  0  0  0  0
    5.1365    1.8131   16.8846 H   0  0  0  0  0  0  0  0  0  0  0  0
    3.8997    1.9276   19.0399 H   0  0  0  0  0  0  0  0  0  0  0  0
    4.8967    0.8280   21.0775 H   0  0  0  0  0  0  0  0  0  0  0  0
    7.3142   -1.2530   23.4289 C   0  0  0  0  0  0  0  0  0  0  0  0
    8.6736   -1.3275   24.1974 C   0  0  0  0  0  0  0  0  0  0  0  0
    8.3778   -0.8157   25.5929 C   0  0  0  0  0  0  0  0  0  0  0  0
    9.2524   -0.5823   26.6621 C   0  0  0  0  0  0  0  0  0  0  0  0
    8.7390   -0.1433   27.8927 C   0  0  0  0  0  0  0  0  0  0  0  0
    7.3590    0.1102   28.0188 C   0  0  0  0  0  0  0  0  0  0  0  0
    6.7646    0.7146   29.3184 C   0  0  0  0  0  0  0  0  0  0  0  0
    5.5142    0.8679   29.4028 O   0  0  0  0  0  0  0  0  0  0  0  0
    7.5260    1.0587   30.2533 O   0  0  0  0  0  1  0  0  0  0  0  0
    6.4802   -0.1288   26.9512 C   0  0  0  0  0  0  0  0  0  0  0  0
    7.0069   -0.5992   25.7533 C   0  0  0  0  0  0  0  0  0  0  0  0
    6.2439   -0.8943   24.4950 C   0  0  0  0  0  0  0  0  0  0  0  0
    5.6535   -0.0201   24.1958 H   0  0  0  0  0  0  0  0  0  0  0  0
    5.5325   -1.7169   24.6445 H   0  0  0  0  0  0  0  0  0  0  0  0
    5.4032    0.0387   27.0230 H   0  0  0  0  0  0  0  0  0  0  0  0
    9.4274   -0.0149   28.7332 H   0  0  0  0  0  0  0  0  0  0  0  0
   10.3241   -0.7173   26.5357 H   0  0  0  0  0  0  0  0  0  0  0  0
    9.4618   -0.7624   23.6871 H   0  0  0  0  0  0  0  0  0  0  0  0
    9.0229   -2.3687   24.2504 H   0  0  0  0  0  0  0  0  0  0  0  0
    7.0915   -2.2391   23.0131 H   0  0  0  0  0  0  0  0  0  0  0  0
    7.5553    1.2843   23.6599 H   0  0  0  0  0  0  0  0  0  0  0  0
    8.4754    1.4706   22.1566 H   0  0  0  0  0  0  0  0  0  0  0  0
    6.7249    1.7570   22.1636 H   0  0  0  0  0  0  0  0  0  0  0  0
  1  2  1  0
  2  3  1  0
  3  4  2  0
  3  5  1  0
  5  6  2  0
  6  7  1  0
  7  8  2  0
  8  9  1  0
  9 10  2  0
 10 11  1  0
  8 12  1  0
  7 13  1  0
  6 14  1  0
  2 15  1  0
 15 16  1  0
 16 17  1  0
 17 18  2  0
 18 19  1  0
 19 20  2  0
 20 21  1  0
 21 22  2  0
 21 23  1  0
 20 24  1  0
 24 25  2  0
 25 26  1  0
 26 27  1  0
 26 28  1  0
 24 29  1  0
 19 30  1  0
 18 31  1  0
 16 32  1  0
 16 33  1  0
 15 34  1  0
  1 35  1  0
  1 36  1  0
  1 37  1  0
 10  5  1  0
 26 15  1  0
 25 17  1  0
M  CHG  1  23  -1
M  END
>  <plip>  (1) 
-0.06666666666666667

>  <filename>  (1) 
[H][c]1[n][c]([H])[c]([C](=[O])[N]([C]([H])([H])[H])[C]2([H])[C]([H])([H])[c]3[c]([H])[c]([H])[c]([C](=[O])[O-])[c]([H])[c]3[C]2([H])[H])[c]([H])[c]1[H]

$$$$
