
     RDKit          3D

 52 55  0  0  0  0  0  0  0  0999 V2000
    2.3680   -5.4840   24.0081 Br  0  0  0  0  0  0  0  0  0  0  0  0
    3.8679   -5.3851   25.2007 C   0  0  0  0  0  0  0  0  0  0  0  0
    3.6987   -5.8369   26.5117 C   0  0  0  0  0  0  0  0  0  0  0  0
    4.7441   -5.7445   27.4329 C   0  0  0  0  0  0  0  0  0  0  0  0
    5.9705   -5.2103   27.0415 C   0  0  0  0  0  0  0  0  0  0  0  0
    6.1625   -4.7850   25.7229 C   0  0  0  0  0  0  0  0  0  0  0  0
    5.1071   -4.8472   24.7916 C   0  0  0  0  0  0  0  0  0  0  0  0
    5.2575   -4.3264   23.4986 N   0  0  0  0  0  0  0  0  0  0  0  0
    6.4375   -3.9338   22.8927 C   0  0  0  0  0  0  0  0  0  0  0  0
    6.0454   -3.3972   21.7052 C   0  0  0  0  0  0  0  0  0  0  0  0
    6.8493   -2.9326   20.5249 C   0  0  0  0  0  0  0  0  0  0  0  0
    7.8585   -1.8473   20.7178 N   0  0  0  0  0  4  0  0  0  0  0  0
    7.2824   -0.5990   21.2111 C   0  0  0  0  0  0  0  0  0  0  0  0
    6.6375    0.0333   20.0270 C   0  0  0  0  0  0  0  0  0  0  0  0
    5.4192    0.6904   20.1684 C   0  0  0  0  0  0  0  0  0  0  0  0
    4.8803    1.2895   19.0358 C   0  0  0  0  0  0  0  0  0  0  0  0
    5.5566    1.2060   17.8127 C   0  0  0  0  0  0  0  0  0  0  0  0
    6.7182    0.5405   17.6716 N   0  0  0  0  0  0  0  0  0  0  0  0
    7.2448   -0.0302   18.7652 C   0  0  0  0  0  0  0  0  0  0  0  0
    8.1775   -0.5763   18.6628 H   0  0  0  0  0  0  0  0  0  0  0  0
    5.1223    1.6891   16.9433 H   0  0  0  0  0  0  0  0  0  0  0  0
    3.9430    1.8278   19.0994 H   0  0  0  0  0  0  0  0  0  0  0  0
    4.9146    0.7316   21.1336 H   0  0  0  0  0  0  0  0  0  0  0  0
    8.3862    0.3122   21.7580 C   0  0  0  0  0  0  0  0  0  0  0  0
    8.7764   -0.1650   23.1576 C   0  0  0  0  0  0  0  0  0  0  0  0
    9.7710    0.8107   23.7795 C   0  0  0  0  0  0  0  0  0  0  0  0
   11.0197    0.9395   22.9021 C   0  0  0  0  0  0  0  0  0  0  0  0
   10.6609    1.3423   21.4677 C   0  0  0  0  0  0  0  0  0  0  0  0
    9.6430    0.3679   20.8706 C   0  0  0  0  0  0  0  0  0  0  0  0
   10.0916   -0.6272   20.7981 H   0  0  0  0  0  0  0  0  0  0  0  0
    9.3744    0.6771   19.8588 H   0  0  0  0  0  0  0  0  0  0  0  0
   10.2381    2.3502   21.4645 H   0  0  0  0  0  0  0  0  0  0  0  0
   11.5667    1.3672   20.8570 H   0  0  0  0  0  0  0  0  0  0  0  0
   11.6987    1.6791   23.3330 H   0  0  0  0  0  0  0  0  0  0  0  0
   11.5421   -0.0201   22.8844 H   0  0  0  0  0  0  0  0  0  0  0  0
   10.0470    0.4678   24.7798 H   0  0  0  0  0  0  0  0  0  0  0  0
    9.2946    1.7886   23.8855 H   0  0  0  0  0  0  0  0  0  0  0  0
    9.2238   -1.1612   23.0959 H   0  0  0  0  0  0  0  0  0  0  0  0
    7.8865   -0.2407   23.7864 H   0  0  0  0  0  0  0  0  0  0  0  0
    7.9804    1.3263   21.8340 H   0  0  0  0  0  0  0  0  0  0  0  0
    6.5356   -0.7748   22.0031 H   0  0  0  0  0  0  0  0  0  0  0  0
    8.5968   -2.1376   21.3574 H   0  0  0  0  0  0  0  0  0  0  0  0
    8.2804   -1.6297   19.8113 H   0  0  0  0  0  0  0  0  0  0  0  0
    6.1418   -2.6019   19.7533 H   0  0  0  0  0  0  0  0  0  0  0  0
    7.3166   -3.8467   20.1524 H   0  0  0  0  0  0  0  0  0  0  0  0
    4.6802   -3.5217   21.5925 N   0  0  0  0  0  0  0  0  0  0  0  0
    4.2245   -4.0850   22.6493 N   0  0  0  0  0  0  0  0  0  0  0  0
    7.4407   -4.0967   23.2662 H   0  0  0  0  0  0  0  0  0  0  0  0
    7.1233   -4.3662   25.4384 H   0  0  0  0  0  0  0  0  0  0  0  0
    6.7686   -5.1104   27.7728 H   0  0  0  0  0  0  0  0  0  0  0  0
    4.6007   -6.0844   28.4538 H   0  0  0  0  0  0  0  0  0  0  0  0
    2.7421   -6.2463   26.8172 H   0  0  0  0  0  0  0  0  0  0  0  0
  1  2  1  0
  2  3  2  0
  3  4  1  0
  4  5  2  0
  5  6  1  0
  6  7  2  0
  7  8  1  0
  8  9  1  0
  9 10  2  0
 10 11  1  0
 11 12  1  0
 12 13  1  0
 13 14  1  0
 14 15  2  0
 15 16  1  0
 16 17  2  0
 17 18  1  0
 18 19  2  0
 19 20  1  0
 17 21  1  0
 16 22  1  0
 15 23  1  0
 13 24  1  0
 24 25  1  0
 25 26  1  0
 26 27  1  0
 27 28  1  0
 28 29  1  0
 29 30  1  0
 29 31  1  0
 28 32  1  0
 28 33  1  0
 27 34  1  0
 27 35  1  0
 26 36  1  0
 26 37  1  0
 25 38  1  0
 25 39  1  0
 24 40  1  0
 13 41  1  0
 12 42  1  0
 12 43  1  0
 11 44  1  0
 11 45  1  0
 10 46  1  0
 46 47  2  0
  9 48  1  0
  6 49  1  0
  5 50  1  0
  4 51  1  0
  3 52  1  0
  7  2  1  0
 47  8  1  0
 19 14  1  0
 29 24  1  0
M  CHG  1  12   1
M  END
>  <plip>  (1) 
-0.10344827586206896

>  <filename>  (1) 
[H][c]1[n][c]([H])[c]([C]([H])([C]2([H])[C]([H])([H])[C]([H])([H])[C]([H])([H])[C]([H])([H])[C]2([H])[H])[N+]([H])([H])[C]([H])([H])[c]2[n][n][n](-[c]3[c]([H])[c]([H])[c]([H])[c]([H])[c]3[Br])[c]2[H])[c]([H])[c]1[H]

$$$$
