
     RDKit          3D

 29 30  0  0  0  0  0  0  0  0999 V2000
   13.2265    2.4434   21.5902 H   0  0  0  0  0  0  0  0  0  0  0  0
   12.7510    1.6707   21.9423 O   0  0  0  0  0  0  0  0  0  0  0  0
   11.6563    1.7657   21.1701 C   0  0  0  0  0  0  0  0  0  0  0  0
   11.5550    2.7001   20.4162 O   0  0  0  0  0  0  0  0  0  0  0  0
   10.7456    0.6489   21.4020 C   0  0  0  0  0  0  0  0  0  0  0  0
   11.1487   -0.0995   22.0775 H   0  0  0  0  0  0  0  0  0  0  0  0
    9.4927    0.5328   20.9253 C   0  0  0  0  0  0  0  0  0  0  0  0
    9.0570    1.3162   20.2992 H   0  0  0  0  0  0  0  0  0  0  0  0
    8.6192   -0.5666   21.3188 C   0  0  0  0  0  0  0  0  0  0  0  0
    7.3482   -0.7795   20.9063 C   0  0  0  0  0  0  0  0  0  0  0  0
    6.6379   -0.0341   19.8445 C   0  0  0  0  0  0  0  0  0  0  0  0
    7.1463    0.0474   18.5294 C   0  0  0  0  0  0  0  0  0  0  0  0
    8.0843   -0.4485   18.2810 H   0  0  0  0  0  0  0  0  0  0  0  0
    6.5473    0.6900   17.5163 N   0  0  0  0  0  0  0  0  0  0  0  0
    5.3921    1.3174   17.7851 C   0  0  0  0  0  0  0  0  0  0  0  0
    4.9276    1.8478   16.9545 H   0  0  0  0  0  0  0  0  0  0  0  0
    4.7884    1.3042   19.0466 C   0  0  0  0  0  0  0  0  0  0  0  0
    3.8624    1.8481   19.1998 H   0  0  0  0  0  0  0  0  0  0  0  0
    5.4092    0.6114   20.0865 C   0  0  0  0  0  0  0  0  0  0  0  0
    4.9756    0.6028   21.0889 H   0  0  0  0  0  0  0  0  0  0  0  0
    6.6820   -1.8461   21.7491 C   0  0  0  0  0  0  0  0  0  0  0  0
    6.1517   -2.5917   21.1462 H   0  0  0  0  0  0  0  0  0  0  0  0
    5.9397   -1.3615   22.3822 H   0  0  0  0  0  0  0  0  0  0  0  0
    7.8041   -2.4576   22.6197 C   0  0  0  0  0  0  0  0  0  0  0  0
    8.0258   -3.4853   22.3180 H   0  0  0  0  0  0  0  0  0  0  0  0
    7.5121   -2.4903   23.6738 H   0  0  0  0  0  0  0  0  0  0  0  0
    9.0258   -1.5421   22.4130 C   0  0  0  0  0  0  0  0  0  0  0  0
    9.2784   -0.9909   23.3289 H   0  0  0  0  0  0  0  0  0  0  0  0
    9.9166   -2.1104   22.1236 H   0  0  0  0  0  0  0  0  0  0  0  0
  1  2  1  0
  2  3  1  0
  3  4  2  0
  3  5  1  0
  5  6  1  0
  5  7  2  3
  7  8  1  0
  7  9  1  0
  9 10  2  0
 10 11  1  0
 11 12  2  0
 12 13  1  0
 12 14  1  0
 14 15  2  0
 15 16  1  0
 15 17  1  0
 17 18  1  0
 17 19  2  0
 19 20  1  0
 10 21  1  0
 21 22  1  0
 21 23  1  0
 21 24  1  0
 24 25  1  0
 24 26  1  0
 24 27  1  0
 27 28  1  0
 27 29  1  0
 27  9  1  0
 19 11  1  0
M  END
>  <plip>  (1) 
-0.03571428571428571

>  <filename>  (1) 
[H][O][C](=[O])[C]([H])=[C]([H])[C]1=[C]([c]2[c]([H])[n][c]([H])[c]([H])[c]2[H])[C]([H])([H])[C]([H])([H])[C]1([H])[H]

$$$$
