
     RDKit          3D

 33 35  0  0  0  0  0  0  0  0999 V2000
    4.9498    1.8383   16.9321 H   0  0  0  0  0  0  0  0  0  0  0  0
    5.4175    1.3295   17.7748 C   0  0  0  0  0  0  0  0  0  0  0  0
    6.5919    0.7296   17.5359 N   0  0  0  0  0  0  0  0  0  0  0  0
    7.1864    0.1063   18.5653 C   0  0  0  0  0  0  0  0  0  0  0  0
    8.1426   -0.3593   18.3220 H   0  0  0  0  0  0  0  0  0  0  0  0
    6.6579    0.0222   19.8727 C   0  0  0  0  0  0  0  0  0  0  0  0
    7.3044   -0.8015   21.0053 C   0  0  0  0  0  0  0  0  0  0  0  0
    6.5882   -2.1660   21.1722 C   0  0  0  0  0  0  0  0  0  0  0  0
    6.3074   -2.7586   22.2732 N   0  0  0  0  0  0  0  0  0  0  0  0
    5.6459   -4.0239   21.9174 C   0  0  0  0  0  0  0  0  0  0  0  0
    5.9670   -4.8424   22.5662 H   0  0  0  0  0  0  0  0  0  0  0  0
    4.5533   -3.9215   22.0016 H   0  0  0  0  0  0  0  0  0  0  0  0
    6.0262   -4.2726   20.4492 C   0  0  0  0  0  0  0  0  0  0  0  0
    5.2431   -4.7562   19.8572 H   0  0  0  0  0  0  0  0  0  0  0  0
    6.9434   -4.8859   20.3681 H   0  0  0  0  0  0  0  0  0  0  0  0
    6.2240   -2.8907   20.0252 N   0  0  0  0  0  0  0  0  0  0  0  0
    6.8298   -2.7369   19.2311 H   0  0  0  0  0  0  0  0  0  0  0  0
    8.8490   -0.9643   20.8059 C   0  0  0  0  0  0  0  0  0  0  0  0
    9.2334    0.0059   20.4564 H   0  0  0  0  0  0  0  0  0  0  0  0
    9.1340   -1.7231   20.0667 H   0  0  0  0  0  0  0  0  0  0  0  0
    9.4433   -1.2590   22.1903 C   0  0  0  0  0  0  0  0  0  0  0  0
    9.4825   -2.3377   22.3847 H   0  0  0  0  0  0  0  0  0  0  0  0
   10.4712   -0.8802   22.2631 H   0  0  0  0  0  0  0  0  0  0  0  0
    8.4931   -0.5765   23.1953 C   0  0  0  0  0  0  0  0  0  0  0  0
    8.1331   -1.3064   23.9259 H   0  0  0  0  0  0  0  0  0  0  0  0
    8.9833    0.2359   23.7450 H   0  0  0  0  0  0  0  0  0  0  0  0
    7.3144   -0.0258   22.3623 C   0  0  0  0  0  0  0  0  0  0  0  0
    6.3666   -0.1205   22.9023 H   0  0  0  0  0  0  0  0  0  0  0  0
    7.4720    1.0385   22.1386 H   0  0  0  0  0  0  0  0  0  0  0  0
    5.4298    0.6607   20.0885 C   0  0  0  0  0  0  0  0  0  0  0  0
    4.9746    0.6536   21.0815 H   0  0  0  0  0  0  0  0  0  0  0  0
    4.8039    1.3218   19.0300 C   0  0  0  0  0  0  0  0  0  0  0  0
    3.8667    1.8415   19.1699 H   0  0  0  0  0  0  0  0  0  0  0  0
  1  2  1  0
  2  3  2  0
  3  4  1  0
  4  5  1  0
  4  6  2  0
  6  7  1  0
  7  8  1  0
  8  9  2  0
  9 10  1  0
 10 11  1  0
 10 12  1  0
 10 13  1  0
 13 14  1  0
 13 15  1  0
 13 16  1  0
 16 17  1  0
  7 18  1  0
 18 19  1  0
 18 20  1  0
 18 21  1  0
 21 22  1  0
 21 23  1  0
 21 24  1  0
 24 25  1  0
 24 26  1  0
 24 27  1  0
 27 28  1  0
 27 29  1  0
  6 30  1  0
 30 31  1  0
 30 32  2  0
 32 33  1  0
 32  2  1  0
 27  7  1  0
 16  8  1  0
M  END
>  <plip>  (1) 
-0.14285714285714285

>  <filename>  (1) 
[H][c]1[n][c]([H])[c]([C]2([C]3=[N][C]([H])([H])[C]([H])([H])[N]3[H])[C]([H])([H])[C]([H])([H])[C]([H])([H])[C]2([H])[H])[c]([H])[c]1[H]

$$$$
