
     RDKit          3D

 34 36  0  0  0  0  0  0  0  0999 V2000
    6.4288   -2.6700   24.5677 O   0  0  0  0  0  0  0  0  0  0  0  0
    7.5643   -2.5685   24.1260 C   0  0  0  0  0  0  0  0  0  0  0  0
    8.7398   -3.2569   24.8222 C   0  0  1  0  0  0  0  0  0  0  0  0
    8.6431   -3.3314   26.3606 C   0  0  0  0  0  0  0  0  0  0  0  0
    9.4158   -4.6103   26.6970 C   0  0  0  0  0  0  0  0  0  0  0  0
    9.4087   -5.4059   25.5241 O   0  0  0  0  0  0  0  0  0  0  0  0
    8.8134   -4.7432   24.4295 C   0  0  0  0  0  0  0  0  0  0  0  0
    9.4414   -4.9316   23.5470 H   0  0  0  0  0  0  0  0  0  0  0  0
    7.8195   -5.1778   24.2351 H   0  0  0  0  0  0  0  0  0  0  0  0
   10.4595   -4.4118   26.9806 H   0  0  0  0  0  0  0  0  0  0  0  0
    8.9656   -5.1796   27.5254 H   0  0  0  0  0  0  0  0  0  0  0  0
    9.0591   -2.4552   26.8680 H   0  0  0  0  0  0  0  0  0  0  0  0
    7.5949   -3.4298   26.6618 H   0  0  0  0  0  0  0  0  0  0  0  0
    9.6834   -2.7760   24.5438 H   0  0  0  0  0  0  0  0  0  0  0  0
    7.7990   -1.8989   22.9515 N   0  0  0  0  0  0  0  0  0  0  0  0
    9.0673   -1.7602   22.2410 C   0  0  0  0  0  0  0  0  0  0  0  0
    8.6721   -1.0056   21.0119 C   0  0  0  0  0  0  0  0  0  0  0  0
    7.3744   -0.7125   20.9834 C   0  0  0  0  0  0  0  0  0  0  0  0
    6.6552    0.0056   19.9159 C   0  0  0  0  0  0  0  0  0  0  0  0
    5.4299    0.6507   20.1568 C   0  0  0  0  0  0  0  0  0  0  0  0
    4.8032    1.3114   19.0995 C   0  0  0  0  0  0  0  0  0  0  0  0
    5.3992    1.2942   17.8341 C   0  0  0  0  0  0  0  0  0  0  0  0
    6.5618    0.6778   17.5768 N   0  0  0  0  0  0  0  0  0  0  0  0
    7.1679    0.0678   18.6001 C   0  0  0  0  0  0  0  0  0  0  0  0
    8.1059   -0.4231   18.3631 H   0  0  0  0  0  0  0  0  0  0  0  0
    4.9200    1.7860   16.9896 H   0  0  0  0  0  0  0  0  0  0  0  0
    3.8728    1.8446   19.2515 H   0  0  0  0  0  0  0  0  0  0  0  0
    4.9918    0.6433   21.1558 H   0  0  0  0  0  0  0  0  0  0  0  0
    6.6976   -1.2362   22.2373 C   0  0  0  0  0  0  0  0  0  0  0  0
    6.2441   -0.4331   22.8361 H   0  0  0  0  0  0  0  0  0  0  0  0
    5.8809   -1.9304   21.9993 H   0  0  0  0  0  0  0  0  0  0  0  0
    9.3947   -0.7050   20.2652 H   0  0  0  0  0  0  0  0  0  0  0  0
    9.8118   -1.1989   22.8227 H   0  0  0  0  0  0  0  0  0  0  0  0
    9.5112   -2.7302   21.9786 H   0  0  0  0  0  0  0  0  0  0  0  0
  1  2  2  0
  2  3  1  0
  3  4  1  0
  4  5  1  0
  5  6  1  0
  6  7  1  0
  7  8  1  0
  7  9  1  0
  5 10  1  0
  5 11  1  0
  4 12  1  0
  4 13  1  0
  3 14  1  1
  2 15  1  0
 15 16  1  0
 16 17  1  0
 17 18  2  0
 18 19  1  0
 19 20  2  0
 20 21  1  0
 21 22  2  0
 22 23  1  0
 23 24  2  0
 24 25  1  0
 22 26  1  0
 21 27  1  0
 20 28  1  0
 18 29  1  0
 29 30  1  0
 29 31  1  0
 17 32  1  0
 16 33  1  0
 16 34  1  0
  7  3  1  0
 29 15  1  0
 24 19  1  0
M  END
>  <plip>  (1) 
-0.07142857142857142

>  <filename>  (1) 
[H][C]1=[C]([c]2[c]([H])[n][c]([H])[c]([H])[c]2[H])[C]([H])([H])[N]([C](=[O])[C@]2([H])[C]([H])([H])[O][C]([H])([H])[C]2([H])[H])[C]1([H])[H]

$$$$
