
     RDKit          3D

 41 44  0  0  0  0  0  0  0  0999 V2000
    6.3478   -2.8102   20.8366 O   0  0  0  0  0  0  0  0  0  0  0  0
    7.3523   -2.1963   21.0670 C   0  0  0  0  0  0  0  0  0  0  0  0
    8.4848   -2.8760   21.3779 O   0  0  0  0  0  0  0  0  0  0  0  0
    9.6585   -2.1687   21.8049 C   0  0  0  0  0  0  0  0  0  0  0  0
    9.8614   -0.8860   21.0212 C   0  0  0  0  0  0  0  0  0  0  0  0
    8.7224   -0.0048   21.2850 N   0  0  0  0  0  0  0  0  0  0  0  0
    8.9669    1.3558   21.3816 C   0  0  0  0  0  0  0  0  0  0  0  0
   10.0314    1.8405   21.0255 O   0  0  0  0  0  0  0  0  0  0  0  0
    7.9267    2.2435   21.9974 C   0  0  0  0  0  0  0  0  0  0  0  0
    7.8322    3.5979   22.0905 C   0  0  0  0  0  0  0  0  0  0  0  0
    6.7064    3.8037   22.9396 C   0  0  0  0  0  0  0  0  0  0  0  0
    6.1525    5.0920   23.4119 C   0  0  0  0  0  0  0  0  0  0  0  0
    4.8506    5.1892   23.9437 C   0  0  0  0  0  0  0  0  0  0  0  0
    4.3299    6.4360   24.2701 C   0  0  0  0  0  0  0  0  0  0  0  0
    3.0777    6.5109   24.7498 F   0  0  0  0  0  0  0  0  0  0  0  0
    5.0728    7.6072   24.1073 C   0  0  0  0  0  0  0  0  0  0  0  0
    6.3796    7.5216   23.6199 C   0  0  0  0  0  0  0  0  0  0  0  0
    6.9040    6.2766   23.2945 C   0  0  0  0  0  0  0  0  0  0  0  0
    8.1824    6.2395   22.8660 F   0  0  0  0  0  0  0  0  0  0  0  0
    6.9993    8.4013   23.4676 H   0  0  0  0  0  0  0  0  0  0  0  0
    4.6233    8.5599   24.3557 H   0  0  0  0  0  0  0  0  0  0  0  0
    4.2483    4.2974   24.1034 H   0  0  0  0  0  0  0  0  0  0  0  0
    6.1694    2.6584   23.2956 N   0  0  0  0  0  0  0  0  0  0  0  0
    6.9172    1.6824   22.6957 O   0  0  0  0  0  0  0  0  0  0  0  0
    8.4363    4.3542   21.6202 H   0  0  0  0  0  0  0  0  0  0  0  0
    7.3815   -0.6131   21.0778 C   0  0  0  0  0  0  0  0  0  0  0  0
    6.6421    0.0800   19.9204 C   0  0  0  0  0  0  0  0  0  0  0  0
    5.4105    0.7131   20.1501 C   0  0  0  0  0  0  0  0  0  0  0  0
    4.7749    1.3602   19.0831 C   0  0  0  0  0  0  0  0  0  0  0  0
    5.4110    1.3701   17.8365 C   0  0  0  0  0  0  0  0  0  0  0  0
    6.5900    0.7799   17.5989 N   0  0  0  0  0  0  0  0  0  0  0  0
    7.1844    0.1626   18.6305 C   0  0  0  0  0  0  0  0  0  0  0  0
    8.1383   -0.3117   18.3998 H   0  0  0  0  0  0  0  0  0  0  0  0
    4.9503    1.8761   16.9889 H   0  0  0  0  0  0  0  0  0  0  0  0
    3.8235    1.8693   19.2136 H   0  0  0  0  0  0  0  0  0  0  0  0
    4.9690    0.7140   21.1482 H   0  0  0  0  0  0  0  0  0  0  0  0
    6.7719   -0.4236   21.9658 H   0  0  0  0  0  0  0  0  0  0  0  0
   10.7930   -0.3831   21.2896 H   0  0  0  0  0  0  0  0  0  0  0  0
    9.8867   -1.0887   19.9483 H   0  0  0  0  0  0  0  0  0  0  0  0
   10.4952   -2.8442   21.6510 H   0  0  0  0  0  0  0  0  0  0  0  0
    9.5853   -1.9640   22.8801 H   0  0  0  0  0  0  0  0  0  0  0  0
  1  2  2  0
  2  3  1  0
  3  4  1  0
  4  5  1  0
  5  6  1  0
  6  7  1  0
  7  8  2  0
  7  9  1  0
  9 10  2  0
 10 11  1  0
 11 12  1  0
 12 13  2  0
 13 14  1  0
 14 15  1  0
 14 16  2  0
 16 17  1  0
 17 18  2  0
 18 19  1  0
 17 20  1  0
 16 21  1  0
 13 22  1  0
 11 23  2  0
 23 24  1  0
 10 25  1  0
  6 26  1  0
 26 27  1  0
 27 28  2  0
 28 29  1  0
 29 30  2  0
 30 31  1  0
 31 32  2  0
 32 33  1  0
 30 34  1  0
 29 35  1  0
 28 36  1  0
 26 37  1  0
  5 38  1  0
  5 39  1  0
  4 40  1  0
  4 41  1  0
 26  2  1  0
 32 27  1  0
 24  9  1  0
 18 12  1  0
M  END
>  <plip>  (1) 
-0.06896551724137931

>  <filename>  (1) 
[H][c]1[n][c]([H])[c]([C]2([H])[C](=[O])[O][C]([H])([H])[C]([H])([H])[N]2[C](=[O])[c]2[o][n][c](-[c]3[c]([H])[c]([F])[c]([H])[c]([H])[c]3[F])[c]2[H])[c]([H])[c]1[H]

$$$$
