
     RDKit          3D

 31 32  0  0  0  0  0  0  0  0999 V2000
    8.8325   -0.4524   21.1767 C   0  0  0  0  0  0  0  0  0  0  0  0
    7.3621   -0.7370   21.0176 C   0  0  0  0  0  0  0  0  0  0  0  0
    6.7260   -1.6194   21.8036 C   0  0  0  0  0  0  0  0  0  0  0  0
    7.3834   -2.5404   22.7342 C   0  0  0  0  0  0  0  0  0  0  0  0
    8.5864   -2.7623   22.8113 O   0  0  0  0  0  0  0  0  0  0  0  0
    6.4997   -3.2114   23.5692 N   0  0  0  0  0  0  0  0  0  0  0  0
    6.8090   -4.2415   24.3793 C   0  0  0  0  0  0  0  0  0  0  0  0
    7.9155   -4.9354   24.2446 N   0  0  0  0  0  4  0  0  0  0  0  0
    8.0617   -5.8947   25.2580 O   0  0  0  0  0  0  0  0  0  0  0  0
    6.8865   -5.8187   26.0875 C   0  0  0  0  0  0  0  0  0  0  0  0
    5.9727   -4.7482   25.4628 C   0  0  0  0  0  0  0  0  0  0  0  0
    5.7488   -3.9480   26.1763 H   0  0  0  0  0  0  0  0  0  0  0  0
    5.0354   -5.1567   25.0658 H   0  0  0  0  0  0  0  0  0  0  0  0
    7.2171   -5.5581   27.0982 H   0  0  0  0  0  0  0  0  0  0  0  0
    6.4319   -6.8136   26.1159 H   0  0  0  0  0  0  0  0  0  0  0  0
    8.7499   -4.4030   23.9822 H   0  0  0  0  0  0  0  0  0  0  0  0
    5.5570   -2.8633   23.5679 H   0  0  0  0  0  0  0  0  0  0  0  0
    5.6514   -1.7122   21.7143 H   0  0  0  0  0  0  0  0  0  0  0  0
    6.6032   -0.0361   19.9510 C   0  0  0  0  0  0  0  0  0  0  0  0
    5.3769    0.6211   20.1619 C   0  0  0  0  0  0  0  0  0  0  0  0
    4.8010    1.3004   19.0892 C   0  0  0  0  0  0  0  0  0  0  0  0
    5.4324    1.2840   17.8402 C   0  0  0  0  0  0  0  0  0  0  0  0
    6.5874    0.6359   17.6109 N   0  0  0  0  0  0  0  0  0  0  0  0
    7.1429    0.0153   18.6533 C   0  0  0  0  0  0  0  0  0  0  0  0
    8.0857   -0.4940   18.4631 H   0  0  0  0  0  0  0  0  0  0  0  0
    4.9976    1.8073   16.9901 H   0  0  0  0  0  0  0  0  0  0  0  0
    3.8737    1.8512   19.2052 H   0  0  0  0  0  0  0  0  0  0  0  0
    4.9106    0.6256   21.1499 H   0  0  0  0  0  0  0  0  0  0  0  0
    9.1685    0.3671   20.5366 H   0  0  0  0  0  0  0  0  0  0  0  0
    9.4201   -1.3514   20.9799 H   0  0  0  0  0  0  0  0  0  0  0  0
    9.0447   -0.1975   22.2184 H   0  0  0  0  0  0  0  0  0  0  0  0
  1  2  1  0
  2  3  2  3
  3  4  1  0
  4  5  2  0
  4  6  1  0
  6  7  1  0
  7  8  2  0
  8  9  1  0
  9 10  1  0
 10 11  1  0
 11 12  1  0
 11 13  1  0
 10 14  1  0
 10 15  1  0
  8 16  1  0
  6 17  1  0
  3 18  1  0
  2 19  1  0
 19 20  2  0
 20 21  1  0
 21 22  2  0
 22 23  1  0
 23 24  2  0
 24 25  1  0
 22 26  1  0
 21 27  1  0
 20 28  1  0
  1 29  1  0
  1 30  1  0
  1 31  1  0
 11  7  1  0
 24 19  1  0
M  CHG  1   8   1
M  END
>  <plip>  (1) 
-0.03571428571428571

>  <filename>  (1) 
[H][C]([C](=[O])[N]([H])[C]1=[N+]([H])[O][C]([H])([H])[C]1([H])[H])=[C]([c]1[c]([H])[n][c]([H])[c]([H])[c]1[H])[C]([H])([H])[H]

$$$$
