
     RDKit          3D

 37 38  0  0  0  0  0  0  0  0999 V2000
    4.9512    1.7151   17.0054 H   0  0  0  0  0  0  0  0  0  0  0  0
    5.4449    1.2619   17.8632 C   0  0  0  0  0  0  0  0  0  0  0  0
    6.6168    0.6498   17.6203 N   0  0  0  0  0  0  0  0  0  0  0  0
    7.2382    0.0829   18.6618 C   0  0  0  0  0  0  0  0  0  0  0  0
    8.1896   -0.4037   18.4652 H   0  0  0  0  0  0  0  0  0  0  0  0
    6.7373    0.0474   19.9841 C   0  0  0  0  0  0  0  0  0  0  0  0
    7.5071   -0.5640   20.9924 N   0  0  0  0  0  0  0  0  0  0  0  0
    7.1114   -1.5962   21.6393 C   0  0  0  0  0  0  0  0  0  0  0  0
    7.9066   -2.1039   22.6559 N   0  0  0  0  0  0  0  0  0  0  0  0
    9.3614   -1.9225   22.5746 C   0  0  0  0  0  0  0  0  0  0  0  0
    9.6489   -1.9169   21.5179 H   0  0  0  0  0  0  0  0  0  0  0  0
    9.8502   -2.7864   23.0385 H   0  0  0  0  0  0  0  0  0  0  0  0
    9.9145   -0.6517   23.2320 C   0  0  0  0  0  0  0  0  0  0  0  0
    9.2858    0.1967   22.9063 H   0  0  0  0  0  0  0  0  0  0  0  0
   10.9168   -0.4889   22.8128 H   0  0  0  0  0  0  0  0  0  0  0  0
   10.0709   -0.7398   24.6902 N   0  0  0  0  0  0  0  0  0  0  0  0
   10.8541    0.3703   25.2131 C   0  0  0  0  0  0  0  0  0  0  0  0
   10.3665    1.3593   25.1032 H   0  0  0  0  0  0  0  0  0  0  0  0
   11.0672    0.2141   26.2777 H   0  0  0  0  0  0  0  0  0  0  0  0
   11.8192    0.4136   24.6936 H   0  0  0  0  0  0  0  0  0  0  0  0
    8.8105   -0.9397   25.4135 C   0  0  0  0  0  0  0  0  0  0  0  0
    9.0380   -0.8509   26.4858 H   0  0  0  0  0  0  0  0  0  0  0  0
    8.0729   -0.1396   25.1918 H   0  0  0  0  0  0  0  0  0  0  0  0
    8.1916   -2.3230   25.1696 C   0  0  0  0  0  0  0  0  0  0  0  0
    7.5723   -2.5796   26.0364 H   0  0  0  0  0  0  0  0  0  0  0  0
    9.0025   -3.0601   25.1385 H   0  0  0  0  0  0  0  0  0  0  0  0
    7.2974   -2.4893   23.9305 C   0  0  0  0  0  0  0  0  0  0  0  0
    6.3786   -1.8984   24.0876 H   0  0  0  0  0  0  0  0  0  0  0  0
    6.9747   -3.5440   23.8907 H   0  0  0  0  0  0  0  0  0  0  0  0
    5.8945   -2.4102   21.3031 C   0  0  0  0  0  0  0  0  0  0  0  0
    5.1328   -1.7365   20.9398 H   0  0  0  0  0  0  0  0  0  0  0  0
    5.5166   -2.9610   22.1510 H   0  0  0  0  0  0  0  0  0  0  0  0
    6.1291   -3.1174   20.4991 H   0  0  0  0  0  0  0  0  0  0  0  0
    5.5202    0.7058   20.2179 C   0  0  0  0  0  0  0  0  0  0  0  0
    5.1115    0.7437   21.2298 H   0  0  0  0  0  0  0  0  0  0  0  0
    4.8627    1.3081   19.1327 C   0  0  0  0  0  0  0  0  0  0  0  0
    3.9111    1.8060   19.2662 H   0  0  0  0  0  0  0  0  0  0  0  0
  1  2  1  0
  2  3  2  0
  3  4  1  0
  4  5  1  0
  4  6  2  0
  6  7  1  0
  7  8  2  3
  8  9  1  0
  9 10  1  0
 10 11  1  0
 10 12  1  0
 10 13  1  0
 13 14  1  0
 13 15  1  0
 13 16  1  0
 16 17  1  0
 17 18  1  0
 17 19  1  0
 17 20  1  0
 16 21  1  0
 21 22  1  0
 21 23  1  0
 21 24  1  0
 24 25  1  0
 24 26  1  0
 24 27  1  0
 27 28  1  0
 27 29  1  0
  8 30  1  0
 30 31  1  0
 30 32  1  0
 30 33  1  0
  6 34  1  0
 34 35  1  0
 34 36  2  0
 36 37  1  0
 36  2  1  0
 27  9  1  0
M  END
>  <plip>  (1) 
-0.034482758620689655

>  <filename>  (1) 
[H][c]1[n][c]([H])[c]([N]=[C]([N]2[C]([H])([H])[C]([H])([H])[N]([C]([H])([H])[H])[C]([H])([H])[C]([H])([H])[C]2([H])[H])[C]([H])([H])[H])[c]([H])[c]1[H]

$$$$
