
     RDKit          3D

 36 38  0  0  0  0  0  0  0  0999 V2000
    4.9676    1.8074   16.9777 H   0  0  0  0  0  0  0  0  0  0  0  0
    5.4211    1.3048   17.8279 C   0  0  0  0  0  0  0  0  0  0  0  0
    6.5877    0.6820   17.6010 N   0  0  0  0  0  0  0  0  0  0  0  0
    7.1718    0.0784   18.6441 C   0  0  0  0  0  0  0  0  0  0  0  0
    8.1115   -0.4326   18.4232 H   0  0  0  0  0  0  0  0  0  0  0  0
    6.6255    0.0440   19.9387 C   0  0  0  0  0  0  0  0  0  0  0  0
    7.3490   -0.6470   21.0489 C   0  0  0  0  0  0  0  0  0  0  0  0
    8.4399    0.0721   21.6846 N   0  0  0  0  0  0  0  0  0  0  0  0
    9.1782    0.2898   21.0210 H   0  0  0  0  0  0  0  0  0  0  0  0
    8.0925    1.2504   22.3921 N   0  0  0  0  0  0  0  0  0  0  0  0
    7.3076    1.7569   21.9877 H   0  0  0  0  0  0  0  0  0  0  0  0
    7.9485    1.1621   23.7926 C   0  0  0  0  0  0  0  0  0  0  0  0
    7.2190    2.1605   24.4532 C   0  0  0  0  0  0  0  0  0  0  0  0
    6.7268    2.9373   23.8678 H   0  0  0  0  0  0  0  0  0  0  0  0
    7.1147    2.1751   25.8515 C   0  0  0  0  0  0  0  0  0  0  0  0
    6.5586    2.9666   26.3428 H   0  0  0  0  0  0  0  0  0  0  0  0
    7.7429    1.1757   26.6076 C   0  0  0  0  0  0  0  0  0  0  0  0
    7.7520    1.0735   27.9669 O   0  0  0  0  0  0  0  0  0  0  0  0
    7.0926    2.0600   28.7272 C   0  0  0  0  0  0  0  0  0  0  0  0
    7.5124    3.0587   28.5541 H   0  0  0  0  0  0  0  0  0  0  0  0
    7.2411    1.7915   29.7710 H   0  0  0  0  0  0  0  0  0  0  0  0
    6.0169    2.0780   28.5144 H   0  0  0  0  0  0  0  0  0  0  0  0
    8.4511    0.1638   25.9497 C   0  0  0  0  0  0  0  0  0  0  0  0
    8.9217   -0.5840   26.5780 H   0  0  0  0  0  0  0  0  0  0  0  0
    8.5481    0.1499   24.5625 C   0  0  0  0  0  0  0  0  0  0  0  0
    9.0798   -0.6418   24.0432 H   0  0  0  0  0  0  0  0  0  0  0  0
    7.5830   -2.1158   20.9086 C   0  0  0  0  0  0  0  0  0  0  0  0
    8.5677   -2.4876   21.1670 H   0  0  0  0  0  0  0  0  0  0  0  0
    7.0783   -2.5876   20.0745 H   0  0  0  0  0  0  0  0  0  0  0  0
    6.6445   -1.6127   21.9623 C   0  0  0  0  0  0  0  0  0  0  0  0
    5.5907   -1.8073   21.7979 H   0  0  0  0  0  0  0  0  0  0  0  0
    6.9752   -1.6135   22.9955 H   0  0  0  0  0  0  0  0  0  0  0  0
    5.4023    0.6915   20.1483 C   0  0  0  0  0  0  0  0  0  0  0  0
    4.9486    0.6727   21.1411 H   0  0  0  0  0  0  0  0  0  0  0  0
    4.7884    1.3334   19.0751 C   0  0  0  0  0  0  0  0  0  0  0  0
    3.8506    1.8591   19.1996 H   0  0  0  0  0  0  0  0  0  0  0  0
  1  2  1  0
  2  3  2  0
  3  4  1  0
  4  5  1  0
  4  6  2  0
  6  7  1  0
  7  8  1  0
  8  9  1  0
  8 10  1  0
 10 11  1  0
 10 12  1  0
 12 13  2  0
 13 14  1  0
 13 15  1  0
 15 16  1  0
 15 17  2  0
 17 18  1  0
 18 19  1  0
 19 20  1  0
 19 21  1  0
 19 22  1  0
 17 23  1  0
 23 24  1  0
 23 25  2  0
 25 26  1  0
  7 27  1  0
 27 28  1  0
 27 29  1  0
 27 30  1  0
 30 31  1  0
 30 32  1  0
  6 33  1  0
 33 34  1  0
 33 35  2  0
 35 36  1  0
 35  2  1  0
 30  7  1  0
 25 12  1  0
M  END
>  <plip>  (1) 
-0.07142857142857142

>  <filename>  (1) 
[H][c]1[n][c]([H])[c]([C]2([N]([H])[N]([H])[c]3[c]([H])[c]([H])[c]([O][C]([H])([H])[H])[c]([H])[c]3[H])[C]([H])([H])[C]2([H])[H])[c]([H])[c]1[H]

$$$$
