
     RDKit          3D

 39 42  0  0  0  0  0  0  0  0999 V2000
    5.0148    1.7925   16.9045 H   0  0  0  0  0  0  0  0  0  0  0  0
    5.4714    1.3133   17.7657 C   0  0  0  0  0  0  0  0  0  0  0  0
    6.6314    0.6803   17.5356 N   0  0  0  0  0  0  0  0  0  0  0  0
    7.2108    0.0483   18.5587 C   0  0  0  0  0  0  0  0  0  0  0  0
    8.1529   -0.4577   18.3386 H   0  0  0  0  0  0  0  0  0  0  0  0
    6.6577    0.0117   19.8447 C   0  0  0  0  0  0  0  0  0  0  0  0
    7.2961   -0.7265   20.9366 C   0  0  0  0  0  0  0  0  0  0  0  0
    6.6706   -0.8855   22.0541 N   0  0  0  0  0  0  0  0  0  0  0  0
    7.4554   -1.5590   22.9364 N   0  0  0  0  0  0  0  0  0  0  0  0
    7.3642   -2.0898   24.1976 C   0  0  0  0  0  0  0  0  0  0  0  0
    6.2808   -2.0576   25.0668 N   0  0  0  0  0  0  0  0  0  0  0  0
    6.3940   -2.7503   25.7915 H   0  0  0  0  0  0  0  0  0  0  0  0
    5.6250   -0.8822   25.3936 C   0  0  0  0  0  0  0  0  0  0  0  0
    5.9879    0.1838   24.9573 O   0  0  0  0  0  0  0  0  0  0  0  0
    4.3887   -1.0322   26.2809 C   0  0  0  0  0  0  0  0  0  0  0  0
    4.3248   -2.0742   26.6146 H   0  0  0  0  0  0  0  0  0  0  0  0
    3.1310   -0.7226   25.4203 C   0  0  0  0  0  0  0  0  0  0  0  0
    3.3552    0.1671   24.8163 H   0  0  0  0  0  0  0  0  0  0  0  0
    2.9696   -1.5613   24.7346 H   0  0  0  0  0  0  0  0  0  0  0  0
    1.8234   -0.4826   26.1954 C   0  0  0  0  0  0  0  0  0  0  0  0
    1.3471   -1.4367   26.4685 H   0  0  0  0  0  0  0  0  0  0  0  0
    1.1211    0.0149   25.5171 H   0  0  0  0  0  0  0  0  0  0  0  0
    2.0234    0.3819   27.4461 C   0  0  0  0  0  0  0  0  0  0  0  0
    1.0926    0.4598   28.0237 H   0  0  0  0  0  0  0  0  0  0  0  0
    2.2714    1.4099   27.1414 H   0  0  0  0  0  0  0  0  0  0  0  0
    3.1746   -0.1508   28.3094 C   0  0  0  0  0  0  0  0  0  0  0  0
    2.9579   -1.1849   28.6210 H   0  0  0  0  0  0  0  0  0  0  0  0
    3.2669    0.4287   29.2317 H   0  0  0  0  0  0  0  0  0  0  0  0
    4.4934   -0.1238   27.5251 C   0  0  0  0  0  0  0  0  0  0  0  0
    5.3301   -0.4412   28.1640 H   0  0  0  0  0  0  0  0  0  0  0  0
    4.7273    0.9017   27.1980 H   0  0  0  0  0  0  0  0  0  0  0  0
    8.4246   -2.7898   24.4589 N   0  0  0  0  0  0  0  0  0  0  0  0
    9.2826   -2.7203   23.3725 N   0  0  0  0  0  0  0  0  0  0  0  0
    8.6713   -1.9991   22.4857 C   0  0  0  0  0  0  0  0  0  0  0  0
    8.9240   -1.4400   20.8585 S   0  0  0  0  0  0  0  0  0  0  0  0
    5.4474    0.6934   20.0818 C   0  0  0  0  0  0  0  0  0  0  0  0
    5.0192    0.6949   21.0848 H   0  0  0  0  0  0  0  0  0  0  0  0
    4.8418    1.3517   19.0162 C   0  0  0  0  0  0  0  0  0  0  0  0
    3.9057    1.8841   19.1397 H   0  0  0  0  0  0  0  0  0  0  0  0
  1  2  1  0
  2  3  2  0
  3  4  1  0
  4  5  1  0
  4  6  2  0
  6  7  1  0
  7  8  2  0
  8  9  1  0
  9 10  1  0
 10 11  1  0
 11 12  1  0
 11 13  1  0
 13 14  2  0
 13 15  1  0
 15 16  1  0
 15 17  1  0
 17 18  1  0
 17 19  1  0
 17 20  1  0
 20 21  1  0
 20 22  1  0
 20 23  1  0
 23 24  1  0
 23 25  1  0
 23 26  1  0
 26 27  1  0
 26 28  1  0
 26 29  1  0
 29 30  1  0
 29 31  1  0
 10 32  2  0
 32 33  1  0
 33 34  2  0
 34 35  1  0
  6 36  1  0
 36 37  1  0
 36 38  2  0
 38 39  1  0
 38  2  1  0
 35  7  1  0
 34  9  1  0
 29 15  1  0
M  END
>  <plip>  (1) 
-0.06896551724137931

>  <filename>  (1) 
[H][c]1[n][c]([H])[c](-[c]2[n][n]3[c]([N]([H])[C](=[O])[C]4([H])[C]([H])([H])[C]([H])([H])[C]([H])([H])[C]([H])([H])[C]4([H])[H])[n][n][c]3[s]2)[c]([H])[c]1[H]

$$$$
