
     RDKit          3D

 38 39  0  0  0  0  0  0  0  0999 V2000
    5.4223    3.3628   28.2295 C   0  0  0  0  0  0  0  0  0  0  0  0
    7.1098    3.1547   27.5951 S   0  0  0  0  0  0  0  0  0  0  0  0
    6.9270    3.8598   25.9715 C   0  0  0  0  0  0  0  0  0  0  0  0
    6.8796    5.2533   25.7857 C   0  0  0  0  0  0  0  0  0  0  0  0
    7.0328    6.0699   26.8401 F   0  0  0  0  0  0  0  0  0  0  0  0
    6.6605    5.8526   24.5472 C   0  0  0  0  0  0  0  0  0  0  0  0
    6.4890    5.0395   23.4245 C   0  0  0  0  0  0  0  0  0  0  0  0
    6.5718    3.6551   23.5538 C   0  0  0  0  0  0  0  0  0  0  0  0
    6.8171    3.0710   24.8012 C   0  0  0  0  0  0  0  0  0  0  0  0
    6.8794    1.6763   24.8990 N   0  0  0  0  0  0  0  0  0  0  0  0
    7.4365    0.8537   23.9540 C   0  0  0  0  0  0  0  0  0  0  0  0
    8.0426    1.2141   22.9594 O   0  0  0  0  0  0  0  0  0  0  0  0
    7.2030   -0.4702   24.2648 N   0  0  0  0  0  0  0  0  0  0  0  0
    7.5076   -1.5362   23.2760 C   0  0  0  0  0  0  0  0  0  0  0  0
    6.8204   -1.5349   21.8637 C   0  0  0  0  0  0  0  0  0  0  0  0
    5.9095   -2.2787   21.5756 O   0  0  0  0  0  0  0  0  0  0  0  0
    7.3915   -0.6445   20.9704 N   0  0  0  0  0  0  0  0  0  0  0  0
    6.6836   -0.0653   19.8684 C   0  0  0  0  0  0  0  0  0  0  0  0
    5.4533    0.5582   20.0948 C   0  0  0  0  0  0  0  0  0  0  0  0
    4.8415    1.2505   19.0428 C   0  0  0  0  0  0  0  0  0  0  0  0
    5.4747    1.2709   17.7944 C   0  0  0  0  0  0  0  0  0  0  0  0
    6.6449    0.6533   17.5562 N   0  0  0  0  0  0  0  0  0  0  0  0
    7.2387    0.0139   18.5738 C   0  0  0  0  0  0  0  0  0  0  0  0
    8.2003   -0.4511   18.3647 H   0  0  0  0  0  0  0  0  0  0  0  0
    5.0312    1.8136   16.9596 H   0  0  0  0  0  0  0  0  0  0  0  0
    3.9077    1.7857   19.1860 H   0  0  0  0  0  0  0  0  0  0  0  0
    5.0131    0.4997   21.0921 H   0  0  0  0  0  0  0  0  0  0  0  0
    7.9471    0.0469   21.4687 H   0  0  0  0  0  0  0  0  0  0  0  0
    7.2529   -2.4929   23.7352 H   0  0  0  0  0  0  0  0  0  0  0  0
    8.5897   -1.5147   23.1138 H   0  0  0  0  0  0  0  0  0  0  0  0
    6.3324   -0.5631   24.7720 H   0  0  0  0  0  0  0  0  0  0  0  0
    6.9899    1.3147   25.8319 H   0  0  0  0  0  0  0  0  0  0  0  0
    6.4880    2.9945   22.7025 H   0  0  0  0  0  0  0  0  0  0  0  0
    6.3178    5.4797   22.4447 H   0  0  0  0  0  0  0  0  0  0  0  0
    6.6428    6.9372   24.4934 H   0  0  0  0  0  0  0  0  0  0  0  0
    5.4105    2.9747   29.2514 H   0  0  0  0  0  0  0  0  0  0  0  0
    4.6951    2.8103   27.6290 H   0  0  0  0  0  0  0  0  0  0  0  0
    5.1563    4.4225   28.2465 H   0  0  0  0  0  0  0  0  0  0  0  0
  1  2  1  0
  2  3  1  0
  3  4  2  0
  4  5  1  0
  4  6  1  0
  6  7  2  0
  7  8  1  0
  8  9  2  0
  9 10  1  0
 10 11  1  0
 11 12  2  0
 11 13  1  0
 13 14  1  0
 14 15  1  0
 15 16  2  0
 15 17  1  0
 17 18  1  0
 18 19  2  0
 19 20  1  0
 20 21  2  0
 21 22  1  0
 22 23  2  0
 23 24  1  0
 21 25  1  0
 20 26  1  0
 19 27  1  0
 17 28  1  0
 14 29  1  0
 14 30  1  0
 13 31  1  0
 10 32  1  0
  8 33  1  0
  7 34  1  0
  6 35  1  0
  1 36  1  0
  1 37  1  0
  1 38  1  0
  9  3  1  0
 23 18  1  0
M  END
>  <plip>  (1) 
-0.07142857142857142

>  <filename>  (1) 
[H][c]1[n][c]([H])[c]([N]([H])[C](=[O])[C]([H])([H])[N]([H])[C](=[O])[N]([H])[c]2[c]([H])[c]([H])[c]([H])[c]([F])[c]2[S][C]([H])([H])[H])[c]([H])[c]1[H]

$$$$
