
     RDKit          3D

 22 23  0  0  0  0  0  0  0  0999 V2000
    8.5882   -0.7092   20.9277 O   0  0  0  0  0  0  0  0  0  0  0  0
    7.3685   -0.6971   20.9700 C   0  0  0  0  0  0  0  0  0  0  0  0
    6.7092   -1.3824   21.9701 N   0  0  0  0  0  0  0  0  0  0  0  0
    7.3388   -2.1486   22.9843 N   0  0  0  0  0  0  0  0  0  0  0  0
    8.5339   -2.8367   22.8346 C   0  0  0  0  0  0  0  0  0  0  0  0
    8.7402   -3.4915   24.0075 C   0  0  0  0  0  0  0  0  0  0  0  0
   10.2103   -4.6242   24.4836 Br  0  0  0  0  0  0  0  0  0  0  0  0
    7.5907   -3.1719   24.8331 C   0  0  0  0  0  0  0  0  0  0  0  0
    6.7588   -2.3750   24.1910 N   0  0  0  0  0  0  0  0  0  0  0  0
    7.4498   -3.5667   25.8357 H   0  0  0  0  0  0  0  0  0  0  0  0
    9.1589   -2.8408   21.9491 H   0  0  0  0  0  0  0  0  0  0  0  0
    5.7040   -1.2961   22.0124 H   0  0  0  0  0  0  0  0  0  0  0  0
    6.6502    0.0012   19.9188 C   0  0  0  0  0  0  0  0  0  0  0  0
    5.4361    0.6395   20.1684 C   0  0  0  0  0  0  0  0  0  0  0  0
    4.8181    1.3017   19.1119 C   0  0  0  0  0  0  0  0  0  0  0  0
    5.4066    1.2891   17.8401 C   0  0  0  0  0  0  0  0  0  0  0  0
    6.5772    0.6683   17.6045 N   0  0  0  0  0  0  0  0  0  0  0  0
    7.1941    0.0545   18.6265 C   0  0  0  0  0  0  0  0  0  0  0  0
    8.1353   -0.4389   18.4007 H   0  0  0  0  0  0  0  0  0  0  0  0
    4.8940    1.7848   17.0169 H   0  0  0  0  0  0  0  0  0  0  0  0
    3.8838    1.8342   19.2637 H   0  0  0  0  0  0  0  0  0  0  0  0
    4.9933    0.6398   21.1638 H   0  0  0  0  0  0  0  0  0  0  0  0
  1  2  2  0
  2  3  1  0
  3  4  1  0
  4  5  1  0
  5  6  2  0
  6  7  1  0
  6  8  1  0
  8  9  2  0
  8 10  1  0
  5 11  1  0
  3 12  1  0
  2 13  1  0
 13 14  2  0
 14 15  1  0
 15 16  2  0
 16 17  1  0
 17 18  2  0
 18 19  1  0
 16 20  1  0
 15 21  1  0
 14 22  1  0
  9  4  1  0
 18 13  1  0
M  END
>  <plip>  (1) 
-0.06896551724137931

>  <filename>  (1) 
[H][c]1[n][c]([H])[c]([C](=[O])[N]([H])[n]2[n][c]([H])[c]([Br])[c]2[H])[c]([H])[c]1[H]

$$$$
