
     RDKit          3D

 37 39  0  0  0  0  0  0  0  0999 V2000
    4.9699    1.8118   16.9561 H   0  0  0  0  0  0  0  0  0  0  0  0
    5.4036    1.3171   17.8226 C   0  0  0  0  0  0  0  0  0  0  0  0
    6.5723    0.6903   17.6272 N   0  0  0  0  0  0  0  0  0  0  0  0
    7.1280    0.1009   18.6931 C   0  0  0  0  0  0  0  0  0  0  0  0
    8.0611   -0.4235   18.4861 H   0  0  0  0  0  0  0  0  0  0  0  0
    6.5901    0.0807   19.9906 C   0  0  0  0  0  0  0  0  0  0  0  0
    7.4492   -0.5916   21.0794 C   0  0  0  0  0  0  0  0  0  0  0  0
    8.7428    0.0554   21.2604 N   0  0  0  0  0  0  0  0  0  0  0  0
    9.4066   -0.2277   20.5532 H   0  0  0  0  0  0  0  0  0  0  0  0
    8.7936    1.4967   21.4193 C   0  0  0  0  0  0  0  0  0  0  0  0
    7.9513    1.8001   22.0521 H   0  0  0  0  0  0  0  0  0  0  0  0
    8.6793    2.0434   20.4714 H   0  0  0  0  0  0  0  0  0  0  0  0
   10.0559    1.8416   22.1360 C   0  0  0  0  0  0  0  0  0  0  0  0
   11.5418    2.2479   21.3525 S   0  0  0  0  0  0  0  0  0  0  0  0
   12.3454    2.4083   22.8673 C   0  0  0  0  0  0  0  0  0  0  0  0
   13.3817    2.7109   22.8927 H   0  0  0  0  0  0  0  0  0  0  0  0
   11.5217    2.1498   23.9177 C   0  0  0  0  0  0  0  0  0  0  0  0
   11.8227    2.1857   24.9568 H   0  0  0  0  0  0  0  0  0  0  0  0
   10.2080    1.8133   23.4904 C   0  0  0  0  0  0  0  0  0  0  0  0
    9.3997    1.5272   24.1542 H   0  0  0  0  0  0  0  0  0  0  0  0
    7.7952   -2.0190   20.6273 C   0  0  0  0  0  0  0  0  0  0  0  0
    6.9209   -2.5011   20.1734 H   0  0  0  0  0  0  0  0  0  0  0  0
    8.5683   -1.9026   19.8667 H   0  0  0  0  0  0  0  0  0  0  0  0
    8.3728   -2.9306   21.7120 C   0  0  0  0  0  0  0  0  0  0  0  0
    8.3290   -3.9696   21.3616 H   0  0  0  0  0  0  0  0  0  0  0  0
    9.4353   -2.6912   21.8802 H   0  0  0  0  0  0  0  0  0  0  0  0
    7.6523   -2.8805   22.9280 O   0  0  0  0  0  0  0  0  0  0  0  0
    7.5113   -1.5612   23.4372 C   0  0  0  0  0  0  0  0  0  0  0  0
    8.4908   -1.1154   23.6804 H   0  0  0  0  0  0  0  0  0  0  0  0
    6.9434   -1.6734   24.3664 H   0  0  0  0  0  0  0  0  0  0  0  0
    6.7484   -0.6850   22.4442 C   0  0  0  0  0  0  0  0  0  0  0  0
    5.8172   -1.2006   22.2378 H   0  0  0  0  0  0  0  0  0  0  0  0
    6.5298    0.2998   22.8735 H   0  0  0  0  0  0  0  0  0  0  0  0
    5.3463    0.7158   20.1604 C   0  0  0  0  0  0  0  0  0  0  0  0
    4.8436    0.7220   21.1305 H   0  0  0  0  0  0  0  0  0  0  0  0
    4.7540    1.3465   19.0604 C   0  0  0  0  0  0  0  0  0  0  0  0
    3.8045    1.8618   19.1484 H   0  0  0  0  0  0  0  0  0  0  0  0
  1  2  1  0
  2  3  2  0
  3  4  1  0
  4  5  1  0
  4  6  2  0
  6  7  1  0
  7  8  1  0
  8  9  1  0
  8 10  1  0
 10 11  1  0
 10 12  1  0
 10 13  1  0
 13 14  1  0
 14 15  1  0
 15 16  1  0
 15 17  2  0
 17 18  1  0
 17 19  1  0
 19 20  1  0
  7 21  1  0
 21 22  1  0
 21 23  1  0
 21 24  1  0
 24 25  1  0
 24 26  1  0
 24 27  1  0
 27 28  1  0
 28 29  1  0
 28 30  1  0
 28 31  1  0
 31 32  1  0
 31 33  1  0
  6 34  1  0
 34 35  1  0
 34 36  2  0
 36 37  1  0
 36  2  1  0
 31  7  1  0
 19 13  2  0
M  END
>  <plip>  (1) 
-0.06666666666666667

>  <filename>  (1) 
[H][c]1[n][c]([H])[c]([C]2([N]([H])[C]([H])([H])[c]3[s][c]([H])[c]([H])[c]3[H])[C]([H])([H])[C]([H])([H])[O][C]([H])([H])[C]2([H])[H])[c]([H])[c]1[H]

$$$$
