
     RDKit          3D

 26 28  0  0  0  0  0  0  0  0999 V2000
    4.7740    1.3796   18.9735 C   0  0  0  0  0  0  0  0  0  0  0  0
    5.4586    1.3213   17.7546 C   0  0  0  0  0  0  0  0  0  0  0  0
    6.6169    0.6639   17.5824 N   0  0  0  0  0  0  0  0  0  0  0  0
    7.1216    0.0247   18.6393 C   0  0  0  0  0  0  0  0  0  0  0  0
    6.4965   -0.0034   19.8927 C   0  0  0  0  0  0  0  0  0  0  0  0
    7.1211   -0.7580   20.9769 C   0  0  0  0  0  0  0  0  0  0  0  0
    6.6872   -1.0341   22.1614 N   0  0  0  0  0  0  0  0  0  0  0  0
    7.7219   -1.6956   22.8154 N   0  0  0  0  0  0  0  0  0  0  0  0
    8.6967   -1.7601   21.9737 C   0  0  0  0  0  0  0  0  0  0  0  0
   10.3246   -2.3914   22.2137 S   0  0  0  0  0  0  0  0  0  0  0  0
   11.2816   -0.8456   22.5430 C   0  0  0  0  0  0  0  0  0  0  0  0
   10.8473   -0.1307   23.7925 C   0  0  0  0  0  0  0  0  0  0  0  0
   10.9053   -0.6949   24.9592 N   0  0  0  0  0  0  0  0  0  0  0  0
   10.3741    0.1119   25.9281 C   0  0  0  0  0  0  0  0  0  0  0  0
    9.9281    1.3273   25.5140 C   0  0  0  0  0  0  0  0  0  0  0  0
   10.1845    1.4733   23.8178 S   0  0  0  0  0  0  0  0  0  0  0  0
    9.4605    2.0961   26.1166 H   0  0  0  0  0  0  0  0  0  0  0  0
   10.3385   -0.2803   26.9385 H   0  0  0  0  0  0  0  0  0  0  0  0
   11.2724   -0.1696   21.6803 H   0  0  0  0  0  0  0  0  0  0  0  0
   12.3045   -1.2060   22.7129 H   0  0  0  0  0  0  0  0  0  0  0  0
    8.3836   -1.2209   20.7722 O   0  0  0  0  0  0  0  0  0  0  0  0
    5.3097    0.7172   20.0751 C   0  0  0  0  0  0  0  0  0  0  0  0
    4.8397    0.7577   21.0613 H   0  0  0  0  0  0  0  0  0  0  0  0
    8.0675   -0.4879   18.4669 H   0  0  0  0  0  0  0  0  0  0  0  0
    5.0597    1.8159   16.8730 H   0  0  0  0  0  0  0  0  0  0  0  0
    3.8476    1.9395   19.0417 H   0  0  0  0  0  0  0  0  0  0  0  0
  1  2  2  0
  2  3  1  0
  3  4  2  0
  4  5  1  0
  5  6  1  0
  6  7  2  0
  7  8  1  0
  8  9  2  0
  9 10  1  0
 10 11  1  0
 11 12  1  0
 12 13  2  0
 13 14  1  0
 14 15  2  0
 15 16  1  0
 15 17  1  0
 14 18  1  0
 11 19  1  0
 11 20  1  0
  9 21  1  0
  5 22  2  0
 22 23  1  0
  4 24  1  0
  2 25  1  0
  1 26  1  0
 22  1  1  0
 21  6  1  0
 16 12  1  0
M  END
>  <plip>  (1) 
-0.03571428571428571

>  <filename>  (1) 
[H][c]1[n][c]([C]([H])([H])[S][c]2[n][n][c](-[c]3[c]([H])[n][c]([H])[c]([H])[c]3[H])[o]2)[s][c]1[H]

$$$$
