
     RDKit          3D

 37 38  0  0  0  0  0  0  0  0999 V2000
   13.0589    3.0331   22.8970 C   0  0  0  0  0  0  0  0  0  0  0  0
   12.0593    4.0942   23.3253 C   0  0  0  0  0  0  0  0  0  0  0  0
   12.4670    5.1881   24.1164 C   0  0  0  0  0  0  0  0  0  0  0  0
   13.7918    5.2541   24.5332 N   0  0  0  0  0  0  0  0  0  0  0  0
   14.4193    4.8961   23.8282 H   0  0  0  0  0  0  0  0  0  0  0  0
   14.0765    6.1875   24.7919 H   0  0  0  0  0  0  0  0  0  0  0  0
   11.5701    6.2000   24.4837 C   0  0  0  0  0  0  0  0  0  0  0  0
   10.2345    6.1394   24.0767 C   0  0  0  0  0  0  0  0  0  0  0  0
    9.7895    5.0349   23.3409 C   0  0  0  0  0  0  0  0  0  0  0  0
   10.7074    4.0494   22.9674 C   0  0  0  0  0  0  0  0  0  0  0  0
   10.2596    2.9543   22.1850 N   0  0  0  0  0  0  0  0  0  0  0  0
    9.2575    2.1213   22.5634 C   0  0  0  0  0  0  0  0  0  0  0  0
    8.6110    2.2699   23.5902 O   0  0  0  0  0  0  0  0  0  0  0  0
    8.9755    0.9176   21.5579 C   0  0  0  0  0  0  0  0  0  0  0  0
    9.6216    0.7749   20.5280 O   0  0  0  0  0  0  0  0  0  0  0  0
    7.9731    0.0770   21.9299 N   0  0  0  0  0  0  0  0  0  0  0  0
    7.3525   -0.8094   20.9548 C   0  0  0  0  0  0  0  0  0  0  0  0
    6.6350   -0.0389   19.8754 C   0  0  0  0  0  0  0  0  0  0  0  0
    5.4303    0.6315   20.1092 C   0  0  0  0  0  0  0  0  0  0  0  0
    4.8268    1.3048   19.0451 C   0  0  0  0  0  0  0  0  0  0  0  0
    5.4656    1.3087   17.8007 C   0  0  0  0  0  0  0  0  0  0  0  0
    6.6451    0.7148   17.5734 N   0  0  0  0  0  0  0  0  0  0  0  0
    7.2151    0.0785   18.6041 C   0  0  0  0  0  0  0  0  0  0  0  0
    8.1899   -0.3738   18.4130 H   0  0  0  0  0  0  0  0  0  0  0  0
    5.0100    1.8074   16.9462 H   0  0  0  0  0  0  0  0  0  0  0  0
    3.8876    1.8298   19.1680 H   0  0  0  0  0  0  0  0  0  0  0  0
    4.9813    0.6341   21.1065 H   0  0  0  0  0  0  0  0  0  0  0  0
    8.1357   -1.4292   20.5110 H   0  0  0  0  0  0  0  0  0  0  0  0
    6.6763   -1.4808   21.4953 H   0  0  0  0  0  0  0  0  0  0  0  0
    7.4091    0.3951   22.7072 H   0  0  0  0  0  0  0  0  0  0  0  0
   10.7424    2.7816   21.3150 H   0  0  0  0  0  0  0  0  0  0  0  0
    8.7616    4.9163   23.0121 H   0  0  0  0  0  0  0  0  0  0  0  0
    9.5384    6.9333   24.3397 H   0  0  0  0  0  0  0  0  0  0  0  0
   11.9549    7.0235   25.0809 H   0  0  0  0  0  0  0  0  0  0  0  0
   13.8448    3.4664   22.2622 H   0  0  0  0  0  0  0  0  0  0  0  0
   13.5436    2.5504   23.7559 H   0  0  0  0  0  0  0  0  0  0  0  0
   12.5776    2.2441   22.3136 H   0  0  0  0  0  0  0  0  0  0  0  0
  1  2  1  0
  2  3  2  0
  3  4  1  0
  4  5  1  0
  4  6  1  0
  3  7  1  0
  7  8  2  0
  8  9  1  0
  9 10  2  0
 10 11  1  0
 11 12  1  0
 12 13  2  0
 12 14  1  0
 14 15  2  0
 14 16  1  0
 16 17  1  0
 17 18  1  0
 18 19  2  0
 19 20  1  0
 20 21  2  0
 21 22  1  0
 22 23  2  0
 23 24  1  0
 21 25  1  0
 20 26  1  0
 19 27  1  0
 17 28  1  0
 17 29  1  0
 16 30  1  0
 11 31  1  0
  9 32  1  0
  8 33  1  0
  7 34  1  0
  1 35  1  0
  1 36  1  0
  1 37  1  0
 10  2  1  0
 23 18  1  0
M  END
>  <plip>  (1) 
-0.1

>  <filename>  (1) 
[H][c]1[n][c]([H])[c]([C]([H])([H])[N]([H])[C](=[O])[C](=[O])[N]([H])[c]2[c]([H])[c]([H])[c]([H])[c]([N]([H])[H])[c]2[C]([H])([H])[H])[c]([H])[c]1[H]

$$$$
