
     RDKit          3D

 46 48  0  0  0  0  0  0  0  0999 V2000
    7.5247    1.3795   23.8655 C   0  0  0  0  0  0  0  0  0  0  0  0
    7.4377    1.2384   22.4623 O   0  0  0  0  0  0  0  0  0  0  0  0
    8.2426    0.2404   21.8678 C   0  0  0  0  0  0  0  0  0  0  0  0
    9.2188    0.8061   21.0409 O   0  0  0  0  0  0  0  0  0  0  0  0
   10.1730    1.6191   21.7062 C   0  0  0  0  0  0  0  0  0  0  0  0
   10.9003    1.9421   20.9574 H   0  0  0  0  0  0  0  0  0  0  0  0
   10.7126    1.0519   22.4820 H   0  0  0  0  0  0  0  0  0  0  0  0
    9.7145    2.5095   22.1575 H   0  0  0  0  0  0  0  0  0  0  0  0
    7.3982   -0.7333   20.9903 C   0  0  0  0  0  0  0  0  0  0  0  0
    6.5981   -1.6219   21.8444 N   0  0  0  0  0  0  0  0  0  0  0  0
    5.9567   -2.7336   21.3684 C   0  0  0  0  0  0  0  0  0  0  0  0
    6.0670   -3.0990   20.2067 O   0  0  0  0  0  0  0  0  0  0  0  0
    5.1071   -3.5391   22.3493 C   0  0  0  0  0  0  0  0  0  0  0  0
    4.7465   -3.1698   23.5868 N   0  0  0  0  0  0  0  0  0  0  0  0
    3.8135   -4.0442   23.9493 N   0  0  0  0  0  0  0  0  0  0  0  0
    3.5734   -5.0172   23.0237 C   0  0  0  0  0  0  0  0  0  0  0  0
    2.5162   -6.0443   23.1661 C   0  0  0  0  0  0  0  0  0  0  0  0
    2.5641   -7.1426   22.2922 C   0  0  0  0  0  0  0  0  0  0  0  0
    1.6420   -8.1828   22.3801 C   0  0  0  0  0  0  0  0  0  0  0  0
    0.6449   -8.1490   23.3565 C   0  0  0  0  0  0  0  0  0  0  0  0
    0.5534   -7.0455   24.2124 C   0  0  0  0  0  0  0  0  0  0  0  0
    1.4641   -5.9894   24.1082 C   0  0  0  0  0  0  0  0  0  0  0  0
    1.3286   -5.1295   24.7622 H   0  0  0  0  0  0  0  0  0  0  0  0
   -0.2152   -7.0272   24.9819 H   0  0  0  0  0  0  0  0  0  0  0  0
   -0.0471   -8.9791   23.4601 H   0  0  0  0  0  0  0  0  0  0  0  0
    1.7167   -9.0257   21.7015 H   0  0  0  0  0  0  0  0  0  0  0  0
    3.3548   -7.1886   21.5531 H   0  0  0  0  0  0  0  0  0  0  0  0
    4.4643   -4.7458   22.0012 C   0  0  0  0  0  0  0  0  0  0  0  0
    4.6502   -5.2994   21.0902 H   0  0  0  0  0  0  0  0  0  0  0  0
    3.3748   -3.9237   24.8470 H   0  0  0  0  0  0  0  0  0  0  0  0
    6.1784   -1.2372   22.6798 H   0  0  0  0  0  0  0  0  0  0  0  0
    6.6017   -0.0303   19.8908 C   0  0  0  0  0  0  0  0  0  0  0  0
    5.4004    0.6503   20.1260 C   0  0  0  0  0  0  0  0  0  0  0  0
    4.7825    1.3119   19.0635 C   0  0  0  0  0  0  0  0  0  0  0  0
    5.3963    1.2902   17.8071 C   0  0  0  0  0  0  0  0  0  0  0  0
    6.5497    0.6543   17.5565 N   0  0  0  0  0  0  0  0  0  0  0  0
    7.1263    0.0206   18.5881 C   0  0  0  0  0  0  0  0  0  0  0  0
    8.0768   -0.4656   18.3583 H   0  0  0  0  0  0  0  0  0  0  0  0
    4.9491    1.8213   16.9697 H   0  0  0  0  0  0  0  0  0  0  0  0
    3.8620    1.8677   19.2019 H   0  0  0  0  0  0  0  0  0  0  0  0
    4.9703    0.6907   21.1274 H   0  0  0  0  0  0  0  0  0  0  0  0
    8.1425   -1.3651   20.4993 H   0  0  0  0  0  0  0  0  0  0  0  0
    8.7354   -0.3829   22.6398 H   0  0  0  0  0  0  0  0  0  0  0  0
    6.8450    2.1913   24.1372 H   0  0  0  0  0  0  0  0  0  0  0  0
    7.2009    0.4644   24.3874 H   0  0  0  0  0  0  0  0  0  0  0  0
    8.5402    1.6409   24.1993 H   0  0  0  0  0  0  0  0  0  0  0  0
  1  2  1  0
  2  3  1  0
  3  4  1  0
  4  5  1  0
  5  6  1  0
  5  7  1  0
  5  8  1  0
  3  9  1  0
  9 10  1  0
 10 11  1  0
 11 12  2  0
 11 13  1  0
 13 14  2  0
 14 15  1  0
 15 16  1  0
 16 17  1  0
 17 18  2  0
 18 19  1  0
 19 20  2  0
 20 21  1  0
 21 22  2  0
 22 23  1  0
 21 24  1  0
 20 25  1  0
 19 26  1  0
 18 27  1  0
 16 28  2  0
 28 29  1  0
 15 30  1  0
 10 31  1  0
  9 32  1  0
 32 33  2  0
 33 34  1  0
 34 35  2  0
 35 36  1  0
 36 37  2  0
 37 38  1  0
 35 39  1  0
 34 40  1  0
 33 41  1  0
  9 42  1  0
  3 43  1  0
  1 44  1  0
  1 45  1  0
  1 46  1  0
 28 13  1  0
 37 32  1  0
 22 17  1  0
M  END
>  <plip>  (1) 
-0.13793103448275862

>  <filename>  (1) 
[H][c]1[n][c]([H])[c]([C]([H])([N]([H])[C](=[O])[c]2[n][n]([H])[c](-[c]3[c]([H])[c]([H])[c]([H])[c]([H])[c]3[H])[c]2[H])[C]([H])([O][C]([H])([H])[H])[O][C]([H])([H])[H])[c]([H])[c]1[H]

$$$$
