
     RDKit          3D

 35 36  0  0  0  0  0  0  0  0999 V2000
    9.9943   -1.4435   22.9665 H   0  0  0  0  0  0  0  0  0  0  0  0
    9.0331   -1.3689   22.4604 C   0  0  0  0  0  0  0  0  0  0  0  0
    7.8749   -1.8988   22.8861 C   0  0  0  0  0  0  0  0  0  0  0  0
    7.6814   -2.5528   24.1798 C   0  0  0  0  0  0  0  0  0  0  0  0
    8.6343   -2.8259   24.8823 O   0  0  0  0  0  0  0  0  0  0  0  0
    6.4032   -2.7748   24.5057 O   0  0  0  0  0  0  0  0  0  0  0  0
    6.0915   -3.4688   25.7521 C   0  0  0  0  0  0  0  0  0  0  0  0
    4.5675   -3.5601   25.7414 C   0  0  0  0  0  0  0  0  0  0  0  0
    4.2249   -4.0817   26.6418 H   0  0  0  0  0  0  0  0  0  0  0  0
    4.2141   -4.1183   24.8682 H   0  0  0  0  0  0  0  0  0  0  0  0
    4.1176   -2.5611   25.7337 H   0  0  0  0  0  0  0  0  0  0  0  0
    6.7091   -4.8685   25.7572 C   0  0  0  0  0  0  0  0  0  0  0  0
    6.4199   -5.4189   24.8566 H   0  0  0  0  0  0  0  0  0  0  0  0
    7.7988   -4.8128   25.8053 H   0  0  0  0  0  0  0  0  0  0  0  0
    6.3392   -5.4086   26.6335 H   0  0  0  0  0  0  0  0  0  0  0  0
    6.5514   -2.6724   26.9770 C   0  0  0  0  0  0  0  0  0  0  0  0
    6.1621   -1.6503   26.9493 H   0  0  0  0  0  0  0  0  0  0  0  0
    6.1492   -3.1645   27.8680 H   0  0  0  0  0  0  0  0  0  0  0  0
    7.6403   -2.6395   27.0484 H   0  0  0  0  0  0  0  0  0  0  0  0
    6.8156   -1.6924   21.8866 C   0  0  0  0  0  0  0  0  0  0  0  0
    5.7441   -2.2348   21.7652 O   0  0  0  0  0  0  0  0  0  0  0  0
    7.3913   -0.7867   20.9633 N   0  0  0  0  0  0  0  0  0  0  0  0
    6.7046   -0.0839   19.9375 C   0  0  0  0  0  0  0  0  0  0  0  0
    7.2378    0.0269   18.6288 C   0  0  0  0  0  0  0  0  0  0  0  0
    8.1935   -0.4379   18.4053 H   0  0  0  0  0  0  0  0  0  0  0  0
    6.6379    0.6682   17.6173 N   0  0  0  0  0  0  0  0  0  0  0  0
    5.4672    1.2702   17.8740 C   0  0  0  0  0  0  0  0  0  0  0  0
    4.9838    1.7687   17.0335 H   0  0  0  0  0  0  0  0  0  0  0  0
    4.8649    1.2541   19.1388 C   0  0  0  0  0  0  0  0  0  0  0  0
    3.9279    1.7758   19.2880 H   0  0  0  0  0  0  0  0  0  0  0  0
    5.4873    0.5669   20.1904 C   0  0  0  0  0  0  0  0  0  0  0  0
    5.0648    0.5402   21.1944 H   0  0  0  0  0  0  0  0  0  0  0  0
    8.8349   -0.6936   21.1496 C   0  0  0  0  0  0  0  0  0  0  0  0
    9.3780   -1.2357   20.3624 H   0  0  0  0  0  0  0  0  0  0  0  0
    9.1849    0.3431   21.1712 H   0  0  0  0  0  0  0  0  0  0  0  0
  1  2  1  0
  2  3  2  0
  3  4  1  0
  4  5  2  0
  4  6  1  0
  6  7  1  0
  7  8  1  0
  8  9  1  0
  8 10  1  0
  8 11  1  0
  7 12  1  0
 12 13  1  0
 12 14  1  0
 12 15  1  0
  7 16  1  0
 16 17  1  0
 16 18  1  0
 16 19  1  0
  3 20  1  0
 20 21  2  0
 20 22  1  0
 22 23  1  0
 23 24  2  0
 24 25  1  0
 24 26  1  0
 26 27  2  0
 27 28  1  0
 27 29  1  0
 29 30  1  0
 29 31  2  0
 31 32  1  0
 22 33  1  0
 33 34  1  0
 33 35  1  0
 33  2  1  0
 31 23  1  0
M  END
>  <plip>  (1) 
-0.07142857142857142

>  <filename>  (1) 
[H][C]1=[C]([C](=[O])[O][C]([C]([H])([H])[H])([C]([H])([H])[H])[C]([H])([H])[H])[C](=[O])[N]([c]2[c]([H])[n][c]([H])[c]([H])[c]2[H])[C]1([H])[H]

$$$$
