
     RDKit          3D

 26 28  0  0  0  0  0  0  0  0999 V2000
    4.9653    1.8122   16.9921 H   0  0  0  0  0  0  0  0  0  0  0  0
    5.4098    1.2993   17.8401 C   0  0  0  0  0  0  0  0  0  0  0  0
    6.5819    0.6868   17.6112 N   0  0  0  0  0  0  0  0  0  0  0  0
    7.1882    0.0888   18.6433 C   0  0  0  0  0  0  0  0  0  0  0  0
    8.1424   -0.3928   18.4213 H   0  0  0  0  0  0  0  0  0  0  0  0
    6.6489    0.0578   19.9473 C   0  0  0  0  0  0  0  0  0  0  0  0
    7.3092   -0.6525   21.0091 N   0  0  0  0  0  0  0  0  0  0  0  0
    7.6218   -1.9936   20.9862 C   0  0  0  0  0  0  0  0  0  0  0  0
    7.3212   -2.6131   20.1570 H   0  0  0  0  0  0  0  0  0  0  0  0
    8.1818   -2.4112   22.0856 N   0  0  0  0  0  0  0  0  0  0  0  0
    8.2056   -1.3156   22.9105 C   0  0  0  0  0  0  0  0  0  0  0  0
    8.5858   -1.3758   23.9167 H   0  0  0  0  0  0  0  0  0  0  0  0
    7.6594   -0.2250   22.2920 C   0  0  0  0  0  0  0  0  0  0  0  0
    7.3768    1.0481   22.8178 N   0  0  0  0  0  0  0  0  0  0  0  0
    7.0031    1.3185   24.1259 C   0  0  0  0  0  0  0  0  0  0  0  0
    6.8038    0.4981   24.8057 H   0  0  0  0  0  0  0  0  0  0  0  0
    6.8720    2.6716   24.2698 C   0  0  0  0  0  0  0  0  0  0  0  0
    6.6128    3.1990   25.1823 H   0  0  0  0  0  0  0  0  0  0  0  0
    7.1668    3.2660   23.0032 C   0  0  0  0  0  0  0  0  0  0  0  0
    7.1730    4.3230   22.7627 H   0  0  0  0  0  0  0  0  0  0  0  0
    7.4688    2.2485   22.1434 C   0  0  0  0  0  0  0  0  0  0  0  0
    7.7045    2.2443   21.0886 H   0  0  0  0  0  0  0  0  0  0  0  0
    5.4131    0.6867   20.1657 C   0  0  0  0  0  0  0  0  0  0  0  0
    4.9715    0.6867   21.1638 H   0  0  0  0  0  0  0  0  0  0  0  0
    4.7827    1.3162   19.0900 C   0  0  0  0  0  0  0  0  0  0  0  0
    3.8364    1.8353   19.2146 H   0  0  0  0  0  0  0  0  0  0  0  0
  1  2  1  0
  2  3  2  0
  3  4  1  0
  4  5  1  0
  4  6  2  0
  6  7  1  0
  7  8  1  0
  8  9  1  0
  8 10  2  0
 10 11  1  0
 11 12  1  0
 11 13  2  0
 13 14  1  0
 14 15  1  0
 15 16  1  0
 15 17  2  0
 17 18  1  0
 17 19  1  0
 19 20  1  0
 19 21  2  0
 21 22  1  0
  6 23  1  0
 23 24  1  0
 23 25  2  0
 25 26  1  0
 25  2  1  0
 13  7  1  0
 21 14  1  0
M  END
>  <plip>  (1) 
-0.0

>  <filename>  (1) 
[H][c]1[n][c]([H])[c](-[n]2[c]([H])[n][c]([H])[c]2-[n]2[c]([H])[c]([H])[c]([H])[c]2[H])[c]([H])[c]1[H]

$$$$
