
     RDKit          3D

 46 49  0  0  0  0  0  0  0  0999 V2000
    4.9574    1.7945   16.8752 H   0  0  0  0  0  0  0  0  0  0  0  0
    5.4052    1.3139   17.7448 C   0  0  0  0  0  0  0  0  0  0  0  0
    6.5699    0.6809   17.5396 N   0  0  0  0  0  0  0  0  0  0  0  0
    7.1413    0.0903   18.5996 C   0  0  0  0  0  0  0  0  0  0  0  0
    8.0753   -0.4317   18.3968 H   0  0  0  0  0  0  0  0  0  0  0  0
    6.6170    0.0955   19.9102 C   0  0  0  0  0  0  0  0  0  0  0  0
    7.3182   -0.6001   21.0284 C   0  0  0  0  0  0  0  0  0  0  0  0
    8.1765   -0.0294   21.9074 C   0  0  0  0  0  0  0  0  0  0  0  0
    8.4119    1.4553   22.0148 C   0  0  0  0  0  0  0  0  0  0  0  0
    9.2407    1.6635   22.7256 H   0  0  0  0  0  0  0  0  0  0  0  0
    8.7338    1.8269   21.0292 H   0  0  0  0  0  0  0  0  0  0  0  0
    7.1815    2.1713   22.3793 N   0  0  0  0  0  0  0  0  0  0  0  0
    6.6188    1.7526   23.6840 C   0  0  0  0  0  0  0  0  0  0  0  0
    6.1043    0.7893   23.5645 H   0  0  0  0  0  0  0  0  0  0  0  0
    7.4130    1.5974   24.4422 H   0  0  0  0  0  0  0  0  0  0  0  0
    5.6302    2.8032   24.2380 C   0  0  0  0  0  0  0  0  0  0  0  0
    4.8120    2.9056   23.5054 H   0  0  0  0  0  0  0  0  0  0  0  0
    5.1892    2.4399   25.1720 H   0  0  0  0  0  0  0  0  0  0  0  0
    6.2311    4.1382   24.4690 N   0  0  0  0  0  0  0  0  0  0  0  0
    6.5902    4.4317   25.8480 C   0  0  0  0  0  0  0  0  0  0  0  0
    6.9808    5.4547   25.9064 H   0  0  0  0  0  0  0  0  0  0  0  0
    5.7029    4.3858   26.4888 H   0  0  0  0  0  0  0  0  0  0  0  0
    7.3582    3.7591   26.2774 H   0  0  0  0  0  0  0  0  0  0  0  0
    7.3502    4.4154   23.5423 C   0  0  0  0  0  0  0  0  0  0  0  0
    8.3282    4.1388   23.9856 H   0  0  0  0  0  0  0  0  0  0  0  0
    7.3838    5.4945   23.3378 H   0  0  0  0  0  0  0  0  0  0  0  0
    7.2107    3.6432   22.2135 C   0  0  0  0  0  0  0  0  0  0  0  0
    8.0434    3.9117   21.5584 H   0  0  0  0  0  0  0  0  0  0  0  0
    6.2796    3.9747   21.7223 H   0  0  0  0  0  0  0  0  0  0  0  0
    8.7291   -1.0265   22.8996 C   0  0  0  0  0  0  0  0  0  0  0  0
    9.8258   -1.0884   22.8543 H   0  0  0  0  0  0  0  0  0  0  0  0
    8.4712   -0.7285   23.9291 H   0  0  0  0  0  0  0  0  0  0  0  0
    8.0631   -2.3564   22.5135 C   0  0  0  0  0  0  0  0  0  0  0  0
    7.1266   -2.0717   21.3214 C   0  0  0  0  0  0  0  0  0  0  0  0
    6.0674   -2.2864   21.5303 H   0  0  0  0  0  0  0  0  0  0  0  0
    7.3920   -2.6934   20.4549 H   0  0  0  0  0  0  0  0  0  0  0  0
    7.7424   -3.4088   23.5394 C   0  0  0  0  0  0  0  0  0  0  0  0
    8.0922   -3.2849   24.5615 H   0  0  0  0  0  0  0  0  0  0  0  0
    6.8033   -3.9447   23.4532 H   0  0  0  0  0  0  0  0  0  0  0  0
    8.8205   -3.6551   22.5312 C   0  0  0  0  0  0  0  0  0  0  0  0
    9.8399   -3.6676   22.9011 H   0  0  0  0  0  0  0  0  0  0  0  0
    8.6315   -4.3557   21.7241 H   0  0  0  0  0  0  0  0  0  0  0  0
    5.3853    0.7522   20.0855 C   0  0  0  0  0  0  0  0  0  0  0  0
    4.9405    0.7939   21.0827 H   0  0  0  0  0  0  0  0  0  0  0  0
    4.7662    1.3599   18.9886 C   0  0  0  0  0  0  0  0  0  0  0  0
    3.8141    1.8713   19.0832 H   0  0  0  0  0  0  0  0  0  0  0  0
  1  2  1  0
  2  3  2  0
  3  4  1  0
  4  5  1  0
  4  6  2  0
  6  7  1  0
  7  8  2  0
  8  9  1  0
  9 10  1  0
  9 11  1  0
  9 12  1  0
 12 13  1  0
 13 14  1  0
 13 15  1  0
 13 16  1  0
 16 17  1  0
 16 18  1  0
 16 19  1  0
 19 20  1  0
 20 21  1  0
 20 22  1  0
 20 23  1  0
 19 24  1  0
 24 25  1  0
 24 26  1  0
 24 27  1  0
 27 28  1  0
 27 29  1  0
  8 30  1  0
 30 31  1  0
 30 32  1  0
 30 33  1  0
 33 34  1  0
 34 35  1  0
 34 36  1  0
 33 37  1  0
 37 38  1  0
 37 39  1  0
 37 40  1  0
 40 41  1  0
 40 42  1  0
  6 43  1  0
 43 44  1  0
 43 45  2  0
 45 46  1  0
 45  2  1  0
 34  7  1  0
 27 12  1  0
 40 33  1  0
M  END
>  <plip>  (1) 
-0.07142857142857142

>  <filename>  (1) 
[H][c]1[n][c]([H])[c]([C]2=[C]([C]([H])([H])[N]3[C]([H])([H])[C]([H])([H])[N]([C]([H])([H])[H])[C]([H])([H])[C]3([H])[H])[C]([H])([H])[C]3([C]2([H])[H])[C]([H])([H])[C]3([H])[H])[c]([H])[c]1[H]

$$$$
