
     RDKit          3D

 41 43  0  0  0  0  0  0  0  0999 V2000
    9.9548    1.1358   21.6466 C   0  0  0  0  0  0  0  0  0  0  0  0
    8.5591    1.3193   21.6752 O   0  0  0  0  0  0  0  0  0  0  0  0
    7.7974    0.2305   22.1630 C   0  0  0  0  0  0  0  0  0  0  0  0
    7.3963   -0.7529   21.0187 C   0  0  1  0  0  0  0  0  0  0  0  0
    6.6460   -1.9149   21.4906 N   0  0  0  0  0  0  0  0  0  0  0  0
    7.1880   -2.8512   22.2937 C   0  0  0  0  0  0  0  0  0  0  0  0
    8.3570   -2.7824   22.6875 O   0  0  0  0  0  0  0  0  0  0  0  0
    6.3118   -3.9336   22.7274 C   0  0  0  0  0  0  0  0  0  0  0  0
    6.4854   -4.4875   23.9907 C   0  0  0  0  0  0  0  0  0  0  0  0
    7.4102   -3.9954   24.7972 O   0  0  0  0  0  0  0  0  0  0  0  0
    8.0260   -3.4973   24.2010 H   0  0  0  0  0  0  0  0  0  0  0  0
    5.6718   -5.5861   24.3987 C   0  0  0  0  0  0  0  0  0  0  0  0
    5.7922   -6.2308   25.6653 C   0  0  0  0  0  0  0  0  0  0  0  0
    4.9557   -7.2704   25.9887 C   0  0  0  0  0  0  0  0  0  0  0  0
    3.9956   -7.7515   25.0652 C   0  0  0  0  0  0  0  0  0  0  0  0
    2.9757   -9.0840   25.4744 Cl  0  0  0  0  0  0  0  0  0  0  0  0
    3.8742   -7.1572   23.8302 C   0  0  0  0  0  0  0  0  0  0  0  0
    2.9676   -7.6024   22.9675 F   0  0  0  0  0  0  0  0  0  0  0  0
    4.7062   -6.0477   23.4573 C   0  0  0  0  0  0  0  0  0  0  0  0
    4.5513   -5.4869   22.2153 N   0  0  0  0  0  0  0  0  0  0  0  0
    5.3217   -4.4808   21.8943 C   0  0  0  0  0  0  0  0  0  0  0  0
    5.1700   -4.0896   20.8875 H   0  0  0  0  0  0  0  0  0  0  0  0
    5.0314   -7.7672   26.9477 H   0  0  0  0  0  0  0  0  0  0  0  0
    6.5544   -5.9053   26.3644 H   0  0  0  0  0  0  0  0  0  0  0  0
    5.6436   -1.8600   21.4741 H   0  0  0  0  0  0  0  0  0  0  0  0
    6.6098   -0.0685   19.9187 C   0  0  0  0  0  0  0  0  0  0  0  0
    5.4039    0.6070   20.1493 C   0  0  0  0  0  0  0  0  0  0  0  0
    4.8016    1.2860   19.0880 C   0  0  0  0  0  0  0  0  0  0  0  0
    5.4129    1.2687   17.8304 C   0  0  0  0  0  0  0  0  0  0  0  0
    6.5638    0.6284   17.5857 N   0  0  0  0  0  0  0  0  0  0  0  0
    7.1326   -0.0087   18.6180 C   0  0  0  0  0  0  0  0  0  0  0  0
    8.0818   -0.4935   18.3942 H   0  0  0  0  0  0  0  0  0  0  0  0
    4.9644    1.8021   16.9924 H   0  0  0  0  0  0  0  0  0  0  0  0
    3.8799    1.8328   19.2269 H   0  0  0  0  0  0  0  0  0  0  0  0
    4.9519    0.6289   21.1453 H   0  0  0  0  0  0  0  0  0  0  0  0
    8.3425   -1.1179   20.6025 H   0  0  0  0  0  0  0  0  0  0  0  0
    6.8856    0.6587   22.5978 H   0  0  0  0  0  0  0  0  0  0  0  0
    8.3229   -0.3334   22.9481 H   0  0  0  0  0  0  0  0  0  0  0  0
   10.3710    1.0441   22.6615 H   0  0  0  0  0  0  0  0  0  0  0  0
   10.2632    0.2506   21.0670 H   0  0  0  0  0  0  0  0  0  0  0  0
   10.3770    2.0269   21.1733 H   0  0  0  0  0  0  0  0  0  0  0  0
  1  2  1  0
  2  3  1  0
  3  4  1  0
  4  5  1  0
  5  6  1  0
  6  7  2  0
  6  8  1  0
  8  9  2  0
  9 10  1  0
 10 11  1  0
  9 12  1  0
 12 13  2  0
 13 14  1  0
 14 15  2  0
 15 16  1  0
 15 17  1  0
 17 18  1  0
 17 19  2  0
 19 20  1  0
 20 21  2  0
 21 22  1  0
 14 23  1  0
 13 24  1  0
  5 25  1  0
  4 26  1  0
 26 27  2  0
 27 28  1  0
 28 29  2  0
 29 30  1  0
 30 31  2  0
 31 32  1  0
 29 33  1  0
 28 34  1  0
 27 35  1  0
  4 36  1  6
  3 37  1  0
  3 38  1  0
  1 39  1  0
  1 40  1  0
  1 41  1  0
 21  8  1  0
 31 26  1  0
 19 12  1  0
M  END
>  <plip>  (1) 
-0.13793103448275862

>  <filename>  (1) 
[H][O][c]1[c]([C](=[O])[N]([H])[C@@]([H])([c]2[c]([H])[n][c]([H])[c]([H])[c]2[H])[C]([H])([H])[O][C]([H])([H])[H])[c]([H])[n][c]2[c]([F])[c]([Cl])[c]([H])[c]([H])[c]12

$$$$
