
     RDKit          3D

 28 29  0  0  0  0  0  0  0  0999 V2000
    5.4413    2.4263   24.5065 H   0  0  0  0  0  0  0  0  0  0  0  0
    6.1864    2.3775   23.7259 C   0  0  0  0  0  0  0  0  0  0  0  0
    6.6870    3.3338   23.0246 N   0  0  0  0  0  0  0  0  0  0  0  0
    7.5888    2.6926   22.1921 C   0  0  0  0  0  0  0  0  0  0  0  0
    8.1735    3.2359   21.4670 H   0  0  0  0  0  0  0  0  0  0  0  0
    7.5891    1.3630   22.4478 C   0  0  0  0  0  0  0  0  0  0  0  0
    8.3553    0.2112   21.8240 C   0  0  1  0  0  0  0  0  0  0  0  0
    9.4273    0.6848   20.9269 N   0  0  0  0  0  0  0  0  0  0  0  0
    9.0004    1.2985   20.2386 H   0  0  0  0  0  0  0  0  0  0  0  0
   10.0276    1.3025   21.4690 H   0  0  0  0  0  0  0  0  0  0  0  0
    9.0290   -0.6336   22.9074 C   0  0  0  0  0  0  0  0  0  0  0  0
    9.6830   -0.0150   23.5284 H   0  0  0  0  0  0  0  0  0  0  0  0
    8.2785   -1.0928   23.5530 H   0  0  0  0  0  0  0  0  0  0  0  0
    9.6267   -1.4188   22.4368 H   0  0  0  0  0  0  0  0  0  0  0  0
    7.4006   -0.7093   20.9953 C   0  0  0  0  0  0  0  0  0  0  0  0
    6.6871   -1.1589   21.6961 H   0  0  0  0  0  0  0  0  0  0  0  0
    8.0165   -1.5159   20.5794 H   0  0  0  0  0  0  0  0  0  0  0  0
    6.6379   -0.0168   19.8866 C   0  0  0  0  0  0  0  0  0  0  0  0
    7.1514    0.0581   18.5782 C   0  0  0  0  0  0  0  0  0  0  0  0
    8.1079   -0.4155   18.3591 H   0  0  0  0  0  0  0  0  0  0  0  0
    6.5578    0.6840   17.5540 N   0  0  0  0  0  0  0  0  0  0  0  0
    5.3978    1.3004   17.8248 C   0  0  0  0  0  0  0  0  0  0  0  0
    4.9164    1.7929   16.9838 H   0  0  0  0  0  0  0  0  0  0  0  0
    4.8011    1.3148   19.0930 C   0  0  0  0  0  0  0  0  0  0  0  0
    3.8687    1.8476   19.2461 H   0  0  0  0  0  0  0  0  0  0  0  0
    5.4289    0.6460   20.1463 C   0  0  0  0  0  0  0  0  0  0  0  0
    5.0085    0.6363   21.1569 H   0  0  0  0  0  0  0  0  0  0  0  0
    6.6717    1.1485   23.4436 O   0  0  0  0  0  0  0  0  0  0  0  0
  1  2  1  0
  2  3  2  0
  3  4  1  0
  4  5  1  0
  4  6  2  0
  6  7  1  0
  7  8  1  6
  8  9  1  0
  8 10  1  0
  7 11  1  0
 11 12  1  0
 11 13  1  0
 11 14  1  0
  7 15  1  0
 15 16  1  0
 15 17  1  0
 15 18  1  0
 18 19  2  0
 19 20  1  0
 19 21  1  0
 21 22  2  0
 22 23  1  0
 22 24  1  0
 24 25  1  0
 24 26  2  0
 26 27  1  0
  6 28  1  0
 28  2  1  0
 26 18  1  0
M  END
>  <plip>  (1) 
-0.10714285714285714

>  <filename>  (1) 
[H][c]1[n][c]([H])[c]([C@@]([N]([H])[H])([C]([H])([H])[H])[C]([H])([H])[c]2[c]([H])[n][c]([H])[c]([H])[c]2[H])[o]1

$$$$
