
     RDKit          3D

 27 28  0  0  0  0  0  0  0  0999 V2000
    4.9620    1.7733   17.0334 H   0  0  0  0  0  0  0  0  0  0  0  0
    5.4338    1.2615   17.8668 C   0  0  0  0  0  0  0  0  0  0  0  0
    6.5936    0.6415   17.5965 N   0  0  0  0  0  0  0  0  0  0  0  0
    7.2138    0.0170   18.6034 C   0  0  0  0  0  0  0  0  0  0  0  0
    8.1591   -0.4568   18.3521 H   0  0  0  0  0  0  0  0  0  0  0  0
    6.7048   -0.0283   19.9258 C   0  0  0  0  0  0  0  0  0  0  0  0
    7.3369   -0.6483   21.0536 N   0  0  0  0  0  0  0  0  0  0  0  0
    8.3458   -1.3200   20.7555 N   0  0  0  0  0  0  0  0  0  0  0  0
    8.9817   -1.9577   21.9161 C   0  0  0  0  0  0  0  0  0  0  0  0
    9.9455   -2.3240   21.5375 H   0  0  0  0  0  0  0  0  0  0  0  0
    9.1322   -1.2425   22.7390 H   0  0  0  0  0  0  0  0  0  0  0  0
    8.1886   -3.0551   22.3248 O   0  0  0  0  0  0  0  0  0  0  0  0
    8.5779   -3.8286   23.3846 C   0  0  0  0  0  0  0  0  0  0  0  0
    9.7790   -3.7155   24.1017 C   0  0  0  0  0  0  0  0  0  0  0  0
   10.4994   -2.9416   23.8552 H   0  0  0  0  0  0  0  0  0  0  0  0
   10.0376   -4.6085   25.1565 C   0  0  0  0  0  0  0  0  0  0  0  0
   10.9646   -4.5276   25.7206 H   0  0  0  0  0  0  0  0  0  0  0  0
    9.0973   -5.5795   25.5116 C   0  0  0  0  0  0  0  0  0  0  0  0
    9.2945   -6.2761   26.3208 H   0  0  0  0  0  0  0  0  0  0  0  0
    7.8791   -5.6471   24.8248 C   0  0  0  0  0  0  0  0  0  0  0  0
    7.0982   -6.3225   25.1640 H   0  0  0  0  0  0  0  0  0  0  0  0
    7.6356   -4.8058   23.7442 C   0  0  0  0  0  0  0  0  0  0  0  0
    6.7223   -4.8618   23.1605 H   0  0  0  0  0  0  0  0  0  0  0  0
    5.4893    0.6149   20.1840 C   0  0  0  0  0  0  0  0  0  0  0  0
    5.0835    0.5895   21.1962 H   0  0  0  0  0  0  0  0  0  0  0  0
    4.8453    1.2714   19.1361 C   0  0  0  0  0  0  0  0  0  0  0  0
    3.9117    1.8035   19.2869 H   0  0  0  0  0  0  0  0  0  0  0  0
  1  2  1  0
  2  3  2  0
  3  4  1  0
  4  5  1  0
  4  6  2  0
  6  7  1  0
  7  8  2  3
  8  9  1  0
  9 10  1  0
  9 11  1  0
  9 12  1  0
 12 13  1  0
 13 14  2  0
 14 15  1  0
 14 16  1  0
 16 17  1  0
 16 18  2  0
 18 19  1  0
 18 20  1  0
 20 21  1  0
 20 22  2  0
 22 23  1  0
  6 24  1  0
 24 25  1  0
 24 26  2  0
 26 27  1  0
 26  2  1  0
 22 13  1  0
M  END
>  <plip>  (1) 
-0.1

>  <filename>  (1) 
[H][c]1[n][c]([H])[c]([N]=[N][C]([H])([H])[O][c]2[c]([H])[c]([H])[c]([H])[c]([H])[c]2[H])[c]([H])[c]1[H]

$$$$
