
     RDKit          3D

 37 40  0  0  0  0  0  0  0  0999 V2000
    8.7396    1.0032   21.6211 H   0  0  0  0  0  0  0  0  0  0  0  0
    8.0141    0.2865   21.9584 C   0  0  0  0  0  0  0  0  0  0  0  0
    7.5251    0.3172   23.2205 C   0  0  0  0  0  0  0  0  0  0  0  0
    7.7871    1.4162   24.1745 C   0  0  0  0  0  0  0  0  0  0  0  0
    7.9172    1.1713   25.5827 C   0  0  0  0  0  0  0  0  0  0  0  0
    7.7407    0.1687   25.9781 H   0  0  0  0  0  0  0  0  0  0  0  0
    8.2991    2.1846   26.4236 C   0  0  0  0  0  0  0  0  0  0  0  0
    8.4190    2.0415   27.4893 H   0  0  0  0  0  0  0  0  0  0  0  0
    8.5633    3.4957   25.9217 C   0  0  0  0  0  0  0  0  0  0  0  0
    8.9623    4.4448   26.8177 N   0  0  0  0  0  0  0  0  0  0  0  0
    9.2487    5.6395   26.3546 C   0  0  0  0  0  0  0  0  0  0  0  0
    9.6143    6.3619   27.0816 H   0  0  0  0  0  0  0  0  0  0  0  0
    9.1358    6.0107   24.9847 C   0  0  0  0  0  0  0  0  0  0  0  0
    9.4037    7.0176   24.6880 H   0  0  0  0  0  0  0  0  0  0  0  0
    8.7027    5.0811   24.0720 C   0  0  0  0  0  0  0  0  0  0  0  0
    8.5985    5.3235   23.0131 H   0  0  0  0  0  0  0  0  0  0  0  0
    8.3968    3.7615   24.5254 C   0  0  0  0  0  0  0  0  0  0  0  0
    7.9770    2.6993   23.6782 C   0  0  0  0  0  0  0  0  0  0  0  0
    7.7997    2.8957   22.6204 H   0  0  0  0  0  0  0  0  0  0  0  0
    6.7225   -0.7448   23.6220 N   0  0  0  0  0  0  0  0  0  0  0  0
    6.2979   -0.7940   24.5306 H   0  0  0  0  0  0  0  0  0  0  0  0
    6.4762   -1.8454   22.8640 C   0  0  0  0  0  0  0  0  0  0  0  0
    5.7457   -3.1882   23.5036 S   0  0  0  0  0  0  0  0  0  0  0  0
    6.8555   -1.7991   21.5790 N   0  0  0  0  0  0  0  0  0  0  0  0
    6.4841   -2.5595   21.0370 H   0  0  0  0  0  0  0  0  0  0  0  0
    7.5405   -0.6831   20.9375 C   0  0  1  0  0  0  0  0  0  0  0  0
    8.4132   -1.1096   20.4091 H   0  0  0  0  0  0  0  0  0  0  0  0
    6.6713   -0.0251   19.8542 C   0  0  0  0  0  0  0  0  0  0  0  0
    7.1558    0.0225   18.5428 C   0  0  0  0  0  0  0  0  0  0  0  0
    8.0967   -0.4748   18.3064 H   0  0  0  0  0  0  0  0  0  0  0  0
    6.5620    0.6560   17.5258 N   0  0  0  0  0  0  0  0  0  0  0  0
    5.4102    1.2866   17.8053 C   0  0  0  0  0  0  0  0  0  0  0  0
    4.9452    1.8124   16.9740 H   0  0  0  0  0  0  0  0  0  0  0  0
    4.8153    1.2804   19.0737 C   0  0  0  0  0  0  0  0  0  0  0  0
    3.8809    1.8139   19.2214 H   0  0  0  0  0  0  0  0  0  0  0  0
    5.4502    0.6133   20.1252 C   0  0  0  0  0  0  0  0  0  0  0  0
    5.0160    0.6053   21.1292 H   0  0  0  0  0  0  0  0  0  0  0  0
  1  2  1  0
  2  3  2  0
  3  4  1  0
  4  5  2  0
  5  6  1  0
  5  7  1  0
  7  8  1  0
  7  9  2  0
  9 10  1  0
 10 11  2  0
 11 12  1  0
 11 13  1  0
 13 14  1  0
 13 15  2  0
 15 16  1  0
 15 17  1  0
 17 18  2  0
 18 19  1  0
  3 20  1  0
 20 21  1  0
 20 22  1  0
 22 23  2  0
 22 24  1  0
 24 25  1  0
 24 26  1  0
 26 27  1  6
 26 28  1  0
 28 29  2  0
 29 30  1  0
 29 31  1  0
 31 32  2  0
 32 33  1  0
 32 34  1  0
 34 35  1  0
 34 36  2  0
 36 37  1  0
 26  2  1  0
 36 28  1  0
 18  4  1  0
 17  9  1  0
M  END
>  <plip>  (1) 
-0.03571428571428571

>  <filename>  (1) 
[H][C]1=[C]([c]2[c]([H])[c]([H])[c]3[n][c]([H])[c]([H])[c]([H])[c]3[c]2[H])[N]([H])[C](=[S])[N]([H])[C@@]1([H])[c]1[c]([H])[n][c]([H])[c]([H])[c]1[H]

$$$$
