
     RDKit          3D

 22 23  0  0  0  0  0  0  0  0999 V2000
    6.8717   -2.5049   21.8602 H   0  0  0  0  0  0  0  0  0  0  0  0
    6.4524   -1.5737   22.0511 N   0  0  0  0  0  0  0  0  0  0  0  0
    7.5481   -0.7875   21.1459 S   0  0  2  0  0  6  0  0  0  0  0  0
    8.5174   -1.7271   20.5280 O   0  0  0  0  0  0  0  0  0  0  0  0
    8.2768    0.4137   22.1692 C   0  0  0  0  0  0  0  0  0  0  0  0
    7.4582    0.9564   23.5893 S   0  0  0  0  0  0  0  0  0  0  0  0
    8.7832    2.0196   23.9186 C   0  0  0  0  0  0  0  0  0  0  0  0
    8.7884    3.0456   25.2914 Cl  0  0  0  0  0  0  0  0  0  0  0  0
    9.7803    1.9349   22.9931 C   0  0  0  0  0  0  0  0  0  0  0  0
   10.6834    2.5235   23.0429 H   0  0  0  0  0  0  0  0  0  0  0  0
    9.4937    0.9915   21.9764 C   0  0  0  0  0  0  0  0  0  0  0  0
   10.1536    0.7364   21.1521 H   0  0  0  0  0  0  0  0  0  0  0  0
    6.6255    0.0527   19.9524 C   0  0  0  0  0  0  0  0  0  0  0  0
    7.1892    0.0243   18.6869 C   0  0  0  0  0  0  0  0  0  0  0  0
    8.1337   -0.4876   18.4960 H   0  0  0  0  0  0  0  0  0  0  0  0
    6.6081    0.6265   17.6567 N   0  0  0  0  0  0  0  0  0  0  0  0
    5.4456    1.2618   17.8790 C   0  0  0  0  0  0  0  0  0  0  0  0
    4.9995    1.7517   17.0199 H   0  0  0  0  0  0  0  0  0  0  0  0
    4.8125    1.3031   19.1244 C   0  0  0  0  0  0  0  0  0  0  0  0
    3.8805    1.8366   19.2409 H   0  0  0  0  0  0  0  0  0  0  0  0
    5.3969    0.6668   20.2094 C   0  0  0  0  0  0  0  0  0  0  0  0
    4.9056    0.6465   21.1842 H   0  0  0  0  0  0  0  0  0  0  0  0
  1  2  1  0
  2  3  2  0
  3  4  2  0
  3  5  1  1
  5  6  1  0
  6  7  1  0
  7  8  1  0
  7  9  2  0
  9 10  1  0
  9 11  1  0
 11 12  1  0
  3 13  1  0
 13 14  2  0
 14 15  1  0
 14 16  1  0
 16 17  2  0
 17 18  1  0
 17 19  1  0
 19 20  1  0
 19 21  2  0
 21 22  1  0
 11  5  2  0
 21 13  1  0
M  END
>  <plip>  (1) 
-0.034482758620689655

>  <filename>  (1) 
[H][N]=[S@](=[O])([c]1[s][c]([Cl])[c]([H])[c]1[H])[c]1[c]([H])[n][c]([H])[c]([H])[c]1[H]

$$$$
