
     RDKit          3D

 28 29  0  0  0  0  0  0  0  0999 V2000
    5.3626    1.9009   16.6386 H   0  0  0  0  0  0  0  0  0  0  0  0
    5.5399    1.3844   17.5812 C   0  0  0  0  0  0  0  0  0  0  0  0
    6.7321    0.7835   17.7145 N   0  0  0  0  0  0  0  0  0  0  0  0
    7.0021    0.1789   18.8801 C   0  0  0  0  0  0  0  0  0  0  0  0
    7.9719   -0.3154   18.9411 H   0  0  0  0  0  0  0  0  0  0  0  0
    6.0934    0.1320   19.9528 C   0  0  0  0  0  0  0  0  0  0  0  0
    6.5632   -0.6562   21.4970 S   0  0  0  0  0  0  0  0  0  0  0  0
    7.8455    0.3130   22.1059 N   0  0  0  0  0  0  0  0  0  0  0  0
    7.5460    1.2863   22.2523 H   0  0  0  0  0  0  0  0  0  0  0  0
    9.4373    0.3058   21.4411 S   0  0  0  0  0  0  0  0  0  0  0  0
   10.4461   -0.2155   22.8831 C   0  0  0  0  0  0  0  0  0  0  0  0
    9.9285   -1.0416   23.3886 H   0  0  0  0  0  0  0  0  0  0  0  0
   10.5105    0.6261   23.5810 H   0  0  0  0  0  0  0  0  0  0  0  0
   11.7966   -0.6141   22.3261 C   0  0  0  0  0  0  0  0  0  0  0  0
   12.9685    0.0574   22.6881 C   0  0  0  0  0  0  0  0  0  0  0  0
   12.9280    0.8065   23.4725 H   0  0  0  0  0  0  0  0  0  0  0  0
   14.1806   -0.2085   22.0417 C   0  0  0  0  0  0  0  0  0  0  0  0
   15.0534    0.3849   22.2966 H   0  0  0  0  0  0  0  0  0  0  0  0
   14.2292   -1.1729   21.0299 C   0  0  0  0  0  0  0  0  0  0  0  0
   15.1195   -1.3214   20.4268 H   0  0  0  0  0  0  0  0  0  0  0  0
   13.0796   -1.8838   20.6965 C   0  0  0  0  0  0  0  0  0  0  0  0
   13.1323   -2.6368   19.9148 H   0  0  0  0  0  0  0  0  0  0  0  0
   11.8739   -1.6182   21.3482 C   0  0  0  0  0  0  0  0  0  0  0  0
   10.9661   -2.1363   21.0513 H   0  0  0  0  0  0  0  0  0  0  0  0
    4.8323    0.7246   19.7860 C   0  0  0  0  0  0  0  0  0  0  0  0
    4.1011    0.6982   20.5933 H   0  0  0  0  0  0  0  0  0  0  0  0
    4.5615    1.3744   18.5801 C   0  0  0  0  0  0  0  0  0  0  0  0
    3.6206    1.8910   18.4185 H   0  0  0  0  0  0  0  0  0  0  0  0
  1  2  1  0
  2  3  2  0
  3  4  1  0
  4  5  1  0
  4  6  2  0
  6  7  1  0
  7  8  1  0
  8  9  1  0
  8 10  1  0
 10 11  1  0
 11 12  1  0
 11 13  1  0
 11 14  1  0
 14 15  2  0
 15 16  1  0
 15 17  1  0
 17 18  1  0
 17 19  2  0
 19 20  1  0
 19 21  1  0
 21 22  1  0
 21 23  2  0
 23 24  1  0
  6 25  1  0
 25 26  1  0
 25 27  2  0
 27 28  1  0
 27  2  1  0
 23 14  1  0
M  END
>  <plip>  (1) 
-0.06896551724137931

>  <filename>  (1) 
[H][c]1[n][c]([H])[c]([S][N]([H])[S][C]([H])([H])[c]2[c]([H])[c]([H])[c]([H])[c]([H])[c]2[H])[c]([H])[c]1[H]

$$$$
