
     RDKit          3D

 28 29  0  0  0  0  0  0  0  0999 V2000
    7.6631   -2.2077   19.7396 H   0  0  0  0  0  0  0  0  0  0  0  0
    7.8137   -1.9919   20.7237 N   0  0  0  0  0  0  0  0  0  0  0  0
    7.2674   -0.8679   20.9666 C   0  0  0  0  0  0  0  0  0  0  0  0
    7.2681   -0.1353   22.6363 S   0  0  0  0  0  0  0  0  0  0  0  0
    8.7408    0.7038   22.7693 N   0  0  0  0  0  0  0  0  0  0  0  0
    9.9648   -0.0985   22.9295 C   0  0  0  0  0  0  0  0  0  0  0  0
    9.7507   -1.1487   22.6963 H   0  0  0  0  0  0  0  0  0  0  0  0
   10.2791   -0.0527   23.9771 H   0  0  0  0  0  0  0  0  0  0  0  0
   11.0079    0.5164   21.9832 C   0  0  0  0  0  0  0  0  0  0  0  0
   11.7665    1.0747   22.5411 H   0  0  0  0  0  0  0  0  0  0  0  0
   11.5333   -0.2426   21.3957 H   0  0  0  0  0  0  0  0  0  0  0  0
   10.2332    1.4956   21.0977 C   0  0  2  0  0  0  0  0  0  0  0  0
    9.8429    0.9592   20.2149 H   0  0  0  0  0  0  0  0  0  0  0  0
   11.1017    2.5480   20.7208 O   0  0  0  0  0  0  0  0  0  0  0  0
   10.5971    3.3532   20.5253 H   0  0  0  0  0  0  0  0  0  0  0  0
    9.0185    1.8894   21.9507 C   0  0  0  0  0  0  0  0  0  0  0  0
    9.2761    2.7332   22.6062 H   0  0  0  0  0  0  0  0  0  0  0  0
    8.1537    2.1880   21.3489 H   0  0  0  0  0  0  0  0  0  0  0  0
    6.5897   -0.0555   19.9130 C   0  0  0  0  0  0  0  0  0  0  0  0
    7.1834    0.0028   18.6479 C   0  0  0  0  0  0  0  0  0  0  0  0
    8.1305   -0.5093   18.4626 H   0  0  0  0  0  0  0  0  0  0  0  0
    6.6741    0.6629   17.6084 N   0  0  0  0  0  0  0  0  0  0  0  0
    5.5156    1.3138   17.8158 C   0  0  0  0  0  0  0  0  0  0  0  0
    5.0933    1.8267   16.9587 H   0  0  0  0  0  0  0  0  0  0  0  0
    4.8360    1.3229   19.0410 C   0  0  0  0  0  0  0  0  0  0  0  0
    3.8960    1.8598   19.1386 H   0  0  0  0  0  0  0  0  0  0  0  0
    5.3824    0.6346   20.1210 C   0  0  0  0  0  0  0  0  0  0  0  0
    4.8858    0.6067   21.0955 H   0  0  0  0  0  0  0  0  0  0  0  0
  1  2  1  0
  2  3  2  3
  3  4  1  0
  4  5  1  0
  5  6  1  0
  6  7  1  0
  6  8  1  0
  6  9  1  0
  9 10  1  0
  9 11  1  0
  9 12  1  0
 12 13  1  6
 12 14  1  0
 14 15  1  0
 12 16  1  0
 16 17  1  0
 16 18  1  0
  3 19  1  0
 19 20  2  0
 20 21  1  0
 20 22  1  0
 22 23  2  0
 23 24  1  0
 23 25  1  0
 25 26  1  0
 25 27  2  0
 27 28  1  0
 16  5  1  0
 27 19  1  0
M  END
>  <plip>  (1) 
-0.1

>  <filename>  (1) 
[H][N]=[C]([S][N]1[C]([H])([H])[C]([H])([H])[C@]([H])([O][H])[C]1([H])[H])[c]1[c]([H])[n][c]([H])[c]([H])[c]1[H]

$$$$
