
     RDKit          3D

 35 37  0  0  0  0  0  0  0  0999 V2000
    5.6955   -2.0513   21.3343 O   0  0  0  0  0  0  0  0  0  0  0  0
    6.7452   -1.5198   21.6388 C   0  0  0  0  0  0  0  0  0  0  0  0
    7.3924   -0.6434   20.7835 N   0  0  0  0  0  0  0  0  0  0  0  0
    6.7151    0.0669   19.7305 C   0  0  0  0  0  0  0  0  0  0  0  0
    5.4874    0.6899   19.9885 C   0  0  0  0  0  0  0  0  0  0  0  0
    4.8329    1.3610   18.9505 C   0  0  0  0  0  0  0  0  0  0  0  0
    5.4248    1.3856   17.6854 C   0  0  0  0  0  0  0  0  0  0  0  0
    6.6054    0.8000   17.4197 N   0  0  0  0  0  0  0  0  0  0  0  0
    7.2368    0.1722   18.4217 C   0  0  0  0  0  0  0  0  0  0  0  0
    8.1860   -0.3046   18.1735 H   0  0  0  0  0  0  0  0  0  0  0  0
    4.9362    1.8918   16.8538 H   0  0  0  0  0  0  0  0  0  0  0  0
    3.8876    1.8687   19.1168 H   0  0  0  0  0  0  0  0  0  0  0  0
    5.0674    0.6427   20.9916 H   0  0  0  0  0  0  0  0  0  0  0  0
    8.3229   -0.3451   21.0194 H   0  0  0  0  0  0  0  0  0  0  0  0
    7.5126   -1.8737   22.9590 C   0  0  2  0  0  0  0  0  0  0  0  0
    7.9631   -3.3261   22.9184 C   0  0  0  0  0  0  0  0  0  0  0  0
    8.5004   -3.9309   24.2043 C   0  0  0  0  0  0  0  0  0  0  0  0
    9.0561   -5.2161   24.1034 C   0  0  0  0  0  0  0  0  0  0  0  0
    9.6532   -5.8369   25.1999 C   0  0  0  0  0  0  0  0  0  0  0  0
    9.6667   -5.1754   26.4328 C   0  0  0  0  0  0  0  0  0  0  0  0
    9.0481   -3.9299   26.5636 C   0  0  0  0  0  0  0  0  0  0  0  0
    8.4287   -3.3073   25.4661 C   0  0  0  0  0  0  0  0  0  0  0  0
    7.6906   -1.9928   25.6612 C   0  0  0  0  0  0  0  0  0  0  0  0
    6.6974   -1.7806   24.5688 N   0  0  0  0  0  4  0  0  0  0  0  0
    6.1363   -0.9371   24.6739 H   0  0  0  0  0  0  0  0  0  0  0  0
    6.0806   -2.6081   24.5426 H   0  0  0  0  0  0  0  0  0  0  0  0
    8.4290   -1.1816   25.6688 H   0  0  0  0  0  0  0  0  0  0  0  0
    7.2263   -1.9927   26.6563 H   0  0  0  0  0  0  0  0  0  0  0  0
    9.0300   -3.4402   27.5360 H   0  0  0  0  0  0  0  0  0  0  0  0
   10.1534   -5.6294   27.2922 H   0  0  0  0  0  0  0  0  0  0  0  0
   10.1033   -6.8238   25.1229 H   0  0  0  0  0  0  0  0  0  0  0  0
    9.0168   -5.7114   23.1360 H   0  0  0  0  0  0  0  0  0  0  0  0
    7.1152   -3.9371   22.5807 H   0  0  0  0  0  0  0  0  0  0  0  0
    8.7194   -3.4135   22.1289 H   0  0  0  0  0  0  0  0  0  0  0  0
    8.3367   -1.1743   23.0922 H   0  0  0  0  0  0  0  0  0  0  0  0
  1  2  2  0
  2  3  1  0
  3  4  1  0
  4  5  2  0
  5  6  1  0
  6  7  2  0
  7  8  1  0
  8  9  2  0
  9 10  1  0
  7 11  1  0
  6 12  1  0
  5 13  1  0
  3 14  1  0
  2 15  1  0
 15 16  1  0
 16 17  1  0
 17 18  2  0
 18 19  1  0
 19 20  2  0
 20 21  1  0
 21 22  2  0
 22 23  1  0
 23 24  1  0
 24 25  1  0
 24 26  1  0
 23 27  1  0
 23 28  1  0
 21 29  1  0
 20 30  1  0
 19 31  1  0
 18 32  1  0
 16 33  1  0
 16 34  1  0
 15 35  1  1
  9  4  1  0
 24 15  1  0
 22 17  1  0
M  CHG  1  24   1
M  END
>  <plip>  (1) 
-0.14285714285714285

>  <filename>  (1) 
[H][c]1[n][c]([H])[c]([N]([H])[C](=[O])[C@]2([H])[C]([H])([H])[c]3[c]([H])[c]([H])[c]([H])[c]([H])[c]3[C]([H])([H])[N+]2([H])[H])[c]([H])[c]1[H]

$$$$
