
     RDKit          3D

 40 42  0  0  0  0  0  0  0  0999 V2000
    4.8448    1.6375   17.1187 H   0  0  0  0  0  0  0  0  0  0  0  0
    5.4033    1.2529   17.9680 C   0  0  0  0  0  0  0  0  0  0  0  0
    6.6110    0.7196   17.6873 N   0  0  0  0  0  0  0  0  0  0  0  0
    7.3213    0.2418   18.7028 C   0  0  0  0  0  0  0  0  0  0  0  0
    8.2972   -0.1884   18.4699 H   0  0  0  0  0  0  0  0  0  0  0  0
    6.8935    0.2242   20.0903 C   0  0  0  0  0  0  0  0  0  0  0  0
    7.6694   -0.4014   20.9720 N   0  0  0  0  0  0  0  0  0  0  0  0
    6.8426   -2.6045   21.2969 C   0  0  0  0  0  0  0  0  0  0  0  0
    6.6646   -2.9438   21.2213 O   0  0  0  0  0  0  0  0  0  0  0  0
    9.3038   -2.0560   22.3304 C   0  0  0  0  0  0  0  0  0  0  0  0
    9.4340   -2.1979   21.2659 H   0  0  0  0  0  0  0  0  0  0  0  0
    9.0607   -2.9742   22.8367 H   0  0  0  0  0  0  0  0  0  0  0  0
    9.2388   -0.7492   22.8180 C   0  0  0  0  0  0  0  0  0  0  0  0
   10.0825   -0.1251   22.4365 H   0  0  0  0  0  0  0  0  0  0  0  0
    9.2478   -0.6624   23.9302 H   0  0  0  0  0  0  0  0  0  0  0  0
    7.8915    0.0587   22.2870 C   0  0  2  0  0  0  0  0  0  0  0  0
    8.1664    1.1306   22.2700 H   0  0  0  0  0  0  0  0  0  0  0  0
    6.7987   -0.0468   23.3766 C   0  0  0  0  0  0  0  0  0  0  0  0
    6.4369   -1.2396   24.0269 C   0  0  0  0  0  0  0  0  0  0  0  0
    6.8902   -2.1823   23.7507 H   0  0  0  0  0  0  0  0  0  0  0  0
    5.4715   -1.2498   25.0402 C   0  0  0  0  0  0  0  0  0  0  0  0
    5.1789   -2.1925   25.4793 H   0  0  0  0  0  0  0  0  0  0  0  0
    4.7927   -0.0748   25.4264 C   0  0  0  0  0  0  0  0  0  0  0  0
    3.6940   -0.0929   26.2829 N   0  0  0  0  0  0  0  0  0  0  0  0
    2.8936    1.1172   26.4220 C   0  0  0  0  0  0  0  0  0  0  0  0
    3.4126    1.8676   27.0330 H   0  0  0  0  0  0  0  0  0  0  0  0
    2.6596    1.5759   25.4484 H   0  0  0  0  0  0  0  0  0  0  0  0
    1.9438    0.8898   26.9139 H   0  0  0  0  0  0  0  0  0  0  0  0
    3.0594   -1.3583   26.6209 C   0  0  0  0  0  0  0  0  0  0  0  0
    2.2895   -1.1858   27.3794 H   0  0  0  0  0  0  0  0  0  0  0  0
    3.7799   -2.0593   27.0560 H   0  0  0  0  0  0  0  0  0  0  0  0
    2.5805   -1.8426   25.7540 H   0  0  0  0  0  0  0  0  0  0  0  0
    5.2644    1.1371   24.8708 C   0  0  0  0  0  0  0  0  0  0  0  0
    4.8403    2.0728   25.2054 H   0  0  0  0  0  0  0  0  0  0  0  0
    6.2360    1.1424   23.8741 C   0  0  0  0  0  0  0  0  0  0  0  0
    6.5274    2.1012   23.4440 H   0  0  0  0  0  0  0  0  0  0  0  0
    5.6274    0.8154   20.3377 C   0  0  0  0  0  0  0  0  0  0  0  0
    5.2478    0.8597   21.3586 H   0  0  0  0  0  0  0  0  0  0  0  0
    4.8854    1.3187   19.2608 C   0  0  0  0  0  0  0  0  0  0  0  0
    3.9135    1.7726   19.4200 H   0  0  0  0  0  0  0  0  0  0  0  0
  1  2  1  0
  2  3  2  0
  3  4  1  0
  4  5  1  0
  4  6  2  0
  6  7  1  0
  7  8  1  0
  8  9  2  0
  8 10  1  0
 10 11  1  0
 10 12  1  0
 10 13  1  0
 13 14  1  0
 13 15  1  0
 13 16  1  0
 16 17  1  6
 16 18  1  0
 18 19  2  0
 19 20  1  0
 19 21  1  0
 21 22  1  0
 21 23  2  0
 23 24  1  0
 24 25  1  0
 25 26  1  0
 25 27  1  0
 25 28  1  0
 24 29  1  0
 29 30  1  0
 29 31  1  0
 29 32  1  0
 23 33  1  0
 33 34  1  0
 33 35  2  0
 35 36  1  0
  6 37  1  0
 37 38  1  0
 37 39  2  0
 39 40  1  0
 39  2  1  0
 16  7  1  0
 35 18  1  0
M  END
>  <plip>  (1) 
-0.10714285714285714

>  <filename>  (1) 
[H][c]1[n][c]([H])[c]([N]2[C](=[O])[C]([H])([H])[C]([H])([H])[C@]2([H])[c]2[c]([H])[c]([H])[c]([N]([C]([H])([H])[H])[C]([H])([H])[H])[c]([H])[c]2[H])[c]([H])[c]1[H]

$$$$
