
     RDKit          3D

 20 21  0  0  0  0  0  0  0  0999 V2000
    8.1301    3.8712   23.2903 H   0  0  0  0  0  0  0  0  0  0  0  0
    8.2090    2.7940   23.2686 C   0  0  0  0  0  0  0  0  0  0  0  0
    9.3420    2.1360   23.6593 N   0  0  0  0  0  0  0  0  0  0  0  0
    9.0087    0.8839   23.5152 C   0  0  0  0  0  0  0  0  0  0  0  0
    9.6221    0.0050   23.6856 H   0  0  0  0  0  0  0  0  0  0  0  0
    7.7287    0.7830   23.0697 N   0  0  0  0  0  0  0  0  0  0  0  0
    6.8616   -0.6334   22.6763 S   0  0  0  0  0  0  0  0  0  0  0  0
    7.4257   -0.7416   20.9237 C   0  0  0  0  0  0  0  0  0  0  0  0
    8.4496   -1.3174   20.6648 O   0  0  0  0  0  0  0  0  0  0  0  0
    6.6411    0.0056   19.9009 C   0  0  0  0  0  0  0  0  0  0  0  0
    7.1766    0.0579   18.6045 C   0  0  0  0  0  0  0  0  0  0  0  0
    8.1225   -0.4318   18.3851 H   0  0  0  0  0  0  0  0  0  0  0  0
    6.5702    0.6745   17.5883 N   0  0  0  0  0  0  0  0  0  0  0  0
    5.4059    1.2892   17.8446 C   0  0  0  0  0  0  0  0  0  0  0  0
    4.9214    1.7743   17.0007 H   0  0  0  0  0  0  0  0  0  0  0  0
    4.8016    1.3147   19.1058 C   0  0  0  0  0  0  0  0  0  0  0  0
    3.8704    1.8463   19.2595 H   0  0  0  0  0  0  0  0  0  0  0  0
    5.4298    0.6592   20.1615 C   0  0  0  0  0  0  0  0  0  0  0  0
    4.9888    0.6468   21.1639 H   0  0  0  0  0  0  0  0  0  0  0  0
    7.2142    2.0236   22.8930 N   0  0  0  0  0  0  0  0  0  0  0  0
  1  2  1  0
  2  3  1  0
  3  4  2  0
  4  5  1  0
  4  6  1  0
  6  7  1  0
  7  8  1  0
  8  9  2  0
  8 10  1  0
 10 11  2  0
 11 12  1  0
 11 13  1  0
 13 14  2  0
 14 15  1  0
 14 16  1  0
 16 17  1  0
 16 18  2  0
 18 19  1  0
  6 20  1  0
 20  2  2  0
 18 10  1  0
M  END
>  <plip>  (1) 
-0.03571428571428571

>  <filename>  (1) 
[H][c]1[n][c]([H])[n]([S][C](=[O])[c]2[c]([H])[n][c]([H])[c]([H])[c]2[H])[n]1

$$$$
