
     RDKit          3D

 26 27  0  0  0  0  0  0  0  0999 V2000
    7.6820   -3.4738   26.3293 H   0  0  0  0  0  0  0  0  0  0  0  0
    7.6288   -3.0562   25.4555 O   0  0  0  0  0  0  0  0  0  0  0  0
    7.5918   -1.7736   25.8566 C   0  0  0  0  0  0  0  0  0  0  0  0
    7.6326   -1.5591   27.0468 O   0  0  0  0  0  0  0  0  0  0  0  0
    7.5050   -0.7800   24.7426 C   0  0  0  0  0  0  0  0  0  0  0  0
    7.4715    0.5962   25.0380 C   0  0  0  0  0  0  0  0  0  0  0  0
    7.5009    0.9247   26.0745 H   0  0  0  0  0  0  0  0  0  0  0  0
    7.4061    1.5307   24.0029 C   0  0  0  0  0  0  0  0  0  0  0  0
    7.3787    2.5896   24.2323 H   0  0  0  0  0  0  0  0  0  0  0  0
    7.3704    1.1134   22.6706 C   0  0  0  0  0  0  0  0  0  0  0  0
    7.3201    1.8598   21.8787 H   0  0  0  0  0  0  0  0  0  0  0  0
    7.3987   -0.2598   22.3616 C   0  0  0  0  0  0  0  0  0  0  0  0
    7.4042   -0.7561   20.9380 C   0  0  0  0  0  0  0  0  0  0  0  0
    8.0043   -1.7676   20.6277 O   0  0  0  0  0  0  0  0  0  0  0  0
    6.6499    0.0176   19.9102 C   0  0  0  0  0  0  0  0  0  0  0  0
    7.1696    0.0486   18.6074 C   0  0  0  0  0  0  0  0  0  0  0  0
    8.1132   -0.4457   18.3790 H   0  0  0  0  0  0  0  0  0  0  0  0
    6.5689    0.6724   17.5929 N   0  0  0  0  0  0  0  0  0  0  0  0
    5.4041    1.2896   17.8431 C   0  0  0  0  0  0  0  0  0  0  0  0
    4.9330    1.7831   16.9947 H   0  0  0  0  0  0  0  0  0  0  0  0
    4.8003    1.3092   19.1038 C   0  0  0  0  0  0  0  0  0  0  0  0
    3.8707    1.8428   19.2451 H   0  0  0  0  0  0  0  0  0  0  0  0
    5.4298    0.6602   20.1614 C   0  0  0  0  0  0  0  0  0  0  0  0
    4.9892    0.6516   21.1616 H   0  0  0  0  0  0  0  0  0  0  0  0
    7.4722   -1.2008   23.4007 C   0  0  0  0  0  0  0  0  0  0  0  0
    7.5129   -2.2601   23.1500 H   0  0  0  0  0  0  0  0  0  0  0  0
  1  2  1  0
  2  3  1  0
  3  4  2  0
  3  5  1  0
  5  6  2  0
  6  7  1  0
  6  8  1  0
  8  9  1  0
  8 10  2  0
 10 11  1  0
 10 12  1  0
 12 13  1  0
 13 14  2  0
 13 15  1  0
 15 16  2  0
 16 17  1  0
 16 18  1  0
 18 19  2  0
 19 20  1  0
 19 21  1  0
 21 22  1  0
 21 23  2  0
 23 24  1  0
 12 25  2  0
 25 26  1  0
 25  5  1  0
 23 15  1  0
M  END
>  <plip>  (1) 
-0.0

>  <filename>  (1) 
[H][O][C](=[O])[c]1[c]([H])[c]([H])[c]([H])[c]([C](=[O])[c]2[c]([H])[n][c]([H])[c]([H])[c]2[H])[c]1[H]

$$$$
