
     RDKit          3D

 33 35  0  0  0  0  0  0  0  0999 V2000
    9.0247   -6.9157   26.5280 F   0  0  0  0  0  0  0  0  0  0  0  0
    9.6265   -5.7177   26.4144 C   0  0  0  0  0  0  0  0  0  0  0  0
   10.7101   -5.8845   25.6367 F   0  0  0  0  0  0  0  0  0  0  0  0
   10.0773   -5.3692   27.6339 F   0  0  0  0  0  0  0  0  0  0  0  0
    8.6486   -4.7032   25.8770 C   0  0  0  0  0  0  0  0  0  0  0  0
    7.3107   -4.7375   26.3022 C   0  0  0  0  0  0  0  0  0  0  0  0
    6.4052   -3.7907   25.8151 C   0  0  0  0  0  0  0  0  0  0  0  0
    6.8293   -2.8264   24.9003 C   0  0  0  0  0  0  0  0  0  0  0  0
    8.1618   -2.8139   24.4590 C   0  0  0  0  0  0  0  0  0  0  0  0
    8.6352   -1.8837   23.4343 C   0  0  0  0  0  0  0  0  0  0  0  0
    9.8316   -1.4396   23.2193 N   0  0  0  0  0  0  0  0  0  0  0  0
    9.7592   -0.6563   22.0823 N   0  0  0  0  0  0  0  0  0  0  0  0
    8.5251   -0.7051   21.6959 C   0  0  0  0  0  0  0  0  0  0  0  0
    7.9500   -0.0849   20.5329 C   0  0  0  0  0  0  0  0  0  0  0  0
    6.6383    0.0160   20.2785 C   0  0  0  0  0  0  0  0  0  0  0  0
    6.1427    0.6444   19.0462 C   0  0  0  0  0  0  0  0  0  0  0  0
    4.9295    1.3469   19.0235 C   0  0  0  0  0  0  0  0  0  0  0  0
    4.6156    2.0955   17.8922 C   0  0  0  0  0  0  0  0  0  0  0  0
    5.4962    2.0820   16.8059 C   0  0  0  0  0  0  0  0  0  0  0  0
    6.6115    1.3359   16.7651 N   0  0  0  0  0  0  0  0  0  0  0  0
    6.9079    0.6382   17.8625 C   0  0  0  0  0  0  0  0  0  0  0  0
    7.7987    0.0164   17.8024 H   0  0  0  0  0  0  0  0  0  0  0  0
    5.2825    2.6752   15.9216 H   0  0  0  0  0  0  0  0  0  0  0  0
    3.7105    2.6913   17.8447 H   0  0  0  0  0  0  0  0  0  0  0  0
    4.2674    1.3307   19.8897 H   0  0  0  0  0  0  0  0  0  0  0  0
    5.8870   -0.3046   21.0055 H   0  0  0  0  0  0  0  0  0  0  0  0
    8.6948    0.3682   19.8928 H   0  0  0  0  0  0  0  0  0  0  0  0
    7.7492   -1.4460   22.5159 O   0  0  0  0  0  0  0  0  0  0  0  0
    9.0718   -3.7493   24.9577 C   0  0  0  0  0  0  0  0  0  0  0  0
   10.0914   -3.7295   24.5817 H   0  0  0  0  0  0  0  0  0  0  0  0
    6.1314   -2.0875   24.5227 H   0  0  0  0  0  0  0  0  0  0  0  0
    5.3665   -3.8461   26.1317 H   0  0  0  0  0  0  0  0  0  0  0  0
    6.9792   -5.5260   26.9739 H   0  0  0  0  0  0  0  0  0  0  0  0
  1  2  1  0
  2  3  1  0
  2  4  1  0
  2  5  1  0
  5  6  2  0
  6  7  1  0
  7  8  2  0
  8  9  1  0
  9 10  1  0
 10 11  2  0
 11 12  1  0
 12 13  2  0
 13 14  1  0
 14 15  2  3
 15 16  1  0
 16 17  2  0
 17 18  1  0
 18 19  2  0
 19 20  1  0
 20 21  2  0
 21 22  1  0
 19 23  1  0
 18 24  1  0
 17 25  1  0
 15 26  1  0
 14 27  1  0
 13 28  1  0
  9 29  2  0
 29 30  1  0
  8 31  1  0
  7 32  1  0
  6 33  1  0
 29  5  1  0
 28 10  1  0
 21 16  1  0
M  END
>  <plip>  (1) 
-0.06666666666666667

>  <filename>  (1) 
[H][C](=[C]([H])[c]1[c]([H])[n][c]([H])[c]([H])[c]1[H])[c]1[n][n][c](-[c]2[c]([H])[c]([H])[c]([H])[c]([C]([F])([F])[F])[c]2[H])[o]1

$$$$
