
     RDKit          3D

 25 26  0  0  0  0  0  0  0  0999 V2000
    8.3970   -6.1519   22.0209 H   0  0  0  0  0  0  0  0  0  0  0  0
    8.3448   -5.0917   22.2442 C   0  0  0  0  0  0  0  0  0  0  0  0
    7.9540   -4.2452   21.2342 N   0  0  0  0  0  0  0  0  0  0  0  0
    7.9395   -3.0252   21.6711 C   0  0  0  0  0  0  0  0  0  0  0  0
    7.6979   -2.0472   20.7741 N   0  0  0  0  0  0  0  0  0  0  0  0
    7.3643   -2.4692   19.9240 H   0  0  0  0  0  0  0  0  0  0  0  0
    7.4779   -0.6651   21.0461 C   0  0  2  0  0  0  0  0  0  0  0  0
    6.7696   -0.5960   22.2332 F   0  0  0  0  0  0  0  0  0  0  0  0
    6.6467   -0.0922   19.9345 C   0  0  0  0  0  0  0  0  0  0  0  0
    7.1548   -0.1316   18.6328 C   0  0  0  0  0  0  0  0  0  0  0  0
    8.0745   -0.6838   18.4256 H   0  0  0  0  0  0  0  0  0  0  0  0
    6.6054    0.5152   17.5962 N   0  0  0  0  0  0  0  0  0  0  0  0
    5.4799    1.2070   17.8351 C   0  0  0  0  0  0  0  0  0  0  0  0
    5.0700    1.7631   16.9935 H   0  0  0  0  0  0  0  0  0  0  0  0
    4.8502    1.2423   19.0838 C   0  0  0  0  0  0  0  0  0  0  0  0
    3.9359    1.8069   19.2126 H   0  0  0  0  0  0  0  0  0  0  0  0
    5.4344    0.5733   20.1557 C   0  0  0  0  0  0  0  0  0  0  0  0
    4.9850    0.5617   21.1507 H   0  0  0  0  0  0  0  0  0  0  0  0
    8.8016    0.0556   21.2424 C   0  0  0  0  0  0  0  0  0  0  0  0
    8.6290    1.1075   21.4799 H   0  0  0  0  0  0  0  0  0  0  0  0
    9.4106   -0.0127   20.3331 H   0  0  0  0  0  0  0  0  0  0  0  0
    9.3293   -0.4265   22.0690 H   0  0  0  0  0  0  0  0  0  0  0  0
    8.3119   -2.8232   23.3614 S   0  0  0  0  0  0  0  0  0  0  0  0
    8.6246   -4.5258   23.4384 C   0  0  0  0  0  0  0  0  0  0  0  0
    9.0284   -4.9821   24.3298 H   0  0  0  0  0  0  0  0  0  0  0  0
  1  2  1  0
  2  3  1  0
  3  4  2  0
  4  5  1  0
  5  6  1  0
  5  7  1  0
  7  8  1  1
  7  9  1  0
  9 10  2  0
 10 11  1  0
 10 12  1  0
 12 13  2  0
 13 14  1  0
 13 15  1  0
 15 16  1  0
 15 17  2  0
 17 18  1  0
  7 19  1  0
 19 20  1  0
 19 21  1  0
 19 22  1  0
  4 23  1  0
 23 24  1  0
 24 25  1  0
 24  2  2  0
 17  9  1  0
M  END
>  <plip>  (1) 
-0.03333333333333333

>  <filename>  (1) 
[H][c]1[n][c]([N]([H])[C@]([F])([c]2[c]([H])[n][c]([H])[c]([H])[c]2[H])[C]([H])([H])[H])[s][c]1[H]

$$$$
