
     RDKit          3D

 27 27  0  0  0  0  0  0  0  0999 V2000
    4.7693   -4.5872   25.6727 H   0  0  0  0  0  0  0  0  0  0  0  0
    5.0438   -4.1648   26.4938 O   0  0  0  0  0  0  0  0  0  0  0  0
    6.0468   -3.1741   26.1310 C   0  0  0  0  0  0  0  0  0  0  0  0
    5.6161   -2.2630   26.6394 H   0  0  0  0  0  0  0  0  0  0  0  0
    6.8551   -3.4371   26.8569 H   0  0  0  0  0  0  0  0  0  0  0  0
    6.4761   -3.2525   24.7900 C   0  0  0  0  0  0  0  0  0  0  0  0
    6.9841   -4.3103   24.5837 H   0  0  0  0  0  0  0  0  0  0  0  0
    7.5393   -2.7303   24.3623 H   0  0  0  0  0  0  0  0  0  0  0  0
    6.4035   -3.0687   24.6266 C   0  0  0  0  0  0  0  0  0  0  0  0
    6.1177   -2.3733   22.9937 H   0  0  0  0  0  0  0  0  0  0  0  0
    5.7978   -1.7623   24.1810 H   0  0  0  0  0  0  0  0  0  0  0  0
    6.1240   -1.8488   22.0768 N   0  0  0  0  0  0  0  0  0  0  0  0
    6.3255   -2.4688   21.2888 H   0  0  0  0  0  0  0  0  0  0  0  0
    7.1694   -0.8606   21.9417 N   0  0  0  0  0  0  0  0  0  0  0  0
    6.7669    0.0640   22.1788 H   0  0  0  0  0  0  0  0  0  0  0  0
    7.5331   -0.8909   20.5723 N   0  0  0  0  0  0  0  0  0  0  0  0
    8.5366   -0.7964   20.4930 H   0  0  0  0  0  0  0  0  0  0  0  0
    6.8142   -0.0644   19.6672 C   0  0  0  0  0  0  0  0  0  0  0  0
    7.3139    0.1218   18.3605 C   0  0  0  0  0  0  0  0  0  0  0  0
    8.2684   -0.3303   18.0838 H   0  0  0  0  0  0  0  0  0  0  0  0
    6.6879    0.8060   17.3980 N   0  0  0  0  0  0  0  0  0  0  0  0
    5.5048    1.3672   17.7027 C   0  0  0  0  0  0  0  0  0  0  0  0
    5.0037    1.8988   16.8967 H   0  0  0  0  0  0  0  0  0  0  0  0
    4.9219    1.2633   18.9689 C   0  0  0  0  0  0  0  0  0  0  0  0
    3.9702    1.7500   19.1632 H   0  0  0  0  0  0  0  0  0  0  0  0
    5.5736    0.5310   19.9679 C   0  0  0  0  0  0  0  0  0  0  0  0
    5.1294    0.3954   20.9547 H   0  0  0  0  0  0  0  0  0  0  0  0
  1  2  1  0
  2  3  1  0
  3  4  1  0
  3  5  1  0
  3  6  1  0
  6  7  1  0
  6  8  1  0
  6  9  1  0
  9 10  1  0
  9 11  1  0
  9 12  1  0
 12 13  1  0
 12 14  1  0
 14 15  1  0
 14 16  1  0
 16 17  1  0
 16 18  1  0
 18 19  2  0
 19 20  1  0
 19 21  1  0
 21 22  2  0
 22 23  1  0
 22 24  1  0
 24 25  1  0
 24 26  2  0
 26 27  1  0
 26 18  1  0
M  END
>  <plip>  (1) 
-0.03571428571428571

>  <filename>  (1) 
[H][O][C]([H])([H])[C]([H])([H])[C]([H])([H])[N]([H])[N]([H])[N]([H])[c]1[c]([H])[n][c]([H])[c]([H])[c]1[H]

$$$$
