
     RDKit          3D

 39 42  0  0  0  0  0  0  0  0999 V2000
    4.9513    1.8284   16.9832 H   0  0  0  0  0  0  0  0  0  0  0  0
    5.4093    1.3141   17.8234 C   0  0  0  0  0  0  0  0  0  0  0  0
    6.5674    0.6809   17.5752 N   0  0  0  0  0  0  0  0  0  0  0  0
    7.1482    0.0462   18.5994 C   0  0  0  0  0  0  0  0  0  0  0  0
    8.0831   -0.4701   18.3773 H   0  0  0  0  0  0  0  0  0  0  0  0
    6.6287    0.0261   19.9013 C   0  0  0  0  0  0  0  0  0  0  0  0
    7.4195   -0.6743   20.9272 C   0  0  0  0  0  0  0  0  0  0  0  0
    8.0357   -1.8168   20.7497 N   0  0  0  0  0  0  0  0  0  0  0  0
    8.6548   -2.1609   21.9282 N   0  0  0  0  0  0  0  0  0  0  0  0
    8.4147   -1.1974   22.7751 C   0  0  0  0  0  0  0  0  0  0  0  0
    8.7674   -1.1436   23.7996 H   0  0  0  0  0  0  0  0  0  0  0  0
    7.6377   -0.2340   22.2076 N   0  0  0  0  0  0  0  0  0  0  0  0
    7.3076    1.0571   22.7666 C   0  0  0  0  0  0  0  0  0  0  0  0
    7.8158    1.1790   23.7396 H   0  0  0  0  0  0  0  0  0  0  0  0
    6.2301    1.0887   22.9640 H   0  0  0  0  0  0  0  0  0  0  0  0
    7.6703    2.1159   21.8478 N   0  0  0  0  0  0  0  0  0  0  0  0
    9.1172    2.3270   21.7374 C   0  0  0  0  0  0  0  0  0  0  0  0
    9.6158    1.3555   21.6455 H   0  0  0  0  0  0  0  0  0  0  0  0
    9.2972    2.8330   20.7780 H   0  0  0  0  0  0  0  0  0  0  0  0
    9.7338    3.1549   22.8666 C   0  0  0  0  0  0  0  0  0  0  0  0
   11.1265    3.1532   23.0633 C   0  0  0  0  0  0  0  0  0  0  0  0
   11.7380    2.4506   22.4981 H   0  0  0  0  0  0  0  0  0  0  0  0
   11.7164    4.0260   23.9859 C   0  0  0  0  0  0  0  0  0  0  0  0
   12.7959    4.1034   24.0844 H   0  0  0  0  0  0  0  0  0  0  0  0
   10.9071    4.8407   24.7805 C   0  0  0  0  0  0  0  0  0  0  0  0
   11.3577    5.5153   25.5083 H   0  0  0  0  0  0  0  0  0  0  0  0
    9.5167    4.7770   24.6526 C   0  0  0  0  0  0  0  0  0  0  0  0
    8.8862    5.3872   25.2923 H   0  0  0  0  0  0  0  0  0  0  0  0
    8.9126    3.9707   23.6790 C   0  0  0  0  0  0  0  0  0  0  0  0
    7.3948    4.0052   23.4811 C   0  0  0  0  0  0  0  0  0  0  0  0
    7.0247    5.0367   23.5119 H   0  0  0  0  0  0  0  0  0  0  0  0
    6.8951    3.4977   24.3158 H   0  0  0  0  0  0  0  0  0  0  0  0
    6.9846    3.3811   22.1371 C   0  0  0  0  0  0  0  0  0  0  0  0
    7.2522    4.1040   21.3605 H   0  0  0  0  0  0  0  0  0  0  0  0
    5.8986    3.2431   22.0481 H   0  0  0  0  0  0  0  0  0  0  0  0
    5.4045    0.6721   20.1394 C   0  0  0  0  0  0  0  0  0  0  0  0
    4.9434    0.6770   21.1288 H   0  0  0  0  0  0  0  0  0  0  0  0
    4.7855    1.3251   19.0742 C   0  0  0  0  0  0  0  0  0  0  0  0
    3.8435    1.8445   19.2030 H   0  0  0  0  0  0  0  0  0  0  0  0
  1  2  1  0
  2  3  2  0
  3  4  1  0
  4  5  1  0
  4  6  2  0
  6  7  1  0
  7  8  2  0
  8  9  1  0
  9 10  2  0
 10 11  1  0
 10 12  1  0
 12 13  1  0
 13 14  1  0
 13 15  1  0
 13 16  1  0
 16 17  1  0
 17 18  1  0
 17 19  1  0
 17 20  1  0
 20 21  2  0
 21 22  1  0
 21 23  1  0
 23 24  1  0
 23 25  2  0
 25 26  1  0
 25 27  1  0
 27 28  1  0
 27 29  2  0
 29 30  1  0
 30 31  1  0
 30 32  1  0
 30 33  1  0
 33 34  1  0
 33 35  1  0
  6 36  1  0
 36 37  1  0
 36 38  2  0
 38 39  1  0
 38  2  1  0
 12  7  1  0
 33 16  1  0
 29 20  1  0
M  END
>  <plip>  (1) 
-0.10344827586206896

>  <filename>  (1) 
[H][c]1[n][c]([H])[c](-[c]2[n][n][c]([H])[n]2[C]([H])([H])[N]2[C]([H])([H])[c]3[c]([H])[c]([H])[c]([H])[c]([H])[c]3[C]([H])([H])[C]2([H])[H])[c]([H])[c]1[H]

$$$$
