
     RDKit          3D

 26 28  0  0  0  0  0  0  0  0999 V2000
    5.5635   -0.0648   26.2896 O   0  0  0  0  0  0  0  0  0  0  0  0
    6.0920   -0.9151   25.6351 C   0  0  0  0  0  0  0  0  0  0  0  0
    5.5736   -2.2864   25.2766 C   0  0  0  0  0  0  0  0  0  0  0  0
    6.6950   -2.9866   24.5155 C   0  0  0  0  0  0  0  0  0  0  0  0
    7.7320   -1.8539   24.2737 C   0  0  1  0  0  0  0  0  0  0  0  0
    7.8918   -1.4792   22.8234 C   0  0  0  0  0  0  0  0  0  0  0  0
    8.8412   -1.8496   22.0293 N   0  0  0  0  0  0  0  0  0  0  0  0
    8.5329   -1.3349   20.7802 N   0  0  0  0  0  0  0  0  0  0  0  0
    7.4108   -0.7047   20.9121 C   0  0  0  0  0  0  0  0  0  0  0  0
    6.6494    0.0159   19.8999 C   0  0  0  0  0  0  0  0  0  0  0  0
    5.4307    0.6559   20.1688 C   0  0  0  0  0  0  0  0  0  0  0  0
    4.8028    1.3102   19.1114 C   0  0  0  0  0  0  0  0  0  0  0  0
    5.4054    1.2894   17.8450 C   0  0  0  0  0  0  0  0  0  0  0  0
    6.5691    0.6741   17.5820 N   0  0  0  0  0  0  0  0  0  0  0  0
    7.1744    0.0616   18.6007 C   0  0  0  0  0  0  0  0  0  0  0  0
    8.1212   -0.4295   18.3836 H   0  0  0  0  0  0  0  0  0  0  0  0
    4.9206    1.7752   17.0020 H   0  0  0  0  0  0  0  0  0  0  0  0
    3.8705    1.8459   19.2594 H   0  0  0  0  0  0  0  0  0  0  0  0
    4.9942    0.6390   21.1719 H   0  0  0  0  0  0  0  0  0  0  0  0
    6.9352   -0.7674   22.1797 O   0  0  0  0  0  0  0  0  0  0  0  0
    7.3278   -0.7515   25.0907 O   0  0  0  0  0  0  0  0  0  0  0  0
    8.7287   -2.1542   24.5996 H   0  0  0  0  0  0  0  0  0  0  0  0
    7.1466   -3.7812   25.1174 H   0  0  0  0  0  0  0  0  0  0  0  0
    6.3473   -3.4442   23.5831 H   0  0  0  0  0  0  0  0  0  0  0  0
    4.6609   -2.1629   24.7009 H   0  0  0  0  0  0  0  0  0  0  0  0
    5.2811   -2.7904   26.1931 H   0  0  0  0  0  0  0  0  0  0  0  0
  1  2  2  0
  2  3  1  0
  3  4  1  0
  4  5  1  0
  5  6  1  0
  6  7  2  0
  7  8  1  0
  8  9  2  0
  9 10  1  0
 10 11  2  0
 11 12  1  0
 12 13  2  0
 13 14  1  0
 14 15  2  0
 15 16  1  0
 13 17  1  0
 12 18  1  0
 11 19  1  0
  9 20  1  0
  5 21  1  0
  5 22  1  1
  4 23  1  0
  4 24  1  0
  3 25  1  0
  3 26  1  0
 21  2  1  0
 20  6  1  0
 15 10  1  0
M  END
>  <plip>  (1) 
-0.0

>  <filename>  (1) 
[H][c]1[n][c]([H])[c](-[c]2[n][n][c]([C@@]3([H])[O][C](=[O])[C]([H])([H])[C]3([H])[H])[o]2)[c]([H])[c]1[H]

$$$$
