
     RDKit          3D

 30 32  0  0  0  0  0  0  0  0999 V2000
    4.9774    1.8524   16.8637 H   0  0  0  0  0  0  0  0  0  0  0  0
    5.4509    1.2929   17.6687 C   0  0  0  0  0  0  0  0  0  0  0  0
    6.5742    0.6233   17.3616 N   0  0  0  0  0  0  0  0  0  0  0  0
    7.1876   -0.0399   18.3525 C   0  0  0  0  0  0  0  0  0  0  0  0
    8.0969   -0.5673   18.0667 H   0  0  0  0  0  0  0  0  0  0  0  0
    6.7319   -0.0830   19.6865 C   0  0  0  0  0  0  0  0  0  0  0  0
    7.5087   -0.6968   20.7803 C   0  0  0  0  0  0  0  0  0  0  0  0
    8.9327   -0.8371   20.8705 C   0  0  0  0  0  0  0  0  0  0  0  0
    9.6486   -0.6235   20.0875 H   0  0  0  0  0  0  0  0  0  0  0  0
    9.2553   -1.2234   22.1473 C   0  0  0  0  0  0  0  0  0  0  0  0
   10.2019   -1.3871   22.6526 H   0  0  0  0  0  0  0  0  0  0  0  0
    8.0635   -1.3645   22.8151 N   0  0  0  0  0  0  0  0  0  0  0  0
    7.9344   -1.5382   24.1571 O   0  0  0  0  0  0  0  0  0  0  0  0
    8.2723   -2.8228   24.6169 C   0  0  0  0  0  0  0  0  0  0  0  0
    8.6052   -2.9010   25.9652 C   0  0  0  0  0  0  0  0  0  0  0  0
    8.4554   -2.0302   26.5968 H   0  0  0  0  0  0  0  0  0  0  0  0
    9.1571   -4.0907   26.4583 C   0  0  0  0  0  0  0  0  0  0  0  0
    9.4284   -4.1829   27.5045 H   0  0  0  0  0  0  0  0  0  0  0  0
    9.3559   -5.1668   25.5834 C   0  0  0  0  0  0  0  0  0  0  0  0
   10.2239   -6.5776   26.0728 Cl  0  0  0  0  0  0  0  0  0  0  0  0
    8.8856   -5.1222   24.2698 C   0  0  0  0  0  0  0  0  0  0  0  0
    9.0191   -5.9871   23.6240 H   0  0  0  0  0  0  0  0  0  0  0  0
    8.2876   -3.9549   23.8019 C   0  0  0  0  0  0  0  0  0  0  0  0
    7.8435   -3.8950   22.8193 H   0  0  0  0  0  0  0  0  0  0  0  0
    7.0070   -1.0627   22.0146 C   0  0  0  0  0  0  0  0  0  0  0  0
    6.0067   -1.1859   22.4071 H   0  0  0  0  0  0  0  0  0  0  0  0
    5.5245    0.5812   19.9618 C   0  0  0  0  0  0  0  0  0  0  0  0
    5.1136    0.5687   20.9708 H   0  0  0  0  0  0  0  0  0  0  0  0
    4.8865    1.2889   18.9472 C   0  0  0  0  0  0  0  0  0  0  0  0
    3.9795    1.8482   19.1426 H   0  0  0  0  0  0  0  0  0  0  0  0
  1  2  1  0
  2  3  2  0
  3  4  1  0
  4  5  1  0
  4  6  2  0
  6  7  1  0
  7  8  1  0
  8  9  1  0
  8 10  2  0
 10 11  1  0
 10 12  1  0
 12 13  1  0
 13 14  1  0
 14 15  2  0
 15 16  1  0
 15 17  1  0
 17 18  1  0
 17 19  2  0
 19 20  1  0
 19 21  1  0
 21 22  1  0
 21 23  2  0
 23 24  1  0
 12 25  1  0
 25 26  1  0
  6 27  1  0
 27 28  1  0
 27 29  2  0
 29 30  1  0
 29  2  1  0
 25  7  2  0
 23 14  1  0
M  END
>  <plip>  (1) 
-0.10714285714285714

>  <filename>  (1) 
[H][c]1[n][c]([H])[c](-[c]2[c]([H])[c]([H])[n]([O][c]3[c]([H])[c]([H])[c]([Cl])[c]([H])[c]3[H])[c]2[H])[c]([H])[c]1[H]

$$$$
