
     RDKit          3D

 38 40  0  0  0  0  0  0  0  0999 V2000
    5.1969   -6.8179   29.8815 C   0  0  0  0  0  0  0  0  0  0  0  0
    6.3296   -6.0455   29.2302 C   0  0  0  0  0  0  0  0  0  0  0  0
    7.4278   -6.0369   29.7532 O   0  0  0  0  0  0  0  0  0  0  0  0
    6.0773   -5.3077   27.9347 C   0  0  0  0  0  0  0  0  0  0  0  0
    4.8315   -5.3758   27.2775 C   0  0  0  0  0  0  0  0  0  0  0  0
    4.6232   -4.7267   26.0579 C   0  0  0  0  0  0  0  0  0  0  0  0
    5.6727   -4.0020   25.4875 C   0  0  0  0  0  0  0  0  0  0  0  0
    5.6917   -3.2138   24.2074 C   0  0  0  0  0  0  0  0  0  0  0  0
    7.0564   -2.6754   24.1466 N   0  0  0  0  0  0  0  0  0  0  0  0
    7.6200   -1.9486   23.1360 C   0  0  0  0  0  0  0  0  0  0  0  0
    8.7723   -1.5282   23.2276 O   0  0  0  0  0  0  0  0  0  0  0  0
    6.7489   -1.6497   21.7996 C   0  0  0  0  0  0  0  0  0  0  0  0
    5.6892   -2.1977   21.5471 O   0  0  0  0  0  0  0  0  0  0  0  0
    7.3443   -0.7397   20.9554 N   0  0  0  0  0  0  0  0  0  0  0  0
    6.6847   -0.0406   19.8948 C   0  0  0  0  0  0  0  0  0  0  0  0
    5.4686    0.6074   20.1389 C   0  0  0  0  0  0  0  0  0  0  0  0
    4.8451    1.2915   19.0882 C   0  0  0  0  0  0  0  0  0  0  0  0
    5.4450    1.2908   17.8256 C   0  0  0  0  0  0  0  0  0  0  0  0
    6.6140    0.6789   17.5735 N   0  0  0  0  0  0  0  0  0  0  0  0
    7.2185    0.0426   18.5873 C   0  0  0  0  0  0  0  0  0  0  0  0
    8.1679   -0.4325   18.3430 H   0  0  0  0  0  0  0  0  0  0  0  0
    4.9732    1.8008   16.9859 H   0  0  0  0  0  0  0  0  0  0  0  0
    3.9093    1.8191   19.2342 H   0  0  0  0  0  0  0  0  0  0  0  0
    5.0423    0.5813   21.1403 H   0  0  0  0  0  0  0  0  0  0  0  0
    8.2902   -0.4826   21.2059 H   0  0  0  0  0  0  0  0  0  0  0  0
    7.8494   -3.0423   25.3370 C   0  0  0  0  0  0  0  0  0  0  0  0
    6.9042   -3.8997   26.1401 C   0  0  0  0  0  0  0  0  0  0  0  0
    7.1196   -4.5469   27.3546 C   0  0  0  0  0  0  0  0  0  0  0  0
    8.0783   -4.4896   27.8706 H   0  0  0  0  0  0  0  0  0  0  0  0
    8.1655   -2.1422   25.8750 H   0  0  0  0  0  0  0  0  0  0  0  0
    8.7522   -3.5825   25.0349 H   0  0  0  0  0  0  0  0  0  0  0  0
    4.9580   -2.4105   24.2672 H   0  0  0  0  0  0  0  0  0  0  0  0
    5.4610   -3.8064   23.3190 H   0  0  0  0  0  0  0  0  0  0  0  0
    3.6495   -4.7867   25.5773 H   0  0  0  0  0  0  0  0  0  0  0  0
    4.0088   -5.9393   27.7145 H   0  0  0  0  0  0  0  0  0  0  0  0
    4.3369   -6.1720   30.0828 H   0  0  0  0  0  0  0  0  0  0  0  0
    5.5626   -7.2368   30.8188 H   0  0  0  0  0  0  0  0  0  0  0  0
    4.8658   -7.6327   29.2297 H   0  0  0  0  0  0  0  0  0  0  0  0
  1  2  1  0
  2  3  2  0
  2  4  1  0
  4  5  2  0
  5  6  1  0
  6  7  2  0
  7  8  1  0
  8  9  1  0
  9 10  1  0
 10 11  2  0
 10 12  1  0
 12 13  2  0
 12 14  1  0
 14 15  1  0
 15 16  2  0
 16 17  1  0
 17 18  2  0
 18 19  1  0
 19 20  2  0
 20 21  1  0
 18 22  1  0
 17 23  1  0
 16 24  1  0
 14 25  1  0
  9 26  1  0
 26 27  1  0
 27 28  2  0
 28 29  1  0
 26 30  1  0
 26 31  1  0
  8 32  1  0
  8 33  1  0
  6 34  1  0
  5 35  1  0
  1 36  1  0
  1 37  1  0
  1 38  1  0
 28  4  1  0
 27  7  1  0
 20 15  1  0
M  END
>  <plip>  (1) 
-0.06896551724137931

>  <filename>  (1) 
[H][c]1[n][c]([H])[c]([N]([H])[C](=[O])[C](=[O])[N]2[C]([H])([H])[c]3[c]([H])[c]([H])[c]([C](=[O])[C]([H])([H])[H])[c]([H])[c]3[C]2([H])[H])[c]([H])[c]1[H]

$$$$
