
     RDKit          3D

 40 42  0  0  0  0  0  0  0  0999 V2000
    7.3312   -1.3360   23.9870 H   0  0  0  0  0  0  0  0  0  0  0  0
    8.3955   -1.5270   23.8259 C   0  0  0  0  0  0  0  0  0  0  0  0
    9.0523   -0.8658   22.8688 C   0  0  0  0  0  0  0  0  0  0  0  0
   10.1416   -0.9792   22.8188 H   0  0  0  0  0  0  0  0  0  0  0  0
    8.3905    0.0677   21.8439 C   0  0  2  0  0  0  0  0  0  0  0  0
    7.3718   -0.7526   20.9803 C   0  0  0  0  0  0  0  0  0  0  0  0
    6.6431   -1.1931   21.6766 H   0  0  0  0  0  0  0  0  0  0  0  0
    7.9238   -1.6001   20.5492 H   0  0  0  0  0  0  0  0  0  0  0  0
    6.6317   -0.0248   19.8687 C   0  0  0  0  0  0  0  0  0  0  0  0
    7.1270    0.0222   18.5439 C   0  0  0  0  0  0  0  0  0  0  0  0
    8.0741   -0.4631   18.2990 H   0  0  0  0  0  0  0  0  0  0  0  0
    6.5347    0.6574   17.5228 N   0  0  0  0  0  0  0  0  0  0  0  0
    5.3900    1.3044   17.7886 C   0  0  0  0  0  0  0  0  0  0  0  0
    4.9402    1.8489   16.9648 H   0  0  0  0  0  0  0  0  0  0  0  0
    4.7770    1.3071   19.0439 C   0  0  0  0  0  0  0  0  0  0  0  0
    3.8549    1.8622   19.1968 H   0  0  0  0  0  0  0  0  0  0  0  0
    5.4058    0.6311   20.0932 C   0  0  0  0  0  0  0  0  0  0  0  0
    4.9582    0.6441   21.0896 H   0  0  0  0  0  0  0  0  0  0  0  0
    9.4567    0.7832   20.9842 C   0  0  0  0  0  0  0  0  0  0  0  0
   10.2427    0.1003   20.6499 H   0  0  0  0  0  0  0  0  0  0  0  0
    8.9786    1.2025   20.0935 H   0  0  0  0  0  0  0  0  0  0  0  0
    9.9922    1.8928   21.7726 N   0  0  0  0  0  0  0  0  0  0  0  0
   10.8349    1.6089   22.2546 H   0  0  0  0  0  0  0  0  0  0  0  0
    8.9684    2.2653   22.7656 C   0  0  0  0  0  0  0  0  0  0  0  0
    8.6657    3.3112   22.6240 H   0  0  0  0  0  0  0  0  0  0  0  0
    9.3693    2.1655   23.7833 H   0  0  0  0  0  0  0  0  0  0  0  0
    7.7813    1.3103   22.5440 C   0  0  0  0  0  0  0  0  0  0  0  0
    7.0711    1.7913   21.8663 H   0  0  0  0  0  0  0  0  0  0  0  0
    7.2508    1.0585   23.4679 H   0  0  0  0  0  0  0  0  0  0  0  0
    8.9756   -2.5219   24.7570 C   0  0  0  0  0  0  0  0  0  0  0  0
    8.3214   -2.7625   25.9764 C   0  0  0  0  0  0  0  0  0  0  0  0
    7.4126   -2.2074   26.2066 H   0  0  0  0  0  0  0  0  0  0  0  0
    8.8560   -3.6542   26.9089 C   0  0  0  0  0  0  0  0  0  0  0  0
    8.3589   -3.7986   27.8629 H   0  0  0  0  0  0  0  0  0  0  0  0
   10.0208   -4.3706   26.6048 C   0  0  0  0  0  0  0  0  0  0  0  0
   10.4352   -5.0663   27.3331 H   0  0  0  0  0  0  0  0  0  0  0  0
   10.6616   -4.1709   25.3777 C   0  0  0  0  0  0  0  0  0  0  0  0
   11.5445   -4.7579   25.1273 H   0  0  0  0  0  0  0  0  0  0  0  0
   10.1687   -3.2166   24.4790 C   0  0  0  0  0  0  0  0  0  0  0  0
   10.7009   -3.0186   23.5513 H   0  0  0  0  0  0  0  0  0  0  0  0
  1  2  1  0
  2  3  2  3
  3  4  1  0
  3  5  1  0
  5  6  1  6
  6  7  1  0
  6  8  1  0
  6  9  1  0
  9 10  2  0
 10 11  1  0
 10 12  1  0
 12 13  2  0
 13 14  1  0
 13 15  1  0
 15 16  1  0
 15 17  2  0
 17 18  1  0
  5 19  1  0
 19 20  1  0
 19 21  1  0
 19 22  1  0
 22 23  1  0
 22 24  1  0
 24 25  1  0
 24 26  1  0
 24 27  1  0
 27 28  1  0
 27 29  1  0
  2 30  1  0
 30 31  2  0
 31 32  1  0
 31 33  1  0
 33 34  1  0
 33 35  2  0
 35 36  1  0
 35 37  1  0
 37 38  1  0
 37 39  2  0
 39 40  1  0
 27  5  1  0
 39 30  1  0
 17  9  1  0
M  END
>  <plip>  (1) 
-0.07142857142857142

>  <filename>  (1) 
[H][C](=[C]([H])[C@]1([C]([H])([H])[c]2[c]([H])[n][c]([H])[c]([H])[c]2[H])[C]([H])([H])[N]([H])[C]([H])([H])[C]1([H])[H])[c]1[c]([H])[c]([H])[c]([H])[c]([H])[c]1[H]

$$$$
