
     RDKit          3D

 31 33  0  0  0  0  0  0  0  0999 V2000
    4.9156    1.8492   16.9682 H   0  0  0  0  0  0  0  0  0  0  0  0
    5.4112    1.3399   17.7922 C   0  0  0  0  0  0  0  0  0  0  0  0
    6.5670    0.7239   17.4924 N   0  0  0  0  0  0  0  0  0  0  0  0
    7.1796    0.0736   18.4906 C   0  0  0  0  0  0  0  0  0  0  0  0
    8.1034   -0.4417   18.2413 H   0  0  0  0  0  0  0  0  0  0  0  0
    6.7131   -0.0045   19.8285 C   0  0  0  0  0  0  0  0  0  0  0  0
    7.2945   -0.8238   20.8064 N   0  0  0  0  0  0  0  0  0  0  0  0
    8.4529   -0.7057   21.2882 C   0  0  0  0  0  0  0  0  0  0  0  0
    9.3653    0.3239   21.1287 N   0  0  0  0  0  0  0  0  0  0  0  0
   10.2508   -0.1244   20.9769 H   0  0  0  0  0  0  0  0  0  0  0  0
    9.0958    0.8813   20.3356 H   0  0  0  0  0  0  0  0  0  0  0  0
    9.0537   -1.6224   22.1037 N   0  0  0  0  0  0  0  0  0  0  0  0
    9.7774   -1.1458   22.5952 H   0  0  0  0  0  0  0  0  0  0  0  0
    8.4148   -2.7267   22.6763 C   0  0  0  0  0  0  0  0  0  0  0  0
    7.5859   -3.5105   21.9489 C   0  0  0  0  0  0  0  0  0  0  0  0
    7.2771   -3.2641   20.9440 H   0  0  0  0  0  0  0  0  0  0  0  0
    6.9723   -4.8726   22.8175 S   0  0  0  0  0  0  0  0  0  0  0  0
    7.8224   -4.3784   24.2572 C   0  0  0  0  0  0  0  0  0  0  0  0
    7.7855   -5.0321   25.4997 C   0  0  0  0  0  0  0  0  0  0  0  0
    7.2009   -5.9394   25.6215 H   0  0  0  0  0  0  0  0  0  0  0  0
    8.5013   -4.4818   26.5541 C   0  0  0  0  0  0  0  0  0  0  0  0
    8.4972   -4.9807   27.5204 H   0  0  0  0  0  0  0  0  0  0  0  0
    9.2304   -3.2888   26.3797 C   0  0  0  0  0  0  0  0  0  0  0  0
    9.7635   -2.8660   27.2247 H   0  0  0  0  0  0  0  0  0  0  0  0
    9.2694   -2.6432   25.1479 C   0  0  0  0  0  0  0  0  0  0  0  0
    9.8220   -1.7110   25.0449 H   0  0  0  0  0  0  0  0  0  0  0  0
    8.5692   -3.1912   24.0488 C   0  0  0  0  0  0  0  0  0  0  0  0
    5.4976    0.6504   20.1124 C   0  0  0  0  0  0  0  0  0  0  0  0
    5.0938    0.6199   21.1277 H   0  0  0  0  0  0  0  0  0  0  0  0
    4.8455    1.3298   19.0762 C   0  0  0  0  0  0  0  0  0  0  0  0
    3.9068    1.8491   19.2492 H   0  0  0  0  0  0  0  0  0  0  0  0
  1  2  1  0
  2  3  2  0
  3  4  1  0
  4  5  1  0
  4  6  2  0
  6  7  1  0
  7  8  2  3
  8  9  1  0
  9 10  1  0
  9 11  1  0
  8 12  1  0
 12 13  1  0
 12 14  1  0
 14 15  2  0
 15 16  1  0
 15 17  1  0
 17 18  1  0
 18 19  2  0
 19 20  1  0
 19 21  1  0
 21 22  1  0
 21 23  2  0
 23 24  1  0
 23 25  1  0
 25 26  1  0
 25 27  2  0
  6 28  1  0
 28 29  1  0
 28 30  2  0
 30 31  1  0
 30  2  1  0
 27 14  1  0
 27 18  1  0
M  END
>  <plip>  (1) 
-0.13793103448275862

>  <filename>  (1) 
[H][c]1[n][c]([H])[c]([N]=[C]([N]([H])[H])[N]([H])[c]2[c]([H])[s][c]3[c]([H])[c]([H])[c]([H])[c]([H])[c]23)[c]([H])[c]1[H]

$$$$
