
     RDKit          3D

 40 41  0  0  0  0  0  0  0  0999 V2000
   11.0815   -1.2974   21.6510 C   0  0  0  0  0  0  0  0  0  0  0  0
    9.8734   -1.5208   22.5238 C   0  0  0  0  0  0  0  0  0  0  0  0
    9.5644   -2.7697   22.9086 C   0  0  0  0  0  0  0  0  0  0  0  0
    8.5190   -3.1822   23.8701 C   0  0  0  0  0  0  0  0  0  0  0  0
    8.4945   -2.5939   25.1438 C   0  0  0  0  0  0  0  0  0  0  0  0
    7.5329   -2.9614   26.0859 C   0  0  0  0  0  0  0  0  0  0  0  0
    6.5887   -3.9385   25.7627 C   0  0  0  0  0  0  0  0  0  0  0  0
    6.6147   -4.5557   24.5074 C   0  0  0  0  0  0  0  0  0  0  0  0
    7.5797   -4.1929   23.5552 C   0  0  0  0  0  0  0  0  0  0  0  0
    7.6229   -4.9051   22.2088 C   0  0  0  0  0  0  0  0  0  0  0  0
    7.7004   -4.0443   21.1704 F   0  0  0  0  0  0  0  0  0  0  0  0
    8.6972   -5.7144   22.1125 F   0  0  0  0  0  0  0  0  0  0  0  0
    6.5419   -5.6777   21.9886 F   0  0  0  0  0  0  0  0  0  0  0  0
    5.8883   -5.3305   24.2647 H   0  0  0  0  0  0  0  0  0  0  0  0
    5.8376   -4.2347   26.4897 H   0  0  0  0  0  0  0  0  0  0  0  0
    7.5270   -2.4786   27.0583 H   0  0  0  0  0  0  0  0  0  0  0  0
    9.2556   -1.8521   25.3721 H   0  0  0  0  0  0  0  0  0  0  0  0
   10.1729   -3.5921   22.5452 H   0  0  0  0  0  0  0  0  0  0  0  0
    9.0251   -0.3070   22.8453 C   0  0  0  0  0  0  0  0  0  0  0  0
    8.3583    0.2507   21.6304 N   0  0  0  0  0  4  0  0  0  0  0  0
    7.3864   -0.7211   20.9843 C   0  0  0  0  0  0  0  0  0  0  0  0
    6.6619    0.0240   19.9115 C   0  0  0  0  0  0  0  0  0  0  0  0
    5.4410    0.6645   20.1553 C   0  0  0  0  0  0  0  0  0  0  0  0
    4.8025    1.3177   19.1001 C   0  0  0  0  0  0  0  0  0  0  0  0
    5.4015    1.3004   17.8358 C   0  0  0  0  0  0  0  0  0  0  0  0
    6.5683    0.6917   17.5821 N   0  0  0  0  0  0  0  0  0  0  0  0
    7.1766    0.0810   18.6074 C   0  0  0  0  0  0  0  0  0  0  0  0
    8.1145   -0.4175   18.3608 H   0  0  0  0  0  0  0  0  0  0  0  0
    4.9253    1.7893   16.9868 H   0  0  0  0  0  0  0  0  0  0  0  0
    3.8696    1.8462   19.2448 H   0  0  0  0  0  0  0  0  0  0  0  0
    5.0003    0.6403   21.1577 H   0  0  0  0  0  0  0  0  0  0  0  0
    6.6935   -1.0959   21.7452 H   0  0  0  0  0  0  0  0  0  0  0  0
    7.9320   -1.5872   20.6035 H   0  0  0  0  0  0  0  0  0  0  0  0
    9.0794    0.4677   20.8999 H   0  0  0  0  0  0  0  0  0  0  0  0
    7.7981    1.1191   21.8015 H   0  0  0  0  0  0  0  0  0  0  0  0
    9.6535    0.4487   23.3226 H   0  0  0  0  0  0  0  0  0  0  0  0
    8.2570   -0.6172   23.5529 H   0  0  0  0  0  0  0  0  0  0  0  0
   10.9087   -1.8396   20.7258 H   0  0  0  0  0  0  0  0  0  0  0  0
   11.2649   -0.2480   21.4036 H   0  0  0  0  0  0  0  0  0  0  0  0
   11.9981   -1.7172   22.0798 H   0  0  0  0  0  0  0  0  0  0  0  0
  1  2  1  0
  2  3  2  3
  3  4  1  0
  4  5  2  0
  5  6  1  0
  6  7  2  0
  7  8  1  0
  8  9  2  0
  9 10  1  0
 10 11  1  0
 10 12  1  0
 10 13  1  0
  8 14  1  0
  7 15  1  0
  6 16  1  0
  5 17  1  0
  3 18  1  0
  2 19  1  0
 19 20  1  0
 20 21  1  0
 21 22  1  0
 22 23  2  0
 23 24  1  0
 24 25  2  0
 25 26  1  0
 26 27  2  0
 27 28  1  0
 25 29  1  0
 24 30  1  0
 23 31  1  0
 21 32  1  0
 21 33  1  0
 20 34  1  0
 20 35  1  0
 19 36  1  0
 19 37  1  0
  1 38  1  0
  1 39  1  0
  1 40  1  0
  9  4  1  0
 27 22  1  0
M  CHG  1  20   1
M  END
>  <plip>  (1) 
-0.06896551724137931

>  <filename>  (1) 
[H][C](=[C]([C]([H])([H])[H])[C]([H])([H])[N+]([H])([H])[C]([H])([H])[c]1[c]([H])[n][c]([H])[c]([H])[c]1[H])[c]1[c]([H])[c]([H])[c]([H])[c]([H])[c]1[C]([F])([F])[F]

$$$$
