
     RDKit          3D

 34 36  0  0  0  0  0  0  0  0999 V2000
    4.3463    1.5243   26.1779 H   0  0  0  0  0  0  0  0  0  0  0  0
    4.1658    2.1715   25.4858 O   0  0  0  0  0  0  0  0  0  0  0  0
    5.1933    2.1148   24.5996 C   0  0  0  0  0  0  0  0  0  0  0  0
    6.2628    1.2302   24.7527 C   0  0  0  0  0  0  0  0  0  0  0  0
    6.2842    0.5596   25.6093 H   0  0  0  0  0  0  0  0  0  0  0  0
    7.2984    1.2167   23.8066 C   0  0  0  0  0  0  0  0  0  0  0  0
    8.1451    0.5442   23.9071 H   0  0  0  0  0  0  0  0  0  0  0  0
    7.2387    2.0707   22.6962 C   0  0  0  0  0  0  0  0  0  0  0  0
    8.2196    2.1580   21.7247 O   0  0  0  0  0  0  0  0  0  0  0  0
    9.0998    1.1330   21.4940 C   0  0  0  0  0  0  0  0  0  0  0  0
   10.4636    1.2364   21.4350 C   0  0  0  0  0  0  0  0  0  0  0  0
   10.9941    2.1668   21.5700 H   0  0  0  0  0  0  0  0  0  0  0  0
   10.9624   -0.0686   21.1417 C   0  0  0  0  0  0  0  0  0  0  0  0
   11.9889   -0.3885   21.0255 H   0  0  0  0  0  0  0  0  0  0  0  0
    9.8790   -0.8833   20.9757 C   0  0  0  0  0  0  0  0  0  0  0  0
    9.8211   -1.9111   20.6567 H   0  0  0  0  0  0  0  0  0  0  0  0
    8.7253   -0.1617   21.1919 N   0  0  0  0  0  0  0  0  0  0  0  0
    7.3836   -0.6991   20.9999 C   0  0  0  0  0  0  0  0  0  0  0  0
    7.5267   -1.7560   20.7576 H   0  0  0  0  0  0  0  0  0  0  0  0
    6.8308   -0.6801   21.9457 H   0  0  0  0  0  0  0  0  0  0  0  0
    6.6222    0.0076   19.8989 C   0  0  0  0  0  0  0  0  0  0  0  0
    7.1465    0.0633   18.5954 C   0  0  0  0  0  0  0  0  0  0  0  0
    8.1085   -0.4024   18.3702 H   0  0  0  0  0  0  0  0  0  0  0  0
    6.5417    0.6719   17.5679 N   0  0  0  0  0  0  0  0  0  0  0  0
    5.3800    1.2950   17.8192 C   0  0  0  0  0  0  0  0  0  0  0  0
    4.9232    1.8075   16.9738 H   0  0  0  0  0  0  0  0  0  0  0  0
    4.7699    1.3120   19.0757 C   0  0  0  0  0  0  0  0  0  0  0  0
    3.8441    1.8606   19.2154 H   0  0  0  0  0  0  0  0  0  0  0  0
    5.4003    0.6452   20.1312 C   0  0  0  0  0  0  0  0  0  0  0  0
    4.9655    0.6350   21.1319 H   0  0  0  0  0  0  0  0  0  0  0  0
    6.1723    2.9803   22.5709 C   0  0  0  0  0  0  0  0  0  0  0  0
    6.1795    3.6572   21.7174 H   0  0  0  0  0  0  0  0  0  0  0  0
    5.1451    2.9971   23.5142 C   0  0  0  0  0  0  0  0  0  0  0  0
    4.2988    3.6811   23.4685 H   0  0  0  0  0  0  0  0  0  0  0  0
  1  2  1  0
  2  3  1  0
  3  4  2  0
  4  5  1  0
  4  6  1  0
  6  7  1  0
  6  8  2  0
  8  9  1  0
  9 10  1  0
 10 11  2  0
 11 12  1  0
 11 13  1  0
 13 14  1  0
 13 15  2  0
 15 16  1  0
 15 17  1  0
 17 18  1  0
 18 19  1  0
 18 20  1  0
 18 21  1  0
 21 22  2  0
 22 23  1  0
 22 24  1  0
 24 25  2  0
 25 26  1  0
 25 27  1  0
 27 28  1  0
 27 29  2  0
 29 30  1  0
  8 31  1  0
 31 32  1  0
 31 33  2  0
 33 34  1  0
 33  3  1  0
 17 10  1  0
 29 21  1  0
M  END
>  <plip>  (1) 
-0.10714285714285714

>  <filename>  (1) 
[H][O][c]1[c]([H])[c]([H])[c]([O][c]2[c]([H])[c]([H])[c]([H])[n]2[C]([H])([H])[c]2[c]([H])[n][c]([H])[c]([H])[c]2[H])[c]([H])[c]1[H]

$$$$
