
     RDKit          3D

 28 30  0  0  0  0  0  0  0  0999 V2000
    4.8066    1.3053   19.1023 C   0  0  0  0  0  0  0  0  0  0  0  0
    5.4046    1.2899   17.8351 C   0  0  0  0  0  0  0  0  0  0  0  0
    6.5634    0.6660   17.5762 N   0  0  0  0  0  0  0  0  0  0  0  0
    7.1563    0.0464   18.6053 C   0  0  0  0  0  0  0  0  0  0  0  0
    6.6520   -0.0059   19.9135 C   0  0  0  0  0  0  0  0  0  0  0  0
    7.3698   -0.7864   20.9862 C   0  0  0  0  0  0  0  0  0  0  0  0
    6.8933   -2.1359   20.9236 O   0  0  0  0  0  0  0  0  0  0  0  0
    7.3720   -3.0381   21.8120 C   0  0  0  0  0  0  0  0  0  0  0  0
    8.3152   -2.7567   22.7857 C   0  0  0  0  0  0  0  0  0  0  0  0
    8.7355   -3.8053   23.6496 C   0  0  0  0  0  0  0  0  0  0  0  0
    9.6296   -3.9032   24.7051 C   0  0  0  0  0  0  0  0  0  0  0  0
    9.5620   -5.2434   25.1160 C   0  0  0  0  0  0  0  0  0  0  0  0
    8.6984   -5.9627   24.3886 N   0  0  0  0  0  0  0  0  0  0  0  0
    8.2006   -5.0773   23.5044 N   0  0  0  0  0  0  0  0  0  0  0  0
    7.2571   -5.3613   22.5381 C   0  0  0  0  0  0  0  0  0  0  0  0
    6.8345   -4.3699   21.6905 C   0  0  0  0  0  0  0  0  0  0  0  0
    6.0945   -4.5539   20.9198 H   0  0  0  0  0  0  0  0  0  0  0  0
    6.9346   -6.3945   22.5606 H   0  0  0  0  0  0  0  0  0  0  0  0
   10.1072   -5.7270   25.9202 H   0  0  0  0  0  0  0  0  0  0  0  0
   10.2256   -3.0908   25.0861 H   0  0  0  0  0  0  0  0  0  0  0  0
    8.7509   -1.7761   22.9288 H   0  0  0  0  0  0  0  0  0  0  0  0
    8.4617   -0.7656   20.8333 H   0  0  0  0  0  0  0  0  0  0  0  0
    7.1614   -0.3541   21.9796 H   0  0  0  0  0  0  0  0  0  0  0  0
    5.4385    0.6450   20.1621 C   0  0  0  0  0  0  0  0  0  0  0  0
    4.9999    0.6358   21.1655 H   0  0  0  0  0  0  0  0  0  0  0  0
    8.1044   -0.4235   18.3649 H   0  0  0  0  0  0  0  0  0  0  0  0
    4.9344    1.7885   16.9880 H   0  0  0  0  0  0  0  0  0  0  0  0
    3.8754    1.8417   19.2464 H   0  0  0  0  0  0  0  0  0  0  0  0
  1  2  2  0
  2  3  1  0
  3  4  2  0
  4  5  1  0
  5  6  1  0
  6  7  1  0
  7  8  1  0
  8  9  2  0
  9 10  1  0
 10 11  2  0
 11 12  1  0
 12 13  2  0
 13 14  1  0
 14 15  1  0
 15 16  2  0
 16 17  1  0
 15 18  1  0
 12 19  1  0
 11 20  1  0
  9 21  1  0
  6 22  1  0
  6 23  1  0
  5 24  2  0
 24 25  1  0
  4 26  1  0
  2 27  1  0
  1 28  1  0
 24  1  1  0
 16  8  1  0
 14 10  1  0
M  END
>  <plip>  (1) 
-0.03571428571428571

>  <filename>  (1) 
[H][c]1[n][c]([H])[c]([C]([H])([H])[O][c]2[c]([H])[c]([H])[n]3[n][c]([H])[c]([H])[c]3[c]2[H])[c]([H])[c]1[H]

$$$$
