
     RDKit          3D

 38 39  0  0  0  0  0  0  0  0999 V2000
    7.0928   -6.0845   22.2120 O   0  0  0  0  0  0  0  0  0  0  0  0
    7.7972   -5.0924   22.2562 C   0  0  0  0  0  0  0  0  0  0  0  0
    7.8660   -4.2253   21.0249 C   0  0  0  0  0  0  0  0  0  0  0  0
    6.5669   -3.4284   20.8070 C   0  0  0  0  0  0  0  0  0  0  0  0
    6.3227   -2.0720   21.9704 S   0  0  0  0  0  0  0  0  0  0  0  0
    7.2699   -0.7328   21.1724 C   0  0  0  0  0  0  0  0  0  0  0  0
    6.5972   -0.0579   19.9960 C   0  0  0  0  0  0  0  0  0  0  0  0
    5.3925    0.6474   20.1545 C   0  0  0  0  0  0  0  0  0  0  0  0
    4.8289    1.2829   19.0477 C   0  0  0  0  0  0  0  0  0  0  0  0
    5.4882    1.2080   17.8166 C   0  0  0  0  0  0  0  0  0  0  0  0
    6.6352    0.5378   17.6388 N   0  0  0  0  0  0  0  0  0  0  0  0
    7.1615   -0.0734   18.7107 C   0  0  0  0  0  0  0  0  0  0  0  0
    8.0993   -0.6002   18.5290 H   0  0  0  0  0  0  0  0  0  0  0  0
    5.0742    1.7010   16.9374 H   0  0  0  0  0  0  0  0  0  0  0  0
    3.9102    1.8541   19.1308 H   0  0  0  0  0  0  0  0  0  0  0  0
    4.9160    0.7046   21.1350 H   0  0  0  0  0  0  0  0  0  0  0  0
    7.4231   -0.0144   21.9854 H   0  0  0  0  0  0  0  0  0  0  0  0
    8.2634   -1.1102   20.9020 H   0  0  0  0  0  0  0  0  0  0  0  0
    6.5043   -3.0279   19.7901 H   0  0  0  0  0  0  0  0  0  0  0  0
    5.7021   -4.0854   20.9344 H   0  0  0  0  0  0  0  0  0  0  0  0
    7.9538   -4.9647   20.2231 H   0  0  0  0  0  0  0  0  0  0  0  0
    8.7440   -3.5740   21.0149 H   0  0  0  0  0  0  0  0  0  0  0  0
    8.5312   -4.7518   23.3626 N   0  0  0  0  0  0  0  0  0  0  0  0
    8.1778   -5.1895   24.6699 C   0  0  0  0  0  0  0  0  0  0  0  0
    6.8705   -5.6331   24.8947 C   0  0  0  0  0  0  0  0  0  0  0  0
    6.4866   -6.1443   26.1341 C   0  0  0  0  0  0  0  0  0  0  0  0
    5.0728   -6.6781   26.2219 C   0  0  0  0  0  0  0  0  0  0  0  0
    4.1659   -5.6823   26.2357 F   0  0  0  0  0  0  0  0  0  0  0  0
    4.7662   -7.4326   25.1414 F   0  0  0  0  0  0  0  0  0  0  0  0
    4.8732   -7.4419   27.3022 F   0  0  0  0  0  0  0  0  0  0  0  0
    7.4110   -6.1909   27.1851 C   0  0  0  0  0  0  0  0  0  0  0  0
    8.7086   -5.7073   26.9751 C   0  0  0  0  0  0  0  0  0  0  0  0
    9.1000   -5.2128   25.7227 C   0  0  0  0  0  0  0  0  0  0  0  0
   10.1295   -4.9053   25.5499 H   0  0  0  0  0  0  0  0  0  0  0  0
    9.4318   -5.7484   27.7865 H   0  0  0  0  0  0  0  0  0  0  0  0
    7.1254   -6.6164   28.1451 H   0  0  0  0  0  0  0  0  0  0  0  0
    6.1858   -5.6252   24.0592 H   0  0  0  0  0  0  0  0  0  0  0  0
    9.1211   -3.9424   23.2813 H   0  0  0  0  0  0  0  0  0  0  0  0
  1  2  2  0
  2  3  1  0
  3  4  1  0
  4  5  1  0
  5  6  1  0
  6  7  1  0
  7  8  2  0
  8  9  1  0
  9 10  2  0
 10 11  1  0
 11 12  2  0
 12 13  1  0
 10 14  1  0
  9 15  1  0
  8 16  1  0
  6 17  1  0
  6 18  1  0
  4 19  1  0
  4 20  1  0
  3 21  1  0
  3 22  1  0
  2 23  1  0
 23 24  1  0
 24 25  2  0
 25 26  1  0
 26 27  1  0
 27 28  1  0
 27 29  1  0
 27 30  1  0
 26 31  2  0
 31 32  1  0
 32 33  2  0
 33 34  1  0
 32 35  1  0
 31 36  1  0
 25 37  1  0
 23 38  1  0
 12  7  1  0
 33 24  1  0
M  END
>  <plip>  (1) 
-0.06666666666666667

>  <filename>  (1) 
[H][c]1[n][c]([H])[c]([C]([H])([H])[S][C]([H])([H])[C]([H])([H])[C](=[O])[N]([H])[c]2[c]([H])[c]([H])[c]([H])[c]([C]([F])([F])[F])[c]2[H])[c]([H])[c]1[H]

$$$$
