
     RDKit          3D

 25 26  0  0  0  0  0  0  0  0999 V2000
    6.7141   -1.3413   21.5762 H   0  0  0  0  0  0  0  0  0  0  0  0
    7.3156   -0.6677   20.9673 C   0  0  0  0  0  0  0  0  0  0  0  0
    8.5897   -0.5122   21.3525 C   0  0  0  0  0  0  0  0  0  0  0  0
    9.6144    0.7026   20.6323 Cl  0  0  0  0  0  0  0  0  0  0  0  0
    9.2236   -1.3055   22.4396 C   0  0  0  0  0  0  0  0  0  0  0  0
   10.4593   -1.9445   22.2520 C   0  0  0  0  0  0  0  0  0  0  0  0
   10.9936   -1.7495   21.3298 H   0  0  0  0  0  0  0  0  0  0  0  0
   10.9863   -2.8256   23.1927 C   0  0  0  0  0  0  0  0  0  0  0  0
   11.9292   -3.3364   23.0411 H   0  0  0  0  0  0  0  0  0  0  0  0
   10.2844   -3.0239   24.3777 C   0  0  0  0  0  0  0  0  0  0  0  0
   10.7433   -3.9104   25.2706 F   0  0  0  0  0  0  0  0  0  0  0  0
    9.1074   -2.3422   24.6605 C   0  0  0  0  0  0  0  0  0  0  0  0
    8.6204   -2.4290   25.6214 H   0  0  0  0  0  0  0  0  0  0  0  0
    8.5850   -1.5158   23.6739 C   0  0  0  0  0  0  0  0  0  0  0  0
    7.4242   -0.8928   23.9386 F   0  0  0  0  0  0  0  0  0  0  0  0
    6.6071   -0.0071   19.8450 C   0  0  0  0  0  0  0  0  0  0  0  0
    7.1286    0.0556   18.5372 C   0  0  0  0  0  0  0  0  0  0  0  0
    8.0716   -0.4334   18.2990 H   0  0  0  0  0  0  0  0  0  0  0  0
    6.5270    0.6965   17.5283 N   0  0  0  0  0  0  0  0  0  0  0  0
    5.3707    1.3238   17.7903 C   0  0  0  0  0  0  0  0  0  0  0  0
    4.9181    1.8606   16.9621 H   0  0  0  0  0  0  0  0  0  0  0  0
    4.7545    1.3211   19.0463 C   0  0  0  0  0  0  0  0  0  0  0  0
    3.8308    1.8722   19.1955 H   0  0  0  0  0  0  0  0  0  0  0  0
    5.3820    0.6342   20.0860 C   0  0  0  0  0  0  0  0  0  0  0  0
    4.9561    0.6288   21.0891 H   0  0  0  0  0  0  0  0  0  0  0  0
  1  2  1  0
  2  3  2  3
  3  4  1  0
  3  5  1  0
  5  6  2  0
  6  7  1  0
  6  8  1  0
  8  9  1  0
  8 10  2  0
 10 11  1  0
 10 12  1  0
 12 13  1  0
 12 14  2  0
 14 15  1  0
  2 16  1  0
 16 17  2  0
 17 18  1  0
 17 19  1  0
 19 20  2  0
 20 21  1  0
 20 22  1  0
 22 23  1  0
 22 24  2  0
 24 25  1  0
 14  5  1  0
 24 16  1  0
M  END
>  <plip>  (1) 
-0.03571428571428571

>  <filename>  (1) 
[H][C](=[C]([Cl])[c]1[c]([H])[c]([H])[c]([F])[c]([H])[c]1[F])[c]1[c]([H])[n][c]([H])[c]([H])[c]1[H]

$$$$
