
     RDKit          3D

 33 35  0  0  0  0  0  0  0  0999 V2000
    1.6686   -4.6508   25.9263 H   0  0  0  0  0  0  0  0  0  0  0  0
    2.7339   -4.6708   26.1411 C   0  0  0  0  0  0  0  0  0  0  0  0
    3.5137   -3.9943   25.2882 N   0  0  0  0  0  0  0  0  0  0  0  0
    4.8379   -3.9942   25.5252 C   0  0  0  0  0  0  0  0  0  0  0  0
    5.6869   -3.2552   24.5930 C   0  0  0  0  0  0  0  0  0  0  0  0
    6.4243   -2.6476   23.8420 C   0  0  0  0  0  0  0  0  0  0  0  0
    7.2620   -1.9665   22.9759 N   0  0  0  0  0  0  0  0  0  0  0  0
    6.6346   -1.2447   21.9295 N   0  0  0  0  0  0  0  0  0  0  0  0
    7.3490   -0.7370   20.9822 C   0  0  0  0  0  0  0  0  0  0  0  0
    6.6511    0.0080   19.9122 C   0  0  0  0  0  0  0  0  0  0  0  0
    7.1720    0.0606   18.6109 C   0  0  0  0  0  0  0  0  0  0  0  0
    8.1167   -0.4235   18.3719 H   0  0  0  0  0  0  0  0  0  0  0  0
    6.5685    0.6688   17.5879 N   0  0  0  0  0  0  0  0  0  0  0  0
    5.4080    1.2895   17.8412 C   0  0  0  0  0  0  0  0  0  0  0  0
    4.9268    1.7779   16.9968 H   0  0  0  0  0  0  0  0  0  0  0  0
    4.8099    1.3137   19.1067 C   0  0  0  0  0  0  0  0  0  0  0  0
    3.8762    1.8433   19.2540 H   0  0  0  0  0  0  0  0  0  0  0  0
    5.4315    0.6550   20.1644 C   0  0  0  0  0  0  0  0  0  0  0  0
    5.0011    0.6221   21.1693 H   0  0  0  0  0  0  0  0  0  0  0  0
    8.8592   -0.8914   20.9267 C   0  0  0  0  0  0  0  0  0  0  0  0
    9.0846   -1.8024   20.3561 H   0  0  0  0  0  0  0  0  0  0  0  0
    9.3226   -0.0601   20.3785 H   0  0  0  0  0  0  0  0  0  0  0  0
    9.4503   -0.9965   22.3386 C   0  0  0  0  0  0  0  0  0  0  0  0
   10.4824   -1.3481   22.3120 H   0  0  0  0  0  0  0  0  0  0  0  0
    9.4793   -0.0110   22.8213 H   0  0  0  0  0  0  0  0  0  0  0  0
    8.6743   -1.9330   23.2549 C   0  0  0  0  0  0  0  0  0  0  0  0
    9.1872   -2.5727   24.1364 O   0  0  0  0  0  0  0  0  0  0  0  0
    5.4024   -4.6793   26.6213 C   0  0  0  0  0  0  0  0  0  0  0  0
    6.4719   -4.6522   26.7680 H   0  0  0  0  0  0  0  0  0  0  0  0
    4.5767   -5.3844   27.5020 C   0  0  0  0  0  0  0  0  0  0  0  0
    4.9853   -5.9264   28.3615 H   0  0  0  0  0  0  0  0  0  0  0  0
    3.2022   -5.3789   27.2544 C   0  0  0  0  0  0  0  0  0  0  0  0
    2.5060   -5.9072   27.9014 H   0  0  0  0  0  0  0  0  0  0  0  0
  1  2  1  0
  2  3  2  0
  3  4  1  0
  4  5  1  0
  5  6  3  0
  6  7  1  0
  7  8  1  0
  8  9  2  0
  9 10  1  0
 10 11  2  0
 11 12  1  0
 11 13  1  0
 13 14  2  0
 14 15  1  0
 14 16  1  0
 16 17  1  0
 16 18  2  0
 18 19  1  0
  9 20  1  0
 20 21  1  0
 20 22  1  0
 20 23  1  0
 23 24  1  0
 23 25  1  0
 23 26  1  0
 26 27  2  0
  4 28  2  0
 28 29  1  0
 28 30  1  0
 30 31  1  0
 30 32  2  0
 32 33  1  0
 32  2  1  0
 26  7  1  0
 18 10  1  0
M  END
>  <plip>  (1) 
-0.03571428571428571

>  <filename>  (1) 
[H][c]1[n][c]([C]#[C][N]2[N]=[C]([c]3[c]([H])[n][c]([H])[c]([H])[c]3[H])[C]([H])([H])[C]([H])([H])[C]2=[O])[c]([H])[c]([H])[c]1[H]

$$$$
