
     RDKit          3D

 36 38  0  0  0  0  0  0  0  0999 V2000
    6.3458   -6.0320   28.2745 C   0  0  0  0  0  0  0  0  0  0  0  0
    6.5505   -6.2255   26.9034 C   0  0  0  0  0  0  0  0  0  0  0  0
    6.4168   -5.1637   26.0160 C   0  0  0  0  0  0  0  0  0  0  0  0
    6.1025   -3.8800   26.4779 C   0  0  0  0  0  0  0  0  0  0  0  0
    6.1163   -2.7373   25.4969 C   0  0  0  0  0  0  0  0  0  0  0  0
    7.5580   -2.2175   25.2571 C   0  0  0  0  0  0  0  0  0  0  0  0
    7.5730   -1.0407   24.3360 C   0  0  0  0  0  0  0  0  0  0  0  0
    7.5398   -1.3269   23.0365 N   0  0  0  0  0  0  0  0  0  0  0  0
    7.3769   -0.3067   22.2238 C   0  0  0  0  0  0  0  0  0  0  0  0
    7.3427   -0.6688   20.9262 O   0  0  0  0  0  0  0  0  0  0  0  0
    6.6512    0.0162   19.9460 C   0  0  0  0  0  0  0  0  0  0  0  0
    5.4209    0.6457   20.1449 C   0  0  0  0  0  0  0  0  0  0  0  0
    4.8349    1.2833   19.0418 C   0  0  0  0  0  0  0  0  0  0  0  0
    5.4880    1.2625   17.8066 C   0  0  0  0  0  0  0  0  0  0  0  0
    6.6482    0.6127   17.6026 N   0  0  0  0  0  0  0  0  0  0  0  0
    7.2045   -0.0050   18.6501 C   0  0  0  0  0  0  0  0  0  0  0  0
    8.1350   -0.5461   18.4816 H   0  0  0  0  0  0  0  0  0  0  0  0
    5.0652    1.7762   16.9460 H   0  0  0  0  0  0  0  0  0  0  0  0
    3.8900    1.8061   19.1384 H   0  0  0  0  0  0  0  0  0  0  0  0
    4.9405    0.6422   21.1233 H   0  0  0  0  0  0  0  0  0  0  0  0
    7.3249    1.0202   22.6474 C   0  0  0  0  0  0  0  0  0  0  0  0
    7.4363    1.1970   24.0097 C   0  0  0  0  0  0  0  0  0  0  0  0
    7.5503    0.1773   24.8668 N   0  0  0  0  0  0  0  0  0  0  0  0
    7.4296    2.1927   24.4503 H   0  0  0  0  0  0  0  0  0  0  0  0
    7.2065    1.8392   21.9556 H   0  0  0  0  0  0  0  0  0  0  0  0
    8.0291   -1.9492   26.2080 H   0  0  0  0  0  0  0  0  0  0  0  0
    8.1401   -3.0118   24.7862 H   0  0  0  0  0  0  0  0  0  0  0  0
    5.6742   -3.0819   24.5490 H   0  0  0  0  0  0  0  0  0  0  0  0
    5.4809   -1.9207   25.8539 H   0  0  0  0  0  0  0  0  0  0  0  0
    5.8373   -3.7018   27.8436 C   0  0  0  0  0  0  0  0  0  0  0  0
    5.9374   -4.7760   28.7323 C   0  0  0  0  0  0  0  0  0  0  0  0
    5.6739   -4.6442   29.7787 H   0  0  0  0  0  0  0  0  0  0  0  0
    5.5533   -2.7188   28.2155 H   0  0  0  0  0  0  0  0  0  0  0  0
    6.5740   -5.3161   24.9486 H   0  0  0  0  0  0  0  0  0  0  0  0
    6.8068   -7.1956   26.5099 H   0  0  0  0  0  0  0  0  0  0  0  0
    6.4585   -6.8502   28.9803 H   0  0  0  0  0  0  0  0  0  0  0  0
  1  2  2  0
  2  3  1  0
  3  4  2  0
  4  5  1  0
  5  6  1  0
  6  7  1  0
  7  8  2  0
  8  9  1  0
  9 10  1  0
 10 11  1  0
 11 12  2  0
 12 13  1  0
 13 14  2  0
 14 15  1  0
 15 16  2  0
 16 17  1  0
 14 18  1  0
 13 19  1  0
 12 20  1  0
  9 21  2  0
 21 22  1  0
 22 23  2  0
 22 24  1  0
 21 25  1  0
  6 26  1  0
  6 27  1  0
  5 28  1  0
  5 29  1  0
  4 30  1  0
 30 31  2  0
 31 32  1  0
 30 33  1  0
  3 34  1  0
  2 35  1  0
  1 36  1  0
 31  1  1  0
 23  7  1  0
 16 11  1  0
M  END
>  <plip>  (1) 
-0.07142857142857142

>  <filename>  (1) 
[H][c]1[n][c]([C]([H])([H])[C]([H])([H])[c]2[c]([H])[c]([H])[c]([H])[c]([H])[c]2[H])[n][c]([O][c]2[c]([H])[n][c]([H])[c]([H])[c]2[H])[c]1[H]

$$$$
