
     RDKit          3D

 28 29  0  0  0  0  0  0  0  0999 V2000
    5.0271    1.7679   17.0021 H   0  0  0  0  0  0  0  0  0  0  0  0
    5.4601    1.2674   17.8643 C   0  0  0  0  0  0  0  0  0  0  0  0
    6.6258    0.6237   17.6553 N   0  0  0  0  0  0  0  0  0  0  0  0
    7.1775    0.0086   18.7013 C   0  0  0  0  0  0  0  0  0  0  0  0
    8.1182   -0.5144   18.5383 H   0  0  0  0  0  0  0  0  0  0  0  0
    6.6201   -0.0081   19.9949 C   0  0  0  0  0  0  0  0  0  0  0  0
    7.3961   -0.7152   20.9486 N   0  0  0  0  0  0  0  0  0  0  0  0
    6.9831   -0.7389   22.1246 N   0  0  0  0  0  0  0  0  0  0  0  0
    7.8076   -1.4733   23.0892 C   0  0  0  0  0  0  0  0  0  0  0  0
    8.8106   -2.0807   22.7957 O   0  0  0  0  0  0  0  0  0  0  0  0
    7.2530   -1.4295   24.4821 C   0  0  0  0  0  0  0  0  0  0  0  0
    7.8478   -2.1896   25.5133 C   0  0  0  0  0  0  0  0  0  0  0  0
    8.7528   -2.7599   25.3180 H   0  0  0  0  0  0  0  0  0  0  0  0
    7.2606   -2.2391   26.7762 C   0  0  0  0  0  0  0  0  0  0  0  0
    7.7330   -2.8277   27.5607 H   0  0  0  0  0  0  0  0  0  0  0  0
    6.0548   -1.5586   27.0385 C   0  0  0  0  0  0  0  0  0  0  0  0
    5.3644   -1.6343   28.3716 C   0  0  0  0  0  0  0  0  0  0  0  0
    5.9956   -1.2178   29.1588 H   0  0  0  0  0  0  0  0  0  0  0  0
    5.1215   -2.6618   28.6538 H   0  0  0  0  0  0  0  0  0  0  0  0
    4.4307   -1.0651   28.3719 H   0  0  0  0  0  0  0  0  0  0  0  0
    5.4911   -0.7829   26.0209 C   0  0  0  0  0  0  0  0  0  0  0  0
    4.5599   -0.2508   26.2023 H   0  0  0  0  0  0  0  0  0  0  0  0
    6.0954   -0.6954   24.7735 C   0  0  0  0  0  0  0  0  0  0  0  0
    5.6613   -0.0710   24.0051 H   0  0  0  0  0  0  0  0  0  0  0  0
    5.4033    0.6534   20.2003 C   0  0  0  0  0  0  0  0  0  0  0  0
    4.9426    0.6576   21.1856 H   0  0  0  0  0  0  0  0  0  0  0  0
    4.8184    1.3007   19.1069 C   0  0  0  0  0  0  0  0  0  0  0  0
    3.8842    1.8391   19.2154 H   0  0  0  0  0  0  0  0  0  0  0  0
  1  2  1  0
  2  3  2  0
  3  4  1  0
  4  5  1  0
  4  6  2  0
  6  7  1  0
  7  8  2  3
  8  9  1  0
  9 10  2  0
  9 11  1  0
 11 12  2  0
 12 13  1  0
 12 14  1  0
 14 15  1  0
 14 16  2  0
 16 17  1  0
 17 18  1  0
 17 19  1  0
 17 20  1  0
 16 21  1  0
 21 22  1  0
 21 23  2  0
 23 24  1  0
  6 25  1  0
 25 26  1  0
 25 27  2  0
 27 28  1  0
 27  2  1  0
 23 11  1  0
M  END
>  <plip>  (1) 
-0.03571428571428571

>  <filename>  (1) 
[H][c]1[n][c]([H])[c]([N]=[N][C](=[O])[c]2[c]([H])[c]([H])[c]([C]([H])([H])[H])[c]([H])[c]2[H])[c]([H])[c]1[H]

$$$$
