
     RDKit          3D

 40 43  0  0  0  0  0  0  0  0999 V2000
    6.2870    4.7752   29.1722 H   0  0  0  0  0  0  0  0  0  0  0  0
    5.6745    3.9887   28.7353 C   0  0  0  0  0  0  0  0  0  0  0  0
    5.9232    3.7173   27.4526 N   0  0  0  0  0  0  0  0  0  0  0  0
    5.2132    2.7352   26.8799 C   0  0  0  0  0  0  0  0  0  0  0  0
    5.4926    2.4365   25.5677 N   0  0  0  0  0  0  0  0  0  0  0  0
    5.2999    1.0862   25.0080 C   0  0  0  0  0  0  0  0  0  0  0  0
    5.2195    0.3408   25.8056 H   0  0  0  0  0  0  0  0  0  0  0  0
    4.3767    1.0304   24.4143 H   0  0  0  0  0  0  0  0  0  0  0  0
    6.4941    0.7048   24.1276 C   0  0  0  0  0  0  0  0  0  0  0  0
    7.4015    0.7779   24.7428 H   0  0  0  0  0  0  0  0  0  0  0  0
    6.3940   -0.3225   23.7621 H   0  0  0  0  0  0  0  0  0  0  0  0
    6.6226    1.6272   22.9540 N   0  0  0  0  0  0  0  0  0  0  0  0
    7.9440    1.5760   22.4661 N   0  0  0  0  0  0  0  0  0  0  0  0
    8.8824    2.4755   22.8008 N   0  0  0  0  0  0  0  0  0  0  0  0
    9.9443    2.1575   22.1580 N   0  0  0  0  0  0  0  0  0  0  0  0
    9.7532    1.0472   21.4041 N   0  0  0  0  0  0  0  0  0  0  0  0
    8.5037    0.6877   21.6117 C   0  0  0  0  0  0  0  0  0  0  0  0
    7.6693   -0.7533   20.9861 S   0  0  0  0  0  0  0  0  0  0  0  0
    6.6291   -0.0313   19.7050 C   0  0  0  0  0  0  0  0  0  0  0  0
    7.0801   -0.0289   18.3710 C   0  0  0  0  0  0  0  0  0  0  0  0
    7.9859   -0.5744   18.1039 H   0  0  0  0  0  0  0  0  0  0  0  0
    6.4638    0.6380   17.3903 N   0  0  0  0  0  0  0  0  0  0  0  0
    5.3369    1.3003   17.6993 C   0  0  0  0  0  0  0  0  0  0  0  0
    4.8748    1.8448   16.8808 H   0  0  0  0  0  0  0  0  0  0  0  0
    4.7621    1.2965   18.9754 C   0  0  0  0  0  0  0  0  0  0  0  0
    3.8315    1.8317   19.1475 H   0  0  0  0  0  0  0  0  0  0  0  0
    5.4193    0.6110   20.0021 C   0  0  0  0  0  0  0  0  0  0  0  0
    5.0384    0.5988   21.0254 H   0  0  0  0  0  0  0  0  0  0  0  0
    6.1724    3.0260   23.2429 C   0  0  0  0  0  0  0  0  0  0  0  0
    6.7862    3.7185   22.6609 H   0  0  0  0  0  0  0  0  0  0  0  0
    5.1464    3.1200   22.8848 H   0  0  0  0  0  0  0  0  0  0  0  0
    6.2304    3.3997   24.7319 C   0  0  0  0  0  0  0  0  0  0  0  0
    5.7971    4.3985   24.8511 H   0  0  0  0  0  0  0  0  0  0  0  0
    7.2840    3.4713   25.0384 H   0  0  0  0  0  0  0  0  0  0  0  0
    4.1925    2.0323   27.5571 C   0  0  0  0  0  0  0  0  0  0  0  0
    3.6413    1.2891   26.9936 H   0  0  0  0  0  0  0  0  0  0  0  0
    3.9320    2.3510   28.8796 C   0  0  0  0  0  0  0  0  0  0  0  0
    3.1477    1.8243   29.4220 H   0  0  0  0  0  0  0  0  0  0  0  0
    4.6984    3.3497   29.4983 C   0  0  0  0  0  0  0  0  0  0  0  0
    4.5511    3.6298   30.5335 H   0  0  0  0  0  0  0  0  0  0  0  0
  1  2  1  0
  2  3  2  0
  3  4  1  0
  4  5  1  0
  5  6  1  0
  6  7  1  0
  6  8  1  0
  6  9  1  0
  9 10  1  0
  9 11  1  0
  9 12  1  0
 12 13  1  0
 13 14  1  0
 14 15  2  0
 15 16  1  0
 16 17  2  0
 17 18  1  0
 18 19  1  0
 19 20  2  0
 20 21  1  0
 20 22  1  0
 22 23  2  0
 23 24  1  0
 23 25  1  0
 25 26  1  0
 25 27  2  0
 27 28  1  0
 12 29  1  0
 29 30  1  0
 29 31  1  0
 29 32  1  0
 32 33  1  0
 32 34  1  0
  4 35  2  0
 35 36  1  0
 35 37  1  0
 37 38  1  0
 37 39  2  0
 39 40  1  0
 39  2  1  0
 32  5  1  0
 17 13  1  0
 27 19  1  0
M  END
>  <plip>  (1) 
-0.07142857142857142

>  <filename>  (1) 
[H][c]1[n][c]([N]2[C]([H])([H])[C]([H])([H])[N]([n]3[n][n][n][c]3[S][c]3[c]([H])[n][c]([H])[c]([H])[c]3[H])[C]([H])([H])[C]2([H])[H])[c]([H])[c]([H])[c]1[H]

$$$$
