
     RDKit          3D

 29 31  0  0  0  0  0  0  0  0999 V2000
    4.9188    1.7929   16.9812 H   0  0  0  0  0  0  0  0  0  0  0  0
    5.3936    1.3026   17.8271 C   0  0  0  0  0  0  0  0  0  0  0  0
    6.5553    0.6854   17.5649 N   0  0  0  0  0  0  0  0  0  0  0  0
    7.1474    0.0647   18.5904 C   0  0  0  0  0  0  0  0  0  0  0  0
    8.0983   -0.4148   18.3648 H   0  0  0  0  0  0  0  0  0  0  0  0
    6.6179   -0.0129   19.8913 C   0  0  0  0  0  0  0  0  0  0  0  0
    7.3888   -0.7056   21.0016 C   0  0  0  0  0  0  0  0  0  0  0  0
    6.7327   -0.9110   21.8597 H   0  0  0  0  0  0  0  0  0  0  0  0
    7.7592   -1.6796   20.6551 H   0  0  0  0  0  0  0  0  0  0  0  0
    8.5892    0.1072   21.3945 C   0  0  0  0  0  0  0  0  0  0  0  0
    9.8886   -0.0534   20.9804 C   0  0  0  0  0  0  0  0  0  0  0  0
   10.2320   -0.8869   20.3739 H   0  0  0  0  0  0  0  0  0  0  0  0
   10.6496    1.0521   21.4493 C   0  0  0  0  0  0  0  0  0  0  0  0
   11.7057    1.2221   21.2755 H   0  0  0  0  0  0  0  0  0  0  0  0
    9.7960    1.8665   22.1431 C   0  0  0  0  0  0  0  0  0  0  0  0
    9.9385    2.8129   22.6544 H   0  0  0  0  0  0  0  0  0  0  0  0
    8.5328    1.3003   22.1068 N   0  0  0  0  0  0  0  0  0  0  0  0
    7.4138    1.8975   22.6878 N   0  0  0  0  0  0  0  0  0  0  0  0
    6.5063    1.3051   23.5471 C   0  0  0  0  0  0  0  0  0  0  0  0
    6.5498    0.2648   23.8431 H   0  0  0  0  0  0  0  0  0  0  0  0
    5.5823    2.1512   23.9288 N   0  0  0  0  0  0  0  0  0  0  0  0
    5.8868    3.3363   23.3045 C   0  0  0  0  0  0  0  0  0  0  0  0
    5.3000    4.2305   23.4895 H   0  0  0  0  0  0  0  0  0  0  0  0
    7.0063    3.2168   22.5294 C   0  0  0  0  0  0  0  0  0  0  0  0
    7.5575    3.9290   21.9263 H   0  0  0  0  0  0  0  0  0  0  0  0
    5.4192    0.6540   20.1463 C   0  0  0  0  0  0  0  0  0  0  0  0
    5.0128    0.6378   21.1612 H   0  0  0  0  0  0  0  0  0  0  0  0
    4.7927    1.3251   19.0917 C   0  0  0  0  0  0  0  0  0  0  0  0
    3.8598    1.8552   19.2411 H   0  0  0  0  0  0  0  0  0  0  0  0
  1  2  1  0
  2  3  2  0
  3  4  1  0
  4  5  1  0
  4  6  2  0
  6  7  1  0
  7  8  1  0
  7  9  1  0
  7 10  1  0
 10 11  2  0
 11 12  1  0
 11 13  1  0
 13 14  1  0
 13 15  2  0
 15 16  1  0
 15 17  1  0
 17 18  1  0
 18 19  1  0
 19 20  1  0
 19 21  2  0
 21 22  1  0
 22 23  1  0
 22 24  2  0
 24 25  1  0
  6 26  1  0
 26 27  1  0
 26 28  2  0
 28 29  1  0
 28  2  1  0
 17 10  1  0
 24 18  1  0
M  END
>  <plip>  (1) 
-0.10714285714285714

>  <filename>  (1) 
[H][c]1[n][c]([H])[c]([C]([H])([H])[c]2[c]([H])[c]([H])[c]([H])[n]2-[n]2[c]([H])[n][c]([H])[c]2[H])[c]([H])[c]1[H]

$$$$
