
     RDKit          3D

 51 53  0  0  0  0  0  0  0  0999 V2000
    7.8867    4.9488   27.6182 C   0  0  0  0  0  0  0  0  0  0  0  0
    7.4146    5.5792   26.3049 C   0  0  0  0  0  0  0  0  0  0  0  0
    6.8881    4.5013   25.3948 C   0  0  0  0  0  0  0  0  0  0  0  0
    5.5514    4.1090   25.4155 C   0  0  0  0  0  0  0  0  0  0  0  0
    5.0836    3.0249   24.6361 C   0  0  0  0  0  0  0  0  0  0  0  0
    5.9406    2.3298   23.7947 C   0  0  0  0  0  0  0  0  0  0  0  0
    7.3122    2.6880   23.7467 C   0  0  0  0  0  0  0  0  0  0  0  0
    7.7572    3.7377   24.5895 C   0  0  0  0  0  0  0  0  0  0  0  0
    9.1177    3.8347   24.4614 N   0  0  0  0  0  0  0  0  0  0  0  0
    9.5586    2.9244   23.5466 C   0  0  0  0  0  0  0  0  0  0  0  0
    8.5000    2.2098   23.0502 C   0  0  0  0  0  0  0  0  0  0  0  0
    8.6236    1.1835   21.9792 C   0  0  0  0  0  0  0  0  0  0  0  0
    9.4801    1.2063   21.1047 O   0  0  0  0  0  0  0  0  0  0  0  0
    7.7210    0.1588   22.0794 N   0  0  0  0  0  0  0  0  0  0  0  0
    7.4060   -0.6908   20.9456 C   0  0  0  0  0  0  0  0  0  0  0  0
    6.5857   -1.9083   21.3926 C   0  0  0  0  0  0  0  0  0  0  0  0
    7.2316   -2.8252   22.4404 C   0  0  0  0  0  0  0  0  0  0  0  0
    8.4409   -3.6144   21.9354 C   0  0  0  0  0  0  0  0  0  0  0  0
    9.0810   -4.3520   22.9586 O   0  0  0  0  0  0  0  0  0  0  0  0
    9.9299   -3.5967   23.7899 C   0  0  0  0  0  0  0  0  0  0  0  0
   10.6775   -3.0328   23.2049 H   0  0  0  0  0  0  0  0  0  0  0  0
   10.4500   -4.2937   24.4532 H   0  0  0  0  0  0  0  0  0  0  0  0
    9.3614   -2.8964   24.4186 H   0  0  0  0  0  0  0  0  0  0  0  0
    9.1701   -2.9583   21.4260 H   0  0  0  0  0  0  0  0  0  0  0  0
    8.1069   -4.3635   21.2077 H   0  0  0  0  0  0  0  0  0  0  0  0
    7.5243   -2.2355   23.3174 H   0  0  0  0  0  0  0  0  0  0  0  0
    6.4843   -3.5369   22.8104 H   0  0  0  0  0  0  0  0  0  0  0  0
    6.3136   -2.4815   20.4949 H   0  0  0  0  0  0  0  0  0  0  0  0
    5.6457   -1.5202   21.7978 H   0  0  0  0  0  0  0  0  0  0  0  0
    6.6651    0.0866   19.8644 C   0  0  0  0  0  0  0  0  0  0  0  0
    5.4452    0.7532   20.0827 C   0  0  0  0  0  0  0  0  0  0  0  0
    4.8165    1.3749   19.0019 C   0  0  0  0  0  0  0  0  0  0  0  0
    5.4350    1.3193   17.7470 C   0  0  0  0  0  0  0  0  0  0  0  0
    6.6070    0.7097   17.5202 N   0  0  0  0  0  0  0  0  0  0  0  0
    7.1955    0.1228   18.5718 C   0  0  0  0  0  0  0  0  0  0  0  0
    8.1558   -0.3577   18.3764 H   0  0  0  0  0  0  0  0  0  0  0  0
    4.9626    1.7771   16.8825 H   0  0  0  0  0  0  0  0  0  0  0  0
    3.8665    1.8929   19.1142 H   0  0  0  0  0  0  0  0  0  0  0  0
    4.9905    0.8083   21.0774 H   0  0  0  0  0  0  0  0  0  0  0  0
    8.3643   -1.0274   20.5253 H   0  0  0  0  0  0  0  0  0  0  0  0
    6.9782    0.3678   22.7227 H   0  0  0  0  0  0  0  0  0  0  0  0
   10.6164    2.8106   23.3301 H   0  0  0  0  0  0  0  0  0  0  0  0
    9.6901    4.4143   25.0549 H   0  0  0  0  0  0  0  0  0  0  0  0
    5.5459    1.5079   23.1998 H   0  0  0  0  0  0  0  0  0  0  0  0
    4.0417    2.7278   24.7175 H   0  0  0  0  0  0  0  0  0  0  0  0
    4.8583    4.6588   26.0471 H   0  0  0  0  0  0  0  0  0  0  0  0
    8.2440    6.1040   25.8081 H   0  0  0  0  0  0  0  0  0  0  0  0
    6.6337    6.3248   26.5151 H   0  0  0  0  0  0  0  0  0  0  0  0
    8.5990    4.1469   27.3820 H   0  0  0  0  0  0  0  0  0  0  0  0
    7.0455    4.4966   28.1582 H   0  0  0  0  0  0  0  0  0  0  0  0
    8.3404    5.6920   28.2808 H   0  0  0  0  0  0  0  0  0  0  0  0
  1  2  1  0
  2  3  1  0
  3  4  2  0
  4  5  1  0
  5  6  2  0
  6  7  1  0
  7  8  2  0
  8  9  1  0
  9 10  1  0
 10 11  2  0
 11 12  1  0
 12 13  2  0
 12 14  1  0
 14 15  1  0
 15 16  1  0
 16 17  1  0
 17 18  1  0
 18 19  1  0
 19 20  1  0
 20 21  1  0
 20 22  1  0
 20 23  1  0
 18 24  1  0
 18 25  1  0
 17 26  1  0
 17 27  1  0
 16 28  1  0
 16 29  1  0
 15 30  1  0
 30 31  2  0
 31 32  1  0
 32 33  2  0
 33 34  1  0
 34 35  2  0
 35 36  1  0
 33 37  1  0
 32 38  1  0
 31 39  1  0
 15 40  1  0
 14 41  1  0
 10 42  1  0
  9 43  1  0
  6 44  1  0
  5 45  1  0
  4 46  1  0
  2 47  1  0
  2 48  1  0
  1 49  1  0
  1 50  1  0
  1 51  1  0
  8  3  1  0
 35 30  1  0
 11  7  1  0
M  END
>  <plip>  (1) 
-0.10714285714285714

>  <filename>  (1) 
[H][c]1[n][c]([H])[c]([C]([H])([N]([H])[C](=[O])[c]2[c]([H])[n]([H])[c]3[c]([C]([H])([H])[C]([H])([H])[H])[c]([H])[c]([H])[c]([H])[c]23)[C]([H])([H])[C]([H])([H])[C]([H])([H])[O][C]([H])([H])[H])[c]([H])[c]1[H]

$$$$
