
     RDKit          3D

 33 35  0  0  0  0  0  0  0  0999 V2000
    9.8161   -0.7569   21.1155 C   0  0  0  0  0  0  0  0  0  0  0  0
    8.5456   -0.1251   21.4661 N   0  0  0  0  0  0  0  0  0  0  0  0
    7.2498   -0.7069   21.1281 C   0  0  0  0  0  0  0  0  0  0  0  0
    6.5724    0.0238   19.9902 C   0  0  0  0  0  0  0  0  0  0  0  0
    5.3468    0.6823   20.1480 C   0  0  0  0  0  0  0  0  0  0  0  0
    4.7854    1.3241   19.0442 C   0  0  0  0  0  0  0  0  0  0  0  0
    5.4660    1.2982   17.8255 C   0  0  0  0  0  0  0  0  0  0  0  0
    6.6469    0.6838   17.6580 N   0  0  0  0  0  0  0  0  0  0  0  0
    7.1796    0.0770   18.7276 C   0  0  0  0  0  0  0  0  0  0  0  0
    8.1413   -0.4131   18.5550 H   0  0  0  0  0  0  0  0  0  0  0  0
    5.0409    1.7789   16.9436 H   0  0  0  0  0  0  0  0  0  0  0  0
    3.8388    1.8466   19.1198 H   0  0  0  0  0  0  0  0  0  0  0  0
    4.8523    0.7135   21.1218 H   0  0  0  0  0  0  0  0  0  0  0  0
    7.4108   -1.7584   20.8522 H   0  0  0  0  0  0  0  0  0  0  0  0
    6.5902   -0.7092   22.0090 H   0  0  0  0  0  0  0  0  0  0  0  0
    8.6277    1.0842   22.1058 C   0  0  0  0  0  0  0  0  0  0  0  0
    9.7529    1.7066   22.2557 N   0  0  0  0  0  0  0  0  0  0  0  0
    9.5739    2.8980   22.9319 C   0  0  0  0  0  0  0  0  0  0  0  0
   10.6122    3.7875   23.2521 C   0  0  0  0  0  0  0  0  0  0  0  0
   10.3312    4.9309   23.9962 C   0  0  0  0  0  0  0  0  0  0  0  0
    8.9987    5.1818   24.3915 C   0  0  0  0  0  0  0  0  0  0  0  0
    8.6767    6.4166   25.2566 C   0  0  0  0  0  0  0  0  0  0  0  0
    7.4849    6.5864   25.6209 O   0  0  0  0  0  0  0  0  0  0  0  0
    9.6008    7.2031   25.5833 O   0  0  0  0  0  1  0  0  0  0  0  0
    7.9465    4.3244   24.0531 C   0  0  0  0  0  0  0  0  0  0  0  0
    8.2515    3.1777   23.3211 C   0  0  0  0  0  0  0  0  0  0  0  0
    7.2015    1.8858   22.7941 S   0  0  0  0  0  0  0  0  0  0  0  0
    6.9221    4.5180   24.3560 H   0  0  0  0  0  0  0  0  0  0  0  0
   11.1481    5.5984   24.2675 H   0  0  0  0  0  0  0  0  0  0  0  0
   11.6126    3.5476   22.9050 H   0  0  0  0  0  0  0  0  0  0  0  0
   10.4586   -0.0136   20.6402 H   0  0  0  0  0  0  0  0  0  0  0  0
   10.3445   -1.0989   22.0161 H   0  0  0  0  0  0  0  0  0  0  0  0
    9.6599   -1.6041   20.4386 H   0  0  0  0  0  0  0  0  0  0  0  0
  1  2  1  0
  2  3  1  0
  3  4  1  0
  4  5  2  0
  5  6  1  0
  6  7  2  0
  7  8  1  0
  8  9  2  0
  9 10  1  0
  7 11  1  0
  6 12  1  0
  5 13  1  0
  3 14  1  0
  3 15  1  0
  2 16  1  0
 16 17  2  0
 17 18  1  0
 18 19  2  0
 19 20  1  0
 20 21  2  0
 21 22  1  0
 22 23  2  0
 22 24  1  0
 21 25  1  0
 25 26  2  0
 26 27  1  0
 25 28  1  0
 20 29  1  0
 19 30  1  0
  1 31  1  0
  1 32  1  0
  1 33  1  0
  9  4  1  0
 27 16  1  0
 26 18  1  0
M  CHG  1  24  -1
M  END
>  <plip>  (1) 
-0.10714285714285714

>  <filename>  (1) 
[H][c]1[n][c]([H])[c]([C]([H])([H])[N]([c]2[n][c]3[c]([H])[c]([H])[c]([C](=[O])[O-])[c]([H])[c]3[s]2)[C]([H])([H])[H])[c]([H])[c]1[H]

$$$$
