
     RDKit          3D

 27 28  0  0  0  0  0  0  0  0999 V2000
    4.9848    1.8046   17.0146 H   0  0  0  0  0  0  0  0  0  0  0  0
    5.4425    1.2732   17.8478 C   0  0  0  0  0  0  0  0  0  0  0  0
    6.5996    0.6330   17.5874 N   0  0  0  0  0  0  0  0  0  0  0  0
    7.1965   -0.0075   18.6009 C   0  0  0  0  0  0  0  0  0  0  0  0
    8.1400   -0.5121   18.3943 H   0  0  0  0  0  0  0  0  0  0  0  0
    6.6759   -0.0593   19.9091 C   0  0  0  0  0  0  0  0  0  0  0  0
    7.3436   -0.8157   20.9101 N   0  0  0  0  0  0  0  0  0  0  0  0
    7.5291   -0.3713   22.0876 C   0  0  0  0  0  0  0  0  0  0  0  0
    7.3213    1.1202   22.5872 C   0  0  0  0  0  0  0  0  0  0  0  0
    7.6677    2.0666   21.9066 O   0  0  0  0  0  0  0  0  0  0  0  0
    6.6950    1.3111   23.9580 C   0  0  0  0  0  0  0  0  0  0  0  0
    6.8111    2.5436   24.6206 C   0  0  0  0  0  0  0  0  0  0  0  0
    7.3650    3.3683   24.1774 H   0  0  0  0  0  0  0  0  0  0  0  0
    6.2006    2.6962   25.8657 C   0  0  0  0  0  0  0  0  0  0  0  0
    6.2923    3.6369   26.3961 H   0  0  0  0  0  0  0  0  0  0  0  0
    5.4797    1.7412   26.4720 N   0  0  0  0  0  0  0  0  0  0  0  0
    5.3836    0.5671   25.8378 C   0  0  0  0  0  0  0  0  0  0  0  0
    4.7923   -0.1963   26.3340 H   0  0  0  0  0  0  0  0  0  0  0  0
    5.9816    0.2896   24.6078 C   0  0  0  0  0  0  0  0  0  0  0  0
    5.8876   -0.7171   24.2075 H   0  0  0  0  0  0  0  0  0  0  0  0
    7.9630   -1.3370   22.9857 N   0  0  0  0  0  0  0  0  0  0  0  0
    8.5542   -1.0309   23.7474 H   0  0  0  0  0  0  0  0  0  0  0  0
    8.3515   -2.0926   22.4254 H   0  0  0  0  0  0  0  0  0  0  0  0
    5.4539    0.5815   20.1492 C   0  0  0  0  0  0  0  0  0  0  0  0
    5.0569    0.5639   21.1641 H   0  0  0  0  0  0  0  0  0  0  0  0
    4.8256    1.2612   19.1036 C   0  0  0  0  0  0  0  0  0  0  0  0
    3.9022    1.8090   19.2673 H   0  0  0  0  0  0  0  0  0  0  0  0
  1  2  1  0
  2  3  2  0
  3  4  1  0
  4  5  1  0
  4  6  2  0
  6  7  1  0
  7  8  2  3
  8  9  1  0
  9 10  2  0
  9 11  1  0
 11 12  2  0
 12 13  1  0
 12 14  1  0
 14 15  1  0
 14 16  2  0
 16 17  1  0
 17 18  1  0
 17 19  2  0
 19 20  1  0
  8 21  1  0
 21 22  1  0
 21 23  1  0
  6 24  1  0
 24 25  1  0
 24 26  2  0
 26 27  1  0
 26  2  1  0
 19 11  1  0
M  END
>  <plip>  (1) 
-0.03571428571428571

>  <filename>  (1) 
[H][c]1[n][c]([H])[c]([N]=[C]([C](=[O])[c]2[c]([H])[c]([H])[n][c]([H])[c]2[H])[N]([H])[H])[c]([H])[c]1[H]

$$$$
