
     RDKit          3D

 41 44  0  0  0  0  0  0  0  0999 V2000
    9.5339   -0.0237   20.2827 H   0  0  0  0  0  0  0  0  0  0  0  0
    8.8560   -0.6954   20.7862 C   0  0  0  0  0  0  0  0  0  0  0  0
    7.5545   -0.8756   20.5070 C   0  0  0  0  0  0  0  0  0  0  0  0
    6.7786   -0.1657   19.4691 C   0  0  0  0  0  0  0  0  0  0  0  0
    7.3046    0.1216   18.1873 C   0  0  0  0  0  0  0  0  0  0  0  0
    8.2563   -0.3085   17.8672 H   0  0  0  0  0  0  0  0  0  0  0  0
    6.6890    0.8974   17.2867 N   0  0  0  0  0  0  0  0  0  0  0  0
    5.5109    1.4394   17.6441 C   0  0  0  0  0  0  0  0  0  0  0  0
    5.0430    2.0907   16.9097 H   0  0  0  0  0  0  0  0  0  0  0  0
    4.8830    1.1831   18.8658 C   0  0  0  0  0  0  0  0  0  0  0  0
    3.9451    1.6740   19.1019 H   0  0  0  0  0  0  0  0  0  0  0  0
    5.5016    0.3306   19.7760 C   0  0  0  0  0  0  0  0  0  0  0  0
    5.0378    0.0513   20.7239 H   0  0  0  0  0  0  0  0  0  0  0  0
    6.9657   -1.8146   21.5300 C   0  0  0  0  0  0  0  0  0  0  0  0
    5.8459   -2.2780   21.5935 O   0  0  0  0  0  0  0  0  0  0  0  0
    8.0388   -2.0716   22.4157 N   0  0  0  0  0  0  0  0  0  0  0  0
    7.8684   -2.3442   23.7625 N   0  0  0  0  0  0  0  0  0  0  0  0
    8.6952   -3.4148   24.3622 C   0  0  0  0  0  0  0  0  0  0  0  0
    8.3101   -4.3947   24.0633 H   0  0  0  0  0  0  0  0  0  0  0  0
    9.7530   -3.3546   24.0494 H   0  0  0  0  0  0  0  0  0  0  0  0
    8.5861   -3.1356   25.8617 C   0  0  0  0  0  0  0  0  0  0  0  0
    9.3897   -3.5874   26.4561 H   0  0  0  0  0  0  0  0  0  0  0  0
    7.6235   -3.5100   26.2387 H   0  0  0  0  0  0  0  0  0  0  0  0
    8.6147   -1.5953   25.9036 C   0  0  2  0  0  0  0  0  0  0  0  0
    9.6449   -1.2234   25.8524 H   0  0  0  0  0  0  0  0  0  0  0  0
    7.8435   -0.9591   27.0503 C   0  0  0  0  0  0  0  0  0  0  0  0
    8.1379    0.1035   27.1895 H   0  0  0  0  0  0  0  0  0  0  0  0
    8.0510   -1.4778   27.9848 H   0  0  0  0  0  0  0  0  0  0  0  0
    6.4504   -1.1165   26.6458 N   0  0  0  0  0  0  0  0  0  0  0  0
    5.4698   -0.4586   27.4849 C   0  0  0  0  0  0  0  0  0  0  0  0
    4.4672   -0.6052   27.0686 H   0  0  0  0  0  0  0  0  0  0  0  0
    5.4711   -0.9148   28.4825 H   0  0  0  0  0  0  0  0  0  0  0  0
    5.6366    0.6306   27.6045 H   0  0  0  0  0  0  0  0  0  0  0  0
    6.4023   -0.8079   25.2099 C   0  0  0  0  0  0  0  0  0  0  0  0
    6.2341    0.2723   25.0414 H   0  0  0  0  0  0  0  0  0  0  0  0
    5.6028   -1.3562   24.6944 H   0  0  0  0  0  0  0  0  0  0  0  0
    7.8115   -1.1796   24.6563 C   0  0  2  0  0  0  0  0  0  0  0  0
    8.2328   -0.2922   24.1610 H   0  0  0  0  0  0  0  0  0  0  0  0
    9.2908   -1.4850   21.9643 C   0  0  0  0  0  0  0  0  0  0  0  0
   10.0245   -2.2695   21.7256 H   0  0  0  0  0  0  0  0  0  0  0  0
    9.7368   -0.8489   22.7476 H   0  0  0  0  0  0  0  0  0  0  0  0
  1  2  1  0
  2  3  2  0
  3  4  1  0
  4  5  2  0
  5  6  1  0
  5  7  1  0
  7  8  2  0
  8  9  1  0
  8 10  1  0
 10 11  1  0
 10 12  2  0
 12 13  1  0
  3 14  1  0
 14 15  2  0
 14 16  1  0
 16 17  1  0
 17 18  1  0
 18 19  1  0
 18 20  1  0
 18 21  1  0
 21 22  1  0
 21 23  1  0
 21 24  1  0
 24 25  1  6
 24 26  1  0
 26 27  1  0
 26 28  1  0
 26 29  1  0
 29 30  1  0
 30 31  1  0
 30 32  1  0
 30 33  1  0
 29 34  1  0
 34 35  1  0
 34 36  1  0
 34 37  1  0
 37 38  1  6
 16 39  1  0
 39 40  1  0
 39 41  1  0
 39  2  1  0
 12  4  1  0
 37 17  1  0
 37 24  1  0
M  END
>  <plip>  (1) 
-0.03571428571428571

>  <filename>  (1) 
[H][C]1=[C]([c]2[c]([H])[n][c]([H])[c]([H])[c]2[H])[C](=[O])[N]([N]2[C]([H])([H])[C]([H])([H])[C@]3([H])[C]([H])([H])[N]([C]([H])([H])[H])[C]([H])([H])[C@]23[H])[C]1([H])[H]

$$$$
