
     RDKit          3D

 39 41  0  0  0  0  0  0  0  0999 V2000
   10.3363    5.9566   26.1108 C   0  0  0  0  0  0  0  0  0  0  0  0
   10.1428    5.0871   25.2989 C   0  0  0  0  0  0  0  0  0  0  0  0
    9.8751    4.0487   24.3292 C   0  0  0  0  0  0  0  0  0  0  0  0
    8.9133    4.2534   23.3205 C   0  0  0  0  0  0  0  0  0  0  0  0
    8.6283    3.2567   22.3857 C   0  0  0  0  0  0  0  0  0  0  0  0
    9.2813    2.0155   22.4493 C   0  0  0  0  0  0  0  0  0  0  0  0
    9.0375    0.9171   21.4495 C   0  0  0  0  0  0  0  0  0  0  0  0
    7.9164    0.0359   21.8976 N   0  0  0  0  0  4  0  0  0  0  0  0
    8.1676   -0.7436   23.1510 C   0  0  0  0  0  0  0  0  0  0  0  0
    6.9853   -1.7156   23.1912 C   0  0  0  0  0  0  0  0  0  0  0  0
    6.5326   -1.9191   21.7258 C   0  0  0  0  0  0  0  0  0  0  0  0
    7.3614   -0.9336   20.8856 C   0  0  0  0  0  0  0  0  0  0  0  0
    6.6417   -0.1310   19.8428 C   0  0  0  0  0  0  0  0  0  0  0  0
    5.4760    0.5924   20.1228 C   0  0  0  0  0  0  0  0  0  0  0  0
    4.8863    1.3352   19.1010 C   0  0  0  0  0  0  0  0  0  0  0  0
    5.5176    1.3558   17.8496 C   0  0  0  0  0  0  0  0  0  0  0  0
    6.6622    0.7108   17.5793 N   0  0  0  0  0  0  0  0  0  0  0  0
    7.2129    0.0033   18.5720 C   0  0  0  0  0  0  0  0  0  0  0  0
    8.1702   -0.4802   18.3557 H   0  0  0  0  0  0  0  0  0  0  0  0
    5.0797    1.9172   17.0282 H   0  0  0  0  0  0  0  0  0  0  0  0
    3.9810    1.9146   19.2673 H   0  0  0  0  0  0  0  0  0  0  0  0
    5.0478    0.5723   21.1292 H   0  0  0  0  0  0  0  0  0  0  0  0
    8.2003   -1.4631   20.4212 H   0  0  0  0  0  0  0  0  0  0  0  0
    6.7066   -2.9386   21.3735 H   0  0  0  0  0  0  0  0  0  0  0  0
    5.4607   -1.7464   21.5875 H   0  0  0  0  0  0  0  0  0  0  0  0
    6.1770   -1.2890   23.7954 H   0  0  0  0  0  0  0  0  0  0  0  0
    7.2856   -2.6469   23.6759 H   0  0  0  0  0  0  0  0  0  0  0  0
    9.1318   -1.2725   23.0814 H   0  0  0  0  0  0  0  0  0  0  0  0
    8.2017   -0.0784   24.0198 H   0  0  0  0  0  0  0  0  0  0  0  0
    7.1344    0.7094   22.0938 H   0  0  0  0  0  0  0  0  0  0  0  0
    8.8231    1.3397   20.4624 H   0  0  0  0  0  0  0  0  0  0  0  0
    9.9516    0.3167   21.3431 H   0  0  0  0  0  0  0  0  0  0  0  0
   10.2098    1.8009   23.4797 C   0  0  0  0  0  0  0  0  0  0  0  0
   10.5403    2.8091   24.3771 C   0  0  0  0  0  0  0  0  0  0  0  0
   11.3355    2.6174   25.0854 H   0  0  0  0  0  0  0  0  0  0  0  0
   10.6529    0.8153   23.6028 H   0  0  0  0  0  0  0  0  0  0  0  0
    7.8889    3.4446   21.6076 H   0  0  0  0  0  0  0  0  0  0  0  0
    8.3955    5.2058   23.2654 H   0  0  0  0  0  0  0  0  0  0  0  0
   10.5030    6.7505   26.8079 H   0  0  0  0  0  0  0  0  0  0  0  0
  1  2  3  0
  2  3  1  0
  3  4  2  0
  4  5  1  0
  5  6  2  0
  6  7  1  0
  7  8  1  0
  8  9  1  0
  9 10  1  0
 10 11  1  0
 11 12  1  0
 12 13  1  0
 13 14  2  0
 14 15  1  0
 15 16  2  0
 16 17  1  0
 17 18  2  0
 18 19  1  0
 16 20  1  0
 15 21  1  0
 14 22  1  0
 12 23  1  0
 11 24  1  0
 11 25  1  0
 10 26  1  0
 10 27  1  0
  9 28  1  0
  9 29  1  0
  8 30  1  0
  7 31  1  0
  7 32  1  0
  6 33  1  0
 33 34  2  0
 34 35  1  0
 33 36  1  0
  5 37  1  0
  4 38  1  0
  1 39  1  0
 34  3  1  0
 12  8  1  0
 18 13  1  0
M  CHG  1   8   1
M  END
>  <plip>  (1) 
-0.07142857142857142

>  <filename>  (1) 
[H][C]#[C][c]1[c]([H])[c]([H])[c]([C]([H])([H])[N+]2([H])[C]([H])([H])[C]([H])([H])[C]([H])([H])[C]2([H])[c]2[c]([H])[n][c]([H])[c]([H])[c]2[H])[c]([H])[c]1[H]

$$$$
