
     RDKit          3D

 31 31  0  0  0  0  0  0  0  0999 V2000
    7.1686   -5.1276   25.0814 C   0  0  0  0  0  0  0  0  0  0  0  0
    7.6515   -4.6016   23.9615 C   0  0  0  0  0  0  0  0  0  0  0  0
    9.3892   -4.6525   23.7398 Cl  0  0  0  0  0  0  0  0  0  0  0  0
    6.9218   -3.9137   22.8324 C   0  0  0  0  0  0  0  0  0  0  0  0
    7.2776   -2.4145   22.7467 C   0  0  0  0  0  0  0  0  0  0  0  0
    6.9437   -1.8275   24.1793 N   0  0  0  0  0  4  0  0  0  0  0  0
    5.9306   -1.9784   24.3907 H   0  0  0  0  0  0  0  0  0  0  0  0
    7.5023   -2.3900   24.8553 H   0  0  0  0  0  0  0  0  0  0  0  0
    7.1718   -0.8293   24.3264 H   0  0  0  0  0  0  0  0  0  0  0  0
    6.6389   -1.7606   21.4646 C   0  0  0  0  0  0  0  0  0  0  0  0
    5.6204   -2.2210   20.9830 O   0  0  0  0  0  0  0  0  0  0  0  0
    7.3314   -0.6879   20.8844 N   0  0  0  0  0  0  0  0  0  0  0  0
    8.7208   -0.3309   21.2013 C   0  0  0  0  0  0  0  0  0  0  0  0
    8.8527   -0.1302   22.2714 H   0  0  0  0  0  0  0  0  0  0  0  0
    9.4433   -1.1042   20.9005 H   0  0  0  0  0  0  0  0  0  0  0  0
    8.9943    0.5890   20.6753 H   0  0  0  0  0  0  0  0  0  0  0  0
    6.6682    0.0332   19.8368 C   0  0  0  0  0  0  0  0  0  0  0  0
    5.4449    0.6639   20.0966 C   0  0  0  0  0  0  0  0  0  0  0  0
    4.8146    1.3434   19.0563 C   0  0  0  0  0  0  0  0  0  0  0  0
    5.4079    1.3445   17.7909 C   0  0  0  0  0  0  0  0  0  0  0  0
    6.5747    0.7349   17.5232 N   0  0  0  0  0  0  0  0  0  0  0  0
    7.1929    0.1094   18.5315 C   0  0  0  0  0  0  0  0  0  0  0  0
    8.1350   -0.3888   18.2976 H   0  0  0  0  0  0  0  0  0  0  0  0
    4.9213    1.8448   16.9580 H   0  0  0  0  0  0  0  0  0  0  0  0
    3.8722    1.8576   19.2154 H   0  0  0  0  0  0  0  0  0  0  0  0
    5.0073    0.6051   21.0924 H   0  0  0  0  0  0  0  0  0  0  0  0
    8.3576   -2.3375   22.5996 H   0  0  0  0  0  0  0  0  0  0  0  0
    5.8379   -4.0467   22.9403 H   0  0  0  0  0  0  0  0  0  0  0  0
    7.1977   -4.4090   21.8933 H   0  0  0  0  0  0  0  0  0  0  0  0
    7.8197   -5.6586   25.7768 H   0  0  0  0  0  0  0  0  0  0  0  0
    6.1130   -5.0459   25.3197 H   0  0  0  0  0  0  0  0  0  0  0  0
  1  2  2  3
  2  3  1  0
  2  4  1  0
  4  5  1  0
  5  6  1  0
  6  7  1  0
  6  8  1  0
  6  9  1  0
  5 10  1  0
 10 11  2  0
 10 12  1  0
 12 13  1  0
 13 14  1  0
 13 15  1  0
 13 16  1  0
 12 17  1  0
 17 18  2  0
 18 19  1  0
 19 20  2  0
 20 21  1  0
 21 22  2  0
 22 23  1  0
 20 24  1  0
 19 25  1  0
 18 26  1  0
  5 27  1  0
  4 28  1  0
  4 29  1  0
  1 30  1  0
  1 31  1  0
 22 17  1  0
M  CHG  1   6   1
M  END
>  <plip>  (1) 
-0.14285714285714285

>  <filename>  (1) 
[H][C]([H])=[C]([Cl])[C]([H])([H])[C]([H])([C](=[O])[N]([c]1[c]([H])[n][c]([H])[c]([H])[c]1[H])[C]([H])([H])[H])[N+]([H])([H])[H]

$$$$
