
     RDKit          3D

 29 30  0  0  0  0  0  0  0  0999 V2000
    5.0665    1.7721   17.0208 H   0  0  0  0  0  0  0  0  0  0  0  0
    5.4727    1.2414   17.8772 C   0  0  0  0  0  0  0  0  0  0  0  0
    6.6229    0.5781   17.6769 N   0  0  0  0  0  0  0  0  0  0  0  0
    7.1700   -0.0323   18.7291 C   0  0  0  0  0  0  0  0  0  0  0  0
    8.1269   -0.5288   18.5489 H   0  0  0  0  0  0  0  0  0  0  0  0
    6.6042   -0.0587   20.0144 C   0  0  0  0  0  0  0  0  0  0  0  0
    7.3415   -0.7914   21.0870 C   0  0  0  0  0  0  0  0  0  0  0  0
    6.6436   -1.4171   21.9594 N   0  0  0  0  0  0  0  0  0  0  0  0
    7.1777   -2.2377   22.9618 C   0  0  0  0  0  0  0  0  0  0  0  0
    8.4292   -2.6982   22.9428 N   0  0  0  0  0  0  0  0  0  0  0  0
    8.8199   -3.5048   23.9427 C   0  0  0  0  0  0  0  0  0  0  0  0
    9.8545   -3.8294   23.8772 H   0  0  0  0  0  0  0  0  0  0  0  0
    8.0184   -3.9016   25.0209 C   0  0  0  0  0  0  0  0  0  0  0  0
    8.4301   -4.8015   26.1578 C   0  0  0  0  0  0  0  0  0  0  0  0
    7.8818   -4.5128   27.0618 H   0  0  0  0  0  0  0  0  0  0  0  0
    8.1884   -5.8531   25.9598 H   0  0  0  0  0  0  0  0  0  0  0  0
    9.4956   -4.7471   26.3950 H   0  0  0  0  0  0  0  0  0  0  0  0
    6.7090   -3.3859   25.0291 C   0  0  0  0  0  0  0  0  0  0  0  0
    6.0420   -3.6220   25.8607 H   0  0  0  0  0  0  0  0  0  0  0  0
    6.2860   -2.5774   24.0042 C   0  0  0  0  0  0  0  0  0  0  0  0
    5.2857   -2.2009   23.9910 H   0  0  0  0  0  0  0  0  0  0  0  0
    8.8467   -0.7118   21.0502 C   0  0  0  0  0  0  0  0  0  0  0  0
    9.2631   -0.5045   22.0377 H   0  0  0  0  0  0  0  0  0  0  0  0
    9.1896    0.0856   20.3902 H   0  0  0  0  0  0  0  0  0  0  0  0
    9.2682   -1.6628   20.7095 H   0  0  0  0  0  0  0  0  0  0  0  0
    5.3786    0.6151   20.1954 C   0  0  0  0  0  0  0  0  0  0  0  0
    4.8975    0.6268   21.1747 H   0  0  0  0  0  0  0  0  0  0  0  0
    4.8114    1.2810   19.1118 C   0  0  0  0  0  0  0  0  0  0  0  0
    3.8904    1.8514   19.2082 H   0  0  0  0  0  0  0  0  0  0  0  0
  1  2  1  0
  2  3  2  0
  3  4  1  0
  4  5  1  0
  4  6  2  0
  6  7  1  0
  7  8  2  3
  8  9  1  0
  9 10  2  0
 10 11  1  0
 11 12  1  0
 11 13  2  0
 13 14  1  0
 14 15  1  0
 14 16  1  0
 14 17  1  0
 13 18  1  0
 18 19  1  0
 18 20  2  0
 20 21  1  0
  7 22  1  0
 22 23  1  0
 22 24  1  0
 22 25  1  0
  6 26  1  0
 26 27  1  0
 26 28  2  0
 28 29  1  0
 28  2  1  0
 20  9  1  0
M  END
>  <plip>  (1) 
-0.0

>  <filename>  (1) 
[H][c]1[n][c]([H])[c]([C](=[N][c]2[n][c]([H])[c]([C]([H])([H])[H])[c]([H])[c]2[H])[C]([H])([H])[H])[c]([H])[c]1[H]

$$$$
