
     RDKit          3D

 47 49  0  0  0  0  0  0  0  0999 V2000
   10.2729    0.7470   21.3358 C   0  0  0  0  0  0  0  0  0  0  0  0
    8.9304    1.1677   21.3717 O   0  0  0  0  0  0  0  0  0  0  0  0
    8.0055    0.2922   21.9842 C   0  0  0  0  0  0  0  0  0  0  0  0
    7.3841   -0.7319   21.0032 C   0  0  1  0  0  0  0  0  0  0  0  0
    6.5705   -1.6810   21.7523 N   0  0  0  0  0  0  0  0  0  0  0  0
    6.0005   -2.7661   21.1483 C   0  0  0  0  0  0  0  0  0  0  0  0
    6.1239   -2.9966   19.9601 O   0  0  0  0  0  0  0  0  0  0  0  0
    5.1524   -3.6906   22.0320 C   0  0  0  0  0  0  0  0  0  0  0  0
    5.9168   -4.3563   23.0336 O   0  0  0  0  0  0  0  0  0  0  0  0
    5.2648   -5.2134   23.8696 C   0  0  0  0  0  0  0  0  0  0  0  0
    3.8927   -5.5391   23.7772 C   0  0  0  0  0  0  0  0  0  0  0  0
    3.3230   -6.3985   24.7082 C   0  0  0  0  0  0  0  0  0  0  0  0
    4.0699   -6.8825   25.8020 C   0  0  0  0  0  0  0  0  0  0  0  0
    3.5266   -7.6666   26.9186 C   0  0  0  0  0  0  0  0  0  0  0  0
    2.1353   -8.2510   26.8171 C   0  0  0  0  0  0  0  0  0  0  0  0
    1.3721   -7.4682   26.8770 H   0  0  0  0  0  0  0  0  0  0  0  0
    1.9436   -8.9666   27.6228 H   0  0  0  0  0  0  0  0  0  0  0  0
    2.0002   -8.7668   25.8590 H   0  0  0  0  0  0  0  0  0  0  0  0
    4.3069   -7.8356   28.0038 C   0  0  0  0  0  0  0  0  0  0  0  0
    5.7019   -7.3921   28.0634 C   0  0  0  0  0  0  0  0  0  0  0  0
    6.4041   -7.4602   29.0367 O   0  0  0  0  0  0  0  0  0  0  0  0
    6.2356   -6.8757   26.9043 O   0  0  0  0  0  0  0  0  0  0  0  0
    5.4412   -6.5303   25.8583 C   0  0  0  0  0  0  0  0  0  0  0  0
    6.0510   -5.7728   24.8722 C   0  0  0  0  0  0  0  0  0  0  0  0
    7.1189   -5.6096   24.9096 H   0  0  0  0  0  0  0  0  0  0  0  0
    3.9916   -8.3396   28.9071 H   0  0  0  0  0  0  0  0  0  0  0  0
    2.2736   -6.6779   24.5989 H   0  0  0  0  0  0  0  0  0  0  0  0
    3.2872   -5.1220   22.9814 H   0  0  0  0  0  0  0  0  0  0  0  0
    4.3497   -3.1043   22.4966 H   0  0  0  0  0  0  0  0  0  0  0  0
    4.7154   -4.4341   21.3618 H   0  0  0  0  0  0  0  0  0  0  0  0
    6.2837   -1.4402   22.6874 H   0  0  0  0  0  0  0  0  0  0  0  0
    6.5954   -0.0518   19.8914 C   0  0  0  0  0  0  0  0  0  0  0  0
    5.3871    0.6222   20.1204 C   0  0  0  0  0  0  0  0  0  0  0  0
    4.7875    1.3051   19.0600 C   0  0  0  0  0  0  0  0  0  0  0  0
    5.4169    1.2944   17.8084 C   0  0  0  0  0  0  0  0  0  0  0  0
    6.5624    0.6453   17.5612 N   0  0  0  0  0  0  0  0  0  0  0  0
    7.1198   -0.0051   18.5952 C   0  0  0  0  0  0  0  0  0  0  0  0
    8.0593   -0.5152   18.3776 H   0  0  0  0  0  0  0  0  0  0  0  0
    4.9787    1.8311   16.9677 H   0  0  0  0  0  0  0  0  0  0  0  0
    3.8667    1.8625   19.1911 H   0  0  0  0  0  0  0  0  0  0  0  0
    4.9234    0.6264   21.1108 H   0  0  0  0  0  0  0  0  0  0  0  0
    8.2145   -1.2776   20.5334 H   0  0  0  0  0  0  0  0  0  0  0  0
    7.1997    0.9271   22.3757 H   0  0  0  0  0  0  0  0  0  0  0  0
    8.4455   -0.2548   22.8345 H   0  0  0  0  0  0  0  0  0  0  0  0
   10.7215    0.7061   22.3411 H   0  0  0  0  0  0  0  0  0  0  0  0
   10.8104    1.4999   20.7531 H   0  0  0  0  0  0  0  0  0  0  0  0
   10.4052   -0.2344   20.8514 H   0  0  0  0  0  0  0  0  0  0  0  0
  1  2  1  0
  2  3  1  0
  3  4  1  0
  4  5  1  0
  5  6  1  0
  6  7  2  0
  6  8  1  0
  8  9  1  0
  9 10  1  0
 10 11  2  0
 11 12  1  0
 12 13  2  0
 13 14  1  0
 14 15  1  0
 15 16  1  0
 15 17  1  0
 15 18  1  0
 14 19  2  0
 19 20  1  0
 20 21  2  0
 20 22  1  0
 22 23  1  0
 23 24  2  0
 24 25  1  0
 19 26  1  0
 12 27  1  0
 11 28  1  0
  8 29  1  0
  8 30  1  0
  5 31  1  0
  4 32  1  0
 32 33  2  0
 33 34  1  0
 34 35  2  0
 35 36  1  0
 36 37  2  0
 37 38  1  0
 35 39  1  0
 34 40  1  0
 33 41  1  0
  4 42  1  6
  3 43  1  0
  3 44  1  0
  1 45  1  0
  1 46  1  0
  1 47  1  0
 24 10  1  0
 37 32  1  0
 23 13  1  0
M  END
>  <plip>  (1) 
-0.21428571428571427

>  <filename>  (1) 
[H][c]1[n][c]([H])[c]([C@]([H])([N]([H])[C](=[O])[C]([H])([H])[O][c]2[c]([H])[c]([H])[c]3[c]([C]([H])([H])[H])[c]([H])[c](=[O])[o][c]3[c]2[H])[C]([H])([H])[O][C]([H])([H])[H])[c]([H])[c]1[H]

$$$$
