
     RDKit          3D

 55 56  0  0  0  0  0  0  0  0999 V2000
   10.4430    2.4061   22.5328 C   0  0  0  0  0  0  0  0  0  0  0  0
    8.9643    2.5671   22.1343 C   0  0  0  0  0  0  0  0  0  0  0  0
    8.0392    1.3617   22.3537 C   0  0  0  0  0  0  0  0  0  0  0  0
    8.5031    0.1644   21.4990 N   0  0  0  0  0  4  0  0  0  0  0  0
    7.4461   -0.7738   20.9471 C   0  0  0  0  0  0  0  0  0  0  0  0
    6.5733   -1.3781   22.0453 C   0  0  0  0  0  0  0  0  0  0  0  0
    7.2647   -2.4012   22.9391 C   0  0  0  0  0  0  0  0  0  0  0  0
    7.3662   -3.7391   22.2315 N   0  0  0  0  0  4  0  0  0  0  0  0
    8.5268   -4.5285   22.7363 C   0  0  0  0  0  0  0  0  0  0  0  0
    8.4270   -4.6766   23.8221 H   0  0  0  0  0  0  0  0  0  0  0  0
    9.4699   -4.0007   22.5569 H   0  0  0  0  0  0  0  0  0  0  0  0
    8.5692   -5.5132   22.2607 H   0  0  0  0  0  0  0  0  0  0  0  0
    6.1094   -4.5491   22.4154 C   0  0  0  0  0  0  0  0  0  0  0  0
    5.2294   -4.0135   22.0481 H   0  0  0  0  0  0  0  0  0  0  0  0
    5.9583   -4.7528   23.4856 H   0  0  0  0  0  0  0  0  0  0  0  0
    6.1831   -5.5090   21.8930 H   0  0  0  0  0  0  0  0  0  0  0  0
    7.4762   -3.5118   21.2181 H   0  0  0  0  0  0  0  0  0  0  0  0
    6.7186   -2.5519   23.8792 H   0  0  0  0  0  0  0  0  0  0  0  0
    8.2732   -2.0731   23.2209 H   0  0  0  0  0  0  0  0  0  0  0  0
    5.7093   -1.8450   21.5615 H   0  0  0  0  0  0  0  0  0  0  0  0
    6.1958   -0.5624   22.6547 H   0  0  0  0  0  0  0  0  0  0  0  0
    6.6533   -0.0133   19.9096 C   0  0  0  0  0  0  0  0  0  0  0  0
    5.4382    0.6471   20.1536 C   0  0  0  0  0  0  0  0  0  0  0  0
    4.8029    1.3111   19.0997 C   0  0  0  0  0  0  0  0  0  0  0  0
    5.4084    1.2990   17.8407 C   0  0  0  0  0  0  0  0  0  0  0  0
    6.5749    0.6881   17.5901 N   0  0  0  0  0  0  0  0  0  0  0  0
    7.1737    0.0599   18.6079 C   0  0  0  0  0  0  0  0  0  0  0  0
    8.1212   -0.4239   18.3646 H   0  0  0  0  0  0  0  0  0  0  0  0
    4.9390    1.7959   16.9924 H   0  0  0  0  0  0  0  0  0  0  0  0
    3.8729    1.8492   19.2380 H   0  0  0  0  0  0  0  0  0  0  0  0
    5.0007    0.6664   21.1562 H   0  0  0  0  0  0  0  0  0  0  0  0
    7.9704   -1.5773   20.4180 H   0  0  0  0  0  0  0  0  0  0  0  0
    8.9973    0.5891   20.6931 H   0  0  0  0  0  0  0  0  0  0  0  0
    9.1722   -0.3288   22.1120 H   0  0  0  0  0  0  0  0  0  0  0  0
    7.9174    0.9741   23.8034 C   0  0  0  0  0  0  0  0  0  0  0  0
    8.9265    0.2990   24.5057 C   0  0  0  0  0  0  0  0  0  0  0  0
    8.7701    0.0101   25.8604 C   0  0  0  0  0  0  0  0  0  0  0  0
    7.6209    0.3967   26.5616 C   0  0  0  0  0  0  0  0  0  0  0  0
    7.5083    0.0341   28.0133 C   0  0  0  0  0  0  0  0  0  0  0  0
    8.0880   -0.8780   28.1519 H   0  0  0  0  0  0  0  0  0  0  0  0
    7.9302    0.8095   28.6656 H   0  0  0  0  0  0  0  0  0  0  0  0
    6.4754   -0.1529   28.3250 H   0  0  0  0  0  0  0  0  0  0  0  0
    6.6238    1.0893   25.8789 C   0  0  0  0  0  0  0  0  0  0  0  0
    6.7794    1.3774   24.5217 C   0  0  0  0  0  0  0  0  0  0  0  0
    5.7910    2.0353   23.8546 O   0  0  0  0  0  0  0  0  0  0  0  0
    5.1389    2.2746   24.5241 H   0  0  0  0  0  0  0  0  0  0  0  0
    5.7078    1.3849   26.3894 H   0  0  0  0  0  0  0  0  0  0  0  0
    9.5406   -0.5303   26.3963 H   0  0  0  0  0  0  0  0  0  0  0  0
    9.8534    0.0158   23.9997 H   0  0  0  0  0  0  0  0  0  0  0  0
    7.0485    1.6407   22.0046 H   0  0  0  0  0  0  0  0  0  0  0  0
    8.5292    3.4004   22.7029 H   0  0  0  0  0  0  0  0  0  0  0  0
    8.8774    2.8439   21.0778 H   0  0  0  0  0  0  0  0  0  0  0  0
   11.0264    3.2787   22.2237 H   0  0  0  0  0  0  0  0  0  0  0  0
   10.9036    1.5264   22.0624 H   0  0  0  0  0  0  0  0  0  0  0  0
   10.5596    2.2995   23.6171 H   0  0  0  0  0  0  0  0  0  0  0  0
  1  2  1  0
  2  3  1  0
  3  4  1  0
  4  5  1  0
  5  6  1  0
  6  7  1  0
  7  8  1  0
  8  9  1  0
  9 10  1  0
  9 11  1  0
  9 12  1  0
  8 13  1  0
 13 14  1  0
 13 15  1  0
 13 16  1  0
  8 17  1  0
  7 18  1  0
  7 19  1  0
  6 20  1  0
  6 21  1  0
  5 22  1  0
 22 23  2  0
 23 24  1  0
 24 25  2  0
 25 26  1  0
 26 27  2  0
 27 28  1  0
 25 29  1  0
 24 30  1  0
 23 31  1  0
  5 32  1  0
  4 33  1  0
  4 34  1  0
  3 35  1  0
 35 36  2  0
 36 37  1  0
 37 38  2  0
 38 39  1  0
 39 40  1  0
 39 41  1  0
 39 42  1  0
 38 43  1  0
 43 44  2  0
 44 45  1  0
 45 46  1  0
 43 47  1  0
 37 48  1  0
 36 49  1  0
  3 50  1  0
  2 51  1  0
  2 52  1  0
  1 53  1  0
  1 54  1  0
  1 55  1  0
 27 22  1  0
 44 35  1  0
M  CHG  2   4   1   8   1
M  END
>  <plip>  (1) 
-0.06896551724137931

>  <filename>  (1) 
[H][O][c]1[c]([H])[c]([C]([H])([H])[H])[c]([H])[c]([H])[c]1[C]([H])([C]([H])([H])[C]([H])([H])[H])[N+]([H])([H])[C]([H])([c]1[c]([H])[n][c]([H])[c]([H])[c]1[H])[C]([H])([H])[C]([H])([H])[N+]([H])([C]([H])([H])[H])[C]([H])([H])[H]

$$$$
