
     RDKit          3D

 35 37  0  0  0  0  0  0  0  0999 V2000
    4.9747    1.7910   17.0037 H   0  0  0  0  0  0  0  0  0  0  0  0
    5.4377    1.2792   17.8455 C   0  0  0  0  0  0  0  0  0  0  0  0
    6.6082    0.6749   17.5952 N   0  0  0  0  0  0  0  0  0  0  0  0
    7.2132    0.0583   18.6156 C   0  0  0  0  0  0  0  0  0  0  0  0
    8.1727   -0.4014   18.3859 H   0  0  0  0  0  0  0  0  0  0  0  0
    6.6889   -0.0277   19.9221 C   0  0  0  0  0  0  0  0  0  0  0  0
    7.4819   -0.7222   21.0150 C   0  0  2  0  0  0  0  0  0  0  0  0
    7.0576   -0.4880   22.0056 H   0  0  0  0  0  0  0  0  0  0  0  0
    8.8846   -0.3820   20.9265 N   0  0  0  0  0  0  0  0  0  0  0  0
    9.2431    0.4552   21.3501 H   0  0  0  0  0  0  0  0  0  0  0  0
    9.6722   -1.4657   21.2054 C   0  0  0  0  0  0  0  0  0  0  0  0
   10.8123   -1.4278   21.5680 O   0  0  0  0  0  0  0  0  0  0  0  0
    8.9576   -2.6013   21.0194 O   0  0  0  0  0  0  0  0  0  0  0  0
    7.5786   -2.2936   20.9298 C   0  0  1  0  0  0  0  0  0  0  0  0
    7.1901   -2.5708   19.9460 H   0  0  0  0  0  0  0  0  0  0  0  0
    6.8242   -3.0623   21.8889 N   0  0  0  0  0  0  0  0  0  0  0  0
    7.3189   -3.5680   23.1034 C   0  0  0  0  0  0  0  0  0  0  0  0
    8.2510   -2.8373   23.8615 C   0  0  0  0  0  0  0  0  0  0  0  0
    8.5784   -1.8707   23.4962 H   0  0  0  0  0  0  0  0  0  0  0  0
    8.7373   -3.3419   25.0717 C   0  0  0  0  0  0  0  0  0  0  0  0
    9.4685   -2.7633   25.6386 H   0  0  0  0  0  0  0  0  0  0  0  0
    8.2837   -4.5779   25.5479 C   0  0  0  0  0  0  0  0  0  0  0  0
    8.6584   -4.9771   26.4893 H   0  0  0  0  0  0  0  0  0  0  0  0
    7.3371   -5.3041   24.8169 C   0  0  0  0  0  0  0  0  0  0  0  0
    6.9474   -6.2405   25.2127 H   0  0  0  0  0  0  0  0  0  0  0  0
    6.8592   -4.8061   23.5979 C   0  0  0  0  0  0  0  0  0  0  0  0
    6.1348   -5.3764   23.0265 H   0  0  0  0  0  0  0  0  0  0  0  0
    5.4231   -3.2203   21.5475 C   0  0  0  0  0  0  0  0  0  0  0  0
    5.2176   -4.1201   20.9399 H   0  0  0  0  0  0  0  0  0  0  0  0
    5.1553   -2.3457   20.9528 H   0  0  0  0  0  0  0  0  0  0  0  0
    4.7959   -3.2375   22.4460 H   0  0  0  0  0  0  0  0  0  0  0  0
    5.4567    0.6007   20.1543 C   0  0  0  0  0  0  0  0  0  0  0  0
    4.9949    0.5784   21.1426 H   0  0  0  0  0  0  0  0  0  0  0  0
    4.8243    1.2699   19.1002 C   0  0  0  0  0  0  0  0  0  0  0  0
    3.8819    1.7886   19.2361 H   0  0  0  0  0  0  0  0  0  0  0  0
  1  2  1  0
  2  3  2  0
  3  4  1  0
  4  5  1  0
  4  6  2  0
  6  7  1  0
  7  8  1  1
  7  9  1  0
  9 10  1  0
  9 11  1  0
 11 12  2  0
 11 13  1  0
 13 14  1  0
 14 15  1  6
 14 16  1  0
 16 17  1  0
 17 18  2  0
 18 19  1  0
 18 20  1  0
 20 21  1  0
 20 22  2  0
 22 23  1  0
 22 24  1  0
 24 25  1  0
 24 26  2  0
 26 27  1  0
 16 28  1  0
 28 29  1  0
 28 30  1  0
 28 31  1  0
  6 32  1  0
 32 33  1  0
 32 34  2  0
 34 35  1  0
 34  2  1  0
 14  7  1  0
 26 17  1  0
M  END
>  <plip>  (1) 
-0.07142857142857142

>  <filename>  (1) 
[H][c]1[n][c]([H])[c]([C@]2([H])[N]([H])[C](=[O])[O][C@@]2([H])[N]([c]2[c]([H])[c]([H])[c]([H])[c]([H])[c]2[H])[C]([H])([H])[H])[c]([H])[c]1[H]

$$$$
