
     RDKit          3D

 40 41  0  0  0  0  0  0  0  0999 V2000
    5.6472   -3.0640   22.5416 C   0  0  0  0  0  0  0  0  0  0  0  0
    7.1385   -2.8809   22.8635 C   0  0  0  0  0  0  0  0  0  0  0  0
    7.5198   -3.6251   24.1467 C   0  0  0  0  0  0  0  0  0  0  0  0
    7.6264   -5.4165   23.8561 S   0  0  0  0  0  0  0  0  0  0  0  0
    7.9390   -5.9332   25.5712 C   0  0  0  0  0  0  0  0  0  0  0  0
    6.7273   -5.9125   26.4817 C   0  0  0  0  0  0  0  0  0  0  0  0
    6.6783   -4.9850   27.5342 C   0  0  0  0  0  0  0  0  0  0  0  0
    5.5785   -4.9237   28.3944 C   0  0  0  0  0  0  0  0  0  0  0  0
    4.5126   -5.8105   28.2233 C   0  0  0  0  0  0  0  0  0  0  0  0
    4.5490   -6.7522   27.1887 C   0  0  0  0  0  0  0  0  0  0  0  0
    5.6410   -6.7952   26.3159 C   0  0  0  0  0  0  0  0  0  0  0  0
    5.6301   -7.5081   25.4970 H   0  0  0  0  0  0  0  0  0  0  0  0
    3.7277   -7.4584   27.0649 H   0  0  0  0  0  0  0  0  0  0  0  0
    3.6617   -5.7752   28.8992 H   0  0  0  0  0  0  0  0  0  0  0  0
    5.5596   -4.1845   29.1944 H   0  0  0  0  0  0  0  0  0  0  0  0
    7.5105   -4.2970   27.6764 H   0  0  0  0  0  0  0  0  0  0  0  0
    8.3950   -6.9237   25.5137 H   0  0  0  0  0  0  0  0  0  0  0  0
    8.7242   -5.2886   25.9827 H   0  0  0  0  0  0  0  0  0  0  0  0
    8.4904   -3.2647   24.5064 H   0  0  0  0  0  0  0  0  0  0  0  0
    6.7757   -3.4209   24.9317 H   0  0  0  0  0  0  0  0  0  0  0  0
    7.5305   -1.4864   23.1100 N   0  0  0  0  0  0  0  0  0  0  0  0
    7.3014   -0.4024   22.3165 C   0  0  0  0  0  0  0  0  0  0  0  0
    7.1528    1.0881   23.0238 S   0  0  0  0  0  0  0  0  0  0  0  0
    7.3136   -0.6917   20.9884 N   0  0  0  0  0  0  0  0  0  0  0  0
    6.6463   -0.0056   19.9333 C   0  0  0  0  0  0  0  0  0  0  0  0
    5.4370    0.6623   20.1547 C   0  0  0  0  0  0  0  0  0  0  0  0
    4.8303    1.3072   19.0714 C   0  0  0  0  0  0  0  0  0  0  0  0
    5.4500    1.2812   17.8177 C   0  0  0  0  0  0  0  0  0  0  0  0
    6.6050    0.6358   17.5863 N   0  0  0  0  0  0  0  0  0  0  0  0
    7.1773    0.0140   18.6250 C   0  0  0  0  0  0  0  0  0  0  0  0
    8.1117   -0.5044   18.4262 H   0  0  0  0  0  0  0  0  0  0  0  0
    5.0135    1.8071   16.9724 H   0  0  0  0  0  0  0  0  0  0  0  0
    3.9004    1.8448   19.1970 H   0  0  0  0  0  0  0  0  0  0  0  0
    4.9994    0.6755   21.1523 H   0  0  0  0  0  0  0  0  0  0  0  0
    7.6696   -1.6160   20.8118 H   0  0  0  0  0  0  0  0  0  0  0  0
    7.4018   -1.1900   24.0669 H   0  0  0  0  0  0  0  0  0  0  0  0
    7.7384   -3.2930   22.0358 H   0  0  0  0  0  0  0  0  0  0  0  0
    5.4712   -4.0903   22.2017 H   0  0  0  0  0  0  0  0  0  0  0  0
    5.3183   -2.3652   21.7631 H   0  0  0  0  0  0  0  0  0  0  0  0
    5.0394   -2.9118   23.4450 H   0  0  0  0  0  0  0  0  0  0  0  0
  1  2  1  0
  2  3  1  0
  3  4  1  0
  4  5  1  0
  5  6  1  0
  6  7  2  0
  7  8  1  0
  8  9  2  0
  9 10  1  0
 10 11  2  0
 11 12  1  0
 10 13  1  0
  9 14  1  0
  8 15  1  0
  7 16  1  0
  5 17  1  0
  5 18  1  0
  3 19  1  0
  3 20  1  0
  2 21  1  0
 21 22  1  0
 22 23  2  0
 22 24  1  0
 24 25  1  0
 25 26  2  0
 26 27  1  0
 27 28  2  0
 28 29  1  0
 29 30  2  0
 30 31  1  0
 28 32  1  0
 27 33  1  0
 26 34  1  0
 24 35  1  0
 21 36  1  0
  2 37  1  0
  1 38  1  0
  1 39  1  0
  1 40  1  0
 11  6  1  0
 30 25  1  0
M  END
>  <plip>  (1) 
-0.06896551724137931

>  <filename>  (1) 
[H][c]1[n][c]([H])[c]([N]([H])[C](=[S])[N]([H])[C]([H])([C]([H])([H])[H])[C]([H])([H])[S][C]([H])([H])[c]2[c]([H])[c]([H])[c]([H])[c]([H])[c]2[H])[c]([H])[c]1[H]

$$$$
