
     RDKit          3D

 43 46  0  0  0  0  0  0  0  0999 V2000
    5.0089    1.7390   17.0018 H   0  0  0  0  0  0  0  0  0  0  0  0
    5.4509    1.2985   17.8930 C   0  0  0  0  0  0  0  0  0  0  0  0
    6.6660    0.7554   17.7360 N   0  0  0  0  0  0  0  0  0  0  0  0
    7.2298    0.2065   18.8157 C   0  0  0  0  0  0  0  0  0  0  0  0
    8.2053   -0.2441   18.6286 H   0  0  0  0  0  0  0  0  0  0  0  0
    6.6484    0.1358   20.1017 C   0  0  0  0  0  0  0  0  0  0  0  0
    7.4673   -0.5311   21.2215 C   0  0  2  0  0  0  0  0  0  0  0  0
    8.4827    0.3502   21.7672 O   0  0  0  0  0  0  0  0  0  0  0  0
    8.1332    1.5517   22.3123 C   0  0  0  0  0  0  0  0  0  0  0  0
    8.0843    1.7397   23.7004 C   0  0  0  0  0  0  0  0  0  0  0  0
    8.2625    0.8898   24.3568 H   0  0  0  0  0  0  0  0  0  0  0  0
    7.8009    3.0123   24.2071 C   0  0  0  0  0  0  0  0  0  0  0  0
    7.7532    3.1901   25.2758 H   0  0  0  0  0  0  0  0  0  0  0  0
    7.5700    4.0860   23.3303 C   0  0  0  0  0  0  0  0  0  0  0  0
    7.2972    5.2934   23.9054 O   0  0  0  0  0  0  0  0  0  0  0  0
    7.0073    6.3765   23.0415 C   0  0  0  0  0  0  0  0  0  0  0  0
    6.7847    7.2311   23.6804 H   0  0  0  0  0  0  0  0  0  0  0  0
    7.8674    6.6062   22.3970 H   0  0  0  0  0  0  0  0  0  0  0  0
    6.1396    6.1561   22.4028 H   0  0  0  0  0  0  0  0  0  0  0  0
    7.6430    3.8841   21.9459 C   0  0  0  0  0  0  0  0  0  0  0  0
    7.4528    4.7196   21.2819 H   0  0  0  0  0  0  0  0  0  0  0  0
    7.9375    2.6171   21.4413 C   0  0  0  0  0  0  0  0  0  0  0  0
    8.0018    2.3869   20.3797 H   0  0  0  0  0  0  0  0  0  0  0  0
    8.2983   -1.7231   20.6782 C   0  0  0  0  0  0  0  0  0  0  0  0
    9.3321   -1.4301   20.4904 H   0  0  0  0  0  0  0  0  0  0  0  0
    7.8033   -1.9750   19.7456 H   0  0  0  0  0  0  0  0  0  0  0  0
    8.1435   -2.8582   21.7105 C   0  0  2  0  0  0  0  0  0  0  0  0
    8.9924   -3.5433   21.7627 H   0  0  0  0  0  0  0  0  0  0  0  0
    6.7861   -3.5232   21.4151 C   0  0  0  0  0  0  0  0  0  0  0  0
    6.6213   -4.4246   22.0159 H   0  0  0  0  0  0  0  0  0  0  0  0
    6.6922   -3.8119   20.3639 H   0  0  0  0  0  0  0  0  0  0  0  0
    5.7887   -2.3830   21.7877 C   0  0  0  0  0  0  0  0  0  0  0  0
    5.2555   -2.0093   20.9080 H   0  0  0  0  0  0  0  0  0  0  0  0
    5.0623   -2.7451   22.5217 H   0  0  0  0  0  0  0  0  0  0  0  0
    6.6974   -1.2573   22.3736 C   0  0  1  0  0  0  0  0  0  0  0  0
    6.1969   -0.5565   23.0484 H   0  0  0  0  0  0  0  0  0  0  0  0
    7.8249   -2.0978   23.0103 C   0  0  0  0  0  0  0  0  0  0  0  0
    7.4700   -2.7510   23.8184 H   0  0  0  0  0  0  0  0  0  0  0  0
    8.6568   -1.4839   23.3767 H   0  0  0  0  0  0  0  0  0  0  0  0
    5.3897    0.7411   20.2439 C   0  0  0  0  0  0  0  0  0  0  0  0
    4.8845    0.7687   21.2134 H   0  0  0  0  0  0  0  0  0  0  0  0
    4.7821    1.3236   19.1205 C   0  0  0  0  0  0  0  0  0  0  0  0
    3.8120    1.8071   19.1760 H   0  0  0  0  0  0  0  0  0  0  0  0
  1  2  1  0
  2  3  2  0
  3  4  1  0
  4  5  1  0
  4  6  2  0
  6  7  1  0
  7  8  1  1
  8  9  1  0
  9 10  2  0
 10 11  1  0
 10 12  1  0
 12 13  1  0
 12 14  2  0
 14 15  1  0
 15 16  1  0
 16 17  1  0
 16 18  1  0
 16 19  1  0
 14 20  1  0
 20 21  1  0
 20 22  2  0
 22 23  1  0
  7 24  1  0
 24 25  1  0
 24 26  1  0
 24 27  1  0
 27 28  1  1
 27 29  1  0
 29 30  1  0
 29 31  1  0
 29 32  1  0
 32 33  1  0
 32 34  1  0
 32 35  1  0
 35 36  1  1
 35 37  1  0
 37 38  1  0
 37 39  1  0
  6 40  1  0
 40 41  1  0
 40 42  2  0
 42 43  1  0
 42  2  1  0
 35  7  1  0
 22  9  1  0
 37 27  1  0
M  END
>  <plip>  (1) 
-0.06896551724137931

>  <filename>  (1) 
[H][c]1[n][c]([H])[c]([C@]2([O][c]3[c]([H])[c]([H])[c]([O][C]([H])([H])[H])[c]([H])[c]3[H])[C]([H])([H])[C@]3([H])[C]([H])([H])[C]([H])([H])[C@@]2([H])[C]3([H])[H])[c]([H])[c]1[H]

$$$$
