
     RDKit          3D

 41 45  0  0  0  0  0  0  0  0999 V2000
    4.9543    1.8181   16.9469 H   0  0  0  0  0  0  0  0  0  0  0  0
    5.4057    1.3157   17.8014 C   0  0  0  0  0  0  0  0  0  0  0  0
    6.5616    0.6754   17.5801 N   0  0  0  0  0  0  0  0  0  0  0  0
    7.1414    0.0661   18.6248 C   0  0  0  0  0  0  0  0  0  0  0  0
    8.0820   -0.4310   18.3805 H   0  0  0  0  0  0  0  0  0  0  0  0
    6.6377    0.0520   19.9440 C   0  0  0  0  0  0  0  0  0  0  0  0
    7.4518   -0.5408   21.1394 C   0  0  2  0  0  0  0  0  0  0  0  0
    8.3004    0.5981   21.7307 C   0  0  0  0  0  0  0  0  0  0  0  0
    9.4502    1.0056   20.9728 C   0  0  0  0  0  0  0  0  0  0  0  0
    9.6687    0.4826   20.0438 H   0  0  0  0  0  0  0  0  0  0  0  0
   10.2871    2.0219   21.3697 C   0  0  0  0  0  0  0  0  0  0  0  0
   11.1614    2.2859   20.7865 H   0  0  0  0  0  0  0  0  0  0  0  0
    9.9565    2.6841   22.5711 C   0  0  0  0  0  0  0  0  0  0  0  0
    8.8222    2.3290   23.3358 C   0  0  0  0  0  0  0  0  0  0  0  0
    8.8567    3.2416   24.4367 C   0  0  0  0  0  0  0  0  0  0  0  0
    8.1527    3.3189   25.2591 H   0  0  0  0  0  0  0  0  0  0  0  0
    9.8882    4.0573   24.3621 N   0  0  0  0  0  0  0  0  0  0  0  0
   10.5508    3.7124   23.2342 N   0  0  0  0  0  0  0  0  0  0  0  0
   11.3542    4.2470   22.9406 H   0  0  0  0  0  0  0  0  0  0  0  0
    7.9818    1.2705   22.9009 C   0  0  0  0  0  0  0  0  0  0  0  0
    7.1024    0.9983   23.4801 H   0  0  0  0  0  0  0  0  0  0  0  0
    8.4023   -1.7418   20.7438 C   0  0  0  0  0  0  0  0  0  0  0  0
    9.4639   -1.5365   20.9313 H   0  0  0  0  0  0  0  0  0  0  0  0
    8.2705   -1.8582   19.6840 H   0  0  0  0  0  0  0  0  0  0  0  0
    7.9835   -2.9588   21.5933 C   0  0  2  0  0  0  0  0  0  0  0  0
    8.7729   -3.7107   21.6833 H   0  0  0  0  0  0  0  0  0  0  0  0
    6.6342   -3.5185   21.1203 C   0  0  0  0  0  0  0  0  0  0  0  0
    6.6347   -3.8187   20.0687 H   0  0  0  0  0  0  0  0  0  0  0  0
    6.3579   -4.3984   21.7138 H   0  0  0  0  0  0  0  0  0  0  0  0
    5.6683   -2.3398   21.4171 C   0  0  0  0  0  0  0  0  0  0  0  0
    4.7853   -2.6528   21.9846 H   0  0  0  0  0  0  0  0  0  0  0  0
    5.3311   -1.9036   20.4740 H   0  0  0  0  0  0  0  0  0  0  0  0
    6.5674   -1.3215   22.1837 C   0  0  1  0  0  0  0  0  0  0  0  0
    6.0314   -0.6565   22.8608 H   0  0  0  0  0  0  0  0  0  0  0  0
    7.5624   -2.2629   22.8939 C   0  0  0  0  0  0  0  0  0  0  0  0
    7.0815   -2.9333   23.6260 H   0  0  0  0  0  0  0  0  0  0  0  0
    8.3896   -1.7391   23.3909 H   0  0  0  0  0  0  0  0  0  0  0  0
    5.4136    0.7192   20.1349 C   0  0  0  0  0  0  0  0  0  0  0  0
    4.9357    0.7355   21.1150 H   0  0  0  0  0  0  0  0  0  0  0  0
    4.7909    1.3529   19.0540 C   0  0  0  0  0  0  0  0  0  0  0  0
    3.8470    1.8733   19.1722 H   0  0  0  0  0  0  0  0  0  0  0  0
  1  2  1  0
  2  3  2  0
  3  4  1  0
  4  5  1  0
  4  6  2  0
  7  6  1  6
  7  8  1  0
  8  9  1  0
  9 10  1  0
  9 11  2  0
 11 12  1  0
 11 13  1  0
 13 14  2  0
 14 15  1  0
 15 16  1  0
 15 17  2  0
 17 18  1  0
 18 19  1  0
 14 20  1  0
 20 21  1  0
  7 22  1  0
 22 23  1  0
 22 24  1  0
 22 25  1  0
 25 26  1  1
 25 27  1  0
 27 28  1  0
 27 29  1  0
 27 30  1  0
 30 31  1  0
 30 32  1  0
 30 33  1  0
 33 34  1  1
 33 35  1  0
 35 36  1  0
 35 37  1  0
  6 38  1  0
 38 39  1  0
 38 40  2  0
 40 41  1  0
 40  2  1  0
 33  7  1  0
 20  8  2  0
 35 25  1  0
 18 13  1  0
M  END
>  <plip>  (1) 
-0.034482758620689655

>  <filename>  (1) 
[H][c]1[n][c]([H])[c]([C@]2([c]3[c]([H])[c]([H])[c]4[c]([c]([H])[n][n]4[H])[c]3[H])[C]([H])([H])[C@]3([H])[C]([H])([H])[C]([H])([H])[C@@]2([H])[C]3([H])[H])[c]([H])[c]1[H]

$$$$
