
     RDKit          3D

 40 41  0  0  0  0  0  0  0  0999 V2000
    5.9705   -2.3447   22.0839 C   0  0  0  0  0  0  0  0  0  0  0  0
    6.9027   -1.1396   22.2475 C   0  0  0  0  0  0  0  0  0  0  0  0
    7.5614   -0.7399   20.9038 C   0  0  0  0  0  0  0  0  0  0  0  0
    8.8414   -0.0350   21.0065 N   0  0  0  0  0  0  0  0  0  0  0  0
    9.0824    1.0460   21.8595 C   0  0  0  0  0  0  0  0  0  0  0  0
    8.1091    2.0174   22.1243 C   0  0  0  0  0  0  0  0  0  0  0  0
    8.3939    3.1476   22.8987 C   0  0  0  0  0  0  0  0  0  0  0  0
    9.6737    3.3322   23.4278 C   0  0  0  0  0  0  0  0  0  0  0  0
   10.0931    4.8150   24.3182 S   0  0  0  0  0  0  0  0  0  0  0  0
   10.6062    5.8400   22.9135 C   0  0  0  0  0  0  0  0  0  0  0  0
   10.8909    6.8107   23.3229 H   0  0  0  0  0  0  0  0  0  0  0  0
    9.7854    5.9800   22.2033 H   0  0  0  0  0  0  0  0  0  0  0  0
   11.4649    5.4025   22.3957 H   0  0  0  0  0  0  0  0  0  0  0  0
   10.6594    2.3533   23.2157 C   0  0  0  0  0  0  0  0  0  0  0  0
   10.3805    1.2250   22.4384 C   0  0  0  0  0  0  0  0  0  0  0  0
   11.2982    0.2460   22.1611 O   0  0  0  0  0  0  0  0  0  0  0  0
   12.6048    0.3387   22.6910 C   0  0  0  0  0  0  0  0  0  0  0  0
   12.5744    0.3793   23.7869 H   0  0  0  0  0  0  0  0  0  0  0  0
   13.1231    1.2250   22.3027 H   0  0  0  0  0  0  0  0  0  0  0  0
   13.1360   -0.5621   22.3721 H   0  0  0  0  0  0  0  0  0  0  0  0
   11.6504    2.4907   23.6325 H   0  0  0  0  0  0  0  0  0  0  0  0
    7.6313    3.9036   23.0671 H   0  0  0  0  0  0  0  0  0  0  0  0
    7.1271    1.8893   21.6816 H   0  0  0  0  0  0  0  0  0  0  0  0
    9.6492   -0.6503   21.0003 H   0  0  0  0  0  0  0  0  0  0  0  0
    6.6579   -0.0211   19.9114 C   0  0  0  0  0  0  0  0  0  0  0  0
    5.4272    0.6115   20.1487 C   0  0  0  0  0  0  0  0  0  0  0  0
    4.7916    1.2820   19.0938 C   0  0  0  0  0  0  0  0  0  0  0  0
    5.4018    1.2851   17.8378 C   0  0  0  0  0  0  0  0  0  0  0  0
    6.5671    0.6704   17.5828 N   0  0  0  0  0  0  0  0  0  0  0  0
    7.1666    0.0546   18.6037 C   0  0  0  0  0  0  0  0  0  0  0  0
    8.1252   -0.4160   18.3835 H   0  0  0  0  0  0  0  0  0  0  0  0
    4.9421    1.8011   16.9989 H   0  0  0  0  0  0  0  0  0  0  0  0
    3.8615    1.8240   19.2327 H   0  0  0  0  0  0  0  0  0  0  0  0
    4.9670    0.6258   21.1394 H   0  0  0  0  0  0  0  0  0  0  0  0
    7.8485   -1.6846   20.4144 H   0  0  0  0  0  0  0  0  0  0  0  0
    6.3682   -0.2931   22.7016 H   0  0  0  0  0  0  0  0  0  0  0  0
    7.7018   -1.3893   22.9537 H   0  0  0  0  0  0  0  0  0  0  0  0
    5.6135   -2.7359   23.0436 H   0  0  0  0  0  0  0  0  0  0  0  0
    6.4705   -3.1675   21.5592 H   0  0  0  0  0  0  0  0  0  0  0  0
    5.0866   -2.0564   21.5093 H   0  0  0  0  0  0  0  0  0  0  0  0
  1  2  1  0
  2  3  1  0
  3  4  1  0
  4  5  1  0
  5  6  2  0
  6  7  1  0
  7  8  2  0
  8  9  1  0
  9 10  1  0
 10 11  1  0
 10 12  1  0
 10 13  1  0
  8 14  1  0
 14 15  2  0
 15 16  1  0
 16 17  1  0
 17 18  1  0
 17 19  1  0
 17 20  1  0
 14 21  1  0
  7 22  1  0
  6 23  1  0
  4 24  1  0
  3 25  1  0
 25 26  2  0
 26 27  1  0
 27 28  2  0
 28 29  1  0
 29 30  2  0
 30 31  1  0
 28 32  1  0
 27 33  1  0
 26 34  1  0
  3 35  1  0
  2 36  1  0
  2 37  1  0
  1 38  1  0
  1 39  1  0
  1 40  1  0
 15  5  1  0
 30 25  1  0
M  END
>  <plip>  (1) 
-0.06666666666666667

>  <filename>  (1) 
[H][c]1[n][c]([H])[c]([C]([H])([N]([H])[c]2[c]([H])[c]([H])[c]([S][C]([H])([H])[H])[c]([H])[c]2[O][C]([H])([H])[H])[C]([H])([H])[C]([H])([H])[H])[c]([H])[c]1[H]

$$$$
