
     RDKit          3D

 31 33  0  0  0  0  0  0  0  0999 V2000
    8.4807    5.3657   22.5489 H   0  0  0  0  0  0  0  0  0  0  0  0
    8.1301    4.3332   22.5660 C   0  0  0  0  0  0  0  0  0  0  0  0
    6.8806    4.1451   22.9684 N   0  0  0  0  0  0  0  0  0  0  0  0
    6.4804    2.8828   22.9218 C   0  0  0  0  0  0  0  0  0  0  0  0
    5.1836    2.6666   23.2337 N   0  0  0  0  0  0  0  0  0  0  0  0
    5.1492    1.7548   23.6590 H   0  0  0  0  0  0  0  0  0  0  0  0
    4.9407    3.4506   23.8175 H   0  0  0  0  0  0  0  0  0  0  0  0
    7.1761    1.7997   22.6313 N   0  0  0  0  0  0  0  0  0  0  0  0
    8.4216    2.0089   22.1611 C   0  0  0  0  0  0  0  0  0  0  0  0
    9.2275    0.8476   21.6144 C   0  0  0  0  0  0  0  0  0  0  0  0
   10.5467    0.8634   21.5091 N   0  0  0  0  0  0  0  0  0  0  0  0
   10.9101   -0.3666   21.0552 C   0  0  0  0  0  0  0  0  0  0  0  0
   11.9492   -0.6203   20.8997 H   0  0  0  0  0  0  0  0  0  0  0  0
    9.8026   -1.1339   20.8466 C   0  0  0  0  0  0  0  0  0  0  0  0
    9.6975   -2.1438   20.4819 H   0  0  0  0  0  0  0  0  0  0  0  0
    8.7197   -0.3607   21.1816 N   0  0  0  0  0  0  0  0  0  0  0  0
    7.3213   -0.7600   20.9864 C   0  0  0  0  0  0  0  0  0  0  0  0
    7.3206   -1.8457   20.8250 H   0  0  0  0  0  0  0  0  0  0  0  0
    6.7870   -0.5880   21.9248 H   0  0  0  0  0  0  0  0  0  0  0  0
    6.6094   -0.0262   19.8583 C   0  0  0  0  0  0  0  0  0  0  0  0
    7.1442    0.0449   18.5585 C   0  0  0  0  0  0  0  0  0  0  0  0
    8.1023   -0.4198   18.3264 H   0  0  0  0  0  0  0  0  0  0  0  0
    6.5566    0.6794   17.5357 N   0  0  0  0  0  0  0  0  0  0  0  0
    5.3950    1.3031   17.7775 C   0  0  0  0  0  0  0  0  0  0  0  0
    4.9471    1.8318   16.9370 H   0  0  0  0  0  0  0  0  0  0  0  0
    4.7719    1.3039   19.0267 C   0  0  0  0  0  0  0  0  0  0  0  0
    3.8403    1.8408   19.1628 H   0  0  0  0  0  0  0  0  0  0  0  0
    5.3941    0.6359   20.0845 C   0  0  0  0  0  0  0  0  0  0  0  0
    4.9745    0.6771   21.0926 H   0  0  0  0  0  0  0  0  0  0  0  0
    8.9717    3.2962   22.1787 C   0  0  0  0  0  0  0  0  0  0  0  0
   10.0005    3.4730   21.9049 H   0  0  0  0  0  0  0  0  0  0  0  0
  1  2  1  0
  2  3  2  0
  3  4  1  0
  4  5  1  0
  5  6  1  0
  5  7  1  0
  4  8  2  0
  8  9  1  0
  9 10  1  0
 10 11  2  0
 11 12  1  0
 12 13  1  0
 12 14  2  0
 14 15  1  0
 14 16  1  0
 16 17  1  0
 17 18  1  0
 17 19  1  0
 17 20  1  0
 20 21  2  0
 21 22  1  0
 21 23  1  0
 23 24  2  0
 24 25  1  0
 24 26  1  0
 26 27  1  0
 26 28  2  0
 28 29  1  0
  9 30  2  0
 30 31  1  0
 30  2  1  0
 16 10  1  0
 28 20  1  0
M  END
>  <plip>  (1) 
-0.17857142857142858

>  <filename>  (1) 
[H][c]1[n][c]([N]([H])[H])[n][c](-[c]2[n][c]([H])[c]([H])[n]2[C]([H])([H])[c]2[c]([H])[n][c]([H])[c]([H])[c]2[H])[c]1[H]

$$$$
