
     RDKit          3D

 17 17  0  0  0  0  0  0  0  0999 V2000
    7.1891    2.9870   22.9973 H   0  0  0  0  0  0  0  0  0  0  0  0
    7.7319    2.1184   23.0285 N   0  0  0  0  0  0  0  0  0  0  0  0
    7.2419    1.3447   22.1651 N   0  0  0  0  0  4  0  0  0  0  0  0
    7.6444    0.1691   21.9167 N   0  0  0  0  0  0  0  0  0  0  0  0
    7.0620   -0.6166   20.9943 N   0  0  0  0  0  0  0  0  0  0  0  0
    7.9147   -1.6476   20.6417 O   0  0  0  0  0  0  0  0  0  0  0  0
    7.5298   -2.4284   21.0557 H   0  0  0  0  0  0  0  0  0  0  0  0
    6.4104   -0.0411   19.8410 C   0  0  0  0  0  0  0  0  0  0  0  0
    7.0989   -0.0124   18.6203 C   0  0  0  0  0  0  0  0  0  0  0  0
    8.0239   -0.5718   18.5048 H   0  0  0  0  0  0  0  0  0  0  0  0
    6.6440    0.6372   17.5514 N   0  0  0  0  0  0  0  0  0  0  0  0
    5.4714    1.2801   17.6551 C   0  0  0  0  0  0  0  0  0  0  0  0
    5.1463    1.8184   16.7672 H   0  0  0  0  0  0  0  0  0  0  0  0
    4.6929    1.2691   18.8181 C   0  0  0  0  0  0  0  0  0  0  0  0
    3.7689    1.8341   18.8459 H   0  0  0  0  0  0  0  0  0  0  0  0
    5.1559    0.5777   19.9407 C   0  0  0  0  0  0  0  0  0  0  0  0
    4.5830    0.5843   20.8744 H   0  0  0  0  0  0  0  0  0  0  0  0
  1  2  1  0
  2  3  2  0
  3  4  2  0
  4  5  1  0
  5  6  1  0
  6  7  1  0
  5  8  1  0
  8  9  2  0
  9 10  1  0
  9 11  1  0
 11 12  2  0
 12 13  1  0
 12 14  1  0
 14 15  1  0
 14 16  2  0
 16 17  1  0
 16  8  1  0
M  CHG  1   3   1
M  END
>  <plip>  (1) 
-0.0

>  <filename>  (1) 
[H][N]=[N+]=[N][N]([O][H])[c]1[c]([H])[n][c]([H])[c]([H])[c]1[H]

$$$$
