
     RDKit          3D

 34 36  0  0  0  0  0  0  0  0999 V2000
    4.9732    1.7714   16.9511 H   0  0  0  0  0  0  0  0  0  0  0  0
    5.4120    1.3105   17.8336 C   0  0  0  0  0  0  0  0  0  0  0  0
    6.5824    0.6823   17.6478 N   0  0  0  0  0  0  0  0  0  0  0  0
    7.1395    0.1043   18.7219 C   0  0  0  0  0  0  0  0  0  0  0  0
    8.0904   -0.4017   18.5388 H   0  0  0  0  0  0  0  0  0  0  0  0
    6.5893    0.1014   20.0178 C   0  0  0  0  0  0  0  0  0  0  0  0
    7.3137   -0.6065   21.1690 C   0  0  1  0  0  0  0  0  0  0  0  0
    6.6938   -0.5100   22.0744 H   0  0  0  0  0  0  0  0  0  0  0  0
    7.5117   -2.0824   20.8380 C   0  0  0  0  0  0  0  0  0  0  0  0
    8.1830   -2.0298   19.9817 H   0  0  0  0  0  0  0  0  0  0  0  0
    6.5704   -2.5355   20.5178 H   0  0  0  0  0  0  0  0  0  0  0  0
    8.2256   -2.8970   21.9188 C   0  0  0  0  0  0  0  0  0  0  0  0
    7.6469   -2.9153   22.8569 H   0  0  0  0  0  0  0  0  0  0  0  0
    8.3113   -3.9363   21.5812 H   0  0  0  0  0  0  0  0  0  0  0  0
    9.6180   -2.3050   22.1703 C   0  0  0  0  0  0  0  0  0  0  0  0
   10.1398   -2.8562   22.9615 H   0  0  0  0  0  0  0  0  0  0  0  0
   10.2294   -2.4246   21.2638 H   0  0  0  0  0  0  0  0  0  0  0  0
    9.5314   -0.8134   22.5253 C   0  0  0  0  0  0  0  0  0  0  0  0
   10.5413   -0.3932   22.6289 H   0  0  0  0  0  0  0  0  0  0  0  0
    9.0551   -0.7137   23.5110 H   0  0  0  0  0  0  0  0  0  0  0  0
    8.7298   -0.0022   21.4673 C   0  0  2  0  0  0  0  0  0  0  0  0
    9.3134   -0.0181   20.5355 H   0  0  0  0  0  0  0  0  0  0  0  0
    8.5479    1.4373   21.8242 C   0  0  0  0  0  0  0  0  0  0  0  0
    8.8184    2.4819   21.0812 N   0  0  0  0  0  0  0  0  0  0  0  0
    8.3359    3.5628   21.7851 C   0  0  0  0  0  0  0  0  0  0  0  0
    8.3828    4.5574   21.3616 H   0  0  0  0  0  0  0  0  0  0  0  0
    7.7688    3.1745   22.9642 C   0  0  0  0  0  0  0  0  0  0  0  0
    7.2755    3.7248   23.7598 H   0  0  0  0  0  0  0  0  0  0  0  0
    7.9115    1.8023   22.9730 N   0  0  0  0  0  0  0  0  0  0  0  0
    7.5016    1.1423   23.6073 H   0  0  0  0  0  0  0  0  0  0  0  0
    5.3628    0.7696   20.1807 C   0  0  0  0  0  0  0  0  0  0  0  0
    4.8806    0.8095   21.1607 H   0  0  0  0  0  0  0  0  0  0  0  0
    4.7626    1.3741   19.0702 C   0  0  0  0  0  0  0  0  0  0  0  0
    3.8105    1.8907   19.1467 H   0  0  0  0  0  0  0  0  0  0  0  0
  1  2  1  0
  2  3  2  0
  3  4  1  0
  4  5  1  0
  4  6  2  0
  6  7  1  0
  7  8  1  1
  7  9  1  0
  9 10  1  0
  9 11  1  0
  9 12  1  0
 12 13  1  0
 12 14  1  0
 12 15  1  0
 15 16  1  0
 15 17  1  0
 15 18  1  0
 18 19  1  0
 18 20  1  0
 18 21  1  0
 21 22  1  6
 21 23  1  0
 23 24  2  0
 24 25  1  0
 25 26  1  0
 25 27  2  0
 27 28  1  0
 27 29  1  0
 29 30  1  0
  6 31  1  0
 31 32  1  0
 31 33  2  0
 33 34  1  0
 33  2  1  0
 21  7  1  0
 29 23  1  0
M  END
>  <plip>  (1) 
-0.07142857142857142

>  <filename>  (1) 
[H][c]1[n][c]([H])[c]([C@@]2([H])[C]([H])([H])[C]([H])([H])[C]([H])([H])[C]([H])([H])[C@]2([H])[c]2[n][c]([H])[c]([H])[n]2[H])[c]([H])[c]1[H]

$$$$
