
     RDKit          3D

 25 27  0  0  0  0  0  0  0  0999 V2000
    5.2230    1.7851   17.1935 H   0  0  0  0  0  0  0  0  0  0  0  0
    5.5857    1.2826   18.0899 C   0  0  0  0  0  0  0  0  0  0  0  0
    6.7799    0.6798   17.9827 N   0  0  0  0  0  0  0  0  0  0  0  0
    7.2508    0.0394   19.0597 C   0  0  0  0  0  0  0  0  0  0  0  0
    8.2256   -0.4432   18.9697 H   0  0  0  0  0  0  0  0  0  0  0  0
    6.5454   -0.0803   20.2761 C   0  0  0  0  0  0  0  0  0  0  0  0
    7.0256   -0.9773   21.2950 N   0  0  0  0  0  0  0  0  0  0  0  0
    7.2325   -2.3243   21.0909 C   0  0  0  0  0  0  0  0  0  0  0  0
    7.0361   -2.7860   20.1353 H   0  0  0  0  0  0  0  0  0  0  0  0
    7.6407   -2.9160   22.1722 N   0  0  0  0  0  0  0  0  0  0  0  0
    7.7100   -1.9539   23.1543 N   0  0  0  0  0  0  0  0  0  0  0  0
    7.3360   -0.8147   22.6338 C   0  0  0  0  0  0  0  0  0  0  0  0
    7.3588    0.5038   23.3406 C   0  0  0  0  0  0  0  0  0  0  0  0
    6.3609    0.9591   23.3494 H   0  0  0  0  0  0  0  0  0  0  0  0
    7.6882    0.3363   24.3685 H   0  0  0  0  0  0  0  0  0  0  0  0
    8.3478    1.3832   22.6484 C   0  0  0  0  0  0  0  0  0  0  0  0
    9.6743    1.3835   22.9153 N   0  0  0  0  0  0  0  0  0  0  0  0
   10.2235    2.2032   22.0691 N   0  0  0  0  0  0  0  0  0  0  0  0
    9.2395    2.6585   21.3275 N   0  0  0  0  0  0  0  0  0  0  0  0
    9.4137    3.2944   20.5606 H   0  0  0  0  0  0  0  0  0  0  0  0
    8.0449    2.1819   21.6394 N   0  0  0  0  0  0  0  0  0  0  0  0
    5.3358    0.6104   20.3942 C   0  0  0  0  0  0  0  0  0  0  0  0
    4.7880    0.6028   21.3369 H   0  0  0  0  0  0  0  0  0  0  0  0
    4.8408    1.2906   19.2728 C   0  0  0  0  0  0  0  0  0  0  0  0
    3.8990    1.8277   19.3048 H   0  0  0  0  0  0  0  0  0  0  0  0
  1  2  1  0
  2  3  2  0
  3  4  1  0
  4  5  1  0
  4  6  2  0
  6  7  1  0
  7  8  1  0
  8  9  1  0
  8 10  2  0
 10 11  1  0
 11 12  2  0
 12 13  1  0
 13 14  1  0
 13 15  1  0
 13 16  1  0
 16 17  1  0
 17 18  2  0
 18 19  1  0
 19 20  1  0
 19 21  1  0
  6 22  1  0
 22 23  1  0
 22 24  2  0
 24 25  1  0
 24  2  1  0
 12  7  1  0
 21 16  2  0
M  END
>  <plip>  (1) 
-0.06896551724137931

>  <filename>  (1) 
[H][c]1[n][c]([H])[c](-[n]2[c]([H])[n][n][c]2[C]([H])([H])[c]2[n][n][n]([H])[n]2)[c]([H])[c]1[H]

$$$$
