
     RDKit          3D

 26 27  0  0  0  0  0  0  0  0999 V2000
    5.8802   -6.5240   18.8291 H   0  0  0  0  0  0  0  0  0  0  0  0
    5.9594   -5.8158   19.6453 C   0  0  0  0  0  0  0  0  0  0  0  0
    6.2190   -6.1922   20.9233 N   0  0  0  0  0  0  0  0  0  0  0  0
    6.2119   -5.0451   21.5691 C   0  0  0  0  0  0  0  0  0  0  0  0
    6.3670   -4.9299   22.6386 H   0  0  0  0  0  0  0  0  0  0  0  0
    5.9616   -4.0260   20.7165 N   0  0  0  0  0  0  0  0  0  0  0  0
    5.9155   -2.5817   20.9433 C   0  0  0  0  0  0  0  0  0  0  0  0
    5.4765   -2.1513   20.0397 H   0  0  0  0  0  0  0  0  0  0  0  0
    5.2465   -2.3601   21.7826 H   0  0  0  0  0  0  0  0  0  0  0  0
    7.2941   -1.9352   21.1519 C   0  0  0  0  0  0  0  0  0  0  0  0
    7.7915   -2.3394   22.0361 H   0  0  0  0  0  0  0  0  0  0  0  0
    7.9339   -2.1601   20.2965 H   0  0  0  0  0  0  0  0  0  0  0  0
    7.2256   -0.4077   21.2753 C   0  0  1  0  0  0  0  0  0  0  0  0
    6.7441   -0.1146   22.2171 H   0  0  0  0  0  0  0  0  0  0  0  0
    8.9183    0.2117   21.3848 Cl  0  0  0  0  0  0  0  0  0  0  0  0
    6.5460    0.2356   20.0947 C   0  0  0  0  0  0  0  0  0  0  0  0
    7.1305    0.1532   18.8223 C   0  0  0  0  0  0  0  0  0  0  0  0
    8.0808   -0.3692   18.6998 H   0  0  0  0  0  0  0  0  0  0  0  0
    6.6022    0.6762   17.7113 N   0  0  0  0  0  0  0  0  0  0  0  0
    5.4179    1.2980   17.8264 C   0  0  0  0  0  0  0  0  0  0  0  0
    4.9960    1.7159   16.9132 H   0  0  0  0  0  0  0  0  0  0  0  0
    4.7246    1.4029   19.0346 C   0  0  0  0  0  0  0  0  0  0  0  0
    3.7567    1.8924   19.0572 H   0  0  0  0  0  0  0  0  0  0  0  0
    5.3023    0.8708   20.1906 C   0  0  0  0  0  0  0  0  0  0  0  0
    4.7939    0.9384   21.1522 H   0  0  0  0  0  0  0  0  0  0  0  0
    5.7933   -4.5213   19.4690 N   0  0  0  0  0  0  0  0  0  0  0  0
  1  2  1  0
  2  3  1  0
  3  4  2  0
  4  5  1  0
  4  6  1  0
  6  7  1  0
  7  8  1  0
  7  9  1  0
  7 10  1  0
 10 11  1  0
 10 12  1  0
 10 13  1  0
 13 14  1  1
 13 15  1  0
 13 16  1  0
 16 17  2  0
 17 18  1  0
 17 19  1  0
 19 20  2  0
 20 21  1  0
 20 22  1  0
 22 23  1  0
 22 24  2  0
 24 25  1  0
  6 26  1  0
 26  2  2  0
 24 16  1  0
M  END
>  <plip>  (1) 
-0.10714285714285714

>  <filename>  (1) 
[H][c]1[n][c]([H])[n]([C]([H])([H])[C]([H])([H])[C@@]([H])([Cl])[c]2[c]([H])[n][c]([H])[c]([H])[c]2[H])[n]1

$$$$
