
     RDKit          3D

 44 45  0  0  0  0  0  0  0  0999 V2000
    8.9112   -1.0802   20.7193 C   0  0  0  0  0  0  0  0  0  0  0  0
    7.4833   -0.6087   21.0745 C   0  0  0  0  0  0  0  0  0  0  0  0
    6.6482   -1.8352   21.4973 C   0  0  0  0  0  0  0  0  0  0  0  0
    5.6183   -1.5434   21.7177 H   0  0  0  0  0  0  0  0  0  0  0  0
    7.0710   -2.3024   22.3941 H   0  0  0  0  0  0  0  0  0  0  0  0
    6.6140   -2.5872   20.7022 H   0  0  0  0  0  0  0  0  0  0  0  0
    7.6016    0.3420   22.3012 C   0  0  0  0  0  0  0  0  0  0  0  0
    8.4596    1.4790   21.9855 N   0  0  0  0  0  0  0  0  0  0  0  0
    8.7603    2.4072   22.9629 C   0  0  0  0  0  0  0  0  0  0  0  0
    8.5175    2.2705   24.1476 O   0  0  0  0  0  0  0  0  0  0  0  0
    9.3859    3.4898   22.4130 N   0  0  0  0  0  0  0  0  0  0  0  0
    9.7916    4.6493   23.1861 C   0  0  0  0  0  0  0  0  0  0  0  0
   11.0160    4.3499   24.0665 C   0  0  0  0  0  0  0  0  0  0  0  0
   11.4024    5.4852   24.9097 N   0  0  0  0  0  0  0  0  0  0  0  0
   12.4621    6.2118   24.4595 N   0  0  0  0  0  0  0  0  0  0  0  0
   12.9340    7.1517   25.2225 C   0  0  0  0  0  0  0  0  0  0  0  0
   12.3868    7.4514   26.5277 C   0  0  0  0  0  0  0  0  0  0  0  0
   11.2737    6.7831   26.9256 C   0  0  0  0  0  0  0  0  0  0  0  0
   10.6650    5.7499   26.0828 C   0  0  0  0  0  0  0  0  0  0  0  0
    9.6401    5.1469   26.3721 O   0  0  0  0  0  0  0  0  0  0  0  0
   10.7320    6.9404   27.8503 H   0  0  0  0  0  0  0  0  0  0  0  0
   12.8698    8.1983   27.1502 H   0  0  0  0  0  0  0  0  0  0  0  0
   13.7695    7.7012   24.8081 H   0  0  0  0  0  0  0  0  0  0  0  0
   10.7722    3.4954   24.7025 H   0  0  0  0  0  0  0  0  0  0  0  0
   11.8665    4.0792   23.4349 H   0  0  0  0  0  0  0  0  0  0  0  0
    8.9717    4.9701   23.8368 H   0  0  0  0  0  0  0  0  0  0  0  0
   10.0298    5.4678   22.4979 H   0  0  0  0  0  0  0  0  0  0  0  0
    9.6161    3.4290   21.4368 H   0  0  0  0  0  0  0  0  0  0  0  0
    8.2155    1.9241   21.1166 H   0  0  0  0  0  0  0  0  0  0  0  0
    6.6040    0.6721   22.6312 H   0  0  0  0  0  0  0  0  0  0  0  0
    8.0265   -0.2133   23.1484 H   0  0  0  0  0  0  0  0  0  0  0  0
    6.7572    0.0896   19.9036 C   0  0  0  0  0  0  0  0  0  0  0  0
    5.5162    0.7267   20.1109 C   0  0  0  0  0  0  0  0  0  0  0  0
    4.8626    1.3365   19.0402 C   0  0  0  0  0  0  0  0  0  0  0  0
    5.4618    1.2888   17.7783 C   0  0  0  0  0  0  0  0  0  0  0  0
    6.6256    0.6740   17.5418 N   0  0  0  0  0  0  0  0  0  0  0  0
    7.2413    0.0918   18.5837 C   0  0  0  0  0  0  0  0  0  0  0  0
    8.1756   -0.4127   18.3424 H   0  0  0  0  0  0  0  0  0  0  0  0
    4.9848    1.7577   16.9215 H   0  0  0  0  0  0  0  0  0  0  0  0
    3.9112    1.8395   19.1704 H   0  0  0  0  0  0  0  0  0  0  0  0
    5.0608    0.7395   21.1032 H   0  0  0  0  0  0  0  0  0  0  0  0
    8.9145   -1.7770   19.8826 H   0  0  0  0  0  0  0  0  0  0  0  0
    9.3523   -1.5974   21.5787 H   0  0  0  0  0  0  0  0  0  0  0  0
    9.5734   -0.2427   20.4770 H   0  0  0  0  0  0  0  0  0  0  0  0
  1  2  1  0
  2  3  1  0
  3  4  1  0
  3  5  1  0
  3  6  1  0
  2  7  1  0
  7  8  1  0
  8  9  1  0
  9 10  2  0
  9 11  1  0
 11 12  1  0
 12 13  1  0
 13 14  1  0
 14 15  1  0
 15 16  2  0
 16 17  1  0
 17 18  2  0
 18 19  1  0
 19 20  2  0
 18 21  1  0
 17 22  1  0
 16 23  1  0
 13 24  1  0
 13 25  1  0
 12 26  1  0
 12 27  1  0
 11 28  1  0
  8 29  1  0
  7 30  1  0
  7 31  1  0
  2 32  1  0
 32 33  2  0
 33 34  1  0
 34 35  2  0
 35 36  1  0
 36 37  2  0
 37 38  1  0
 35 39  1  0
 34 40  1  0
 33 41  1  0
  1 42  1  0
  1 43  1  0
  1 44  1  0
 19 14  1  0
 37 32  1  0
M  END
>  <plip>  (1) 
-0.1724137931034483

>  <filename>  (1) 
[H][c]1[n][c]([H])[c]([C]([C]([H])([H])[H])([C]([H])([H])[H])[C]([H])([H])[N]([H])[C](=[O])[N]([H])[C]([H])([H])[C]([H])([H])[n]2[n][c]([H])[c]([H])[c]([H])[c]2=[O])[c]([H])[c]1[H]

$$$$
