
     RDKit          3D

 32 33  0  0  0  0  0  0  0  0999 V2000
    4.9377    1.7835   16.9526 H   0  0  0  0  0  0  0  0  0  0  0  0
    5.3994    1.3057   17.8128 C   0  0  0  0  0  0  0  0  0  0  0  0
    6.5662    0.6871   17.5865 N   0  0  0  0  0  0  0  0  0  0  0  0
    7.1571    0.0979   18.6362 C   0  0  0  0  0  0  0  0  0  0  0  0
    8.1013   -0.3962   18.4222 H   0  0  0  0  0  0  0  0  0  0  0  0
    6.6315    0.0767   19.9460 C   0  0  0  0  0  0  0  0  0  0  0  0
    7.3613   -0.7459   21.0152 C   0  0  0  0  0  0  0  0  0  0  0  0
    8.8100   -0.7282   20.7252 N   0  0  0  0  0  0  0  0  0  0  0  0
    9.2482   -1.5889   21.0272 H   0  0  0  0  0  0  0  0  0  0  0  0
    9.6002    0.3543   21.1031 C   0  0  0  0  0  0  0  0  0  0  0  0
    9.0522    1.6494   21.1550 C   0  0  0  0  0  0  0  0  0  0  0  0
    8.0275    1.8069   20.8418 H   0  0  0  0  0  0  0  0  0  0  0  0
    9.7670    2.7048   21.6970 C   0  0  0  0  0  0  0  0  0  0  0  0
    9.2703    3.6636   21.8057 H   0  0  0  0  0  0  0  0  0  0  0  0
   11.0939    2.5399   22.0858 C   0  0  0  0  0  0  0  0  0  0  0  0
   11.6901    3.3652   22.4629 H   0  0  0  0  0  0  0  0  0  0  0  0
   11.6780    1.2706   21.9914 C   0  0  0  0  0  0  0  0  0  0  0  0
   13.3009    1.0818   22.5692 Cl  0  0  0  0  0  0  0  0  0  0  0  0
   10.9493    0.1771   21.4986 C   0  0  0  0  0  0  0  0  0  0  0  0
   11.6850   -1.4001   21.4156 Cl  0  0  0  0  0  0  0  0  0  0  0  0
    6.8975   -2.2052   20.9029 C   0  0  0  0  0  0  0  0  0  0  0  0
    6.8577   -2.5312   19.8586 H   0  0  0  0  0  0  0  0  0  0  0  0
    5.8990   -2.3329   21.3335 H   0  0  0  0  0  0  0  0  0  0  0  0
    7.5754   -2.8675   21.4499 H   0  0  0  0  0  0  0  0  0  0  0  0
    7.1039   -0.2821   22.4690 C   0  0  0  0  0  0  0  0  0  0  0  0
    7.2515    0.7888   22.6196 H   0  0  0  0  0  0  0  0  0  0  0  0
    6.0876   -0.5148   22.7802 H   0  0  0  0  0  0  0  0  0  0  0  0
    7.7909   -0.8107   23.1407 H   0  0  0  0  0  0  0  0  0  0  0  0
    5.4026    0.7199   20.1492 C   0  0  0  0  0  0  0  0  0  0  0  0
    4.9310    0.7446   21.1327 H   0  0  0  0  0  0  0  0  0  0  0  0
    4.7795    1.3452   19.0647 C   0  0  0  0  0  0  0  0  0  0  0  0
    3.8346    1.8662   19.1787 H   0  0  0  0  0  0  0  0  0  0  0  0
  1  2  1  0
  2  3  2  0
  3  4  1  0
  4  5  1  0
  4  6  2  0
  6  7  1  0
  7  8  1  0
  8  9  1  0
  8 10  1  0
 10 11  2  0
 11 12  1  0
 11 13  1  0
 13 14  1  0
 13 15  2  0
 15 16  1  0
 15 17  1  0
 17 18  1  0
 17 19  2  0
 19 20  1  0
  7 21  1  0
 21 22  1  0
 21 23  1  0
 21 24  1  0
  7 25  1  0
 25 26  1  0
 25 27  1  0
 25 28  1  0
  6 29  1  0
 29 30  1  0
 29 31  2  0
 31 32  1  0
 31  2  1  0
 19 10  1  0
M  END
>  <plip>  (1) 
-0.06896551724137931

>  <filename>  (1) 
[H][c]1[n][c]([H])[c]([C]([N]([H])[c]2[c]([H])[c]([H])[c]([H])[c]([Cl])[c]2[Cl])([C]([H])([H])[H])[C]([H])([H])[H])[c]([H])[c]1[H]

$$$$
