
     RDKit          3D

 32 33  0  0  0  0  0  0  0  0999 V2000
    8.7789    0.6616   20.5991 H   0  0  0  0  0  0  0  0  0  0  0  0
    9.2338   -0.1703   20.3790 O   0  0  0  0  0  0  0  0  0  0  0  0
    8.1150   -0.9168   20.8060 C   0  0  2  0  0  0  0  0  0  0  0  0
    7.8991   -1.7230   20.0854 H   0  0  0  0  0  0  0  0  0  0  0  0
    7.0631    0.0796   20.8493 N   0  0  0  0  0  0  0  0  0  0  0  0
    6.3916   -0.2811   21.5115 H   0  0  0  0  0  0  0  0  0  0  0  0
    6.4309    0.5261   19.6620 C   0  0  0  0  0  0  0  0  0  0  0  0
    7.0183    0.5172   18.3675 C   0  0  0  0  0  0  0  0  0  0  0  0
    8.0269    0.1270   18.2394 H   0  0  0  0  0  0  0  0  0  0  0  0
    6.4083    0.9736   17.2657 N   0  0  0  0  0  0  0  0  0  0  0  0
    5.1789    1.4965   17.4063 C   0  0  0  0  0  0  0  0  0  0  0  0
    4.7546    1.9000   16.4964 H   0  0  0  0  0  0  0  0  0  0  0  0
    4.5027    1.5396   18.6318 C   0  0  0  0  0  0  0  0  0  0  0  0
    3.5047    1.9630   18.6901 H   0  0  0  0  0  0  0  0  0  0  0  0
    5.1357    1.0528   19.7763 C   0  0  0  0  0  0  0  0  0  0  0  0
    4.6718    1.0930   20.7610 H   0  0  0  0  0  0  0  0  0  0  0  0
    8.2198   -1.4499   22.1238 N   0  0  0  0  0  0  0  0  0  0  0  0
    9.2115   -2.5322   22.2311 C   0  0  0  0  0  0  0  0  0  0  0  0
    8.9814   -3.0931   23.1527 H   0  0  0  0  0  0  0  0  0  0  0  0
    9.0786   -3.2440   21.4054 H   0  0  0  0  0  0  0  0  0  0  0  0
   10.6717   -2.0268   22.2716 C   0  0  0  0  0  0  0  0  0  0  0  0
   11.3577   -2.8713   22.4073 H   0  0  0  0  0  0  0  0  0  0  0  0
   10.8933   -1.5799   21.2951 H   0  0  0  0  0  0  0  0  0  0  0  0
   10.8640   -0.9789   23.3810 C   0  0  0  0  0  0  0  0  0  0  0  0
   11.8691   -0.5449   23.3268 H   0  0  0  0  0  0  0  0  0  0  0  0
   10.7943   -1.4593   24.3681 H   0  0  0  0  0  0  0  0  0  0  0  0
    9.8008    0.1239   23.2968 C   0  0  0  0  0  0  0  0  0  0  0  0
    9.9819    0.7412   22.4093 H   0  0  0  0  0  0  0  0  0  0  0  0
    9.8411    0.7801   24.1728 H   0  0  0  0  0  0  0  0  0  0  0  0
    8.3884   -0.4801   23.2229 C   0  0  0  0  0  0  0  0  0  0  0  0
    7.6414    0.3129   23.1279 H   0  0  0  0  0  0  0  0  0  0  0  0
    8.1678   -1.0211   24.1579 H   0  0  0  0  0  0  0  0  0  0  0  0
  1  2  1  0
  2  3  1  0
  3  4  1  6
  3  5  1  0
  5  6  1  0
  5  7  1  0
  7  8  2  0
  8  9  1  0
  8 10  1  0
 10 11  2  0
 11 12  1  0
 11 13  1  0
 13 14  1  0
 13 15  2  0
 15 16  1  0
  3 17  1  0
 17 18  1  0
 18 19  1  0
 18 20  1  0
 18 21  1  0
 21 22  1  0
 21 23  1  0
 21 24  1  0
 24 25  1  0
 24 26  1  0
 24 27  1  0
 27 28  1  0
 27 29  1  0
 27 30  1  0
 30 31  1  0
 30 32  1  0
 15  7  1  0
 30 17  1  0
M  END
>  <plip>  (1) 
-0.07142857142857142

>  <filename>  (1) 
[H][O][C@]([H])([N]([H])[c]1[c]([H])[n][c]([H])[c]([H])[c]1[H])[N]1[C]([H])([H])[C]([H])([H])[C]([H])([H])[C]([H])([H])[C]1([H])[H]

$$$$
