
     RDKit          3D

 33 35  0  0  0  0  0  0  0  0999 V2000
    9.9054   -2.5284   22.7051 C   0  0  0  0  0  0  0  0  0  0  0  0
   10.1390   -1.7806   21.3925 C   0  0  0  0  0  0  0  0  0  0  0  0
   11.4589   -0.9548   21.3779 C   0  0  0  0  0  0  0  0  0  0  0  0
   10.9867    0.4617   21.6133 C   0  0  0  0  0  0  0  0  0  0  0  0
   11.7075    1.6146   21.8983 C   0  0  0  0  0  0  0  0  0  0  0  0
   11.0095    2.7960   22.1810 C   0  0  0  0  0  0  0  0  0  0  0  0
    9.6030    2.8202   22.1872 C   0  0  0  0  0  0  0  0  0  0  0  0
    8.8773    1.6606   21.8961 C   0  0  0  0  0  0  0  0  0  0  0  0
    9.5891    0.5086   21.5706 C   0  0  0  0  0  0  0  0  0  0  0  0
    9.1092   -0.7391   21.1578 N   0  0  0  0  0  0  0  0  0  0  0  0
    7.5106   -1.1402   21.2735 S   0  0  0  0  0  0  0  0  0  0  0  0
    7.4227   -2.5145   20.8097 O   0  0  0  0  0  0  0  0  0  0  0  0
    6.9822   -0.7442   22.5649 O   0  0  0  0  0  0  0  0  0  0  0  0
    6.7772   -0.1298   20.0703 C   0  0  0  0  0  0  0  0  0  0  0  0
    5.5841    0.5627   20.2902 C   0  0  0  0  0  0  0  0  0  0  0  0
    5.0328    1.2098   19.1904 C   0  0  0  0  0  0  0  0  0  0  0  0
    5.6909    1.1334   17.9581 C   0  0  0  0  0  0  0  0  0  0  0  0
    6.8354    0.4582   17.7763 N   0  0  0  0  0  0  0  0  0  0  0  0
    7.3752   -0.1652   18.8212 C   0  0  0  0  0  0  0  0  0  0  0  0
    8.3095   -0.6946   18.6368 H   0  0  0  0  0  0  0  0  0  0  0  0
    5.2750    1.6252   17.0799 H   0  0  0  0  0  0  0  0  0  0  0  0
    4.1151    1.7772   19.2763 H   0  0  0  0  0  0  0  0  0  0  0  0
    5.1066    0.5910   21.2734 H   0  0  0  0  0  0  0  0  0  0  0  0
    7.7959    1.6179   21.9486 H   0  0  0  0  0  0  0  0  0  0  0  0
    9.0693    3.7420   22.4135 H   0  0  0  0  0  0  0  0  0  0  0  0
   11.5620    3.7023   22.4036 H   0  0  0  0  0  0  0  0  0  0  0  0
   12.7951    1.5780   21.9151 H   0  0  0  0  0  0  0  0  0  0  0  0
   12.1599   -1.2748   22.1615 H   0  0  0  0  0  0  0  0  0  0  0  0
   11.9831   -1.0555   20.4214 H   0  0  0  0  0  0  0  0  0  0  0  0
   10.0741   -2.4947   20.5633 H   0  0  0  0  0  0  0  0  0  0  0  0
    8.9941   -3.1292   22.6276 H   0  0  0  0  0  0  0  0  0  0  0  0
   10.7515   -3.1986   22.8975 H   0  0  0  0  0  0  0  0  0  0  0  0
    9.7985   -1.8277   23.5441 H   0  0  0  0  0  0  0  0  0  0  0  0
  1  2  1  0
  2  3  1  0
  3  4  1  0
  4  5  2  0
  5  6  1  0
  6  7  2  0
  7  8  1  0
  8  9  2  0
  9 10  1  0
 10 11  1  0
 11 12  2  0
 11 13  2  0
 11 14  1  0
 14 15  2  0
 15 16  1  0
 16 17  2  0
 17 18  1  0
 18 19  2  0
 19 20  1  0
 17 21  1  0
 16 22  1  0
 15 23  1  0
  8 24  1  0
  7 25  1  0
  6 26  1  0
  5 27  1  0
  3 28  1  0
  3 29  1  0
  2 30  1  0
  1 31  1  0
  1 32  1  0
  1 33  1  0
 10  2  1  0
 19 14  1  0
  9  4  1  0
M  END
>  <plip>  (1) 
-0.06896551724137931

>  <filename>  (1) 
[H][c]1[n][c]([H])[c]([S](=[O])(=[O])[N]2[c]3[c]([H])[c]([H])[c]([H])[c]([H])[c]3[C]([H])([H])[C]2([H])[C]([H])([H])[H])[c]([H])[c]1[H]

$$$$
