
     RDKit          3D

 42 44  0  0  0  0  0  0  0  0999 V2000
    8.3691   -2.3214   22.9691 C   0  0  0  0  0  0  0  0  0  0  0  0
    7.8885   -1.7294   21.6342 C   0  0  0  0  0  0  0  0  0  0  0  0
    6.6121   -2.4780   21.2149 C   0  0  0  0  0  0  0  0  0  0  0  0
    5.8037   -2.2699   21.9248 H   0  0  0  0  0  0  0  0  0  0  0  0
    6.7851   -3.5593   21.1888 H   0  0  0  0  0  0  0  0  0  0  0  0
    6.2914   -2.1548   20.2185 H   0  0  0  0  0  0  0  0  0  0  0  0
    7.5703   -0.2202   21.7351 C   0  0  0  0  0  0  0  0  0  0  0  0
    8.7342    0.5778   22.1211 N   0  0  0  0  0  4  0  0  0  0  0  0
    8.3313    1.9401   22.5613 C   0  0  0  0  0  0  0  0  0  0  0  0
    9.4804    2.9074   22.6535 C   0  0  0  0  0  0  0  0  0  0  0  0
   10.7731    2.6787   22.2576 C   0  0  0  0  0  0  0  0  0  0  0  0
   11.4266    1.0778   21.4558 Br  0  0  0  0  0  0  0  0  0  0  0  0
   11.4643    3.8284   22.5576 N   0  0  0  0  0  0  0  0  0  0  0  0
   12.8260    4.1201   22.4062 C   0  0  0  0  0  0  0  0  0  0  0  0
   13.2874    5.3522   22.8454 C   0  0  0  0  0  0  0  0  0  0  0  0
   12.3443    6.3297   23.4176 C   0  0  0  0  0  0  0  0  0  0  0  0
   10.9982    6.0327   23.5045 C   0  0  0  0  0  0  0  0  0  0  0  0
   10.5391    4.7104   23.1008 C   0  0  0  0  0  0  0  0  0  0  0  0
    9.3344    4.1892   23.1795 N   0  0  0  0  0  0  0  0  0  0  0  0
   10.2857    6.7622   23.8725 H   0  0  0  0  0  0  0  0  0  0  0  0
   12.6949    7.3097   23.7261 H   0  0  0  0  0  0  0  0  0  0  0  0
   14.3334    5.6204   22.7525 H   0  0  0  0  0  0  0  0  0  0  0  0
   13.4968    3.3861   21.9674 H   0  0  0  0  0  0  0  0  0  0  0  0
    7.8580    1.8928   23.5461 H   0  0  0  0  0  0  0  0  0  0  0  0
    7.5869    2.3677   21.8784 H   0  0  0  0  0  0  0  0  0  0  0  0
    9.2270    0.1023   22.8807 H   0  0  0  0  0  0  0  0  0  0  0  0
    9.3580    0.6523   21.3182 H   0  0  0  0  0  0  0  0  0  0  0  0
    7.1259    0.3263   20.4092 C   0  0  0  0  0  0  0  0  0  0  0  0
    5.9687    1.1054   20.3350 C   0  0  0  0  0  0  0  0  0  0  0  0
    5.5482    1.5261   19.0775 C   0  0  0  0  0  0  0  0  0  0  0  0
    6.2745    1.1663   17.9429 C   0  0  0  0  0  0  0  0  0  0  0  0
    7.4086    0.4431   18.0161 N   0  0  0  0  0  0  0  0  0  0  0  0
    7.8240    0.0366   19.2295 C   0  0  0  0  0  0  0  0  0  0  0  0
    8.7250   -0.5707   19.2804 H   0  0  0  0  0  0  0  0  0  0  0  0
    5.9118    1.4933   16.9721 H   0  0  0  0  0  0  0  0  0  0  0  0
    4.6548    2.1320   18.9712 H   0  0  0  0  0  0  0  0  0  0  0  0
    5.4057    1.3632   21.2292 H   0  0  0  0  0  0  0  0  0  0  0  0
    6.7677   -0.0862   22.4733 H   0  0  0  0  0  0  0  0  0  0  0  0
    8.6693   -1.8887   20.8820 H   0  0  0  0  0  0  0  0  0  0  0  0
    8.4236   -3.4143   22.9012 H   0  0  0  0  0  0  0  0  0  0  0  0
    7.6784   -2.0580   23.7767 H   0  0  0  0  0  0  0  0  0  0  0  0
    9.3661   -1.9471   23.2226 H   0  0  0  0  0  0  0  0  0  0  0  0
  1  2  1  0
  2  3  1  0
  3  4  1  0
  3  5  1  0
  3  6  1  0
  2  7  1  0
  7  8  1  0
  8  9  1  0
  9 10  1  0
 10 11  2  0
 11 12  1  0
 11 13  1  0
 13 14  1  0
 14 15  2  0
 15 16  1  0
 16 17  2  0
 17 18  1  0
 18 19  2  0
 17 20  1  0
 16 21  1  0
 15 22  1  0
 14 23  1  0
  9 24  1  0
  9 25  1  0
  8 26  1  0
  8 27  1  0
  7 28  1  0
 28 29  2  0
 29 30  1  0
 30 31  2  0
 31 32  1  0
 32 33  2  0
 33 34  1  0
 31 35  1  0
 30 36  1  0
 29 37  1  0
  7 38  1  0
  2 39  1  0
  1 40  1  0
  1 41  1  0
  1 42  1  0
 19 10  1  0
 33 28  1  0
 18 13  1  0
M  CHG  1   8   1
M  END
>  <plip>  (1) 
-0.06896551724137931

>  <filename>  (1) 
[H][c]1[n][c]([H])[c]([C]([H])([C]([H])([C]([H])([H])[H])[C]([H])([H])[H])[N+]([H])([H])[C]([H])([H])[c]2[n][c]3[c]([H])[c]([H])[c]([H])[c]([H])[n]3[c]2[Br])[c]([H])[c]1[H]

$$$$
