
     RDKit          3D

 29 30  0  0  0  0  0  0  0  0999 V2000
    4.9158    1.7800   16.9976 H   0  0  0  0  0  0  0  0  0  0  0  0
    5.4036    1.2929   17.8414 C   0  0  0  0  0  0  0  0  0  0  0  0
    6.5717    0.6783   17.5847 N   0  0  0  0  0  0  0  0  0  0  0  0
    7.1794    0.0503   18.5943 C   0  0  0  0  0  0  0  0  0  0  0  0
    8.1271   -0.4397   18.3806 H   0  0  0  0  0  0  0  0  0  0  0  0
    6.6514    0.0144   19.8992 C   0  0  0  0  0  0  0  0  0  0  0  0
    7.3481   -0.6509   20.9510 N   0  0  0  0  0  0  0  0  0  0  0  0
    7.9174   -1.8615   20.7509 N   0  0  0  0  0  0  0  0  0  0  0  0
    8.4180   -2.2234   21.8713 N   0  0  0  0  0  0  0  0  0  0  0  0
    8.2145   -1.3016   22.8336 N   0  0  0  0  0  0  0  0  0  0  0  0
    7.5573   -0.3299   22.2566 C   0  0  0  0  0  0  0  0  0  0  0  0
    7.1902    0.8708   22.8339 N   0  0  0  0  0  0  0  0  0  0  0  0
    6.9800    1.6300   22.2165 H   0  0  0  0  0  0  0  0  0  0  0  0
    7.2138    1.0828   24.2026 C   0  0  0  0  0  0  0  0  0  0  0  0
    7.4024    0.1619   24.9603 O   0  0  0  0  0  0  0  0  0  0  0  0
    6.9370    2.5088   24.7200 C   0  0  0  0  0  0  0  0  0  0  0  0
    7.0077    3.2210   23.8885 H   0  0  0  0  0  0  0  0  0  0  0  0
    5.5123    2.5766   25.3060 C   0  0  0  0  0  0  0  0  0  0  0  0
    5.2889    3.5829   25.6770 H   0  0  0  0  0  0  0  0  0  0  0  0
    5.3994    1.8829   26.1485 H   0  0  0  0  0  0  0  0  0  0  0  0
    4.7606    2.3190   24.5541 H   0  0  0  0  0  0  0  0  0  0  0  0
    7.9737    2.9073   25.7892 C   0  0  0  0  0  0  0  0  0  0  0  0
    8.9962    2.8603   25.4029 H   0  0  0  0  0  0  0  0  0  0  0  0
    7.7958    3.9287   26.1427 H   0  0  0  0  0  0  0  0  0  0  0  0
    7.9213    2.2410   26.6588 H   0  0  0  0  0  0  0  0  0  0  0  0
    5.4384    0.6508   20.1658 C   0  0  0  0  0  0  0  0  0  0  0  0
    4.9990    0.6194   21.1655 H   0  0  0  0  0  0  0  0  0  0  0  0
    4.8058    1.3068   19.1064 C   0  0  0  0  0  0  0  0  0  0  0  0
    3.8750    1.8412   19.2634 H   0  0  0  0  0  0  0  0  0  0  0  0
  1  2  1  0
  2  3  2  0
  3  4  1  0
  4  5  1  0
  4  6  2  0
  6  7  1  0
  7  8  1  0
  8  9  2  0
  9 10  1  0
 10 11  2  0
 11 12  1  0
 12 13  1  0
 12 14  1  0
 14 15  2  0
 14 16  1  0
 16 17  1  0
 16 18  1  0
 18 19  1  0
 18 20  1  0
 18 21  1  0
 16 22  1  0
 22 23  1  0
 22 24  1  0
 22 25  1  0
  6 26  1  0
 26 27  1  0
 26 28  2  0
 28 29  1  0
 28  2  1  0
 11  7  1  0
M  END
>  <plip>  (1) 
-0.0

>  <filename>  (1) 
[H][c]1[n][c]([H])[c](-[n]2[n][n][n][c]2[N]([H])[C](=[O])[C]([H])([C]([H])([H])[H])[C]([H])([H])[H])[c]([H])[c]1[H]

$$$$
