
     RDKit          3D

 23 24  0  0  0  0  0  0  0  0999 V2000
    9.2669   -1.3717   26.5184 H   0  0  0  0  0  0  0  0  0  0  0  0
    9.2334   -1.3331   25.4337 C   0  0  0  0  0  0  0  0  0  0  0  0
   10.0776   -1.8004   24.5190 C   0  0  0  0  0  0  0  0  0  0  0  0
   10.9763   -2.3873   24.6239 H   0  0  0  0  0  0  0  0  0  0  0  0
    9.5731   -1.4492   23.1593 C   0  0  0  0  0  0  0  0  0  0  0  0
   10.1056   -1.5794   22.0983 O   0  0  0  0  0  0  0  0  0  0  0  0
    8.3166   -0.8735   23.3593 N   0  0  0  0  0  0  0  0  0  0  0  0
    7.6003   -0.1610   22.3894 C   0  0  0  0  0  0  0  0  0  0  0  0
    7.1351    0.9092   22.6899 O   0  0  0  0  0  0  0  0  0  0  0  0
    7.4081   -0.7922   20.9157 C   0  0  0  0  0  0  0  0  0  0  0  0
    7.8170   -1.8900   20.6161 O   0  0  0  0  0  0  0  0  0  0  0  0
    6.6575    0.0113   19.8990 C   0  0  0  0  0  0  0  0  0  0  0  0
    7.1691    0.0428   18.5900 C   0  0  0  0  0  0  0  0  0  0  0  0
    8.1120   -0.4477   18.3488 H   0  0  0  0  0  0  0  0  0  0  0  0
    6.5642    0.6723   17.5818 N   0  0  0  0  0  0  0  0  0  0  0  0
    5.4026    1.2908   17.8435 C   0  0  0  0  0  0  0  0  0  0  0  0
    4.9316    1.7907   16.9974 H   0  0  0  0  0  0  0  0  0  0  0  0
    4.8091    1.3096   19.1081 C   0  0  0  0  0  0  0  0  0  0  0  0
    3.8768    1.8394   19.2462 H   0  0  0  0  0  0  0  0  0  0  0  0
    5.4472    0.6634   20.1645 C   0  0  0  0  0  0  0  0  0  0  0  0
    5.0192    0.6661   21.1653 H   0  0  0  0  0  0  0  0  0  0  0  0
    8.0673   -0.7161   24.7357 C   0  0  0  0  0  0  0  0  0  0  0  0
    7.0854   -0.2378   25.2184 O   0  0  0  0  0  0  0  0  0  0  0  0
  1  2  1  0
  2  3  2  0
  3  4  1  0
  3  5  1  0
  5  6  2  0
  5  7  1  0
  7  8  1  0
  8  9  2  0
  8 10  1  0
 10 11  2  0
 10 12  1  0
 12 13  2  0
 13 14  1  0
 13 15  1  0
 15 16  2  0
 16 17  1  0
 16 18  1  0
 18 19  1  0
 18 20  2  0
 20 21  1  0
  7 22  1  0
 22 23  2  0
 22  2  1  0
 20 12  1  0
M  END
>  <plip>  (1) 
-0.03571428571428571

>  <filename>  (1) 
[H][C]1=[C]([H])[C](=[O])[N]([C](=[O])[C](=[O])[c]2[c]([H])[n][c]([H])[c]([H])[c]2[H])[C]1=[O]

$$$$
