
     RDKit          3D

 45 46  0  0  0  0  0  0  0  0999 V2000
    5.3178   -0.1391   30.4943 C   0  0  0  0  0  0  0  0  0  0  0  0
    4.9522   -0.6195   29.1045 C   0  0  0  0  0  0  0  0  0  0  0  0
    3.8499   -1.0886   28.8952 O   0  0  0  0  0  0  0  0  0  0  0  0
    5.9597   -0.4968   27.9871 C   0  0  0  0  0  0  0  0  0  0  0  0
    7.2496    0.0456   28.1646 C   0  0  0  0  0  0  0  0  0  0  0  0
    8.1514    0.1146   27.1031 C   0  0  0  0  0  0  0  0  0  0  0  0
    7.7854   -0.3616   25.8424 C   0  0  0  0  0  0  0  0  0  0  0  0
    8.7062   -0.3094   24.7775 N   0  0  0  0  0  0  0  0  0  0  0  0
    8.7584   -1.2088   23.7410 C   0  0  0  0  0  0  0  0  0  0  0  0
    8.2554   -2.3177   23.7966 O   0  0  0  0  0  0  0  0  0  0  0  0
    9.4764   -0.7637   22.4110 C   0  0  0  0  0  0  0  0  0  0  0  0
   10.8547   -0.1236   22.5466 C   0  0  0  0  0  0  0  0  0  0  0  0
   11.2914    0.0165   21.5504 H   0  0  0  0  0  0  0  0  0  0  0  0
   10.8365    0.8541   23.0362 H   0  0  0  0  0  0  0  0  0  0  0  0
   11.5186   -0.7801   23.1148 H   0  0  0  0  0  0  0  0  0  0  0  0
    8.5722    0.0957   21.4530 N   0  0  0  0  0  4  0  0  0  0  0  0
    8.0916    1.3768   22.1322 C   0  0  0  0  0  0  0  0  0  0  0  0
    7.3685    1.1209   22.9144 H   0  0  0  0  0  0  0  0  0  0  0  0
    8.9177    1.9141   22.6040 H   0  0  0  0  0  0  0  0  0  0  0  0
    7.6064    2.0499   21.4197 H   0  0  0  0  0  0  0  0  0  0  0  0
    7.3875   -0.7257   20.9699 C   0  0  0  0  0  0  0  0  0  0  0  0
    6.6448   -0.0008   19.8917 C   0  0  0  0  0  0  0  0  0  0  0  0
    5.4324    0.6513   20.1436 C   0  0  0  0  0  0  0  0  0  0  0  0
    4.8001    1.3162   19.0931 C   0  0  0  0  0  0  0  0  0  0  0  0
    5.4023    1.3024   17.8313 C   0  0  0  0  0  0  0  0  0  0  0  0
    6.5725    0.6948   17.5826 N   0  0  0  0  0  0  0  0  0  0  0  0
    7.1771    0.0750   18.6015 C   0  0  0  0  0  0  0  0  0  0  0  0
    8.1328   -0.4027   18.3739 H   0  0  0  0  0  0  0  0  0  0  0  0
    4.9307    1.7960   16.9809 H   0  0  0  0  0  0  0  0  0  0  0  0
    3.8677    1.8510   19.2347 H   0  0  0  0  0  0  0  0  0  0  0  0
    5.0126    0.6514   21.1516 H   0  0  0  0  0  0  0  0  0  0  0  0
    7.7641   -1.6950   20.6220 H   0  0  0  0  0  0  0  0  0  0  0  0
    6.7388   -0.9329   21.8237 H   0  0  0  0  0  0  0  0  0  0  0  0
    9.0804    0.3556   20.5748 H   0  0  0  0  0  0  0  0  0  0  0  0
    9.5670   -1.7360   21.9261 H   0  0  0  0  0  0  0  0  0  0  0  0
    9.3766    0.4391   24.7935 H   0  0  0  0  0  0  0  0  0  0  0  0
    6.4959   -0.8701   25.6384 C   0  0  0  0  0  0  0  0  0  0  0  0
    5.5991   -0.9388   26.6953 C   0  0  0  0  0  0  0  0  0  0  0  0
    4.6053   -1.3557   26.5343 H   0  0  0  0  0  0  0  0  0  0  0  0
    6.2185   -1.2192   24.6500 H   0  0  0  0  0  0  0  0  0  0  0  0
    9.1521    0.5068   27.2556 H   0  0  0  0  0  0  0  0  0  0  0  0
    7.5748    0.4080   29.1398 H   0  0  0  0  0  0  0  0  0  0  0  0
    6.1912   -0.6682   30.8777 H   0  0  0  0  0  0  0  0  0  0  0  0
    4.4684   -0.3157   31.1556 H   0  0  0  0  0  0  0  0  0  0  0  0
    5.5711    0.9245   30.4864 H   0  0  0  0  0  0  0  0  0  0  0  0
  1  2  1  0
  2  3  2  0
  2  4  1  0
  4  5  2  0
  5  6  1  0
  6  7  2  0
  7  8  1  0
  8  9  1  0
  9 10  2  0
  9 11  1  0
 11 12  1  0
 12 13  1  0
 12 14  1  0
 12 15  1  0
 11 16  1  0
 16 17  1  0
 17 18  1  0
 17 19  1  0
 17 20  1  0
 16 21  1  0
 21 22  1  0
 22 23  2  0
 23 24  1  0
 24 25  2  0
 25 26  1  0
 26 27  2  0
 27 28  1  0
 25 29  1  0
 24 30  1  0
 23 31  1  0
 21 32  1  0
 21 33  1  0
 16 34  1  0
 11 35  1  0
  8 36  1  0
  7 37  1  0
 37 38  2  0
 38 39  1  0
 37 40  1  0
  6 41  1  0
  5 42  1  0
  1 43  1  0
  1 44  1  0
  1 45  1  0
 38  4  1  0
 27 22  1  0
M  CHG  1  16   1
M  END
>  <plip>  (1) 
-0.07142857142857142

>  <filename>  (1) 
[H][c]1[n][c]([H])[c]([C]([H])([H])[N+]([H])([C]([H])([H])[H])[C]([H])([C](=[O])[N]([H])[c]2[c]([H])[c]([H])[c]([C](=[O])[C]([H])([H])[H])[c]([H])[c]2[H])[C]([H])([H])[H])[c]([H])[c]1[H]

$$$$
