
     RDKit          3D

 49 51  0  0  0  0  0  0  0  0999 V2000
    5.6173   -4.7617   21.8522 C   0  0  0  0  0  0  0  0  0  0  0  0
    6.2843   -3.9087   22.9417 C   0  0  0  0  0  0  0  0  0  0  0  0
    7.2879   -2.9229   22.2297 C   0  0  0  0  0  0  0  0  0  0  0  0
    8.4958   -3.0731   22.1964 O   0  0  0  0  0  0  0  0  0  0  0  0
    6.6870   -1.8911   21.5495 N   0  0  0  0  0  0  0  0  0  0  0  0
    7.4373   -0.7625   21.0034 C   0  0  0  0  0  0  0  0  0  0  0  0
    7.8820    0.1941   22.1354 C   0  0  0  0  0  0  0  0  0  0  0  0
    8.8095    1.3349   21.6982 C   0  0  0  0  0  0  0  0  0  0  0  0
    9.2332    2.2040   22.8803 C   0  0  0  0  0  0  0  0  0  0  0  0
   10.1408    3.2165   22.4978 O   0  0  0  0  0  0  0  0  0  0  0  0
   10.8203    2.8073   21.9482 H   0  0  0  0  0  0  0  0  0  0  0  0
    8.3631    2.7234   23.3031 H   0  0  0  0  0  0  0  0  0  0  0  0
    9.6583    1.5750   23.6844 H   0  0  0  0  0  0  0  0  0  0  0  0
    8.3307    1.9672   20.9376 H   0  0  0  0  0  0  0  0  0  0  0  0
    9.7121    0.9160   21.2245 H   0  0  0  0  0  0  0  0  0  0  0  0
    6.9884    0.6064   22.6290 H   0  0  0  0  0  0  0  0  0  0  0  0
    8.3971   -0.4228   22.8833 H   0  0  0  0  0  0  0  0  0  0  0  0
    6.6344   -0.0718   19.9146 C   0  0  0  0  0  0  0  0  0  0  0  0
    5.4244    0.6063   20.1464 C   0  0  0  0  0  0  0  0  0  0  0  0
    4.8215    1.2899   19.0840 C   0  0  0  0  0  0  0  0  0  0  0  0
    5.4385    1.2801   17.8280 C   0  0  0  0  0  0  0  0  0  0  0  0
    6.5774    0.6195   17.5752 N   0  0  0  0  0  0  0  0  0  0  0  0
    7.1384   -0.0310   18.6031 C   0  0  0  0  0  0  0  0  0  0  0  0
    8.0641   -0.5571   18.3693 H   0  0  0  0  0  0  0  0  0  0  0  0
    4.9910    1.8030   16.9828 H   0  0  0  0  0  0  0  0  0  0  0  0
    3.8892    1.8299   19.2097 H   0  0  0  0  0  0  0  0  0  0  0  0
    4.9619    0.6171   21.1389 H   0  0  0  0  0  0  0  0  0  0  0  0
    8.3443   -1.1741   20.5421 H   0  0  0  0  0  0  0  0  0  0  0  0
    5.6983   -1.7405   21.6565 H   0  0  0  0  0  0  0  0  0  0  0  0
    5.3074   -3.2136   23.9209 C   0  0  0  0  0  0  0  0  0  0  0  0
    5.5678   -3.9501   25.2072 C   0  0  0  0  0  0  0  0  0  0  0  0
    6.5477   -4.7711   25.1011 N   0  0  0  0  0  0  0  0  0  0  0  0
    7.0138   -4.8068   23.8047 O   0  0  0  0  0  0  0  0  0  0  0  0
    4.8770   -3.6993   26.5002 C   0  0  0  0  0  0  0  0  0  0  0  0
    5.5975   -3.3152   27.6522 C   0  0  0  0  0  0  0  0  0  0  0  0
    4.9359   -2.9401   28.8263 C   0  0  0  0  0  0  0  0  0  0  0  0
    3.5382   -2.9765   28.8856 C   0  0  0  0  0  0  0  0  0  0  0  0
    2.8035   -3.3995   27.7803 C   0  0  0  0  0  0  0  0  0  0  0  0
    3.4699   -3.7620   26.6066 C   0  0  0  0  0  0  0  0  0  0  0  0
    2.4858   -4.3327   25.2830 Cl  0  0  0  0  0  0  0  0  0  0  0  0
    1.7186   -3.4488   27.8198 H   0  0  0  0  0  0  0  0  0  0  0  0
    3.0178   -2.6853   29.7971 H   0  0  0  0  0  0  0  0  0  0  0  0
    5.4910   -2.6121   29.7034 H   0  0  0  0  0  0  0  0  0  0  0  0
    6.6876   -3.3085   27.6142 H   0  0  0  0  0  0  0  0  0  0  0  0
    4.2601   -3.2582   23.6192 H   0  0  0  0  0  0  0  0  0  0  0  0
    5.5537   -2.1559   24.0868 H   0  0  0  0  0  0  0  0  0  0  0  0
    6.3971   -5.2759   21.2825 H   0  0  0  0  0  0  0  0  0  0  0  0
    5.0445   -4.1179   21.1774 H   0  0  0  0  0  0  0  0  0  0  0  0
    4.9541   -5.5194   22.2821 H   0  0  0  0  0  0  0  0  0  0  0  0
  1  2  1  0
  2  3  1  0
  3  4  2  0
  3  5  1  0
  5  6  1  0
  6  7  1  0
  7  8  1  0
  8  9  1  0
  9 10  1  0
 10 11  1  0
  9 12  1  0
  9 13  1  0
  8 14  1  0
  8 15  1  0
  7 16  1  0
  7 17  1  0
  6 18  1  0
 18 19  2  0
 19 20  1  0
 20 21  2  0
 21 22  1  0
 22 23  2  0
 23 24  1  0
 21 25  1  0
 20 26  1  0
 19 27  1  0
  6 28  1  0
  5 29  1  0
  2 30  1  0
 30 31  1  0
 31 32  2  0
 32 33  1  0
 31 34  1  0
 34 35  2  0
 35 36  1  0
 36 37  2  0
 37 38  1  0
 38 39  2  0
 39 40  1  0
 38 41  1  0
 37 42  1  0
 36 43  1  0
 35 44  1  0
 30 45  1  0
 30 46  1  0
  1 47  1  0
  1 48  1  0
  1 49  1  0
 33  2  1  0
 39 34  1  0
 23 18  1  0
M  END
>  <plip>  (1) 
-0.1

>  <filename>  (1) 
[H][O][C]([H])([H])[C]([H])([H])[C]([H])([H])[C]([H])([c]1[c]([H])[n][c]([H])[c]([H])[c]1[H])[N]([H])[C](=[O])[C]1([C]([H])([H])[H])[O][N]=[C]([c]2[c]([H])[c]([H])[c]([H])[c]([H])[c]2[Cl])[C]1([H])[H]

$$$$
