
     RDKit          3D

 32 34  0  0  0  0  0  0  0  0999 V2000
    4.9532    1.7890   16.9842 H   0  0  0  0  0  0  0  0  0  0  0  0
    5.4378    1.3088   17.8379 C   0  0  0  0  0  0  0  0  0  0  0  0
    6.6127    0.6986   17.6176 N   0  0  0  0  0  0  0  0  0  0  0  0
    7.2138    0.0938   18.6523 C   0  0  0  0  0  0  0  0  0  0  0  0
    8.1685   -0.3836   18.4417 H   0  0  0  0  0  0  0  0  0  0  0  0
    6.6836    0.0656   19.9613 C   0  0  0  0  0  0  0  0  0  0  0  0
    7.3448   -0.5835   21.0588 N   0  0  0  0  0  0  0  0  0  0  0  0
    7.8576   -1.8593   21.1133 C   0  0  0  0  0  0  0  0  0  0  0  0
    7.7443   -2.5456   20.2937 H   0  0  0  0  0  0  0  0  0  0  0  0
    8.3177   -2.1559   22.2886 N   0  0  0  0  0  0  0  0  0  0  0  0
    8.0660   -1.0719   23.1019 N   0  0  0  0  0  0  0  0  0  0  0  0
    7.4506   -0.1681   22.3817 C   0  0  0  0  0  0  0  0  0  0  0  0
    6.8833    1.0047   22.8419 N   0  0  0  0  0  0  0  0  0  0  0  0
    7.3978    2.2726   22.2838 C   0  0  0  0  0  0  0  0  0  0  0  0
    6.5711    2.9943   22.2057 H   0  0  0  0  0  0  0  0  0  0  0  0
    7.7645    2.1152   21.2614 H   0  0  0  0  0  0  0  0  0  0  0  0
    8.5217    2.8513   23.1553 C   0  0  0  0  0  0  0  0  0  0  0  0
    9.3917    2.1833   23.0821 H   0  0  0  0  0  0  0  0  0  0  0  0
    8.8330    3.8215   22.7544 H   0  0  0  0  0  0  0  0  0  0  0  0
    8.0799    2.9783   24.6205 C   0  0  0  0  0  0  0  0  0  0  0  0
    8.8911    3.3849   25.2383 H   0  0  0  0  0  0  0  0  0  0  0  0
    7.2369    3.6907   24.6930 H   0  0  0  0  0  0  0  0  0  0  0  0
    7.6426    1.6008   25.1396 C   0  0  0  0  0  0  0  0  0  0  0  0
    7.3186    1.6691   26.1836 H   0  0  0  0  0  0  0  0  0  0  0  0
    8.4754    0.8828   25.1028 H   0  0  0  0  0  0  0  0  0  0  0  0
    6.5112    1.0345   24.2709 C   0  0  0  0  0  0  0  0  0  0  0  0
    5.6033    1.6482   24.3857 H   0  0  0  0  0  0  0  0  0  0  0  0
    6.2553    0.0162   24.5934 H   0  0  0  0  0  0  0  0  0  0  0  0
    5.4581    0.7054   20.1776 C   0  0  0  0  0  0  0  0  0  0  0  0
    5.0380    0.7209   21.1812 H   0  0  0  0  0  0  0  0  0  0  0  0
    4.8275    1.3239   19.0956 C   0  0  0  0  0  0  0  0  0  0  0  0
    3.8696    1.8105   19.2234 H   0  0  0  0  0  0  0  0  0  0  0  0
  1  2  1  0
  2  3  2  0
  3  4  1  0
  4  5  1  0
  4  6  2  0
  6  7  1  0
  7  8  1  0
  8  9  1  0
  8 10  2  0
 10 11  1  0
 11 12  2  0
 12 13  1  0
 13 14  1  0
 14 15  1  0
 14 16  1  0
 14 17  1  0
 17 18  1  0
 17 19  1  0
 17 20  1  0
 20 21  1  0
 20 22  1  0
 20 23  1  0
 23 24  1  0
 23 25  1  0
 23 26  1  0
 26 27  1  0
 26 28  1  0
  6 29  1  0
 29 30  1  0
 29 31  2  0
 31 32  1  0
 31  2  1  0
 12  7  1  0
 26 13  1  0
M  END
>  <plip>  (1) 
-0.034482758620689655

>  <filename>  (1) 
[H][c]1[n][c]([H])[c](-[n]2[c]([H])[n][n][c]2[N]2[C]([H])([H])[C]([H])([H])[C]([H])([H])[C]([H])([H])[C]2([H])[H])[c]([H])[c]1[H]

$$$$
