
     RDKit          3D

 25 26  0  0  0  0  0  0  0  0999 V2000
   10.1224    3.8966   22.0125 H   0  0  0  0  0  0  0  0  0  0  0  0
    9.8167    2.9894   21.8957 O   0  0  0  0  0  0  0  0  0  0  0  0
    8.7305    2.7947   22.7046 C   0  0  0  0  0  0  0  0  0  0  0  0
    8.3094    3.7364   23.6464 C   0  0  0  0  0  0  0  0  0  0  0  0
    8.8366    4.6848   23.7386 H   0  0  0  0  0  0  0  0  0  0  0  0
    7.2184    3.4627   24.4844 C   0  0  0  0  0  0  0  0  0  0  0  0
    6.8938    4.1908   25.2247 H   0  0  0  0  0  0  0  0  0  0  0  0
    6.5421    2.2519   24.3732 C   0  0  0  0  0  0  0  0  0  0  0  0
    5.6986    2.0165   25.0144 H   0  0  0  0  0  0  0  0  0  0  0  0
    6.9504    1.3109   23.4274 C   0  0  0  0  0  0  0  0  0  0  0  0
    6.4431    0.3577   23.3397 H   0  0  0  0  0  0  0  0  0  0  0  0
    8.0429    1.5501   22.5857 C   0  0  0  0  0  0  0  0  0  0  0  0
    8.4870    0.5660   21.6873 N   0  0  0  0  0  0  0  0  0  0  0  0
    9.2984    0.7914   21.1324 H   0  0  0  0  0  0  0  0  0  0  0  0
    7.5999   -0.7680   21.1828 S   0  0  0  0  0  0  0  0  0  0  0  0
    6.6368   -0.0061   19.8932 C   0  0  0  0  0  0  0  0  0  0  0  0
    7.1678    0.0514   18.5964 C   0  0  0  0  0  0  0  0  0  0  0  0
    8.1196   -0.4280   18.3770 H   0  0  0  0  0  0  0  0  0  0  0  0
    6.5642    0.6763   17.5780 N   0  0  0  0  0  0  0  0  0  0  0  0
    5.3980    1.2934   17.8365 C   0  0  0  0  0  0  0  0  0  0  0  0
    4.9227    1.7845   16.9915 H   0  0  0  0  0  0  0  0  0  0  0  0
    4.7975    1.3085   19.1018 C   0  0  0  0  0  0  0  0  0  0  0  0
    3.8701    1.8474   19.2551 H   0  0  0  0  0  0  0  0  0  0  0  0
    5.4233    0.6364   20.1550 C   0  0  0  0  0  0  0  0  0  0  0  0
    5.0007    0.6320   21.1608 H   0  0  0  0  0  0  0  0  0  0  0  0
  1  2  1  0
  2  3  1  0
  3  4  2  0
  4  5  1  0
  4  6  1  0
  6  7  1  0
  6  8  2  0
  8  9  1  0
  8 10  1  0
 10 11  1  0
 10 12  2  0
 12 13  1  0
 13 14  1  0
 13 15  1  0
 15 16  1  0
 16 17  2  0
 17 18  1  0
 17 19  1  0
 19 20  2  0
 20 21  1  0
 20 22  1  0
 22 23  1  0
 22 24  2  0
 24 25  1  0
 12  3  1  0
 24 16  1  0
M  END
>  <plip>  (1) 
-0.07142857142857142

>  <filename>  (1) 
[H][O][c]1[c]([H])[c]([H])[c]([H])[c]([H])[c]1[N]([H])[S][c]1[c]([H])[n][c]([H])[c]([H])[c]1[H]

$$$$
