
     RDKit          3D

 33 33  0  0  0  0  0  0  0  0999 V2000
    4.9211    1.7966   16.9836 H   0  0  0  0  0  0  0  0  0  0  0  0
    5.3900    1.2976   17.8288 C   0  0  0  0  0  0  0  0  0  0  0  0
    6.5540    0.6807   17.5611 N   0  0  0  0  0  0  0  0  0  0  0  0
    7.1509    0.0434   18.5744 C   0  0  0  0  0  0  0  0  0  0  0  0
    8.1136   -0.4211   18.3768 H   0  0  0  0  0  0  0  0  0  0  0  0
    6.6201   -0.0317   19.8743 C   0  0  0  0  0  0  0  0  0  0  0  0
    7.6095   -0.8138   21.1219 S   0  0  0  0  0  0  0  0  0  0  0  0
    8.8072    0.7836   21.6727 S   0  0  0  0  0  0  0  0  0  0  0  0
    7.7764    1.4444   23.0155 C   0  0  0  0  0  0  0  0  0  0  0  0
    6.7311    1.4686   22.6980 H   0  0  0  0  0  0  0  0  0  0  0  0
    8.0862    2.4789   23.1799 H   0  0  0  0  0  0  0  0  0  0  0  0
    7.9613    0.6077   24.2729 C   0  0  0  0  0  0  0  0  0  0  0  0
    7.7248   -0.4525   24.0566 H   0  0  0  0  0  0  0  0  0  0  0  0
    9.0275    0.6403   24.5185 H   0  0  0  0  0  0  0  0  0  0  0  0
    7.1920    1.1316   25.3908 N   0  0  0  0  0  0  0  0  0  0  0  0
    5.7438    0.9021   25.2488 C   0  0  0  0  0  0  0  0  0  0  0  0
    5.3654    0.3011   26.0881 H   0  0  0  0  0  0  0  0  0  0  0  0
    5.5361    0.2957   24.3530 H   0  0  0  0  0  0  0  0  0  0  0  0
    4.9661    2.2098   25.1616 C   0  0  0  0  0  0  0  0  0  0  0  0
    5.1296    2.8144   26.0589 H   0  0  0  0  0  0  0  0  0  0  0  0
    3.8931    2.0188   25.0574 H   0  0  0  0  0  0  0  0  0  0  0  0
    5.2990    2.8013   24.3022 H   0  0  0  0  0  0  0  0  0  0  0  0
    7.7307    0.6854   26.6771 C   0  0  0  0  0  0  0  0  0  0  0  0
    8.8238    0.7337   26.6184 H   0  0  0  0  0  0  0  0  0  0  0  0
    7.4758   -0.3755   26.8824 H   0  0  0  0  0  0  0  0  0  0  0  0
    7.2621    1.5609   27.8287 C   0  0  0  0  0  0  0  0  0  0  0  0
    7.4965    2.6114   27.6290 H   0  0  0  0  0  0  0  0  0  0  0  0
    6.1824    1.4791   27.9881 H   0  0  0  0  0  0  0  0  0  0  0  0
    7.7614    1.2660   28.7569 H   0  0  0  0  0  0  0  0  0  0  0  0
    5.4147    0.6196   20.1456 C   0  0  0  0  0  0  0  0  0  0  0  0
    5.0056    0.6182   21.1612 H   0  0  0  0  0  0  0  0  0  0  0  0
    4.7937    1.3023   19.0951 C   0  0  0  0  0  0  0  0  0  0  0  0
    3.8714    1.8476   19.2517 H   0  0  0  0  0  0  0  0  0  0  0  0
  1  2  1  0
  2  3  2  0
  3  4  1  0
  4  5  1  0
  4  6  2  0
  6  7  1  0
  7  8  1  0
  8  9  1  0
  9 10  1  0
  9 11  1  0
  9 12  1  0
 12 13  1  0
 12 14  1  0
 12 15  1  0
 15 16  1  0
 16 17  1  0
 16 18  1  0
 16 19  1  0
 19 20  1  0
 19 21  1  0
 19 22  1  0
 15 23  1  0
 23 24  1  0
 23 25  1  0
 23 26  1  0
 26 27  1  0
 26 28  1  0
 26 29  1  0
  6 30  1  0
 30 31  1  0
 30 32  2  0
 32 33  1  0
 32  2  1  0
M  END
>  <plip>  (1) 
-0.0

>  <filename>  (1) 
[H][c]1[n][c]([H])[c]([S][S][C]([H])([H])[C]([H])([H])[N]([C]([H])([H])[C]([H])([H])[H])[C]([H])([H])[C]([H])([H])[H])[c]([H])[c]1[H]

$$$$
