
     RDKit          3D

 31 32  0  0  0  0  0  0  0  0999 V2000
    4.9148    1.8108   17.0097 H   0  0  0  0  0  0  0  0  0  0  0  0
    5.3924    1.2940   17.8386 C   0  0  0  0  0  0  0  0  0  0  0  0
    6.5521    0.6766   17.5536 N   0  0  0  0  0  0  0  0  0  0  0  0
    7.1906    0.0635   18.5544 C   0  0  0  0  0  0  0  0  0  0  0  0
    8.1280   -0.4277   18.2977 H   0  0  0  0  0  0  0  0  0  0  0  0
    6.7219    0.0155   19.8946 C   0  0  0  0  0  0  0  0  0  0  0  0
    7.4571   -0.5930   20.9331 N   0  0  0  0  0  0  0  0  0  0  0  0
    7.0202   -0.8874   21.8002 H   0  0  0  0  0  0  0  0  0  0  0  0
    8.8933   -1.4533   20.7917 S   0  0  0  0  0  4  0  0  0  0  0  0
    8.6723   -2.5616   21.7499 O   0  0  0  0  0  0  0  0  0  0  0  0
   10.0212   -0.2464   21.5859 C   0  0  0  0  0  0  0  0  0  0  0  0
   10.1121    0.5924   20.8893 H   0  0  0  0  0  0  0  0  0  0  0  0
   10.9805   -0.7751   21.6545 H   0  0  0  0  0  0  0  0  0  0  0  0
    9.5358    0.2103   22.9426 C   0  0  0  0  0  0  0  0  0  0  0  0
    9.7752   -0.5654   24.0862 C   0  0  0  0  0  0  0  0  0  0  0  0
   10.3392   -1.4912   23.9811 H   0  0  0  0  0  0  0  0  0  0  0  0
    9.2398   -0.1946   25.3260 C   0  0  0  0  0  0  0  0  0  0  0  0
    9.4182   -0.8164   26.2012 H   0  0  0  0  0  0  0  0  0  0  0  0
    8.4522    0.9620   25.4609 C   0  0  0  0  0  0  0  0  0  0  0  0
    7.8895    1.3802   26.8036 C   0  0  0  0  0  0  0  0  0  0  0  0
    7.7121    0.5185   27.4575 H   0  0  0  0  0  0  0  0  0  0  0  0
    8.5778    2.0535   27.3275 H   0  0  0  0  0  0  0  0  0  0  0  0
    6.9412    1.9185   26.6928 H   0  0  0  0  0  0  0  0  0  0  0  0
    8.2180    1.7364   24.3116 C   0  0  0  0  0  0  0  0  0  0  0  0
    7.5915    2.6225   24.3959 H   0  0  0  0  0  0  0  0  0  0  0  0
    8.7565    1.3724   23.0711 C   0  0  0  0  0  0  0  0  0  0  0  0
    8.5326    1.9599   22.1818 H   0  0  0  0  0  0  0  0  0  0  0  0
    5.4931    0.6387   20.1616 C   0  0  0  0  0  0  0  0  0  0  0  0
    5.0770    0.6128   21.1690 H   0  0  0  0  0  0  0  0  0  0  0  0
    4.8256    1.2922   19.1174 C   0  0  0  0  0  0  0  0  0  0  0  0
    3.8855    1.8136   19.2800 H   0  0  0  0  0  0  0  0  0  0  0  0
  1  2  1  0
  2  3  2  0
  3  4  1  0
  4  5  1  0
  4  6  2  0
  6  7  1  0
  7  8  1  0
  9  7  1  6
  9 10  2  0
  9 11  1  0
 11 12  1  0
 11 13  1  0
 11 14  1  0
 14 15  2  0
 15 16  1  0
 15 17  1  0
 17 18  1  0
 17 19  2  0
 19 20  1  0
 20 21  1  0
 20 22  1  0
 20 23  1  0
 19 24  1  0
 24 25  1  0
 24 26  2  0
 26 27  1  0
  6 28  1  0
 28 29  1  0
 28 30  2  0
 30 31  1  0
 30  2  1  0
 26 14  1  0
M  END
>  <plip>  (1) 
-0.06896551724137931

>  <filename>  (1) 
[H][c]1[n][c]([H])[c]([N]([H])[S@@](=[O])[C]([H])([H])[c]2[c]([H])[c]([H])[c]([C]([H])([H])[H])[c]([H])[c]2[H])[c]([H])[c]1[H]

$$$$
