
     RDKit          3D

 49 52  0  0  0  0  0  0  0  0999 V2000
    6.2120   -3.0071   19.8097 O   0  0  0  0  0  0  0  0  0  0  0  0
    6.1269   -2.8642   21.0159 C   0  0  0  0  0  0  0  0  0  0  0  0
    6.5891   -1.7631   21.6926 N   0  0  0  0  0  0  0  0  0  0  0  0
    7.3684   -0.7327   21.0111 C   0  0  0  0  0  0  0  0  0  0  0  0
    6.5834   -0.0334   19.9134 C   0  0  0  0  0  0  0  0  0  0  0  0
    5.3734    0.6432   20.1299 C   0  0  0  0  0  0  0  0  0  0  0  0
    4.7921    1.3242   19.0568 C   0  0  0  0  0  0  0  0  0  0  0  0
    5.4300    1.3098   17.8093 C   0  0  0  0  0  0  0  0  0  0  0  0
    6.5738    0.6505   17.5763 N   0  0  0  0  0  0  0  0  0  0  0  0
    7.1138    0.0004   18.6165 C   0  0  0  0  0  0  0  0  0  0  0  0
    8.0384   -0.5389   18.4087 H   0  0  0  0  0  0  0  0  0  0  0  0
    5.0000    1.8360   16.9583 H   0  0  0  0  0  0  0  0  0  0  0  0
    3.8620    1.8676   19.1695 H   0  0  0  0  0  0  0  0  0  0  0  0
    4.8931    0.6451   21.1153 H   0  0  0  0  0  0  0  0  0  0  0  0
    7.9922    0.2597   22.0257 C   0  0  0  0  0  0  0  0  0  0  0  0
    8.9840    1.2365   21.3608 C   0  0  0  0  0  0  0  0  0  0  0  0
    9.8778    1.7627   22.4984 C   0  0  0  0  0  0  0  0  0  0  0  0
    9.8102    0.6986   23.6248 C   0  0  0  0  0  0  0  0  0  0  0  0
    8.8397   -0.3978   23.1343 C   0  0  0  0  0  0  0  0  0  0  0  0
    9.4065   -1.2422   22.7128 H   0  0  0  0  0  0  0  0  0  0  0  0
    8.2233   -0.7988   23.9496 H   0  0  0  0  0  0  0  0  0  0  0  0
    9.4517    1.1544   24.5548 H   0  0  0  0  0  0  0  0  0  0  0  0
   10.7959    0.2770   23.8479 H   0  0  0  0  0  0  0  0  0  0  0  0
   10.9028    1.9285   22.1496 H   0  0  0  0  0  0  0  0  0  0  0  0
    9.5190    2.7329   22.8633 H   0  0  0  0  0  0  0  0  0  0  0  0
    9.5976    0.6841   20.6317 H   0  0  0  0  0  0  0  0  0  0  0  0
    8.4786    2.0364   20.8050 H   0  0  0  0  0  0  0  0  0  0  0  0
    7.1771    0.8352   22.5022 H   0  0  0  0  0  0  0  0  0  0  0  0
    8.2121   -1.2463   20.5255 H   0  0  0  0  0  0  0  0  0  0  0  0
    5.9955   -1.4420   22.4441 H   0  0  0  0  0  0  0  0  0  0  0  0
    5.4667   -3.9778   21.8654 C   0  0  0  0  0  0  0  0  0  0  0  0
    6.0863   -4.4539   23.1945 C   0  0  0  0  0  0  0  0  0  0  0  0
    5.0615   -3.9538   24.1950 C   0  0  0  0  0  0  0  0  0  0  0  0
    4.0442   -3.4470   23.6082 N   0  0  0  0  0  0  0  0  0  0  0  0
    4.1644   -3.5147   22.2438 O   0  0  0  0  0  0  0  0  0  0  0  0
    5.1443   -4.0780   25.6777 C   0  0  0  0  0  0  0  0  0  0  0  0
    6.2001   -4.8028   26.2677 C   0  0  0  0  0  0  0  0  0  0  0  0
    6.2652   -4.9221   27.6534 C   0  0  0  0  0  0  0  0  0  0  0  0
    7.2904   -5.5952   28.2016 F   0  0  0  0  0  0  0  0  0  0  0  0
    5.3100   -4.3552   28.4904 C   0  0  0  0  0  0  0  0  0  0  0  0
    4.2583   -3.6436   27.9089 C   0  0  0  0  0  0  0  0  0  0  0  0
    4.1674   -3.5023   26.5206 C   0  0  0  0  0  0  0  0  0  0  0  0
    3.3335   -2.9525   26.0980 H   0  0  0  0  0  0  0  0  0  0  0  0
    3.5089   -3.1871   28.5523 H   0  0  0  0  0  0  0  0  0  0  0  0
    5.4059   -4.4604   29.5657 H   0  0  0  0  0  0  0  0  0  0  0  0
    6.9791   -5.2878   25.6864 H   0  0  0  0  0  0  0  0  0  0  0  0
    6.1098   -5.5516   23.2361 H   0  0  0  0  0  0  0  0  0  0  0  0
    7.0887   -4.0628   23.3892 H   0  0  0  0  0  0  0  0  0  0  0  0
    5.3261   -4.7986   21.1586 H   0  0  0  0  0  0  0  0  0  0  0  0
  1  2  2  0
  2  3  1  0
  3  4  1  0
  4  5  1  0
  5  6  2  0
  6  7  1  0
  7  8  2  0
  8  9  1  0
  9 10  2  0
 10 11  1  0
  8 12  1  0
  7 13  1  0
  6 14  1  0
  4 15  1  0
 15 16  1  0
 16 17  1  0
 17 18  1  0
 18 19  1  0
 19 20  1  0
 19 21  1  0
 18 22  1  0
 18 23  1  0
 17 24  1  0
 17 25  1  0
 16 26  1  0
 16 27  1  0
 15 28  1  0
  4 29  1  0
  3 30  1  0
  2 31  1  0
 31 32  1  0
 32 33  1  0
 33 34  2  0
 34 35  1  0
 33 36  1  0
 36 37  2  0
 37 38  1  0
 38 39  1  0
 38 40  2  0
 40 41  1  0
 41 42  2  0
 42 43  1  0
 41 44  1  0
 40 45  1  0
 37 46  1  0
 32 47  1  0
 32 48  1  0
 31 49  1  0
 10  5  1  0
 19 15  1  0
 35 31  1  0
 42 36  1  0
M  END
>  <plip>  (1) 
-0.1724137931034483

>  <filename>  (1) 
[H][c]1[n][c]([H])[c]([C]([H])([N]([H])[C](=[O])[C]2([H])[O][N]=[C]([c]3[c]([H])[c]([H])[c]([H])[c]([F])[c]3[H])[C]2([H])[H])[C]2([H])[C]([H])([H])[C]([H])([H])[C]([H])([H])[C]2([H])[H])[c]([H])[c]1[H]

$$$$
