
     RDKit          3D

 27 29  0  0  0  0  0  0  0  0999 V2000
    4.8092    1.2896   19.1122 C   0  0  0  0  0  0  0  0  0  0  0  0
    5.4122    1.2728   17.8519 C   0  0  0  0  0  0  0  0  0  0  0  0
    6.5670    0.6394   17.6011 N   0  0  0  0  0  0  0  0  0  0  0  0
    7.1536   -0.0025   18.6224 C   0  0  0  0  0  0  0  0  0  0  0  0
    6.6420   -0.0587   19.9283 C   0  0  0  0  0  0  0  0  0  0  0  0
    7.3933   -0.7895   21.0194 C   0  0  0  0  0  0  0  0  0  0  0  0
    7.0251   -2.1878   21.0714 N   0  0  0  0  0  0  0  0  0  0  0  0
    7.4923   -3.0514   21.9744 C   0  0  0  0  0  0  0  0  0  0  0  0
    6.9509   -4.2834   21.8411 N   0  0  0  0  0  0  0  0  0  0  0  0
    7.3683   -5.2173   22.6821 C   0  0  0  0  0  0  0  0  0  0  0  0
    8.3334   -4.9212   23.6509 C   0  0  0  0  0  0  0  0  0  0  0  0
    9.0366   -5.5467   24.6796 N   0  0  0  0  0  0  0  0  0  0  0  0
    9.8364   -4.5752   25.2166 C   0  0  0  0  0  0  0  0  0  0  0  0
    9.7200   -3.4134   24.6431 N   0  0  0  0  0  0  0  0  0  0  0  0
    8.7927   -3.5859   23.6612 C   0  0  0  0  0  0  0  0  0  0  0  0
    8.3906   -2.6307   22.8363 N   0  0  0  0  0  0  0  0  0  0  0  0
   10.4909   -4.7990   26.0455 H   0  0  0  0  0  0  0  0  0  0  0  0
    8.9981   -6.4951   25.0224 H   0  0  0  0  0  0  0  0  0  0  0  0
    6.9325   -6.2179   22.5792 H   0  0  0  0  0  0  0  0  0  0  0  0
    6.3293   -2.6423   20.5164 H   0  0  0  0  0  0  0  0  0  0  0  0
    7.2068   -0.3168   21.9976 H   0  0  0  0  0  0  0  0  0  0  0  0
    8.4818   -0.7212   20.8612 H   0  0  0  0  0  0  0  0  0  0  0  0
    5.4321    0.6125   20.1646 C   0  0  0  0  0  0  0  0  0  0  0  0
    5.0011    0.6343   21.1670 H   0  0  0  0  0  0  0  0  0  0  0  0
    8.1178   -0.4532   18.3837 H   0  0  0  0  0  0  0  0  0  0  0  0
    4.9508    1.7835   17.0060 H   0  0  0  0  0  0  0  0  0  0  0  0
    3.8857    1.8409   19.2549 H   0  0  0  0  0  0  0  0  0  0  0  0
  1  2  2  0
  2  3  1  0
  3  4  2  0
  4  5  1  0
  5  6  1  0
  6  7  1  0
  7  8  1  0
  8  9  2  0
  9 10  1  0
 10 11  2  0
 11 12  1  0
 12 13  1  0
 13 14  2  0
 14 15  1  0
 15 16  2  0
 13 17  1  0
 12 18  1  0
 10 19  1  0
  7 20  1  0
  6 21  1  0
  6 22  1  0
  5 23  2  0
 23 24  1  0
  4 25  1  0
  2 26  1  0
  1 27  1  0
 23  1  1  0
 16  8  1  0
 15 11  1  0
M  END
>  <plip>  (1) 
-0.034482758620689655

>  <filename>  (1) 
[H][c]1[n][c]([H])[c]([C]([H])([H])[N]([H])[c]2[n][c]([H])[c]3[c]([n]2)[n][c]([H])[n]3[H])[c]([H])[c]1[H]

$$$$
