
     RDKit          3D

 22 23  0  0  0  0  0  0  0  0999 V2000
    9.7548   -3.0570   26.4293 H   0  0  0  0  0  0  0  0  0  0  0  0
    9.0532   -2.4147   26.2368 O   0  0  0  0  0  0  0  0  0  0  0  0
    9.0549   -2.3660   24.8555 N   0  0  0  0  0  0  0  0  0  0  0  0
    8.1811   -1.5601   24.3781 C   0  0  0  0  0  0  0  0  0  0  0  0
    7.5197   -0.9837   25.0250 H   0  0  0  0  0  0  0  0  0  0  0  0
    8.0676   -1.4071   22.9390 C   0  0  0  0  0  0  0  0  0  0  0  0
    8.7798   -2.0006   21.9305 C   0  0  0  0  0  0  0  0  0  0  0  0
    9.5722   -2.7248   22.0413 H   0  0  0  0  0  0  0  0  0  0  0  0
    8.3687   -1.5590   20.7181 N   0  0  0  0  0  0  0  0  0  0  0  0
    7.3978   -0.7020   20.9438 C   0  0  0  0  0  0  0  0  0  0  0  0
    6.6541    0.0155   19.9121 C   0  0  0  0  0  0  0  0  0  0  0  0
    7.1733    0.0549   18.6057 C   0  0  0  0  0  0  0  0  0  0  0  0
    8.1195   -0.4343   18.3803 H   0  0  0  0  0  0  0  0  0  0  0  0
    6.5679    0.6740   17.5881 N   0  0  0  0  0  0  0  0  0  0  0  0
    5.4025    1.2909   17.8411 C   0  0  0  0  0  0  0  0  0  0  0  0
    4.9211    1.7781   16.9974 H   0  0  0  0  0  0  0  0  0  0  0  0
    4.8017    1.3133   19.1045 C   0  0  0  0  0  0  0  0  0  0  0  0
    3.8700    1.8458   19.2571 H   0  0  0  0  0  0  0  0  0  0  0  0
    5.4321    0.6615   20.1591 C   0  0  0  0  0  0  0  0  0  0  0  0
    4.9801    0.6431   21.1542 H   0  0  0  0  0  0  0  0  0  0  0  0
    7.1700   -0.5739   22.2820 N   0  0  0  0  0  0  0  0  0  0  0  0
    6.4991    0.0641   22.6745 H   0  0  0  0  0  0  0  0  0  0  0  0
  1  2  1  0
  2  3  1  0
  3  4  2  3
  4  5  1  0
  4  6  1  0
  6  7  2  0
  7  8  1  0
  7  9  1  0
  9 10  2  0
 10 11  1  0
 11 12  2  0
 12 13  1  0
 12 14  1  0
 14 15  2  0
 15 16  1  0
 15 17  1  0
 17 18  1  0
 17 19  2  0
 19 20  1  0
 10 21  1  0
 21 22  1  0
 21  6  1  0
 19 11  1  0
M  END
>  <plip>  (1) 
-0.06896551724137931

>  <filename>  (1) 
[H][O][N]=[C]([H])[c]1[c]([H])[n][c](-[c]2[c]([H])[n][c]([H])[c]([H])[c]2[H])[n]1[H]

$$$$
