
     RDKit          3D

 42 46  0  0  0  0  0  0  0  0999 V2000
    4.9821    1.7675   16.9165 H   0  0  0  0  0  0  0  0  0  0  0  0
    5.4017    1.3269   17.8196 C   0  0  0  0  0  0  0  0  0  0  0  0
    6.5819    0.7063   17.6805 N   0  0  0  0  0  0  0  0  0  0  0  0
    7.1083    0.1514   18.7796 C   0  0  0  0  0  0  0  0  0  0  0  0
    8.0527   -0.3764   18.6318 H   0  0  0  0  0  0  0  0  0  0  0  0
    6.5362    0.1838   20.0672 C   0  0  0  0  0  0  0  0  0  0  0  0
    7.2618   -0.5145   21.2248 C   0  0  1  0  0  0  0  0  0  0  0  0
    6.6609   -0.4067   22.1373 H   0  0  0  0  0  0  0  0  0  0  0  0
    7.3503   -2.0160   20.8985 C   0  0  0  0  0  0  0  0  0  0  0  0
    7.7020   -2.0472   19.8733 H   0  0  0  0  0  0  0  0  0  0  0  0
    6.3457   -2.4516   20.8980 H   0  0  0  0  0  0  0  0  0  0  0  0
    8.2922   -2.8519   21.7781 C   0  0  1  0  0  0  0  0  0  0  0  0
    8.1989   -3.9114   21.5194 H   0  0  0  0  0  0  0  0  0  0  0  0
   10.0123   -2.3168   21.4712 S   0  0  0  0  0  0  0  0  0  0  0  0
    9.5941   -0.8036   22.3855 C   0  0  2  0  0  0  0  0  0  0  0  0
   10.5204   -0.2745   22.6169 H   0  0  0  0  0  0  0  0  0  0  0  0
    8.9106   -1.3266   23.6633 C   0  0  0  0  0  0  0  0  0  0  0  0
    8.2676   -0.5573   24.1046 H   0  0  0  0  0  0  0  0  0  0  0  0
    9.6824   -1.5609   24.4020 H   0  0  0  0  0  0  0  0  0  0  0  0
    8.1283   -2.6140   23.2934 C   0  0  0  0  0  0  0  0  0  0  0  0
    7.0761   -2.5620   23.5941 H   0  0  0  0  0  0  0  0  0  0  0  0
    8.5661   -3.4665   23.8181 H   0  0  0  0  0  0  0  0  0  0  0  0
    8.6836    0.0952   21.4911 C   0  0  2  0  0  0  0  0  0  0  0  0
    9.2055    0.1768   20.5316 H   0  0  0  0  0  0  0  0  0  0  0  0
    8.5783    1.4800   22.0653 C   0  0  0  0  0  0  0  0  0  0  0  0
    9.8659    2.6337   21.8030 S   0  0  0  0  0  0  0  0  0  0  0  0
    8.9919    3.8700   22.6694 C   0  0  0  0  0  0  0  0  0  0  0  0
    9.3167    5.2292   22.7899 C   0  0  0  0  0  0  0  0  0  0  0  0
   10.2134    5.6269   22.3243 H   0  0  0  0  0  0  0  0  0  0  0  0
    8.4460    6.0521   23.4984 C   0  0  0  0  0  0  0  0  0  0  0  0
    8.6575    7.1115   23.5843 H   0  0  0  0  0  0  0  0  0  0  0  0
    7.2796    5.5313   24.1039 C   0  0  0  0  0  0  0  0  0  0  0  0
    6.6189    6.1889   24.6609 H   0  0  0  0  0  0  0  0  0  0  0  0
    6.9575    4.1925   23.9729 C   0  0  0  0  0  0  0  0  0  0  0  0
    6.0544    3.7803   24.4152 H   0  0  0  0  0  0  0  0  0  0  0  0
    7.8018    3.3510   23.2215 C   0  0  0  0  0  0  0  0  0  0  0  0
    7.6022    1.9845   22.8544 C   0  0  0  0  0  0  0  0  0  0  0  0
    6.7347    1.4158   23.1699 H   0  0  0  0  0  0  0  0  0  0  0  0
    5.2972    0.8356   20.1782 C   0  0  0  0  0  0  0  0  0  0  0  0
    4.7774    0.8934   21.1384 H   0  0  0  0  0  0  0  0  0  0  0  0
    4.7191    1.4081   19.0369 C   0  0  0  0  0  0  0  0  0  0  0  0
    3.7581    1.9129   19.0730 H   0  0  0  0  0  0  0  0  0  0  0  0
  1  2  1  0
  2  3  2  0
  3  4  1  0
  4  5  1  0
  4  6  2  0
  6  7  1  0
  7  8  1  1
  7  9  1  0
  9 10  1  0
  9 11  1  0
  9 12  1  0
 12 13  1  1
 12 14  1  0
 14 15  1  0
 15 16  1  1
 15 17  1  0
 17 18  1  0
 17 19  1  0
 17 20  1  0
 20 21  1  0
 20 22  1  0
 15 23  1  0
 23 24  1  6
 23 25  1  0
 25 26  1  0
 26 27  1  0
 27 28  2  0
 28 29  1  0
 28 30  1  0
 30 31  1  0
 30 32  2  0
 32 33  1  0
 32 34  1  0
 34 35  1  0
 34 36  2  0
 36 37  1  0
 37 38  1  0
  6 39  1  0
 39 40  1  0
 39 41  2  0
 41 42  1  0
 41  2  1  0
 23  7  1  0
 37 25  2  0
 20 12  1  0
 36 27  1  0
M  END
>  <plip>  (1) 
-0.03571428571428571

>  <filename>  (1) 
[H][c]1[n][c]([H])[c]([C@@]2([H])[C]([H])([H])[C@@]3([H])[S][C@]([H])([C]([H])([H])[C]3([H])[H])[C@]2([H])[c]2[s][c]3[c]([H])[c]([H])[c]([H])[c]([H])[c]3[c]2[H])[c]([H])[c]1[H]

$$$$
