
     RDKit          3D

 30 31  0  0  0  0  0  0  0  0999 V2000
    4.9531    1.7884   16.9925 H   0  0  0  0  0  0  0  0  0  0  0  0
    5.4156    1.2822   17.8391 C   0  0  0  0  0  0  0  0  0  0  0  0
    6.5764    0.6595   17.5896 N   0  0  0  0  0  0  0  0  0  0  0  0
    7.1879    0.0408   18.6057 C   0  0  0  0  0  0  0  0  0  0  0  0
    8.1348   -0.4312   18.3489 H   0  0  0  0  0  0  0  0  0  0  0  0
    6.6687   -0.0017   19.9116 C   0  0  0  0  0  0  0  0  0  0  0  0
    7.3538   -0.6947   21.0099 C   0  0  0  0  0  0  0  0  0  0  0  0
    8.5192   -1.3374   20.7696 O   0  0  0  0  0  0  0  0  0  0  0  0
    8.9585   -1.9426   21.9361 N   0  0  0  0  0  0  0  0  0  0  0  0
    8.0551   -1.6394   22.8347 C   0  0  0  0  0  0  0  0  0  0  0  0
    8.0567   -2.0157   24.1134 O   0  0  0  0  0  0  0  0  0  0  0  0
    9.1429   -2.7923   24.6595 C   0  0  0  0  0  0  0  0  0  0  0  0
    8.8031   -2.9300   26.1440 C   0  0  0  0  0  0  0  0  0  0  0  0
    8.7344   -1.9481   26.6285 H   0  0  0  0  0  0  0  0  0  0  0  0
    7.8452   -3.4467   26.2548 H   0  0  0  0  0  0  0  0  0  0  0  0
    9.5802   -3.5144   26.6543 H   0  0  0  0  0  0  0  0  0  0  0  0
    9.2234   -4.1702   24.0050 C   0  0  0  0  0  0  0  0  0  0  0  0
    9.9555   -4.7667   24.5647 H   0  0  0  0  0  0  0  0  0  0  0  0
    8.2514   -4.6669   24.0456 H   0  0  0  0  0  0  0  0  0  0  0  0
    9.5572   -4.0995   22.9674 H   0  0  0  0  0  0  0  0  0  0  0  0
   10.4737   -2.0852   24.4894 C   0  0  0  0  0  0  0  0  0  0  0  0
   11.2103   -2.8112   24.8445 H   0  0  0  0  0  0  0  0  0  0  0  0
   10.6952   -1.8638   23.4452 H   0  0  0  0  0  0  0  0  0  0  0  0
   10.5271   -1.1542   25.0663 H   0  0  0  0  0  0  0  0  0  0  0  0
    7.0179   -0.8475   22.3128 C   0  0  0  0  0  0  0  0  0  0  0  0
    6.1917   -0.4970   22.9018 H   0  0  0  0  0  0  0  0  0  0  0  0
    5.4480    0.6486   20.1526 C   0  0  0  0  0  0  0  0  0  0  0  0
    4.9984    0.6521   21.1453 H   0  0  0  0  0  0  0  0  0  0  0  0
    4.8142    1.3026   19.0981 C   0  0  0  0  0  0  0  0  0  0  0  0
    3.8824    1.8354   19.2392 H   0  0  0  0  0  0  0  0  0  0  0  0
  1  2  1  0
  2  3  2  0
  3  4  1  0
  4  5  1  0
  4  6  2  0
  6  7  1  0
  7  8  1  0
  8  9  1  0
  9 10  2  0
 10 11  1  0
 11 12  1  0
 12 13  1  0
 13 14  1  0
 13 15  1  0
 13 16  1  0
 12 17  1  0
 17 18  1  0
 17 19  1  0
 17 20  1  0
 12 21  1  0
 21 22  1  0
 21 23  1  0
 21 24  1  0
 10 25  1  0
 25 26  1  0
  6 27  1  0
 27 28  1  0
 27 29  2  0
 29 30  1  0
 29  2  1  0
 25  7  2  0
M  END
>  <plip>  (1) 
-0.03571428571428571

>  <filename>  (1) 
[H][c]1[n][c]([H])[c](-[c]2[o][n][c]([O][C]([C]([H])([H])[H])([C]([H])([H])[H])[C]([H])([H])[H])[c]2[H])[c]([H])[c]1[H]

$$$$
