
     RDKit          3D

 18 18  0  0  0  0  0  0  0  0999 V2000
    4.7109   -3.9074   24.1426 H   0  0  0  0  0  0  0  0  0  0  0  0
    4.6360   -3.5790   23.1781 N   0  0  0  0  0  0  0  0  0  0  0  0
    5.7108   -2.9814   22.9242 N   0  0  0  0  0  4  0  0  0  0  0  0
    5.8581   -2.3075   21.8387 N   0  0  0  0  0  0  0  0  0  0  0  0
    7.0626   -1.6599   21.7782 C   0  0  0  0  0  0  0  0  0  0  0  0
    7.7633   -1.9788   22.5331 H   0  0  0  0  0  0  0  0  0  0  0  0
    7.4202   -0.7228   20.8824 C   0  0  0  0  0  0  0  0  0  0  0  0
    8.4796   -0.4728   20.9173 H   0  0  0  0  0  0  0  0  0  0  0  0
    6.6453   -0.0138   19.8522 C   0  0  0  0  0  0  0  0  0  0  0  0
    7.1661    0.0839   18.5426 C   0  0  0  0  0  0  0  0  0  0  0  0
    8.1188   -0.3934   18.2987 H   0  0  0  0  0  0  0  0  0  0  0  0
    6.5602    0.7163   17.5409 N   0  0  0  0  0  0  0  0  0  0  0  0
    5.3938    1.3273   17.8113 C   0  0  0  0  0  0  0  0  0  0  0  0
    4.9143    1.8485   16.9805 H   0  0  0  0  0  0  0  0  0  0  0  0
    4.8010    1.3076   19.0723 C   0  0  0  0  0  0  0  0  0  0  0  0
    3.8755    1.8472   19.2268 H   0  0  0  0  0  0  0  0  0  0  0  0
    5.4259    0.6225   20.1151 C   0  0  0  0  0  0  0  0  0  0  0  0
    4.9984    0.6037   21.1211 H   0  0  0  0  0  0  0  0  0  0  0  0
  1  2  1  0
  2  3  2  0
  3  4  2  0
  4  5  1  0
  5  6  1  0
  5  7  2  3
  7  8  1  0
  7  9  1  0
  9 10  2  0
 10 11  1  0
 10 12  1  0
 12 13  2  0
 13 14  1  0
 13 15  1  0
 15 16  1  0
 15 17  2  0
 17 18  1  0
 17  9  1  0
M  CHG  1   3   1
M  END
>  <plip>  (1) 
-0.07142857142857142

>  <filename>  (1) 
[H][N]=[N+]=[N][C]([H])=[C]([H])[c]1[c]([H])[n][c]([H])[c]([H])[c]1[H]

$$$$
