
     RDKit          3D

 42 45  0  0  0  0  0  0  0  0999 V2000
    5.2640    1.6846   17.0860 H   0  0  0  0  0  0  0  0  0  0  0  0
    5.6445    1.1601   17.9584 C   0  0  0  0  0  0  0  0  0  0  0  0
    6.8187    0.5376   17.8040 N   0  0  0  0  0  0  0  0  0  0  0  0
    7.3340   -0.0794   18.8817 C   0  0  0  0  0  0  0  0  0  0  0  0
    8.2907   -0.5701   18.7155 H   0  0  0  0  0  0  0  0  0  0  0  0
    6.7492   -0.0902   20.1592 C   0  0  0  0  0  0  0  0  0  0  0  0
    7.4290   -0.6963   21.4273 C   0  0  0  0  0  0  0  0  0  0  0  0
    6.6261   -1.9133   21.9528 C   0  0  0  0  0  0  0  0  0  0  0  0
    5.7706   -2.6039   21.1070 C   0  0  0  0  0  0  0  0  0  0  0  0
    5.6874   -2.3347   20.0565 H   0  0  0  0  0  0  0  0  0  0  0  0
    4.9608   -3.6386   21.4661 N   0  0  0  0  0  0  0  0  0  0  0  0
    4.9872   -4.0241   22.7238 C   0  0  0  0  0  0  0  0  0  0  0  0
    4.3076   -4.8279   23.0072 H   0  0  0  0  0  0  0  0  0  0  0  0
    5.8857   -3.4926   23.7036 C   0  0  0  0  0  0  0  0  0  0  0  0
    5.9075   -3.9659   25.0564 C   0  0  0  0  0  0  0  0  0  0  0  0
    5.1203   -4.6315   25.4125 H   0  0  0  0  0  0  0  0  0  0  0  0
    6.9126   -3.5832   25.9104 C   0  0  0  0  0  0  0  0  0  0  0  0
    6.9454   -3.9532   26.9302 H   0  0  0  0  0  0  0  0  0  0  0  0
    7.9410   -2.7158   25.4573 C   0  0  0  0  0  0  0  0  0  0  0  0
    8.7756   -2.4703   26.1110 H   0  0  0  0  0  0  0  0  0  0  0  0
    7.8940   -2.1938   24.1846 C   0  0  0  0  0  0  0  0  0  0  0  0
    8.6923   -1.5238   23.8962 H   0  0  0  0  0  0  0  0  0  0  0  0
    6.8206   -2.4976   23.2726 C   0  0  0  0  0  0  0  0  0  0  0  0
    8.8732   -1.2422   21.1523 C   0  0  0  0  0  0  0  0  0  0  0  0
    9.2154   -1.7943   22.0341 H   0  0  0  0  0  0  0  0  0  0  0  0
    8.8116   -2.0001   20.3685 H   0  0  0  0  0  0  0  0  0  0  0  0
    9.9291   -0.1738   20.8334 C   0  0  0  0  0  0  0  0  0  0  0  0
   10.9115   -0.6474   20.7048 H   0  0  0  0  0  0  0  0  0  0  0  0
    9.6876    0.3211   19.8877 H   0  0  0  0  0  0  0  0  0  0  0  0
    9.9727    0.9156   21.9119 C   0  0  0  0  0  0  0  0  0  0  0  0
   10.7222    1.6726   21.6524 H   0  0  0  0  0  0  0  0  0  0  0  0
   10.3042    0.4802   22.8658 H   0  0  0  0  0  0  0  0  0  0  0  0
    8.5793    1.5459   22.0786 C   0  0  0  0  0  0  0  0  0  0  0  0
    8.2816    2.0161   21.1287 H   0  0  0  0  0  0  0  0  0  0  0  0
    8.5997    2.3511   22.8267 H   0  0  0  0  0  0  0  0  0  0  0  0
    7.5254    0.4894   22.4662 C   0  0  0  0  0  0  0  0  0  0  0  0
    7.7468    0.1275   23.4689 H   0  0  0  0  0  0  0  0  0  0  0  0
    6.5421    0.9572   22.5584 H   0  0  0  0  0  0  0  0  0  0  0  0
    5.4762    0.5052   20.2647 C   0  0  0  0  0  0  0  0  0  0  0  0
    4.9253    0.4631   21.2081 H   0  0  0  0  0  0  0  0  0  0  0  0
    4.9221    1.1453   19.1549 C   0  0  0  0  0  0  0  0  0  0  0  0
    3.9661    1.6532   19.2112 H   0  0  0  0  0  0  0  0  0  0  0  0
  1  2  1  0
  2  3  2  0
  3  4  1  0
  4  5  1  0
  4  6  2  0
  6  7  1  0
  7  8  1  0
  8  9  2  0
  9 10  1  0
  9 11  1  0
 11 12  2  0
 12 13  1  0
 12 14  1  0
 14 15  2  0
 15 16  1  0
 15 17  1  0
 17 18  1  0
 17 19  2  0
 19 20  1  0
 19 21  1  0
 21 22  1  0
 21 23  2  0
  7 24  1  0
 24 25  1  0
 24 26  1  0
 24 27  1  0
 27 28  1  0
 27 29  1  0
 27 30  1  0
 30 31  1  0
 30 32  1  0
 30 33  1  0
 33 34  1  0
 33 35  1  0
 33 36  1  0
 36 37  1  0
 36 38  1  0
  6 39  1  0
 39 40  1  0
 39 41  2  0
 41 42  1  0
 41  2  1  0
 36  7  1  0
 23  8  1  0
 23 14  1  0
M  END
>  <plip>  (1) 
-0.03571428571428571

>  <filename>  (1) 
[H][c]1[n][c]([H])[c]([C]2([c]3[c]([H])[n][c]([H])[c]4[c]([H])[c]([H])[c]([H])[c]([H])[c]34)[C]([H])([H])[C]([H])([H])[C]([H])([H])[C]([H])([H])[C]2([H])[H])[c]([H])[c]1[H]

$$$$
