
     RDKit          3D

 49 50  0  0  0  0  0  0  0  0999 V2000
    4.0563    1.2516   27.0516 C   0  0  0  0  0  0  0  0  0  0  0  0
    5.4040    0.8032   26.9594 O   0  0  0  0  0  0  0  0  0  0  0  0
    6.0540    0.9544   25.7925 C   0  0  0  0  0  0  0  0  0  0  0  0
    7.3616    0.4746   25.7854 C   0  0  0  0  0  0  0  0  0  0  0  0
    8.0597    0.5706   24.5999 C   0  0  0  0  0  0  0  0  0  0  0  0
    9.2818    0.0174   24.3908 O   0  0  0  0  0  0  0  0  0  0  0  0
   10.0273   -0.3743   25.5316 C   0  0  0  0  0  0  0  0  0  0  0  0
    9.6246   -1.2964   25.9668 H   0  0  0  0  0  0  0  0  0  0  0  0
   11.0507   -0.5526   25.2027 H   0  0  0  0  0  0  0  0  0  0  0  0
   10.0299    0.4072   26.3024 H   0  0  0  0  0  0  0  0  0  0  0  0
    7.4883    1.2461   23.4998 C   0  0  0  0  0  0  0  0  0  0  0  0
    8.2519    1.4359   22.2285 C   0  0  0  0  0  0  0  0  0  0  0  0
    8.5670    0.0745   21.6679 N   0  0  0  0  0  4  0  0  0  0  0  0
    9.6664    0.1508   20.6677 C   0  0  0  0  0  0  0  0  0  0  0  0
    9.8621   -0.8111   20.1831 H   0  0  0  0  0  0  0  0  0  0  0  0
    9.4110    0.8767   19.8883 H   0  0  0  0  0  0  0  0  0  0  0  0
   10.6112    0.4776   21.1220 H   0  0  0  0  0  0  0  0  0  0  0  0
    7.2794   -0.6482   21.1669 C   0  0  0  0  0  0  0  0  0  0  0  0
    6.6060    0.0880   20.0141 C   0  0  0  0  0  0  0  0  0  0  0  0
    5.3563    0.7077   20.1711 C   0  0  0  0  0  0  0  0  0  0  0  0
    4.7661    1.3479   19.0793 C   0  0  0  0  0  0  0  0  0  0  0  0
    5.4181    1.3114   17.8443 C   0  0  0  0  0  0  0  0  0  0  0  0
    6.5811    0.6754   17.6511 N   0  0  0  0  0  0  0  0  0  0  0  0
    7.1456    0.0788   18.7125 C   0  0  0  0  0  0  0  0  0  0  0  0
    8.0779   -0.4447   18.4921 H   0  0  0  0  0  0  0  0  0  0  0  0
    4.9886    1.8090   16.9769 H   0  0  0  0  0  0  0  0  0  0  0  0
    3.8244    1.8737   19.1712 H   0  0  0  0  0  0  0  0  0  0  0  0
    4.8402    0.6751   21.1323 H   0  0  0  0  0  0  0  0  0  0  0  0
    7.5835   -2.1209   20.8062 C   0  0  0  0  0  0  0  0  0  0  0  0
    8.3156   -2.9476   21.8788 C   0  0  0  0  0  0  0  0  0  0  0  0
    8.3475   -3.9990   21.5667 H   0  0  0  0  0  0  0  0  0  0  0  0
    7.8271   -2.9125   22.8627 H   0  0  0  0  0  0  0  0  0  0  0  0
    9.3571   -2.6351   22.0105 H   0  0  0  0  0  0  0  0  0  0  0  0
    6.3297   -2.8710   20.3333 C   0  0  0  0  0  0  0  0  0  0  0  0
    5.8764   -2.4014   19.4578 H   0  0  0  0  0  0  0  0  0  0  0  0
    5.5646   -2.9383   21.1169 H   0  0  0  0  0  0  0  0  0  0  0  0
    6.5914   -3.8921   20.0448 H   0  0  0  0  0  0  0  0  0  0  0  0
    8.2803   -2.0065   19.9723 H   0  0  0  0  0  0  0  0  0  0  0  0
    6.5865   -0.6317   22.0158 H   0  0  0  0  0  0  0  0  0  0  0  0
    8.8837   -0.4353   22.5166 H   0  0  0  0  0  0  0  0  0  0  0  0
    7.6750    2.0041   21.4922 H   0  0  0  0  0  0  0  0  0  0  0  0
    9.1904    1.9796   22.3991 H   0  0  0  0  0  0  0  0  0  0  0  0
    6.1816    1.6540   23.6400 C   0  0  0  0  0  0  0  0  0  0  0  0
    5.4531    1.5177   24.7563 N   0  0  0  0  0  0  0  0  0  0  0  0
    5.6769    2.1113   22.7900 H   0  0  0  0  0  0  0  0  0  0  0  0
    7.7507    0.0438   26.6959 H   0  0  0  0  0  0  0  0  0  0  0  0
    3.9858    2.3278   26.8638 H   0  0  0  0  0  0  0  0  0  0  0  0
    3.7372    1.0264   28.0676 H   0  0  0  0  0  0  0  0  0  0  0  0
    3.4186    0.7299   26.3308 H   0  0  0  0  0  0  0  0  0  0  0  0
  1  2  1  0
  2  3  1  0
  3  4  2  0
  4  5  1  0
  5  6  1  0
  6  7  1  0
  7  8  1  0
  7  9  1  0
  7 10  1  0
  5 11  2  0
 11 12  1  0
 12 13  1  0
 13 14  1  0
 14 15  1  0
 14 16  1  0
 14 17  1  0
 13 18  1  0
 18 19  1  0
 19 20  2  0
 20 21  1  0
 21 22  2  0
 22 23  1  0
 23 24  2  0
 24 25  1  0
 22 26  1  0
 21 27  1  0
 20 28  1  0
 18 29  1  0
 29 30  1  0
 30 31  1  0
 30 32  1  0
 30 33  1  0
 29 34  1  0
 34 35  1  0
 34 36  1  0
 34 37  1  0
 29 38  1  0
 18 39  1  0
 13 40  1  0
 12 41  1  0
 12 42  1  0
 11 43  1  0
 43 44  2  0
 43 45  1  0
  4 46  1  0
  1 47  1  0
  1 48  1  0
  1 49  1  0
 44  3  1  0
 24 19  1  0
M  CHG  1  13   1
M  END
>  <plip>  (1) 
-0.07142857142857142

>  <filename>  (1) 
[H][c]1[n][c]([H])[c]([C]([H])([C]([H])([C]([H])([H])[H])[C]([H])([H])[H])[N+]([H])([C]([H])([H])[H])[C]([H])([H])[c]2[c]([H])[n][c]([O][C]([H])([H])[H])[c]([H])[c]2[O][C]([H])([H])[H])[c]([H])[c]1[H]

$$$$
