
     RDKit          3D

 41 44  0  0  0  0  0  0  0  0999 V2000
    8.2426    0.7080   24.4656 C   0  0  0  0  0  0  0  0  0  0  0  0
    7.4510    0.3060   23.2154 C   0  0  0  0  0  0  0  0  0  0  0  0
    8.2406    0.2303   21.8951 C   0  0  0  0  0  0  0  0  0  0  0  0
    7.4236   -0.7149   20.9845 C   0  0  0  0  0  0  0  0  0  0  0  0
    6.5969   -0.0321   19.9054 C   0  0  0  0  0  0  0  0  0  0  0  0
    5.3833    0.6357   20.1298 C   0  0  0  0  0  0  0  0  0  0  0  0
    4.7921    1.3225   19.0640 C   0  0  0  0  0  0  0  0  0  0  0  0
    5.4238    1.3074   17.8142 C   0  0  0  0  0  0  0  0  0  0  0  0
    6.5661    0.6488   17.5700 N   0  0  0  0  0  0  0  0  0  0  0  0
    7.1145   -0.0035   18.6023 C   0  0  0  0  0  0  0  0  0  0  0  0
    8.0392   -0.5383   18.3816 H   0  0  0  0  0  0  0  0  0  0  0  0
    4.9947    1.8408   16.9666 H   0  0  0  0  0  0  0  0  0  0  0  0
    3.8652    1.8757   19.1822 H   0  0  0  0  0  0  0  0  0  0  0  0
    4.9045    0.6207   21.1125 H   0  0  0  0  0  0  0  0  0  0  0  0
    6.6196   -1.4916   21.9380 N   0  0  0  0  0  0  0  0  0  0  0  0
    5.9887   -2.6245   21.4974 C   0  0  0  0  0  0  0  0  0  0  0  0
    6.0423   -2.9474   20.3175 O   0  0  0  0  0  0  0  0  0  0  0  0
    5.2140   -3.4921   22.4453 C   0  0  0  0  0  0  0  0  0  0  0  0
    4.6568   -4.6759   22.0306 C   0  0  0  0  0  0  0  0  0  0  0  0
    4.8676   -5.4191   20.9612 F   0  0  0  0  0  0  0  0  0  0  0  0
    3.8921   -5.1708   23.0327 N   0  0  0  0  0  0  0  0  0  0  0  0
    3.0451   -6.2698   23.0927 C   0  0  0  0  0  0  0  0  0  0  0  0
    2.3803   -6.5127   24.2551 C   0  0  0  0  0  0  0  0  0  0  0  0
    2.5729   -5.6471   25.3967 C   0  0  0  0  0  0  0  0  0  0  0  0
    3.3961   -4.5570   25.3216 C   0  0  0  0  0  0  0  0  0  0  0  0
    4.0852   -4.2741   24.1018 C   0  0  0  0  0  0  0  0  0  0  0  0
    4.8774   -3.2867   23.7716 N   0  0  0  0  0  0  0  0  0  0  0  0
    3.5302   -3.8616   26.1402 H   0  0  0  0  0  0  0  0  0  0  0  0
    2.0369   -5.8659   26.3196 H   0  0  0  0  0  0  0  0  0  0  0  0
    1.6965   -7.3524   24.3208 H   0  0  0  0  0  0  0  0  0  0  0  0
    2.9893   -6.8723   22.1902 H   0  0  0  0  0  0  0  0  0  0  0  0
    6.8789   -1.1069   23.3243 C   0  0  0  0  0  0  0  0  0  0  0  0
    7.6151   -1.7845   23.7856 H   0  0  0  0  0  0  0  0  0  0  0  0
    5.9855   -1.1759   23.9402 H   0  0  0  0  0  0  0  0  0  0  0  0
    8.1034   -1.4035   20.4631 H   0  0  0  0  0  0  0  0  0  0  0  0
    8.4023    1.2079   21.4249 H   0  0  0  0  0  0  0  0  0  0  0  0
    9.2232   -0.2332   22.0764 H   0  0  0  0  0  0  0  0  0  0  0  0
    6.6140    1.0102   23.0644 H   0  0  0  0  0  0  0  0  0  0  0  0
    7.5769    0.7573   25.3388 H   0  0  0  0  0  0  0  0  0  0  0  0
    9.0392   -0.0227   24.6816 H   0  0  0  0  0  0  0  0  0  0  0  0
    8.7257    1.6885   24.3669 H   0  0  0  0  0  0  0  0  0  0  0  0
  1  2  1  0
  2  3  1  0
  3  4  1  0
  4  5  1  0
  5  6  2  0
  6  7  1  0
  7  8  2  0
  8  9  1  0
  9 10  2  0
 10 11  1  0
  8 12  1  0
  7 13  1  0
  6 14  1  0
  4 15  1  0
 15 16  1  0
 16 17  2  0
 16 18  1  0
 18 19  2  0
 19 20  1  0
 19 21  1  0
 21 22  1  0
 22 23  2  0
 23 24  1  0
 24 25  2  0
 25 26  1  0
 26 27  2  0
 25 28  1  0
 24 29  1  0
 23 30  1  0
 22 31  1  0
 15 32  1  0
 32 33  1  0
 32 34  1  0
  4 35  1  0
  3 36  1  0
  3 37  1  0
  2 38  1  0
  1 39  1  0
  1 40  1  0
  1 41  1  0
 32  2  1  0
 10  5  1  0
 27 18  1  0
 26 21  1  0
M  END
>  <plip>  (1) 
-0.07142857142857142

>  <filename>  (1) 
[H][c]1[n][c]([H])[c]([C]2([H])[N]([C](=[O])[c]3[n][c]4[c]([H])[c]([H])[c]([H])[c]([H])[n]4[c]3[F])[C]([H])([H])[C]([H])([C]([H])([H])[H])[C]2([H])[H])[c]([H])[c]1[H]

$$$$
