
     RDKit          3D

 35 37  0  0  0  0  0  0  0  0999 V2000
    5.0205    1.7630   16.9994 H   0  0  0  0  0  0  0  0  0  0  0  0
    5.4806    1.2690   17.8530 C   0  0  0  0  0  0  0  0  0  0  0  0
    6.6486    0.6498   17.6210 N   0  0  0  0  0  0  0  0  0  0  0  0
    7.2380    0.0312   18.6526 C   0  0  0  0  0  0  0  0  0  0  0  0
    8.1906   -0.4516   18.4346 H   0  0  0  0  0  0  0  0  0  0  0  0
    6.6869   -0.0272   19.9456 C   0  0  0  0  0  0  0  0  0  0  0  0
    7.3904   -0.7654   21.0557 C   0  0  2  0  0  0  0  0  0  0  0  0
    6.9468   -0.4944   22.0263 H   0  0  0  0  0  0  0  0  0  0  0  0
    8.7714   -0.3849   21.0654 O   0  0  0  0  0  0  0  0  0  0  0  0
    9.5471   -1.4863   21.2299 C   0  0  0  0  0  0  0  0  0  0  0  0
   10.6928   -1.4705   21.5722 O   0  0  0  0  0  0  0  0  0  0  0  0
    8.8254   -2.6096   20.9519 N   0  0  0  0  0  0  0  0  0  0  0  0
    9.1465   -3.3960   21.4899 H   0  0  0  0  0  0  0  0  0  0  0  0
    7.4216   -2.3400   20.9466 C   0  0  1  0  0  0  0  0  0  0  0  0
    6.9501   -2.6203   19.9904 H   0  0  0  0  0  0  0  0  0  0  0  0
    6.7211   -3.1028   21.9521 N   0  0  0  0  0  0  0  0  0  0  0  0
    7.2676   -3.5923   23.1658 C   0  0  0  0  0  0  0  0  0  0  0  0
    6.8323   -4.8293   23.6744 C   0  0  0  0  0  0  0  0  0  0  0  0
    6.1006   -5.4033   23.1126 H   0  0  0  0  0  0  0  0  0  0  0  0
    7.3278   -5.3150   24.8886 C   0  0  0  0  0  0  0  0  0  0  0  0
    6.9505   -6.2508   25.2970 H   0  0  0  0  0  0  0  0  0  0  0  0
    8.2676   -4.5691   25.6109 C   0  0  0  0  0  0  0  0  0  0  0  0
    8.6497   -4.9439   26.5577 H   0  0  0  0  0  0  0  0  0  0  0  0
    8.6946   -3.3293   25.1227 C   0  0  0  0  0  0  0  0  0  0  0  0
    9.4024   -2.7227   25.6855 H   0  0  0  0  0  0  0  0  0  0  0  0
    8.2024   -2.8506   23.9056 C   0  0  0  0  0  0  0  0  0  0  0  0
    8.5196   -1.8908   23.5098 H   0  0  0  0  0  0  0  0  0  0  0  0
    5.2727   -3.0833   21.8016 C   0  0  0  0  0  0  0  0  0  0  0  0
    4.7876   -3.4864   22.6951 H   0  0  0  0  0  0  0  0  0  0  0  0
    4.9352   -3.6589   20.9296 H   0  0  0  0  0  0  0  0  0  0  0  0
    4.9293   -2.0534   21.6624 H   0  0  0  0  0  0  0  0  0  0  0  0
    5.4664    0.6232   20.1636 C   0  0  0  0  0  0  0  0  0  0  0  0
    5.0166    0.6300   21.1591 H   0  0  0  0  0  0  0  0  0  0  0  0
    4.8493    1.2828   19.0998 C   0  0  0  0  0  0  0  0  0  0  0  0
    3.9098    1.8105   19.2254 H   0  0  0  0  0  0  0  0  0  0  0  0
  1  2  1  0
  2  3  2  0
  3  4  1  0
  4  5  1  0
  4  6  2  0
  6  7  1  0
  7  8  1  1
  7  9  1  0
  9 10  1  0
 10 11  2  0
 10 12  1  0
 12 13  1  0
 12 14  1  0
 14 15  1  6
 14 16  1  0
 16 17  1  0
 17 18  2  0
 18 19  1  0
 18 20  1  0
 20 21  1  0
 20 22  2  0
 22 23  1  0
 22 24  1  0
 24 25  1  0
 24 26  2  0
 26 27  1  0
 16 28  1  0
 28 29  1  0
 28 30  1  0
 28 31  1  0
  6 32  1  0
 32 33  1  0
 32 34  2  0
 34 35  1  0
 34  2  1  0
 14  7  1  0
 26 17  1  0
M  END
>  <plip>  (1) 
-0.06896551724137931

>  <filename>  (1) 
[H][c]1[n][c]([H])[c]([C@]2([H])[O][C](=[O])[N]([H])[C@@]2([H])[N]([c]2[c]([H])[c]([H])[c]([H])[c]([H])[c]2[H])[C]([H])([H])[H])[c]([H])[c]1[H]

$$$$
