
     RDKit          3D

 38 41  0  0  0  0  0  0  0  0999 V2000
    7.5453    1.8615   22.2143 H   0  0  0  0  0  0  0  0  0  0  0  0
    8.5614    1.5262   21.9975 C   0  0  0  0  0  0  0  0  0  0  0  0
    9.5602    2.4021   22.2140 C   0  0  0  0  0  0  0  0  0  0  0  0
    9.3717    3.9668   23.0388 S   0  0  0  0  0  0  0  0  0  0  0  0
   11.0522    4.4137   22.7604 C   0  0  0  0  0  0  0  0  0  0  0  0
   11.7651    5.8076   23.2044 S   0  0  0  0  0  0  0  0  0  0  0  0
   11.6864    3.3889   22.1255 N   0  0  0  0  0  0  0  0  0  0  0  0
   12.6131    3.5057   21.7497 H   0  0  0  0  0  0  0  0  0  0  0  0
   10.9641    2.2823   21.7411 C   0  0  0  0  0  0  0  0  0  0  0  0
   11.4481    1.3874   21.0825 O   0  0  0  0  0  0  0  0  0  0  0  0
    8.6998    0.1211   21.4525 C   0  0  2  0  0  0  0  0  0  0  0  0
    9.2477    0.1735   20.4990 H   0  0  0  0  0  0  0  0  0  0  0  0
    7.2763   -0.4923   21.2011 C   0  0  1  0  0  0  0  0  0  0  0  0
    6.7010   -0.3403   22.1270 H   0  0  0  0  0  0  0  0  0  0  0  0
    6.5443    0.1857   20.0491 C   0  0  0  0  0  0  0  0  0  0  0  0
    7.1060    0.1518   18.7576 C   0  0  0  0  0  0  0  0  0  0  0  0
    8.0472   -0.3770   18.5948 H   0  0  0  0  0  0  0  0  0  0  0  0
    6.5702    0.7089   17.6654 N   0  0  0  0  0  0  0  0  0  0  0  0
    5.3949    1.3367   17.8184 C   0  0  0  0  0  0  0  0  0  0  0  0
    4.9738    1.8050   16.9297 H   0  0  0  0  0  0  0  0  0  0  0  0
    4.7169    1.3988   19.0386 C   0  0  0  0  0  0  0  0  0  0  0  0
    3.7627    1.9095   19.0955 H   0  0  0  0  0  0  0  0  0  0  0  0
    5.2989    0.8164   20.1716 C   0  0  0  0  0  0  0  0  0  0  0  0
    4.7894    0.8426   21.1356 H   0  0  0  0  0  0  0  0  0  0  0  0
    7.3368   -1.9969   20.8861 C   0  0  0  0  0  0  0  0  0  0  0  0
    6.3232   -2.4119   20.9303 H   0  0  0  0  0  0  0  0  0  0  0  0
    7.6696   -2.0606   19.8552 H   0  0  0  0  0  0  0  0  0  0  0  0
    8.2868   -2.8460   21.7416 C   0  0  1  0  0  0  0  0  0  0  0  0
    8.2034   -3.8988   21.4497 H   0  0  0  0  0  0  0  0  0  0  0  0
   10.0048   -2.3029   21.4471 S   0  0  0  0  0  0  0  0  0  0  0  0
    9.5866   -0.7896   22.3656 C   0  0  2  0  0  0  0  0  0  0  0  0
   10.5170   -0.2658   22.5962 H   0  0  0  0  0  0  0  0  0  0  0  0
    8.8842   -1.3309   23.6330 C   0  0  0  0  0  0  0  0  0  0  0  0
    8.2245   -0.5779   24.0787 H   0  0  0  0  0  0  0  0  0  0  0  0
    9.6515   -1.5563   24.3796 H   0  0  0  0  0  0  0  0  0  0  0  0
    8.1220   -2.6331   23.2562 C   0  0  0  0  0  0  0  0  0  0  0  0
    7.0661   -2.5864   23.5425 H   0  0  0  0  0  0  0  0  0  0  0  0
    8.5604   -3.4864   23.7852 H   0  0  0  0  0  0  0  0  0  0  0  0
  1  2  1  0
  2  3  2  3
  3  4  1  0
  4  5  1  0
  5  6  2  0
  5  7  1  0
  7  8  1  0
  7  9  1  0
  9 10  2  0
  2 11  1  0
 11 12  1  6
 11 13  1  0
 13 14  1  1
 13 15  1  0
 15 16  2  0
 16 17  1  0
 16 18  1  0
 18 19  2  0
 19 20  1  0
 19 21  1  0
 21 22  1  0
 21 23  2  0
 23 24  1  0
 13 25  1  0
 25 26  1  0
 25 27  1  0
 25 28  1  0
 28 29  1  1
 28 30  1  0
 30 31  1  0
 31 32  1  1
 31 33  1  0
 33 34  1  0
 33 35  1  0
 33 36  1  0
 36 37  1  0
 36 38  1  0
  9  3  1  0
 31 11  1  0
 23 15  1  0
 36 28  1  0
M  END
>  <plip>  (1) 
-0.07142857142857142

>  <filename>  (1) 
[H][C](=[C]1[S][C](=[S])[N]([H])[C]1=[O])[C@]1([H])[C@@]([H])([c]2[c]([H])[n][c]([H])[c]([H])[c]2[H])[C]([H])([H])[C@@]2([H])[S][C@]1([H])[C]([H])([H])[C]2([H])[H]

$$$$
