
     RDKit          3D

 45 45  0  0  0  0  0  0  0  0999 V2000
    6.9792    1.2999   23.6122 C   0  0  0  0  0  0  0  0  0  0  0  0
    7.5090    1.3880   22.3971 C   0  0  0  0  0  0  0  0  0  0  0  0
    8.3012    0.2697   21.7583 C   0  0  0  0  0  0  0  0  0  0  0  0
    7.4892   -0.7250   20.8955 C   0  0  1  0  0  0  0  0  0  0  0  0
    6.7049   -1.6265   21.7477 N   0  0  0  0  0  0  0  0  0  0  0  0
    5.9777   -2.9410   21.0563 S   0  0  0  0  0  0  0  0  0  0  0  0
    5.8806   -2.8262   19.6171 O   0  0  0  0  0  0  0  0  0  0  0  0
    4.7818   -3.0861   21.8618 O   0  0  0  0  0  0  0  0  0  0  0  0
    7.1218   -4.2461   21.3821 C   0  0  0  0  0  0  0  0  0  0  0  0
    7.2108   -4.7673   22.8357 C   0  0  0  0  0  0  0  0  0  0  0  0
    8.6313   -5.2966   23.0691 C   0  0  0  0  0  0  0  0  0  0  0  0
    8.7576   -5.7104   24.0745 H   0  0  0  0  0  0  0  0  0  0  0  0
    8.8867   -6.0780   22.3403 H   0  0  0  0  0  0  0  0  0  0  0  0
    9.3504   -4.4756   22.9549 H   0  0  0  0  0  0  0  0  0  0  0  0
    6.1145   -5.8273   23.0769 C   0  0  0  0  0  0  0  0  0  0  0  0
    6.0089   -6.0801   24.4573 O   0  0  0  0  0  0  0  0  0  0  0  0
    4.9648   -6.9333   24.8784 C   0  0  0  0  0  0  0  0  0  0  0  0
    4.9554   -6.8224   26.3831 C   0  0  0  0  0  0  0  0  0  0  0  0
    4.2036   -7.4808   26.8242 H   0  0  0  0  0  0  0  0  0  0  0  0
    5.9468   -7.0741   26.7699 H   0  0  0  0  0  0  0  0  0  0  0  0
    4.7279   -5.7850   26.6452 H   0  0  0  0  0  0  0  0  0  0  0  0
    3.9926   -6.6061   24.4801 H   0  0  0  0  0  0  0  0  0  0  0  0
    5.1328   -7.9696   24.5397 H   0  0  0  0  0  0  0  0  0  0  0  0
    6.3729   -6.7510   22.5243 H   0  0  0  0  0  0  0  0  0  0  0  0
    5.1587   -5.4527   22.6708 H   0  0  0  0  0  0  0  0  0  0  0  0
    7.0336   -3.9546   23.5599 H   0  0  0  0  0  0  0  0  0  0  0  0
    8.0650   -3.8498   20.9949 H   0  0  0  0  0  0  0  0  0  0  0  0
    6.7881   -5.0160   20.6785 H   0  0  0  0  0  0  0  0  0  0  0  0
    5.8513   -1.2242   22.1309 H   0  0  0  0  0  0  0  0  0  0  0  0
    6.6664   -0.0304   19.8403 C   0  0  0  0  0  0  0  0  0  0  0  0
    5.4939    0.6913   20.1072 C   0  0  0  0  0  0  0  0  0  0  0  0
    4.8618    1.3602   19.0537 C   0  0  0  0  0  0  0  0  0  0  0  0
    5.4380    1.3078   17.7779 C   0  0  0  0  0  0  0  0  0  0  0  0
    6.5743    0.6523   17.5102 N   0  0  0  0  0  0  0  0  0  0  0  0
    7.1571    0.0075   18.5304 C   0  0  0  0  0  0  0  0  0  0  0  0
    8.0877   -0.5034   18.2812 H   0  0  0  0  0  0  0  0  0  0  0  0
    4.9654    1.8104   16.9354 H   0  0  0  0  0  0  0  0  0  0  0  0
    3.9493    1.9237   19.2053 H   0  0  0  0  0  0  0  0  0  0  0  0
    5.1020    0.7588   21.1269 H   0  0  0  0  0  0  0  0  0  0  0  0
    8.2356   -1.3428   20.3819 H   0  0  0  0  0  0  0  0  0  0  0  0
    9.0716    0.6995   21.1074 H   0  0  0  0  0  0  0  0  0  0  0  0
    8.8143   -0.3227   22.5241 H   0  0  0  0  0  0  0  0  0  0  0  0
    7.3257    2.2733   21.7771 H   0  0  0  0  0  0  0  0  0  0  0  0
    7.1170    0.4025   24.2155 H   0  0  0  0  0  0  0  0  0  0  0  0
    6.4012    2.1037   24.0617 H   0  0  0  0  0  0  0  0  0  0  0  0
  1  2  2  3
  2  3  1  0
  3  4  1  0
  4  5  1  0
  5  6  1  0
  6  7  2  0
  6  8  2  0
  6  9  1  0
  9 10  1  0
 10 11  1  0
 11 12  1  0
 11 13  1  0
 11 14  1  0
 10 15  1  0
 15 16  1  0
 16 17  1  0
 17 18  1  0
 18 19  1  0
 18 20  1  0
 18 21  1  0
 17 22  1  0
 17 23  1  0
 15 24  1  0
 15 25  1  0
 10 26  1  0
  9 27  1  0
  9 28  1  0
  5 29  1  0
  4 30  1  0
 30 31  2  0
 31 32  1  0
 32 33  2  0
 33 34  1  0
 34 35  2  0
 35 36  1  0
 33 37  1  0
 32 38  1  0
 31 39  1  0
  4 40  1  6
  3 41  1  0
  3 42  1  0
  2 43  1  0
  1 44  1  0
  1 45  1  0
 35 30  1  0
M  END
>  <plip>  (1) 
-0.17857142857142858

>  <filename>  (1) 
[H][C]([H])=[C]([H])[C]([H])([H])[C@]([H])([c]1[c]([H])[n][c]([H])[c]([H])[c]1[H])[N]([H])[S](=[O])(=[O])[C]([H])([H])[C]([H])([C]([H])([H])[H])[C]([H])([H])[O][C]([H])([H])[C]([H])([H])[H]

$$$$
