
     RDKit          3D

 27 28  0  0  0  0  0  0  0  0999 V2000
    7.3136    5.5045   25.8355 H   0  0  0  0  0  0  0  0  0  0  0  0
    6.8340    5.1628   24.9234 C   0  0  0  0  0  0  0  0  0  0  0  0
    7.1740    3.9324   24.5361 N   0  0  0  0  0  0  0  0  0  0  0  0
    6.6101    3.4537   23.4115 C   0  0  0  0  0  0  0  0  0  0  0  0
    6.9876    2.1050   23.0275 C   0  0  0  0  0  0  0  0  0  0  0  0
    7.2759    0.9872   22.6544 C   0  0  0  0  0  0  0  0  0  0  0  0
    7.5909   -0.3291   22.1055 C   0  0  0  0  0  0  0  0  0  0  0  0
    7.3798   -0.7512   20.9175 N   0  0  0  0  0  0  0  0  0  0  0  0
    6.6832   -0.0145   19.9323 C   0  0  0  0  0  0  0  0  0  0  0  0
    7.1808    0.0369   18.6045 C   0  0  0  0  0  0  0  0  0  0  0  0
    8.1293   -0.4512   18.3796 H   0  0  0  0  0  0  0  0  0  0  0  0
    6.5749    0.6633   17.5899 N   0  0  0  0  0  0  0  0  0  0  0  0
    5.4076    1.2827   17.8501 C   0  0  0  0  0  0  0  0  0  0  0  0
    4.9337    1.7818   17.0069 H   0  0  0  0  0  0  0  0  0  0  0  0
    4.8209    1.2928   19.1160 C   0  0  0  0  0  0  0  0  0  0  0  0
    3.8879    1.8213   19.2634 H   0  0  0  0  0  0  0  0  0  0  0  0
    5.4634    0.6346   20.1730 C   0  0  0  0  0  0  0  0  0  0  0  0
    5.0459    0.6091   21.1778 H   0  0  0  0  0  0  0  0  0  0  0  0
    8.2305   -1.1572   22.9564 N   0  0  0  0  0  0  0  0  0  0  0  0
    8.4487   -0.8525   23.8819 H   0  0  0  0  0  0  0  0  0  0  0  0
    8.4787   -2.0443   22.5565 H   0  0  0  0  0  0  0  0  0  0  0  0
    5.6941    4.2026   22.6497 C   0  0  0  0  0  0  0  0  0  0  0  0
    5.2772    3.7737   21.7453 H   0  0  0  0  0  0  0  0  0  0  0  0
    5.3421    5.4881   23.0658 C   0  0  0  0  0  0  0  0  0  0  0  0
    4.6349    6.0916   22.4943 H   0  0  0  0  0  0  0  0  0  0  0  0
    5.9284    5.9793   24.2351 C   0  0  0  0  0  0  0  0  0  0  0  0
    5.7075    6.9676   24.6188 H   0  0  0  0  0  0  0  0  0  0  0  0
  1  2  1  0
  2  3  2  0
  3  4  1  0
  4  5  1  0
  5  6  3  0
  6  7  1  0
  7  8  2  3
  8  9  1  0
  9 10  2  0
 10 11  1  0
 10 12  1  0
 12 13  2  0
 13 14  1  0
 13 15  1  0
 15 16  1  0
 15 17  2  0
 17 18  1  0
  7 19  1  0
 19 20  1  0
 19 21  1  0
  4 22  2  0
 22 23  1  0
 22 24  1  0
 24 25  1  0
 24 26  2  0
 26 27  1  0
 26  2  1  0
 17  9  1  0
M  END
>  <plip>  (1) 
-0.03571428571428571

>  <filename>  (1) 
[H][c]1[n][c]([C]#[C][C](=[N][c]2[c]([H])[n][c]([H])[c]([H])[c]2[H])[N]([H])[H])[c]([H])[c]([H])[c]1[H]

$$$$
