
     RDKit          3D

 41 42  0  0  0  0  0  0  0  0999 V2000
    9.4163    0.7233   20.7451 C   0  0  0  0  0  0  0  0  0  0  0  0
    8.3889    0.1936   21.6873 N   0  0  0  0  0  4  0  0  0  0  0  0
    7.8508    1.2806   22.5345 C   0  0  0  0  0  0  0  0  0  0  0  0
    7.3193    2.0338   21.9379 H   0  0  0  0  0  0  0  0  0  0  0  0
    7.1554    0.8723   23.2749 H   0  0  0  0  0  0  0  0  0  0  0  0
    8.6690    1.7743   23.0685 H   0  0  0  0  0  0  0  0  0  0  0  0
    7.2772   -0.6688   21.1216 C   0  0  0  0  0  0  0  0  0  0  0  0
    7.8138   -2.0856   20.8035 C   0  0  0  0  0  0  0  0  0  0  0  0
    8.2114   -2.9126   21.9534 N   0  0  0  0  0  0  0  0  0  0  0  0
    9.2846   -2.6438   22.7401 C   0  0  0  0  0  0  0  0  0  0  0  0
    9.9909   -1.6593   22.5295 O   0  0  0  0  0  0  0  0  0  0  0  0
    9.5143   -3.5555   23.9565 C   0  0  0  0  0  0  0  0  0  0  0  0
   10.7395   -4.0907   24.1423 N   0  0  0  0  0  0  0  0  0  0  0  0
   10.8648   -5.0631   25.0581 C   0  0  0  0  0  0  0  0  0  0  0  0
    9.7454   -5.4991   25.8073 C   0  0  0  0  0  0  0  0  0  0  0  0
    8.5686   -4.8627   25.7262 N   0  0  0  0  0  0  0  0  0  0  0  0
    8.4802   -3.8201   24.8810 C   0  0  0  0  0  0  0  0  0  0  0  0
    7.2579   -2.8957   24.9812 C   0  0  0  0  0  0  0  0  0  0  0  0
    7.6137   -1.6627   24.5159 F   0  0  0  0  0  0  0  0  0  0  0  0
    6.2488   -3.3166   24.1931 F   0  0  0  0  0  0  0  0  0  0  0  0
    6.7664   -2.7377   26.2068 F   0  0  0  0  0  0  0  0  0  0  0  0
    9.8079   -6.3289   26.5057 H   0  0  0  0  0  0  0  0  0  0  0  0
   11.8593   -5.4730   25.2059 H   0  0  0  0  0  0  0  0  0  0  0  0
    7.5945   -3.6614   22.2189 H   0  0  0  0  0  0  0  0  0  0  0  0
    7.0252   -2.6259   20.2814 H   0  0  0  0  0  0  0  0  0  0  0  0
    8.6619   -1.9654   20.1231 H   0  0  0  0  0  0  0  0  0  0  0  0
    6.5724    0.0056   19.9627 C   0  0  0  0  0  0  0  0  0  0  0  0
    5.3713    0.7011   20.1521 C   0  0  0  0  0  0  0  0  0  0  0  0
    4.7820    1.3553   19.0671 C   0  0  0  0  0  0  0  0  0  0  0  0
    5.4233    1.3041   17.8247 C   0  0  0  0  0  0  0  0  0  0  0  0
    6.5728    0.6464   17.6209 N   0  0  0  0  0  0  0  0  0  0  0  0
    7.1241    0.0211   18.6706 C   0  0  0  0  0  0  0  0  0  0  0  0
    8.0713   -0.4811   18.4618 H   0  0  0  0  0  0  0  0  0  0  0  0
    4.9967    1.8063   16.9573 H   0  0  0  0  0  0  0  0  0  0  0  0
    3.8562    1.9101   19.1695 H   0  0  0  0  0  0  0  0  0  0  0  0
    4.9153    0.7403   21.1444 H   0  0  0  0  0  0  0  0  0  0  0  0
    6.5549   -0.7906   21.9436 H   0  0  0  0  0  0  0  0  0  0  0  0
    8.9588   -0.4695   22.2724 H   0  0  0  0  0  0  0  0  0  0  0  0
    8.9773    1.4132   20.0218 H   0  0  0  0  0  0  0  0  0  0  0  0
    9.9251   -0.0914   20.2159 H   0  0  0  0  0  0  0  0  0  0  0  0
   10.1772    1.2614   21.3228 H   0  0  0  0  0  0  0  0  0  0  0  0
  1  2  1  0
  2  3  1  0
  3  4  1  0
  3  5  1  0
  3  6  1  0
  2  7  1  0
  7  8  1  0
  8  9  1  0
  9 10  1  0
 10 11  2  0
 10 12  1  0
 12 13  2  0
 13 14  1  0
 14 15  2  0
 15 16  1  0
 16 17  2  0
 17 18  1  0
 18 19  1  0
 18 20  1  0
 18 21  1  0
 15 22  1  0
 14 23  1  0
  9 24  1  0
  8 25  1  0
  8 26  1  0
  7 27  1  0
 27 28  2  0
 28 29  1  0
 29 30  2  0
 30 31  1  0
 31 32  2  0
 32 33  1  0
 30 34  1  0
 29 35  1  0
 28 36  1  0
  7 37  1  0
  2 38  1  0
  1 39  1  0
  1 40  1  0
  1 41  1  0
 17 12  1  0
 32 27  1  0
M  CHG  1   2   1
M  END
>  <plip>  (1) 
-0.034482758620689655

>  <filename>  (1) 
[H][c]1[n][c]([C](=[O])[N]([H])[C]([H])([H])[C]([H])([c]2[c]([H])[n][c]([H])[c]([H])[c]2[H])[N+]([H])([C]([H])([H])[H])[C]([H])([H])[H])[c]([C]([F])([F])[F])[n][c]1[H]

$$$$
