
     RDKit          3D

 37 39  0  0  0  0  0  0  0  0999 V2000
    4.5978    0.3348   25.4291 H   0  0  0  0  0  0  0  0  0  0  0  0
    5.2021    1.0318   25.7273 O   0  0  0  0  0  0  0  0  0  0  0  0
    6.5079    0.6480   25.3198 C   0  0  2  0  0  0  0  0  0  0  0  0
    7.1600    1.4470   25.6832 H   0  0  0  0  0  0  0  0  0  0  0  0
    6.6401    0.5791   23.7886 C   0  0  0  0  0  0  0  0  0  0  0  0
    5.8580   -0.1164   23.4311 H   0  0  0  0  0  0  0  0  0  0  0  0
    6.3955    1.5594   23.3710 H   0  0  0  0  0  0  0  0  0  0  0  0
    7.9822    0.1689   23.3563 N   0  0  0  0  0  0  0  0  0  0  0  0
    8.1981    0.2860   21.9289 C   0  0  0  0  0  0  0  0  0  0  0  0
    7.4072   -0.6719   21.0071 C   0  0  0  0  0  0  0  0  0  0  0  0
    6.7036   -1.2465   21.6233 H   0  0  0  0  0  0  0  0  0  0  0  0
    8.1151   -1.4122   20.6110 H   0  0  0  0  0  0  0  0  0  0  0  0
    6.6477   -0.0118   19.8787 C   0  0  0  0  0  0  0  0  0  0  0  0
    7.1538    0.0530   18.5708 C   0  0  0  0  0  0  0  0  0  0  0  0
    8.1122   -0.4176   18.3480 H   0  0  0  0  0  0  0  0  0  0  0  0
    6.5524    0.6796   17.5486 N   0  0  0  0  0  0  0  0  0  0  0  0
    5.3933    1.3004   17.8223 C   0  0  0  0  0  0  0  0  0  0  0  0
    4.9149    1.7985   16.9818 H   0  0  0  0  0  0  0  0  0  0  0  0
    4.8040    1.3151   19.0899 C   0  0  0  0  0  0  0  0  0  0  0  0
    3.8744    1.8455   19.2457 H   0  0  0  0  0  0  0  0  0  0  0  0
    5.4380    0.6471   20.1394 C   0  0  0  0  0  0  0  0  0  0  0  0
    5.0189    0.6371   21.1513 H   0  0  0  0  0  0  0  0  0  0  0  0
    9.6211    0.5812   21.5423 C   0  0  0  0  0  0  0  0  0  0  0  0
   10.3562    0.6219   22.3408 H   0  0  0  0  0  0  0  0  0  0  0  0
    9.9950    0.1555   20.6140 H   0  0  0  0  0  0  0  0  0  0  0  0
    8.5812    1.6687   21.4690 C   0  0  0  0  0  0  0  0  0  0  0  0
    8.6136    2.4574   22.2134 H   0  0  0  0  0  0  0  0  0  0  0  0
    8.2533    2.0102   20.4909 H   0  0  0  0  0  0  0  0  0  0  0  0
    8.3376   -1.1449   23.8996 C   0  0  0  0  0  0  0  0  0  0  0  0
    7.6499   -1.9392   23.5465 H   0  0  0  0  0  0  0  0  0  0  0  0
    9.3364   -1.4024   23.5350 H   0  0  0  0  0  0  0  0  0  0  0  0
    8.3063   -1.1272   25.4313 C   0  0  0  0  0  0  0  0  0  0  0  0
    9.0847   -0.4466   25.7961 H   0  0  0  0  0  0  0  0  0  0  0  0
    8.5555   -2.1238   25.8083 H   0  0  0  0  0  0  0  0  0  0  0  0
    6.9316   -0.6813   25.9540 C   0  0  0  0  0  0  0  0  0  0  0  0
    6.1716   -1.4441   25.7130 H   0  0  0  0  0  0  0  0  0  0  0  0
    6.9249   -0.5795   27.0440 H   0  0  0  0  0  0  0  0  0  0  0  0
  1  2  1  0
  2  3  1  0
  3  4  1  1
  3  5  1  0
  5  6  1  0
  5  7  1  0
  5  8  1  0
  8  9  1  0
  9 10  1  0
 10 11  1  0
 10 12  1  0
 10 13  1  0
 13 14  2  0
 14 15  1  0
 14 16  1  0
 16 17  2  0
 17 18  1  0
 17 19  1  0
 19 20  1  0
 19 21  2  0
 21 22  1  0
  9 23  1  0
 23 24  1  0
 23 25  1  0
 23 26  1  0
 26 27  1  0
 26 28  1  0
  8 29  1  0
 29 30  1  0
 29 31  1  0
 29 32  1  0
 32 33  1  0
 32 34  1  0
 32 35  1  0
 35 36  1  0
 35 37  1  0
 35  3  1  0
 26  9  1  0
 21 13  1  0
M  END
>  <plip>  (1) 
-0.07142857142857142

>  <filename>  (1) 
[H][O][C@]1([H])[C]([H])([H])[N]([C]2([C]([H])([H])[c]3[c]([H])[n][c]([H])[c]([H])[c]3[H])[C]([H])([H])[C]2([H])[H])[C]([H])([H])[C]([H])([H])[C]1([H])[H]

$$$$
