
     RDKit          3D

 50 53  0  0  0  0  0  0  0  0999 V2000
    6.5245   -3.0226   20.7555 C   0  0  0  0  0  0  0  0  0  0  0  0
    6.6758   -1.8199   21.6032 N   0  0  0  0  0  4  0  0  0  0  0  0
    7.2274   -2.0919   22.9730 C   0  0  0  0  0  0  0  0  0  0  0  0
    7.9690   -0.8062   23.3813 C   0  0  0  0  0  0  0  0  0  0  0  0
    7.8547    0.1645   22.1808 C   0  0  1  0  0  0  0  0  0  0  0  0
    9.0776    1.0445   21.8969 C   0  0  0  0  0  0  0  0  0  0  0  0
    9.3457    1.9729   22.9738 N   0  0  0  0  0  0  0  0  0  0  0  0
    8.6259    3.1000   23.1942 C   0  0  0  0  0  0  0  0  0  0  0  0
    7.6243    3.3767   22.5593 O   0  0  0  0  0  0  0  0  0  0  0  0
    9.2331    3.9542   24.2838 C   0  0  1  0  0  0  0  0  0  0  0  0
   10.5942    4.5968   24.1518 C   0  0  0  0  0  0  0  0  0  0  0  0
    9.3525    5.4378   24.0631 C   0  0  2  0  0  0  0  0  0  0  0  0
    8.9874    6.3893   25.1591 C   0  0  0  0  0  0  0  0  0  0  0  0
    9.9241    7.2982   25.6609 C   0  0  0  0  0  0  0  0  0  0  0  0
    9.5382    8.1839   26.6691 C   0  0  0  0  0  0  0  0  0  0  0  0
    8.3075    8.2165   27.1962 N   0  0  0  0  0  0  0  0  0  0  0  0
    7.4044    7.3615   26.6953 C   0  0  0  0  0  0  0  0  0  0  0  0
    7.6895    6.4400   25.6834 C   0  0  0  0  0  0  0  0  0  0  0  0
    6.9221    5.7626   25.3217 H   0  0  0  0  0  0  0  0  0  0  0  0
    6.4071    7.4077   27.1314 H   0  0  0  0  0  0  0  0  0  0  0  0
   10.2601    8.8886   27.0772 H   0  0  0  0  0  0  0  0  0  0  0  0
   10.9368    7.2937   25.2777 H   0  0  0  0  0  0  0  0  0  0  0  0
    9.0656    5.7903   23.0711 H   0  0  0  0  0  0  0  0  0  0  0  0
   11.1657    4.6904   25.0709 H   0  0  0  0  0  0  0  0  0  0  0  0
   11.1966    4.4542   23.2559 H   0  0  0  0  0  0  0  0  0  0  0  0
    8.9780    3.6166   25.2887 H   0  0  0  0  0  0  0  0  0  0  0  0
   10.1553    1.8794   23.5524 H   0  0  0  0  0  0  0  0  0  0  0  0
    8.9127    1.5978   20.9614 H   0  0  0  0  0  0  0  0  0  0  0  0
    9.9735    0.4232   21.7683 H   0  0  0  0  0  0  0  0  0  0  0  0
    7.4901   -0.7062   20.9724 C   0  0  2  0  0  0  0  0  0  0  0  0
    6.6916   -0.0117   19.8872 C   0  0  0  0  0  0  0  0  0  0  0  0
    5.4632    0.6329   20.1252 C   0  0  0  0  0  0  0  0  0  0  0  0
    4.8285    1.2924   19.0705 C   0  0  0  0  0  0  0  0  0  0  0  0
    5.4292    1.2846   17.8064 C   0  0  0  0  0  0  0  0  0  0  0  0
    6.5783    0.6464   17.5486 N   0  0  0  0  0  0  0  0  0  0  0  0
    7.1752    0.0189   18.5703 C   0  0  0  0  0  0  0  0  0  0  0  0
    8.1018   -0.4960   18.3168 H   0  0  0  0  0  0  0  0  0  0  0  0
    4.9686    1.8143   16.9715 H   0  0  0  0  0  0  0  0  0  0  0  0
    3.8905    1.8194   19.2081 H   0  0  0  0  0  0  0  0  0  0  0  0
    5.0060    0.6422   21.1198 H   0  0  0  0  0  0  0  0  0  0  0  0
    8.3942   -1.1496   20.5314 H   0  0  0  0  0  0  0  0  0  0  0  0
    7.0062    0.8373   22.3773 H   0  0  0  0  0  0  0  0  0  0  0  0
    9.0054   -1.0517   23.6398 H   0  0  0  0  0  0  0  0  0  0  0  0
    7.5228   -0.3667   24.2784 H   0  0  0  0  0  0  0  0  0  0  0  0
    7.9066   -2.9511   22.9306 H   0  0  0  0  0  0  0  0  0  0  0  0
    6.4077   -2.3513   23.6509 H   0  0  0  0  0  0  0  0  0  0  0  0
    5.7436   -1.3587   21.7312 H   0  0  0  0  0  0  0  0  0  0  0  0
    7.5052   -3.4981   20.5977 H   0  0  0  0  0  0  0  0  0  0  0  0
    5.8685   -3.7631   21.2288 H   0  0  0  0  0  0  0  0  0  0  0  0
    6.1282   -2.7436   19.7733 H   0  0  0  0  0  0  0  0  0  0  0  0
  1  2  1  0
  2  3  1  0
  3  4  1  0
  4  5  1  0
  5  6  1  0
  6  7  1  0
  7  8  1  0
  8  9  2  0
  8 10  1  0
 10 11  1  0
 11 12  1  0
 12 13  1  0
 13 14  2  0
 14 15  1  0
 15 16  2  0
 16 17  1  0
 17 18  2  0
 18 19  1  0
 17 20  1  0
 15 21  1  0
 14 22  1  0
 12 23  1  6
 11 24  1  0
 11 25  1  0
 10 26  1  1
  7 27  1  0
  6 28  1  0
  6 29  1  0
  5 30  1  0
 30 31  1  0
 31 32  2  0
 32 33  1  0
 33 34  2  0
 34 35  1  0
 35 36  2  0
 36 37  1  0
 34 38  1  0
 33 39  1  0
 32 40  1  0
 30 41  1  6
  5 42  1  1
  4 43  1  0
  4 44  1  0
  3 45  1  0
  3 46  1  0
  2 47  1  0
  1 48  1  0
  1 49  1  0
  1 50  1  0
 30  2  1  0
 36 31  1  0
 12 10  1  0
 18 13  1  0
M  CHG  1   2   1
M  END
>  <plip>  (1) 
-0.14285714285714285

>  <filename>  (1) 
[H][c]1[n][c]([H])[c]([C@@]2([H])[C@]([H])([C]([H])([H])[N]([H])[C](=[O])[C@@]3([H])[C]([H])([H])[C@]3([H])[c]3[c]([H])[c]([H])[n][c]([H])[c]3[H])[C]([H])([H])[C]([H])([H])[N+]2([H])[C]([H])([H])[H])[c]([H])[c]1[H]

$$$$
