
     RDKit          3D

 44 47  0  0  0  0  0  0  0  0999 V2000
    4.8018    1.7025   16.9251 H   0  0  0  0  0  0  0  0  0  0  0  0
    5.3144    1.2557   17.7764 C   0  0  0  0  0  0  0  0  0  0  0  0
    6.4187    0.5520   17.4967 N   0  0  0  0  0  0  0  0  0  0  0  0
    7.0918    0.0143   18.5244 C   0  0  0  0  0  0  0  0  0  0  0  0
    7.9864   -0.5329   18.2293 H   0  0  0  0  0  0  0  0  0  0  0  0
    6.7263    0.1376   19.8902 C   0  0  0  0  0  0  0  0  0  0  0  0
    7.5403   -0.3902   21.1007 C   0  0  2  0  0  0  0  0  0  0  0  0
    8.2487    1.1508   21.9965 S   0  0  0  0  0  0  0  0  0  0  0  0
    8.7458    2.0608   20.9731 O   0  0  0  0  0  0  0  0  0  0  0  0
    7.2444    1.5957   22.9584 O   0  0  0  0  0  0  0  0  0  0  0  0
    9.6215    0.7065   22.9364 N   0  0  0  0  0  0  0  0  0  0  0  0
   10.9238    0.9423   22.2724 C   0  0  0  0  0  0  0  0  0  0  0  0
   11.1067    2.0186   22.1215 H   0  0  0  0  0  0  0  0  0  0  0  0
   10.9192    0.4885   21.2796 H   0  0  0  0  0  0  0  0  0  0  0  0
   12.0832    0.2998   23.0867 C   0  0  0  0  0  0  0  0  0  0  0  0
   12.2896   -0.7093   22.7140 H   0  0  0  0  0  0  0  0  0  0  0  0
   12.9903    0.9108   22.9444 H   0  0  0  0  0  0  0  0  0  0  0  0
   11.8279    0.1235   24.4750 O   0  0  0  0  0  0  0  0  0  0  0  0
   10.9940    1.1123   25.0381 C   0  0  0  0  0  0  0  0  0  0  0  0
   11.4997    2.0929   25.0096 H   0  0  0  0  0  0  0  0  0  0  0  0
   10.8578    0.8277   26.0855 H   0  0  0  0  0  0  0  0  0  0  0  0
    9.6000    1.2160   24.3447 C   0  0  0  0  0  0  0  0  0  0  0  0
    9.2668    2.2641   24.4034 H   0  0  0  0  0  0  0  0  0  0  0  0
    8.8676    0.6138   24.8922 H   0  0  0  0  0  0  0  0  0  0  0  0
    8.6509   -1.4510   20.7677 C   0  0  0  0  0  0  0  0  0  0  0  0
    8.6957   -1.6617   19.7011 H   0  0  0  0  0  0  0  0  0  0  0  0
    9.6472   -1.1157   21.0762 H   0  0  0  0  0  0  0  0  0  0  0  0
    8.2677   -2.6836   21.6237 C   0  0  2  0  0  0  0  0  0  0  0  0
    9.0991   -3.3761   21.7695 H   0  0  0  0  0  0  0  0  0  0  0  0
    6.9636   -3.3501   21.1372 C   0  0  0  0  0  0  0  0  0  0  0  0
    6.9150   -3.5999   20.0817 H   0  0  0  0  0  0  0  0  0  0  0  0
    6.7887   -4.2817   21.6858 H   0  0  0  0  0  0  0  0  0  0  0  0
    5.8905   -2.2882   21.4728 C   0  0  0  0  0  0  0  0  0  0  0  0
    5.1213   -2.6987   22.1312 H   0  0  0  0  0  0  0  0  0  0  0  0
    5.4055   -1.9128   20.5677 H   0  0  0  0  0  0  0  0  0  0  0  0
    6.6973   -1.1770   22.1742 C   0  0  1  0  0  0  0  0  0  0  0  0
    6.0929   -0.5347   22.8177 H   0  0  0  0  0  0  0  0  0  0  0  0
    7.7704   -2.0026   22.9052 C   0  0  0  0  0  0  0  0  0  0  0  0
    7.3429   -2.7005   23.6374 H   0  0  0  0  0  0  0  0  0  0  0  0
    8.5334   -1.4005   23.4112 H   0  0  0  0  0  0  0  0  0  0  0  0
    5.5494    0.8682   20.1370 C   0  0  0  0  0  0  0  0  0  0  0  0
    5.2086    1.0240   21.1593 H   0  0  0  0  0  0  0  0  0  0  0  0
    4.8296    1.4255   19.0734 C   0  0  0  0  0  0  0  0  0  0  0  0
    3.9300    2.0044   19.2384 H   0  0  0  0  0  0  0  0  0  0  0  0
  1  2  1  0
  2  3  2  0
  3  4  1  0
  4  5  1  0
  4  6  2  0
  7  6  1  6
  7  8  1  0
  8  9  2  0
  8 10  2  0
  8 11  1  0
 11 12  1  0
 12 13  1  0
 12 14  1  0
 12 15  1  0
 15 16  1  0
 15 17  1  0
 15 18  1  0
 18 19  1  0
 19 20  1  0
 19 21  1  0
 19 22  1  0
 22 23  1  0
 22 24  1  0
  7 25  1  0
 25 26  1  0
 25 27  1  0
 25 28  1  0
 28 29  1  1
 28 30  1  0
 30 31  1  0
 30 32  1  0
 30 33  1  0
 33 34  1  0
 33 35  1  0
 33 36  1  0
 36 37  1  1
 36 38  1  0
 38 39  1  0
 38 40  1  0
  6 41  1  0
 41 42  1  0
 41 43  2  0
 43 44  1  0
 43  2  1  0
 36  7  1  0
 22 11  1  0
 38 28  1  0
M  END
>  <plip>  (1) 
-0.10344827586206896

>  <filename>  (1) 
[H][c]1[n][c]([H])[c]([C@]2([S](=[O])(=[O])[N]3[C]([H])([H])[C]([H])([H])[O][C]([H])([H])[C]3([H])[H])[C]([H])([H])[C@]3([H])[C]([H])([H])[C]([H])([H])[C@@]2([H])[C]3([H])[H])[c]([H])[c]1[H]

$$$$
