
     RDKit          3D

 39 41  0  0  0  0  0  0  0  0999 V2000
    4.9202    1.7800   16.9988 H   0  0  0  0  0  0  0  0  0  0  0  0
    5.4006    1.2943   17.8425 C   0  0  0  0  0  0  0  0  0  0  0  0
    6.5661    0.6807   17.5800 N   0  0  0  0  0  0  0  0  0  0  0  0
    7.1668    0.0581   18.5950 C   0  0  0  0  0  0  0  0  0  0  0  0
    8.1134   -0.4340   18.3775 H   0  0  0  0  0  0  0  0  0  0  0  0
    6.6457    0.0276   19.8961 C   0  0  0  0  0  0  0  0  0  0  0  0
    7.3822   -0.7026   20.9113 C   0  0  0  0  0  0  0  0  0  0  0  0
    7.8001   -1.9243   20.7612 N   0  0  0  0  0  0  0  0  0  0  0  0
    8.4555   -2.1811   21.9265 N   0  0  0  0  0  0  0  0  0  0  0  0
    8.9308   -3.0492   22.0953 H   0  0  0  0  0  0  0  0  0  0  0  0
    8.5038   -1.1443   22.7840 C   0  0  0  0  0  0  0  0  0  0  0  0
    9.2906   -1.0924   24.2468 S   0  0  0  0  0  0  0  0  0  0  0  0
    7.7880   -0.1812   22.1199 N   0  0  0  0  0  0  0  0  0  0  0  0
    7.5764    1.1625   22.5895 C   0  0  0  0  0  0  0  0  0  0  0  0
    7.6551    1.8391   21.7338 H   0  0  0  0  0  0  0  0  0  0  0  0
    8.3936    1.4150   23.2803 H   0  0  0  0  0  0  0  0  0  0  0  0
    6.2800    1.3486   23.2182 N   0  0  0  0  0  0  0  0  0  0  0  0
    6.1863    0.6643   24.5085 C   0  0  0  0  0  0  0  0  0  0  0  0
    5.2240    0.8805   24.9882 H   0  0  0  0  0  0  0  0  0  0  0  0
    6.9798    0.9573   25.2209 H   0  0  0  0  0  0  0  0  0  0  0  0
    6.2384   -0.4154   24.3608 H   0  0  0  0  0  0  0  0  0  0  0  0
    5.8852    2.7779   23.3261 C   0  0  0  0  0  0  0  0  0  0  0  0
    4.8543    2.8154   23.7079 H   0  0  0  0  0  0  0  0  0  0  0  0
    5.8348    3.2129   22.3174 H   0  0  0  0  0  0  0  0  0  0  0  0
    6.7660    3.6516   24.2161 C   0  0  0  0  0  0  0  0  0  0  0  0
    7.8875    4.3092   23.6808 C   0  0  0  0  0  0  0  0  0  0  0  0
    8.1034    4.2250   22.6146 H   0  0  0  0  0  0  0  0  0  0  0  0
    8.7414    5.0525   24.4993 C   0  0  0  0  0  0  0  0  0  0  0  0
    9.6011    5.5530   24.0615 H   0  0  0  0  0  0  0  0  0  0  0  0
    8.4838    5.1579   25.8702 C   0  0  0  0  0  0  0  0  0  0  0  0
    9.1419    5.7456   26.5046 H   0  0  0  0  0  0  0  0  0  0  0  0
    7.3705    4.5120   26.4187 C   0  0  0  0  0  0  0  0  0  0  0  0
    7.1626    4.5900   27.4831 H   0  0  0  0  0  0  0  0  0  0  0  0
    6.5179    3.7670   25.5980 C   0  0  0  0  0  0  0  0  0  0  0  0
    5.6630    3.2531   26.0397 H   0  0  0  0  0  0  0  0  0  0  0  0
    5.4299    0.6673   20.1626 C   0  0  0  0  0  0  0  0  0  0  0  0
    5.0187    0.6429   21.1743 H   0  0  0  0  0  0  0  0  0  0  0  0
    4.7995    1.3158   19.1052 C   0  0  0  0  0  0  0  0  0  0  0  0
    3.8688    1.8460   19.2544 H   0  0  0  0  0  0  0  0  0  0  0  0
  1  2  1  0
  2  3  2  0
  3  4  1  0
  4  5  1  0
  4  6  2  0
  6  7  1  0
  7  8  2  0
  8  9  1  0
  9 10  1  0
  9 11  1  0
 11 12  2  0
 11 13  1  0
 13 14  1  0
 14 15  1  0
 14 16  1  0
 14 17  1  0
 17 18  1  0
 18 19  1  0
 18 20  1  0
 18 21  1  0
 17 22  1  0
 22 23  1  0
 22 24  1  0
 22 25  1  0
 25 26  2  0
 26 27  1  0
 26 28  1  0
 28 29  1  0
 28 30  2  0
 30 31  1  0
 30 32  1  0
 32 33  1  0
 32 34  2  0
 34 35  1  0
  6 36  1  0
 36 37  1  0
 36 38  2  0
 38 39  1  0
 38  2  1  0
 13  7  1  0
 34 25  1  0
M  END
>  <plip>  (1) 
-0.10344827586206896

>  <filename>  (1) 
[H][c]1[n][c]([H])[c](-[c]2[n][n]([H])[c](=[S])[n]2[C]([H])([H])[N]([C]([H])([H])[H])[C]([H])([H])[c]2[c]([H])[c]([H])[c]([H])[c]([H])[c]2[H])[c]([H])[c]1[H]

$$$$
