
     RDKit          3D

 34 35  0  0  0  0  0  0  0  0999 V2000
    4.9177    1.7889   16.9938 H   0  0  0  0  0  0  0  0  0  0  0  0
    5.4007    1.2954   17.8350 C   0  0  0  0  0  0  0  0  0  0  0  0
    6.5589    0.6737   17.5697 N   0  0  0  0  0  0  0  0  0  0  0  0
    7.1741    0.0565   18.5877 C   0  0  0  0  0  0  0  0  0  0  0  0
    8.1134   -0.4390   18.3596 H   0  0  0  0  0  0  0  0  0  0  0  0
    6.6892    0.0070   19.9137 C   0  0  0  0  0  0  0  0  0  0  0  0
    7.3200   -0.7005   20.9522 N   0  0  0  0  0  0  0  0  0  0  0  0
    8.4920   -0.4434   21.3961 C   0  0  0  0  0  0  0  0  0  0  0  0
    9.3327    0.7109   20.9114 C   0  0  0  0  0  0  0  0  0  0  0  0
    9.6335    0.5429   19.8749 H   0  0  0  0  0  0  0  0  0  0  0  0
   10.2168    0.8351   21.5368 H   0  0  0  0  0  0  0  0  0  0  0  0
    8.7473    1.6352   20.9121 H   0  0  0  0  0  0  0  0  0  0  0  0
    9.0330   -1.3322   22.4979 C   0  0  0  0  0  0  0  0  0  0  0  0
   10.1006   -1.1421   22.6347 H   0  0  0  0  0  0  0  0  0  0  0  0
    8.9166   -2.3721   22.1774 H   0  0  0  0  0  0  0  0  0  0  0  0
    8.2708   -1.0967   23.7863 C   0  0  0  0  0  0  0  0  0  0  0  0
    7.1848   -1.9153   24.0989 C   0  0  0  0  0  0  0  0  0  0  0  0
    6.9438   -2.7231   23.4122 H   0  0  0  0  0  0  0  0  0  0  0  0
    6.4045   -1.7004   25.2374 C   0  0  0  0  0  0  0  0  0  0  0  0
    5.5703   -2.3629   25.4632 H   0  0  0  0  0  0  0  0  0  0  0  0
    6.7135   -0.6260   26.0706 C   0  0  0  0  0  0  0  0  0  0  0  0
    6.1209   -0.4512   26.9653 H   0  0  0  0  0  0  0  0  0  0  0  0
    7.7778    0.2350   25.7672 C   0  0  0  0  0  0  0  0  0  0  0  0
    8.0129    1.0705   26.4205 H   0  0  0  0  0  0  0  0  0  0  0  0
    8.5521    0.0115   24.6194 C   0  0  0  0  0  0  0  0  0  0  0  0
    9.5968    0.8112   24.2276 O   0  0  0  0  0  0  0  0  0  0  0  0
    9.9629    1.9429   24.9952 C   0  0  0  0  0  0  0  0  0  0  0  0
    9.1600    2.6892   25.0593 H   0  0  0  0  0  0  0  0  0  0  0  0
   10.8077    2.3891   24.4714 H   0  0  0  0  0  0  0  0  0  0  0  0
   10.2823    1.6821   26.0130 H   0  0  0  0  0  0  0  0  0  0  0  0
    5.4595    0.6419   20.1662 C   0  0  0  0  0  0  0  0  0  0  0  0
    5.0385    0.6042   21.1702 H   0  0  0  0  0  0  0  0  0  0  0  0
    4.8203    1.3032   19.1099 C   0  0  0  0  0  0  0  0  0  0  0  0
    3.8871    1.8300   19.2635 H   0  0  0  0  0  0  0  0  0  0  0  0
  1  2  1  0
  2  3  2  0
  3  4  1  0
  4  5  1  0
  4  6  2  0
  6  7  1  0
  7  8  2  3
  8  9  1  0
  9 10  1  0
  9 11  1  0
  9 12  1  0
  8 13  1  0
 13 14  1  0
 13 15  1  0
 13 16  1  0
 16 17  2  0
 17 18  1  0
 17 19  1  0
 19 20  1  0
 19 21  2  0
 21 22  1  0
 21 23  1  0
 23 24  1  0
 23 25  2  0
 25 26  1  0
 26 27  1  0
 27 28  1  0
 27 29  1  0
 27 30  1  0
  6 31  1  0
 31 32  1  0
 31 33  2  0
 33 34  1  0
 33  2  1  0
 25 16  1  0
M  END
>  <plip>  (1) 
-0.03571428571428571

>  <filename>  (1) 
[H][c]1[n][c]([H])[c]([N]=[C]([C]([H])([H])[H])[C]([H])([H])[c]2[c]([H])[c]([H])[c]([H])[c]([H])[c]2[O][C]([H])([H])[H])[c]([H])[c]1[H]

$$$$
