
     RDKit          3D

 34 36  0  0  0  0  0  0  0  0999 V2000
    4.7935    1.3201   19.0880 C   0  0  0  0  0  0  0  0  0  0  0  0
    5.3935    1.2990   17.8241 C   0  0  0  0  0  0  0  0  0  0  0  0
    6.5550    0.6737   17.5721 N   0  0  0  0  0  0  0  0  0  0  0  0
    7.1583    0.0585   18.5979 C   0  0  0  0  0  0  0  0  0  0  0  0
    6.6431    0.0043   19.9052 C   0  0  0  0  0  0  0  0  0  0  0  0
    7.3709   -0.7211   20.9847 C   0  0  0  0  0  0  0  0  0  0  0  0
    6.6890   -1.5753   21.8499 C   0  0  0  0  0  0  0  0  0  0  0  0
    7.3712   -2.2681   22.8637 C   0  0  0  0  0  0  0  0  0  0  0  0
    6.6617   -3.1676   23.6354 N   0  0  0  0  0  0  0  0  0  0  0  0
    7.1286   -3.6549   24.9318 C   0  0  0  0  0  0  0  0  0  0  0  0
    7.3866   -2.6125   26.0250 C   0  0  0  0  0  0  0  0  0  0  0  0
    6.3505   -1.7937   26.5172 C   0  0  0  0  0  0  0  0  0  0  0  0
    6.6737   -0.8111   27.4386 C   0  0  0  0  0  0  0  0  0  0  0  0
    8.0253   -0.6882   27.7997 C   0  0  0  0  0  0  0  0  0  0  0  0
    8.9614   -1.5301   27.3527 N   0  0  0  0  0  0  0  0  0  0  0  0
    8.6449   -2.4876   26.4802 N   0  0  0  0  0  0  0  0  0  0  0  0
    8.3841    0.0423   28.5249 H   0  0  0  0  0  0  0  0  0  0  0  0
    5.9160   -0.1653   27.8787 H   0  0  0  0  0  0  0  0  0  0  0  0
    5.3420   -1.9599   26.1425 H   0  0  0  0  0  0  0  0  0  0  0  0
    8.0728   -4.2037   24.7972 H   0  0  0  0  0  0  0  0  0  0  0  0
    6.3786   -4.3705   25.2940 H   0  0  0  0  0  0  0  0  0  0  0  0
    5.6662   -3.1077   23.4696 H   0  0  0  0  0  0  0  0  0  0  0  0
    8.7527   -2.0818   23.0307 C   0  0  0  0  0  0  0  0  0  0  0  0
    9.4427   -1.2321   22.1638 C   0  0  0  0  0  0  0  0  0  0  0  0
    8.7577   -0.5660   21.1427 C   0  0  0  0  0  0  0  0  0  0  0  0
    9.2842    0.1018   20.4725 H   0  0  0  0  0  0  0  0  0  0  0  0
   10.5148   -1.1074   22.2888 H   0  0  0  0  0  0  0  0  0  0  0  0
    9.2539   -2.5966   23.8444 H   0  0  0  0  0  0  0  0  0  0  0  0
    5.6197   -1.7243   21.7348 H   0  0  0  0  0  0  0  0  0  0  0  0
    5.4231    0.6570   20.1420 C   0  0  0  0  0  0  0  0  0  0  0  0
    4.9980    0.6560   21.1462 H   0  0  0  0  0  0  0  0  0  0  0  0
    8.1042   -0.4269   18.3584 H   0  0  0  0  0  0  0  0  0  0  0  0
    4.9344    1.8018   16.9767 H   0  0  0  0  0  0  0  0  0  0  0  0
    3.8625    1.8542   19.2297 H   0  0  0  0  0  0  0  0  0  0  0  0
  1  2  2  0
  2  3  1  0
  3  4  2  0
  4  5  1  0
  5  6  1  0
  6  7  2  0
  7  8  1  0
  8  9  1  0
  9 10  1  0
 10 11  1  0
 11 12  2  0
 12 13  1  0
 13 14  2  0
 14 15  1  0
 15 16  2  0
 14 17  1  0
 13 18  1  0
 12 19  1  0
 10 20  1  0
 10 21  1  0
  9 22  1  0
  8 23  2  0
 23 24  1  0
 24 25  2  0
 25 26  1  0
 24 27  1  0
 23 28  1  0
  7 29  1  0
  5 30  2  0
 30 31  1  0
  4 32  1  0
  2 33  1  0
  1 34  1  0
 30  1  1  0
 25  6  1  0
 16 11  1  0
M  END
>  <plip>  (1) 
-0.07142857142857142

>  <filename>  (1) 
[H][c]1[n][n][c]([C]([H])([H])[N]([H])[c]2[c]([H])[c]([H])[c]([H])[c](-[c]3[c]([H])[n][c]([H])[c]([H])[c]3[H])[c]2[H])[c]([H])[c]1[H]

$$$$
