
     RDKit          3D

 25 25  0  0  0  0  0  0  0  0999 V2000
    8.9726   -0.2946   28.4275 H   0  0  0  0  0  0  0  0  0  0  0  0
    9.5842   -0.3815   27.6754 O   0  0  0  0  0  0  0  0  0  0  0  0
    8.8528    0.1964   26.7197 C   0  0  0  0  0  0  0  0  0  0  0  0
    7.7226    0.5558   26.9642 O   0  0  0  0  0  0  0  0  0  0  0  0
    9.5368    0.2995   25.3301 C   0  0  0  0  0  0  0  0  0  0  0  0
   10.8615    0.3927   25.2786 O   0  0  0  0  0  0  0  0  0  0  0  0
   11.1063    0.3938   24.3064 H   0  0  0  0  0  0  0  0  0  0  0  0
    8.7913    0.2976   24.1896 C   0  0  0  0  0  0  0  0  0  0  0  0
    7.7142    0.2148   24.2411 H   0  0  0  0  0  0  0  0  0  0  0  0
    9.4060    0.3897   22.8764 C   0  0  0  0  0  0  0  0  0  0  0  0
   10.6283    0.3071   22.7172 O   0  0  0  0  0  0  0  0  0  0  0  0
    8.5273    0.6651   21.6790 C   0  0  0  0  0  0  0  0  0  0  0  0
    7.8356    1.4774   21.9211 H   0  0  0  0  0  0  0  0  0  0  0  0
    9.1866    0.9683   20.8665 H   0  0  0  0  0  0  0  0  0  0  0  0
    7.5579   -0.8055   21.1928 S   0  0  0  0  0  0  0  0  0  0  0  0
    6.6433   -0.0291   19.8827 C   0  0  0  0  0  0  0  0  0  0  0  0
    7.1606    0.0120   18.5756 C   0  0  0  0  0  0  0  0  0  0  0  0
    8.0928   -0.5047   18.3480 H   0  0  0  0  0  0  0  0  0  0  0  0
    6.5719    0.6542   17.5574 N   0  0  0  0  0  0  0  0  0  0  0  0
    5.4176    1.2920   17.8122 C   0  0  0  0  0  0  0  0  0  0  0  0
    4.9640    1.8139   16.9720 H   0  0  0  0  0  0  0  0  0  0  0  0
    4.8013    1.2946   19.0686 C   0  0  0  0  0  0  0  0  0  0  0  0
    3.8669    1.8284   19.2081 H   0  0  0  0  0  0  0  0  0  0  0  0
    5.4229    0.6209   20.1251 C   0  0  0  0  0  0  0  0  0  0  0  0
    4.9832    0.6009   21.1220 H   0  0  0  0  0  0  0  0  0  0  0  0
  1  2  1  0
  2  3  1  0
  3  4  2  0
  3  5  1  0
  5  6  1  0
  6  7  1  0
  5  8  2  3
  8  9  1  0
  8 10  1  0
 10 11  2  0
 10 12  1  0
 12 13  1  0
 12 14  1  0
 12 15  1  0
 15 16  1  0
 16 17  2  0
 17 18  1  0
 17 19  1  0
 19 20  2  0
 20 21  1  0
 20 22  1  0
 22 23  1  0
 22 24  2  0
 24 25  1  0
 24 16  1  0
M  END
>  <plip>  (1) 
-0.0

>  <filename>  (1) 
[H][O][C](=[O])[C]([O][H])=[C]([H])[C](=[O])[C]([H])([H])[S][c]1[c]([H])[n][c]([H])[c]([H])[c]1[H]

$$$$
