
     RDKit          3D

 47 50  0  0  0  0  0  0  0  0999 V2000
    9.0960    5.4761   26.6053 C   0  0  0  0  0  0  0  0  0  0  0  0
    9.6388    4.7445   25.4150 C   0  0  0  0  0  0  0  0  0  0  0  0
   10.8746    4.9962   24.8624 C   0  0  0  0  0  0  0  0  0  0  0  0
   11.3559    4.2587   23.7307 C   0  0  0  0  0  0  0  0  0  0  0  0
   10.5767    3.2874   23.1633 C   0  0  0  0  0  0  0  0  0  0  0  0
    9.3294    3.0210   23.7022 N   0  0  0  0  0  0  0  0  0  0  0  0
    8.3471    2.0904   23.3344 C   0  0  0  0  0  0  0  0  0  0  0  0
    8.4479    1.2053   22.1453 C   0  0  0  0  0  0  0  0  0  0  0  0
    9.2079    1.3919   21.2036 O   0  0  0  0  0  0  0  0  0  0  0  0
    7.6104    0.1309   22.1763 N   0  0  0  0  0  0  0  0  0  0  0  0
    7.4066   -0.7058   21.0005 C   0  0  0  0  0  0  0  0  0  0  0  0
    6.6671   -2.0078   21.3336 C   0  0  0  0  0  0  0  0  0  0  0  0
    7.4369   -2.9346   22.2787 C   0  0  0  0  0  0  0  0  0  0  0  0
    6.7206   -4.2449   22.5401 C   0  0  0  0  0  0  0  0  0  0  0  0
    6.9293   -5.4049   21.5994 C   0  0  0  0  0  0  0  0  0  0  0  0
    7.5341   -5.4298   22.9826 C   0  0  0  0  0  0  0  0  0  0  0  0
    8.6109   -5.2902   23.0866 H   0  0  0  0  0  0  0  0  0  0  0  0
    7.1190   -6.1028   23.7303 H   0  0  0  0  0  0  0  0  0  0  0  0
    7.5900   -5.2438   20.7461 H   0  0  0  0  0  0  0  0  0  0  0  0
    6.0946   -6.0685   21.3777 H   0  0  0  0  0  0  0  0  0  0  0  0
    5.7234   -4.1306   22.9779 H   0  0  0  0  0  0  0  0  0  0  0  0
    7.6297   -2.4212   23.2342 H   0  0  0  0  0  0  0  0  0  0  0  0
    8.4253   -3.1509   21.8361 H   0  0  0  0  0  0  0  0  0  0  0  0
    6.4824   -2.5333   20.3849 H   0  0  0  0  0  0  0  0  0  0  0  0
    5.6689   -1.7730   21.7361 H   0  0  0  0  0  0  0  0  0  0  0  0
    6.6659    0.0437   19.9080 C   0  0  0  0  0  0  0  0  0  0  0  0
    5.4371    0.6723   20.1465 C   0  0  0  0  0  0  0  0  0  0  0  0
    4.7967    1.3160   19.0883 C   0  0  0  0  0  0  0  0  0  0  0  0
    5.3953    1.2905   17.8223 C   0  0  0  0  0  0  0  0  0  0  0  0
    6.5574    0.6739   17.5663 N   0  0  0  0  0  0  0  0  0  0  0  0
    7.1686    0.0778   18.6018 C   0  0  0  0  0  0  0  0  0  0  0  0
    8.1176   -0.4108   18.3710 H   0  0  0  0  0  0  0  0  0  0  0  0
    4.9252    1.7902   16.9774 H   0  0  0  0  0  0  0  0  0  0  0  0
    3.8625    1.8458   19.2347 H   0  0  0  0  0  0  0  0  0  0  0  0
    4.9956    0.6626   21.1467 H   0  0  0  0  0  0  0  0  0  0  0  0
    8.4052   -0.9550   20.6125 H   0  0  0  0  0  0  0  0  0  0  0  0
    6.9905    0.0364   22.9619 H   0  0  0  0  0  0  0  0  0  0  0  0
    7.3307    2.3023   24.2469 C   0  0  0  0  0  0  0  0  0  0  0  0
    7.6281    3.2772   25.1356 N   0  0  0  0  0  0  0  0  0  0  0  0
    8.8369    3.7117   24.8041 C   0  0  0  0  0  0  0  0  0  0  0  0
    6.3479    1.8457   24.3211 H   0  0  0  0  0  0  0  0  0  0  0  0
   10.8222    2.6892   22.2959 H   0  0  0  0  0  0  0  0  0  0  0  0
   12.3419    4.4796   23.3277 H   0  0  0  0  0  0  0  0  0  0  0  0
   11.5043    5.7581   25.3176 H   0  0  0  0  0  0  0  0  0  0  0  0
    8.2953    6.1610   26.3095 H   0  0  0  0  0  0  0  0  0  0  0  0
    9.8707    6.0531   27.1176 H   0  0  0  0  0  0  0  0  0  0  0  0
    8.6504    4.7737   27.3160 H   0  0  0  0  0  0  0  0  0  0  0  0
  1  2  1  0
  2  3  2  0
  3  4  1  0
  4  5  2  0
  5  6  1  0
  6  7  1  0
  7  8  1  0
  8  9  2  0
  8 10  1  0
 10 11  1  0
 11 12  1  0
 12 13  1  0
 13 14  1  0
 14 15  1  0
 15 16  1  0
 16 17  1  0
 16 18  1  0
 15 19  1  0
 15 20  1  0
 14 21  1  0
 13 22  1  0
 13 23  1  0
 12 24  1  0
 12 25  1  0
 11 26  1  0
 26 27  2  0
 27 28  1  0
 28 29  2  0
 29 30  1  0
 30 31  2  0
 31 32  1  0
 29 33  1  0
 28 34  1  0
 27 35  1  0
 11 36  1  0
 10 37  1  0
  7 38  2  0
 38 39  1  0
 39 40  2  0
 38 41  1  0
  5 42  1  0
  4 43  1  0
  3 44  1  0
  1 45  1  0
  1 46  1  0
  1 47  1  0
 40  2  1  0
 40  6  1  0
 16 14  1  0
 31 26  1  0
M  END
>  <plip>  (1) 
-0.17857142857142858

>  <filename>  (1) 
[H][c]1[n][c]([H])[c]([C]([H])([N]([H])[C](=[O])[c]2[c]([H])[n][c]3[c]([C]([H])([H])[H])[c]([H])[c]([H])[c]([H])[n]23)[C]([H])([H])[C]([H])([H])[C]2([H])[C]([H])([H])[C]2([H])[H])[c]([H])[c]1[H]

$$$$
