
     RDKit          3D

 25 26  0  0  0  0  0  0  0  0999 V2000
    8.7928    0.0123   20.0561 H   0  0  0  0  0  0  0  0  0  0  0  0
    8.3234   -0.7382   20.6767 C   0  0  0  0  0  0  0  0  0  0  0  0
    6.9626   -0.9252   20.5569 C   0  0  0  0  0  0  0  0  0  0  0  0
    6.0198   -2.1748   21.6584 Br  0  0  0  0  0  0  0  0  0  0  0  0
    6.2707   -0.0984   19.5695 C   0  0  0  0  0  0  0  0  0  0  0  0
    6.9015    0.1086   18.3370 C   0  0  0  0  0  0  0  0  0  0  0  0
    7.8492   -0.3908   18.1620 H   0  0  0  0  0  0  0  0  0  0  0  0
    6.4098    0.8962   17.3685 N   0  0  0  0  0  0  0  0  0  0  0  0
    5.2601    1.5481   17.6093 C   0  0  0  0  0  0  0  0  0  0  0  0
    4.8715    2.2160   16.8449 H   0  0  0  0  0  0  0  0  0  0  0  0
    4.5684    1.4100   18.8177 C   0  0  0  0  0  0  0  0  0  0  0  0
    3.6679    1.9962   18.9605 H   0  0  0  0  0  0  0  0  0  0  0  0
    5.0585    0.5607   19.8175 C   0  0  0  0  0  0  0  0  0  0  0  0
    4.5353    0.4675   20.7691 H   0  0  0  0  0  0  0  0  0  0  0  0
    9.1819   -1.3618   21.6472 C   0  0  0  0  0  0  0  0  0  0  0  0
    8.8888   -2.5392   22.1685 N   0  0  0  0  0  0  0  0  0  0  0  0
    9.7250   -2.9649   23.0724 C   0  0  0  0  0  0  0  0  0  0  0  0
    9.3565   -4.0551   23.6914 N   0  0  0  0  0  0  0  0  0  0  0  0
    9.8338   -4.0689   24.5783 H   0  0  0  0  0  0  0  0  0  0  0  0
    8.3489   -4.0711   23.6982 H   0  0  0  0  0  0  0  0  0  0  0  0
   10.6985   -2.3231   23.6551 N   0  0  0  0  0  0  0  0  0  0  0  0
   10.9835   -1.1372   23.1370 C   0  0  0  0  0  0  0  0  0  0  0  0
   11.7643   -0.5376   23.5965 H   0  0  0  0  0  0  0  0  0  0  0  0
   10.2699   -0.6299   22.0771 C   0  0  0  0  0  0  0  0  0  0  0  0
   10.4844    0.3540   21.6762 H   0  0  0  0  0  0  0  0  0  0  0  0
  1  2  1  0
  2  3  2  3
  3  4  1  0
  3  5  1  0
  5  6  2  0
  6  7  1  0
  6  8  1  0
  8  9  2  0
  9 10  1  0
  9 11  1  0
 11 12  1  0
 11 13  2  0
 13 14  1  0
  2 15  1  0
 15 16  2  0
 16 17  1  0
 17 18  1  0
 18 19  1  0
 18 20  1  0
 17 21  2  0
 21 22  1  0
 22 23  1  0
 22 24  2  0
 24 25  1  0
 13  5  1  0
 24 15  1  0
M  END
>  <plip>  (1) 
-0.0

>  <filename>  (1) 
[H][C](=[C]([Br])[c]1[c]([H])[n][c]([H])[c]([H])[c]1[H])[c]1[n][c]([N]([H])[H])[n][c]([H])[c]1[H]

$$$$
