
     RDKit          3D

 34 35  0  0  0  0  0  0  0  0999 V2000
    9.9610    6.1854   23.5246 C   0  0  0  0  0  0  0  0  0  0  0  0
   11.1423    5.2633   23.3884 C   0  0  0  0  0  0  0  0  0  0  0  0
   12.4043    5.6862   23.8482 C   0  0  0  0  0  0  0  0  0  0  0  0
   12.6996    7.4159   24.6223 Br  0  0  0  0  0  0  0  0  0  0  0  0
   13.5000    4.8213   23.7447 C   0  0  0  0  0  0  0  0  0  0  0  0
   13.4277    3.5938   23.2247 N   0  0  0  0  0  0  0  0  0  0  0  0
   12.2211    3.1765   22.8116 C   0  0  0  0  0  0  0  0  0  0  0  0
   11.0283    3.9508   22.8686 C   0  0  0  0  0  0  0  0  0  0  0  0
    9.7707    3.3900   22.4836 N   0  0  0  0  0  0  0  0  0  0  0  0
    9.6002    2.1129   21.9049 C   0  0  0  0  0  0  0  0  0  0  0  0
   10.6305    1.5951   21.4634 O   0  0  0  0  0  0  0  0  0  0  0  0
    8.3152    1.2879   21.8193 C   0  0  0  0  0  0  0  0  0  0  0  0
    7.2223    1.7222   22.1897 O   0  0  0  0  0  0  0  0  0  0  0  0
    8.3237   -0.0286   21.3230 N   0  0  0  0  0  0  0  0  0  0  0  0
    7.1262   -0.7865   20.9888 C   0  0  0  0  0  0  0  0  0  0  0  0
    6.4972   -0.0622   19.8432 C   0  0  0  0  0  0  0  0  0  0  0  0
    5.3053    0.6391   20.0130 C   0  0  0  0  0  0  0  0  0  0  0  0
    4.8181    1.3491   18.9203 C   0  0  0  0  0  0  0  0  0  0  0  0
    5.5150    1.3329   17.7080 C   0  0  0  0  0  0  0  0  0  0  0  0
    6.6587    0.6438   17.5415 N   0  0  0  0  0  0  0  0  0  0  0  0
    7.1442   -0.0297   18.5982 C   0  0  0  0  0  0  0  0  0  0  0  0
    8.0816   -0.5669   18.4793 H   0  0  0  0  0  0  0  0  0  0  0  0
    5.1209    1.9022   16.8728 H   0  0  0  0  0  0  0  0  0  0  0  0
    3.9104    1.9323   19.0024 H   0  0  0  0  0  0  0  0  0  0  0  0
    4.7918    0.6472   20.9747 H   0  0  0  0  0  0  0  0  0  0  0  0
    6.4419   -0.8732   21.8438 H   0  0  0  0  0  0  0  0  0  0  0  0
    7.3945   -1.8057   20.6805 H   0  0  0  0  0  0  0  0  0  0  0  0
    9.2029   -0.3728   20.9436 H   0  0  0  0  0  0  0  0  0  0  0  0
    8.9399    3.9734   22.5873 H   0  0  0  0  0  0  0  0  0  0  0  0
   12.1870    2.1631   22.4283 H   0  0  0  0  0  0  0  0  0  0  0  0
   14.4743    5.1313   24.1015 H   0  0  0  0  0  0  0  0  0  0  0  0
    9.5943    6.1398   24.5483 H   0  0  0  0  0  0  0  0  0  0  0  0
    9.1494    5.9190   22.8481 H   0  0  0  0  0  0  0  0  0  0  0  0
   10.2408    7.2162   23.3077 H   0  0  0  0  0  0  0  0  0  0  0  0
  1  2  1  0
  2  3  2  0
  3  4  1  0
  3  5  1  0
  5  6  2  0
  6  7  1  0
  7  8  2  0
  8  9  1  0
  9 10  1  0
 10 11  2  0
 10 12  1  0
 12 13  2  0
 12 14  1  0
 14 15  1  0
 15 16  1  0
 16 17  2  0
 17 18  1  0
 18 19  2  0
 19 20  1  0
 20 21  2  0
 21 22  1  0
 19 23  1  0
 18 24  1  0
 17 25  1  0
 15 26  1  0
 15 27  1  0
 14 28  1  0
  9 29  1  0
  7 30  1  0
  5 31  1  0
  1 32  1  0
  1 33  1  0
  1 34  1  0
  8  2  1  0
 21 16  1  0
M  END
>  <plip>  (1) 
-0.1

>  <filename>  (1) 
[H][c]1[n][c]([H])[c]([C]([H])([H])[N]([H])[C](=[O])[C](=[O])[N]([H])[c]2[c]([H])[n][c]([H])[c]([Br])[c]2[C]([H])([H])[H])[c]([H])[c]1[H]

$$$$
