
     RDKit          3D

 32 34  0  0  0  0  0  0  0  0999 V2000
    9.2869   -3.2969   21.3417 H   0  0  0  0  0  0  0  0  0  0  0  0
    8.7173   -2.4169   21.6203 C   0  0  0  0  0  0  0  0  0  0  0  0
    8.1059   -1.7599   20.6358 N   0  0  0  0  0  0  0  0  0  0  0  0
    7.3916   -0.6913   20.9876 C   0  0  0  0  0  0  0  0  0  0  0  0
    6.6570    0.0027   19.9187 C   0  0  0  0  0  0  0  0  0  0  0  0
    7.1768    0.0371   18.6132 C   0  0  0  0  0  0  0  0  0  0  0  0
    8.1220   -0.4458   18.3739 H   0  0  0  0  0  0  0  0  0  0  0  0
    6.5768    0.6613   17.5953 N   0  0  0  0  0  0  0  0  0  0  0  0
    5.4145    1.2821   17.8476 C   0  0  0  0  0  0  0  0  0  0  0  0
    4.9491    1.7864   17.0038 H   0  0  0  0  0  0  0  0  0  0  0  0
    4.8050    1.2986   19.1070 C   0  0  0  0  0  0  0  0  0  0  0  0
    3.8748    1.8364   19.2514 H   0  0  0  0  0  0  0  0  0  0  0  0
    5.4361    0.6482   20.1624 C   0  0  0  0  0  0  0  0  0  0  0  0
    4.9958    0.6366   21.1638 H   0  0  0  0  0  0  0  0  0  0  0  0
    7.3282   -0.2449   22.3043 C   0  0  0  0  0  0  0  0  0  0  0  0
    6.8035    0.6525   22.5892 H   0  0  0  0  0  0  0  0  0  0  0  0
    8.0186   -0.9968   23.2448 C   0  0  0  0  0  0  0  0  0  0  0  0
    8.0892   -0.6111   24.6581 C   0  0  0  0  0  0  0  0  0  0  0  0
    6.9467   -0.1433   25.3378 C   0  0  0  0  0  0  0  0  0  0  0  0
    5.7860   -0.0896   24.6673 O   0  0  0  0  0  0  0  0  0  0  0  0
    4.5901    0.3413   25.3242 C   0  0  0  0  0  0  0  0  0  0  0  0
    3.8246    0.2508   24.5571 H   0  0  0  0  0  0  0  0  0  0  0  0
    4.3443   -0.2890   26.1875 H   0  0  0  0  0  0  0  0  0  0  0  0
    4.6687    1.3815   25.6621 H   0  0  0  0  0  0  0  0  0  0  0  0
    6.9524    0.2439   26.6042 N   0  0  0  0  0  0  0  0  0  0  0  0
    8.1102    0.1940   27.2725 C   0  0  0  0  0  0  0  0  0  0  0  0
    8.0758    0.5240   28.3090 H   0  0  0  0  0  0  0  0  0  0  0  0
    9.2964   -0.2558   26.7064 C   0  0  0  0  0  0  0  0  0  0  0  0
   10.2017   -0.2766   27.3002 H   0  0  0  0  0  0  0  0  0  0  0  0
    9.2874   -0.6749   25.3778 C   0  0  0  0  0  0  0  0  0  0  0  0
   10.1955   -1.0394   24.8901 H   0  0  0  0  0  0  0  0  0  0  0  0
    8.7214   -2.0852   22.9057 N   0  0  0  0  0  0  0  0  0  0  0  0
  1  2  1  0
  2  3  2  0
  3  4  1  0
  4  5  1  0
  5  6  2  0
  6  7  1  0
  6  8  1  0
  8  9  2  0
  9 10  1  0
  9 11  1  0
 11 12  1  0
 11 13  2  0
 13 14  1  0
  4 15  2  0
 15 16  1  0
 15 17  1  0
 17 18  1  0
 18 19  2  0
 19 20  1  0
 20 21  1  0
 21 22  1  0
 21 23  1  0
 21 24  1  0
 19 25  1  0
 25 26  2  0
 26 27  1  0
 26 28  1  0
 28 29  1  0
 28 30  2  0
 30 31  1  0
 17 32  2  0
 32  2  1  0
 13  5  1  0
 30 18  1  0
M  END
>  <plip>  (1) 
-0.03333333333333333

>  <filename>  (1) 
[H][c]1[n][c](-[c]2[c]([H])[n][c]([H])[c]([H])[c]2[H])[c]([H])[c](-[c]2[c]([O][C]([H])([H])[H])[n][c]([H])[c]([H])[c]2[H])[n]1

$$$$
