
     RDKit          3D

 41 43  0  0  0  0  0  0  0  0999 V2000
   10.6464    0.9136   22.1725 O   0  0  0  0  0  0  0  0  0  0  0  0
    9.2281    1.0312   21.8882 S   0  0  0  0  0  0  0  0  0  0  0  0
    8.7190    2.1162   21.0884 O   0  0  0  0  0  0  0  0  0  0  0  0
    8.3862    1.0414   23.3580 N   0  0  0  0  0  0  0  0  0  0  0  0
    8.7076   -0.0794   24.2907 C   0  0  0  0  0  0  0  0  0  0  0  0
    8.2074    0.2189   25.7231 C   0  0  0  0  0  0  0  0  0  0  0  0
    8.8714    1.4809   26.3255 N   0  0  0  0  0  4  0  0  0  0  0  0
    9.2855    2.4723   25.2005 C   0  0  0  0  0  0  0  0  0  0  0  0
    8.3256    2.3786   23.9952 C   0  0  0  0  0  0  0  0  0  0  0  0
    7.2955    2.5331   24.3472 H   0  0  0  0  0  0  0  0  0  0  0  0
    8.5333    3.1762   23.2779 H   0  0  0  0  0  0  0  0  0  0  0  0
   10.2861    2.2058   24.8463 H   0  0  0  0  0  0  0  0  0  0  0  0
    9.2966    3.4856   25.5996 H   0  0  0  0  0  0  0  0  0  0  0  0
    8.1928    1.9675   26.9560 H   0  0  0  0  0  0  0  0  0  0  0  0
    9.6899    1.1917   26.9204 H   0  0  0  0  0  0  0  0  0  0  0  0
    8.3993   -0.6375   26.3680 H   0  0  0  0  0  0  0  0  0  0  0  0
    7.1257    0.3673   25.6671 H   0  0  0  0  0  0  0  0  0  0  0  0
    8.1904   -0.9892   23.9687 H   0  0  0  0  0  0  0  0  0  0  0  0
    9.7840   -0.3043   24.3315 H   0  0  0  0  0  0  0  0  0  0  0  0
    8.7013   -0.3876   21.2763 N   0  0  0  0  0  0  0  0  0  0  0  0
    9.5003   -1.5902   21.4865 C   0  0  0  0  0  0  0  0  0  0  0  0
    8.4654   -2.7165   21.5963 C   0  0  0  0  0  0  0  0  0  0  0  0
    7.1620   -2.1358   21.0215 C   0  0  0  0  0  0  0  0  0  0  0  0
    7.2588   -0.6091   21.1971 C   0  0  0  0  0  0  0  0  0  0  0  0
    6.6295    0.1696   20.0692 C   0  0  0  0  0  0  0  0  0  0  0  0
    5.3826    0.8052   20.1951 C   0  0  0  0  0  0  0  0  0  0  0  0
    4.7982    1.3697   19.0581 C   0  0  0  0  0  0  0  0  0  0  0  0
    5.4825    1.2985   17.8411 C   0  0  0  0  0  0  0  0  0  0  0  0
    6.6801    0.7121   17.7040 N   0  0  0  0  0  0  0  0  0  0  0  0
    7.2325    0.1813   18.8022 C   0  0  0  0  0  0  0  0  0  0  0  0
    8.2017   -0.2940   18.6521 H   0  0  0  0  0  0  0  0  0  0  0  0
    5.0453    1.7257   16.9376 H   0  0  0  0  0  0  0  0  0  0  0  0
    3.8376    1.8719   19.1049 H   0  0  0  0  0  0  0  0  0  0  0  0
    4.8830    0.8605   21.1650 H   0  0  0  0  0  0  0  0  0  0  0  0
    6.7620   -0.3079   22.1372 H   0  0  0  0  0  0  0  0  0  0  0  0
    6.2684   -2.5396   21.4970 H   0  0  0  0  0  0  0  0  0  0  0  0
    7.0693   -2.3587   19.9555 H   0  0  0  0  0  0  0  0  0  0  0  0
    8.3617   -3.0352   22.6396 H   0  0  0  0  0  0  0  0  0  0  0  0
    8.7859   -3.6003   21.0467 H   0  0  0  0  0  0  0  0  0  0  0  0
   10.1672   -1.7164   20.6308 H   0  0  0  0  0  0  0  0  0  0  0  0
   10.1393   -1.5328   22.3788 H   0  0  0  0  0  0  0  0  0  0  0  0
  1  2  2  0
  2  3  2  0
  2  4  1  0
  4  5  1  0
  5  6  1  0
  6  7  1  0
  7  8  1  0
  8  9  1  0
  9 10  1  0
  9 11  1  0
  8 12  1  0
  8 13  1  0
  7 14  1  0
  7 15  1  0
  6 16  1  0
  6 17  1  0
  5 18  1  0
  5 19  1  0
  2 20  1  0
 20 21  1  0
 21 22  1  0
 22 23  1  0
 23 24  1  0
 24 25  1  0
 25 26  2  0
 26 27  1  0
 27 28  2  0
 28 29  1  0
 29 30  2  0
 30 31  1  0
 28 32  1  0
 27 33  1  0
 26 34  1  0
 24 35  1  0
 23 36  1  0
 23 37  1  0
 22 38  1  0
 22 39  1  0
 21 40  1  0
 21 41  1  0
  9  4  1  0
 24 20  1  0
 30 25  1  0
M  CHG  1   7   1
M  END
>  <plip>  (1) 
-0.10714285714285714

>  <filename>  (1) 
[H][c]1[n][c]([H])[c]([C]2([H])[N]([S](=[O])(=[O])[N]3[C]([H])([H])[C]([H])([H])[N+]([H])([H])[C]([H])([H])[C]3([H])[H])[C]([H])([H])[C]([H])([H])[C]2([H])[H])[c]([H])[c]1[H]

$$$$
