
     RDKit          3D

 32 33  0  0  0  0  0  0  0  0999 V2000
    7.3987    1.6603   22.5420 O   0  0  0  0  0  0  0  0  0  0  0  0
    8.4747    1.2505   22.1221 C   0  0  0  0  0  0  0  0  0  0  0  0
    8.5959    0.0932   21.4198 N   0  0  0  0  0  0  0  0  0  0  0  0
    7.4275   -0.6843   21.0160 C   0  0  0  0  0  0  0  0  0  0  0  0
    6.6430   -0.0043   19.9076 C   0  0  0  0  0  0  0  0  0  0  0  0
    5.4248    0.6524   20.1420 C   0  0  0  0  0  0  0  0  0  0  0  0
    4.7858    1.3095   19.0853 C   0  0  0  0  0  0  0  0  0  0  0  0
    5.3936    1.2966   17.8279 C   0  0  0  0  0  0  0  0  0  0  0  0
    6.5600    0.6821   17.5812 N   0  0  0  0  0  0  0  0  0  0  0  0
    7.1617    0.0620   18.6048 C   0  0  0  0  0  0  0  0  0  0  0  0
    8.1153   -0.4107   18.3603 H   0  0  0  0  0  0  0  0  0  0  0  0
    4.9385    1.8048   16.9769 H   0  0  0  0  0  0  0  0  0  0  0  0
    3.8564    1.8541   19.2210 H   0  0  0  0  0  0  0  0  0  0  0  0
    5.0064    0.6772   21.1495 H   0  0  0  0  0  0  0  0  0  0  0  0
    6.7714   -0.8406   21.8805 H   0  0  0  0  0  0  0  0  0  0  0  0
    7.7876   -1.6706   20.7032 H   0  0  0  0  0  0  0  0  0  0  0  0
    9.5238   -0.1589   21.1104 H   0  0  0  0  0  0  0  0  0  0  0  0
    9.8631    2.0442   22.3722 C   0  0  0  0  0  0  0  0  0  0  0  0
   10.9091    1.6263   21.8968 O   0  0  0  0  0  0  0  0  0  0  0  0
    9.7810    3.1845   23.1335 N   0  0  0  0  0  0  0  0  0  0  0  0
   10.8147    4.1443   23.2884 C   0  0  0  0  0  0  0  0  0  0  0  0
   11.7291    4.3749   22.2510 C   0  0  0  0  0  0  0  0  0  0  0  0
   12.7085    5.3625   22.3740 C   0  0  0  0  0  0  0  0  0  0  0  0
   12.8626    6.0474   23.5832 C   0  0  0  0  0  0  0  0  0  0  0  0
   11.9898    5.7905   24.6498 C   0  0  0  0  0  0  0  0  0  0  0  0
   12.2614    6.5787   26.1731 Cl  0  0  0  0  0  0  0  0  0  0  0  0
   10.9146    4.9105   24.4697 C   0  0  0  0  0  0  0  0  0  0  0  0
    9.9653    4.7936   25.4133 F   0  0  0  0  0  0  0  0  0  0  0  0
   13.6323    6.8014   23.7080 H   0  0  0  0  0  0  0  0  0  0  0  0
   13.3546    5.5805   21.5223 H   0  0  0  0  0  0  0  0  0  0  0  0
   11.6453    3.7741   21.3514 H   0  0  0  0  0  0  0  0  0  0  0  0
    8.9105    3.3518   23.6207 H   0  0  0  0  0  0  0  0  0  0  0  0
  1  2  2  0
  2  3  1  0
  3  4  1  0
  4  5  1  0
  5  6  2  0
  6  7  1  0
  7  8  2  0
  8  9  1  0
  9 10  2  0
 10 11  1  0
  8 12  1  0
  7 13  1  0
  6 14  1  0
  4 15  1  0
  4 16  1  0
  3 17  1  0
  2 18  1  0
 18 19  2  0
 18 20  1  0
 20 21  1  0
 21 22  2  0
 22 23  1  0
 23 24  2  0
 24 25  1  0
 25 26  1  0
 25 27  2  0
 27 28  1  0
 24 29  1  0
 23 30  1  0
 22 31  1  0
 20 32  1  0
 10  5  1  0
 27 21  1  0
M  END
>  <plip>  (1) 
-0.07142857142857142

>  <filename>  (1) 
[H][c]1[n][c]([H])[c]([C]([H])([H])[N]([H])[C](=[O])[C](=[O])[N]([H])[c]2[c]([H])[c]([H])[c]([H])[c]([Cl])[c]2[F])[c]([H])[c]1[H]

$$$$
