
     RDKit          3D

 30 31  0  0  0  0  0  0  0  0999 V2000
    4.9063    1.7751   17.0010 H   0  0  0  0  0  0  0  0  0  0  0  0
    5.4024    1.2924   17.8410 C   0  0  0  0  0  0  0  0  0  0  0  0
    6.5670    0.6810   17.5802 N   0  0  0  0  0  0  0  0  0  0  0  0
    7.1880    0.0579   18.5976 C   0  0  0  0  0  0  0  0  0  0  0  0
    8.1334   -0.4360   18.3719 H   0  0  0  0  0  0  0  0  0  0  0  0
    6.6831   -0.0008   19.9157 C   0  0  0  0  0  0  0  0  0  0  0  0
    7.2618   -0.6498   20.9768 O   0  0  0  0  0  0  0  0  0  0  0  0
    8.5747   -1.2337   20.9162 C   0  0  2  0  0  0  0  0  0  0  0  0
    8.6759   -1.8610   20.0201 H   0  0  0  0  0  0  0  0  0  0  0  0
    8.6716   -2.1267   22.0786 C   0  0  0  0  0  0  0  0  0  0  0  0
    8.7959   -2.8401   23.0424 C   0  0  0  0  0  0  0  0  0  0  0  0
    8.9175   -3.6954   24.1960 C   0  0  0  0  0  0  0  0  0  0  0  0
    7.8261   -4.4811   24.6185 C   0  0  0  0  0  0  0  0  0  0  0  0
    6.8877   -4.4382   24.0719 H   0  0  0  0  0  0  0  0  0  0  0  0
    7.9469   -5.3104   25.7360 C   0  0  0  0  0  0  0  0  0  0  0  0
    7.1014   -5.9134   26.0570 H   0  0  0  0  0  0  0  0  0  0  0  0
    9.1532   -5.3639   26.4418 C   0  0  0  0  0  0  0  0  0  0  0  0
    9.2436   -6.0074   27.3107 H   0  0  0  0  0  0  0  0  0  0  0  0
   10.2419   -4.5895   26.0297 C   0  0  0  0  0  0  0  0  0  0  0  0
   11.1791   -4.6371   26.5759 H   0  0  0  0  0  0  0  0  0  0  0  0
   10.1282   -3.7581   24.9134 C   0  0  0  0  0  0  0  0  0  0  0  0
   10.9745   -3.1559   24.5949 H   0  0  0  0  0  0  0  0  0  0  0  0
    9.6731   -0.1755   20.9480 C   0  0  0  0  0  0  0  0  0  0  0  0
   10.6546   -0.6558   20.9537 H   0  0  0  0  0  0  0  0  0  0  0  0
    9.6016    0.4772   20.0789 H   0  0  0  0  0  0  0  0  0  0  0  0
    9.5668    0.4296   21.8498 H   0  0  0  0  0  0  0  0  0  0  0  0
    5.4545    0.6427   20.1646 C   0  0  0  0  0  0  0  0  0  0  0  0
    5.0227    0.6192   21.1634 H   0  0  0  0  0  0  0  0  0  0  0  0
    4.8132    1.3053   19.1150 C   0  0  0  0  0  0  0  0  0  0  0  0
    3.8744    1.8427   19.2683 H   0  0  0  0  0  0  0  0  0  0  0  0
  1  2  1  0
  2  3  2  0
  3  4  1  0
  4  5  1  0
  4  6  2  0
  6  7  1  0
  7  8  1  0
  8  9  1  6
  8 10  1  0
 10 11  3  0
 11 12  1  0
 12 13  2  0
 13 14  1  0
 13 15  1  0
 15 16  1  0
 15 17  2  0
 17 18  1  0
 17 19  1  0
 19 20  1  0
 19 21  2  0
 21 22  1  0
  8 23  1  0
 23 24  1  0
 23 25  1  0
 23 26  1  0
  6 27  1  0
 27 28  1  0
 27 29  2  0
 29 30  1  0
 29  2  1  0
 21 12  1  0
M  END
>  <plip>  (1) 
-0.07142857142857142

>  <filename>  (1) 
[H][c]1[n][c]([H])[c]([O][C@]([H])([C]#[C][c]2[c]([H])[c]([H])[c]([H])[c]([H])[c]2[H])[C]([H])([H])[H])[c]([H])[c]1[H]

$$$$
