
     RDKit          3D

 27 28  0  0  0  0  0  0  0  0999 V2000
    5.9609   -0.9921   22.3325 H   0  0  0  0  0  0  0  0  0  0  0  0
    7.0025   -1.0967   22.0190 C   0  0  0  0  0  0  0  0  0  0  0  0
    7.4407   -0.6933   20.8846 N   0  0  0  0  0  0  0  0  0  0  0  0
    6.6550   -0.0105   19.9267 C   0  0  0  0  0  0  0  0  0  0  0  0
    7.1642    0.0603   18.6012 C   0  0  0  0  0  0  0  0  0  0  0  0
    8.1135   -0.4278   18.4020 H   0  0  0  0  0  0  0  0  0  0  0  0
    6.5636    0.6740   17.5785 N   0  0  0  0  0  0  0  0  0  0  0  0
    5.3961    1.2946   17.8374 C   0  0  0  0  0  0  0  0  0  0  0  0
    4.9192    1.7873   16.9913 H   0  0  0  0  0  0  0  0  0  0  0  0
    4.8081    1.3060   19.1064 C   0  0  0  0  0  0  0  0  0  0  0  0
    3.8767    1.8398   19.2583 H   0  0  0  0  0  0  0  0  0  0  0  0
    5.4346    0.6399   20.1735 C   0  0  0  0  0  0  0  0  0  0  0  0
    5.0028    0.6429   21.1774 H   0  0  0  0  0  0  0  0  0  0  0  0
    7.8655   -1.8003   23.0170 C   0  0  0  0  0  0  0  0  0  0  0  0
    7.2786   -2.2175   24.1739 N   0  0  0  0  0  0  0  0  0  0  0  0
    8.0647   -2.8388   25.0475 C   0  0  0  0  0  0  0  0  0  0  0  0
    7.5854   -3.2885   26.2241 O   0  0  0  0  0  0  0  0  0  0  0  0
    6.2166   -3.1028   26.5573 C   0  0  0  0  0  0  0  0  0  0  0  0
    5.9419   -2.0458   26.6092 H   0  0  0  0  0  0  0  0  0  0  0  0
    6.0938   -3.5506   27.5411 H   0  0  0  0  0  0  0  0  0  0  0  0
    5.5461   -3.6015   25.8522 H   0  0  0  0  0  0  0  0  0  0  0  0
    9.4414   -3.0926   24.8458 C   0  0  0  0  0  0  0  0  0  0  0  0
   10.0016   -3.6111   25.6141 H   0  0  0  0  0  0  0  0  0  0  0  0
   10.0232   -2.6690   23.6645 C   0  0  0  0  0  0  0  0  0  0  0  0
   11.0796   -2.8359   23.4419 H   0  0  0  0  0  0  0  0  0  0  0  0
    9.2158   -2.0092   22.7351 C   0  0  0  0  0  0  0  0  0  0  0  0
    9.6043   -1.6483   21.7944 H   0  0  0  0  0  0  0  0  0  0  0  0
  1  2  1  0
  2  3  2  3
  3  4  1  0
  4  5  2  0
  5  6  1  0
  5  7  1  0
  7  8  2  0
  8  9  1  0
  8 10  1  0
 10 11  1  0
 10 12  2  0
 12 13  1  0
  2 14  1  0
 14 15  2  0
 15 16  1  0
 16 17  1  0
 17 18  1  0
 18 19  1  0
 18 20  1  0
 18 21  1  0
 16 22  2  0
 22 23  1  0
 22 24  1  0
 24 25  1  0
 24 26  2  0
 26 27  1  0
 12  4  1  0
 26 14  1  0
M  END
>  <plip>  (1) 
-0.03571428571428571

>  <filename>  (1) 
[H][C](=[N][c]1[c]([H])[n][c]([H])[c]([H])[c]1[H])[c]1[n][c]([O][C]([H])([H])[H])[c]([H])[c]([H])[c]1[H]

$$$$
