
     RDKit          3D

 48 50  0  0  0  0  0  0  0  0999 V2000
    3.8031   -5.8278   28.4724 C   0  0  0  0  0  0  0  0  0  0  0  0
    5.0985   -5.8835   27.7580 N   0  0  0  0  0  4  0  0  0  0  0  0
    6.2091   -5.0680   28.4037 C   0  0  0  0  0  0  0  0  0  0  0  0
    7.0371   -4.4907   27.2401 C   0  0  0  0  0  0  0  0  0  0  0  0
    6.4597   -5.0742   25.9323 C   0  0  0  0  0  0  0  0  0  0  0  0
    6.5339   -4.1259   24.7112 C   0  0  0  0  0  0  0  0  0  0  0  0
    7.9561   -3.6829   24.3138 C   0  0  0  0  0  0  0  0  0  0  0  0
    7.9105   -2.6318   23.1864 C   0  0  0  0  0  0  0  0  0  0  0  0
    7.0105   -3.0532   22.0859 N   0  0  0  0  0  0  0  0  0  0  0  0
    6.6042   -2.2311   21.0612 C   0  0  0  0  0  0  0  0  0  0  0  0
    5.7647   -2.5970   20.2405 O   0  0  0  0  0  0  0  0  0  0  0  0
    7.2328   -0.7716   21.0402 C   0  0  0  0  0  0  0  0  0  0  0  0
    8.6605   -0.7599   20.9698 O   0  0  0  0  0  0  0  0  0  0  0  0
    8.9065    0.1611   20.7891 H   0  0  0  0  0  0  0  0  0  0  0  0
    6.6825    0.0910   19.9419 C   0  0  0  0  0  0  0  0  0  0  0  0
    5.4529    0.7178   20.1449 C   0  0  0  0  0  0  0  0  0  0  0  0
    4.8338    1.3399   19.0648 C   0  0  0  0  0  0  0  0  0  0  0  0
    5.4801    1.3326   17.8226 C   0  0  0  0  0  0  0  0  0  0  0  0
    6.6726    0.7512   17.6102 N   0  0  0  0  0  0  0  0  0  0  0  0
    7.2567    0.1563   18.6606 C   0  0  0  0  0  0  0  0  0  0  0  0
    8.2122   -0.3307   18.4645 H   0  0  0  0  0  0  0  0  0  0  0  0
    5.0187    1.8139   16.9614 H   0  0  0  0  0  0  0  0  0  0  0  0
    3.8696    1.8195   19.1710 H   0  0  0  0  0  0  0  0  0  0  0  0
    5.0016    0.6937   21.1385 H   0  0  0  0  0  0  0  0  0  0  0  0
    6.8926   -0.3406   22.0018 H   0  0  0  0  0  0  0  0  0  0  0  0
    6.4988   -4.4285   22.1330 C   0  0  0  0  0  0  0  0  0  0  0  0
    5.8019   -4.7115   23.4688 C   0  0  0  0  0  0  0  0  0  0  0  0
    4.7819   -4.3089   23.4392 H   0  0  0  0  0  0  0  0  0  0  0  0
    5.6987   -5.7993   23.5510 H   0  0  0  0  0  0  0  0  0  0  0  0
    7.3377   -5.1274   21.9973 H   0  0  0  0  0  0  0  0  0  0  0  0
    5.8086   -4.5821   21.3013 H   0  0  0  0  0  0  0  0  0  0  0  0
    8.9207   -2.4280   22.8066 H   0  0  0  0  0  0  0  0  0  0  0  0
    7.5497   -1.6835   23.6139 H   0  0  0  0  0  0  0  0  0  0  0  0
    8.4982   -3.2654   25.1700 H   0  0  0  0  0  0  0  0  0  0  0  0
    8.5427   -4.5490   23.9767 H   0  0  0  0  0  0  0  0  0  0  0  0
    5.9957   -3.2086   25.0105 H   0  0  0  0  0  0  0  0  0  0  0  0
    5.0214   -5.4275   26.3219 C   0  0  0  0  0  0  0  0  0  0  0  0
    4.3799   -4.5360   26.2773 H   0  0  0  0  0  0  0  0  0  0  0  0
    4.5774   -6.2047   25.6904 H   0  0  0  0  0  0  0  0  0  0  0  0
    6.9818   -6.0157   25.6942 H   0  0  0  0  0  0  0  0  0  0  0  0
    8.1027   -4.7108   27.3531 H   0  0  0  0  0  0  0  0  0  0  0  0
    6.9313   -3.3985   27.2348 H   0  0  0  0  0  0  0  0  0  0  0  0
    5.7452   -4.2734   28.9924 H   0  0  0  0  0  0  0  0  0  0  0  0
    6.7821   -5.7027   29.0865 H   0  0  0  0  0  0  0  0  0  0  0  0
    5.4303   -6.8692   27.7374 H   0  0  0  0  0  0  0  0  0  0  0  0
    3.0437   -6.4469   27.9795 H   0  0  0  0  0  0  0  0  0  0  0  0
    3.9031   -6.1333   29.5205 H   0  0  0  0  0  0  0  0  0  0  0  0
    3.4338   -4.7932   28.4656 H   0  0  0  0  0  0  0  0  0  0  0  0
  1  2  1  0
  2  3  1  0
  3  4  1  0
  4  5  1  0
  5  6  1  0
  6  7  1  0
  7  8  1  0
  8  9  1  0
  9 10  1  0
 10 11  2  0
 10 12  1  0
 12 13  1  0
 13 14  1  0
 12 15  1  0
 15 16  2  0
 16 17  1  0
 17 18  2  0
 18 19  1  0
 19 20  2  0
 20 21  1  0
 18 22  1  0
 17 23  1  0
 16 24  1  0
 12 25  1  0
  9 26  1  0
 26 27  1  0
 27 28  1  0
 27 29  1  0
 26 30  1  0
 26 31  1  0
  8 32  1  0
  8 33  1  0
  7 34  1  0
  7 35  1  0
  6 36  1  0
  5 37  1  0
 37 38  1  0
 37 39  1  0
  5 40  1  0
  4 41  1  0
  4 42  1  0
  3 43  1  0
  3 44  1  0
  2 45  1  0
  1 46  1  0
  1 47  1  0
  1 48  1  0
 37  2  1  0
 27  6  1  0
 20 15  1  0
M  CHG  1   2   1
M  END
>  <plip>  (1) 
-0.10714285714285714

>  <filename>  (1) 
[H][O][C]([H])([C](=[O])[N]1[C]([H])([H])[C]([H])([H])[C]([H])([C]2([H])[C]([H])([H])[C]([H])([H])[N+]([H])([C]([H])([H])[H])[C]2([H])[H])[C]([H])([H])[C]1([H])[H])[c]1[c]([H])[n][c]([H])[c]([H])[c]1[H]

$$$$
