
     RDKit          3D

 32 34  0  0  0  0  0  0  0  0999 V2000
    5.0500    1.8900   16.7107 H   0  0  0  0  0  0  0  0  0  0  0  0
    5.4044    1.3697   17.5993 C   0  0  0  0  0  0  0  0  0  0  0  0
    6.5505    0.6830   17.4660 N   0  0  0  0  0  0  0  0  0  0  0  0
    7.0249    0.0595   18.5486 C   0  0  0  0  0  0  0  0  0  0  0  0
    7.9611   -0.4882   18.4399 H   0  0  0  0  0  0  0  0  0  0  0  0
    6.3771    0.0838   19.7861 C   0  0  0  0  0  0  0  0  0  0  0  0
    7.0414   -0.6348   20.8924 C   0  0  0  0  0  0  0  0  0  0  0  0
    7.9417   -1.4201   20.7679 O   0  0  0  0  0  0  0  0  0  0  0  0
    6.4563   -0.2522   22.0992 O   0  0  0  0  0  0  0  0  0  0  0  0
    6.9926   -0.6692   23.3405 N   0  0  0  0  0  0  0  0  0  0  0  0
    6.6449   -1.6091   23.5096 H   0  0  0  0  0  0  0  0  0  0  0  0
    8.4047   -0.6452   23.3971 C   0  0  0  0  0  0  0  0  0  0  0  0
    9.0724   -1.8148   23.6872 C   0  0  0  0  0  0  0  0  0  0  0  0
    8.4979   -2.6902   23.9650 H   0  0  0  0  0  0  0  0  0  0  0  0
   10.4762   -1.8864   23.5466 C   0  0  0  0  0  0  0  0  0  0  0  0
   10.9608   -2.8438   23.7116 H   0  0  0  0  0  0  0  0  0  0  0  0
   11.2057   -0.7630   23.2271 C   0  0  0  0  0  0  0  0  0  0  0  0
   12.2869   -0.8051   23.1279 H   0  0  0  0  0  0  0  0  0  0  0  0
   10.5559    0.4946   23.0425 C   0  0  0  0  0  0  0  0  0  0  0  0
   11.2742    1.7138   22.8149 C   0  0  0  0  0  0  0  0  0  0  0  0
   12.3626    1.6980   22.8083 H   0  0  0  0  0  0  0  0  0  0  0  0
   10.6001    2.9014   22.6295 C   0  0  0  0  0  0  0  0  0  0  0  0
   11.1472    3.8280   22.4658 H   0  0  0  0  0  0  0  0  0  0  0  0
    9.1795    2.9423   22.6645 C   0  0  0  0  0  0  0  0  0  0  0  0
    8.6587    3.8845   22.5121 H   0  0  0  0  0  0  0  0  0  0  0  0
    8.4555    1.7978   22.8977 C   0  0  0  0  0  0  0  0  0  0  0  0
    7.3709    1.8117   22.9582 H   0  0  0  0  0  0  0  0  0  0  0  0
    9.1246    0.5521   23.1029 C   0  0  0  0  0  0  0  0  0  0  0  0
    5.1714    0.7846   19.9218 C   0  0  0  0  0  0  0  0  0  0  0  0
    4.6546    0.8116   20.8810 H   0  0  0  0  0  0  0  0  0  0  0  0
    4.6789    1.4414   18.7952 C   0  0  0  0  0  0  0  0  0  0  0  0
    3.7612    2.0172   18.8425 H   0  0  0  0  0  0  0  0  0  0  0  0
  1  2  1  0
  2  3  2  0
  3  4  1  0
  4  5  1  0
  4  6  2  0
  6  7  1  0
  7  8  2  0
  7  9  1  0
  9 10  1  0
 10 11  1  0
 10 12  1  0
 12 13  2  0
 13 14  1  0
 13 15  1  0
 15 16  1  0
 15 17  2  0
 17 18  1  0
 17 19  1  0
 19 20  2  0
 20 21  1  0
 20 22  1  0
 22 23  1  0
 22 24  2  0
 24 25  1  0
 24 26  1  0
 26 27  1  0
 26 28  2  0
  6 29  1  0
 29 30  1  0
 29 31  2  0
 31 32  1  0
 31  2  1  0
 28 12  1  0
 28 19  1  0
M  END
>  <plip>  (1) 
-0.07142857142857142

>  <filename>  (1) 
[H][c]1[n][c]([H])[c]([C](=[O])[O][N]([H])[c]2[c]([H])[c]([H])[c]([H])[c]3[c]([H])[c]([H])[c]([H])[c]([H])[c]23)[c]([H])[c]1[H]

$$$$
