
     RDKit          3D

 20 21  0  0  0  0  0  0  0  0999 V2000
   11.0209    2.4252   22.4097 H   0  0  0  0  0  0  0  0  0  0  0  0
   10.0907    1.8721   22.3046 C   0  0  0  0  0  0  0  0  0  0  0  0
    9.0223    2.0825   23.0079 N   0  0  0  0  0  0  0  0  0  0  0  0
    8.0269    1.2154   22.6307 C   0  0  0  0  0  0  0  0  0  0  0  0
    7.0585    1.2730   23.1150 H   0  0  0  0  0  0  0  0  0  0  0  0
    8.3528    0.3278   21.6544 C   0  0  0  0  0  0  0  0  0  0  0  0
    7.4254   -0.6480   20.9972 C   0  0  0  0  0  0  0  0  0  0  0  0
    8.1270   -1.7119   20.5128 F   0  0  0  0  0  0  0  0  0  0  0  0
    6.5570   -1.1621   21.9260 F   0  0  0  0  0  0  0  0  0  0  0  0
    6.6404   -0.0038   19.8957 C   0  0  0  0  0  0  0  0  0  0  0  0
    7.1808    0.0538   18.6075 C   0  0  0  0  0  0  0  0  0  0  0  0
    8.1273   -0.4358   18.3802 H   0  0  0  0  0  0  0  0  0  0  0  0
    6.5738    0.6781   17.5917 N   0  0  0  0  0  0  0  0  0  0  0  0
    5.4056    1.2896   17.8476 C   0  0  0  0  0  0  0  0  0  0  0  0
    4.9119    1.7712   17.0061 H   0  0  0  0  0  0  0  0  0  0  0  0
    4.8043    1.3134   19.1127 C   0  0  0  0  0  0  0  0  0  0  0  0
    3.8727    1.8452   19.2659 H   0  0  0  0  0  0  0  0  0  0  0  0
    5.4360    0.6540   20.1591 C   0  0  0  0  0  0  0  0  0  0  0  0
    4.9995    0.6309   21.1577 H   0  0  0  0  0  0  0  0  0  0  0  0
    9.9706    0.5948   21.1339 S   0  0  0  0  0  0  0  0  0  0  0  0
  1  2  1  0
  2  3  2  0
  3  4  1  0
  4  5  1  0
  4  6  2  0
  6  7  1  0
  7  8  1  0
  7  9  1  0
  7 10  1  0
 10 11  2  0
 11 12  1  0
 11 13  1  0
 13 14  2  0
 14 15  1  0
 14 16  1  0
 16 17  1  0
 16 18  2  0
 18 19  1  0
  6 20  1  0
 20  2  1  0
 18 10  1  0
M  END
>  <plip>  (1) 
-0.034482758620689655

>  <filename>  (1) 
[H][c]1[n][c]([H])[c]([C]([F])([F])[c]2[c]([H])[n][c]([H])[c]([H])[c]2[H])[s]1

$$$$
