
     RDKit          3D

 25 27  0  0  0  0  0  0  0  0999 V2000
    5.0042    1.9096   16.8303 H   0  0  0  0  0  0  0  0  0  0  0  0
    5.4331    1.3655   17.6705 C   0  0  0  0  0  0  0  0  0  0  0  0
    6.5959    0.7299   17.4432 N   0  0  0  0  0  0  0  0  0  0  0  0
    7.1562    0.0751   18.4616 C   0  0  0  0  0  0  0  0  0  0  0  0
    8.0891   -0.4470   18.2679 H   0  0  0  0  0  0  0  0  0  0  0  0
    6.6054    0.0286   19.7495 C   0  0  0  0  0  0  0  0  0  0  0  0
    7.3131   -0.5967   20.8151 N   0  0  0  0  0  0  0  0  0  0  0  0
    8.2831   -1.5211   20.6051 N   0  0  0  0  0  0  0  0  0  0  0  0
    8.6800   -1.9526   21.7443 N   0  0  0  0  0  0  0  0  0  0  0  0
    7.9825   -1.3113   22.7328 C   0  0  0  0  0  0  0  0  0  0  0  0
    8.0514   -1.6487   24.1461 C   0  0  0  0  0  0  0  0  0  0  0  0
    7.4857   -1.0015   25.1129 N   0  0  0  0  0  0  0  0  0  0  0  0
    7.7974   -1.6866   26.2704 N   0  0  0  0  0  0  0  0  0  0  0  0
    8.5041   -2.7098   25.9204 C   0  0  0  0  0  0  0  0  0  0  0  0
    9.1365   -3.6697   26.8579 C   0  0  0  0  0  0  0  0  0  0  0  0
    9.8841   -3.0984   27.4054 H   0  0  0  0  0  0  0  0  0  0  0  0
    9.6433   -4.5002   26.3648 H   0  0  0  0  0  0  0  0  0  0  0  0
    8.3942   -4.0081   27.5853 H   0  0  0  0  0  0  0  0  0  0  0  0
    8.7151   -2.7571   24.5859 O   0  0  0  0  0  0  0  0  0  0  0  0
    7.1325   -0.4146   22.1391 C   0  0  0  0  0  0  0  0  0  0  0  0
    6.4589    0.3208   22.5574 H   0  0  0  0  0  0  0  0  0  0  0  0
    5.3693    0.6453   19.9764 C   0  0  0  0  0  0  0  0  0  0  0  0
    4.8808    0.5931   20.9501 H   0  0  0  0  0  0  0  0  0  0  0  0
    4.7856    1.3331   18.9093 C   0  0  0  0  0  0  0  0  0  0  0  0
    3.8490    1.8622   19.0375 H   0  0  0  0  0  0  0  0  0  0  0  0
  1  2  1  0
  2  3  2  0
  3  4  1  0
  4  5  1  0
  4  6  2  0
  6  7  1  0
  7  8  1  0
  8  9  2  0
  9 10  1  0
 10 11  1  0
 11 12  2  0
 12 13  1  0
 13 14  2  0
 14 15  1  0
 15 16  1  0
 15 17  1  0
 15 18  1  0
 14 19  1  0
 10 20  2  0
 20 21  1  0
  6 22  1  0
 22 23  1  0
 22 24  2  0
 24 25  1  0
 24  2  1  0
 20  7  1  0
 19 11  1  0
M  END
>  <plip>  (1) 
-0.034482758620689655

>  <filename>  (1) 
[H][c]1[n][c]([H])[c](-[n]2[n][n][c](-[c]3[n][n][c]([C]([H])([H])[H])[o]3)[c]2[H])[c]([H])[c]1[H]

$$$$
