
     RDKit          3D

 34 36  0  0  0  0  0  0  0  0999 V2000
    6.9674    1.7749   22.1374 H   0  0  0  0  0  0  0  0  0  0  0  0
    7.3605    0.9780   22.7756 C   0  0  0  0  0  0  0  0  0  0  0  0
    7.5825   -0.2568   22.3053 C   0  0  0  0  0  0  0  0  0  0  0  0
    7.3773   -0.7673   20.9244 C   0  0  0  0  0  0  0  0  0  0  0  0
    6.6509    0.0096   19.9023 C   0  0  0  0  0  0  0  0  0  0  0  0
    7.1695    0.0530   18.6052 C   0  0  0  0  0  0  0  0  0  0  0  0
    8.1134   -0.4368   18.3796 H   0  0  0  0  0  0  0  0  0  0  0  0
    6.5720    0.6770   17.5879 N   0  0  0  0  0  0  0  0  0  0  0  0
    5.4057    1.2916   17.8430 C   0  0  0  0  0  0  0  0  0  0  0  0
    4.9236    1.7783   16.9983 H   0  0  0  0  0  0  0  0  0  0  0  0
    4.8014    1.3099   19.1058 C   0  0  0  0  0  0  0  0  0  0  0  0
    3.8692    1.8452   19.2558 H   0  0  0  0  0  0  0  0  0  0  0  0
    5.4359    0.6598   20.1623 C   0  0  0  0  0  0  0  0  0  0  0  0
    4.9989    0.6404   21.1669 H   0  0  0  0  0  0  0  0  0  0  0  0
    7.8803   -1.9206   20.7000 N   0  0  0  0  0  0  0  0  0  0  0  0
    8.4677   -2.4373   21.9375 C   0  0  0  0  0  0  0  0  0  0  0  0
    8.0216   -3.4066   22.1655 H   0  0  0  0  0  0  0  0  0  0  0  0
    9.5319   -2.5982   21.7610 H   0  0  0  0  0  0  0  0  0  0  0  0
    8.2253   -1.4047   23.0653 C   0  0  0  0  0  0  0  0  0  0  0  0
    7.5595   -1.7999   23.8414 H   0  0  0  0  0  0  0  0  0  0  0  0
    9.1568   -1.0958   23.5526 H   0  0  0  0  0  0  0  0  0  0  0  0
    7.6176    1.3629   24.2161 C   0  0  1  0  0  0  0  0  0  0  0  0
    8.6549    1.0897   24.4702 H   0  0  0  0  0  0  0  0  0  0  0  0
    7.4634    2.7994   24.4338 N   0  0  0  0  0  0  0  0  0  0  0  0
    6.6365    3.0787   23.9107 H   0  0  0  0  0  0  0  0  0  0  0  0
    7.2108    2.9713   25.8622 C   0  0  0  0  0  0  0  0  0  0  0  0
    8.1687    3.0937   26.3848 H   0  0  0  0  0  0  0  0  0  0  0  0
    6.6369    3.8860   26.0401 H   0  0  0  0  0  0  0  0  0  0  0  0
    6.4827    1.7031   26.3594 C   0  0  0  0  0  0  0  0  0  0  0  0
    5.4195    1.9003   26.5209 H   0  0  0  0  0  0  0  0  0  0  0  0
    6.9010    1.3584   27.3085 H   0  0  0  0  0  0  0  0  0  0  0  0
    6.6819    0.6695   25.2373 C   0  0  0  0  0  0  0  0  0  0  0  0
    7.1073   -0.2711   25.5964 H   0  0  0  0  0  0  0  0  0  0  0  0
    5.7288    0.4188   24.7600 H   0  0  0  0  0  0  0  0  0  0  0  0
  1  2  1  0
  2  3  2  3
  3  4  1  0
  4  5  1  0
  5  6  2  0
  6  7  1  0
  6  8  1  0
  8  9  2  0
  9 10  1  0
  9 11  1  0
 11 12  1  0
 11 13  2  0
 13 14  1  0
  4 15  2  0
 15 16  1  0
 16 17  1  0
 16 18  1  0
 16 19  1  0
 19 20  1  0
 19 21  1  0
  2 22  1  0
 22 23  1  1
 22 24  1  0
 24 25  1  0
 24 26  1  0
 26 27  1  0
 26 28  1  0
 26 29  1  0
 29 30  1  0
 29 31  1  0
 29 32  1  0
 32 33  1  0
 32 34  1  0
 19  3  1  0
 32 22  1  0
 13  5  1  0
M  END
>  <plip>  (1) 
-0.0

>  <filename>  (1) 
[H][C](=[C]1[C]([c]2[c]([H])[n][c]([H])[c]([H])[c]2[H])=[N][C]([H])([H])[C]1([H])[H])[C@@]1([H])[N]([H])[C]([H])([H])[C]([H])([H])[C]1([H])[H]

$$$$
