
     RDKit          3D

 32 33  0  0  0  0  0  0  0  0999 V2000
    6.8323    3.3907   26.9607 H   0  0  0  0  0  0  0  0  0  0  0  0
    6.7595    2.4395   27.1706 O   0  0  0  0  0  0  0  0  0  0  0  0
    6.9679    1.9165   25.9587 C   0  0  0  0  0  0  0  0  0  0  0  0
    7.1971    2.6549   25.0311 O   0  0  0  0  0  0  0  0  0  0  0  0
    6.8683    0.3311   25.8649 C   0  0  0  0  0  0  0  0  0  0  0  0
    6.4446   -0.3456   26.8032 O   0  0  0  0  0  0  0  0  0  0  0  0
    7.2671   -0.2590   24.6116 C   0  0  0  0  0  0  0  0  0  0  0  0
    7.7589    0.3743   23.8876 H   0  0  0  0  0  0  0  0  0  0  0  0
    6.9932   -1.5483   24.3026 C   0  0  0  0  0  0  0  0  0  0  0  0
    6.3469   -2.3314   25.1426 O   0  0  0  0  0  0  0  0  0  0  0  0
    6.2696   -1.7930   25.9801 H   0  0  0  0  0  0  0  0  0  0  0  0
    7.3766   -2.2162   22.9562 C   0  0  1  0  0  0  0  0  0  0  0  0
    7.0386   -3.2511   23.1055 H   0  0  0  0  0  0  0  0  0  0  0  0
    6.6967   -1.6073   21.7719 C   0  0  0  0  0  0  0  0  0  0  0  0
    5.6330   -1.7538   21.6825 H   0  0  0  0  0  0  0  0  0  0  0  0
    7.3526   -0.8026   20.9142 C   0  0  0  0  0  0  0  0  0  0  0  0
    6.6931   -0.0030   19.8715 C   0  0  0  0  0  0  0  0  0  0  0  0
    7.2231    0.0759   18.5692 C   0  0  0  0  0  0  0  0  0  0  0  0
    8.1700   -0.4141   18.3336 H   0  0  0  0  0  0  0  0  0  0  0  0
    6.6206    0.7032   17.5540 N   0  0  0  0  0  0  0  0  0  0  0  0
    5.4552    1.3168   17.8202 C   0  0  0  0  0  0  0  0  0  0  0  0
    4.9808    1.8154   16.9810 H   0  0  0  0  0  0  0  0  0  0  0  0
    4.8510    1.3266   19.0824 C   0  0  0  0  0  0  0  0  0  0  0  0
    3.9171    1.8572   19.2290 H   0  0  0  0  0  0  0  0  0  0  0  0
    5.4766    0.6560   20.1312 C   0  0  0  0  0  0  0  0  0  0  0  0
    5.0617    0.6624   21.1438 H   0  0  0  0  0  0  0  0  0  0  0  0
    8.7361   -0.7065   21.0095 N   0  0  0  0  0  0  0  0  0  0  0  0
    9.2368    0.0267   20.5436 H   0  0  0  0  0  0  0  0  0  0  0  0
    9.4933   -1.3451   21.9334 C   0  0  0  0  0  0  0  0  0  0  0  0
   11.1223   -1.0652   22.0743 S   0  0  0  0  0  0  0  0  0  0  0  0
    8.8385   -2.2230   22.7177 N   0  0  0  0  0  0  0  0  0  0  0  0
    9.4539   -2.5834   23.4310 H   0  0  0  0  0  0  0  0  0  0  0  0
  1  2  1  0
  2  3  1  0
  3  4  2  0
  3  5  1  0
  5  6  2  0
  5  7  1  0
  7  8  1  0
  7  9  2  3
  9 10  1  0
 10 11  1  0
  9 12  1  0
 12 13  1  1
 12 14  1  0
 14 15  1  0
 14 16  2  0
 16 17  1  0
 17 18  2  0
 18 19  1  0
 18 20  1  0
 20 21  2  0
 21 22  1  0
 21 23  1  0
 23 24  1  0
 23 25  2  0
 25 26  1  0
 16 27  1  0
 27 28  1  0
 27 29  1  0
 29 30  2  0
 29 31  1  0
 31 32  1  0
 31 12  1  0
 25 17  1  0
M  END
>  <plip>  (1) 
-0.03571428571428571

>  <filename>  (1) 
[H][O][C](=[O])[C](=[O])[C]([H])=[C]([O][H])[C@@]1([H])[C]([H])=[C]([c]2[c]([H])[n][c]([H])[c]([H])[c]2[H])[N]([H])[C](=[S])[N]1[H]

$$$$
