
     RDKit          3D

 35 36  0  0  0  0  0  0  0  0999 V2000
    4.9513    1.7833   17.0098 H   0  0  0  0  0  0  0  0  0  0  0  0
    5.4175    1.2422   17.8283 C   0  0  0  0  0  0  0  0  0  0  0  0
    6.5750    0.6220   17.5598 N   0  0  0  0  0  0  0  0  0  0  0  0
    7.1850   -0.0194   18.5734 C   0  0  0  0  0  0  0  0  0  0  0  0
    8.1257   -0.4928   18.3161 H   0  0  0  0  0  0  0  0  0  0  0  0
    6.6871   -0.0879   19.9095 C   0  0  0  0  0  0  0  0  0  0  0  0
    7.2840   -0.7051   21.0230 N   0  0  0  0  0  0  0  0  0  0  0  0
    6.6775   -0.6138   21.8300 H   0  0  0  0  0  0  0  0  0  0  0  0
    8.7084   -0.7658   21.3908 C   0  0  0  0  0  0  0  0  0  0  0  0
    8.7716   -1.1199   22.8821 C   0  0  0  0  0  0  0  0  0  0  0  0
    9.8112   -1.1682   23.2299 H   0  0  0  0  0  0  0  0  0  0  0  0
    8.3214   -2.1028   23.0637 H   0  0  0  0  0  0  0  0  0  0  0  0
    8.2477   -0.3783   23.4960 H   0  0  0  0  0  0  0  0  0  0  0  0
    9.3471   -1.8884   20.5755 C   0  0  0  0  0  0  0  0  0  0  0  0
    9.1830   -1.6962   19.5142 H   0  0  0  0  0  0  0  0  0  0  0  0
    8.9274   -2.8648   20.8379 H   0  0  0  0  0  0  0  0  0  0  0  0
   10.4228   -1.9326   20.7631 H   0  0  0  0  0  0  0  0  0  0  0  0
    9.4933    0.5630   21.1130 C   0  0  0  0  0  0  0  0  0  0  0  0
   10.5527    0.3805   21.3371 H   0  0  0  0  0  0  0  0  0  0  0  0
    9.4406    0.7605   20.0341 H   0  0  0  0  0  0  0  0  0  0  0  0
    9.0047    1.7795   21.8705 C   0  0  0  0  0  0  0  0  0  0  0  0
    8.0180    2.5819   21.2868 C   0  0  0  0  0  0  0  0  0  0  0  0
    7.6574    2.2956   20.3019 H   0  0  0  0  0  0  0  0  0  0  0  0
    7.4975    3.7041   21.9324 C   0  0  0  0  0  0  0  0  0  0  0  0
    6.7382    4.3204   21.4531 H   0  0  0  0  0  0  0  0  0  0  0  0
    7.9673    4.0296   23.2085 C   0  0  0  0  0  0  0  0  0  0  0  0
    7.3475    5.4491   24.0108 Cl  0  0  0  0  0  0  0  0  0  0  0  0
    8.9317    3.2318   23.8352 C   0  0  0  0  0  0  0  0  0  0  0  0
    9.2688    3.4733   24.8387 H   0  0  0  0  0  0  0  0  0  0  0  0
    9.4496    2.1170   23.1632 C   0  0  0  0  0  0  0  0  0  0  0  0
   10.1918    1.4912   23.6610 H   0  0  0  0  0  0  0  0  0  0  0  0
    5.4425    0.5304   20.1334 C   0  0  0  0  0  0  0  0  0  0  0  0
    4.9930    0.4820   21.1310 H   0  0  0  0  0  0  0  0  0  0  0  0
    4.8133    1.2141   19.0931 C   0  0  0  0  0  0  0  0  0  0  0  0
    3.8776    1.7382   19.2608 H   0  0  0  0  0  0  0  0  0  0  0  0
  1  2  1  0
  2  3  2  0
  3  4  1  0
  4  5  1  0
  4  6  2  0
  6  7  1  0
  7  8  1  0
  7  9  1  0
  9 10  1  0
 10 11  1  0
 10 12  1  0
 10 13  1  0
  9 14  1  0
 14 15  1  0
 14 16  1  0
 14 17  1  0
  9 18  1  0
 18 19  1  0
 18 20  1  0
 18 21  1  0
 21 22  2  0
 22 23  1  0
 22 24  1  0
 24 25  1  0
 24 26  2  0
 26 27  1  0
 26 28  1  0
 28 29  1  0
 28 30  2  0
 30 31  1  0
  6 32  1  0
 32 33  1  0
 32 34  2  0
 34 35  1  0
 34  2  1  0
 30 21  1  0
M  END
>  <plip>  (1) 
-0.07142857142857142

>  <filename>  (1) 
[H][c]1[n][c]([H])[c]([N]([H])[C]([C]([H])([H])[H])([C]([H])([H])[H])[C]([H])([H])[c]2[c]([H])[c]([H])[c]([Cl])[c]([H])[c]2[H])[c]([H])[c]1[H]

$$$$
