
     RDKit          3D

 40 43  0  0  0  0  0  0  0  0999 V2000
    4.9161    1.7987   17.0121 H   0  0  0  0  0  0  0  0  0  0  0  0
    5.3861    1.3432   17.8778 C   0  0  0  0  0  0  0  0  0  0  0  0
    6.5660    0.7537   17.6469 N   0  0  0  0  0  0  0  0  0  0  0  0
    7.1650    0.1838   18.6951 C   0  0  0  0  0  0  0  0  0  0  0  0
    8.1178   -0.2985   18.4762 H   0  0  0  0  0  0  0  0  0  0  0  0
    6.6616    0.1591   20.0206 C   0  0  0  0  0  0  0  0  0  0  0  0
    7.5151   -0.5263   21.1135 C   0  0  2  0  0  0  0  0  0  0  0  0
    8.6338    0.4643   21.5985 C   0  0  0  0  0  0  0  0  0  0  0  0
    9.6548    0.5715   20.9433 O   0  0  0  0  0  0  0  0  0  0  0  0
    8.4729    1.3035   22.8384 C   0  0  0  0  0  0  0  0  0  0  0  0
    7.3813    2.1749   22.9891 C   0  0  0  0  0  0  0  0  0  0  0  0
    6.6442    2.2560   22.1919 H   0  0  0  0  0  0  0  0  0  0  0  0
    7.2626    2.9705   24.1282 C   0  0  0  0  0  0  0  0  0  0  0  0
    6.4365    3.6633   24.2439 H   0  0  0  0  0  0  0  0  0  0  0  0
    8.2408    2.8916   25.1202 C   0  0  0  0  0  0  0  0  0  0  0  0
    8.0999    3.8730   26.5473 Cl  0  0  0  0  0  0  0  0  0  0  0  0
    9.3468    2.0472   24.9830 C   0  0  0  0  0  0  0  0  0  0  0  0
   10.1043    2.0127   25.7579 H   0  0  0  0  0  0  0  0  0  0  0  0
    9.4689    1.2720   23.8313 C   0  0  0  0  0  0  0  0  0  0  0  0
   10.3621    0.6674   23.6864 H   0  0  0  0  0  0  0  0  0  0  0  0
    8.2319   -1.8026   20.5288 C   0  0  0  0  0  0  0  0  0  0  0  0
    9.2549   -1.6062   20.2033 H   0  0  0  0  0  0  0  0  0  0  0  0
    7.6026   -2.0264   19.6690 H   0  0  0  0  0  0  0  0  0  0  0  0
    8.0922   -2.9205   21.5806 C   0  0  2  0  0  0  0  0  0  0  0  0
    8.9332   -3.6174   21.6102 H   0  0  0  0  0  0  0  0  0  0  0  0
    6.7158   -3.5744   21.3564 C   0  0  0  0  0  0  0  0  0  0  0  0
    6.5658   -3.9586   20.3386 H   0  0  0  0  0  0  0  0  0  0  0  0
    6.5694   -4.4283   22.0352 H   0  0  0  0  0  0  0  0  0  0  0  0
    5.7810   -2.3707   21.6816 C   0  0  0  0  0  0  0  0  0  0  0  0
    5.0126   -2.6792   22.3918 H   0  0  0  0  0  0  0  0  0  0  0  0
    5.2917   -2.0033   20.7767 H   0  0  0  0  0  0  0  0  0  0  0  0
    6.7294   -1.2665   22.2625 C   0  0  1  0  0  0  0  0  0  0  0  0
    6.2295   -0.5772   22.9467 H   0  0  0  0  0  0  0  0  0  0  0  0
    7.8249   -2.1497   22.8840 C   0  0  0  0  0  0  0  0  0  0  0  0
    8.6832   -1.5904   23.2703 H   0  0  0  0  0  0  0  0  0  0  0  0
    7.4592   -2.7912   23.6986 H   0  0  0  0  0  0  0  0  0  0  0  0
    5.4156    0.7671   20.2243 C   0  0  0  0  0  0  0  0  0  0  0  0
    4.9377    0.7511   21.2065 H   0  0  0  0  0  0  0  0  0  0  0  0
    4.7701    1.3701   19.1319 C   0  0  0  0  0  0  0  0  0  0  0  0
    3.8166    1.8727   19.2429 H   0  0  0  0  0  0  0  0  0  0  0  0
  1  2  1  0
  2  3  2  0
  3  4  1  0
  4  5  1  0
  4  6  2  0
  6  7  1  0
  7  8  1  1
  8  9  2  0
  8 10  1  0
 10 11  2  0
 11 12  1  0
 11 13  1  0
 13 14  1  0
 13 15  2  0
 15 16  1  0
 15 17  1  0
 17 18  1  0
 17 19  2  0
 19 20  1  0
  7 21  1  0
 21 22  1  0
 21 23  1  0
 21 24  1  0
 24 25  1  1
 24 26  1  0
 26 27  1  0
 26 28  1  0
 26 29  1  0
 29 30  1  0
 29 31  1  0
 29 32  1  0
 32 33  1  1
 32 34  1  0
 34 35  1  0
 34 36  1  0
  6 37  1  0
 37 38  1  0
 37 39  2  0
 39 40  1  0
 39  2  1  0
 32  7  1  0
 19 10  1  0
 34 24  1  0
M  END
>  <plip>  (1) 
-0.10344827586206896

>  <filename>  (1) 
[H][c]1[n][c]([H])[c]([C@]2([C](=[O])[c]3[c]([H])[c]([H])[c]([Cl])[c]([H])[c]3[H])[C]([H])([H])[C@]3([H])[C]([H])([H])[C]([H])([H])[C@@]2([H])[C]3([H])[H])[c]([H])[c]1[H]

$$$$
