
     RDKit          3D

 35 37  0  0  0  0  0  0  0  0999 V2000
    5.7775   -2.6103   24.9125 H   0  0  0  0  0  0  0  0  0  0  0  0
    6.8290   -2.3394   24.8541 C   0  0  0  0  0  0  0  0  0  0  0  0
    7.4375   -2.2828   23.6615 C   0  0  0  0  0  0  0  0  0  0  0  0
    6.7137   -2.7218   22.4697 C   0  0  0  0  0  0  0  0  0  0  0  0
    5.9992   -3.8841   22.3164 C   0  0  0  0  0  0  0  0  0  0  0  0
    5.8572   -4.6148   23.1096 H   0  0  0  0  0  0  0  0  0  0  0  0
    5.5833   -3.9626   20.9684 C   0  0  0  0  0  0  0  0  0  0  0  0
    5.1078   -4.8306   20.5316 H   0  0  0  0  0  0  0  0  0  0  0  0
    6.0221   -2.8195   20.3446 C   0  0  0  0  0  0  0  0  0  0  0  0
    5.9047   -2.4501   19.3332 H   0  0  0  0  0  0  0  0  0  0  0  0
    6.7194   -2.0557   21.2541 N   0  0  0  0  0  0  0  0  0  0  0  0
    7.3607   -0.7592   20.9875 C   0  0  0  0  0  0  0  0  0  0  0  0
    8.4166   -0.9170   20.7252 H   0  0  0  0  0  0  0  0  0  0  0  0
    7.3448   -0.1804   21.9200 H   0  0  0  0  0  0  0  0  0  0  0  0
    6.6694    0.0310   19.9000 C   0  0  0  0  0  0  0  0  0  0  0  0
    7.1737    0.0788   18.5918 C   0  0  0  0  0  0  0  0  0  0  0  0
    8.1174   -0.4124   18.3561 H   0  0  0  0  0  0  0  0  0  0  0  0
    6.5599    0.6819   17.5642 N   0  0  0  0  0  0  0  0  0  0  0  0
    5.3965    1.2943   17.8287 C   0  0  0  0  0  0  0  0  0  0  0  0
    4.9182    1.7885   16.9859 H   0  0  0  0  0  0  0  0  0  0  0  0
    4.8045    1.3135   19.0961 C   0  0  0  0  0  0  0  0  0  0  0  0
    3.8732    1.8416   19.2482 H   0  0  0  0  0  0  0  0  0  0  0  0
    5.4463    0.6638   20.1522 C   0  0  0  0  0  0  0  0  0  0  0  0
    5.0106    0.6306   21.1572 H   0  0  0  0  0  0  0  0  0  0  0  0
    8.9107   -1.8823   23.5629 C   0  0  0  0  0  0  0  0  0  0  0  0
    9.4108   -2.4781   22.7952 H   0  0  0  0  0  0  0  0  0  0  0  0
    8.9958   -0.8311   23.2574 H   0  0  0  0  0  0  0  0  0  0  0  0
    9.6154   -2.0392   24.9211 C   0  0  0  0  0  0  0  0  0  0  0  0
    9.7637   -3.0999   25.1563 H   0  0  0  0  0  0  0  0  0  0  0  0
   10.6084   -1.5803   24.8876 H   0  0  0  0  0  0  0  0  0  0  0  0
    8.8466   -1.4499   26.0200 N   0  0  0  0  0  0  0  0  0  0  0  0
    8.6602   -0.4858   25.7563 H   0  0  0  0  0  0  0  0  0  0  0  0
    7.5459   -2.1067   26.1603 C   0  0  0  0  0  0  0  0  0  0  0  0
    7.6915   -3.0742   26.6590 H   0  0  0  0  0  0  0  0  0  0  0  0
    6.9123   -1.5266   26.8384 H   0  0  0  0  0  0  0  0  0  0  0  0
  1  2  1  0
  2  3  2  0
  3  4  1  0
  4  5  2  0
  5  6  1  0
  5  7  1  0
  7  8  1  0
  7  9  2  0
  9 10  1  0
  9 11  1  0
 11 12  1  0
 12 13  1  0
 12 14  1  0
 12 15  1  0
 15 16  2  0
 16 17  1  0
 16 18  1  0
 18 19  2  0
 19 20  1  0
 19 21  1  0
 21 22  1  0
 21 23  2  0
 23 24  1  0
  3 25  1  0
 25 26  1  0
 25 27  1  0
 25 28  1  0
 28 29  1  0
 28 30  1  0
 28 31  1  0
 31 32  1  0
 31 33  1  0
 33 34  1  0
 33 35  1  0
 33  2  1  0
 11  4  1  0
 23 15  1  0
M  END
>  <plip>  (1) 
-0.03571428571428571

>  <filename>  (1) 
[H][C]1=[C]([c]2[c]([H])[c]([H])[c]([H])[n]2[C]([H])([H])[c]2[c]([H])[n][c]([H])[c]([H])[c]2[H])[C]([H])([H])[C]([H])([H])[N]([H])[C]1([H])[H]

$$$$
