
     RDKit          3D

 24 25  0  0  0  0  0  0  0  0999 V2000
    5.0699    1.7909   16.9169 H   0  0  0  0  0  0  0  0  0  0  0  0
    5.4790    1.2909   17.7953 C   0  0  0  0  0  0  0  0  0  0  0  0
    6.6386    0.6385   17.6227 N   0  0  0  0  0  0  0  0  0  0  0  0
    7.1739    0.0254   18.6869 C   0  0  0  0  0  0  0  0  0  0  0  0
    8.1318   -0.4690   18.5283 H   0  0  0  0  0  0  0  0  0  0  0  0
    6.5712   -0.0053   19.9403 C   0  0  0  0  0  0  0  0  0  0  0  0
    7.3169   -0.6783   21.0679 C   0  0  0  0  0  0  0  0  0  0  0  0
    7.5365   -2.4899   20.9989 S   0  0  0  0  0  0  0  0  0  0  0  0
    5.8736   -3.0704   20.6485 C   0  0  0  0  0  0  0  0  0  0  0  0
    5.0488   -2.7956   21.6499 F   0  0  0  0  0  0  0  0  0  0  0  0
    5.9217   -4.3923   20.4677 F   0  0  0  0  0  0  0  0  0  0  0  0
    5.3940   -2.5089   19.5356 F   0  0  0  0  0  0  0  0  0  0  0  0
    8.6748   -0.2731   21.0627 O   0  0  0  0  0  0  0  0  0  0  0  0
    8.8729    0.5763   22.1786 C   0  0  0  0  0  0  0  0  0  0  0  0
    9.8985    0.4599   22.5375 H   0  0  0  0  0  0  0  0  0  0  0  0
    8.6880    1.6221   21.8963 H   0  0  0  0  0  0  0  0  0  0  0  0
    7.8326    0.0712   23.1554 C   0  0  0  0  0  0  0  0  0  0  0  0
    8.1684   -0.8233   23.6952 H   0  0  0  0  0  0  0  0  0  0  0  0
    7.5080    0.8347   23.8653 H   0  0  0  0  0  0  0  0  0  0  0  0
    6.7601   -0.2546   22.2834 O   0  0  0  0  0  0  0  0  0  0  0  0
    5.3684    0.6870   20.1178 C   0  0  0  0  0  0  0  0  0  0  0  0
    4.8963    0.7247   21.1009 H   0  0  0  0  0  0  0  0  0  0  0  0
    4.8117    1.3399   19.0220 C   0  0  0  0  0  0  0  0  0  0  0  0
    3.8902    1.9022   19.1113 H   0  0  0  0  0  0  0  0  0  0  0  0
  1  2  1  0
  2  3  2  0
  3  4  1  0
  4  5  1  0
  4  6  2  0
  6  7  1  0
  7  8  1  0
  8  9  1  0
  9 10  1  0
  9 11  1  0
  9 12  1  0
  7 13  1  0
 13 14  1  0
 14 15  1  0
 14 16  1  0
 14 17  1  0
 17 18  1  0
 17 19  1  0
 17 20  1  0
  6 21  1  0
 21 22  1  0
 21 23  2  0
 23 24  1  0
 23  2  1  0
 20  7  1  0
M  END
>  <plip>  (1) 
-0.06451612903225806

>  <filename>  (1) 
[H][c]1[n][c]([H])[c]([C]2([S][C]([F])([F])[F])[O][C]([H])([H])[C]([H])([H])[O]2)[c]([H])[c]1[H]

$$$$
