
     RDKit          3D

 31 33  0  0  0  0  0  0  0  0999 V2000
    4.9163    1.7874   16.9923 H   0  0  0  0  0  0  0  0  0  0  0  0
    5.4001    1.2973   17.8341 C   0  0  0  0  0  0  0  0  0  0  0  0
    6.5633    0.6788   17.5713 N   0  0  0  0  0  0  0  0  0  0  0  0
    7.1685    0.0643   18.5939 C   0  0  0  0  0  0  0  0  0  0  0  0
    8.1171   -0.4192   18.3678 H   0  0  0  0  0  0  0  0  0  0  0  0
    6.6663    0.0164   19.9095 C   0  0  0  0  0  0  0  0  0  0  0  0
    7.3799   -0.6882   21.0015 C   0  0  0  0  0  0  0  0  0  0  0  0
    7.7430   -2.3626   20.8582 S   0  0  0  0  0  0  0  0  0  0  0  0
    8.4606   -2.4246   22.4050 C   0  0  0  0  0  0  0  0  0  0  0  0
    8.8754   -3.3502   22.7762 H   0  0  0  0  0  0  0  0  0  0  0  0
    8.4052   -1.2202   23.0251 C   0  0  0  0  0  0  0  0  0  0  0  0
    8.7737   -1.0278   24.0291 H   0  0  0  0  0  0  0  0  0  0  0  0
    7.7858   -0.2032   22.2269 C   0  0  0  0  0  0  0  0  0  0  0  0
    7.6390    1.2466   22.6138 C   0  0  0  0  0  0  0  0  0  0  0  0
    6.5667    1.4669   22.7069 H   0  0  0  0  0  0  0  0  0  0  0  0
    8.2219    2.2506   21.5934 C   0  0  0  0  0  0  0  0  0  0  0  0
    7.5060    2.4652   20.7942 H   0  0  0  0  0  0  0  0  0  0  0  0
    9.0933    1.8067   21.1038 H   0  0  0  0  0  0  0  0  0  0  0  0
    8.6275    3.5048   22.3990 C   0  0  0  0  0  0  0  0  0  0  0  0
    9.6660    3.7789   22.1877 H   0  0  0  0  0  0  0  0  0  0  0  0
    8.0196    4.3743   22.1302 H   0  0  0  0  0  0  0  0  0  0  0  0
    8.4530    3.1503   23.8913 C   0  0  0  0  0  0  0  0  0  0  0  0
    7.5544    3.6259   24.2995 H   0  0  0  0  0  0  0  0  0  0  0  0
    9.2912    3.4987   24.5037 H   0  0  0  0  0  0  0  0  0  0  0  0
    8.3146    1.6321   23.9339 C   0  0  0  0  0  0  0  0  0  0  0  0
    9.3034    1.1614   23.9724 H   0  0  0  0  0  0  0  0  0  0  0  0
    7.7530    1.2749   24.8041 H   0  0  0  0  0  0  0  0  0  0  0  0
    5.4420    0.6537   20.1572 C   0  0  0  0  0  0  0  0  0  0  0  0
    5.0056    0.6289   21.1596 H   0  0  0  0  0  0  0  0  0  0  0  0
    4.8057    1.3113   19.1011 C   0  0  0  0  0  0  0  0  0  0  0  0
    3.8724    1.8428   19.2562 H   0  0  0  0  0  0  0  0  0  0  0  0
  1  2  1  0
  2  3  2  0
  3  4  1  0
  4  5  1  0
  4  6  2  0
  6  7  1  0
  7  8  1  0
  8  9  1  0
  9 10  1  0
  9 11  2  0
 11 12  1  0
 11 13  1  0
 13 14  1  0
 14 15  1  0
 14 16  1  0
 16 17  1  0
 16 18  1  0
 16 19  1  0
 19 20  1  0
 19 21  1  0
 19 22  1  0
 22 23  1  0
 22 24  1  0
 22 25  1  0
 25 26  1  0
 25 27  1  0
  6 28  1  0
 28 29  1  0
 28 30  2  0
 30 31  1  0
 30  2  1  0
 13  7  2  0
 25 14  1  0
M  END
>  <plip>  (1) 
-0.03571428571428571

>  <filename>  (1) 
[H][c]1[n][c]([H])[c](-[c]2[s][c]([H])[c]([H])[c]2[C]2([H])[C]([H])([H])[C]([H])([H])[C]([H])([H])[C]2([H])[H])[c]([H])[c]1[H]

$$$$
