
     RDKit          3D

 37 39  0  0  0  0  0  0  0  0999 V2000
    4.9118    1.7973   16.9835 H   0  0  0  0  0  0  0  0  0  0  0  0
    5.3879    1.3020   17.8255 C   0  0  0  0  0  0  0  0  0  0  0  0
    6.5455    0.6814   17.5553 N   0  0  0  0  0  0  0  0  0  0  0  0
    7.1427    0.0504   18.5719 C   0  0  0  0  0  0  0  0  0  0  0  0
    8.1082   -0.4117   18.3689 H   0  0  0  0  0  0  0  0  0  0  0  0
    6.6290   -0.0160   19.8817 C   0  0  0  0  0  0  0  0  0  0  0  0
    7.4031   -0.7084   20.9882 C   0  0  0  0  0  0  0  0  0  0  0  0
    6.7402   -0.9825   21.8206 H   0  0  0  0  0  0  0  0  0  0  0  0
    7.8459   -1.6410   20.6134 H   0  0  0  0  0  0  0  0  0  0  0  0
    8.5309    0.1228   21.5146 C   0  0  0  0  0  0  0  0  0  0  0  0
    9.6230    0.4289   20.8538 N   0  0  0  0  0  0  0  0  0  0  0  0
   10.3969    1.1473   21.7063 N   0  0  0  0  0  0  0  0  0  0  0  0
    9.8204    1.2818   22.8454 N   0  0  0  0  0  0  0  0  0  0  0  0
    8.6269    0.6637   22.7701 N   0  0  0  0  0  0  0  0  0  0  0  0
    7.7749    0.6169   23.8461 N   0  0  0  0  0  0  0  0  0  0  0  0
    6.4274    1.1607   23.7548 C   0  0  0  0  0  0  0  0  0  0  0  0
    5.6483    0.3872   23.6834 H   0  0  0  0  0  0  0  0  0  0  0  0
    6.2437    1.7402   24.6627 H   0  0  0  0  0  0  0  0  0  0  0  0
    6.3434    1.8368   22.8964 H   0  0  0  0  0  0  0  0  0  0  0  0
    8.1298   -0.3155   24.9247 C   0  0  0  0  0  0  0  0  0  0  0  0
    7.3766   -0.1992   25.7018 H   0  0  0  0  0  0  0  0  0  0  0  0
    9.0867    0.0139   25.3474 H   0  0  0  0  0  0  0  0  0  0  0  0
    8.2145   -1.7678   24.4835 C   0  0  0  0  0  0  0  0  0  0  0  0
    9.4410   -2.2886   24.0475 C   0  0  0  0  0  0  0  0  0  0  0  0
   10.3263   -1.6502   24.0563 H   0  0  0  0  0  0  0  0  0  0  0  0
    9.5176   -3.5916   23.5524 C   0  0  0  0  0  0  0  0  0  0  0  0
   10.4842   -3.9602   23.2281 H   0  0  0  0  0  0  0  0  0  0  0  0
    8.3708   -4.3926   23.4861 C   0  0  0  0  0  0  0  0  0  0  0  0
    8.4331   -5.4113   23.1082 H   0  0  0  0  0  0  0  0  0  0  0  0
    7.1417   -3.8783   23.9174 C   0  0  0  0  0  0  0  0  0  0  0  0
    6.2409   -4.4873   23.8714 H   0  0  0  0  0  0  0  0  0  0  0  0
    7.0671   -2.5732   24.4149 C   0  0  0  0  0  0  0  0  0  0  0  0
    6.1034   -2.1695   24.7274 H   0  0  0  0  0  0  0  0  0  0  0  0
    5.4262    0.6459   20.1421 C   0  0  0  0  0  0  0  0  0  0  0  0
    5.0057    0.6343   21.1544 H   0  0  0  0  0  0  0  0  0  0  0  0
    4.7957    1.3200   19.0925 C   0  0  0  0  0  0  0  0  0  0  0  0
    3.8670    1.8514   19.2456 H   0  0  0  0  0  0  0  0  0  0  0  0
  1  2  1  0
  2  3  2  0
  3  4  1  0
  4  5  1  0
  4  6  2  0
  6  7  1  0
  7  8  1  0
  7  9  1  0
  7 10  1  0
 10 11  2  0
 11 12  1  0
 12 13  2  0
 13 14  1  0
 14 15  1  0
 15 16  1  0
 16 17  1  0
 16 18  1  0
 16 19  1  0
 15 20  1  0
 20 21  1  0
 20 22  1  0
 20 23  1  0
 23 24  2  0
 24 25  1  0
 24 26  1  0
 26 27  1  0
 26 28  2  0
 28 29  1  0
 28 30  1  0
 30 31  1  0
 30 32  2  0
 32 33  1  0
  6 34  1  0
 34 35  1  0
 34 36  2  0
 36 37  1  0
 36  2  1  0
 14 10  1  0
 32 23  1  0
M  END
>  <plip>  (1) 
-0.07142857142857142

>  <filename>  (1) 
[H][c]1[n][c]([H])[c]([C]([H])([H])[c]2[n][n][n][n]2[N]([C]([H])([H])[H])[C]([H])([H])[c]2[c]([H])[c]([H])[c]([H])[c]([H])[c]2[H])[c]([H])[c]1[H]

$$$$
