
     RDKit          3D

 29 30  0  0  0  0  0  0  0  0999 V2000
    8.6885    3.0393   27.8402 H   0  0  0  0  0  0  0  0  0  0  0  0
    8.1713    3.6000   27.2482 O   0  0  0  0  0  0  0  0  0  0  0  0
    7.9976    2.9336   26.0824 C   0  0  0  0  0  0  0  0  0  0  0  0
    7.3308    3.6264   25.0659 C   0  0  0  0  0  0  0  0  0  0  0  0
    7.0184    4.6467   25.2837 H   0  0  0  0  0  0  0  0  0  0  0  0
    7.0914    2.9989   23.8452 C   0  0  0  0  0  0  0  0  0  0  0  0
    6.5697    3.5068   23.0333 H   0  0  0  0  0  0  0  0  0  0  0  0
    7.5273    1.6736   23.6600 C   0  0  0  0  0  0  0  0  0  0  0  0
    7.1986    1.1392   22.4285 O   0  0  0  0  0  0  0  0  0  0  0  0
    7.6768   -0.1448   22.2022 N   0  0  0  0  0  0  0  0  0  0  0  0
    7.4051   -0.6060   21.0398 C   0  0  0  0  0  0  0  0  0  0  0  0
    6.6671    0.0820   19.9451 C   0  0  0  0  0  0  0  0  0  0  0  0
    7.1713    0.0738   18.6384 C   0  0  0  0  0  0  0  0  0  0  0  0
    8.1093   -0.4345   18.4016 H   0  0  0  0  0  0  0  0  0  0  0  0
    6.5618    0.6571   17.6022 N   0  0  0  0  0  0  0  0  0  0  0  0
    5.3978    1.2803   17.8361 C   0  0  0  0  0  0  0  0  0  0  0  0
    4.9463    1.7815   16.9820 H   0  0  0  0  0  0  0  0  0  0  0  0
    4.7888    1.3143   19.0927 C   0  0  0  0  0  0  0  0  0  0  0  0
    3.8500    1.8418   19.2200 H   0  0  0  0  0  0  0  0  0  0  0  0
    5.4326    0.7123   20.1694 C   0  0  0  0  0  0  0  0  0  0  0  0
    4.9912    0.7103   21.1628 H   0  0  0  0  0  0  0  0  0  0  0  0
    7.8782   -2.0132   20.7881 C   0  0  0  0  0  0  0  0  0  0  0  0
    7.9524   -2.5909   21.7171 H   0  0  0  0  0  0  0  0  0  0  0  0
    8.8686   -2.0043   20.3124 H   0  0  0  0  0  0  0  0  0  0  0  0
    7.1620   -2.4940   20.1158 H   0  0  0  0  0  0  0  0  0  0  0  0
    8.2080    0.9883   24.6708 C   0  0  0  0  0  0  0  0  0  0  0  0
    8.5289   -0.0299   24.4799 H   0  0  0  0  0  0  0  0  0  0  0  0
    8.4475    1.6254   25.8955 C   0  0  0  0  0  0  0  0  0  0  0  0
    8.9684    1.1068   26.6991 H   0  0  0  0  0  0  0  0  0  0  0  0
  1  2  1  0
  2  3  1  0
  3  4  2  0
  4  5  1  0
  4  6  1  0
  6  7  1  0
  6  8  2  0
  8  9  1  0
  9 10  1  0
 10 11  2  3
 11 12  1  0
 12 13  2  0
 13 14  1  0
 13 15  1  0
 15 16  2  0
 16 17  1  0
 16 18  1  0
 18 19  1  0
 18 20  2  0
 20 21  1  0
 11 22  1  0
 22 23  1  0
 22 24  1  0
 22 25  1  0
  8 26  1  0
 26 27  1  0
 26 28  2  0
 28 29  1  0
 28  3  1  0
 20 12  1  0
M  END
>  <plip>  (1) 
-0.07142857142857142

>  <filename>  (1) 
[H][O][c]1[c]([H])[c]([H])[c]([O][N]=[C]([c]2[c]([H])[n][c]([H])[c]([H])[c]2[H])[C]([H])([H])[H])[c]([H])[c]1[H]

$$$$
