
     RDKit          3D

 39 42  0  0  0  0  0  0  0  0999 V2000
    9.7851    6.7468   25.8383 F   0  0  0  0  0  0  0  0  0  0  0  0
    9.4779    6.4911   24.5573 C   0  0  0  0  0  0  0  0  0  0  0  0
   10.4586    6.6440   23.5740 C   0  0  0  0  0  0  0  0  0  0  0  0
   10.1097    6.3633   22.2455 C   0  0  0  0  0  0  0  0  0  0  0  0
    8.8274    5.8999   21.9362 C   0  0  0  0  0  0  0  0  0  0  0  0
    7.8823    5.7059   22.9449 C   0  0  0  0  0  0  0  0  0  0  0  0
    6.6472    4.8870   22.6303 C   0  0  0  0  0  0  0  0  0  0  0  0
    7.0000    3.4350   22.7400 C   0  0  0  0  0  0  0  0  0  0  0  0
    6.7514    2.7250   23.8055 N   0  0  0  0  0  0  0  0  0  0  0  0
    7.2956    1.4899   23.4944 O   0  0  0  0  0  0  0  0  0  0  0  0
    7.8272    1.5810   22.2686 C   0  0  0  0  0  0  0  0  0  0  0  0
    8.4210    0.3323   21.6863 C   0  0  0  0  0  0  0  0  0  0  0  0
    7.3692   -0.6053   21.0678 C   0  0  0  0  0  0  0  0  0  0  0  0
    6.6136    0.0239   19.9122 C   0  0  0  0  0  0  0  0  0  0  0  0
    5.3859    0.6802   20.0923 C   0  0  0  0  0  0  0  0  0  0  0  0
    4.7878    1.3233   19.0041 C   0  0  0  0  0  0  0  0  0  0  0  0
    5.4418    1.2940   17.7681 C   0  0  0  0  0  0  0  0  0  0  0  0
    6.6018    0.6548   17.5617 N   0  0  0  0  0  0  0  0  0  0  0  0
    7.1589    0.0402   18.6142 C   0  0  0  0  0  0  0  0  0  0  0  0
    8.0929   -0.4886   18.4090 H   0  0  0  0  0  0  0  0  0  0  0  0
    5.0136    1.8013   16.9058 H   0  0  0  0  0  0  0  0  0  0  0  0
    3.8461    1.8497   19.1023 H   0  0  0  0  0  0  0  0  0  0  0  0
    4.9155    0.7000   21.0786 H   0  0  0  0  0  0  0  0  0  0  0  0
    7.8647   -1.5275   20.7318 H   0  0  0  0  0  0  0  0  0  0  0  0
    6.6704   -0.9044   21.8579 H   0  0  0  0  0  0  0  0  0  0  0  0
    9.6122   -0.2894   22.3821 C   0  0  0  0  0  0  0  0  0  0  0  0
    9.7919    0.3710   21.0483 C   0  0  0  0  0  0  0  0  0  0  0  0
    9.9323   -0.2718   20.1784 H   0  0  0  0  0  0  0  0  0  0  0  0
   10.3148    1.3247   21.0097 H   0  0  0  0  0  0  0  0  0  0  0  0
   10.0196    0.2081   23.2595 H   0  0  0  0  0  0  0  0  0  0  0  0
    9.6606   -1.3760   22.4431 H   0  0  0  0  0  0  0  0  0  0  0  0
    7.6845    2.7670   21.7494 N   0  0  0  0  0  0  0  0  0  0  0  0
    5.8214    5.1182   23.3059 H   0  0  0  0  0  0  0  0  0  0  0  0
    6.3071    5.0715   21.6087 H   0  0  0  0  0  0  0  0  0  0  0  0
    8.1854    6.0610   24.2622 C   0  0  0  0  0  0  0  0  0  0  0  0
    7.4504    6.0075   25.0619 H   0  0  0  0  0  0  0  0  0  0  0  0
    8.5351    5.6215   20.9251 H   0  0  0  0  0  0  0  0  0  0  0  0
   10.8458    6.4284   21.4536 H   0  0  0  0  0  0  0  0  0  0  0  0
   11.4620    6.9472   23.8600 H   0  0  0  0  0  0  0  0  0  0  0  0
  1  2  1  0
  2  3  2  0
  3  4  1  0
  4  5  2  0
  5  6  1  0
  6  7  1  0
  7  8  1  0
  8  9  2  0
  9 10  1  0
 10 11  1  0
 11 12  1  0
 12 13  1  0
 13 14  1  0
 14 15  2  0
 15 16  1  0
 16 17  2  0
 17 18  1  0
 18 19  2  0
 19 20  1  0
 17 21  1  0
 16 22  1  0
 15 23  1  0
 13 24  1  0
 13 25  1  0
 12 26  1  0
 26 27  1  0
 27 28  1  0
 27 29  1  0
 26 30  1  0
 26 31  1  0
 11 32  2  0
  7 33  1  0
  7 34  1  0
  6 35  2  0
 35 36  1  0
  5 37  1  0
  4 38  1  0
  3 39  1  0
 35  2  1  0
 32  8  1  0
 27 12  1  0
 19 14  1  0
M  END
>  <plip>  (1) 
-0.07142857142857142

>  <filename>  (1) 
[H][c]1[n][c]([H])[c]([C]([H])([H])[C]2([c]3[n][c]([C]([H])([H])[c]4[c]([H])[c]([H])[c]([H])[c]([F])[c]4[H])[n][o]3)[C]([H])([H])[C]2([H])[H])[c]([H])[c]1[H]

$$$$
