
     RDKit          3D

 42 42  0  0  0  0  0  0  0  0999 V2000
    5.0925    1.6842   16.7640 H   0  0  0  0  0  0  0  0  0  0  0  0
    5.5074    1.1967   17.6425 C   0  0  0  0  0  0  0  0  0  0  0  0
    6.6370    0.4960   17.4490 N   0  0  0  0  0  0  0  0  0  0  0  0
    7.1735   -0.1109   18.5173 C   0  0  0  0  0  0  0  0  0  0  0  0
    8.0881   -0.6788   18.3454 H   0  0  0  0  0  0  0  0  0  0  0  0
    6.6333   -0.0514   19.8278 C   0  0  0  0  0  0  0  0  0  0  0  0
    7.2194   -0.7340   20.9273 N   0  0  0  0  0  0  0  0  0  0  0  0
    8.1141   -1.1835   20.8228 H   0  0  0  0  0  0  0  0  0  0  0  0
    7.3237   -0.2527   22.2170 C   0  0  0  0  0  0  0  0  0  0  0  0
    6.7830    0.7737   22.7026 N   0  0  0  0  0  0  0  0  0  0  0  0
    7.1322    1.2425   24.0406 C   0  0  0  0  0  0  0  0  0  0  0  0
    6.9196    0.4410   24.7795 H   0  0  0  0  0  0  0  0  0  0  0  0
    6.3838    2.0238   24.2430 H   0  0  0  0  0  0  0  0  0  0  0  0
    8.5480    1.7737   24.1093 C   0  0  0  0  0  0  0  0  0  0  0  0
    9.1763    0.9172   23.7787 H   0  0  0  0  0  0  0  0  0  0  0  0
    8.6230    2.4410   23.2041 H   0  0  0  0  0  0  0  0  0  0  0  0
    8.9076    2.4979   25.4167 C   0  0  0  0  0  0  0  0  0  0  0  0
    8.2643    3.4438   25.5149 H   0  0  0  0  0  0  0  0  0  0  0  0
    8.3048    2.0777   26.4805 H   0  0  0  0  0  0  0  0  0  0  0  0
    9.1326    2.2719   25.5155 C   0  0  0  0  0  0  0  0  0  0  0  0
   10.0262    3.2078   25.2201 H   0  0  0  0  0  0  0  0  0  0  0  0
   10.2479    1.3953   25.9932 H   0  0  0  0  0  0  0  0  0  0  0  0
   10.7444    4.1564   24.4010 C   0  0  0  0  0  0  0  0  0  0  0  0
   11.8020    4.1292   24.7086 H   0  0  0  0  0  0  0  0  0  0  0  0
   10.6766    3.8023   23.3595 H   0  0  0  0  0  0  0  0  0  0  0  0
   10.1593    5.5657   24.5466 C   0  0  0  0  0  0  0  0  0  0  0  0
    9.1259    5.6358   24.1629 H   0  0  0  0  0  0  0  0  0  0  0  0
   10.7409    6.2154   23.8698 H   0  0  0  0  0  0  0  0  0  0  0  0
   10.2253    6.1846   25.9524 C   0  0  0  0  0  0  0  0  0  0  0  0
   11.2556    6.0976   26.3241 H   0  0  0  0  0  0  0  0  0  0  0  0
    9.5989    5.6285   26.6637 H   0  0  0  0  0  0  0  0  0  0  0  0
    9.8012    7.6551   25.9717 C   0  0  0  0  0  0  0  0  0  0  0  0
    9.8077    8.0585   26.9882 H   0  0  0  0  0  0  0  0  0  0  0  0
    8.7905    7.7802   25.5660 H   0  0  0  0  0  0  0  0  0  0  0  0
   10.4719    8.2749   25.3686 H   0  0  0  0  0  0  0  0  0  0  0  0
    8.1842   -1.1589   22.8498 N   0  0  0  0  0  0  0  0  0  0  0  0
    8.1423   -0.9873   23.8444 H   0  0  0  0  0  0  0  0  0  0  0  0
    7.7593   -2.0479   22.6308 H   0  0  0  0  0  0  0  0  0  0  0  0
    5.4497    0.6768   20.0054 C   0  0  0  0  0  0  0  0  0  0  0  0
    5.0178    0.7458   21.0032 H   0  0  0  0  0  0  0  0  0  0  0  0
    4.8817    1.3041   18.8893 C   0  0  0  0  0  0  0  0  0  0  0  0
    3.9725    1.8880   18.9807 H   0  0  0  0  0  0  0  0  0  0  0  0
  1  2  1  0
  2  3  2  0
  3  4  1  0
  4  5  1  0
  4  6  2  0
  6  7  1  0
  7  8  1  0
  7  9  1  0
  9 10  2  3
 10 11  1  0
 11 12  1  0
 11 13  1  0
 11 14  1  0
 14 15  1  0
 14 16  1  0
 14 17  1  0
 17 18  1  0
 17 19  1  0
 17 20  1  0
 20 21  1  0
 20 22  1  0
 20 23  1  0
 23 24  1  0
 23 25  1  0
 23 26  1  0
 26 27  1  0
 26 28  1  0
 26 29  1  0
 29 30  1  0
 29 31  1  0
 29 32  1  0
 32 33  1  0
 32 34  1  0
 32 35  1  0
  9 36  1  0
 36 37  1  0
 36 38  1  0
  6 39  1  0
 39 40  1  0
 39 41  2  0
 41 42  1  0
 41  2  1  0
M  END
>  <plip>  (1) 
-0.10714285714285714

>  <filename>  (1) 
[H][c]1[n][c]([H])[c]([N]([H])[C](=[N][C]([H])([H])[C]([H])([H])[C]([H])([H])[C]([H])([H])[C]([H])([H])[C]([H])([H])[C]([H])([H])[C]([H])([H])[H])[N]([H])[H])[c]([H])[c]1[H]

$$$$
