
     RDKit          3D

 38 39  0  0  0  0  0  0  0  0999 V2000
    5.8877    4.6264   25.5361 C   0  0  0  0  0  0  0  0  0  0  0  0
    7.2759    4.8190   25.4095 O   0  0  0  0  0  0  0  0  0  0  0  0
    8.0089    3.7644   24.8016 C   0  0  0  0  0  0  0  0  0  0  0  0
    9.3177    3.6531   25.5655 C   0  0  0  0  0  0  0  0  0  0  0  0
    9.8587    4.6057   25.5029 H   0  0  0  0  0  0  0  0  0  0  0  0
    9.1021    3.4475   26.6173 H   0  0  0  0  0  0  0  0  0  0  0  0
    9.9533    2.8514   25.1722 H   0  0  0  0  0  0  0  0  0  0  0  0
    8.2053    4.1177   23.3158 C   0  0  0  0  0  0  0  0  0  0  0  0
    8.9172    3.0937   22.5891 O   0  0  0  0  0  0  0  0  0  0  0  0
    8.2736    1.9328   22.3304 C   0  0  0  0  0  0  0  0  0  0  0  0
    7.1123    1.7349   22.6273 O   0  0  0  0  0  0  0  0  0  0  0  0
    9.1877    0.9629   21.7072 C   0  0  0  0  0  0  0  0  0  0  0  0
   10.5758    0.9815   21.6374 C   0  0  0  0  0  0  0  0  0  0  0  0
   10.9724   -0.2658   21.1150 C   0  0  0  0  0  0  0  0  0  0  0  0
    9.8279   -0.9829   20.8523 C   0  0  0  0  0  0  0  0  0  0  0  0
    8.7404   -0.2429   21.2050 N   0  0  0  0  0  0  0  0  0  0  0  0
    7.3529   -0.6639   21.0194 C   0  0  0  0  0  0  0  0  0  0  0  0
    6.6213    0.0387   19.8846 C   0  0  0  0  0  0  0  0  0  0  0  0
    5.4012    0.6839   20.1067 C   0  0  0  0  0  0  0  0  0  0  0  0
    4.7724    1.3292   19.0400 C   0  0  0  0  0  0  0  0  0  0  0  0
    5.3869    1.3126   17.7877 C   0  0  0  0  0  0  0  0  0  0  0  0
    6.5434    0.6811   17.5456 N   0  0  0  0  0  0  0  0  0  0  0  0
    7.1393    0.0668   18.5760 C   0  0  0  0  0  0  0  0  0  0  0  0
    8.0818   -0.4287   18.3377 H   0  0  0  0  0  0  0  0  0  0  0  0
    4.9338    1.8278   16.9411 H   0  0  0  0  0  0  0  0  0  0  0  0
    3.8366    1.8541   19.1696 H   0  0  0  0  0  0  0  0  0  0  0  0
    4.9665    0.7134   21.1083 H   0  0  0  0  0  0  0  0  0  0  0  0
    6.8140   -0.5086   21.9556 H   0  0  0  0  0  0  0  0  0  0  0  0
    7.3855   -1.7441   20.8498 H   0  0  0  0  0  0  0  0  0  0  0  0
    9.6867   -1.9653   20.4210 H   0  0  0  0  0  0  0  0  0  0  0  0
   11.9862   -0.6238   20.9904 H   0  0  0  0  0  0  0  0  0  0  0  0
   11.2175    1.8154   21.9193 H   0  0  0  0  0  0  0  0  0  0  0  0
    8.8212    5.0159   23.2230 H   0  0  0  0  0  0  0  0  0  0  0  0
    7.2365    4.3253   22.8476 H   0  0  0  0  0  0  0  0  0  0  0  0
    7.4695    2.8009   24.8423 H   0  0  0  0  0  0  0  0  0  0  0  0
    5.3857    4.4670   24.5688 H   0  0  0  0  0  0  0  0  0  0  0  0
    5.6465    3.7776   26.1943 H   0  0  0  0  0  0  0  0  0  0  0  0
    5.4937    5.5402   25.9814 H   0  0  0  0  0  0  0  0  0  0  0  0
  1  2  1  0
  2  3  1  0
  3  4  1  0
  4  5  1  0
  4  6  1  0
  4  7  1  0
  3  8  1  0
  8  9  1  0
  9 10  1  0
 10 11  2  0
 10 12  1  0
 12 13  2  0
 13 14  1  0
 14 15  2  0
 15 16  1  0
 16 17  1  0
 17 18  1  0
 18 19  2  0
 19 20  1  0
 20 21  2  0
 21 22  1  0
 22 23  2  0
 23 24  1  0
 21 25  1  0
 20 26  1  0
 19 27  1  0
 17 28  1  0
 17 29  1  0
 15 30  1  0
 14 31  1  0
 13 32  1  0
  8 33  1  0
  8 34  1  0
  3 35  1  0
  1 36  1  0
  1 37  1  0
  1 38  1  0
 16 12  1  0
 23 18  1  0
M  END
>  <plip>  (1) 
-0.07142857142857142

>  <filename>  (1) 
[H][c]1[n][c]([H])[c]([C]([H])([H])[n]2[c]([H])[c]([H])[c]([H])[c]2[C](=[O])[O][C]([H])([H])[C]([H])([O][C]([H])([H])[H])[C]([H])([H])[H])[c]([H])[c]1[H]

$$$$
