
     RDKit          3D

 27 29  0  0  0  0  0  0  0  0999 V2000
    4.8020    1.3105   19.1091 C   0  0  0  0  0  0  0  0  0  0  0  0
    5.4041    1.2893   17.8441 C   0  0  0  0  0  0  0  0  0  0  0  0
    6.5663    0.6725   17.5847 N   0  0  0  0  0  0  0  0  0  0  0  0
    7.1704    0.0597   18.6045 C   0  0  0  0  0  0  0  0  0  0  0  0
    6.6462    0.0135   19.9056 C   0  0  0  0  0  0  0  0  0  0  0  0
    7.4113   -0.7075   20.9164 C   0  0  0  0  0  0  0  0  0  0  0  0
    8.5308   -1.3412   20.7732 N   0  0  0  0  0  0  0  0  0  0  0  0
    8.8617   -1.8429   22.0238 N   0  0  0  0  0  0  0  0  0  0  0  0
    7.9105   -1.4864   22.8197 C   0  0  0  0  0  0  0  0  0  0  0  0
    7.7576   -1.8448   24.2530 C   0  0  0  0  0  0  0  0  0  0  0  0
    6.3507   -2.9643   24.5912 S   0  0  0  0  0  0  0  0  0  0  0  0
    6.9324   -4.3785   23.6963 C   0  0  0  0  0  0  0  0  0  0  0  0
    6.7455   -4.6449   22.3658 C   0  0  0  0  0  0  0  0  0  0  0  0
    7.4231   -5.8231   21.9365 C   0  0  0  0  0  0  0  0  0  0  0  0
    8.1078   -6.4133   22.9566 C   0  0  0  0  0  0  0  0  0  0  0  0
    7.9506   -5.5640   24.4372 S   0  0  0  0  0  0  0  0  0  0  0  0
    8.6803   -7.3268   22.9303 H   0  0  0  0  0  0  0  0  0  0  0  0
    7.3826   -6.2159   20.9250 H   0  0  0  0  0  0  0  0  0  0  0  0
    6.1799   -3.9866   21.7107 H   0  0  0  0  0  0  0  0  0  0  0  0
    8.6781   -2.3437   24.5528 H   0  0  0  0  0  0  0  0  0  0  0  0
    7.6227   -0.9543   24.8771 H   0  0  0  0  0  0  0  0  0  0  0  0
    6.9571   -0.7561   22.1952 O   0  0  0  0  0  0  0  0  0  0  0  0
    5.4251    0.6564   20.1700 C   0  0  0  0  0  0  0  0  0  0  0  0
    4.9885    0.6421   21.1723 H   0  0  0  0  0  0  0  0  0  0  0  0
    8.1173   -0.4275   18.3861 H   0  0  0  0  0  0  0  0  0  0  0  0
    4.9270    1.7787   16.9982 H   0  0  0  0  0  0  0  0  0  0  0  0
    3.8709    1.8453   19.2536 H   0  0  0  0  0  0  0  0  0  0  0  0
  1  2  2  0
  2  3  1  0
  3  4  2  0
  4  5  1  0
  5  6  1  0
  6  7  2  0
  7  8  1  0
  8  9  2  0
  9 10  1  0
 10 11  1  0
 11 12  1  0
 12 13  2  0
 13 14  1  0
 14 15  2  0
 15 16  1  0
 15 17  1  0
 14 18  1  0
 13 19  1  0
 10 20  1  0
 10 21  1  0
  9 22  1  0
  5 23  2  0
 23 24  1  0
  4 25  1  0
  2 26  1  0
  1 27  1  0
 23  1  1  0
 22  6  1  0
 16 12  1  0
M  END
>  <plip>  (1) 
-0.034482758620689655

>  <filename>  (1) 
[H][c]1[n][c]([H])[c](-[c]2[n][n][c]([C]([H])([H])[S][c]3[s][c]([H])[c]([H])[c]3[H])[o]2)[c]([H])[c]1[H]

$$$$
