
     RDKit          3D

 50 53  0  0  0  0  0  0  0  0999 V2000
   11.6427    0.9892   21.5526 C   0  0  0  0  0  0  0  0  0  0  0  0
   10.2904    1.5708   21.8627 C   0  0  0  0  0  0  0  0  0  0  0  0
    9.0069    1.0791   21.7383 C   0  0  0  0  0  0  0  0  0  0  0  0
    8.6557   -0.2266   21.3653 N   0  0  0  0  0  0  0  0  0  0  0  0
    7.2520   -0.6173   21.2503 C   0  0  0  0  0  0  0  0  0  0  0  0
    6.5651    0.1207   20.0960 C   0  0  0  0  0  0  0  0  0  0  0  0
    5.3378    0.7960   20.2193 C   0  0  0  0  0  0  0  0  0  0  0  0
    4.7662    1.3842   19.0832 C   0  0  0  0  0  0  0  0  0  0  0  0
    5.4551    1.3056   17.8694 C   0  0  0  0  0  0  0  0  0  0  0  0
    6.6385    0.6917   17.7319 N   0  0  0  0  0  0  0  0  0  0  0  0
    7.1693    0.1297   18.8259 C   0  0  0  0  0  0  0  0  0  0  0  0
    8.1297   -0.3632   18.6584 H   0  0  0  0  0  0  0  0  0  0  0  0
    5.0440    1.7490   16.9656 H   0  0  0  0  0  0  0  0  0  0  0  0
    3.8193    1.9131   19.1252 H   0  0  0  0  0  0  0  0  0  0  0  0
    4.8343    0.8700   21.1853 H   0  0  0  0  0  0  0  0  0  0  0  0
    7.2524   -2.1456   21.0508 C   0  0  0  0  0  0  0  0  0  0  0  0
    5.8487   -2.7288   20.8380 C   0  0  0  0  0  0  0  0  0  0  0  0
    5.8960   -4.2499   20.5630 C   0  0  0  0  0  0  0  0  0  0  0  0
    7.1437   -4.8561   20.8571 O   0  0  0  0  0  0  0  0  0  0  0  0
    7.6774   -4.4533   22.1014 C   0  0  0  0  0  0  0  0  0  0  0  0
    8.0678   -2.9567   22.1003 C   0  0  0  0  0  0  0  0  0  0  0  0
    9.1337   -2.8602   21.8476 H   0  0  0  0  0  0  0  0  0  0  0  0
    7.9518   -2.5530   23.1151 H   0  0  0  0  0  0  0  0  0  0  0  0
    8.5594   -5.0788   22.2617 H   0  0  0  0  0  0  0  0  0  0  0  0
    6.9570   -4.6812   22.9080 H   0  0  0  0  0  0  0  0  0  0  0  0
    5.7545   -4.4433   19.4984 H   0  0  0  0  0  0  0  0  0  0  0  0
    5.0968   -4.7723   21.1180 H   0  0  0  0  0  0  0  0  0  0  0  0
    5.3858   -2.2191   19.9834 H   0  0  0  0  0  0  0  0  0  0  0  0
    5.2205   -2.5274   21.7160 H   0  0  0  0  0  0  0  0  0  0  0  0
    7.7953   -2.2386   20.1144 H   0  0  0  0  0  0  0  0  0  0  0  0
    6.7291   -0.3901   22.1933 H   0  0  0  0  0  0  0  0  0  0  0  0
    9.1829   -0.5272   20.5553 H   0  0  0  0  0  0  0  0  0  0  0  0
    8.1698    2.1428   22.1813 C   0  0  0  0  0  0  0  0  0  0  0  0
    8.8613    3.2039   22.5425 N   0  0  0  0  0  0  0  0  0  0  0  0
   10.1527    2.8582   22.3308 N   0  0  0  0  0  0  0  0  0  0  0  0
   11.1988    3.7933   22.5736 C   0  0  0  0  0  0  0  0  0  0  0  0
   12.1824    4.0800   21.6105 C   0  0  0  0  0  0  0  0  0  0  0  0
   13.1757    5.0208   21.8541 C   0  0  0  0  0  0  0  0  0  0  0  0
   13.2172    5.6814   23.0799 C   0  0  0  0  0  0  0  0  0  0  0  0
   12.2704    5.3987   24.0650 C   0  0  0  0  0  0  0  0  0  0  0  0
   11.2677    4.4715   23.7999 C   0  0  0  0  0  0  0  0  0  0  0  0
   10.3558    4.2455   24.7507 F   0  0  0  0  0  0  0  0  0  0  0  0
   12.2735    5.8960   25.0291 H   0  0  0  0  0  0  0  0  0  0  0  0
   13.9717    6.4342   23.2428 H   0  0  0  0  0  0  0  0  0  0  0  0
   13.9171    5.2322   21.0903 H   0  0  0  0  0  0  0  0  0  0  0  0
   12.1540    3.5878   20.6463 H   0  0  0  0  0  0  0  0  0  0  0  0
    7.0881    2.1440   22.2261 H   0  0  0  0  0  0  0  0  0  0  0  0
   12.3348    1.0747   22.3989 H   0  0  0  0  0  0  0  0  0  0  0  0
   12.0905    1.5260   20.7128 H   0  0  0  0  0  0  0  0  0  0  0  0
   11.6040   -0.0641   21.2661 H   0  0  0  0  0  0  0  0  0  0  0  0
  1  2  1  0
  2  3  2  0
  3  4  1  0
  4  5  1  0
  5  6  1  0
  6  7  2  0
  7  8  1  0
  8  9  2  0
  9 10  1  0
 10 11  2  0
 11 12  1  0
  9 13  1  0
  8 14  1  0
  7 15  1  0
  5 16  1  0
 16 17  1  0
 17 18  1  0
 18 19  1  0
 19 20  1  0
 20 21  1  0
 21 22  1  0
 21 23  1  0
 20 24  1  0
 20 25  1  0
 18 26  1  0
 18 27  1  0
 17 28  1  0
 17 29  1  0
 16 30  1  0
  5 31  1  0
  4 32  1  0
  3 33  1  0
 33 34  2  0
 34 35  1  0
 35 36  1  0
 36 37  2  0
 37 38  1  0
 38 39  2  0
 39 40  1  0
 40 41  2  0
 41 42  1  0
 40 43  1  0
 39 44  1  0
 38 45  1  0
 37 46  1  0
 33 47  1  0
  1 48  1  0
  1 49  1  0
  1 50  1  0
 35  2  1  0
 41 36  1  0
 11  6  1  0
 21 16  1  0
M  END
>  <plip>  (1) 
-0.125

>  <filename>  (1) 
[H][c]1[n][c]([H])[c]([C]([H])([N]([H])[c]2[c]([H])[n][n](-[c]3[c]([H])[c]([H])[c]([H])[c]([H])[c]3[F])[c]2[C]([H])([H])[H])[C]2([H])[C]([H])([H])[C]([H])([H])[O][C]([H])([H])[C]2([H])[H])[c]([H])[c]1[H]

$$$$
