
     RDKit          3D

 37 40  0  0  0  0  0  0  0  0999 V2000
    4.9327    1.8483   16.9490 H   0  0  0  0  0  0  0  0  0  0  0  0
    5.3992    1.3225   17.7810 C   0  0  0  0  0  0  0  0  0  0  0  0
    6.5608    0.7014   17.5192 N   0  0  0  0  0  0  0  0  0  0  0  0
    7.1467    0.0566   18.5367 C   0  0  0  0  0  0  0  0  0  0  0  0
    8.0989   -0.4186   18.2993 H   0  0  0  0  0  0  0  0  0  0  0  0
    6.6252   -0.0233   19.8448 C   0  0  0  0  0  0  0  0  0  0  0  0
    7.3618   -0.7249   20.9667 C   0  0  2  0  0  0  0  0  0  0  0  0
    8.2660   -1.1622   20.5257 H   0  0  0  0  0  0  0  0  0  0  0  0
    6.5710   -1.8612   21.6733 C   0  0  0  0  0  0  0  0  0  0  0  0
    7.0637   -2.8290   21.5140 H   0  0  0  0  0  0  0  0  0  0  0  0
    5.5424   -1.9554   21.2974 H   0  0  0  0  0  0  0  0  0  0  0  0
    6.5779   -1.5098   23.0821 N   0  0  0  0  0  0  0  0  0  0  0  0
    5.8171   -1.7743   23.6907 H   0  0  0  0  0  0  0  0  0  0  0  0
    7.0471   -0.2537   23.3430 C   0  0  0  0  0  0  0  0  0  0  0  0
    6.8695    0.3394   24.3816 O   0  0  0  0  0  0  0  0  0  0  0  0
    7.7742    0.2444   22.1097 C   0  0  1  0  0  0  0  0  0  0  0  0
    7.4194    1.2689   21.9534 H   0  0  0  0  0  0  0  0  0  0  0  0
    9.2743    0.2816   22.3170 C   0  0  0  0  0  0  0  0  0  0  0  0
    9.9559   -0.9269   22.6435 C   0  0  0  0  0  0  0  0  0  0  0  0
    9.3913   -1.8456   22.8156 H   0  0  0  0  0  0  0  0  0  0  0  0
   11.3262   -0.9561   22.7162 C   0  0  0  0  0  0  0  0  0  0  0  0
   11.8903   -1.8737   22.8173 H   0  0  0  0  0  0  0  0  0  0  0  0
   12.0799    0.2474   22.6061 C   0  0  0  0  0  0  0  0  0  0  0  0
   13.4251    0.1718   22.8483 N   0  0  0  0  0  0  0  0  0  0  0  0
   14.0871    1.3034   22.8566 C   0  0  0  0  0  0  0  0  0  0  0  0
   15.1448    1.2350   23.0816 H   0  0  0  0  0  0  0  0  0  0  0  0
   13.5080    2.5799   22.5930 C   0  0  0  0  0  0  0  0  0  0  0  0
   14.1486    3.4504   22.6128 H   0  0  0  0  0  0  0  0  0  0  0  0
   12.1797    2.6601   22.2581 C   0  0  0  0  0  0  0  0  0  0  0  0
   11.7115    3.6073   21.9810 H   0  0  0  0  0  0  0  0  0  0  0  0
   11.3964    1.4714   22.2952 C   0  0  0  0  0  0  0  0  0  0  0  0
    9.9833    1.4434   22.1122 C   0  0  0  0  0  0  0  0  0  0  0  0
    9.4623    2.3581   21.8247 H   0  0  0  0  0  0  0  0  0  0  0  0
    5.4130    0.6331   20.0884 C   0  0  0  0  0  0  0  0  0  0  0  0
    4.9798    0.6322   21.0914 H   0  0  0  0  0  0  0  0  0  0  0  0
    4.7895    1.3133   19.0405 C   0  0  0  0  0  0  0  0  0  0  0  0
    3.8590    1.8492   19.1934 H   0  0  0  0  0  0  0  0  0  0  0  0
  1  2  1  0
  2  3  2  0
  3  4  1  0
  4  5  1  0
  4  6  2  0
  6  7  1  0
  7  8  1  6
  7  9  1  0
  9 10  1  0
  9 11  1  0
  9 12  1  0
 12 13  1  0
 12 14  1  0
 14 15  2  0
 14 16  1  0
 16 17  1  6
 16 18  1  0
 18 19  2  0
 19 20  1  0
 19 21  1  0
 21 22  1  0
 21 23  2  0
 23 24  1  0
 24 25  2  0
 25 26  1  0
 25 27  1  0
 27 28  1  0
 27 29  2  0
 29 30  1  0
 29 31  1  0
 31 32  2  0
 32 33  1  0
  6 34  1  0
 34 35  1  0
 34 36  2  0
 36 37  1  0
 36  2  1  0
 16  7  1  0
 32 18  1  0
 31 23  1  0
M  END
>  <plip>  (1) 
-0.03571428571428571

>  <filename>  (1) 
[H][c]1[n][c]([H])[c]([C@]2([H])[C]([H])([H])[N]([H])[C](=[O])[C@@]2([H])[c]2[c]([H])[c]([H])[c]3[n][c]([H])[c]([H])[c]([H])[c]3[c]2[H])[c]([H])[c]1[H]

$$$$
