
     RDKit          3D

 46 48  0  0  0  0  0  0  0  0999 V2000
   12.3570   -0.4776   22.7632 C   0  0  0  0  0  0  0  0  0  0  0  0
   11.9994    0.8385   22.1397 C   0  0  0  0  0  0  0  0  0  0  0  0
   10.8929    1.0789   21.3863 C   0  0  0  0  0  0  0  0  0  0  0  0
    9.8247    0.0732   21.1217 C   0  0  0  0  0  0  0  0  0  0  0  0
   10.1545   -1.0915   20.8984 O   0  0  0  0  0  0  0  0  0  0  0  0
    8.5065    0.4339   21.1844 N   0  0  0  0  0  0  0  0  0  0  0  0
    8.0519    1.7321   21.6907 C   0  0  0  0  0  0  0  0  0  0  0  0
    6.9638    1.7347   21.7923 H   0  0  0  0  0  0  0  0  0  0  0  0
    8.3398    2.5315   21.0005 H   0  0  0  0  0  0  0  0  0  0  0  0
    8.4921    1.9453   22.6749 H   0  0  0  0  0  0  0  0  0  0  0  0
    7.5128   -0.6021   20.8487 C   0  0  0  0  0  0  0  0  0  0  0  0
    6.5576   -0.0088   19.8158 C   0  0  0  0  0  0  0  0  0  0  0  0
    5.3395    0.6410   20.0534 C   0  0  0  0  0  0  0  0  0  0  0  0
    4.7340    1.3475   19.0014 C   0  0  0  0  0  0  0  0  0  0  0  0
    5.3458    1.3546   17.7463 C   0  0  0  0  0  0  0  0  0  0  0  0
    6.4879    0.7005   17.4821 N   0  0  0  0  0  0  0  0  0  0  0  0
    7.0622    0.0542   18.4973 C   0  0  0  0  0  0  0  0  0  0  0  0
    8.0002   -0.4450   18.2505 H   0  0  0  0  0  0  0  0  0  0  0  0
    4.9118    1.9102   16.9168 H   0  0  0  0  0  0  0  0  0  0  0  0
    3.8236    1.9162   19.1495 H   0  0  0  0  0  0  0  0  0  0  0  0
    4.8749    0.6320   21.0429 H   0  0  0  0  0  0  0  0  0  0  0  0
    7.0316   -1.4299   22.0941 C   0  0  0  0  0  0  0  0  0  0  0  0
    5.8539   -2.3291   21.7027 C   0  0  0  0  0  0  0  0  0  0  0  0
    6.1276   -3.0248   20.9010 H   0  0  0  0  0  0  0  0  0  0  0  0
    5.0261   -1.7120   21.3480 H   0  0  0  0  0  0  0  0  0  0  0  0
    5.4951   -2.9232   22.5529 H   0  0  0  0  0  0  0  0  0  0  0  0
    6.8013   -0.6828   23.4230 C   0  0  0  0  0  0  0  0  0  0  0  0
    7.7477   -0.2987   23.8197 H   0  0  0  0  0  0  0  0  0  0  0  0
    6.1005    0.1587   23.3673 H   0  0  0  0  0  0  0  0  0  0  0  0
    6.4104   -1.3800   24.1756 H   0  0  0  0  0  0  0  0  0  0  0  0
    7.8900   -2.0896   22.2985 H   0  0  0  0  0  0  0  0  0  0  0  0
    8.0517   -1.3644   20.2734 H   0  0  0  0  0  0  0  0  0  0  0  0
   10.8515    2.3825   20.9102 O   0  0  0  0  0  0  0  0  0  0  0  0
   11.9609    2.9981   21.3975 C   0  0  0  0  0  0  0  0  0  0  0  0
   12.4160    4.2945   21.1304 C   0  0  0  0  0  0  0  0  0  0  0  0
   13.5294    4.7407   21.8329 C   0  0  0  0  0  0  0  0  0  0  0  0
   14.2132    3.8896   22.7177 C   0  0  0  0  0  0  0  0  0  0  0  0
   13.8067    2.5691   22.8963 C   0  0  0  0  0  0  0  0  0  0  0  0
   12.6684    2.1106   22.2204 C   0  0  0  0  0  0  0  0  0  0  0  0
   14.3414    1.8377   23.4927 H   0  0  0  0  0  0  0  0  0  0  0  0
   15.0828    4.2778   23.2287 H   0  0  0  0  0  0  0  0  0  0  0  0
   13.8942    5.7534   21.6713 H   0  0  0  0  0  0  0  0  0  0  0  0
   11.9718    4.9551   20.4074 H   0  0  0  0  0  0  0  0  0  0  0  0
   12.4218   -1.2681   22.0075 H   0  0  0  0  0  0  0  0  0  0  0  0
   11.5527   -0.7853   23.4394 H   0  0  0  0  0  0  0  0  0  0  0  0
   13.2858   -0.4330   23.3352 H   0  0  0  0  0  0  0  0  0  0  0  0
  1  2  1  0
  2  3  2  0
  3  4  1  0
  4  5  2  0
  4  6  1  0
  6  7  1  0
  7  8  1  0
  7  9  1  0
  7 10  1  0
  6 11  1  0
 11 12  1  0
 12 13  2  0
 13 14  1  0
 14 15  2  0
 15 16  1  0
 16 17  2  0
 17 18  1  0
 15 19  1  0
 14 20  1  0
 13 21  1  0
 11 22  1  0
 22 23  1  0
 23 24  1  0
 23 25  1  0
 23 26  1  0
 22 27  1  0
 27 28  1  0
 27 29  1  0
 27 30  1  0
 22 31  1  0
 11 32  1  0
  3 33  1  0
 33 34  1  0
 34 35  2  0
 35 36  1  0
 36 37  2  0
 37 38  1  0
 38 39  2  0
 38 40  1  0
 37 41  1  0
 36 42  1  0
 35 43  1  0
  1 44  1  0
  1 45  1  0
  1 46  1  0
 39  2  1  0
 17 12  1  0
 39 34  1  0
M  END
>  <plip>  (1) 
-0.06666666666666667

>  <filename>  (1) 
[H][c]1[n][c]([H])[c]([C]([H])([N]([C](=[O])[c]2[o][c]3[c]([H])[c]([H])[c]([H])[c]([H])[c]3[c]2[C]([H])([H])[H])[C]([H])([H])[H])[C]([H])([C]([H])([H])[H])[C]([H])([H])[H])[c]([H])[c]1[H]

$$$$
