
     RDKit          3D

 45 47  0  0  0  0  0  0  0  0999 V2000
    9.7433   -1.3403   25.3510 C   0  0  0  0  0  0  0  0  0  0  0  0
    9.1265    0.0364   25.3951 C   0  0  0  0  0  0  0  0  0  0  0  0
    8.8391    0.6353   26.6251 C   0  0  0  0  0  0  0  0  0  0  0  0
    8.1518    1.8506   26.6645 C   0  0  0  0  0  0  0  0  0  0  0  0
    7.8976    2.4770   27.8390 O   0  0  0  0  0  0  0  0  0  0  0  0
    8.4339    2.0362   28.5102 H   0  0  0  0  0  0  0  0  0  0  0  0
    7.6792    2.4586   25.5034 C   0  0  0  0  0  0  0  0  0  0  0  0
    7.9605    1.8480   24.2931 C   0  0  0  0  0  0  0  0  0  0  0  0
    7.3812    2.3400   23.1177 O   0  0  0  0  0  0  0  0  0  0  0  0
    7.9662    3.0361   22.7936 H   0  0  0  0  0  0  0  0  0  0  0  0
    8.7998    0.7235   24.2111 C   0  0  0  0  0  0  0  0  0  0  0  0
    9.1174    0.2103   22.8420 C   0  0  0  0  0  0  0  0  0  0  0  0
    7.7714   -0.0538   22.2487 N   0  0  0  0  0  4  0  0  0  0  0  0
    6.9791   -1.1833   22.9252 C   0  0  0  0  0  0  0  0  0  0  0  0
    6.9738   -2.0477   21.6355 C   0  0  0  0  0  0  0  0  0  0  0  0
    5.5901   -2.4803   21.1943 C   0  0  0  0  0  0  0  0  0  0  0  0
    4.9281   -1.6243   21.3161 H   0  0  0  0  0  0  0  0  0  0  0  0
    5.2118   -3.3014   21.8146 H   0  0  0  0  0  0  0  0  0  0  0  0
    5.5613   -2.7946   20.1457 H   0  0  0  0  0  0  0  0  0  0  0  0
    7.9314   -3.2339   21.7156 C   0  0  0  0  0  0  0  0  0  0  0  0
    8.9667   -2.9006   21.8629 H   0  0  0  0  0  0  0  0  0  0  0  0
    7.8840   -3.8473   20.8102 H   0  0  0  0  0  0  0  0  0  0  0  0
    7.6579   -3.8739   22.5645 H   0  0  0  0  0  0  0  0  0  0  0  0
    7.6301   -0.7661   20.9303 C   0  0  0  0  0  0  0  0  0  0  0  0
    6.8261    0.0032   19.9243 C   0  0  0  0  0  0  0  0  0  0  0  0
    5.6410    0.7129   20.1969 C   0  0  0  0  0  0  0  0  0  0  0  0
    4.9740    1.3551   19.1517 C   0  0  0  0  0  0  0  0  0  0  0  0
    5.5120    1.2758   17.8651 C   0  0  0  0  0  0  0  0  0  0  0  0
    6.6363    0.6024   17.5808 N   0  0  0  0  0  0  0  0  0  0  0  0
    7.2629   -0.0054   18.5923 C   0  0  0  0  0  0  0  0  0  0  0  0
    8.1729   -0.5439   18.3243 H   0  0  0  0  0  0  0  0  0  0  0  0
    5.0194    1.7661   17.0264 H   0  0  0  0  0  0  0  0  0  0  0  0
    4.0612    1.9171   19.3179 H   0  0  0  0  0  0  0  0  0  0  0  0
    5.2326    0.7584   21.2103 H   0  0  0  0  0  0  0  0  0  0  0  0
    8.6172   -0.9964   20.5121 H   0  0  0  0  0  0  0  0  0  0  0  0
    6.0069   -0.8148   23.2646 H   0  0  0  0  0  0  0  0  0  0  0  0
    7.4837   -1.6242   23.7870 H   0  0  0  0  0  0  0  0  0  0  0  0
    7.2896    0.8862   22.2985 H   0  0  0  0  0  0  0  0  0  0  0  0
    9.7434   -0.6886   22.8416 H   0  0  0  0  0  0  0  0  0  0  0  0
    9.6334    0.9485   22.2198 H   0  0  0  0  0  0  0  0  0  0  0  0
    7.0865    3.3624   25.5618 H   0  0  0  0  0  0  0  0  0  0  0  0
    9.1342    0.1374   27.5473 H   0  0  0  0  0  0  0  0  0  0  0  0
    9.6414   -1.8517   26.3130 H   0  0  0  0  0  0  0  0  0  0  0  0
   10.8012   -1.2751   25.0758 H   0  0  0  0  0  0  0  0  0  0  0  0
    9.2738   -1.9915   24.6062 H   0  0  0  0  0  0  0  0  0  0  0  0
  1  2  1  0
  2  3  2  0
  3  4  1  0
  4  5  1  0
  5  6  1  0
  4  7  2  0
  7  8  1  0
  8  9  1  0
  9 10  1  0
  8 11  2  0
 11 12  1  0
 12 13  1  0
 13 14  1  0
 14 15  1  0
 15 16  1  0
 16 17  1  0
 16 18  1  0
 16 19  1  0
 15 20  1  0
 20 21  1  0
 20 22  1  0
 20 23  1  0
 15 24  1  0
 24 25  1  0
 25 26  2  0
 26 27  1  0
 27 28  2  0
 28 29  1  0
 29 30  2  0
 30 31  1  0
 28 32  1  0
 27 33  1  0
 26 34  1  0
 24 35  1  0
 14 36  1  0
 14 37  1  0
 13 38  1  0
 12 39  1  0
 12 40  1  0
  7 41  1  0
  3 42  1  0
  1 43  1  0
  1 44  1  0
  1 45  1  0
 11  2  1  0
 24 13  1  0
 30 25  1  0
M  CHG  1  13   1
M  END
>  <plip>  (1) 
-0.06666666666666667

>  <filename>  (1) 
[H][O][c]1[c]([H])[c]([O][H])[c]([C]([H])([H])[N+]2([H])[C]([H])([H])[C]([C]([H])([H])[H])([C]([H])([H])[H])[C]2([H])[c]2[c]([H])[n][c]([H])[c]([H])[c]2[H])[c]([C]([H])([H])[H])[c]1[H]

$$$$
