
     RDKit          3D

 41 44  0  0  0  0  0  0  0  0999 V2000
    6.1241   -3.2615   23.0958 C   0  0  0  0  0  0  0  0  0  0  0  0
    6.3168   -2.0356   22.1966 C   0  0  0  0  0  0  0  0  0  0  0  0
    7.3685   -2.1991   21.1154 C   0  0  0  0  0  0  0  0  0  0  0  0
    7.7473   -0.7661   20.7379 C   0  0  0  0  0  0  0  0  0  0  0  0
    6.8343   -0.0940   19.7286 C   0  0  0  0  0  0  0  0  0  0  0  0
    5.6105    0.4980   20.0725 C   0  0  0  0  0  0  0  0  0  0  0  0
    4.9225    1.1988   19.0827 C   0  0  0  0  0  0  0  0  0  0  0  0
    5.4451    1.2750   17.7885 C   0  0  0  0  0  0  0  0  0  0  0  0
    6.5912    0.6625   17.4432 N   0  0  0  0  0  0  0  0  0  0  0  0
    7.2665    0.0039   18.4002 C   0  0  0  0  0  0  0  0  0  0  0  0
    8.2111   -0.4575   18.1271 H   0  0  0  0  0  0  0  0  0  0  0  0
    4.9055    1.8397   17.0354 H   0  0  0  0  0  0  0  0  0  0  0  0
    3.9993    1.7152   19.3136 H   0  0  0  0  0  0  0  0  0  0  0  0
    5.2349    0.4483   21.0940 H   0  0  0  0  0  0  0  0  0  0  0  0
    7.6276   -0.1019   22.0244 N   0  0  0  0  0  0  0  0  0  0  0  0
    8.1500    1.1591   22.2835 C   0  0  0  0  0  0  0  0  0  0  0  0
    8.7280    1.7141   21.3478 O   0  0  0  0  0  0  0  0  0  0  0  0
    8.0934    1.7957   23.6301 C   0  0  0  0  0  0  0  0  0  0  0  0
    8.4367    3.1077   23.8533 C   0  0  0  0  0  0  0  0  0  0  0  0
    8.9845    4.4069   22.5727 Br  0  0  0  0  0  0  0  0  0  0  0  0
    8.2461    3.3309   25.1885 N   0  0  0  0  0  0  0  0  0  0  0  0
    8.4119    4.5258   25.8836 C   0  0  0  0  0  0  0  0  0  0  0  0
    8.0115    4.5780   27.2055 C   0  0  0  0  0  0  0  0  0  0  0  0
    7.4760    3.3705   27.8606 C   0  0  0  0  0  0  0  0  0  0  0  0
    7.3710    2.1833   27.1549 C   0  0  0  0  0  0  0  0  0  0  0  0
    7.7481    2.1650   25.7401 C   0  0  0  0  0  0  0  0  0  0  0  0
    7.6543    1.2125   24.8350 N   0  0  0  0  0  0  0  0  0  0  0  0
    6.9963    1.2807   27.6226 H   0  0  0  0  0  0  0  0  0  0  0  0
    7.1773    3.4122   28.9059 H   0  0  0  0  0  0  0  0  0  0  0  0
    8.1067    5.5057   27.7577 H   0  0  0  0  0  0  0  0  0  0  0  0
    8.8324    5.3882   25.3775 H   0  0  0  0  0  0  0  0  0  0  0  0
    6.8300   -0.8340   22.9906 C   0  0  0  0  0  0  0  0  0  0  0  0
    7.4466   -1.1691   23.8286 H   0  0  0  0  0  0  0  0  0  0  0  0
    6.0121   -0.2296   23.3867 H   0  0  0  0  0  0  0  0  0  0  0  0
    8.7783   -0.7522   20.3605 H   0  0  0  0  0  0  0  0  0  0  0  0
    8.2462   -2.7058   21.5347 H   0  0  0  0  0  0  0  0  0  0  0  0
    6.9893   -2.7678   20.2644 H   0  0  0  0  0  0  0  0  0  0  0  0
    5.3772   -1.7980   21.6908 H   0  0  0  0  0  0  0  0  0  0  0  0
    5.6958   -4.0987   22.5413 H   0  0  0  0  0  0  0  0  0  0  0  0
    5.4471   -3.0231   23.9191 H   0  0  0  0  0  0  0  0  0  0  0  0
    7.0792   -3.5820   23.5184 H   0  0  0  0  0  0  0  0  0  0  0  0
  1  2  1  0
  2  3  1  0
  3  4  1  0
  4  5  1  0
  5  6  2  0
  6  7  1  0
  7  8  2  0
  8  9  1  0
  9 10  2  0
 10 11  1  0
  8 12  1  0
  7 13  1  0
  6 14  1  0
  4 15  1  0
 15 16  1  0
 16 17  2  0
 16 18  1  0
 18 19  2  0
 19 20  1  0
 19 21  1  0
 21 22  1  0
 22 23  2  0
 23 24  1  0
 24 25  2  0
 25 26  1  0
 26 27  2  0
 25 28  1  0
 24 29  1  0
 23 30  1  0
 22 31  1  0
 15 32  1  0
 32 33  1  0
 32 34  1  0
  4 35  1  0
  3 36  1  0
  3 37  1  0
  2 38  1  0
  1 39  1  0
  1 40  1  0
  1 41  1  0
 32  2  1  0
 10  5  1  0
 27 18  1  0
 26 21  1  0
M  END
>  <plip>  (1) 
-0.13793103448275862

>  <filename>  (1) 
[H][c]1[n][c]([H])[c]([C]2([H])[N]([C](=[O])[c]3[n][c]4[c]([H])[c]([H])[c]([H])[c]([H])[n]4[c]3[Br])[C]([H])([H])[C]([H])([C]([H])([H])[H])[C]2([H])[H])[c]([H])[c]1[H]

$$$$
