
     RDKit          3D

 32 34  0  0  0  0  0  0  0  0999 V2000
    6.6789   -2.0343   21.3076 C   0  0  0  0  0  0  0  0  0  0  0  0
    7.3972   -0.7274   20.9965 C   0  0  2  0  0  0  0  0  0  0  0  0
    7.5446    0.0990   22.1897 N   0  0  0  0  0  0  0  0  0  0  0  0
    8.3170    1.2166   22.1937 C   0  0  0  0  0  0  0  0  0  0  0  0
    9.0098    1.5260   21.2378 O   0  0  0  0  0  0  0  0  0  0  0  0
    8.3096    2.0590   23.4901 C   0  0  0  0  0  0  0  0  0  0  0  0
    7.6076    1.8090   24.5475 N   0  0  0  0  0  0  0  0  0  0  0  0
    7.8437    2.7593   25.5205 C   0  0  0  0  0  0  0  0  0  0  0  0
    7.2417    2.7955   26.7894 C   0  0  0  0  0  0  0  0  0  0  0  0
    7.5838    3.8350   27.6414 C   0  0  0  0  0  0  0  0  0  0  0  0
    8.5179    4.8034   27.2051 C   0  0  0  0  0  0  0  0  0  0  0  0
    9.1222    4.7840   26.0131 N   0  0  0  0  0  0  0  0  0  0  0  0
    8.7715    3.7773   25.1930 C   0  0  0  0  0  0  0  0  0  0  0  0
    9.3474    3.4777   23.5643 S   0  0  0  0  0  0  0  0  0  0  0  0
    8.8129    5.6068   27.8782 H   0  0  0  0  0  0  0  0  0  0  0  0
    7.1599    3.9006   28.6391 H   0  0  0  0  0  0  0  0  0  0  0  0
    6.5284    2.0155   27.0555 H   0  0  0  0  0  0  0  0  0  0  0  0
    6.9803   -0.0823   23.0030 H   0  0  0  0  0  0  0  0  0  0  0  0
    6.6702    0.0292   19.9079 C   0  0  0  0  0  0  0  0  0  0  0  0
    5.4418    0.6562   20.1532 C   0  0  0  0  0  0  0  0  0  0  0  0
    4.8045    1.3091   19.1010 C   0  0  0  0  0  0  0  0  0  0  0  0
    5.4033    1.2895   17.8350 C   0  0  0  0  0  0  0  0  0  0  0  0
    6.5643    0.6721   17.5714 N   0  0  0  0  0  0  0  0  0  0  0  0
    7.1728    0.0727   18.6059 C   0  0  0  0  0  0  0  0  0  0  0  0
    8.1175   -0.4201   18.3769 H   0  0  0  0  0  0  0  0  0  0  0  0
    4.9159    1.7797   16.9949 H   0  0  0  0  0  0  0  0  0  0  0  0
    3.8735    1.8422   19.2592 H   0  0  0  0  0  0  0  0  0  0  0  0
    5.0057    0.6396   21.1568 H   0  0  0  0  0  0  0  0  0  0  0  0
    8.4067   -0.9599   20.6397 H   0  0  0  0  0  0  0  0  0  0  0  0
    5.6483   -1.8591   21.6364 H   0  0  0  0  0  0  0  0  0  0  0  0
    6.6156   -2.6462   20.4026 H   0  0  0  0  0  0  0  0  0  0  0  0
    7.2094   -2.6109   22.0700 H   0  0  0  0  0  0  0  0  0  0  0  0
  1  2  1  0
  2  3  1  0
  3  4  1  0
  4  5  2  0
  4  6  1  0
  6  7  2  0
  7  8  1  0
  8  9  2  0
  9 10  1  0
 10 11  2  0
 11 12  1  0
 12 13  2  0
 13 14  1  0
 11 15  1  0
 10 16  1  0
  9 17  1  0
  3 18  1  0
  2 19  1  0
 19 20  2  0
 20 21  1  0
 21 22  2  0
 22 23  1  0
 23 24  2  0
 24 25  1  0
 22 26  1  0
 21 27  1  0
 20 28  1  0
  2 29  1  6
  1 30  1  0
  1 31  1  0
  1 32  1  0
 14  6  1  0
 24 19  1  0
 13  8  1  0
M  END
>  <plip>  (1) 
-0.10714285714285714

>  <filename>  (1) 
[H][c]1[n][c]([H])[c]([C@@]([H])([N]([H])[C](=[O])[c]2[n][c]3[c]([H])[c]([H])[c]([H])[n][c]3[s]2)[C]([H])([H])[H])[c]([H])[c]1[H]

$$$$
