
     RDKit          3D

 39 41  0  0  0  0  0  0  0  0999 V2000
   10.5399    5.7550   24.8286 C   0  0  0  0  0  0  0  0  0  0  0  0
    9.3570    5.0118   25.3856 C   0  0  0  0  0  0  0  0  0  0  0  0
    8.7246    5.3833   26.5707 C   0  0  0  0  0  0  0  0  0  0  0  0
    7.6079    4.6811   27.0838 C   0  0  0  0  0  0  0  0  0  0  0  0
    7.1047    3.5786   26.4090 C   0  0  0  0  0  0  0  0  0  0  0  0
    5.7287    2.7110   27.0208 Cl  0  0  0  0  0  0  0  0  0  0  0  0
    7.7290    3.1727   25.2137 C   0  0  0  0  0  0  0  0  0  0  0  0
    8.8411    3.8794   24.6903 C   0  0  0  0  0  0  0  0  0  0  0  0
    9.1892    3.2164   23.4806 C   0  0  0  0  0  0  0  0  0  0  0  0
    8.3344    2.1523   23.2909 C   0  0  0  0  0  0  0  0  0  0  0  0
    8.3752    1.2143   22.1175 C   0  0  0  0  0  0  0  0  0  0  0  0
    9.0868    1.4371   21.1457 O   0  0  0  0  0  0  0  0  0  0  0  0
    7.5978    0.0898   22.1805 N   0  0  0  0  0  0  0  0  0  0  0  0
    7.3972   -0.7434   20.9920 C   0  0  0  0  0  0  0  0  0  0  0  0
    6.6735   -2.0610   21.3530 C   0  0  0  0  0  0  0  0  0  0  0  0
    6.5408   -2.9819   20.2818 O   0  0  0  0  0  0  0  0  0  0  0  0
    7.4218   -3.2347   19.9623 H   0  0  0  0  0  0  0  0  0  0  0  0
    5.6464   -1.8200   21.6562 H   0  0  0  0  0  0  0  0  0  0  0  0
    7.1875   -2.5075   22.2175 H   0  0  0  0  0  0  0  0  0  0  0  0
    6.6619    0.0250   19.9003 C   0  0  0  0  0  0  0  0  0  0  0  0
    5.4415    0.6708   20.1410 C   0  0  0  0  0  0  0  0  0  0  0  0
    4.7973    1.3198   19.0869 C   0  0  0  0  0  0  0  0  0  0  0  0
    5.3951    1.2952   17.8200 C   0  0  0  0  0  0  0  0  0  0  0  0
    6.5611    0.6868   17.5654 N   0  0  0  0  0  0  0  0  0  0  0  0
    7.1718    0.0818   18.5978 C   0  0  0  0  0  0  0  0  0  0  0  0
    8.1259   -0.3985   18.3676 H   0  0  0  0  0  0  0  0  0  0  0  0
    4.9256    1.7951   16.9737 H   0  0  0  0  0  0  0  0  0  0  0  0
    3.8589    1.8437   19.2301 H   0  0  0  0  0  0  0  0  0  0  0  0
    5.0000    0.6594   21.1404 H   0  0  0  0  0  0  0  0  0  0  0  0
    8.3972   -0.9878   20.6010 H   0  0  0  0  0  0  0  0  0  0  0  0
    7.0385   -0.0406   23.0106 H   0  0  0  0  0  0  0  0  0  0  0  0
    7.4415    2.1298   24.3730 N   0  0  0  0  0  0  0  0  0  0  0  0
    6.6134    1.5753   24.5469 H   0  0  0  0  0  0  0  0  0  0  0  0
    9.9904    3.4924   22.7963 H   0  0  0  0  0  0  0  0  0  0  0  0
    7.1328    4.9989   28.0098 H   0  0  0  0  0  0  0  0  0  0  0  0
    9.1024    6.2471   27.1131 H   0  0  0  0  0  0  0  0  0  0  0  0
   10.3054    6.1618   23.8370 H   0  0  0  0  0  0  0  0  0  0  0  0
   10.8421    6.5838   25.4754 H   0  0  0  0  0  0  0  0  0  0  0  0
   11.3965    5.0802   24.7122 H   0  0  0  0  0  0  0  0  0  0  0  0
  1  2  1  0
  2  3  2  0
  3  4  1  0
  4  5  2  0
  5  6  1  0
  5  7  1  0
  7  8  2  0
  8  9  1  0
  9 10  2  0
 10 11  1  0
 11 12  2  0
 11 13  1  0
 13 14  1  0
 14 15  1  0
 15 16  1  0
 16 17  1  0
 15 18  1  0
 15 19  1  0
 14 20  1  0
 20 21  2  0
 21 22  1  0
 22 23  2  0
 23 24  1  0
 24 25  2  0
 25 26  1  0
 23 27  1  0
 22 28  1  0
 21 29  1  0
 14 30  1  0
 13 31  1  0
 10 32  1  0
 32 33  1  0
  9 34  1  0
  4 35  1  0
  3 36  1  0
  1 37  1  0
  1 38  1  0
  1 39  1  0
  8  2  1  0
 25 20  1  0
 32  7  1  0
M  END
>  <plip>  (1) 
-0.17857142857142858

>  <filename>  (1) 
[H][O][C]([H])([H])[C]([H])([c]1[c]([H])[n][c]([H])[c]([H])[c]1[H])[N]([H])[C](=[O])[c]1[c]([H])[c]2[c]([C]([H])([H])[H])[c]([H])[c]([H])[c]([Cl])[c]2[n]1[H]

$$$$
