
     RDKit          3D

 29 31  0  0  0  0  0  0  0  0999 V2000
    4.9766    1.8000   17.0459 H   0  0  0  0  0  0  0  0  0  0  0  0
    5.4380    1.2739   17.8805 C   0  0  0  0  0  0  0  0  0  0  0  0
    6.5864    0.6274   17.6302 N   0  0  0  0  0  0  0  0  0  0  0  0
    7.1801   -0.0176   18.6376 C   0  0  0  0  0  0  0  0  0  0  0  0
    8.1065   -0.5328   18.3828 H   0  0  0  0  0  0  0  0  0  0  0  0
    6.6678   -0.0551   19.9484 C   0  0  0  0  0  0  0  0  0  0  0  0
    7.3839   -0.7304   20.9783 N   0  0  0  0  0  0  0  0  0  0  0  0
    6.7874   -1.1435   22.1124 N   0  0  0  0  0  0  0  0  0  0  0  0
    7.7445   -1.7047   22.8659 C   0  0  0  0  0  0  0  0  0  0  0  0
    7.4662   -2.2985   24.2156 C   0  0  0  0  0  0  0  0  0  0  0  0
    8.4644   -2.9501   24.9845 C   0  0  0  0  0  0  0  0  0  0  0  0
    9.4990   -2.9743   24.6557 H   0  0  0  0  0  0  0  0  0  0  0  0
    8.1595   -3.5682   26.1985 C   0  0  0  0  0  0  0  0  0  0  0  0
    8.9498   -4.0235   26.7869 H   0  0  0  0  0  0  0  0  0  0  0  0
    6.8383   -3.5796   26.6715 C   0  0  0  0  0  0  0  0  0  0  0  0
    6.4237   -4.3212   27.8354 C   0  0  0  0  0  0  0  0  0  0  0  0
    6.0076   -4.9131   28.7394 N   0  0  0  0  0  0  0  0  0  0  0  0
    5.8583   -2.8636   25.9692 C   0  0  0  0  0  0  0  0  0  0  0  0
    4.8540   -2.7977   26.3694 H   0  0  0  0  0  0  0  0  0  0  0  0
    6.1786   -2.2271   24.7801 C   0  0  0  0  0  0  0  0  0  0  0  0
    5.4285   -1.6299   24.2958 H   0  0  0  0  0  0  0  0  0  0  0  0
    8.9883   -1.6391   22.1774 C   0  0  0  0  0  0  0  0  0  0  0  0
    9.9496   -2.0073   22.5024 H   0  0  0  0  0  0  0  0  0  0  0  0
    8.7169   -1.0039   20.9963 C   0  0  0  0  0  0  0  0  0  0  0  0
    9.3450   -0.6838   20.1804 H   0  0  0  0  0  0  0  0  0  0  0  0
    5.4575    0.6084   20.1998 C   0  0  0  0  0  0  0  0  0  0  0  0
    5.0371    0.5966   21.2036 H   0  0  0  0  0  0  0  0  0  0  0  0
    4.8401    1.2816   19.1436 C   0  0  0  0  0  0  0  0  0  0  0  0
    3.9089    1.8149   19.2890 H   0  0  0  0  0  0  0  0  0  0  0  0
  1  2  1  0
  2  3  2  0
  3  4  1  0
  4  5  1  0
  4  6  2  0
  6  7  1  0
  7  8  1  0
  8  9  2  0
  9 10  1  0
 10 11  2  0
 11 12  1  0
 11 13  1  0
 13 14  1  0
 13 15  2  0
 15 16  1  0
 16 17  3  0
 15 18  1  0
 18 19  1  0
 18 20  2  0
 20 21  1  0
  9 22  1  0
 22 23  1  0
 22 24  2  0
 24 25  1  0
  6 26  1  0
 26 27  1  0
 26 28  2  0
 28 29  1  0
 28  2  1  0
 24  7  1  0
 20 10  1  0
M  END
>  <plip>  (1) 
-0.034482758620689655

>  <filename>  (1) 
[H][c]1[n][c]([H])[c](-[n]2[n][c](-[c]3[c]([H])[c]([H])[c]([C]#[N])[c]([H])[c]3[H])[c]([H])[c]2[H])[c]([H])[c]1[H]

$$$$
