
     RDKit          3D

 24 26  0  0  0  0  0  0  0  0999 V2000
    4.8025    1.3152   19.1020 C   0  0  0  0  0  0  0  0  0  0  0  0
    5.3978    1.2969   17.8344 C   0  0  0  0  0  0  0  0  0  0  0  0
    6.5603    0.6805   17.5654 N   0  0  0  0  0  0  0  0  0  0  0  0
    7.1646    0.0653   18.5895 C   0  0  0  0  0  0  0  0  0  0  0  0
    6.6492   -0.0007   19.9005 C   0  0  0  0  0  0  0  0  0  0  0  0
    7.3528   -0.7241   20.9825 C   0  0  0  0  0  0  0  0  0  0  0  0
    6.7123   -1.6655   21.7970 C   0  0  0  0  0  0  0  0  0  0  0  0
    7.3110   -2.3757   22.7819 N   0  0  0  0  0  0  0  0  0  0  0  0
    8.6001   -2.1389   23.0254 C   0  0  0  0  0  0  0  0  0  0  0  0
    9.3406   -1.2050   22.2821 C   0  0  0  0  0  0  0  0  0  0  0  0
    8.7171   -0.4875   21.2462 C   0  0  0  0  0  0  0  0  0  0  0  0
    9.7001    0.3970   20.7250 C   0  0  0  0  0  0  0  0  0  0  0  0
   10.8616    0.2051   21.4115 C   0  0  0  0  0  0  0  0  0  0  0  0
   10.6462   -0.7748   22.3562 N   0  0  0  0  0  0  0  0  0  0  0  0
   11.3280   -1.1130   23.0132 H   0  0  0  0  0  0  0  0  0  0  0  0
   11.8198    0.6996   21.2933 H   0  0  0  0  0  0  0  0  0  0  0  0
    9.4894    1.0658   19.9233 H   0  0  0  0  0  0  0  0  0  0  0  0
    9.0908   -2.6862   23.8260 H   0  0  0  0  0  0  0  0  0  0  0  0
    5.6614   -1.8866   21.6146 H   0  0  0  0  0  0  0  0  0  0  0  0
    5.4298    0.6428   20.1517 C   0  0  0  0  0  0  0  0  0  0  0  0
    5.0090    0.6321   21.1615 H   0  0  0  0  0  0  0  0  0  0  0  0
    8.1096   -0.4303   18.3717 H   0  0  0  0  0  0  0  0  0  0  0  0
    4.9109    1.7835   16.9944 H   0  0  0  0  0  0  0  0  0  0  0  0
    3.8703    1.8470   19.2578 H   0  0  0  0  0  0  0  0  0  0  0  0
  1  2  2  0
  2  3  1  0
  3  4  2  0
  4  5  1  0
  5  6  1  0
  6  7  2  0
  7  8  1  0
  8  9  2  0
  9 10  1  0
 10 11  2  0
 11 12  1  0
 12 13  2  0
 13 14  1  0
 14 15  1  0
 13 16  1  0
 12 17  1  0
  9 18  1  0
  7 19  1  0
  5 20  2  0
 20 21  1  0
  4 22  1  0
  2 23  1  0
  1 24  1  0
 20  1  1  0
 11  6  1  0
 14 10  1  0
M  END
>  <plip>  (1) 
-0.03571428571428571

>  <filename>  (1) 
[H][c]1[n][c]([H])[c](-[c]2[c]([H])[n][c]([H])[c]3[c]2[c]([H])[c]([H])[n]3[H])[c]([H])[c]1[H]

$$$$
