
     RDKit          3D

 27 29  0  0  0  0  0  0  0  0999 V2000
    4.6524    1.4268   18.9097 C   0  0  0  0  0  0  0  0  0  0  0  0
    5.2853    1.4091   17.6631 C   0  0  0  0  0  0  0  0  0  0  0  0
    6.4250    0.7376   17.4320 N   0  0  0  0  0  0  0  0  0  0  0  0
    6.9574    0.0770   18.4647 C   0  0  0  0  0  0  0  0  0  0  0  0
    6.4008    0.0042   19.7579 C   0  0  0  0  0  0  0  0  0  0  0  0
    7.1347   -0.7320   20.8298 C   0  0  0  0  0  0  0  0  0  0  0  0
    6.5037   -1.5930   21.7436 C   0  0  0  0  0  0  0  0  0  0  0  0
    7.2398   -2.2169   22.7588 C   0  0  0  0  0  0  0  0  0  0  0  0
    8.6201   -2.0234   22.8422 C   0  0  0  0  0  0  0  0  0  0  0  0
    9.2782   -1.1954   21.9151 C   0  0  0  0  0  0  0  0  0  0  0  0
   10.7342   -0.9874   22.0201 C   0  0  0  0  0  0  0  0  0  0  0  0
   11.7095   -1.8092   22.5322 C   0  0  0  0  0  0  0  0  0  0  0  0
   12.8371   -1.0606   22.4831 N   0  0  0  0  0  0  0  0  0  0  0  0
   12.5955    0.1436   21.9660 N   0  0  0  0  0  0  0  0  0  0  0  0
   11.3396    0.1879   21.6673 N   0  0  0  0  0  0  0  0  0  0  0  0
   13.7899   -1.3054   22.7151 H   0  0  0  0  0  0  0  0  0  0  0  0
   11.6809   -2.8310   22.8711 H   0  0  0  0  0  0  0  0  0  0  0  0
    8.5188   -0.5321   20.9396 C   0  0  0  0  0  0  0  0  0  0  0  0
    8.9943    0.2004   20.2903 H   0  0  0  0  0  0  0  0  0  0  0  0
    9.1951   -2.4892   23.6401 H   0  0  0  0  0  0  0  0  0  0  0  0
    6.7339   -2.8327   23.4974 H   0  0  0  0  0  0  0  0  0  0  0  0
    5.4341   -1.7581   21.6731 H   0  0  0  0  0  0  0  0  0  0  0  0
    5.2140    0.7187   19.9765 C   0  0  0  0  0  0  0  0  0  0  0  0
    4.7710    0.7559   20.9731 H   0  0  0  0  0  0  0  0  0  0  0  0
    7.8987   -0.4324   18.2644 H   0  0  0  0  0  0  0  0  0  0  0  0
    4.8738    1.9587   16.8173 H   0  0  0  0  0  0  0  0  0  0  0  0
    3.7473    2.0068   19.0322 H   0  0  0  0  0  0  0  0  0  0  0  0
  1  2  2  0
  2  3  1  0
  3  4  2  0
  4  5  1  0
  5  6  1  0
  6  7  2  0
  7  8  1  0
  8  9  2  0
  9 10  1  0
 10 11  1  0
 11 12  2  0
 12 13  1  0
 13 14  1  0
 14 15  2  0
 13 16  1  0
 12 17  1  0
 10 18  2  0
 18 19  1  0
  9 20  1  0
  8 21  1  0
  7 22  1  0
  5 23  2  0
 23 24  1  0
  4 25  1  0
  2 26  1  0
  1 27  1  0
 23  1  1  0
 18  6  1  0
 15 11  1  0
M  END
>  <plip>  (1) 
-0.03571428571428571

>  <filename>  (1) 
[H][c]1[n][c]([H])[c](-[c]2[c]([H])[c]([H])[c]([H])[c](-[c]3[n][n][n]([H])[c]3[H])[c]2[H])[c]([H])[c]1[H]

$$$$
