
     RDKit          3D

 36 38  0  0  0  0  0  0  0  0999 V2000
    6.5428   -4.3857   20.6726 C   0  0  0  0  0  0  0  0  0  0  0  0
    7.1733   -3.0951   20.6140 O   0  0  0  0  0  0  0  0  0  0  0  0
    6.6264   -2.0949   21.3226 C   0  0  0  0  0  0  0  0  0  0  0  0
    5.6682   -2.2661   22.0288 O   0  0  0  0  0  0  0  0  0  0  0  0
    7.3769   -0.7508   21.0229 C   0  0  0  0  0  0  0  0  0  0  0  0
    7.4443    0.0094   22.2431 O   0  0  0  0  0  0  0  0  0  0  0  0
    8.1527    1.1803   22.2703 C   0  0  0  0  0  0  0  0  0  0  0  0
    8.8181    1.5472   21.3309 O   0  0  0  0  0  0  0  0  0  0  0  0
    7.9735    1.8869   23.5937 C   0  0  0  0  0  0  0  0  0  0  0  0
    7.0938    1.5055   24.5700 C   0  0  0  0  0  0  0  0  0  0  0  0
    7.1274    2.5159   25.9658 S   0  0  0  0  0  0  0  0  0  0  0  0
    8.3615    3.5288   25.2863 C   0  0  0  0  0  0  0  0  0  0  0  0
    8.9565    4.6641   25.8753 C   0  0  0  0  0  0  0  0  0  0  0  0
    9.9356    5.3366   25.1549 C   0  0  0  0  0  0  0  0  0  0  0  0
   10.3219    4.8928   23.8699 C   0  0  0  0  0  0  0  0  0  0  0  0
    9.7268    3.7763   23.2962 C   0  0  0  0  0  0  0  0  0  0  0  0
    8.7273    3.0731   23.9985 C   0  0  0  0  0  0  0  0  0  0  0  0
   10.0043    3.4293   22.3082 H   0  0  0  0  0  0  0  0  0  0  0  0
   11.0861    5.4384   23.3288 H   0  0  0  0  0  0  0  0  0  0  0  0
   10.4064    6.2148   25.5827 H   0  0  0  0  0  0  0  0  0  0  0  0
    8.6620    5.0130   26.8615 H   0  0  0  0  0  0  0  0  0  0  0  0
    6.4022    0.6672   24.5830 H   0  0  0  0  0  0  0  0  0  0  0  0
    6.6767    0.0290   19.9122 C   0  0  0  0  0  0  0  0  0  0  0  0
    5.4534    0.6667   20.1554 C   0  0  0  0  0  0  0  0  0  0  0  0
    4.8113    1.3144   19.0982 C   0  0  0  0  0  0  0  0  0  0  0  0
    5.4018    1.2930   17.8328 C   0  0  0  0  0  0  0  0  0  0  0  0
    6.5672    0.6826   17.5788 N   0  0  0  0  0  0  0  0  0  0  0  0
    7.1851    0.0842   18.6091 C   0  0  0  0  0  0  0  0  0  0  0  0
    8.1312   -0.4029   18.3603 H   0  0  0  0  0  0  0  0  0  0  0  0
    4.9268    1.7908   16.9846 H   0  0  0  0  0  0  0  0  0  0  0  0
    3.8744    1.8372   19.2405 H   0  0  0  0  0  0  0  0  0  0  0  0
    5.0185    0.6365   21.1552 H   0  0  0  0  0  0  0  0  0  0  0  0
    8.3953   -1.0068   20.7078 H   0  0  0  0  0  0  0  0  0  0  0  0
    7.1084   -5.0086   19.9823 H   0  0  0  0  0  0  0  0  0  0  0  0
    5.4925   -4.3329   20.3655 H   0  0  0  0  0  0  0  0  0  0  0  0
    6.5886   -4.7808   21.6917 H   0  0  0  0  0  0  0  0  0  0  0  0
  1  2  1  0
  2  3  1  0
  3  4  2  0
  3  5  1  0
  5  6  1  0
  6  7  1  0
  7  8  2  0
  7  9  1  0
  9 10  2  0
 10 11  1  0
 11 12  1  0
 12 13  2  0
 13 14  1  0
 14 15  2  0
 15 16  1  0
 16 17  2  0
 16 18  1  0
 15 19  1  0
 14 20  1  0
 13 21  1  0
 10 22  1  0
  5 23  1  0
 23 24  2  0
 24 25  1  0
 25 26  2  0
 26 27  1  0
 27 28  2  0
 28 29  1  0
 26 30  1  0
 25 31  1  0
 24 32  1  0
  5 33  1  0
  1 34  1  0
  1 35  1  0
  1 36  1  0
 17  9  1  0
 28 23  1  0
 17 12  1  0
M  END
>  <plip>  (1) 
-0.14285714285714285

>  <filename>  (1) 
[H][c]1[n][c]([H])[c]([C]([H])([O][C](=[O])[c]2[c]([H])[s][c]3[c]([H])[c]([H])[c]([H])[c]([H])[c]23)[C](=[O])[O][C]([H])([H])[H])[c]([H])[c]1[H]

$$$$
