
     RDKit          3D

 18 19  0  0  0  0  0  0  0  0999 V2000
    4.9033    1.7692   17.0093 H   0  0  0  0  0  0  0  0  0  0  0  0
    5.3957    1.2909   17.8504 C   0  0  0  0  0  0  0  0  0  0  0  0
    6.5693    0.6831   17.5986 N   0  0  0  0  0  0  0  0  0  0  0  0
    7.1884    0.0552   18.5999 C   0  0  0  0  0  0  0  0  0  0  0  0
    8.1357   -0.4418   18.3862 H   0  0  0  0  0  0  0  0  0  0  0  0
    6.6592    0.0064   19.8976 C   0  0  0  0  0  0  0  0  0  0  0  0
    7.3581   -0.6857   20.9268 N   0  0  0  0  0  0  0  0  0  0  0  0
    8.0124   -1.8474   20.7043 N   0  0  0  0  0  0  0  0  0  0  0  0
    8.5615   -2.2264   21.8141 N   0  0  0  0  0  0  0  0  0  0  0  0
    8.2868   -1.3176   22.7804 C   0  0  0  0  0  0  0  0  0  0  0  0
    8.6451   -1.3712   23.8027 H   0  0  0  0  0  0  0  0  0  0  0  0
    7.5224   -0.3299   22.2321 C   0  0  0  0  0  0  0  0  0  0  0  0
    7.0912    0.8783   22.8226 C   0  0  0  0  0  0  0  0  0  0  0  0
    6.7542    1.8585   23.3322 N   0  0  0  0  0  0  0  0  0  0  0  0
    5.4439    0.6516   20.1595 C   0  0  0  0  0  0  0  0  0  0  0  0
    5.0098    0.6265   21.1543 H   0  0  0  0  0  0  0  0  0  0  0  0
    4.8054    1.3125   19.1130 C   0  0  0  0  0  0  0  0  0  0  0  0
    3.8763    1.8433   19.2698 H   0  0  0  0  0  0  0  0  0  0  0  0
  1  2  1  0
  2  3  2  0
  3  4  1  0
  4  5  1  0
  4  6  2  0
  6  7  1  0
  7  8  1  0
  8  9  2  0
  9 10  1  0
 10 11  1  0
 10 12  2  0
 12 13  1  0
 13 14  3  0
  6 15  1  0
 15 16  1  0
 15 17  2  0
 17 18  1  0
 17  2  1  0
 12  7  1  0
M  END
>  <plip>  (1) 
-0.034482758620689655

>  <filename>  (1) 
[H][c]1[n][c]([H])[c](-[n]2[n][n][c]([H])[c]2[C]#[N])[c]([H])[c]1[H]

$$$$
