
     RDKit          3D

 36 39  0  0  0  0  0  0  0  0999 V2000
    4.9512    1.8426   16.9451 H   0  0  0  0  0  0  0  0  0  0  0  0
    5.4037    1.3060   17.7735 C   0  0  0  0  0  0  0  0  0  0  0  0
    6.5548    0.6700   17.5108 N   0  0  0  0  0  0  0  0  0  0  0  0
    7.1460    0.0119   18.5124 C   0  0  0  0  0  0  0  0  0  0  0  0
    8.0996   -0.4570   18.2752 H   0  0  0  0  0  0  0  0  0  0  0  0
    6.6184   -0.0518   19.8148 C   0  0  0  0  0  0  0  0  0  0  0  0
    7.3729   -0.6691   20.9169 C   0  0  0  0  0  0  0  0  0  0  0  0
    8.5024   -1.3734   20.7225 N   0  0  0  0  0  0  0  0  0  0  0  0
    8.9005   -1.6488   21.9894 N   0  0  0  0  0  0  0  0  0  0  0  0
   10.0754   -2.1298   22.5570 C   0  0  0  0  0  0  0  0  0  0  0  0
   10.8647   -2.5006   21.9237 H   0  0  0  0  0  0  0  0  0  0  0  0
    9.9745   -1.9015   23.8912 C   0  0  0  0  0  0  0  0  0  0  0  0
   10.6573   -2.0006   24.7242 H   0  0  0  0  0  0  0  0  0  0  0  0
    8.7178   -1.3653   24.1353 N   0  0  0  0  0  0  0  0  0  0  0  0
    8.4746   -0.6933   25.2991 O   0  0  0  0  0  0  0  0  0  0  0  0
    7.1267   -0.5878   25.6861 C   0  0  0  0  0  0  0  0  0  0  0  0
    6.8653    0.5501   26.4434 C   0  0  0  0  0  0  0  0  0  0  0  0
    7.6870    1.2417   26.6027 H   0  0  0  0  0  0  0  0  0  0  0  0
    5.5712    0.7639   26.9090 C   0  0  0  0  0  0  0  0  0  0  0  0
    5.3558    1.6564   27.4919 H   0  0  0  0  0  0  0  0  0  0  0  0
    4.5583   -0.1636   26.6174 C   0  0  0  0  0  0  0  0  0  0  0  0
    3.5493    0.0170   26.9741 H   0  0  0  0  0  0  0  0  0  0  0  0
    4.8257   -1.3191   25.8622 C   0  0  0  0  0  0  0  0  0  0  0  0
    3.7313   -2.3199   25.5439 C   0  0  0  0  0  0  0  0  0  0  0  0
    3.6919   -3.1281   26.2861 H   0  0  0  0  0  0  0  0  0  0  0  0
    3.8817   -2.7883   24.5633 H   0  0  0  0  0  0  0  0  0  0  0  0
    2.7463   -1.8419   25.5251 H   0  0  0  0  0  0  0  0  0  0  0  0
    6.1322   -1.5212   25.3846 C   0  0  0  0  0  0  0  0  0  0  0  0
    6.3759   -2.3623   24.7387 H   0  0  0  0  0  0  0  0  0  0  0  0
    8.0935   -1.1325   22.9331 C   0  0  0  0  0  0  0  0  0  0  0  0
    7.0404   -0.5044   22.2841 C   0  0  0  0  0  0  0  0  0  0  0  0
    6.2063    0.0028   22.7412 H   0  0  0  0  0  0  0  0  0  0  0  0
    5.4062    0.6168   20.0648 C   0  0  0  0  0  0  0  0  0  0  0  0
    4.9701    0.6399   21.0642 H   0  0  0  0  0  0  0  0  0  0  0  0
    4.7887    1.3044   19.0280 C   0  0  0  0  0  0  0  0  0  0  0  0
    3.8701    1.8584   19.1909 H   0  0  0  0  0  0  0  0  0  0  0  0
  1  2  1  0
  2  3  2  0
  3  4  1  0
  4  5  1  0
  4  6  2  0
  6  7  1  0
  7  8  2  0
  8  9  1  0
  9 10  1  0
 10 11  1  0
 10 12  2  0
 12 13  1  0
 12 14  1  0
 14 15  1  0
 15 16  1  0
 16 17  2  0
 17 18  1  0
 17 19  1  0
 19 20  1  0
 19 21  2  0
 21 22  1  0
 21 23  1  0
 23 24  1  0
 24 25  1  0
 24 26  1  0
 24 27  1  0
 23 28  2  0
 28 29  1  0
 14 30  1  0
 30 31  2  0
 31 32  1  0
  6 33  1  0
 33 34  1  0
 33 35  2  0
 35 36  1  0
 35  2  1  0
 31  7  1  0
 30  9  1  0
 28 16  1  0
M  END
>  <plip>  (1) 
-0.0

>  <filename>  (1) 
[H][c]1[n][c]([H])[c](-[c]2[n][n]3[c]([H])[c]([H])[n]([O][c]4[c]([H])[c]([H])[c]([H])[c]([C]([H])([H])[H])[c]4[H])[c]3[c]2[H])[c]([H])[c]1[H]

$$$$
