
     RDKit          3D

 34 36  0  0  0  0  0  0  0  0999 V2000
    8.7624   -0.0852   21.2835 C   0  0  0  0  0  0  0  0  0  0  0  0
    7.4037   -0.7563   21.0458 C   0  0  0  0  0  0  0  0  0  0  0  0
    7.5429   -2.1732   20.8002 N   0  0  0  0  0  0  0  0  0  0  0  0
    7.8222   -3.0758   21.7383 C   0  0  0  0  0  0  0  0  0  0  0  0
    7.9686   -4.3194   21.2422 N   0  0  0  0  0  0  0  0  0  0  0  0
    8.2304   -5.2590   22.1462 C   0  0  0  0  0  0  0  0  0  0  0  0
    8.3671   -4.9937   23.5036 C   0  0  0  0  0  0  0  0  0  0  0  0
    8.6732   -5.8498   24.7074 C   0  0  0  0  0  0  0  0  0  0  0  0
    8.6294   -4.8716   25.9108 C   0  0  0  0  0  0  0  0  0  0  0  0
    8.3017   -3.4609   25.3408 C   0  0  0  0  0  0  0  0  0  0  0  0
    8.1705   -3.6649   23.8617 C   0  0  0  0  0  0  0  0  0  0  0  0
    7.9047   -2.6857   23.0030 N   0  0  0  0  0  0  0  0  0  0  0  0
    9.0919   -2.7336   25.5582 H   0  0  0  0  0  0  0  0  0  0  0  0
    7.3745   -3.0452   25.7565 H   0  0  0  0  0  0  0  0  0  0  0  0
    9.5760   -4.8817   26.4589 H   0  0  0  0  0  0  0  0  0  0  0  0
    7.8570   -5.1954   26.6161 H   0  0  0  0  0  0  0  0  0  0  0  0
    7.9119   -6.6067   24.8631 H   0  0  0  0  0  0  0  0  0  0  0  0
    9.6278   -6.3837   24.6193 H   0  0  0  0  0  0  0  0  0  0  0  0
    8.3421   -6.2728   21.7531 H   0  0  0  0  0  0  0  0  0  0  0  0
    7.5070   -2.6331   19.9116 H   0  0  0  0  0  0  0  0  0  0  0  0
    6.6410   -0.0769   19.9247 C   0  0  0  0  0  0  0  0  0  0  0  0
    5.4358    0.6070   20.1605 C   0  0  0  0  0  0  0  0  0  0  0  0
    4.8145    1.2857   19.1090 C   0  0  0  0  0  0  0  0  0  0  0  0
    5.4246    1.2666   17.8503 C   0  0  0  0  0  0  0  0  0  0  0  0
    6.5763    0.6280   17.6011 N   0  0  0  0  0  0  0  0  0  0  0  0
    7.1624   -0.0150   18.6241 C   0  0  0  0  0  0  0  0  0  0  0  0
    8.1247   -0.4632   18.3709 H   0  0  0  0  0  0  0  0  0  0  0  0
    4.9651    1.7818   17.0074 H   0  0  0  0  0  0  0  0  0  0  0  0
    3.8905    1.8402   19.2555 H   0  0  0  0  0  0  0  0  0  0  0  0
    5.0043    0.6296   21.1645 H   0  0  0  0  0  0  0  0  0  0  0  0
    6.8168   -0.6439   21.9706 H   0  0  0  0  0  0  0  0  0  0  0  0
    9.2544   -0.5125   22.1622 H   0  0  0  0  0  0  0  0  0  0  0  0
    9.4216   -0.2252   20.4204 H   0  0  0  0  0  0  0  0  0  0  0  0
    8.6204    0.9880   21.4442 H   0  0  0  0  0  0  0  0  0  0  0  0
  1  2  1  0
  2  3  1  0
  3  4  1  0
  4  5  2  0
  5  6  1  0
  6  7  2  0
  7  8  1  0
  8  9  1  0
  9 10  1  0
 10 11  1  0
 11 12  2  0
 10 13  1  0
 10 14  1  0
  9 15  1  0
  9 16  1  0
  8 17  1  0
  8 18  1  0
  6 19  1  0
  3 20  1  0
  2 21  1  0
 21 22  2  0
 22 23  1  0
 23 24  2  0
 24 25  1  0
 25 26  2  0
 26 27  1  0
 24 28  1  0
 23 29  1  0
 22 30  1  0
  2 31  1  0
  1 32  1  0
  1 33  1  0
  1 34  1  0
 12  4  1  0
 26 21  1  0
 11  7  1  0
M  END
>  <plip>  (1) 
-0.06896551724137931

>  <filename>  (1) 
[H][c]1[n][c]([H])[c]([C]([H])([N]([H])[c]2[n][c]([H])[c]3[c]([n]2)[C]([H])([H])[C]([H])([H])[C]3([H])[H])[C]([H])([H])[H])[c]([H])[c]1[H]

$$$$
