
     RDKit          3D

 42 43  0  0  0  0  0  0  0  0999 V2000
    4.9810    1.7993   16.8889 H   0  0  0  0  0  0  0  0  0  0  0  0
    5.4501    1.3175   17.7451 C   0  0  0  0  0  0  0  0  0  0  0  0
    6.6062    0.6844   17.5115 N   0  0  0  0  0  0  0  0  0  0  0  0
    7.2026    0.0852   18.5539 C   0  0  0  0  0  0  0  0  0  0  0  0
    8.1316   -0.4311   18.3110 H   0  0  0  0  0  0  0  0  0  0  0  0
    6.7036    0.0773   19.8704 C   0  0  0  0  0  0  0  0  0  0  0  0
    7.3778   -0.6381   21.0627 C   0  0  2  0  0  0  0  0  0  0  0  0
    6.4293   -1.7790   21.4963 C   0  0  0  0  0  0  0  0  0  0  0  0
    6.4000   -2.4863   20.6541 H   0  0  0  0  0  0  0  0  0  0  0  0
    5.3974   -1.4128   21.5898 H   0  0  0  0  0  0  0  0  0  0  0  0
    6.8615   -2.4622   22.7138 N   0  0  0  0  0  0  0  0  0  0  0  0
    6.4591   -1.9882   23.5232 H   0  0  0  0  0  0  0  0  0  0  0  0
    6.4965   -3.8740   22.7598 C   0  0  0  0  0  0  0  0  0  0  0  0
    6.7239   -4.2592   23.7593 H   0  0  0  0  0  0  0  0  0  0  0  0
    5.4132   -4.0307   22.6169 H   0  0  0  0  0  0  0  0  0  0  0  0
    7.2902   -4.7004   21.7138 C   0  0  0  0  0  0  0  0  0  0  0  0
    8.3324   -4.7232   22.0541 H   0  0  0  0  0  0  0  0  0  0  0  0
    7.3087   -4.1756   20.7503 H   0  0  0  0  0  0  0  0  0  0  0  0
    6.8557   -6.0835   21.4844 N   0  0  0  0  0  0  0  0  0  0  0  0
    7.0450   -6.9022   22.6682 C   0  0  0  0  0  0  0  0  0  0  0  0
    8.0742   -6.7984   23.0294 H   0  0  0  0  0  0  0  0  0  0  0  0
    6.3787   -6.6154   23.5045 H   0  0  0  0  0  0  0  0  0  0  0  0
    6.8884   -7.9565   22.4200 H   0  0  0  0  0  0  0  0  0  0  0  0
    5.5156   -6.1975   20.9214 C   0  0  0  0  0  0  0  0  0  0  0  0
    5.2001   -7.2478   20.8985 H   0  0  0  0  0  0  0  0  0  0  0  0
    4.7405   -5.6359   21.4786 H   0  0  0  0  0  0  0  0  0  0  0  0
    5.5155   -5.8508   19.8802 H   0  0  0  0  0  0  0  0  0  0  0  0
    7.7374    0.3349   22.2319 C   0  0  0  0  0  0  0  0  0  0  0  0
    7.7740   -0.2426   23.1674 H   0  0  0  0  0  0  0  0  0  0  0  0
    7.0036    1.1385   22.3719 H   0  0  0  0  0  0  0  0  0  0  0  0
    9.0594    0.9006   21.9149 N   0  0  0  0  0  0  0  0  0  0  0  0
    9.6351    0.9184   22.7460 H   0  0  0  0  0  0  0  0  0  0  0  0
    9.6683    0.0814   20.8594 C   0  0  0  0  0  0  0  0  0  0  0  0
   10.7182   -0.1549   21.0591 H   0  0  0  0  0  0  0  0  0  0  0  0
    9.6303    0.6443   19.9181 H   0  0  0  0  0  0  0  0  0  0  0  0
    8.7998   -1.1660   20.7617 C   0  0  0  0  0  0  0  0  0  0  0  0
    8.8850   -1.6813   19.8034 H   0  0  0  0  0  0  0  0  0  0  0  0
    9.0786   -1.8777   21.5516 H   0  0  0  0  0  0  0  0  0  0  0  0
    5.4756    0.7302   20.0745 C   0  0  0  0  0  0  0  0  0  0  0  0
    5.0112    0.7320   21.0655 H   0  0  0  0  0  0  0  0  0  0  0  0
    4.8394    1.3569   19.0033 C   0  0  0  0  0  0  0  0  0  0  0  0
    3.8854    1.8585   19.1251 H   0  0  0  0  0  0  0  0  0  0  0  0
  1  2  1  0
  2  3  2  0
  3  4  1  0
  4  5  1  0
  4  6  2  0
  6  7  1  0
  7  8  1  1
  8  9  1  0
  8 10  1  0
  8 11  1  0
 11 12  1  0
 11 13  1  0
 13 14  1  0
 13 15  1  0
 13 16  1  0
 16 17  1  0
 16 18  1  0
 16 19  1  0
 19 20  1  0
 20 21  1  0
 20 22  1  0
 20 23  1  0
 19 24  1  0
 24 25  1  0
 24 26  1  0
 24 27  1  0
  7 28  1  0
 28 29  1  0
 28 30  1  0
 28 31  1  0
 31 32  1  0
 31 33  1  0
 33 34  1  0
 33 35  1  0
 33 36  1  0
 36 37  1  0
 36 38  1  0
  6 39  1  0
 39 40  1  0
 39 41  2  0
 41 42  1  0
 41  2  1  0
 36  7  1  0
M  END
>  <plip>  (1) 
-0.10344827586206896

>  <filename>  (1) 
[H][c]1[n][c]([H])[c]([C@]2([C]([H])([H])[N]([H])[C]([H])([H])[C]([H])([H])[N]([C]([H])([H])[H])[C]([H])([H])[H])[C]([H])([H])[N]([H])[C]([H])([H])[C]2([H])[H])[c]([H])[c]1[H]

$$$$
