
     RDKit          3D

 33 35  0  0  0  0  0  0  0  0999 V2000
    6.7701   -2.7125   23.7084 H   0  0  0  0  0  0  0  0  0  0  0  0
    7.3022   -2.1113   22.9700 C   0  0  0  0  0  0  0  0  0  0  0  0
    8.6099   -1.9733   23.1419 N   0  0  0  0  0  0  0  0  0  0  0  0
    9.2503   -1.2579   22.2183 C   0  0  0  0  0  0  0  0  0  0  0  0
   10.5616   -1.1857   22.4194 O   0  0  0  0  0  0  0  0  0  0  0  0
   11.4128   -0.5839   21.4261 C   0  0  0  0  0  0  0  0  0  0  0  0
   10.9267   -0.6880   20.4515 H   0  0  0  0  0  0  0  0  0  0  0  0
   11.6484    0.8828   21.7897 C   0  0  0  0  0  0  0  0  0  0  0  0
   10.7313    1.3460   22.1675 H   0  0  0  0  0  0  0  0  0  0  0  0
   11.9401    1.4243   20.8814 H   0  0  0  0  0  0  0  0  0  0  0  0
   12.8079    0.8648   22.7981 C   0  0  0  0  0  0  0  0  0  0  0  0
   12.4222    0.6506   23.8030 H   0  0  0  0  0  0  0  0  0  0  0  0
   13.3322    1.8243   22.8519 H   0  0  0  0  0  0  0  0  0  0  0  0
   13.7222   -0.2830   22.3190 C   0  0  0  0  0  0  0  0  0  0  0  0
   14.5212    0.0847   21.6629 H   0  0  0  0  0  0  0  0  0  0  0  0
   14.2162   -0.7712   23.1639 H   0  0  0  0  0  0  0  0  0  0  0  0
   12.7973   -1.2610   21.5348 C   0  0  0  0  0  0  0  0  0  0  0  0
   13.2012   -1.4490   20.5333 H   0  0  0  0  0  0  0  0  0  0  0  0
   12.7010   -2.2257   22.0396 H   0  0  0  0  0  0  0  0  0  0  0  0
    8.7125   -0.6549   21.1608 N   0  0  0  0  0  0  0  0  0  0  0  0
    7.3907   -0.7479   21.0562 C   0  0  0  0  0  0  0  0  0  0  0  0
    6.7394   -0.0065   19.9713 C   0  0  0  0  0  0  0  0  0  0  0  0
    7.3284    0.0172   18.7045 C   0  0  0  0  0  0  0  0  0  0  0  0
    8.2989   -0.4549   18.5466 H   0  0  0  0  0  0  0  0  0  0  0  0
    6.7653    0.5936   17.6372 N   0  0  0  0  0  0  0  0  0  0  0  0
    5.5931    1.2207   17.8239 C   0  0  0  0  0  0  0  0  0  0  0  0
    5.1594    1.6919   16.9435 H   0  0  0  0  0  0  0  0  0  0  0  0
    4.9395    1.2967   19.0604 C   0  0  0  0  0  0  0  0  0  0  0  0
    4.0073    1.8453   19.1569 H   0  0  0  0  0  0  0  0  0  0  0  0
    5.5196    0.6671   20.1567 C   0  0  0  0  0  0  0  0  0  0  0  0
    5.0573    0.7234   21.1460 H   0  0  0  0  0  0  0  0  0  0  0  0
    6.6224   -1.5260   21.9137 C   0  0  0  0  0  0  0  0  0  0  0  0
    5.5646   -1.6579   21.7449 H   0  0  0  0  0  0  0  0  0  0  0  0
  1  2  1  0
  2  3  2  0
  3  4  1  0
  4  5  1  0
  5  6  1  0
  6  7  1  0
  6  8  1  0
  8  9  1  0
  8 10  1  0
  8 11  1  0
 11 12  1  0
 11 13  1  0
 11 14  1  0
 14 15  1  0
 14 16  1  0
 14 17  1  0
 17 18  1  0
 17 19  1  0
  4 20  2  0
 20 21  1  0
 21 22  1  0
 22 23  2  0
 23 24  1  0
 23 25  1  0
 25 26  2  0
 26 27  1  0
 26 28  1  0
 28 29  1  0
 28 30  2  0
 30 31  1  0
 21 32  2  0
 32 33  1  0
 32  2  1  0
 17  6  1  0
 30 22  1  0
M  END
>  <plip>  (1) 
-0.10714285714285714

>  <filename>  (1) 
[H][c]1[n][c]([O][C]2([H])[C]([H])([H])[C]([H])([H])[C]([H])([H])[C]2([H])[H])[n][c](-[c]2[c]([H])[n][c]([H])[c]([H])[c]2[H])[c]1[H]

$$$$
