
     RDKit          3D

 24 25  0  0  0  0  0  0  0  0999 V2000
    4.8823    1.8589   16.9518 H   0  0  0  0  0  0  0  0  0  0  0  0
    5.3636    1.3358   17.7799 C   0  0  0  0  0  0  0  0  0  0  0  0
    6.5342    0.7379   17.5127 N   0  0  0  0  0  0  0  0  0  0  0  0
    7.1609    0.1268   18.5262 C   0  0  0  0  0  0  0  0  0  0  0  0
    8.1102   -0.3320   18.2698 H   0  0  0  0  0  0  0  0  0  0  0  0
    6.6623    0.0477   19.8397 C   0  0  0  0  0  0  0  0  0  0  0  0
    7.4221   -0.6594   20.9545 C   0  0  1  0  0  0  0  0  0  0  0  0
    6.9217   -0.4370   21.9070 H   0  0  0  0  0  0  0  0  0  0  0  0
    7.5236   -2.2025   20.8923 C   0  0  0  0  0  0  0  0  0  0  0  0
    6.6565   -3.0279   20.8085 O   0  0  0  0  0  0  0  0  0  0  0  0
    8.8497   -2.4896   21.0049 N   0  0  0  0  0  0  0  0  0  0  0  0
    9.2405   -3.4064   20.9320 H   0  0  0  0  0  0  0  0  0  0  0  0
    9.6744   -1.4025   21.0666 C   0  0  0  0  0  0  0  0  0  0  0  0
   10.8655   -1.4859   21.1519 O   0  0  0  0  0  0  0  0  0  0  0  0
    8.8512   -0.2688   21.0332 N   0  0  0  0  0  0  0  0  0  0  0  0
    9.3772    1.2691   21.5585 S   0  0  0  0  0  0  0  0  0  0  0  0
    9.3508    1.3350   23.4215 C   0  0  0  0  0  0  0  0  0  0  0  0
    8.1225    1.1575   23.9069 F   0  0  0  0  0  0  0  0  0  0  0  0
   10.1508    0.4176   23.9524 F   0  0  0  0  0  0  0  0  0  0  0  0
    9.7863    2.5486   23.7513 F   0  0  0  0  0  0  0  0  0  0  0  0
    5.4195    0.6547   20.0905 C   0  0  0  0  0  0  0  0  0  0  0  0
    4.9634    0.6451   21.0859 H   0  0  0  0  0  0  0  0  0  0  0  0
    4.7661    1.3150   19.0442 C   0  0  0  0  0  0  0  0  0  0  0  0
    3.8276    1.8419   19.1989 H   0  0  0  0  0  0  0  0  0  0  0  0
  1  2  1  0
  2  3  2  0
  3  4  1  0
  4  5  1  0
  4  6  2  0
  6  7  1  0
  7  8  1  1
  7  9  1  0
  9 10  2  0
  9 11  1  0
 11 12  1  0
 11 13  1  0
 13 14  2  0
 13 15  1  0
 15 16  1  0
 16 17  1  0
 17 18  1  0
 17 19  1  0
 17 20  1  0
  6 21  1  0
 21 22  1  0
 21 23  2  0
 23 24  1  0
 23  2  1  0
 15  7  1  0
M  END
>  <plip>  (1) 
-0.034482758620689655

>  <filename>  (1) 
[H][c]1[n][c]([H])[c]([C@@]2([H])[C](=[O])[N]([H])[C](=[O])[N]2[S][C]([F])([F])[F])[c]([H])[c]1[H]

$$$$
