
     RDKit          3D

 37 38  0  0  0  0  0  0  0  0999 V2000
    8.2105   -3.3867   27.1637 H   0  0  0  0  0  0  0  0  0  0  0  0
    7.6433   -2.6117   27.4559 O   0  0  0  0  0  0  0  0  0  0  0  0
    6.9727   -3.0521   26.2073 P   0  0  0  0  0  0  0  0  0  0  0  0
    8.1384   -3.8964   26.3450 O   0  0  0  0  0  0  0  0  0  0  0  0
    5.7852   -4.0152   26.3878 O   0  0  0  0  0  0  0  0  0  0  0  0
    6.3271   -4.6672   26.8600 H   0  0  0  0  0  0  0  0  0  0  0  0
    6.6072   -1.9703   24.8240 C   0  0  0  0  0  0  0  0  0  0  0  0
    5.8623   -2.4246   24.1741 H   0  0  0  0  0  0  0  0  0  0  0  0
    7.6691   -1.2244   23.9739 N   0  0  0  0  0  0  0  0  0  0  0  0
    7.5114   -0.2068   23.8665 H   0  0  0  0  0  0  0  0  0  0  0  0
    7.9686   -1.8459   22.6585 C   0  0  1  0  0  0  0  0  0  0  0  0
    8.1262   -2.9217   22.7877 H   0  0  0  0  0  0  0  0  0  0  0  0
    6.9226   -1.6341   21.5458 C   0  0  0  0  0  0  0  0  0  0  0  0
    5.8089   -2.1651   21.4689 O   0  0  0  0  0  0  0  0  0  0  0  0
    7.4934   -0.9400   20.4864 N   0  0  0  0  0  0  0  0  0  0  0  0
    6.7860   -0.2028   19.5171 C   0  0  0  0  0  0  0  0  0  0  0  0
    7.3589    0.1356   18.2679 C   0  0  0  0  0  0  0  0  0  0  0  0
    8.3571   -0.2336   18.0449 H   0  0  0  0  0  0  0  0  0  0  0  0
    6.7331    0.8823   17.3352 N   0  0  0  0  0  0  0  0  0  0  0  0
    5.5077    1.3565   17.6316 C   0  0  0  0  0  0  0  0  0  0  0  0
    5.0008    1.9840   16.9059 H   0  0  0  0  0  0  0  0  0  0  0  0
    4.8658    1.0734   18.8457 C   0  0  0  0  0  0  0  0  0  0  0  0
    3.8868    1.4996   19.0384 H   0  0  0  0  0  0  0  0  0  0  0  0
    5.5026    0.2706   19.7977 C   0  0  0  0  0  0  0  0  0  0  0  0
    5.0444    0.0487   20.7599 H   0  0  0  0  0  0  0  0  0  0  0  0
    8.9135   -0.6977   20.6950 C   0  0  0  0  0  0  0  0  0  0  0  0
    9.5020   -1.2532   19.9596 H   0  0  0  0  0  0  0  0  0  0  0  0
    9.1440    0.3706   20.5927 H   0  0  0  0  0  0  0  0  0  0  0  0
    9.2350   -1.1704   22.1163 C   0  0  0  0  0  0  0  0  0  0  0  0
    9.5041   -0.3057   22.7336 H   0  0  0  0  0  0  0  0  0  0  0  0
   10.0831   -1.8644   22.1262 H   0  0  0  0  0  0  0  0  0  0  0  0
    5.7556   -1.4246   26.2768 P   0  0  0  0  0  0  0  0  0  0  0  0
    6.6807   -0.5817   27.0244 O   0  0  0  0  0  0  0  0  0  0  0  0
    4.7794   -2.2133   27.1694 O   0  0  0  0  0  0  0  0  0  0  0  0
    4.1097   -2.0681   26.4578 H   0  0  0  0  0  0  0  0  0  0  0  0
    4.2801   -1.1961   26.1295 O   0  0  0  0  0  0  0  0  0  0  0  0
    4.2274   -1.4500   27.0845 H   0  0  0  0  0  0  0  0  0  0  0  0
  1  2  1  0
  2  3  1  0
  3  4  2  0
  3  5  1  0
  5  6  1  0
  3  7  1  0
  7  8  1  0
  7  9  1  0
  9 10  1  0
  9 11  1  0
 11 12  1  1
 11 13  1  0
 13 14  2  0
 13 15  1  0
 15 16  1  0
 16 17  2  0
 17 18  1  0
 17 19  1  0
 19 20  2  0
 20 21  1  0
 20 22  1  0
 22 23  1  0
 22 24  2  0
 24 25  1  0
 15 26  1  0
 26 27  1  0
 26 28  1  0
 26 29  1  0
 29 30  1  0
 29 31  1  0
  7 32  1  0
 32 33  2  0
 32 34  1  0
 34 35  1  0
 32 36  1  0
 36 37  1  0
 29 11  1  0
 24 16  1  0
M  END
>  <plip>  (1) 
-0.03571428571428571

>  <filename>  (1) 
[H][O][P](=[O])([O][H])[C]([H])([N]([H])[C@@]1([H])[C](=[O])[N]([c]2[c]([H])[n][c]([H])[c]([H])[c]2[H])[C]([H])([H])[C]1([H])[H])[P](=[O])([O][H])[O][H]

$$$$
