
     RDKit          3D

 37 39  0  0  0  0  0  0  0  0999 V2000
    6.6106   -1.5430   21.9184 C   0  0  0  0  0  0  0  0  0  0  0  0
    7.4821   -0.7150   20.9703 C   0  0  0  0  0  0  0  0  0  0  0  0
    8.3627    0.3158   21.7487 C   0  0  0  0  0  0  0  0  0  0  0  0
    7.6198    1.4322   22.4127 C   0  0  0  0  0  0  0  0  0  0  0  0
    7.3331    2.6118   21.9548 N   0  0  0  0  0  0  0  0  0  0  0  0
    6.5470    3.1541   22.9668 C   0  0  0  0  0  0  0  0  0  0  0  0
    5.8687    4.5106   22.8609 C   0  0  0  0  0  0  0  0  0  0  0  0
    5.9257    5.2506   21.6561 C   0  0  0  0  0  0  0  0  0  0  0  0
    5.2953    6.5114   21.5847 C   0  0  0  0  0  0  0  0  0  0  0  0
    5.2651    7.4385   20.3472 C   0  0  0  0  0  0  0  0  0  0  0  0
    6.4106    7.4316   19.6546 F   0  0  0  0  0  0  0  0  0  0  0  0
    5.0620    8.7225   20.7139 F   0  0  0  0  0  0  0  0  0  0  0  0
    4.2814    7.1429   19.4797 F   0  0  0  0  0  0  0  0  0  0  0  0
    4.6328    6.9522   22.7415 C   0  0  0  0  0  0  0  0  0  0  0  0
    4.6222    6.1558   23.8853 C   0  0  0  0  0  0  0  0  0  0  0  0
    5.2217    4.9674   23.9545 N   0  0  0  0  0  0  0  0  0  0  0  0
    4.1222    6.4927   24.7887 H   0  0  0  0  0  0  0  0  0  0  0  0
    4.1495    7.9187   22.7565 H   0  0  0  0  0  0  0  0  0  0  0  0
    6.4732    4.8062   20.8258 H   0  0  0  0  0  0  0  0  0  0  0  0
    6.4207    2.3535   24.0016 N   0  0  0  0  0  0  0  0  0  0  0  0
    7.1336    1.2304   23.6441 O   0  0  0  0  0  0  0  0  0  0  0  0
    8.9310   -0.2055   22.5214 H   0  0  0  0  0  0  0  0  0  0  0  0
    9.0741    0.7769   21.0557 H   0  0  0  0  0  0  0  0  0  0  0  0
    6.6617   -0.0339   19.8792 C   0  0  0  0  0  0  0  0  0  0  0  0
    5.4373    0.6139   20.1229 C   0  0  0  0  0  0  0  0  0  0  0  0
    4.7969    1.2921   19.0820 C   0  0  0  0  0  0  0  0  0  0  0  0
    5.3960    1.2970   17.8191 C   0  0  0  0  0  0  0  0  0  0  0  0
    6.5582    0.6805   17.5508 N   0  0  0  0  0  0  0  0  0  0  0  0
    7.1606    0.0455   18.5656 C   0  0  0  0  0  0  0  0  0  0  0  0
    8.1104   -0.4312   18.3156 H   0  0  0  0  0  0  0  0  0  0  0  0
    4.9275    1.8184   16.9852 H   0  0  0  0  0  0  0  0  0  0  0  0
    3.8692    1.8356   19.2414 H   0  0  0  0  0  0  0  0  0  0  0  0
    5.0052    0.6339   21.1267 H   0  0  0  0  0  0  0  0  0  0  0  0
    8.1817   -1.3950   20.4659 H   0  0  0  0  0  0  0  0  0  0  0  0
    7.2133   -2.1838   22.5704 H   0  0  0  0  0  0  0  0  0  0  0  0
    5.9162   -2.1863   21.3678 H   0  0  0  0  0  0  0  0  0  0  0  0
    6.0376   -0.8774   22.5602 H   0  0  0  0  0  0  0  0  0  0  0  0
  1  2  1  0
  2  3  1  0
  3  4  1  0
  4  5  2  0
  5  6  1  0
  6  7  1  0
  7  8  2  0
  8  9  1  0
  9 10  1  0
 10 11  1  0
 10 12  1  0
 10 13  1  0
  9 14  2  0
 14 15  1  0
 15 16  2  0
 15 17  1  0
 14 18  1  0
  8 19  1  0
  6 20  2  0
 20 21  1  0
  3 22  1  0
  3 23  1  0
  2 24  1  0
 24 25  2  0
 25 26  1  0
 26 27  2  0
 27 28  1  0
 28 29  2  0
 29 30  1  0
 27 31  1  0
 26 32  1  0
 25 33  1  0
  2 34  1  0
  1 35  1  0
  1 36  1  0
  1 37  1  0
 21  4  1  0
 29 24  1  0
 16  7  1  0
M  END
>  <plip>  (1) 
-0.03571428571428571

>  <filename>  (1) 
[H][c]1[n][c]([H])[c]([C]([H])([C]([H])([H])[H])[C]([H])([H])[c]2[n][c](-[c]3[n][c]([H])[c]([H])[c]([C]([F])([F])[F])[c]3[H])[n][o]2)[c]([H])[c]1[H]

$$$$
