
     RDKit          3D

 37 38  0  0  0  0  0  0  0  0999 V2000
    6.1167   -4.0150   19.8854 C   0  0  0  0  0  0  0  0  0  0  0  0
    6.0538   -2.9249   20.9447 C   0  0  0  0  0  0  0  0  0  0  0  0
    5.9324   -3.5195   22.3590 C   0  0  0  0  0  0  0  0  0  0  0  0
    5.8545   -2.5648   23.4062 O   0  0  0  0  0  0  0  0  0  0  0  0
    5.1155   -1.9513   23.2342 H   0  0  0  0  0  0  0  0  0  0  0  0
    5.0749   -4.2097   22.3839 H   0  0  0  0  0  0  0  0  0  0  0  0
    6.8378   -4.1103   22.5530 H   0  0  0  0  0  0  0  0  0  0  0  0
    7.2918   -2.0925   20.7537 N   0  0  0  0  0  4  0  0  0  0  0  0
    7.2277   -0.6407   21.1046 C   0  0  0  0  0  0  0  0  0  0  0  0
    8.6307   -0.1230   21.4080 C   0  0  0  0  0  0  0  0  0  0  0  0
    8.7465    1.0780   22.1341 C   0  0  0  0  0  0  0  0  0  0  0  0
    9.9917    1.6727   22.3769 C   0  0  0  0  0  0  0  0  0  0  0  0
   11.1454    1.0170   21.9474 C   0  0  0  0  0  0  0  0  0  0  0  0
   12.3505    1.5599   22.1983 F   0  0  0  0  0  0  0  0  0  0  0  0
   11.0768   -0.1984   21.2753 C   0  0  0  0  0  0  0  0  0  0  0  0
    9.8228   -0.7520   20.9941 C   0  0  0  0  0  0  0  0  0  0  0  0
    9.8131   -1.6927   20.4447 H   0  0  0  0  0  0  0  0  0  0  0  0
   12.0015   -0.6928   20.9897 H   0  0  0  0  0  0  0  0  0  0  0  0
   10.0784    2.6132   22.9112 H   0  0  0  0  0  0  0  0  0  0  0  0
    7.8512    1.5560   22.5403 H   0  0  0  0  0  0  0  0  0  0  0  0
    6.5249    0.0808   19.9722 C   0  0  0  0  0  0  0  0  0  0  0  0
    5.3016    0.7459   20.1255 C   0  0  0  0  0  0  0  0  0  0  0  0
    4.7374    1.3727   19.0107 C   0  0  0  0  0  0  0  0  0  0  0  0
    5.4128    1.3034   17.7885 C   0  0  0  0  0  0  0  0  0  0  0  0
    6.5760    0.6532   17.6255 N   0  0  0  0  0  0  0  0  0  0  0  0
    7.1069    0.0597   18.6991 C   0  0  0  0  0  0  0  0  0  0  0  0
    8.0617   -0.4488   18.5414 H   0  0  0  0  0  0  0  0  0  0  0  0
    5.0004    1.7765   16.8982 H   0  0  0  0  0  0  0  0  0  0  0  0
    3.8059    1.9244   19.0751 H   0  0  0  0  0  0  0  0  0  0  0  0
    4.7980    0.7771   21.0936 H   0  0  0  0  0  0  0  0  0  0  0  0
    6.6133   -0.5248   22.0048 H   0  0  0  0  0  0  0  0  0  0  0  0
    8.0729   -2.4791   21.3360 H   0  0  0  0  0  0  0  0  0  0  0  0
    7.5386   -2.1177   19.7369 H   0  0  0  0  0  0  0  0  0  0  0  0
    5.1845   -2.2738   20.7881 H   0  0  0  0  0  0  0  0  0  0  0  0
    7.0372   -4.5997   20.0070 H   0  0  0  0  0  0  0  0  0  0  0  0
    6.1193   -3.5526   18.8940 H   0  0  0  0  0  0  0  0  0  0  0  0
    5.2810   -4.7118   19.9326 H   0  0  0  0  0  0  0  0  0  0  0  0
  1  2  1  0
  2  3  1  0
  3  4  1  0
  4  5  1  0
  3  6  1  0
  3  7  1  0
  2  8  1  0
  8  9  1  0
  9 10  1  0
 10 11  2  0
 11 12  1  0
 12 13  2  0
 13 14  1  0
 13 15  1  0
 15 16  2  0
 16 17  1  0
 15 18  1  0
 12 19  1  0
 11 20  1  0
  9 21  1  0
 21 22  2  0
 22 23  1  0
 23 24  2  0
 24 25  1  0
 25 26  2  0
 26 27  1  0
 24 28  1  0
 23 29  1  0
 22 30  1  0
  9 31  1  0
  8 32  1  0
  8 33  1  0
  2 34  1  0
  1 35  1  0
  1 36  1  0
  1 37  1  0
 16 10  1  0
 26 21  1  0
M  CHG  1   8   1
M  END
>  <plip>  (1) 
-0.10714285714285714

>  <filename>  (1) 
[H][O][C]([H])([H])[C]([H])([C]([H])([H])[H])[N+]([H])([H])[C]([H])([c]1[c]([H])[n][c]([H])[c]([H])[c]1[H])[c]1[c]([H])[c]([H])[c]([F])[c]([H])[c]1[H]

$$$$
