
     RDKit          3D

 48 52  0  0  0  0  0  0  0  0999 V2000
    9.5829    0.6740   20.2975 O   0  0  0  0  0  0  0  0  0  0  0  0
    9.1460    0.9331   21.4147 C   0  0  0  0  0  0  0  0  0  0  0  0
    8.0414    0.3358   21.9356 N   0  0  0  0  0  0  0  0  0  0  0  0
    7.1655   -0.6189   21.2511 C   0  0  0  0  0  0  0  0  0  0  0  0
    6.5205    0.0439   20.0358 C   0  0  0  0  0  0  0  0  0  0  0  0
    5.3089    0.7350   20.1668 C   0  0  0  0  0  0  0  0  0  0  0  0
    4.7542    1.3590   19.0471 C   0  0  0  0  0  0  0  0  0  0  0  0
    5.4397    1.2787   17.8299 C   0  0  0  0  0  0  0  0  0  0  0  0
    6.6135    0.6474   17.6860 N   0  0  0  0  0  0  0  0  0  0  0  0
    7.1437    0.0750   18.7794 C   0  0  0  0  0  0  0  0  0  0  0  0
    8.1337   -0.3596   18.6475 H   0  0  0  0  0  0  0  0  0  0  0  0
    5.0327    1.7462   16.9348 H   0  0  0  0  0  0  0  0  0  0  0  0
    3.8225    1.9126   19.1090 H   0  0  0  0  0  0  0  0  0  0  0  0
    4.8183    0.7924   21.1397 H   0  0  0  0  0  0  0  0  0  0  0  0
    7.8512   -1.9865   20.9560 C   0  0  0  0  0  0  0  0  0  0  0  0
    8.6357   -2.6249   22.1333 C   0  0  0  0  0  0  0  0  0  0  0  0
    7.8243   -3.8808   22.4830 C   0  0  0  0  0  0  0  0  0  0  0  0
    7.1566   -4.2036   21.1511 C   0  0  0  0  0  0  0  0  0  0  0  0
    6.8409   -2.9350   20.5952 O   0  0  0  0  0  0  0  0  0  0  0  0
    6.2288   -4.7745   21.2448 H   0  0  0  0  0  0  0  0  0  0  0  0
    7.8229   -4.7810   20.4905 H   0  0  0  0  0  0  0  0  0  0  0  0
    7.0587   -3.6638   23.2374 H   0  0  0  0  0  0  0  0  0  0  0  0
    8.4432   -4.6965   22.8676 H   0  0  0  0  0  0  0  0  0  0  0  0
    9.6471   -2.8850   21.7933 H   0  0  0  0  0  0  0  0  0  0  0  0
    8.7564   -1.9407   22.9791 H   0  0  0  0  0  0  0  0  0  0  0  0
    8.5316   -1.8328   20.1114 H   0  0  0  0  0  0  0  0  0  0  0  0
    6.3672   -0.8639   21.9626 H   0  0  0  0  0  0  0  0  0  0  0  0
    7.7410    0.7355   22.8129 H   0  0  0  0  0  0  0  0  0  0  0  0
    9.8285    1.9438   22.3160 C   0  0  0  0  0  0  0  0  0  0  0  0
   10.9453    2.6918   22.0065 C   0  0  0  0  0  0  0  0  0  0  0  0
   11.8352    2.7439   20.8019 C   0  0  0  0  0  0  0  0  0  0  0  0
   12.7750    3.8183   20.7850 O   0  0  0  0  0  0  0  0  0  0  0  0
   12.8720    4.6920   21.8256 C   0  0  0  0  0  0  0  0  0  0  0  0
   13.7380    5.7710   21.6537 C   0  0  0  0  0  0  0  0  0  0  0  0
   13.8385    6.7605   22.6252 C   0  0  0  0  0  0  0  0  0  0  0  0
   13.1225    6.6350   23.8240 C   0  0  0  0  0  0  0  0  0  0  0  0
   12.3040    5.5225   24.0353 C   0  0  0  0  0  0  0  0  0  0  0  0
   12.1299    4.5675   23.0243 C   0  0  0  0  0  0  0  0  0  0  0  0
   11.1799    3.5083   23.0876 N   0  0  0  0  0  0  0  0  0  0  0  0
   10.1977    3.2194   24.0024 C   0  0  0  0  0  0  0  0  0  0  0  0
    9.3881    2.2898   23.5833 N   0  0  0  0  0  0  0  0  0  0  0  0
   10.1123    3.7258   24.9519 H   0  0  0  0  0  0  0  0  0  0  0  0
   11.8040    5.4174   24.9901 H   0  0  0  0  0  0  0  0  0  0  0  0
   13.2089    7.3850   24.6044 H   0  0  0  0  0  0  0  0  0  0  0  0
   14.4987    7.6028   22.4429 H   0  0  0  0  0  0  0  0  0  0  0  0
   14.3306    5.8171   20.7509 H   0  0  0  0  0  0  0  0  0  0  0  0
   11.2442    2.8206   19.8939 H   0  0  0  0  0  0  0  0  0  0  0  0
   12.3827    1.8037   20.7198 H   0  0  0  0  0  0  0  0  0  0  0  0
  1  2  2  0
  2  3  1  0
  3  4  1  0
  4  5  1  0
  5  6  2  0
  6  7  1  0
  7  8  2  0
  8  9  1  0
  9 10  2  0
 10 11  1  0
  8 12  1  0
  7 13  1  0
  6 14  1  0
  4 15  1  0
 15 16  1  0
 16 17  1  0
 17 18  1  0
 18 19  1  0
 18 20  1  0
 18 21  1  0
 17 22  1  0
 17 23  1  0
 16 24  1  0
 16 25  1  0
 15 26  1  0
  4 27  1  0
  3 28  1  0
  2 29  1  0
 29 30  2  0
 30 31  1  0
 31 32  1  0
 32 33  1  0
 33 34  2  0
 34 35  1  0
 35 36  2  0
 36 37  1  0
 37 38  2  0
 38 39  1  0
 39 40  1  0
 40 41  2  0
 40 42  1  0
 37 43  1  0
 36 44  1  0
 35 45  1  0
 34 46  1  0
 31 47  1  0
 31 48  1  0
 10  5  1  0
 19 15  1  0
 41 29  1  0
 39 30  1  0
 38 33  1  0
M  END
>  <plip>  (1) 
-0.13333333333333333

>  <filename>  (1) 
[H][c]1[n][c]([H])[c]([C]([H])([N]([H])[C](=[O])[c]2[n][c]([H])[n]3[c]2[C]([H])([H])[O][c]2[c]([H])[c]([H])[c]([H])[c]([H])[c]2-3)[C]2([H])[O][C]([H])([H])[C]([H])([H])[C]2([H])[H])[c]([H])[c]1[H]

$$$$
