
     RDKit          3D

 37 39  0  0  0  0  0  0  0  0999 V2000
    6.8096   -6.8550   27.8254 H   0  0  0  0  0  0  0  0  0  0  0  0
    7.0158   -6.2676   28.5593 O   0  0  0  0  0  0  0  0  0  0  0  0
    6.8170   -4.9343   28.1178 C   0  0  0  0  0  0  0  0  0  0  0  0
    6.8027   -4.3622   29.0345 H   0  0  0  0  0  0  0  0  0  0  0  0
    5.8334   -4.7929   27.6432 H   0  0  0  0  0  0  0  0  0  0  0  0
    7.9314   -4.4573   27.1818 C   0  0  0  0  0  0  0  0  0  0  0  0
    8.8863   -4.6588   27.6813 H   0  0  0  0  0  0  0  0  0  0  0  0
    7.9199   -5.0984   26.2747 H   0  0  0  0  0  0  0  0  0  0  0  0
    7.8441   -3.0256   26.8571 N   0  0  0  0  0  0  0  0  0  0  0  0
    6.6368   -2.7046   26.0573 C   0  0  0  0  0  0  0  0  0  0  0  0
    6.2922   -3.5882   25.4984 H   0  0  0  0  0  0  0  0  0  0  0  0
    5.8249   -2.4350   26.7412 H   0  0  0  0  0  0  0  0  0  0  0  0
    6.8319   -1.5708   25.0241 C   0  0  0  0  0  0  0  0  0  0  0  0
    5.9103   -1.4418   24.4571 H   0  0  0  0  0  0  0  0  0  0  0  0
    7.0175   -0.6346   25.5682 H   0  0  0  0  0  0  0  0  0  0  0  0
    7.9485   -1.8727   24.1169 N   0  0  0  0  0  0  0  0  0  0  0  0
    7.9562   -1.5355   22.8032 C   0  0  0  0  0  0  0  0  0  0  0  0
    8.9155   -1.8816   21.9765 N   0  0  0  0  0  0  0  0  0  0  0  0
    8.5005   -1.3063   20.7660 O   0  0  0  0  0  0  0  0  0  0  0  0
    7.3446   -0.6914   21.0068 C   0  0  0  0  0  0  0  0  0  0  0  0
    6.6532    0.0085   19.9191 C   0  0  0  0  0  0  0  0  0  0  0  0
    7.1816    0.0510   18.6185 C   0  0  0  0  0  0  0  0  0  0  0  0
    8.1265   -0.4293   18.3721 H   0  0  0  0  0  0  0  0  0  0  0  0
    6.5739    0.6663   17.5977 N   0  0  0  0  0  0  0  0  0  0  0  0
    5.4098    1.2854   17.8466 C   0  0  0  0  0  0  0  0  0  0  0  0
    4.9279    1.7739   17.0012 H   0  0  0  0  0  0  0  0  0  0  0  0
    4.8049    1.3097   19.1085 C   0  0  0  0  0  0  0  0  0  0  0  0
    3.8733    1.8443   19.2561 H   0  0  0  0  0  0  0  0  0  0  0  0
    5.4313    0.6556   20.1658 C   0  0  0  0  0  0  0  0  0  0  0  0
    5.0004    0.6357   21.1708 H   0  0  0  0  0  0  0  0  0  0  0  0
    6.9447   -0.7964   22.2369 N   0  0  0  0  0  0  0  0  0  0  0  0
    9.1055   -2.5668   24.7015 C   0  0  0  0  0  0  0  0  0  0  0  0
    9.1190   -3.6204   24.3883 H   0  0  0  0  0  0  0  0  0  0  0  0
   10.0316   -2.1119   24.3409 H   0  0  0  0  0  0  0  0  0  0  0  0
    9.0743   -2.4986   26.2424 C   0  0  0  0  0  0  0  0  0  0  0  0
    9.2193   -1.4534   26.5512 H   0  0  0  0  0  0  0  0  0  0  0  0
    9.9096   -3.0637   26.6523 H   0  0  0  0  0  0  0  0  0  0  0  0
  1  2  1  0
  2  3  1  0
  3  4  1  0
  3  5  1  0
  3  6  1  0
  6  7  1  0
  6  8  1  0
  6  9  1  0
  9 10  1  0
 10 11  1  0
 10 12  1  0
 10 13  1  0
 13 14  1  0
 13 15  1  0
 13 16  1  0
 16 17  1  0
 17 18  2  0
 18 19  1  0
 19 20  1  0
 20 21  1  0
 21 22  2  0
 22 23  1  0
 22 24  1  0
 24 25  2  0
 25 26  1  0
 25 27  1  0
 27 28  1  0
 27 29  2  0
 29 30  1  0
 20 31  2  0
 16 32  1  0
 32 33  1  0
 32 34  1  0
 32 35  1  0
 35 36  1  0
 35 37  1  0
 35  9  1  0
 31 17  1  0
 29 21  1  0
M  END
>  <plip>  (1) 
-0.06896551724137931

>  <filename>  (1) 
[H][O][C]([H])([H])[C]([H])([H])[N]1[C]([H])([H])[C]([H])([H])[N]([c]2[n][o][c](-[c]3[c]([H])[n][c]([H])[c]([H])[c]3[H])[n]2)[C]([H])([H])[C]1([H])[H]

$$$$
