
     RDKit          3D

 37 40  0  0  0  0  0  0  0  0999 V2000
    5.1068    1.9008   16.7451 H   0  0  0  0  0  0  0  0  0  0  0  0
    5.5322    1.3885   17.6032 C   0  0  0  0  0  0  0  0  0  0  0  0
    6.7150    0.7820   17.4067 N   0  0  0  0  0  0  0  0  0  0  0  0
    7.2736    0.1519   18.4500 C   0  0  0  0  0  0  0  0  0  0  0  0
    8.2309   -0.3380   18.2648 H   0  0  0  0  0  0  0  0  0  0  0  0
    6.6785    0.0724   19.7313 C   0  0  0  0  0  0  0  0  0  0  0  0
    7.2997   -0.5936   20.8302 N   0  0  0  0  0  0  0  0  0  0  0  0
    8.2661   -0.4061   21.0412 H   0  0  0  0  0  0  0  0  0  0  0  0
    6.6445   -1.4393   21.7006 C   0  0  0  0  0  0  0  0  0  0  0  0
    5.5485   -1.8964   21.4253 O   0  0  0  0  0  0  0  0  0  0  0  0
    7.4014   -1.7896   23.0068 C   0  0  0  0  0  0  0  0  0  0  0  0
    7.8702   -3.1991   23.0659 C   0  0  0  0  0  0  0  0  0  0  0  0
    7.6437   -4.1087   22.0312 C   0  0  0  0  0  0  0  0  0  0  0  0
    6.8096   -4.0058   21.3837 H   0  0  0  0  0  0  0  0  0  0  0  0
    8.0248   -5.4667   22.3516 C   0  0  0  0  0  0  0  0  0  0  0  0
    7.6764   -6.3449   21.1924 H   0  0  0  0  0  0  0  0  0  0  0  0
    8.0585   -5.7404   22.0338 C   0  0  0  0  0  0  0  0  0  0  0  0
    9.1505   -6.1682   22.0350 H   0  0  0  0  0  0  0  0  0  0  0  0
    8.9004   -5.1490   24.0056 C   0  0  0  0  0  0  0  0  0  0  0  0
    9.4927   -5.9421   24.9156 C   0  0  0  0  0  0  0  0  0  0  0  0
    9.7349   -6.9930   24.7586 H   0  0  0  0  0  0  0  0  0  0  0  0
    9.8244   -5.3008   26.1266 C   0  0  0  0  0  0  0  0  0  0  0  0
   10.3082   -5.8396   26.9306 H   0  0  0  0  0  0  0  0  0  0  0  0
    9.5419   -3.9341   26.2998 C   0  0  0  0  0  0  0  0  0  0  0  0
    9.8104   -3.4612   27.2432 H   0  0  0  0  0  0  0  0  0  0  0  0
    8.9630   -3.1600   25.3855 N   0  0  0  0  0  0  0  0  0  0  0  0
    8.6155   -3.7866   24.2218 C   0  0  0  0  0  0  0  0  0  0  0  0
    8.1667   -0.6695   23.7130 C   0  0  0  0  0  0  0  0  0  0  0  0
    8.2596    0.2978   23.2196 H   0  0  0  0  0  0  0  0  0  0  0  0
    9.0379   -0.9621   24.2896 H   0  0  0  0  0  0  0  0  0  0  0  0
    6.8460   -1.0719   24.2651 C   0  0  0  0  0  0  0  0  0  0  0  0
    5.9969   -0.4063   24.1209 H   0  0  0  0  0  0  0  0  0  0  0  0
    6.8364   -1.6068   25.2153 H   0  0  0  0  0  0  0  0  0  0  0  0
    5.4286    0.6828   19.9039 C   0  0  0  0  0  0  0  0  0  0  0  0
    4.9351    0.6082   20.8708 H   0  0  0  0  0  0  0  0  0  0  0  0
    4.8588    1.3693   18.8271 C   0  0  0  0  0  0  0  0  0  0  0  0
    3.9095    1.8835   18.9285 H   0  0  0  0  0  0  0  0  0  0  0  0
  1  2  1  0
  2  3  2  0
  3  4  1  0
  4  5  1  0
  4  6  2  0
  6  7  1  0
  7  8  1  0
  7  9  1  0
  9 10  2  0
  9 11  1  0
 11 12  1  0
 12 13  2  0
 13 14  1  0
 13 15  1  0
 15 16  1  0
 15 17  2  0
 17 18  1  0
 17 19  1  0
 19 20  2  0
 20 21  1  0
 20 22  1  0
 22 23  1  0
 22 24  2  0
 24 25  1  0
 24 26  1  0
 26 27  2  0
 11 28  1  0
 28 29  1  0
 28 30  1  0
 28 31  1  0
 31 32  1  0
 31 33  1  0
  6 34  1  0
 34 35  1  0
 34 36  2  0
 36 37  1  0
 36  2  1  0
 31 11  1  0
 27 12  1  0
 27 19  1  0
M  END
>  <plip>  (1) 
-0.1

>  <filename>  (1) 
[H][c]1[n][c]([H])[c]([N]([H])[C](=[O])[C]2([c]3[c]([H])[c]([H])[c]([H])[c]4[c]([H])[c]([H])[c]([H])[n][c]34)[C]([H])([H])[C]2([H])[H])[c]([H])[c]1[H]

$$$$
