
     RDKit          3D

 30 31  0  0  0  0  0  0  0  0999 V2000
    4.9299    1.8015   16.9807 H   0  0  0  0  0  0  0  0  0  0  0  0
    5.3957    1.2982   17.8268 C   0  0  0  0  0  0  0  0  0  0  0  0
    6.5599    0.6845   17.5735 N   0  0  0  0  0  0  0  0  0  0  0  0
    7.1746    0.0729   18.5920 C   0  0  0  0  0  0  0  0  0  0  0  0
    8.1185   -0.4115   18.3412 H   0  0  0  0  0  0  0  0  0  0  0  0
    6.6726    0.0146   19.9037 C   0  0  0  0  0  0  0  0  0  0  0  0
    7.4733   -0.7697   20.9390 C   0  0  2  0  0  0  0  0  0  0  0  0
    7.4479   -1.8335   20.6743 H   0  0  0  0  0  0  0  0  0  0  0  0
    6.8237   -0.8441   22.3702 C   0  0  0  0  0  0  0  0  0  0  0  0
    6.2868   -1.8805   22.7158 O   0  0  0  0  0  0  0  0  0  0  0  0
    6.9335    0.3453   23.3097 C   0  0  0  0  0  0  0  0  0  0  0  0
    6.8222    0.0988   24.6895 C   0  0  0  0  0  0  0  0  0  0  0  0
    6.6118   -0.9097   25.0296 H   0  0  0  0  0  0  0  0  0  0  0  0
    7.0016    1.1280   25.6198 C   0  0  0  0  0  0  0  0  0  0  0  0
    6.9235    0.9309   26.6857 H   0  0  0  0  0  0  0  0  0  0  0  0
    7.2772    2.4271   25.1975 C   0  0  0  0  0  0  0  0  0  0  0  0
    7.4099    3.2538   25.8916 H   0  0  0  0  0  0  0  0  0  0  0  0
    7.3719    2.6782   23.8289 C   0  0  0  0  0  0  0  0  0  0  0  0
    7.6653    4.0583   23.3579 N   0  0  0  0  0  4  0  0  0  0  0  0
    7.7951    4.9324   24.2016 O   0  0  0  0  0  0  0  0  0  0  0  0
    7.7612    4.2487   22.1568 O   0  0  0  0  0  1  0  0  0  0  0  0
    7.1998    1.6594   22.8821 C   0  0  0  0  0  0  0  0  0  0  0  0
    7.3048    1.9387   21.8397 H   0  0  0  0  0  0  0  0  0  0  0  0
    8.8902   -0.3360   20.9616 N   0  0  0  0  0  0  0  0  0  0  0  0
    8.9761    0.6634   20.7838 H   0  0  0  0  0  0  0  0  0  0  0  0
    9.4355   -0.8179   20.2543 H   0  0  0  0  0  0  0  0  0  0  0  0
    5.4459    0.6531   20.1485 C   0  0  0  0  0  0  0  0  0  0  0  0
    5.0133    0.6485   21.1499 H   0  0  0  0  0  0  0  0  0  0  0  0
    4.8057    1.3090   19.0917 C   0  0  0  0  0  0  0  0  0  0  0  0
    3.8757    1.8387   19.2366 H   0  0  0  0  0  0  0  0  0  0  0  0
  1  2  1  0
  2  3  2  0
  3  4  1  0
  4  5  1  0
  4  6  2  0
  6  7  1  0
  7  8  1  6
  7  9  1  0
  9 10  2  0
  9 11  1  0
 11 12  2  0
 12 13  1  0
 12 14  1  0
 14 15  1  0
 14 16  2  0
 16 17  1  0
 16 18  1  0
 18 19  1  0
 19 20  2  0
 19 21  1  0
 18 22  2  0
 22 23  1  0
  7 24  1  0
 24 25  1  0
 24 26  1  0
  6 27  1  0
 27 28  1  0
 27 29  2  0
 29 30  1  0
 29  2  1  0
 22 11  1  0
M  CHG  2  19   1  21  -1
M  END
>  <plip>  (1) 
-0.06896551724137931

>  <filename>  (1) 
[H][c]1[n][c]([H])[c]([C@]([H])([C](=[O])[c]2[c]([H])[c]([H])[c]([H])[c]([N+](=[O])[O-])[c]2[H])[N]([H])[H])[c]([H])[c]1[H]

$$$$
