
     RDKit          3D

 34 36  0  0  0  0  0  0  0  0999 V2000
    4.8774    1.2624   19.1463 C   0  0  0  0  0  0  0  0  0  0  0  0
    5.5242    1.2349   17.9046 C   0  0  0  0  0  0  0  0  0  0  0  0
    6.6558    0.5520   17.6813 N   0  0  0  0  0  0  0  0  0  0  0  0
    7.1948   -0.0886   18.7224 C   0  0  0  0  0  0  0  0  0  0  0  0
    6.6647   -0.0769   20.0209 C   0  0  0  0  0  0  0  0  0  0  0  0
    7.3924   -0.7641   21.1018 C   0  0  0  0  0  0  0  0  0  0  0  0
    6.6617   -1.3148   22.0507 N   0  0  0  0  0  0  0  0  0  0  0  0
    7.3035   -2.0849   22.9145 C   0  0  0  0  0  0  0  0  0  0  0  0
    6.4368   -2.6798   23.7631 N   0  0  0  0  0  0  0  0  0  0  0  0
    6.8437   -3.3171   25.0100 C   0  0  0  0  0  0  0  0  0  0  0  0
    7.6842   -2.4113   25.9406 C   0  0  0  0  0  0  0  0  0  0  0  0
    8.8034   -3.3203   26.4353 C   0  0  0  0  0  0  0  0  0  0  0  0
    9.1215   -4.0541   25.1739 N   0  0  0  0  0  4  0  0  0  0  0  0
    7.7662   -4.5390   24.7347 C   0  0  0  0  0  0  0  0  0  0  0  0
    7.7569   -4.7680   23.6724 H   0  0  0  0  0  0  0  0  0  0  0  0
    7.4363   -5.4197   25.2983 H   0  0  0  0  0  0  0  0  0  0  0  0
    9.3757   -3.3347   24.4120 H   0  0  0  0  0  0  0  0  0  0  0  0
    9.8607   -4.7696   25.2386 H   0  0  0  0  0  0  0  0  0  0  0  0
    8.4201   -4.0005   27.2146 H   0  0  0  0  0  0  0  0  0  0  0  0
    9.6756   -2.8019   26.8375 H   0  0  0  0  0  0  0  0  0  0  0  0
    8.1260   -1.5980   25.3575 H   0  0  0  0  0  0  0  0  0  0  0  0
    7.0791   -1.9560   26.7308 H   0  0  0  0  0  0  0  0  0  0  0  0
    5.9308   -3.6556   25.5186 H   0  0  0  0  0  0  0  0  0  0  0  0
    5.6443   -2.0592   23.6932 H   0  0  0  0  0  0  0  0  0  0  0  0
    8.6187   -2.2990   23.0135 N   0  0  0  0  0  0  0  0  0  0  0  0
    9.3487   -1.6258   22.1079 C   0  0  0  0  0  0  0  0  0  0  0  0
    8.7926   -0.8362   21.1237 C   0  0  0  0  0  0  0  0  0  0  0  0
    9.3900   -0.2667   20.4316 H   0  0  0  0  0  0  0  0  0  0  0  0
   10.4356   -1.7403   22.1749 H   0  0  0  0  0  0  0  0  0  0  0  0
    5.4444    0.5864   20.2230 C   0  0  0  0  0  0  0  0  0  0  0  0
    4.9558    0.5589   21.2033 H   0  0  0  0  0  0  0  0  0  0  0  0
    8.0861   -0.6677   18.4875 H   0  0  0  0  0  0  0  0  0  0  0  0
    5.1077    1.7705   17.0524 H   0  0  0  0  0  0  0  0  0  0  0  0
    3.9538    1.8197   19.2566 H   0  0  0  0  0  0  0  0  0  0  0  0
  1  2  2  0
  2  3  1  0
  3  4  2  0
  4  5  1  0
  5  6  1  0
  6  7  2  0
  7  8  1  0
  8  9  1  0
  9 10  1  0
 10 11  1  0
 11 12  1  0
 12 13  1  0
 13 14  1  0
 14 15  1  0
 14 16  1  0
 13 17  1  0
 13 18  1  0
 12 19  1  0
 12 20  1  0
 11 21  1  0
 11 22  1  0
 10 23  1  0
  9 24  1  0
  8 25  2  0
 25 26  1  0
 26 27  2  0
 27 28  1  0
 26 29  1  0
  5 30  2  0
 30 31  1  0
  4 32  1  0
  2 33  1  0
  1 34  1  0
 30  1  1  0
 27  6  1  0
 14 10  1  0
M  CHG  1  13   1
M  END
>  <plip>  (1) 
-0.07142857142857142

>  <filename>  (1) 
[H][c]1[n][c]([N]([H])[C]2([H])[C]([H])([H])[C]([H])([H])[N+]([H])([H])[C]2([H])[H])[n][c](-[c]2[c]([H])[n][c]([H])[c]([H])[c]2[H])[c]1[H]

$$$$
