
     RDKit          3D

 40 43  0  0  0  0  0  0  0  0999 V2000
   14.5745   -0.6345   22.8873 C   0  0  0  0  0  0  0  0  0  0  0  0
   13.2267   -0.5736   22.3725 N   0  0  0  0  0  0  0  0  0  0  0  0
   12.3272   -1.5431   22.0306 C   0  0  0  0  0  0  0  0  0  0  0  0
   11.1280   -1.0968   21.7521 N   0  0  0  0  0  0  0  0  0  0  0  0
   11.2319    0.2777   21.9167 C   0  0  0  0  0  0  0  0  0  0  0  0
   10.2973    1.3335   21.8160 C   0  0  0  0  0  0  0  0  0  0  0  0
    8.8236    1.1144   21.5305 C   0  0  0  0  0  0  0  0  0  0  0  0
    8.0433    2.0565   21.4601 O   0  0  0  0  0  0  0  0  0  0  0  0
    8.4224   -0.1643   21.3595 N   0  0  0  0  0  0  0  0  0  0  0  0
    7.0300   -0.5318   21.2118 C   0  0  0  0  0  0  0  0  0  0  0  0
    6.3986    0.1730   20.0208 C   0  0  0  0  0  0  0  0  0  0  0  0
    5.1768    0.8498   20.1008 C   0  0  0  0  0  0  0  0  0  0  0  0
    4.6453    1.4314   18.9456 C   0  0  0  0  0  0  0  0  0  0  0  0
    5.3597    1.3202   17.7497 C   0  0  0  0  0  0  0  0  0  0  0  0
    6.5416    0.6946   17.6542 N   0  0  0  0  0  0  0  0  0  0  0  0
    7.0430    0.1560   18.7750 C   0  0  0  0  0  0  0  0  0  0  0  0
    8.0149   -0.3238   18.6509 H   0  0  0  0  0  0  0  0  0  0  0  0
    4.9789    1.7717   16.8342 H   0  0  0  0  0  0  0  0  0  0  0  0
    3.7082    1.9758   18.9661 H   0  0  0  0  0  0  0  0  0  0  0  0
    4.6541    0.9204   21.0568 H   0  0  0  0  0  0  0  0  0  0  0  0
    7.0041   -2.0390   21.0200 C   0  0  0  0  0  0  0  0  0  0  0  0
    5.9343   -2.9402   21.5451 C   0  0  0  0  0  0  0  0  0  0  0  0
    7.3270   -3.0378   22.0963 C   0  0  0  0  0  0  0  0  0  0  0  0
    7.9339   -3.9000   21.8370 H   0  0  0  0  0  0  0  0  0  0  0  0
    7.4909   -2.6809   23.1078 H   0  0  0  0  0  0  0  0  0  0  0  0
    5.5344   -3.7219   20.9091 H   0  0  0  0  0  0  0  0  0  0  0  0
    5.1919   -2.4853   22.1841 H   0  0  0  0  0  0  0  0  0  0  0  0
    7.4008   -2.2841   20.0479 H   0  0  0  0  0  0  0  0  0  0  0  0
    6.4615   -0.2488   22.1157 H   0  0  0  0  0  0  0  0  0  0  0  0
    9.1047   -0.9015   21.4999 H   0  0  0  0  0  0  0  0  0  0  0  0
   10.8132    2.6259   22.0551 C   0  0  0  0  0  0  0  0  0  0  0  0
   12.1658    2.8119   22.3941 C   0  0  0  0  0  0  0  0  0  0  0  0
   13.0536    1.8176   22.5474 N   0  0  0  0  0  0  0  0  0  0  0  0
   12.5538    0.6146   22.2901 C   0  0  0  0  0  0  0  0  0  0  0  0
   12.5376    3.8129   22.5781 H   0  0  0  0  0  0  0  0  0  0  0  0
   10.1502    3.4839   22.0044 H   0  0  0  0  0  0  0  0  0  0  0  0
   12.6195   -2.5834   22.0231 H   0  0  0  0  0  0  0  0  0  0  0  0
   15.1806    0.0594   22.3073 H   0  0  0  0  0  0  0  0  0  0  0  0
   14.6219   -0.2616   23.9175 H   0  0  0  0  0  0  0  0  0  0  0  0
   14.9571   -1.6550   22.8360 H   0  0  0  0  0  0  0  0  0  0  0  0
  1  2  1  0
  2  3  1  0
  3  4  2  0
  4  5  1  0
  5  6  2  0
  6  7  1  0
  7  8  2  0
  7  9  1  0
  9 10  1  0
 10 11  1  0
 11 12  2  0
 12 13  1  0
 13 14  2  0
 14 15  1  0
 15 16  2  0
 16 17  1  0
 14 18  1  0
 13 19  1  0
 12 20  1  0
 10 21  1  0
 21 22  1  0
 22 23  1  0
 23 24  1  0
 23 25  1  0
 22 26  1  0
 22 27  1  0
 21 28  1  0
 10 29  1  0
  9 30  1  0
  6 31  1  0
 31 32  2  0
 32 33  1  0
 33 34  2  0
 32 35  1  0
 31 36  1  0
  3 37  1  0
  1 38  1  0
  1 39  1  0
  1 40  1  0
 34  2  1  0
 34  5  1  0
 16 11  1  0
 23 21  1  0
M  END
>  <plip>  (1) 
-0.03333333333333333

>  <filename>  (1) 
[H][c]1[n][c]([H])[c]([C]([H])([N]([H])[C](=[O])[c]2[c]([H])[c]([H])[n][c]3[c]2[n][c]([H])[n]3[C]([H])([H])[H])[C]2([H])[C]([H])([H])[C]2([H])[H])[c]([H])[c]1[H]

$$$$
