
     RDKit          3D

 33 36  0  0  0  0  0  0  0  0999 V2000
    4.8763    1.7503   16.9960 H   0  0  0  0  0  0  0  0  0  0  0  0
    5.3872    1.2873   17.8359 C   0  0  0  0  0  0  0  0  0  0  0  0
    6.5730    0.7157   17.5556 N   0  0  0  0  0  0  0  0  0  0  0  0
    7.2425    0.1753   18.5708 C   0  0  0  0  0  0  0  0  0  0  0  0
    8.1969   -0.3068   18.3635 H   0  0  0  0  0  0  0  0  0  0  0  0
    6.7911    0.1684   19.9220 C   0  0  0  0  0  0  0  0  0  0  0  0
    7.6558   -0.3868   20.8524 N   0  0  0  0  0  0  0  0  0  0  0  0
    7.6629   -0.1213   22.1087 C   0  0  0  0  0  0  0  0  0  0  0  0
    7.3778    1.2016   22.7363 C   0  0  0  0  0  0  0  0  0  0  0  0
    7.7234    2.3745   22.0505 C   0  0  0  0  0  0  0  0  0  0  0  0
    8.2004    2.2979   21.0768 H   0  0  0  0  0  0  0  0  0  0  0  0
    7.4607    3.6648   22.5655 C   0  0  0  0  0  0  0  0  0  0  0  0
    7.7284    4.5412   21.9755 H   0  0  0  0  0  0  0  0  0  0  0  0
    6.8560    3.8173   23.7923 C   0  0  0  0  0  0  0  0  0  0  0  0
    6.6426    4.8039   24.1979 H   0  0  0  0  0  0  0  0  0  0  0  0
    6.4995    2.6747   24.5597 C   0  0  0  0  0  0  0  0  0  0  0  0
    5.8696    2.7962   25.8373 C   0  0  0  0  0  0  0  0  0  0  0  0
    5.6714    3.7899   26.2420 H   0  0  0  0  0  0  0  0  0  0  0  0
    5.5216    1.6599   26.5220 C   0  0  0  0  0  0  0  0  0  0  0  0
    5.0342    1.6970   27.4898 H   0  0  0  0  0  0  0  0  0  0  0  0
    5.8100    0.3970   25.9385 C   0  0  0  0  0  0  0  0  0  0  0  0
    5.5282   -0.5093   26.4749 H   0  0  0  0  0  0  0  0  0  0  0  0
    6.4152    0.2369   24.7824 N   0  0  0  0  0  0  0  0  0  0  0  0
    6.7617    1.3502   24.0557 C   0  0  0  0  0  0  0  0  0  0  0  0
    8.2790   -1.2145   22.9507 C   0  0  0  0  0  0  0  0  0  0  0  0
    8.3582   -1.0067   24.0336 H   0  0  0  0  0  0  0  0  0  0  0  0
    8.6837   -2.2452   22.4589 O   0  0  0  0  0  0  0  0  0  0  0  0
    6.7780   -2.7967   20.9891 C   0  0  0  0  0  0  0  0  0  0  0  0
    6.5539   -3.0949   20.8604 O   0  0  0  0  0  0  0  0  0  0  0  0
    5.5164    0.7063   20.1784 C   0  0  0  0  0  0  0  0  0  0  0  0
    5.1102    0.7179   21.1924 H   0  0  0  0  0  0  0  0  0  0  0  0
    4.8210    1.2890   19.1112 C   0  0  0  0  0  0  0  0  0  0  0  0
    3.8629    1.7693   19.2695 H   0  0  0  0  0  0  0  0  0  0  0  0
  1  2  1  0
  2  3  2  0
  3  4  1  0
  4  5  1  0
  4  6  2  0
  6  7  1  0
  7  8  1  0
  8  9  1  0
  9 10  2  0
 10 11  1  0
 10 12  1  0
 12 13  1  0
 12 14  2  0
 14 15  1  0
 14 16  1  0
 16 17  2  0
 17 18  1  0
 17 19  1  0
 19 20  1  0
 19 21  2  0
 21 22  1  0
 21 23  1  0
 23 24  2  0
  8 25  2  0
 25 26  1  0
 25 27  1  0
 27 28  1  0
 28 29  2  0
  6 30  1  0
 30 31  1  0
 30 32  2  0
 32 33  1  0
 32  2  1  0
 28  7  1  0
 24  9  1  0
 24 16  1  0
M  END
>  <plip>  (1) 
-0.07142857142857142

>  <filename>  (1) 
[H][c]1[n][c]([H])[c](-[n]2[c](-[c]3[c]([H])[c]([H])[c]([H])[c]4[c]([H])[c]([H])[c]([H])[n][c]34)[c]([H])[o][c]2=[O])[c]([H])[c]1[H]

$$$$
