
     RDKit          3D

 32 34  0  0  0  0  0  0  0  0999 V2000
    4.9420    1.8000   16.9874 H   0  0  0  0  0  0  0  0  0  0  0  0
    5.4001    1.2965   17.8362 C   0  0  0  0  0  0  0  0  0  0  0  0
    6.5603    0.6702   17.5932 N   0  0  0  0  0  0  0  0  0  0  0  0
    7.1574    0.0534   18.6204 C   0  0  0  0  0  0  0  0  0  0  0  0
    8.1151   -0.4145   18.3945 H   0  0  0  0  0  0  0  0  0  0  0  0
    6.6303   -0.0004   19.9250 C   0  0  0  0  0  0  0  0  0  0  0  0
    7.3785   -0.7272   21.0326 C   0  0  2  0  0  0  0  0  0  0  0  0
    6.9851   -0.3860   22.0061 H   0  0  0  0  0  0  0  0  0  0  0  0
    8.8007   -0.5170   20.9579 N   0  0  0  0  0  0  0  0  0  0  0  0
    9.2989    0.3289   21.1541 H   0  0  0  0  0  0  0  0  0  0  0  0
    9.5458   -1.6456   21.0674 C   0  0  0  0  0  0  0  0  0  0  0  0
   10.7321   -1.7236   21.2160 O   0  0  0  0  0  0  0  0  0  0  0  0
    8.7084   -2.7134   20.9758 O   0  0  0  0  0  0  0  0  0  0  0  0
    7.3390   -2.2903   20.9371 C   0  0  1  0  0  0  0  0  0  0  0  0
    6.9142   -2.5866   19.9718 H   0  0  0  0  0  0  0  0  0  0  0  0
    6.5139   -2.9672   22.0170 C   0  0  0  0  0  0  0  0  0  0  0  0
    7.0651   -3.1763   23.2228 N   0  0  0  0  0  0  0  0  0  0  0  0
    6.3335   -3.8112   24.1470 C   0  0  0  0  0  0  0  0  0  0  0  0
    7.0415   -4.2828   25.3953 C   0  0  0  0  0  0  0  0  0  0  0  0
    6.7448   -5.3166   25.6303 H   0  0  0  0  0  0  0  0  0  0  0  0
    8.1249   -4.2631   25.2413 H   0  0  0  0  0  0  0  0  0  0  0  0
    6.7899   -3.6548   26.2590 H   0  0  0  0  0  0  0  0  0  0  0  0
    4.9699   -4.1029   23.9579 C   0  0  0  0  0  0  0  0  0  0  0  0
    4.3951   -4.4541   24.8134 H   0  0  0  0  0  0  0  0  0  0  0  0
    4.4145   -3.9289   22.6932 C   0  0  0  0  0  0  0  0  0  0  0  0
    3.3955   -4.2367   22.4783 H   0  0  0  0  0  0  0  0  0  0  0  0
    5.2107   -3.3649   21.6954 C   0  0  0  0  0  0  0  0  0  0  0  0
    4.8588   -3.2277   20.6852 H   0  0  0  0  0  0  0  0  0  0  0  0
    5.4092    0.6525   20.1513 C   0  0  0  0  0  0  0  0  0  0  0  0
    4.9654    0.6618   21.1476 H   0  0  0  0  0  0  0  0  0  0  0  0
    4.7846    1.3135   19.0898 C   0  0  0  0  0  0  0  0  0  0  0  0
    3.8532    1.8531   19.2211 H   0  0  0  0  0  0  0  0  0  0  0  0
  1  2  1  0
  2  3  2  0
  3  4  1  0
  4  5  1  0
  4  6  2  0
  6  7  1  0
  7  8  1  1
  7  9  1  0
  9 10  1  0
  9 11  1  0
 11 12  2  0
 11 13  1  0
 13 14  1  0
 14 15  1  6
 14 16  1  0
 16 17  2  0
 17 18  1  0
 18 19  1  0
 19 20  1  0
 19 21  1  0
 19 22  1  0
 18 23  2  0
 23 24  1  0
 23 25  1  0
 25 26  1  0
 25 27  2  0
 27 28  1  0
  6 29  1  0
 29 30  1  0
 29 31  2  0
 31 32  1  0
 31  2  1  0
 14  7  1  0
 27 16  1  0
M  END
>  <plip>  (1) 
-0.034482758620689655

>  <filename>  (1) 
[H][c]1[n][c]([H])[c]([C@]2([H])[N]([H])[C](=[O])[O][C@@]2([H])[c]2[n][c]([C]([H])([H])[H])[c]([H])[c]([H])[c]2[H])[c]([H])[c]1[H]

$$$$
