
     RDKit          3D

 36 37  0  0  0  0  0  0  0  0999 V2000
    6.2104    3.8160   22.4222 C   0  0  0  0  0  0  0  0  0  0  0  0
    6.4354    2.8144   23.4708 N   0  0  0  0  0  0  0  0  0  0  0  0
    7.2115    1.6608   23.3047 C   0  0  0  0  0  0  0  0  0  0  0  0
    7.2419    0.7542   24.1170 O   0  0  0  0  0  0  0  0  0  0  0  0
    7.9414    1.6118   22.1429 N   0  0  0  0  0  0  0  0  0  0  0  0
    8.4483    0.3417   21.6217 C   0  0  0  0  0  0  0  0  0  0  0  0
    7.4181   -0.6403   20.9978 C   0  0  0  0  0  0  0  0  0  0  0  0
    6.5854   -1.1298   21.9624 F   0  0  0  0  0  0  0  0  0  0  0  0
    8.1451   -1.7049   20.5363 F   0  0  0  0  0  0  0  0  0  0  0  0
    6.6122   -0.0335   19.8876 C   0  0  0  0  0  0  0  0  0  0  0  0
    5.4115    0.6424   20.1481 C   0  0  0  0  0  0  0  0  0  0  0  0
    4.7939    1.3146   19.0944 C   0  0  0  0  0  0  0  0  0  0  0  0
    5.4025    1.2995   17.8339 C   0  0  0  0  0  0  0  0  0  0  0  0
    6.5588    0.6693   17.5809 N   0  0  0  0  0  0  0  0  0  0  0  0
    7.1509    0.0269   18.5951 C   0  0  0  0  0  0  0  0  0  0  0  0
    8.1021   -0.4469   18.3594 H   0  0  0  0  0  0  0  0  0  0  0  0
    4.9462    1.8066   16.9862 H   0  0  0  0  0  0  0  0  0  0  0  0
    3.8657    1.8556   19.2294 H   0  0  0  0  0  0  0  0  0  0  0  0
    4.9904    0.6377   21.1532 H   0  0  0  0  0  0  0  0  0  0  0  0
    9.1949    0.5314   20.8420 H   0  0  0  0  0  0  0  0  0  0  0  0
    8.9187   -0.2306   22.4261 H   0  0  0  0  0  0  0  0  0  0  0  0
    7.9094    2.4433   21.5766 H   0  0  0  0  0  0  0  0  0  0  0  0
    5.7791    2.9839   24.7335 C   0  0  0  0  0  0  0  0  0  0  0  0
    6.5437    3.0628   25.9090 C   0  0  0  0  0  0  0  0  0  0  0  0
    5.9469    3.2528   27.1605 C   0  0  0  0  0  0  0  0  0  0  0  0
    4.5563    3.3435   27.2491 C   0  0  0  0  0  0  0  0  0  0  0  0
    3.8039    3.5560   28.8019 Cl  0  0  0  0  0  0  0  0  0  0  0  0
    3.7579    3.2530   26.1070 C   0  0  0  0  0  0  0  0  0  0  0  0
    4.3763    3.0805   24.8687 C   0  0  0  0  0  0  0  0  0  0  0  0
    3.5855    3.0119   23.7811 F   0  0  0  0  0  0  0  0  0  0  0  0
    2.6803    3.3332   26.1573 H   0  0  0  0  0  0  0  0  0  0  0  0
    6.5401    3.3142   28.0650 H   0  0  0  0  0  0  0  0  0  0  0  0
    7.6235    2.9645   25.8142 H   0  0  0  0  0  0  0  0  0  0  0  0
    5.4674    4.5249   22.7920 H   0  0  0  0  0  0  0  0  0  0  0  0
    5.8175    3.3813   21.4898 H   0  0  0  0  0  0  0  0  0  0  0  0
    7.1149    4.3967   22.1823 H   0  0  0  0  0  0  0  0  0  0  0  0
  1  2  1  0
  2  3  1  0
  3  4  2  0
  3  5  1  0
  5  6  1  0
  6  7  1  0
  7  8  1  0
  7  9  1  0
  7 10  1  0
 10 11  2  0
 11 12  1  0
 12 13  2  0
 13 14  1  0
 14 15  2  0
 15 16  1  0
 13 17  1  0
 12 18  1  0
 11 19  1  0
  6 20  1  0
  6 21  1  0
  5 22  1  0
  2 23  1  0
 23 24  2  0
 24 25  1  0
 25 26  2  0
 26 27  1  0
 26 28  1  0
 28 29  2  0
 29 30  1  0
 28 31  1  0
 25 32  1  0
 24 33  1  0
  1 34  1  0
  1 35  1  0
  1 36  1  0
 15 10  1  0
 29 23  1  0
M  END
>  <plip>  (1) 
-0.0

>  <filename>  (1) 
[H][c]1[n][c]([H])[c]([C]([F])([F])[C]([H])([H])[N]([H])[C](=[O])[N]([c]2[c]([H])[c]([H])[c]([Cl])[c]([H])[c]2[F])[C]([H])([H])[H])[c]([H])[c]1[H]

$$$$
