
     RDKit          3D

 43 44  0  0  0  0  0  0  0  0999 V2000
    9.5266   -0.3384   22.3753 C   0  0  0  0  0  0  0  0  0  0  0  0
    8.4452    0.3101   21.5797 N   0  0  0  0  0  4  0  0  0  0  0  0
    7.9024    1.5091   22.3232 C   0  0  0  0  0  0  0  0  0  0  0  0
    8.7233    2.1674   22.6306 H   0  0  0  0  0  0  0  0  0  0  0  0
    7.3591    1.2072   23.2252 H   0  0  0  0  0  0  0  0  0  0  0  0
    7.2089    2.0666   21.6885 H   0  0  0  0  0  0  0  0  0  0  0  0
    7.3558   -0.7107   21.1194 C   0  0  0  0  0  0  0  0  0  0  0  0
    6.4817   -1.3229   22.2471 C   0  0  0  0  0  0  0  0  0  0  0  0
    7.0737   -2.5088   22.8965 N   0  0  0  0  0  0  0  0  0  0  0  0
    7.0825   -3.7269   22.2592 C   0  0  0  0  0  0  0  0  0  0  0  0
    6.4611   -3.8014   21.0831 N   0  0  0  0  0  0  0  0  0  0  0  0
    6.5898   -4.9241   20.3797 C   0  0  0  0  0  0  0  0  0  0  0  0
    7.3569   -5.9971   20.7934 C   0  0  0  0  0  0  0  0  0  0  0  0
    7.9360   -5.9710   22.0583 C   0  0  0  0  0  0  0  0  0  0  0  0
    7.7711   -4.8221   22.8290 C   0  0  0  0  0  0  0  0  0  0  0  0
    8.3160   -4.6977   24.2142 C   0  0  0  0  0  0  0  0  0  0  0  0
    9.5893   -3.9049   24.3961 C   0  0  0  0  0  0  0  0  0  0  0  0
   10.4147   -4.4099   23.8949 H   0  0  0  0  0  0  0  0  0  0  0  0
    9.4802   -2.9098   23.9719 H   0  0  0  0  0  0  0  0  0  0  0  0
    9.8162   -3.8282   25.4634 H   0  0  0  0  0  0  0  0  0  0  0  0
    7.3434   -4.1490   25.0416 F   0  0  0  0  0  0  0  0  0  0  0  0
    8.5377   -5.9517   24.7196 F   0  0  0  0  0  0  0  0  0  0  0  0
    8.4834   -6.8284   22.4495 H   0  0  0  0  0  0  0  0  0  0  0  0
    7.5207   -6.8042   20.1090 H   0  0  0  0  0  0  0  0  0  0  0  0
    6.0574   -4.9927   19.4324 H   0  0  0  0  0  0  0  0  0  0  0  0
    6.8184   -2.6321   23.8642 H   0  0  0  0  0  0  0  0  0  0  0  0
    5.5351   -1.6042   21.7699 H   0  0  0  0  0  0  0  0  0  0  0  0
    6.2964   -0.5619   23.0148 H   0  0  0  0  0  0  0  0  0  0  0  0
    6.6122   -0.0111   20.0030 C   0  0  0  0  0  0  0  0  0  0  0  0
    5.3822    0.6365   20.1591 C   0  0  0  0  0  0  0  0  0  0  0  0
    4.8364    1.3089   19.0609 C   0  0  0  0  0  0  0  0  0  0  0  0
    5.5379    1.3052   17.8511 C   0  0  0  0  0  0  0  0  0  0  0  0
    6.7182    0.6925   17.6831 N   0  0  0  0  0  0  0  0  0  0  0  0
    7.2420    0.0729   18.7483 C   0  0  0  0  0  0  0  0  0  0  0  0
    8.2070   -0.4070   18.5769 H   0  0  0  0  0  0  0  0  0  0  0  0
    5.1287    1.8145   16.9798 H   0  0  0  0  0  0  0  0  0  0  0  0
    3.8999    1.8448   19.1368 H   0  0  0  0  0  0  0  0  0  0  0  0
    4.8687    0.6341   21.1257 H   0  0  0  0  0  0  0  0  0  0  0  0
    7.9187   -1.5473   20.6950 H   0  0  0  0  0  0  0  0  0  0  0  0
    8.8173    0.6631   20.6694 H   0  0  0  0  0  0  0  0  0  0  0  0
    9.8801   -1.2479   21.8764 H   0  0  0  0  0  0  0  0  0  0  0  0
    9.1489   -0.6338   23.3623 H   0  0  0  0  0  0  0  0  0  0  0  0
   10.3761    0.3395   22.5153 H   0  0  0  0  0  0  0  0  0  0  0  0
  1  2  1  0
  2  3  1  0
  3  4  1  0
  3  5  1  0
  3  6  1  0
  2  7  1  0
  7  8  1  0
  8  9  1  0
  9 10  1  0
 10 11  2  0
 11 12  1  0
 12 13  2  0
 13 14  1  0
 14 15  2  0
 15 16  1  0
 16 17  1  0
 17 18  1  0
 17 19  1  0
 17 20  1  0
 16 21  1  0
 16 22  1  0
 14 23  1  0
 13 24  1  0
 12 25  1  0
  9 26  1  0
  8 27  1  0
  8 28  1  0
  7 29  1  0
 29 30  2  0
 30 31  1  0
 31 32  2  0
 32 33  1  0
 33 34  2  0
 34 35  1  0
 32 36  1  0
 31 37  1  0
 30 38  1  0
  7 39  1  0
  2 40  1  0
  1 41  1  0
  1 42  1  0
  1 43  1  0
 15 10  1  0
 34 29  1  0
M  CHG  1   2   1
M  END
>  <plip>  (1) 
-0.13793103448275862

>  <filename>  (1) 
[H][c]1[n][c]([N]([H])[C]([H])([H])[C]([H])([c]2[c]([H])[n][c]([H])[c]([H])[c]2[H])[N+]([H])([C]([H])([H])[H])[C]([H])([H])[H])[c]([C]([F])([F])[C]([H])([H])[H])[c]([H])[c]1[H]

$$$$
