
     RDKit          3D

 33 33  0  0  0  0  0  0  0  0999 V2000
    9.2268   -1.3419   21.3296 H   0  0  0  0  0  0  0  0  0  0  0  0
    8.7646   -0.8759   20.5558 N   0  0  0  0  0  0  0  0  0  0  0  0
    7.5552   -0.5659   20.8886 C   0  0  0  0  0  0  0  0  0  0  0  0
    6.7909   -0.8901   22.4140 S   0  0  0  0  0  0  0  0  0  0  0  0
    5.8799   -2.5197   22.5282 O   0  0  0  0  0  0  0  0  0  0  0  0
    6.6086   -3.7603   22.7512 C   0  0  0  0  0  0  0  0  0  0  0  0
    6.8020   -3.8441   23.8271 H   0  0  0  0  0  0  0  0  0  0  0  0
    7.5845   -3.7287   22.2428 H   0  0  0  0  0  0  0  0  0  0  0  0
    5.7529   -4.8828   22.1830 C   0  0  0  0  0  0  0  0  0  0  0  0
    6.2465   -5.8524   22.3354 H   0  0  0  0  0  0  0  0  0  0  0  0
    5.7009   -4.7249   21.0999 H   0  0  0  0  0  0  0  0  0  0  0  0
    4.3271   -4.9785   22.7508 C   0  0  0  0  0  0  0  0  0  0  0  0
    3.9430   -3.9773   23.0270 H   0  0  0  0  0  0  0  0  0  0  0  0
    3.6659   -5.3333   21.9491 H   0  0  0  0  0  0  0  0  0  0  0  0
    4.2349   -5.9516   23.8346 N   0  0  0  0  0  0  0  0  0  0  0  0
    4.9600   -5.5842   25.0407 C   0  0  0  0  0  0  0  0  0  0  0  0
    6.0215   -5.4438   24.8117 H   0  0  0  0  0  0  0  0  0  0  0  0
    4.9125   -6.4026   25.7679 H   0  0  0  0  0  0  0  0  0  0  0  0
    4.5882   -4.6635   25.5329 H   0  0  0  0  0  0  0  0  0  0  0  0
    2.8708   -6.3747   24.0976 C   0  0  0  0  0  0  0  0  0  0  0  0
    2.2135   -5.5753   24.4937 H   0  0  0  0  0  0  0  0  0  0  0  0
    2.4216   -6.7533   23.1707 H   0  0  0  0  0  0  0  0  0  0  0  0
    2.8668   -7.2057   24.8135 H   0  0  0  0  0  0  0  0  0  0  0  0
    6.7269    0.0896   19.8312 C   0  0  0  0  0  0  0  0  0  0  0  0
    7.2165    0.1062   18.5147 C   0  0  0  0  0  0  0  0  0  0  0  0
    8.1578   -0.3758   18.2867 H   0  0  0  0  0  0  0  0  0  0  0  0
    6.5916    0.6975   17.4929 N   0  0  0  0  0  0  0  0  0  0  0  0
    5.4316    1.3115   17.7491 C   0  0  0  0  0  0  0  0  0  0  0  0
    4.9516    1.7961   16.8991 H   0  0  0  0  0  0  0  0  0  0  0  0
    4.8359    1.3187   19.0164 C   0  0  0  0  0  0  0  0  0  0  0  0
    3.8828    1.8147   19.1546 H   0  0  0  0  0  0  0  0  0  0  0  0
    5.4896    0.6997   20.0800 C   0  0  0  0  0  0  0  0  0  0  0  0
    5.0676    0.7001   21.0884 H   0  0  0  0  0  0  0  0  0  0  0  0
  1  2  1  0
  2  3  2  3
  3  4  1  0
  4  5  1  0
  5  6  1  0
  6  7  1  0
  6  8  1  0
  6  9  1  0
  9 10  1  0
  9 11  1  0
  9 12  1  0
 12 13  1  0
 12 14  1  0
 12 15  1  0
 15 16  1  0
 16 17  1  0
 16 18  1  0
 16 19  1  0
 15 20  1  0
 20 21  1  0
 20 22  1  0
 20 23  1  0
  3 24  1  0
 24 25  2  0
 25 26  1  0
 25 27  1  0
 27 28  2  0
 28 29  1  0
 28 30  1  0
 30 31  1  0
 30 32  2  0
 32 33  1  0
 32 24  1  0
M  END
>  <plip>  (1) 
-0.03571428571428571

>  <filename>  (1) 
[H][N]=[C]([S][O][C]([H])([H])[C]([H])([H])[C]([H])([H])[N]([C]([H])([H])[H])[C]([H])([H])[H])[c]1[c]([H])[n][c]([H])[c]([H])[c]1[H]

$$$$
