
     RDKit          3D

 34 36  0  0  0  0  0  0  0  0999 V2000
    4.9116    1.7867   16.9912 H   0  0  0  0  0  0  0  0  0  0  0  0
    5.3993    1.2986   17.8327 C   0  0  0  0  0  0  0  0  0  0  0  0
    6.5615    0.6825   17.5685 N   0  0  0  0  0  0  0  0  0  0  0  0
    7.1784    0.0733   18.5877 C   0  0  0  0  0  0  0  0  0  0  0  0
    8.1177   -0.4280   18.3710 H   0  0  0  0  0  0  0  0  0  0  0  0
    6.6663    0.0170   19.9017 C   0  0  0  0  0  0  0  0  0  0  0  0
    7.3493   -0.6790   20.9447 N   0  0  0  0  0  0  0  0  0  0  0  0
    6.8439   -1.7422   21.6547 C   0  0  0  0  0  0  0  0  0  0  0  0
    5.8405   -2.1085   21.4599 H   0  0  0  0  0  0  0  0  0  0  0  0
    7.7015   -2.2384   22.5058 N   0  0  0  0  0  0  0  0  0  0  0  0
    8.8175   -1.4573   22.3670 C   0  0  0  0  0  0  0  0  0  0  0  0
    9.7121   -1.6357   22.9425 H   0  0  0  0  0  0  0  0  0  0  0  0
    8.6431   -0.4804   21.4235 C   0  0  0  0  0  0  0  0  0  0  0  0
    9.5381    0.6287   20.9498 C   0  0  0  0  0  0  0  0  0  0  0  0
    9.6112    0.5058   19.8588 H   0  0  0  0  0  0  0  0  0  0  0  0
   10.9662    0.5223   21.5444 C   0  0  0  0  0  0  0  0  0  0  0  0
   11.3234   -0.5093   21.4518 H   0  0  0  0  0  0  0  0  0  0  0  0
   11.6417    1.1325   20.9327 H   0  0  0  0  0  0  0  0  0  0  0  0
   11.0851    1.0027   23.0022 C   0  0  0  0  0  0  0  0  0  0  0  0
   10.5690    0.3030   23.6713 H   0  0  0  0  0  0  0  0  0  0  0  0
   12.1386    0.9994   23.3095 H   0  0  0  0  0  0  0  0  0  0  0  0
   10.4803    2.3975   23.1908 C   0  0  0  0  0  0  0  0  0  0  0  0
   11.0794    3.1309   22.6334 H   0  0  0  0  0  0  0  0  0  0  0  0
   10.5274    2.6955   24.2443 H   0  0  0  0  0  0  0  0  0  0  0  0
    9.0343    2.4480   22.6848 C   0  0  0  0  0  0  0  0  0  0  0  0
    8.4106    1.7736   23.2820 H   0  0  0  0  0  0  0  0  0  0  0  0
    8.6214    3.4555   22.8124 H   0  0  0  0  0  0  0  0  0  0  0  0
    8.9513    2.0390   21.2134 C   0  0  0  0  0  0  0  0  0  0  0  0
    9.5339    2.7692   20.6469 H   0  0  0  0  0  0  0  0  0  0  0  0
    7.9233    2.0967   20.8383 H   0  0  0  0  0  0  0  0  0  0  0  0
    5.4379    0.6420   20.1604 C   0  0  0  0  0  0  0  0  0  0  0  0
    5.0169    0.6255   21.1705 H   0  0  0  0  0  0  0  0  0  0  0  0
    4.8072    1.3093   19.1038 C   0  0  0  0  0  0  0  0  0  0  0  0
    3.8748    1.8423   19.2592 H   0  0  0  0  0  0  0  0  0  0  0  0
  1  2  1  0
  2  3  2  0
  3  4  1  0
  4  5  1  0
  4  6  2  0
  6  7  1  0
  7  8  1  0
  8  9  1  0
  8 10  2  0
 10 11  1  0
 11 12  1  0
 11 13  2  0
 13 14  1  0
 14 15  1  0
 14 16  1  0
 16 17  1  0
 16 18  1  0
 16 19  1  0
 19 20  1  0
 19 21  1  0
 19 22  1  0
 22 23  1  0
 22 24  1  0
 22 25  1  0
 25 26  1  0
 25 27  1  0
 25 28  1  0
 28 29  1  0
 28 30  1  0
  6 31  1  0
 31 32  1  0
 31 33  2  0
 33 34  1  0
 33  2  1  0
 13  7  1  0
 28 14  1  0
M  END
>  <plip>  (1) 
-0.03571428571428571

>  <filename>  (1) 
[H][c]1[n][c]([H])[c](-[n]2[c]([H])[n][c]([H])[c]2[C]2([H])[C]([H])([H])[C]([H])([H])[C]([H])([H])[C]([H])([H])[C]2([H])[H])[c]([H])[c]1[H]

$$$$
