
     RDKit          3D

 36 38  0  0  0  0  0  0  0  0999 V2000
    6.8887   -2.4494   21.2682 C   0  0  0  0  0  0  0  0  0  0  0  0
    7.6060   -0.8525   21.1137 S   0  0  0  0  0  0  0  0  0  0  0  0
    9.0102   -0.8986   20.7368 O   0  0  0  0  0  0  0  0  0  0  0  0
    7.1341   -0.0812   22.4947 N   0  0  0  0  0  0  0  0  0  0  0  0
    7.7609   -0.5633   23.5447 C   0  0  0  0  0  0  0  0  0  0  0  0
    8.5599   -1.5084   23.5539 O   0  0  0  0  0  0  0  0  0  0  0  0
    7.4557    0.1809   24.9414 C   0  0  1  0  0  0  0  0  0  0  0  0
    8.0370    1.6449   24.9716 C   0  0  0  0  0  0  0  0  0  0  0  0
    6.8139    2.5292   25.0625 C   0  0  0  0  0  0  0  0  0  0  0  0
    6.6826    3.9192   25.0453 C   0  0  0  0  0  0  0  0  0  0  0  0
    5.4027    4.4943   25.1282 C   0  0  0  0  0  0  0  0  0  0  0  0
    4.2648    3.6770   25.2127 C   0  0  0  0  0  0  0  0  0  0  0  0
    4.3933    2.2810   25.2552 C   0  0  0  0  0  0  0  0  0  0  0  0
    5.6814    1.7285   25.2295 C   0  0  0  0  0  0  0  0  0  0  0  0
    6.0425    0.3940   25.3998 N   0  0  0  0  0  0  0  0  0  0  0  0
    5.3194   -0.2804   25.1727 H   0  0  0  0  0  0  0  0  0  0  0  0
    3.5210    1.6382   25.3198 H   0  0  0  0  0  0  0  0  0  0  0  0
    3.2767    4.1340   25.2694 H   0  0  0  0  0  0  0  0  0  0  0  0
    5.2984    5.5773   25.1287 H   0  0  0  0  0  0  0  0  0  0  0  0
    7.5678    4.5500   24.9874 H   0  0  0  0  0  0  0  0  0  0  0  0
    8.6600    1.8951   24.1010 H   0  0  0  0  0  0  0  0  0  0  0  0
    8.6651    1.7840   25.8639 H   0  0  0  0  0  0  0  0  0  0  0  0
    7.9780   -0.4655   25.6583 H   0  0  0  0  0  0  0  0  0  0  0  0
    6.6382   -0.0109   19.9550 C   0  0  0  0  0  0  0  0  0  0  0  0
    5.4269    0.6341   20.2274 C   0  0  0  0  0  0  0  0  0  0  0  0
    4.8247    1.2749   19.1504 C   0  0  0  0  0  0  0  0  0  0  0  0
    5.4472    1.2443   17.8988 C   0  0  0  0  0  0  0  0  0  0  0  0
    6.6109    0.6194   17.6609 N   0  0  0  0  0  0  0  0  0  0  0  0
    7.2050    0.0168   18.6843 C   0  0  0  0  0  0  0  0  0  0  0  0
    8.1661   -0.4604   18.4894 H   0  0  0  0  0  0  0  0  0  0  0  0
    4.9970    1.7426   17.0463 H   0  0  0  0  0  0  0  0  0  0  0  0
    3.8967    1.8229   19.2695 H   0  0  0  0  0  0  0  0  0  0  0  0
    4.9669    0.6685   21.2197 H   0  0  0  0  0  0  0  0  0  0  0  0
    5.8487   -2.3341   21.5682 H   0  0  0  0  0  0  0  0  0  0  0  0
    7.4791   -2.9470   22.0329 H   0  0  0  0  0  0  0  0  0  0  0  0
    6.9788   -2.9286   20.2967 H   0  0  0  0  0  0  0  0  0  0  0  0
  1  2  1  0
  2  3  2  0
  2  4  2  0
  4  5  1  0
  5  6  2  0
  5  7  1  0
  7  8  1  0
  8  9  1  0
  9 10  2  0
 10 11  1  0
 11 12  2  0
 12 13  1  0
 13 14  2  0
 14 15  1  0
 15 16  1  0
 13 17  1  0
 12 18  1  0
 11 19  1  0
 10 20  1  0
  8 21  1  0
  8 22  1  0
  7 23  1  1
  2 24  1  0
 24 25  2  0
 25 26  1  0
 26 27  2  0
 27 28  1  0
 28 29  2  0
 29 30  1  0
 27 31  1  0
 26 32  1  0
 25 33  1  0
  1 34  1  0
  1 35  1  0
  1 36  1  0
 15  7  1  0
 29 24  1  0
 14  9  1  0
M  END
>  <plip>  (1) 
-0.034482758620689655

>  <filename>  (1) 
[H][c]1[n][c]([H])[c]([S](=[O])(=[N][C](=[O])[C@]2([H])[N]([H])[c]3[c]([H])[c]([H])[c]([H])[c]([H])[c]3[C]2([H])[H])[C]([H])([H])[H])[c]([H])[c]1[H]

$$$$
