
     RDKit          3D

 25 26  0  0  0  0  0  0  0  0999 V2000
   10.6393    0.6043   21.4821 H   0  0  0  0  0  0  0  0  0  0  0  0
    9.8053    0.0011   21.1380 C   0  0  0  0  0  0  0  0  0  0  0  0
   10.0299   -0.8207   20.4608 H   0  0  0  0  0  0  0  0  0  0  0  0
    8.5446    0.2071   21.5279 C   0  0  0  0  0  0  0  0  0  0  0  0
    8.1811    1.3110   22.3491 N   0  0  0  0  0  0  0  0  0  0  0  0
    8.8766    2.4895   22.4995 C   0  0  0  0  0  0  0  0  0  0  0  0
    9.7891    2.7109   21.9535 H   0  0  0  0  0  0  0  0  0  0  0  0
    8.3119    3.3012   23.3476 N   0  0  0  0  0  0  0  0  0  0  0  0
    7.1809    2.6542   23.7785 C   0  0  0  0  0  0  0  0  0  0  0  0
    6.5145    3.1156   24.5000 H   0  0  0  0  0  0  0  0  0  0  0  0
    7.0684    1.4340   23.1834 C   0  0  0  0  0  0  0  0  0  0  0  0
    6.3324    0.6537   23.3017 H   0  0  0  0  0  0  0  0  0  0  0  0
    7.4041   -0.6711   21.0189 C   0  0  0  0  0  0  0  0  0  0  0  0
    6.7270   -0.9602   21.8358 H   0  0  0  0  0  0  0  0  0  0  0  0
    7.8408   -1.6063   20.6503 H   0  0  0  0  0  0  0  0  0  0  0  0
    6.6352   -0.0014   19.8957 C   0  0  0  0  0  0  0  0  0  0  0  0
    7.1534    0.0623   18.5907 C   0  0  0  0  0  0  0  0  0  0  0  0
    8.1040   -0.4179   18.3649 H   0  0  0  0  0  0  0  0  0  0  0  0
    6.5568    0.6844   17.5692 N   0  0  0  0  0  0  0  0  0  0  0  0
    5.3936    1.3005   17.8296 C   0  0  0  0  0  0  0  0  0  0  0  0
    4.9155    1.7910   16.9853 H   0  0  0  0  0  0  0  0  0  0  0  0
    4.7962    1.3208   19.0931 C   0  0  0  0  0  0  0  0  0  0  0  0
    3.8659    1.8522   19.2461 H   0  0  0  0  0  0  0  0  0  0  0  0
    5.4261    0.6534   20.1464 C   0  0  0  0  0  0  0  0  0  0  0  0
    5.0097    0.6429   21.1602 H   0  0  0  0  0  0  0  0  0  0  0  0
  1  2  1  0
  2  3  1  0
  2  4  2  3
  4  5  1  0
  5  6  1  0
  6  7  1  0
  6  8  2  0
  8  9  1  0
  9 10  1  0
  9 11  2  0
 11 12  1  0
  4 13  1  0
 13 14  1  0
 13 15  1  0
 13 16  1  0
 16 17  2  0
 17 18  1  0
 17 19  1  0
 19 20  2  0
 20 21  1  0
 20 22  1  0
 22 23  1  0
 22 24  2  0
 24 25  1  0
 11  5  1  0
 24 16  1  0
M  END
>  <plip>  (1) 
-0.03571428571428571

>  <filename>  (1) 
[H][C]([H])=[C]([n]1[c]([H])[n][c]([H])[c]1[H])[C]([H])([H])[c]1[c]([H])[n][c]([H])[c]([H])[c]1[H]

$$$$
