
     RDKit          3D

 55 57  0  0  0  0  0  0  0  0999 V2000
   10.2529    6.3428   22.6313 C   0  0  0  0  0  0  0  0  0  0  0  0
    9.1189    5.8393   23.4874 C   0  0  0  0  0  0  0  0  0  0  0  0
    7.9209    6.5711   23.5666 C   0  0  0  0  0  0  0  0  0  0  0  0
    6.9029    6.2100   24.4573 C   0  0  0  0  0  0  0  0  0  0  0  0
    7.0731    5.0877   25.2734 C   0  0  0  0  0  0  0  0  0  0  0  0
    8.2308    4.3073   25.1412 C   0  0  0  0  0  0  0  0  0  0  0  0
    9.2536    4.6563   24.2435 C   0  0  0  0  0  0  0  0  0  0  0  0
   10.4658    3.7495   24.0464 C   0  0  0  0  0  0  0  0  0  0  0  0
   10.4442    2.9688   22.7160 C   0  0  0  0  0  0  0  0  0  0  0  0
   11.7711    2.3042   22.3449 C   0  0  0  0  0  0  0  0  0  0  0  0
   12.5541    3.0474   22.1655 H   0  0  0  0  0  0  0  0  0  0  0  0
   11.6676    1.7225   21.4222 H   0  0  0  0  0  0  0  0  0  0  0  0
   12.1289    1.6247   23.1278 H   0  0  0  0  0  0  0  0  0  0  0  0
    9.3602    1.9486   22.8755 N   0  0  0  0  0  4  0  0  0  0  0  0
    9.0593    1.0401   21.7614 C   0  0  0  0  0  0  0  0  0  0  0  0
    7.8695    0.1760   22.1462 C   0  0  2  0  0  0  0  0  0  0  0  0
    8.0602   -0.7985   23.3293 C   0  0  0  0  0  0  0  0  0  0  0  0
    7.2046   -2.0464   23.0088 C   0  0  0  0  0  0  0  0  0  0  0  0
    6.6335   -1.7996   21.6337 N   0  0  0  0  0  4  0  0  0  0  0  0
    6.4893   -3.0105   20.7885 C   0  0  0  0  0  0  0  0  0  0  0  0
    7.4657   -3.5043   20.6660 H   0  0  0  0  0  0  0  0  0  0  0  0
    5.8015   -3.7455   21.2201 H   0  0  0  0  0  0  0  0  0  0  0  0
    6.1397   -2.7377   19.7881 H   0  0  0  0  0  0  0  0  0  0  0  0
    7.4546   -0.7073   20.9768 C   0  0  1  0  0  0  0  0  0  0  0  0
    6.6738   -0.0128   19.8975 C   0  0  0  0  0  0  0  0  0  0  0  0
    5.4509    0.6394   20.1326 C   0  0  0  0  0  0  0  0  0  0  0  0
    4.8367    1.3079   19.0738 C   0  0  0  0  0  0  0  0  0  0  0  0
    5.4598    1.2910   17.8201 C   0  0  0  0  0  0  0  0  0  0  0  0
    6.6085    0.6468   17.5703 N   0  0  0  0  0  0  0  0  0  0  0  0
    7.1837    0.0067   18.5931 C   0  0  0  0  0  0  0  0  0  0  0  0
    8.1073   -0.5291   18.3625 H   0  0  0  0  0  0  0  0  0  0  0  0
    5.0093    1.8025   16.9720 H   0  0  0  0  0  0  0  0  0  0  0  0
    3.8966    1.8348   19.1981 H   0  0  0  0  0  0  0  0  0  0  0  0
    4.9941    0.6323   21.1277 H   0  0  0  0  0  0  0  0  0  0  0  0
    8.3420   -1.1808   20.5386 H   0  0  0  0  0  0  0  0  0  0  0  0
    5.7032   -1.3337   21.7502 H   0  0  0  0  0  0  0  0  0  0  0  0
    6.3963   -2.1963   23.7338 H   0  0  0  0  0  0  0  0  0  0  0  0
    7.8011   -2.9647   22.9882 H   0  0  0  0  0  0  0  0  0  0  0  0
    7.7439   -0.3476   24.2753 H   0  0  0  0  0  0  0  0  0  0  0  0
    9.1131   -1.0784   23.4619 H   0  0  0  0  0  0  0  0  0  0  0  0
    7.0364    0.8457   22.3942 H   0  0  0  0  0  0  0  0  0  0  0  0
    9.9116    0.3800   21.5440 H   0  0  0  0  0  0  0  0  0  0  0  0
    8.8585    1.5983   20.8365 H   0  0  0  0  0  0  0  0  0  0  0  0
    8.4903    2.4739   23.1344 H   0  0  0  0  0  0  0  0  0  0  0  0
    9.6011    1.3733   23.7155 H   0  0  0  0  0  0  0  0  0  0  0  0
   10.1601    3.6399   21.8960 H   0  0  0  0  0  0  0  0  0  0  0  0
   11.3965    4.3274   24.1349 H   0  0  0  0  0  0  0  0  0  0  0  0
   10.5102    3.0011   24.8428 H   0  0  0  0  0  0  0  0  0  0  0  0
    8.3471    3.3955   25.7211 H   0  0  0  0  0  0  0  0  0  0  0  0
    6.3042    4.7984   25.9850 H   0  0  0  0  0  0  0  0  0  0  0  0
    5.9809    6.7893   24.5009 H   0  0  0  0  0  0  0  0  0  0  0  0
    7.7945    7.4317   22.9131 H   0  0  0  0  0  0  0  0  0  0  0  0
   10.7883    7.1413   23.1504 H   0  0  0  0  0  0  0  0  0  0  0  0
    9.8906    6.7356   21.6815 H   0  0  0  0  0  0  0  0  0  0  0  0
   10.9942    5.5719   22.4093 H   0  0  0  0  0  0  0  0  0  0  0  0
  1  2  1  0
  2  3  2  0
  3  4  1  0
  4  5  2  0
  5  6  1  0
  6  7  2  0
  7  8  1  0
  8  9  1  0
  9 10  1  0
 10 11  1  0
 10 12  1  0
 10 13  1  0
  9 14  1  0
 14 15  1  0
 15 16  1  0
 16 17  1  0
 17 18  1  0
 18 19  1  0
 19 20  1  0
 20 21  1  0
 20 22  1  0
 20 23  1  0
 19 24  1  0
 24 25  1  0
 25 26  2  0
 26 27  1  0
 27 28  2  0
 28 29  1  0
 29 30  2  0
 30 31  1  0
 28 32  1  0
 27 33  1  0
 26 34  1  0
 24 35  1  6
 19 36  1  0
 18 37  1  0
 18 38  1  0
 17 39  1  0
 17 40  1  0
 16 41  1  1
 15 42  1  0
 15 43  1  0
 14 44  1  0
 14 45  1  0
  9 46  1  0
  8 47  1  0
  8 48  1  0
  6 49  1  0
  5 50  1  0
  4 51  1  0
  3 52  1  0
  1 53  1  0
  1 54  1  0
  1 55  1  0
  7  2  1  0
 24 16  1  0
 30 25  1  0
M  CHG  2  14   1  19   1
M  END
>  <plip>  (1) 
-0.14285714285714285

>  <filename>  (1) 
[H][c]1[n][c]([H])[c]([C@@]2([H])[C@]([H])([C]([H])([H])[N+]([H])([H])[C]([H])([C]([H])([H])[H])[C]([H])([H])[c]3[c]([H])[c]([H])[c]([H])[c]([H])[c]3[C]([H])([H])[H])[C]([H])([H])[C]([H])([H])[N+]2([H])[C]([H])([H])[H])[c]([H])[c]1[H]

$$$$
