
     RDKit          3D

 31 32  0  0  0  0  0  0  0  0999 V2000
   13.8453    1.0571   24.0703 H   0  0  0  0  0  0  0  0  0  0  0  0
   13.8209    0.8905   23.1196 O   0  0  0  0  0  0  0  0  0  0  0  0
   12.6168    1.4472   22.6185 C   0  0  0  0  0  0  0  0  0  0  0  0
   12.7238    1.4525   21.5270 H   0  0  0  0  0  0  0  0  0  0  0  0
   12.4945    2.4978   22.9291 H   0  0  0  0  0  0  0  0  0  0  0  0
   11.4022    0.6236   23.0289 C   0  0  0  0  0  0  0  0  0  0  0  0
   10.4786    1.1086   22.6787 H   0  0  0  0  0  0  0  0  0  0  0  0
   11.3391    0.5926   24.1255 H   0  0  0  0  0  0  0  0  0  0  0  0
   11.4366   -0.8162   22.4928 C   0  0  0  0  0  0  0  0  0  0  0  0
   12.3450   -1.3286   22.8312 H   0  0  0  0  0  0  0  0  0  0  0  0
   11.5078   -0.7920   21.3919 H   0  0  0  0  0  0  0  0  0  0  0  0
   10.2472   -1.5545   22.8631 N   0  0  0  0  0  0  0  0  0  0  0  0
   10.2555   -2.2602   23.5813 H   0  0  0  0  0  0  0  0  0  0  0  0
    9.0663   -1.2931   22.2366 C   0  0  0  0  0  0  0  0  0  0  0  0
    8.7508   -0.4845   21.2078 C   0  0  0  0  0  0  0  0  0  0  0  0
    9.3876    0.1707   20.6439 H   0  0  0  0  0  0  0  0  0  0  0  0
    7.3825   -0.6706   20.9397 N   0  0  0  0  0  0  0  0  0  0  0  0
    6.6734    0.0182   19.9137 C   0  0  0  0  0  0  0  0  0  0  0  0
    7.1873    0.0622   18.6035 C   0  0  0  0  0  0  0  0  0  0  0  0
    8.1267   -0.4400   18.3670 H   0  0  0  0  0  0  0  0  0  0  0  0
    6.5694    0.6685   17.5854 N   0  0  0  0  0  0  0  0  0  0  0  0
    5.4070    1.2879   17.8443 C   0  0  0  0  0  0  0  0  0  0  0  0
    4.9332    1.7829   16.9989 H   0  0  0  0  0  0  0  0  0  0  0  0
    4.8201    1.3028   19.1134 C   0  0  0  0  0  0  0  0  0  0  0  0
    3.8877    1.8294   19.2594 H   0  0  0  0  0  0  0  0  0  0  0  0
    5.4499    0.6435   20.1737 C   0  0  0  0  0  0  0  0  0  0  0  0
    5.0173    0.6117   21.1736 H   0  0  0  0  0  0  0  0  0  0  0  0
    6.8994   -1.6897   21.7345 C   0  0  0  0  0  0  0  0  0  0  0  0
    5.5150   -2.6072   21.6331 S   0  0  0  0  0  0  0  0  0  0  0  0
    7.9179   -1.9517   22.6007 N   0  0  0  0  0  0  0  0  0  0  0  0
    7.8011   -2.6582   23.3009 H   0  0  0  0  0  0  0  0  0  0  0  0
  1  2  1  0
  2  3  1  0
  3  4  1  0
  3  5  1  0
  3  6  1  0
  6  7  1  0
  6  8  1  0
  6  9  1  0
  9 10  1  0
  9 11  1  0
  9 12  1  0
 12 13  1  0
 12 14  1  0
 14 15  2  0
 15 16  1  0
 15 17  1  0
 17 18  1  0
 18 19  2  0
 19 20  1  0
 19 21  1  0
 21 22  2  0
 22 23  1  0
 22 24  1  0
 24 25  1  0
 24 26  2  0
 26 27  1  0
 17 28  1  0
 28 29  2  0
 28 30  1  0
 30 31  1  0
 30 14  1  0
 26 18  1  0
M  END
>  <plip>  (1) 
-0.03571428571428571

>  <filename>  (1) 
[H][O][C]([H])([H])[C]([H])([H])[C]([H])([H])[N]([H])[c]1[c]([H])[n](-[c]2[c]([H])[n][c]([H])[c]([H])[c]2[H])[c](=[S])[n]1[H]

$$$$
