
     RDKit          3D

 33 35  0  0  0  0  0  0  0  0999 V2000
    6.7207   -1.4377   21.5439 H   0  0  0  0  0  0  0  0  0  0  0  0
    7.3250   -0.7103   20.9938 C   0  0  0  0  0  0  0  0  0  0  0  0
    8.5873   -0.4664   21.3701 C   0  0  0  0  0  0  0  0  0  0  0  0
    9.3288   -1.0641   22.4856 C   0  0  0  0  0  0  0  0  0  0  0  0
    8.5839   -2.3268   23.5006 S   0  0  0  0  0  0  0  0  0  0  0  0
    7.9172   -1.2035   24.7363 C   0  0  0  0  0  0  0  0  0  0  0  0
    6.6101   -0.7210   24.6092 C   0  0  0  0  0  0  0  0  0  0  0  0
    5.9951   -1.0769   23.7923 H   0  0  0  0  0  0  0  0  0  0  0  0
    6.1029    0.2041   25.5287 C   0  0  0  0  0  0  0  0  0  0  0  0
    5.0812    0.5615   25.4283 H   0  0  0  0  0  0  0  0  0  0  0  0
    6.9119    0.6574   26.5760 C   0  0  0  0  0  0  0  0  0  0  0  0
    6.5218    1.3745   27.2936 H   0  0  0  0  0  0  0  0  0  0  0  0
    8.2249    0.1872   26.6983 C   0  0  0  0  0  0  0  0  0  0  0  0
    8.8561    0.5385   27.5093 H   0  0  0  0  0  0  0  0  0  0  0  0
    8.7317   -0.7386   25.7790 C   0  0  0  0  0  0  0  0  0  0  0  0
    9.7588   -1.0883   25.8461 H   0  0  0  0  0  0  0  0  0  0  0  0
   10.4744   -0.5586   22.7298 N   0  0  0  0  0  0  0  0  0  0  0  0
   10.7251    0.4930   21.7506 C   0  0  0  0  0  0  0  0  0  0  0  0
   11.6346    0.2445   21.2052 H   0  0  0  0  0  0  0  0  0  0  0  0
   10.9054    1.4262   22.2863 H   0  0  0  0  0  0  0  0  0  0  0  0
    9.4934    0.6016   20.8201 C   0  0  0  0  0  0  0  0  0  0  0  0
    9.0317    1.5956   20.8381 H   0  0  0  0  0  0  0  0  0  0  0  0
    9.7029    0.3846   19.7732 H   0  0  0  0  0  0  0  0  0  0  0  0
    6.6417   -0.0050   19.8947 C   0  0  0  0  0  0  0  0  0  0  0  0
    7.1658    0.0685   18.5905 C   0  0  0  0  0  0  0  0  0  0  0  0
    8.1087   -0.4295   18.3737 H   0  0  0  0  0  0  0  0  0  0  0  0
    6.5620    0.6860   17.5687 N   0  0  0  0  0  0  0  0  0  0  0  0
    5.3986    1.2993   17.8340 C   0  0  0  0  0  0  0  0  0  0  0  0
    4.9132    1.7844   16.9929 H   0  0  0  0  0  0  0  0  0  0  0  0
    4.7988    1.3155   19.0998 C   0  0  0  0  0  0  0  0  0  0  0  0
    3.8678    1.8493   19.2555 H   0  0  0  0  0  0  0  0  0  0  0  0
    5.4223    0.6398   20.1449 C   0  0  0  0  0  0  0  0  0  0  0  0
    5.0078    0.6241   21.1582 H   0  0  0  0  0  0  0  0  0  0  0  0
  1  2  1  0
  2  3  2  3
  3  4  1  0
  4  5  1  0
  5  6  1  0
  6  7  2  0
  7  8  1  0
  7  9  1  0
  9 10  1  0
  9 11  2  0
 11 12  1  0
 11 13  1  0
 13 14  1  0
 13 15  2  0
 15 16  1  0
  4 17  2  0
 17 18  1  0
 18 19  1  0
 18 20  1  0
 18 21  1  0
 21 22  1  0
 21 23  1  0
  2 24  1  0
 24 25  2  0
 25 26  1  0
 25 27  1  0
 27 28  2  0
 28 29  1  0
 28 30  1  0
 30 31  1  0
 30 32  2  0
 32 33  1  0
 21  3  1  0
 32 24  1  0
 15  6  1  0
M  END
>  <plip>  (1) 
-0.03571428571428571

>  <filename>  (1) 
[H][C](=[C]1[C]([S][c]2[c]([H])[c]([H])[c]([H])[c]([H])[c]2[H])=[N][C]([H])([H])[C]1([H])[H])[c]1[c]([H])[n][c]([H])[c]([H])[c]1[H]

$$$$
