
     RDKit          3D

 27 28  0  0  0  0  0  0  0  0999 V2000
    4.8571    1.7790   16.9343 H   0  0  0  0  0  0  0  0  0  0  0  0
    5.3731    1.2874   17.7553 C   0  0  0  0  0  0  0  0  0  0  0  0
    6.5153    0.6465   17.4402 N   0  0  0  0  0  0  0  0  0  0  0  0
    7.1759    0.0358   18.4310 C   0  0  0  0  0  0  0  0  0  0  0  0
    8.1110   -0.4671   18.1793 H   0  0  0  0  0  0  0  0  0  0  0  0
    6.7315    0.0071   19.7766 C   0  0  0  0  0  0  0  0  0  0  0  0
    7.5319   -0.5784   20.7687 N   0  0  0  0  0  0  0  0  0  0  0  0
    7.1600   -1.5729   21.4551 C   0  0  0  0  0  0  0  0  0  0  0  0
    7.9716   -2.1592   22.3727 O   0  0  0  0  0  0  0  0  0  0  0  0
    9.2601   -1.6457   22.5691 C   0  0  0  0  0  0  0  0  0  0  0  0
    9.7206   -0.9154   23.6145 C   0  0  0  0  0  0  0  0  0  0  0  0
    9.0797   -1.4870   24.9935 H   0  0  0  0  0  0  0  0  0  0  0  0
    9.6136   -1.0662   24.0348 C   0  0  0  0  0  0  0  0  0  0  0  0
   10.8570   -1.1382   24.0019 H   0  0  0  0  0  0  0  0  0  0  0  0
   11.7014   -0.6884   22.9523 C   0  0  0  0  0  0  0  0  0  0  0  0
   12.6101   -0.1031   23.1474 H   0  0  0  0  0  0  0  0  0  0  0  0
   11.4934   -1.3708   21.8026 C   0  0  0  0  0  0  0  0  0  0  0  0
   12.8024   -1.7053   20.6817 Cl  0  0  0  0  0  0  0  0  0  0  0  0
   10.1670   -1.8748   21.5784 C   0  0  0  0  0  0  0  0  0  0  0  0
    9.8640   -2.3726   20.6729 H   0  0  0  0  0  0  0  0  0  0  0  0
    5.9627   -2.2323   21.3751 N   0  0  0  0  0  0  0  0  0  0  0  0
    5.6505   -2.5348   22.2848 H   0  0  0  0  0  0  0  0  0  0  0  0
    5.3003   -1.6473   20.8857 H   0  0  0  0  0  0  0  0  0  0  0  0
    5.5432    0.6810   20.0839 C   0  0  0  0  0  0  0  0  0  0  0  0
    5.2141    0.7024   21.1231 H   0  0  0  0  0  0  0  0  0  0  0  0
    4.8527    1.3354   19.0524 C   0  0  0  0  0  0  0  0  0  0  0  0
    3.9228    1.8609   19.2439 H   0  0  0  0  0  0  0  0  0  0  0  0
  1  2  1  0
  2  3  2  0
  3  4  1  0
  4  5  1  0
  4  6  2  0
  6  7  1  0
  7  8  2  3
  8  9  1  0
  9 10  1  0
 10 11  2  0
 11 12  1  0
 11 13  1  0
 13 14  1  0
 13 15  2  0
 15 16  1  0
 15 17  1  0
 17 18  1  0
 17 19  2  0
 19 20  1  0
  8 21  1  0
 21 22  1  0
 21 23  1  0
  6 24  1  0
 24 25  1  0
 24 26  2  0
 26 27  1  0
 26  2  1  0
 19 10  1  0
M  END
>  <plip>  (1) 
-0.13793103448275862

>  <filename>  (1) 
[H][c]1[n][c]([H])[c]([N]=[C]([O][c]2[c]([H])[c]([H])[c]([H])[c]([Cl])[c]2[H])[N]([H])[H])[c]([H])[c]1[H]

$$$$
