
     RDKit          3D

 26 27  0  0  0  0  0  0  0  0999 V2000
    4.9220    1.7795   16.9985 H   0  0  0  0  0  0  0  0  0  0  0  0
    5.4007    1.2894   17.8483 C   0  0  0  0  0  0  0  0  0  0  0  0
    6.5688    0.6679   17.6047 N   0  0  0  0  0  0  0  0  0  0  0  0
    7.1790    0.0514   18.6234 C   0  0  0  0  0  0  0  0  0  0  0  0
    8.1248   -0.4339   18.3919 H   0  0  0  0  0  0  0  0  0  0  0  0
    6.6671   -0.0043   19.9448 C   0  0  0  0  0  0  0  0  0  0  0  0
    7.4242   -0.7016   20.8629 O   0  0  0  0  0  0  0  0  0  0  0  0
    6.9926   -0.8471   22.2082 C   0  0  0  0  0  0  0  0  0  0  0  0
    6.9004    0.1466   22.6741 H   0  0  0  0  0  0  0  0  0  0  0  0
    6.0080   -1.3334   22.2387 H   0  0  0  0  0  0  0  0  0  0  0  0
    7.9718   -1.6163   22.9289 N   0  0  0  0  0  0  0  0  0  0  0  0
    8.2104   -2.9382   22.6345 C   0  0  0  0  0  0  0  0  0  0  0  0
    7.6588   -3.5965   21.7809 O   0  0  0  0  0  0  0  0  0  0  0  0
    9.2680   -3.4408   23.5977 C   0  0  0  0  0  0  0  0  0  0  0  0
    8.8651   -4.2937   24.1444 H   0  0  0  0  0  0  0  0  0  0  0  0
   10.1059   -3.8287   23.0235 H   0  0  0  0  0  0  0  0  0  0  0  0
    9.6543   -2.2636   24.4973 C   0  0  0  0  0  0  0  0  0  0  0  0
    9.5040   -2.4925   25.5558 H   0  0  0  0  0  0  0  0  0  0  0  0
   10.7062   -1.9994   24.3781 H   0  0  0  0  0  0  0  0  0  0  0  0
    8.7520   -1.0949   24.0492 C   0  0  0  0  0  0  0  0  0  0  0  0
    9.3455   -0.2273   23.7362 H   0  0  0  0  0  0  0  0  0  0  0  0
    8.1045   -0.7611   24.8710 H   0  0  0  0  0  0  0  0  0  0  0  0
    5.4485    0.6417   20.1856 C   0  0  0  0  0  0  0  0  0  0  0  0
    4.9987    0.6360   21.1786 H   0  0  0  0  0  0  0  0  0  0  0  0
    4.8170    1.3017   19.1152 C   0  0  0  0  0  0  0  0  0  0  0  0
    3.8837    1.8351   19.2618 H   0  0  0  0  0  0  0  0  0  0  0  0
  1  2  1  0
  2  3  2  0
  3  4  1  0
  4  5  1  0
  4  6  2  0
  6  7  1  0
  7  8  1  0
  8  9  1  0
  8 10  1  0
  8 11  1  0
 11 12  1  0
 12 13  2  0
 12 14  1  0
 14 15  1  0
 14 16  1  0
 14 17  1  0
 17 18  1  0
 17 19  1  0
 17 20  1  0
 20 21  1  0
 20 22  1  0
  6 23  1  0
 23 24  1  0
 23 25  2  0
 25 26  1  0
 25  2  1  0
 20 11  1  0
M  END
>  <plip>  (1) 
-0.034482758620689655

>  <filename>  (1) 
[H][c]1[n][c]([H])[c]([O][C]([H])([H])[N]2[C](=[O])[C]([H])([H])[C]([H])([H])[C]2([H])[H])[c]([H])[c]1[H]

$$$$
