
     RDKit          3D

 37 40  0  0  0  0  0  0  0  0999 V2000
    4.9173    1.7857   16.9906 H   0  0  0  0  0  0  0  0  0  0  0  0
    5.3958    1.2963   17.8334 C   0  0  0  0  0  0  0  0  0  0  0  0
    6.5605    0.6815   17.5680 N   0  0  0  0  0  0  0  0  0  0  0  0
    7.1710    0.0658   18.5855 C   0  0  0  0  0  0  0  0  0  0  0  0
    8.1195   -0.4211   18.3610 H   0  0  0  0  0  0  0  0  0  0  0  0
    6.6507    0.0160   19.8941 C   0  0  0  0  0  0  0  0  0  0  0  0
    7.3388   -0.6700   20.9328 C   0  0  0  0  0  0  0  0  0  0  0  0
    7.9166   -1.2607   21.8083 C   0  0  0  0  0  0  0  0  0  0  0  0
    8.6290   -1.9107   22.8253 C   0  0  0  0  0  0  0  0  0  0  0  0
    9.8655   -1.5499   23.2474 C   0  0  0  0  0  0  0  0  0  0  0  0
   10.5871   -0.3171   22.9046 C   0  0  0  0  0  0  0  0  0  0  0  0
   11.9740   -0.3385   22.6594 C   0  0  0  0  0  0  0  0  0  0  0  0
   12.5124   -1.2799   22.7260 H   0  0  0  0  0  0  0  0  0  0  0  0
   12.6980    0.7218   22.2961 N   0  0  0  0  0  0  0  0  0  0  0  0
   12.0458    1.8858   22.1816 C   0  0  0  0  0  0  0  0  0  0  0  0
   12.6487    2.7352   21.8827 H   0  0  0  0  0  0  0  0  0  0  0  0
   10.6780    2.0363   22.4291 C   0  0  0  0  0  0  0  0  0  0  0  0
   10.2125    3.0083   22.3235 H   0  0  0  0  0  0  0  0  0  0  0  0
    9.9288    0.9218   22.7986 C   0  0  0  0  0  0  0  0  0  0  0  0
    8.8607    0.9926   23.0094 H   0  0  0  0  0  0  0  0  0  0  0  0
   10.3383   -2.5235   24.2811 C   0  0  0  0  0  0  0  0  0  0  0  0
   11.2831   -3.0059   24.0153 H   0  0  0  0  0  0  0  0  0  0  0  0
   10.4277   -1.8986   25.1646 H   0  0  0  0  0  0  0  0  0  0  0  0
    9.2302   -3.5616   24.4533 C   0  0  0  0  0  0  0  0  0  0  0  0
    8.1252   -3.1724   23.4702 C   0  0  0  0  0  0  0  0  0  0  0  0
    7.9676   -3.9470   22.7139 H   0  0  0  0  0  0  0  0  0  0  0  0
    7.1615   -3.0047   23.9611 H   0  0  0  0  0  0  0  0  0  0  0  0
    9.5549   -4.9946   24.7487 C   0  0  0  0  0  0  0  0  0  0  0  0
   10.6000   -5.2658   24.8871 H   0  0  0  0  0  0  0  0  0  0  0  0
    8.9667   -5.7619   24.2508 H   0  0  0  0  0  0  0  0  0  0  0  0
    8.8991   -4.1424   25.7993 C   0  0  0  0  0  0  0  0  0  0  0  0
    9.4834   -3.8352   26.6649 H   0  0  0  0  0  0  0  0  0  0  0  0
    7.8510   -4.3236   26.0315 H   0  0  0  0  0  0  0  0  0  0  0  0
    5.4301    0.6587   20.1531 C   0  0  0  0  0  0  0  0  0  0  0  0
    5.0036    0.6366   21.1574 H   0  0  0  0  0  0  0  0  0  0  0  0
    4.7990    1.3153   19.0990 C   0  0  0  0  0  0  0  0  0  0  0  0
    3.8683    1.8471   19.2509 H   0  0  0  0  0  0  0  0  0  0  0  0
  1  2  1  0
  2  3  2  0
  3  4  1  0
  4  5  1  0
  4  6  2  0
  6  7  1  0
  7  8  3  0
  8  9  1  0
  9 10  2  0
 10 11  1  0
 11 12  2  0
 12 13  1  0
 12 14  1  0
 14 15  2  0
 15 16  1  0
 15 17  1  0
 17 18  1  0
 17 19  2  0
 19 20  1  0
 10 21  1  0
 21 22  1  0
 21 23  1  0
 21 24  1  0
 24 25  1  0
 25 26  1  0
 25 27  1  0
 24 28  1  0
 28 29  1  0
 28 30  1  0
 28 31  1  0
 31 32  1  0
 31 33  1  0
  6 34  1  0
 34 35  1  0
 34 36  2  0
 36 37  1  0
 36  2  1  0
 25  9  1  0
 19 11  1  0
 31 24  1  0
M  END
>  <plip>  (1) 
-0.07142857142857142

>  <filename>  (1) 
[H][c]1[n][c]([H])[c]([C]#[C][C]2=[C]([c]3[c]([H])[n][c]([H])[c]([H])[c]3[H])[C]([H])([H])[C]3([C]2([H])[H])[C]([H])([H])[C]3([H])[H])[c]([H])[c]1[H]

$$$$
