
     RDKit          3D

 30 33  0  0  0  0  0  0  0  0999 V2000
    4.8003    1.2872   19.0985 C   0  0  0  0  0  0  0  0  0  0  0  0
    5.4075    1.2873   17.8400 C   0  0  0  0  0  0  0  0  0  0  0  0
    6.5761    0.6674   17.5983 N   0  0  0  0  0  0  0  0  0  0  0  0
    7.1751    0.0378   18.6114 C   0  0  0  0  0  0  0  0  0  0  0  0
    6.6436   -0.0054   19.9116 C   0  0  0  0  0  0  0  0  0  0  0  0
    7.3526   -0.6871   20.9359 N   0  0  0  0  0  0  0  0  0  0  0  0
    7.7068   -1.9671   20.7585 N   0  0  0  0  0  0  0  0  0  0  0  0
    8.2444   -2.3493   21.9097 C   0  0  0  0  0  0  0  0  0  0  0  0
    8.2677   -1.3136   22.8514 C   0  0  0  0  0  0  0  0  0  0  0  0
    7.6999   -0.2397   22.1866 C   0  0  0  0  0  0  0  0  0  0  0  0
    7.5620    1.1403   22.6240 C   0  0  0  0  0  0  0  0  0  0  0  0
    7.3218    2.2012   21.8366 N   0  0  0  0  0  0  0  0  0  0  0  0
    7.3349    3.2168   22.7196 N   0  0  0  0  0  0  0  0  0  0  0  0
    7.1224    4.5471   22.4344 C   0  0  0  0  0  0  0  0  0  0  0  0
    7.1772    5.4503   23.4629 C   0  0  0  0  0  0  0  0  0  0  0  0
    7.4472    4.9951   24.8046 C   0  0  0  0  0  0  0  0  0  0  0  0
    7.6477    3.6616   25.0649 C   0  0  0  0  0  0  0  0  0  0  0  0
    7.5859    2.7314   23.9874 C   0  0  0  0  0  0  0  0  0  0  0  0
    7.7335    1.4141   23.9291 N   0  0  0  0  0  0  0  0  0  0  0  0
    7.8544    3.2647   26.0540 H   0  0  0  0  0  0  0  0  0  0  0  0
    7.4898    5.7220   25.6139 H   0  0  0  0  0  0  0  0  0  0  0  0
    7.0178    6.5046   23.2618 H   0  0  0  0  0  0  0  0  0  0  0  0
    6.9251    4.7462   21.3877 H   0  0  0  0  0  0  0  0  0  0  0  0
    8.6646   -1.3206   23.8604 H   0  0  0  0  0  0  0  0  0  0  0  0
    8.6038   -3.3636   22.0165 H   0  0  0  0  0  0  0  0  0  0  0  0
    5.4130    0.6130   20.1576 C   0  0  0  0  0  0  0  0  0  0  0  0
    4.9929    0.6381   21.1643 H   0  0  0  0  0  0  0  0  0  0  0  0
    8.1226   -0.4404   18.3780 H   0  0  0  0  0  0  0  0  0  0  0  0
    4.9328    1.7824   16.9944 H   0  0  0  0  0  0  0  0  0  0  0  0
    3.8804    1.8358   19.2578 H   0  0  0  0  0  0  0  0  0  0  0  0
  1  2  2  0
  2  3  1  0
  3  4  2  0
  4  5  1  0
  5  6  1  0
  6  7  1  0
  7  8  2  0
  8  9  1  0
  9 10  2  0
 10 11  1  0
 11 12  2  0
 12 13  1  0
 13 14  1  0
 14 15  2  0
 15 16  1  0
 16 17  2  0
 17 18  1  0
 18 19  2  0
 17 20  1  0
 16 21  1  0
 15 22  1  0
 14 23  1  0
  9 24  1  0
  8 25  1  0
  5 26  2  0
 26 27  1  0
  4 28  1  0
  2 29  1  0
  1 30  1  0
 26  1  1  0
 10  6  1  0
 19 11  1  0
 18 13  1  0
M  END
>  <plip>  (1) 
-0.03571428571428571

>  <filename>  (1) 
[H][c]1[n][c]([H])[c](-[n]2[n][c]([H])[c]([H])[c]2-[c]2[n][c]3[c]([H])[c]([H])[c]([H])[c]([H])[n]3[n]2)[c]([H])[c]1[H]

$$$$
