
     RDKit          3D

 24 25  0  0  0  0  0  0  0  0999 V2000
    6.3363   -1.9191   21.9348 H   0  0  0  0  0  0  0  0  0  0  0  0
    6.5660   -0.9770   21.9983 O   0  0  0  0  0  0  0  0  0  0  0  0
    7.3429   -0.7064   20.8724 N   0  0  0  0  0  0  0  0  0  0  0  0
    6.6827    0.0276   19.8599 C   0  0  0  0  0  0  0  0  0  0  0  0
    7.1821    0.0801   18.5413 C   0  0  0  0  0  0  0  0  0  0  0  0
    8.1060   -0.4388   18.2904 H   0  0  0  0  0  0  0  0  0  0  0  0
    6.5687    0.7135   17.5278 N   0  0  0  0  0  0  0  0  0  0  0  0
    5.4067    1.3339   17.7892 C   0  0  0  0  0  0  0  0  0  0  0  0
    4.9193    1.8471   16.9611 H   0  0  0  0  0  0  0  0  0  0  0  0
    4.8157    1.3316   19.0596 C   0  0  0  0  0  0  0  0  0  0  0  0
    3.8734    1.8452   19.2221 H   0  0  0  0  0  0  0  0  0  0  0  0
    5.4515    0.6689   20.1056 C   0  0  0  0  0  0  0  0  0  0  0  0
    5.0243    0.6293   21.1072 H   0  0  0  0  0  0  0  0  0  0  0  0
    8.7335   -0.7427   21.1313 C   0  0  0  0  0  0  0  0  0  0  0  0
    9.5572    0.4033   21.0517 C   0  0  0  0  0  0  0  0  0  0  0  0
    9.1227    1.3588   20.7791 H   0  0  0  0  0  0  0  0  0  0  0  0
   10.9316    0.3171   21.2998 C   0  0  0  0  0  0  0  0  0  0  0  0
   11.5764    1.1850   21.2261 H   0  0  0  0  0  0  0  0  0  0  0  0
   11.4953   -0.9056   21.6516 C   0  0  0  0  0  0  0  0  0  0  0  0
   13.2161   -1.0215   21.8629 Cl  0  0  0  0  0  0  0  0  0  0  0  0
   10.7067   -2.0443   21.8130 C   0  0  0  0  0  0  0  0  0  0  0  0
   11.1369   -2.9642   22.1991 H   0  0  0  0  0  0  0  0  0  0  0  0
    9.3435   -1.9646   21.5210 C   0  0  0  0  0  0  0  0  0  0  0  0
    8.4102   -3.4335   21.6319 Cl  0  0  0  0  0  0  0  0  0  0  0  0
  1  2  1  0
  2  3  1  0
  3  4  1  0
  4  5  2  0
  5  6  1  0
  5  7  1  0
  7  8  2  0
  8  9  1  0
  8 10  1  0
 10 11  1  0
 10 12  2  0
 12 13  1  0
  3 14  1  0
 14 15  2  0
 15 16  1  0
 15 17  1  0
 17 18  1  0
 17 19  2  0
 19 20  1  0
 19 21  1  0
 21 22  1  0
 21 23  2  0
 23 24  1  0
 12  4  1  0
 23 14  1  0
M  END
>  <plip>  (1) 
-0.07142857142857142

>  <filename>  (1) 
[H][O][N]([c]1[c]([H])[n][c]([H])[c]([H])[c]1[H])[c]1[c]([H])[c]([H])[c]([Cl])[c]([H])[c]1[Cl]

$$$$
