
     RDKit          3D

 44 46  0  0  0  0  0  0  0  0999 V2000
    9.5321    2.0624   22.1288 C   0  0  0  0  0  0  0  0  0  0  0  0
    8.9537    1.0582   21.3259 O   0  0  0  0  0  0  0  0  0  0  0  0
    8.0060    0.2603   21.9997 C   0  0  0  0  0  0  0  0  0  0  0  0
    7.3839   -0.7355   21.0090 C   0  0  1  0  0  0  0  0  0  0  0  0
    6.5863   -1.7075   21.7548 N   0  0  0  0  0  0  0  0  0  0  0  0
    6.0217   -2.7908   21.1550 C   0  0  0  0  0  0  0  0  0  0  0  0
    6.2175   -3.0926   19.9899 O   0  0  0  0  0  0  0  0  0  0  0  0
    5.1738   -3.6631   22.0179 C   0  0  0  0  0  0  0  0  0  0  0  0
    4.6073   -3.3774   23.1941 N   0  0  0  0  0  0  0  0  0  0  0  0
    3.8631   -4.4433   23.4537 N   0  0  0  0  0  0  0  0  0  0  0  0
    3.0591   -4.5390   24.6291 C   0  0  0  0  0  0  0  0  0  0  0  0
    3.1899   -3.5519   25.6141 C   0  0  0  0  0  0  0  0  0  0  0  0
    2.5110   -3.6683   26.8317 C   0  0  0  0  0  0  0  0  0  0  0  0
    2.7063   -2.6289   27.9140 C   0  0  0  0  0  0  0  0  0  0  0  0
    1.8168   -2.5395   28.5437 H   0  0  0  0  0  0  0  0  0  0  0  0
    3.5510   -2.8788   28.5680 H   0  0  0  0  0  0  0  0  0  0  0  0
    2.9111   -1.6417   27.4869 H   0  0  0  0  0  0  0  0  0  0  0  0
    1.6684   -4.7741   27.0278 C   0  0  0  0  0  0  0  0  0  0  0  0
    1.5085   -5.7434   26.0271 C   0  0  0  0  0  0  0  0  0  0  0  0
    2.1949   -5.6281   24.8199 C   0  0  0  0  0  0  0  0  0  0  0  0
    2.0892   -6.3795   24.0412 H   0  0  0  0  0  0  0  0  0  0  0  0
    0.8630   -6.6016   26.1984 H   0  0  0  0  0  0  0  0  0  0  0  0
    1.1358   -4.8714   27.9708 H   0  0  0  0  0  0  0  0  0  0  0  0
    3.8506   -2.7148   25.4025 H   0  0  0  0  0  0  0  0  0  0  0  0
    3.9343   -5.4102   22.5476 N   0  0  0  0  0  0  0  0  0  0  0  0
    4.7866   -4.9507   21.6536 C   0  0  0  0  0  0  0  0  0  0  0  0
    5.0682   -5.5195   20.7772 H   0  0  0  0  0  0  0  0  0  0  0  0
    6.1441   -1.4378   22.6223 H   0  0  0  0  0  0  0  0  0  0  0  0
    6.6095   -0.0378   19.8941 C   0  0  0  0  0  0  0  0  0  0  0  0
    5.4049    0.6375   20.1249 C   0  0  0  0  0  0  0  0  0  0  0  0
    4.7861    1.3103   19.0685 C   0  0  0  0  0  0  0  0  0  0  0  0
    5.4075    1.2981   17.8131 C   0  0  0  0  0  0  0  0  0  0  0  0
    6.5635    0.6687   17.5653 N   0  0  0  0  0  0  0  0  0  0  0  0
    7.1395    0.0295   18.5966 C   0  0  0  0  0  0  0  0  0  0  0  0
    8.0906   -0.4505   18.3643 H   0  0  0  0  0  0  0  0  0  0  0  0
    4.9564    1.8245   16.9732 H   0  0  0  0  0  0  0  0  0  0  0  0
    3.8630    1.8635   19.2108 H   0  0  0  0  0  0  0  0  0  0  0  0
    4.9596    0.6526   21.1224 H   0  0  0  0  0  0  0  0  0  0  0  0
    8.2143   -1.2733   20.5416 H   0  0  0  0  0  0  0  0  0  0  0  0
    7.2035    0.8799   22.4412 H   0  0  0  0  0  0  0  0  0  0  0  0
    8.4842   -0.3107   22.8130 H   0  0  0  0  0  0  0  0  0  0  0  0
   10.2329    2.6153   21.4972 H   0  0  0  0  0  0  0  0  0  0  0  0
   10.0880    1.6411   22.9834 H   0  0  0  0  0  0  0  0  0  0  0  0
    8.7781    2.7696   22.5127 H   0  0  0  0  0  0  0  0  0  0  0  0
  1  2  1  0
  2  3  1  0
  3  4  1  0
  4  5  1  0
  5  6  1  0
  6  7  2  0
  6  8  1  0
  8  9  2  0
  9 10  1  0
 10 11  1  0
 11 12  2  0
 12 13  1  0
 13 14  1  0
 14 15  1  0
 14 16  1  0
 14 17  1  0
 13 18  2  0
 18 19  1  0
 19 20  2  0
 20 21  1  0
 19 22  1  0
 18 23  1  0
 12 24  1  0
 10 25  1  0
 25 26  2  0
 26 27  1  0
  5 28  1  0
  4 29  1  0
 29 30  2  0
 30 31  1  0
 31 32  2  0
 32 33  1  0
 33 34  2  0
 34 35  1  0
 32 36  1  0
 31 37  1  0
 30 38  1  0
  4 39  1  6
  3 40  1  0
  3 41  1  0
  1 42  1  0
  1 43  1  0
  1 44  1  0
 26  8  1  0
 34 29  1  0
 20 11  1  0
M  END
>  <plip>  (1) 
-0.17857142857142858

>  <filename>  (1) 
[H][c]1[n][n](-[c]2[c]([H])[c]([H])[c]([H])[c]([C]([H])([H])[H])[c]2[H])[n][c]1[C](=[O])[N]([H])[C@@]([H])([c]1[c]([H])[n][c]([H])[c]([H])[c]1[H])[C]([H])([H])[O][C]([H])([H])[H]

$$$$
