
     RDKit          3D

 35 37  0  0  0  0  0  0  0  0999 V2000
    6.5904   -2.8643   23.2888 H   0  0  0  0  0  0  0  0  0  0  0  0
    7.2394   -2.2534   22.6722 C   0  0  0  0  0  0  0  0  0  0  0  0
    8.5627   -2.1343   22.9111 C   0  0  0  0  0  0  0  0  0  0  0  0
    9.2580   -2.9606   23.9539 C   0  0  0  0  0  0  0  0  0  0  0  0
    8.5066   -3.4452   24.9600 N   0  0  0  0  0  0  0  0  0  0  0  0
    9.0778   -4.2301   25.8887 C   0  0  0  0  0  0  0  0  0  0  0  0
    8.1621   -4.7820   27.0062 C   0  0  0  0  0  0  0  0  0  0  0  0
    7.4002   -3.8276   27.5562 F   0  0  0  0  0  0  0  0  0  0  0  0
    7.3269   -5.7343   26.5519 F   0  0  0  0  0  0  0  0  0  0  0  0
    8.8824   -5.3413   28.0036 F   0  0  0  0  0  0  0  0  0  0  0  0
   10.4244   -4.5987   25.8358 C   0  0  0  0  0  0  0  0  0  0  0  0
   10.8452   -5.2456   26.5973 H   0  0  0  0  0  0  0  0  0  0  0  0
   11.1864   -4.1331   24.7693 C   0  0  0  0  0  0  0  0  0  0  0  0
   12.2191   -4.4124   24.6905 H   0  0  0  0  0  0  0  0  0  0  0  0
   10.6200   -3.2899   23.8235 C   0  0  0  0  0  0  0  0  0  0  0  0
   11.2096   -2.8930   23.0034 H   0  0  0  0  0  0  0  0  0  0  0  0
    9.3656   -1.2439   21.9688 C   0  0  0  0  0  0  0  0  0  0  0  0
   10.2319   -0.8094   22.4760 H   0  0  0  0  0  0  0  0  0  0  0  0
    9.7465   -1.8396   21.1269 H   0  0  0  0  0  0  0  0  0  0  0  0
    8.4986   -0.1250   21.3806 C   0  0  0  0  0  0  0  0  0  0  0  0
    9.0473    0.3951   20.5882 H   0  0  0  0  0  0  0  0  0  0  0  0
    8.2572    0.6243   22.1522 H   0  0  0  0  0  0  0  0  0  0  0  0
    7.2713   -0.6831   20.7998 N   0  0  0  0  0  0  0  0  0  0  0  0
    6.6184    0.0354   19.7440 C   0  0  0  0  0  0  0  0  0  0  0  0
    7.1691    0.1287   18.4476 C   0  0  0  0  0  0  0  0  0  0  0  0
    8.1108   -0.3757   18.2331 H   0  0  0  0  0  0  0  0  0  0  0  0
    6.5875    0.7818   17.4311 N   0  0  0  0  0  0  0  0  0  0  0  0
    5.4226    1.4021   17.6817 C   0  0  0  0  0  0  0  0  0  0  0  0
    4.9706    1.9319   16.8461 H   0  0  0  0  0  0  0  0  0  0  0  0
    4.7963    1.3815   18.9328 C   0  0  0  0  0  0  0  0  0  0  0  0
    3.8597    1.9099   19.0763 H   0  0  0  0  0  0  0  0  0  0  0  0
    5.3950    0.6773   19.9811 C   0  0  0  0  0  0  0  0  0  0  0  0
    4.9341    0.6091   20.9652 H   0  0  0  0  0  0  0  0  0  0  0  0
    6.5479   -1.6606   21.5104 C   0  0  0  0  0  0  0  0  0  0  0  0
    5.4449   -2.0465   21.1705 O   0  0  0  0  0  0  0  0  0  0  0  0
  1  2  1  0
  2  3  2  0
  3  4  1  0
  4  5  2  0
  5  6  1  0
  6  7  1  0
  7  8  1  0
  7  9  1  0
  7 10  1  0
  6 11  2  0
 11 12  1  0
 11 13  1  0
 13 14  1  0
 13 15  2  0
 15 16  1  0
  3 17  1  0
 17 18  1  0
 17 19  1  0
 17 20  1  0
 20 21  1  0
 20 22  1  0
 20 23  1  0
 23 24  1  0
 24 25  2  0
 25 26  1  0
 25 27  1  0
 27 28  2  0
 28 29  1  0
 28 30  1  0
 30 31  1  0
 30 32  2  0
 32 33  1  0
 23 34  1  0
 34 35  2  0
 34  2  1  0
 15  4  1  0
 32 24  1  0
M  END
>  <plip>  (1) 
-0.10714285714285714

>  <filename>  (1) 
[H][C]1=[C]([c]2[n][c]([C]([F])([F])[F])[c]([H])[c]([H])[c]2[H])[C]([H])([H])[C]([H])([H])[N]([c]2[c]([H])[n][c]([H])[c]([H])[c]2[H])[C]1=[O]

$$$$
