
     RDKit          3D

 14 14  0  0  0  0  0  0  0  0999 V2000
   10.3955   -2.3610   20.6802 H   0  0  0  0  0  0  0  0  0  0  0  0
    9.4702   -1.8545   20.7299 C   0  0  0  0  0  0  0  0  0  0  0  0
    8.4228   -1.2648   20.8076 C   0  0  0  0  0  0  0  0  0  0  0  0
    7.2777   -0.6444   20.9741 O   0  0  0  0  0  0  0  0  0  0  0  0
    6.6716    0.0054   19.8924 C   0  0  0  0  0  0  0  0  0  0  0  0
    7.1931    0.0507   18.5871 C   0  0  0  0  0  0  0  0  0  0  0  0
    8.1394   -0.4341   18.3637 H   0  0  0  0  0  0  0  0  0  0  0  0
    6.5687    0.6703   17.5754 N   0  0  0  0  0  0  0  0  0  0  0  0
    5.4077    1.2879   17.8392 C   0  0  0  0  0  0  0  0  0  0  0  0
    4.9248    1.7853   16.9984 H   0  0  0  0  0  0  0  0  0  0  0  0
    4.8251    1.2956   19.1134 C   0  0  0  0  0  0  0  0  0  0  0  0
    3.8935    1.8265   19.2659 H   0  0  0  0  0  0  0  0  0  0  0  0
    5.4626    0.6353   20.1710 C   0  0  0  0  0  0  0  0  0  0  0  0
    5.0597    0.6006   21.1834 H   0  0  0  0  0  0  0  0  0  0  0  0
  1  2  1  0
  2  3  3  0
  3  4  1  0
  4  5  1  0
  5  6  2  0
  6  7  1  0
  6  8  1  0
  8  9  2  0
  9 10  1  0
  9 11  1  0
 11 12  1  0
 11 13  2  0
 13 14  1  0
 13  5  1  0
M  END
>  <plip>  (1) 
-0.03571428571428571

>  <filename>  (1) 
[H][C]#[C][O][c]1[c]([H])[n][c]([H])[c]([H])[c]1[H]

$$$$
