
     RDKit          3D

 46 48  0  0  0  0  0  0  0  0999 V2000
    5.6979   -3.8806   20.5032 C   0  0  0  0  0  0  0  0  0  0  0  0
    6.4997   -2.7310   20.3492 O   0  0  0  0  0  0  0  0  0  0  0  0
    6.6805   -1.9441   21.4828 C   0  0  0  0  0  0  0  0  0  0  0  0
    7.4294   -2.6281   22.4629 O   0  0  0  0  0  0  0  0  0  0  0  0
    6.7433   -2.9631   23.6562 C   0  0  0  0  0  0  0  0  0  0  0  0
    5.8233   -3.5443   23.4799 H   0  0  0  0  0  0  0  0  0  0  0  0
    7.4377   -3.5690   24.2407 H   0  0  0  0  0  0  0  0  0  0  0  0
    6.4739   -2.0812   24.2602 H   0  0  0  0  0  0  0  0  0  0  0  0
    7.4172   -0.6652   20.9867 C   0  0  0  0  0  0  0  0  0  0  0  0
    7.7099    0.2356   22.0919 N   0  0  0  0  0  0  0  0  0  0  0  0
    8.6803    1.1936   22.0581 C   0  0  0  0  0  0  0  0  0  0  0  0
    9.4672    1.2944   21.1308 O   0  0  0  0  0  0  0  0  0  0  0  0
    8.6798    2.0558   23.2821 C   0  0  0  0  0  0  0  0  0  0  0  0
    9.5538    3.0531   23.4479 C   0  0  0  0  0  0  0  0  0  0  0  0
    9.6140    4.0135   24.5373 C   0  0  0  0  0  0  0  0  0  0  0  0
   10.5605    4.9594   24.7559 C   0  0  0  0  0  0  0  0  0  0  0  0
   10.2240    5.5926   26.0030 C   0  0  0  0  0  0  0  0  0  0  0  0
   10.7916    6.5781   26.8318 C   0  0  0  0  0  0  0  0  0  0  0  0
   10.1481    6.8921   28.0271 C   0  0  0  0  0  0  0  0  0  0  0  0
    8.9341    6.2715   28.3905 C   0  0  0  0  0  0  0  0  0  0  0  0
    8.3440    5.3078   27.5746 C   0  0  0  0  0  0  0  0  0  0  0  0
    9.0319    4.9699   26.4065 C   0  0  0  0  0  0  0  0  0  0  0  0
    8.6598    4.0108   25.5185 O   0  0  0  0  0  0  0  0  0  0  0  0
    7.4153    4.8107   27.8230 H   0  0  0  0  0  0  0  0  0  0  0  0
    8.4459    6.5559   29.3239 H   0  0  0  0  0  0  0  0  0  0  0  0
   10.5793    7.6421   28.6836 H   0  0  0  0  0  0  0  0  0  0  0  0
   11.7047    7.0884   26.5386 H   0  0  0  0  0  0  0  0  0  0  0  0
   11.3950    5.1639   24.1015 H   0  0  0  0  0  0  0  0  0  0  0  0
   10.3485    3.1971   22.7166 H   0  0  0  0  0  0  0  0  0  0  0  0
    7.9345    1.8262   24.0428 H   0  0  0  0  0  0  0  0  0  0  0  0
    7.0575    0.2886   22.8520 H   0  0  0  0  0  0  0  0  0  0  0  0
    6.6741    0.0852   19.8832 C   0  0  0  0  0  0  0  0  0  0  0  0
    5.4487    0.7328   20.0954 C   0  0  0  0  0  0  0  0  0  0  0  0
    4.8167    1.3470   19.0122 C   0  0  0  0  0  0  0  0  0  0  0  0
    5.4425    1.3168   17.7602 C   0  0  0  0  0  0  0  0  0  0  0  0
    6.6182    0.7143   17.5364 N   0  0  0  0  0  0  0  0  0  0  0  0
    7.2030    0.1201   18.5877 C   0  0  0  0  0  0  0  0  0  0  0  0
    8.1563   -0.3703   18.3856 H   0  0  0  0  0  0  0  0  0  0  0  0
    4.9814    1.7997   16.9004 H   0  0  0  0  0  0  0  0  0  0  0  0
    3.8701    1.8619   19.1276 H   0  0  0  0  0  0  0  0  0  0  0  0
    4.9980    0.7702   21.0905 H   0  0  0  0  0  0  0  0  0  0  0  0
    8.3567   -1.0535   20.5759 H   0  0  0  0  0  0  0  0  0  0  0  0
    5.6998   -1.6471   21.9012 H   0  0  0  0  0  0  0  0  0  0  0  0
    4.7886   -3.6538   21.0846 H   0  0  0  0  0  0  0  0  0  0  0  0
    5.4292   -4.1870   19.4860 H   0  0  0  0  0  0  0  0  0  0  0  0
    6.2412   -4.6943   21.0016 H   0  0  0  0  0  0  0  0  0  0  0  0
  1  2  1  0
  2  3  1  0
  3  4  1  0
  4  5  1  0
  5  6  1  0
  5  7  1  0
  5  8  1  0
  3  9  1  0
  9 10  1  0
 10 11  1  0
 11 12  2  0
 11 13  1  0
 13 14  2  3
 14 15  1  0
 15 16  2  0
 16 17  1  0
 17 18  2  0
 18 19  1  0
 19 20  2  0
 20 21  1  0
 21 22  2  0
 22 23  1  0
 21 24  1  0
 20 25  1  0
 19 26  1  0
 18 27  1  0
 16 28  1  0
 14 29  1  0
 13 30  1  0
 10 31  1  0
  9 32  1  0
 32 33  2  0
 33 34  1  0
 34 35  2  0
 35 36  1  0
 36 37  2  0
 37 38  1  0
 35 39  1  0
 34 40  1  0
 33 41  1  0
  9 42  1  0
  3 43  1  0
  1 44  1  0
  1 45  1  0
  1 46  1  0
 23 15  1  0
 37 32  1  0
 22 17  1  0
M  END
>  <plip>  (1) 
-0.17857142857142858

>  <filename>  (1) 
[H][C]([C](=[O])[N]([H])[C]([H])([c]1[c]([H])[n][c]([H])[c]([H])[c]1[H])[C]([H])([O][C]([H])([H])[H])[O][C]([H])([H])[H])=[C]([H])[c]1[o][c]2[c]([H])[c]([H])[c]([H])[c]([H])[c]2[c]1[H]

$$$$
