
     RDKit          3D

 32 33  0  0  0  0  0  0  0  0999 V2000
    4.9882    1.7647   16.9809 H   0  0  0  0  0  0  0  0  0  0  0  0
    5.4576    1.3091   17.8513 C   0  0  0  0  0  0  0  0  0  0  0  0
    6.6541    0.7300   17.6581 N   0  0  0  0  0  0  0  0  0  0  0  0
    7.2322    0.1297   18.7076 C   0  0  0  0  0  0  0  0  0  0  0  0
    8.2044   -0.3307   18.5287 H   0  0  0  0  0  0  0  0  0  0  0  0
    6.6566    0.0787   19.9941 C   0  0  0  0  0  0  0  0  0  0  0  0
    7.2908   -0.5936   21.0901 N   0  0  0  0  0  0  0  0  0  0  0  0
    7.7443   -1.8878   21.0756 C   0  0  0  0  0  0  0  0  0  0  0  0
    7.5146   -2.5162   20.2329 H   0  0  0  0  0  0  0  0  0  0  0  0
    8.3138   -2.2626   22.1894 N   0  0  0  0  0  0  0  0  0  0  0  0
    8.1778   -1.1761   23.0186 C   0  0  0  0  0  0  0  0  0  0  0  0
    8.5591   -1.1892   24.0310 H   0  0  0  0  0  0  0  0  0  0  0  0
    7.5245   -0.1359   22.3913 C   0  0  0  0  0  0  0  0  0  0  0  0
    7.0249    1.0819   22.8481 N   0  0  0  0  0  0  0  0  0  0  0  0
    6.4411    1.1159   24.1950 C   0  0  0  0  0  0  0  0  0  0  0  0
    6.0793    0.0985   24.3915 H   0  0  0  0  0  0  0  0  0  0  0  0
    7.1874    1.3341   24.9793 H   0  0  0  0  0  0  0  0  0  0  0  0
    5.2743    2.0929   24.3091 C   0  0  0  0  0  0  0  0  0  0  0  0
    4.5538    1.9110   23.5053 H   0  0  0  0  0  0  0  0  0  0  0  0
    5.5984    3.1367   24.2468 H   0  0  0  0  0  0  0  0  0  0  0  0
    4.7652    1.9645   25.2692 H   0  0  0  0  0  0  0  0  0  0  0  0
    7.6152    2.3097   22.3055 C   0  0  0  0  0  0  0  0  0  0  0  0
    6.8690    3.1141   22.3791 H   0  0  0  0  0  0  0  0  0  0  0  0
    7.8084    2.1625   21.2342 H   0  0  0  0  0  0  0  0  0  0  0  0
    8.9136    2.6832   23.0174 C   0  0  0  0  0  0  0  0  0  0  0  0
    8.7334    2.9461   24.0662 H   0  0  0  0  0  0  0  0  0  0  0  0
    9.6084    1.8355   22.9861 H   0  0  0  0  0  0  0  0  0  0  0  0
    9.3952    3.5383   22.5347 H   0  0  0  0  0  0  0  0  0  0  0  0
    5.4234    0.7092   20.1822 C   0  0  0  0  0  0  0  0  0  0  0  0
    4.9789    0.7113   21.1746 H   0  0  0  0  0  0  0  0  0  0  0  0
    4.8107    1.3210   19.0895 C   0  0  0  0  0  0  0  0  0  0  0  0
    3.8412    1.7949   19.1925 H   0  0  0  0  0  0  0  0  0  0  0  0
  1  2  1  0
  2  3  2  0
  3  4  1  0
  4  5  1  0
  4  6  2  0
  6  7  1  0
  7  8  1  0
  8  9  1  0
  8 10  2  0
 10 11  1  0
 11 12  1  0
 11 13  2  0
 13 14  1  0
 14 15  1  0
 15 16  1  0
 15 17  1  0
 15 18  1  0
 18 19  1  0
 18 20  1  0
 18 21  1  0
 14 22  1  0
 22 23  1  0
 22 24  1  0
 22 25  1  0
 25 26  1  0
 25 27  1  0
 25 28  1  0
  6 29  1  0
 29 30  1  0
 29 31  2  0
 31 32  1  0
 31  2  1  0
 13  7  1  0
M  END
>  <plip>  (1) 
-0.034482758620689655

>  <filename>  (1) 
[H][c]1[n][c]([H])[c](-[n]2[c]([H])[n][c]([H])[c]2[N]([C]([H])([H])[C]([H])([H])[H])[C]([H])([H])[C]([H])([H])[H])[c]([H])[c]1[H]

$$$$
