
     RDKit          3D

 41 41  0  0  0  0  0  0  0  0999 V2000
   12.8787    5.3506   23.9383 C   0  0  0  0  0  0  0  0  0  0  0  0
   12.0943    4.1211   23.4803 C   0  0  0  0  0  0  0  0  0  0  0  0
   10.3931    4.4964   22.9749 S   0  0  0  0  0  0  0  0  0  0  0  0
    9.5336    4.8481   24.5305 C   0  0  0  0  0  0  0  0  0  0  0  0
    8.8708    3.6224   25.1829 C   0  0  0  0  0  0  0  0  0  0  0  0
    7.8449    2.9378   24.2913 C   0  0  0  0  0  0  0  0  0  0  0  0
    6.6742    3.2778   24.3001 O   0  0  0  0  0  0  0  0  0  0  0  0
    8.3269    1.9310   23.5202 N   0  0  0  0  0  0  0  0  0  0  0  0
    7.4802    1.2577   22.5552 C   0  0  0  0  0  0  0  0  0  0  0  0
    8.2594    0.1112   21.8827 C   0  0  0  0  0  0  0  0  0  0  0  0
    9.4260    0.6639   21.0446 C   0  0  0  0  0  0  0  0  0  0  0  0
   10.4759    1.1806   21.8574 O   0  0  0  0  0  0  0  0  0  0  0  0
   11.0179    0.4392   22.1668 H   0  0  0  0  0  0  0  0  0  0  0  0
    9.0670    1.5016   20.4302 H   0  0  0  0  0  0  0  0  0  0  0  0
    9.8180   -0.1007   20.3547 H   0  0  0  0  0  0  0  0  0  0  0  0
    7.3187   -0.7983   21.0500 C   0  0  0  0  0  0  0  0  0  0  0  0
    6.6176   -0.0824   19.9145 C   0  0  0  0  0  0  0  0  0  0  0  0
    5.4180    0.6203   20.1111 C   0  0  0  0  0  0  0  0  0  0  0  0
    4.8446    1.3112   19.0393 C   0  0  0  0  0  0  0  0  0  0  0  0
    5.4883    1.2822   17.7984 C   0  0  0  0  0  0  0  0  0  0  0  0
    6.6335    0.6190   17.5809 N   0  0  0  0  0  0  0  0  0  0  0  0
    7.1713   -0.0329   18.6220 C   0  0  0  0  0  0  0  0  0  0  0  0
    8.1123   -0.5487   18.4179 H   0  0  0  0  0  0  0  0  0  0  0  0
    5.0659    1.8067   16.9420 H   0  0  0  0  0  0  0  0  0  0  0  0
    3.9310    1.8835   19.1577 H   0  0  0  0  0  0  0  0  0  0  0  0
    4.9647    0.6564   21.1068 H   0  0  0  0  0  0  0  0  0  0  0  0
    6.5703   -1.2401   21.7238 H   0  0  0  0  0  0  0  0  0  0  0  0
    7.8854   -1.6496   20.6473 H   0  0  0  0  0  0  0  0  0  0  0  0
    8.6950   -0.5084   22.6827 H   0  0  0  0  0  0  0  0  0  0  0  0
    7.1257    1.9739   21.7928 H   0  0  0  0  0  0  0  0  0  0  0  0
    6.5879    0.8723   23.0685 H   0  0  0  0  0  0  0  0  0  0  0  0
    9.3094    1.9475   23.2740 H   0  0  0  0  0  0  0  0  0  0  0  0
    8.3199    3.9166   26.0806 H   0  0  0  0  0  0  0  0  0  0  0  0
    9.6401    2.9060   25.4908 H   0  0  0  0  0  0  0  0  0  0  0  0
   10.2305    5.3208   25.2323 H   0  0  0  0  0  0  0  0  0  0  0  0
    8.7877    5.6049   24.2628 H   0  0  0  0  0  0  0  0  0  0  0  0
   12.0816    3.3220   24.2303 H   0  0  0  0  0  0  0  0  0  0  0  0
   12.5423    3.6830   22.5833 H   0  0  0  0  0  0  0  0  0  0  0  0
   12.3690    5.8637   24.7605 H   0  0  0  0  0  0  0  0  0  0  0  0
   13.8728    5.0689   24.2963 H   0  0  0  0  0  0  0  0  0  0  0  0
   12.9954    6.0656   23.1136 H   0  0  0  0  0  0  0  0  0  0  0  0
  1  2  1  0
  2  3  1  0
  3  4  1  0
  4  5  1  0
  5  6  1  0
  6  7  2  0
  6  8  1  0
  8  9  1  0
  9 10  1  0
 10 11  1  0
 11 12  1  0
 12 13  1  0
 11 14  1  0
 11 15  1  0
 10 16  1  0
 16 17  1  0
 17 18  2  0
 18 19  1  0
 19 20  2  0
 20 21  1  0
 21 22  2  0
 22 23  1  0
 20 24  1  0
 19 25  1  0
 18 26  1  0
 16 27  1  0
 16 28  1  0
 10 29  1  0
  9 30  1  0
  9 31  1  0
  8 32  1  0
  5 33  1  0
  5 34  1  0
  4 35  1  0
  4 36  1  0
  2 37  1  0
  2 38  1  0
  1 39  1  0
  1 40  1  0
  1 41  1  0
 22 17  1  0
M  END
>  <plip>  (1) 
-0.10714285714285714

>  <filename>  (1) 
[H][O][C]([H])([H])[C]([H])([C]([H])([H])[c]1[c]([H])[n][c]([H])[c]([H])[c]1[H])[C]([H])([H])[N]([H])[C](=[O])[C]([H])([H])[C]([H])([H])[S][C]([H])([H])[C]([H])([H])[H]

$$$$
