
     RDKit          3D

 41 43  0  0  0  0  0  0  0  0999 V2000
    8.2149    3.5626   22.0770 C   0  0  0  0  0  0  0  0  0  0  0  0
    8.2955    2.1257   21.6526 N   0  0  0  0  0  4  0  0  0  0  0  0
    7.5773    1.1935   22.6382 C   0  0  0  0  0  0  0  0  0  0  0  0
    7.7326   -0.2377   22.2295 C   0  0  0  0  0  0  0  0  0  0  0  0
    8.3139   -1.3338   22.8402 C   0  0  0  0  0  0  0  0  0  0  0  0
    8.3806   -2.3079   21.8156 C   0  0  0  0  0  0  0  0  0  0  0  0
    7.8496   -1.8731   20.6872 N   0  0  0  0  0  0  0  0  0  0  0  0
    7.4219   -0.6231   20.9535 N   0  0  0  0  0  0  0  0  0  0  0  0
    6.6965    0.0627   19.9499 C   0  0  0  0  0  0  0  0  0  0  0  0
    5.4724    0.7123   20.1728 C   0  0  0  0  0  0  0  0  0  0  0  0
    4.8648    1.3448   19.0851 C   0  0  0  0  0  0  0  0  0  0  0  0
    5.4908    1.3099   17.8343 C   0  0  0  0  0  0  0  0  0  0  0  0
    6.6468    0.6582   17.6160 N   0  0  0  0  0  0  0  0  0  0  0  0
    7.2148    0.0236   18.6420 C   0  0  0  0  0  0  0  0  0  0  0  0
    8.1206   -0.5416   18.4256 H   0  0  0  0  0  0  0  0  0  0  0  0
    5.0433    1.8042   16.9749 H   0  0  0  0  0  0  0  0  0  0  0  0
    3.9164    1.8593   19.1972 H   0  0  0  0  0  0  0  0  0  0  0  0
    4.9997    0.6985   21.1572 H   0  0  0  0  0  0  0  0  0  0  0  0
    8.8026   -3.3033   21.8402 H   0  0  0  0  0  0  0  0  0  0  0  0
    8.6897   -1.4116   23.8545 H   0  0  0  0  0  0  0  0  0  0  0  0
    7.9929    1.3258   23.6428 H   0  0  0  0  0  0  0  0  0  0  0  0
    6.5248    1.4908   22.6852 H   0  0  0  0  0  0  0  0  0  0  0  0
    9.7425    1.6806   21.3807 C   0  0  0  0  0  0  0  0  0  0  0  0
   10.6678    1.7603   22.5877 C   0  0  0  0  0  0  0  0  0  0  0  0
   11.4252    3.0781   22.7193 C   0  0  0  0  0  0  0  0  0  0  0  0
   12.5365    2.8407   23.7257 C   0  0  0  0  0  0  0  0  0  0  0  0
   13.2119    1.5133   23.3755 C   0  0  0  0  0  0  0  0  0  0  0  0
   11.9686    0.4726   22.5408 S   0  0  0  0  0  0  0  0  0  0  0  0
   13.6101    1.0062   24.2564 H   0  0  0  0  0  0  0  0  0  0  0  0
   14.0428    1.6791   22.6874 H   0  0  0  0  0  0  0  0  0  0  0  0
   12.1091    2.8022   24.7344 H   0  0  0  0  0  0  0  0  0  0  0  0
   13.2634    3.6568   23.7163 H   0  0  0  0  0  0  0  0  0  0  0  0
   10.7649    3.8879   23.0364 H   0  0  0  0  0  0  0  0  0  0  0  0
   11.8438    3.3787   21.7497 H   0  0  0  0  0  0  0  0  0  0  0  0
   10.0862    1.5811   23.4975 H   0  0  0  0  0  0  0  0  0  0  0  0
   10.1534    2.2991   20.5777 H   0  0  0  0  0  0  0  0  0  0  0  0
    9.7172    0.6594   21.0087 H   0  0  0  0  0  0  0  0  0  0  0  0
    7.7654    2.0214   20.7616 H   0  0  0  0  0  0  0  0  0  0  0  0
    8.9559    4.1679   21.5540 H   0  0  0  0  0  0  0  0  0  0  0  0
    8.4048    3.6782   23.1518 H   0  0  0  0  0  0  0  0  0  0  0  0
    7.2278    3.9852   21.8682 H   0  0  0  0  0  0  0  0  0  0  0  0
  1  2  1  0
  2  3  1  0
  3  4  1  0
  4  5  2  0
  5  6  1  0
  6  7  2  0
  7  8  1  0
  8  9  1  0
  9 10  2  0
 10 11  1  0
 11 12  2  0
 12 13  1  0
 13 14  2  0
 14 15  1  0
 12 16  1  0
 11 17  1  0
 10 18  1  0
  6 19  1  0
  5 20  1  0
  3 21  1  0
  3 22  1  0
  2 23  1  0
 23 24  1  0
 24 25  1  0
 25 26  1  0
 26 27  1  0
 27 28  1  0
 27 29  1  0
 27 30  1  0
 26 31  1  0
 26 32  1  0
 25 33  1  0
 25 34  1  0
 24 35  1  0
 23 36  1  0
 23 37  1  0
  2 38  1  0
  1 39  1  0
  1 40  1  0
  1 41  1  0
  8  4  1  0
 14  9  1  0
 28 24  1  0
M  CHG  1   2   1
M  END
>  <plip>  (1) 
-0.10714285714285714

>  <filename>  (1) 
[H][c]1[n][c]([H])[c](-[n]2[n][c]([H])[c]([H])[c]2[C]([H])([H])[N+]([H])([C]([H])([H])[H])[C]([H])([H])[C]2([H])[S][C]([H])([H])[C]([H])([H])[C]2([H])[H])[c]([H])[c]1[H]

$$$$
