
     RDKit          3D

 30 32  0  0  0  0  0  0  0  0999 V2000
    4.9453    1.8141   16.9934 H   0  0  0  0  0  0  0  0  0  0  0  0
    5.4019    1.3001   17.8364 C   0  0  0  0  0  0  0  0  0  0  0  0
    6.5640    0.6782   17.5888 N   0  0  0  0  0  0  0  0  0  0  0  0
    7.1899    0.0762   18.6063 C   0  0  0  0  0  0  0  0  0  0  0  0
    8.1359   -0.4008   18.3518 H   0  0  0  0  0  0  0  0  0  0  0  0
    6.6819    0.0449   19.9217 C   0  0  0  0  0  0  0  0  0  0  0  0
    7.3730   -0.6278   20.9905 N   0  0  0  0  0  0  0  0  0  0  0  0
    7.7209   -1.9517   21.0043 C   0  0  0  0  0  0  0  0  0  0  0  0
    7.4818   -2.5858   20.1759 H   0  0  0  0  0  0  0  0  0  0  0  0
    8.1901   -2.3346   22.1503 N   0  0  0  0  0  0  0  0  0  0  0  0
    8.1188   -1.2457   22.9929 N   0  0  0  0  0  0  0  0  0  0  0  0
    7.6122   -0.2511   22.3058 C   0  0  0  0  0  0  0  0  0  0  0  0
    7.3092    0.9803   22.8047 N   0  0  0  0  0  0  0  0  0  0  0  0
    6.7196    1.1066   24.1385 C   0  0  0  0  0  0  0  0  0  0  0  0
    6.7736    0.1302   24.6337 H   0  0  0  0  0  0  0  0  0  0  0  0
    5.6602    1.4061   24.0755 H   0  0  0  0  0  0  0  0  0  0  0  0
    7.5083    2.1412   24.9413 C   0  0  0  0  0  0  0  0  0  0  0  0
    6.9919    2.3852   25.8775 H   0  0  0  0  0  0  0  0  0  0  0  0
    8.4977    1.7171   25.1788 H   0  0  0  0  0  0  0  0  0  0  0  0
    7.6468    3.3596   24.2187 O   0  0  0  0  0  0  0  0  0  0  0  0
    8.3275    3.1836   22.9803 C   0  0  0  0  0  0  0  0  0  0  0  0
    8.3942    4.1708   22.5111 H   0  0  0  0  0  0  0  0  0  0  0  0
    9.3483    2.8037   23.1579 H   0  0  0  0  0  0  0  0  0  0  0  0
    7.5838    2.2047   22.0608 C   0  0  0  0  0  0  0  0  0  0  0  0
    6.6465    2.6585   21.7032 H   0  0  0  0  0  0  0  0  0  0  0  0
    8.1929    1.9635   21.1827 H   0  0  0  0  0  0  0  0  0  0  0  0
    5.4479    0.6612   20.1542 C   0  0  0  0  0  0  0  0  0  0  0  0
    4.9961    0.6243   21.1436 H   0  0  0  0  0  0  0  0  0  0  0  0
    4.8007    1.3097   19.0966 C   0  0  0  0  0  0  0  0  0  0  0  0
    3.8627    1.8384   19.2388 H   0  0  0  0  0  0  0  0  0  0  0  0
  1  2  1  0
  2  3  2  0
  3  4  1  0
  4  5  1  0
  4  6  2  0
  6  7  1  0
  7  8  1  0
  8  9  1  0
  8 10  2  0
 10 11  1  0
 11 12  2  0
 12 13  1  0
 13 14  1  0
 14 15  1  0
 14 16  1  0
 14 17  1  0
 17 18  1  0
 17 19  1  0
 17 20  1  0
 20 21  1  0
 21 22  1  0
 21 23  1  0
 21 24  1  0
 24 25  1  0
 24 26  1  0
  6 27  1  0
 27 28  1  0
 27 29  2  0
 29 30  1  0
 29  2  1  0
 12  7  1  0
 24 13  1  0
M  END
>  <plip>  (1) 
-0.0

>  <filename>  (1) 
[H][c]1[n][c]([H])[c](-[n]2[c]([H])[n][n][c]2[N]2[C]([H])([H])[C]([H])([H])[O][C]([H])([H])[C]2([H])[H])[c]([H])[c]1[H]

$$$$
