
     RDKit          3D

 34 36  0  0  0  0  0  0  0  0999 V2000
    5.0342    1.8274   16.9018 H   0  0  0  0  0  0  0  0  0  0  0  0
    5.4384    1.2837   17.7567 C   0  0  0  0  0  0  0  0  0  0  0  0
    6.5745    0.6066   17.5460 N   0  0  0  0  0  0  0  0  0  0  0  0
    7.1059   -0.0474   18.5875 C   0  0  0  0  0  0  0  0  0  0  0  0
    8.0237   -0.5964   18.3870 H   0  0  0  0  0  0  0  0  0  0  0  0
    6.5555   -0.0591   19.8704 C   0  0  0  0  0  0  0  0  0  0  0  0
    7.3664   -0.6681   21.0121 C   0  0  0  0  0  0  0  0  0  0  0  0
    8.3469    0.3570   21.6073 C   0  0  0  0  0  0  0  0  0  0  0  0
    9.6804    0.4984   21.1741 C   0  0  0  0  0  0  0  0  0  0  0  0
   10.1154   -0.2429   20.5050 H   0  0  0  0  0  0  0  0  0  0  0  0
   10.4644    1.5433   21.6624 C   0  0  0  0  0  0  0  0  0  0  0  0
   11.4981    1.6414   21.3421 H   0  0  0  0  0  0  0  0  0  0  0  0
    9.9490    2.4707   22.5861 C   0  0  0  0  0  0  0  0  0  0  0  0
   10.5510    3.2777   22.9803 H   0  0  0  0  0  0  0  0  0  0  0  0
    8.6327    2.3064   23.0165 C   0  0  0  0  0  0  0  0  0  0  0  0
    7.9564    3.1836   23.8676 O   0  0  0  0  0  0  0  0  0  0  0  0
    8.5898    4.0309   24.7023 C   0  0  0  0  0  0  0  0  0  0  0  0
    7.6881    4.5138   25.5489 F   0  0  0  0  0  0  0  0  0  0  0  0
    9.1581    5.0726   24.0685 F   0  0  0  0  0  0  0  0  0  0  0  0
    9.5521    3.4341   25.4168 F   0  0  0  0  0  0  0  0  0  0  0  0
    7.8590    1.2439   22.5740 C   0  0  0  0  0  0  0  0  0  0  0  0
    6.8823    1.0787   23.0161 H   0  0  0  0  0  0  0  0  0  0  0  0
    6.4462   -1.1281   21.9958 O   0  0  0  0  0  0  0  0  0  0  0  0
    6.7361   -2.4802   22.3045 C   0  0  0  0  0  0  0  0  0  0  0  0
    5.8016   -3.0003   22.5359 H   0  0  0  0  0  0  0  0  0  0  0  0
    7.4160   -2.5549   23.1617 H   0  0  0  0  0  0  0  0  0  0  0  0
    7.3722   -2.9533   21.0179 C   0  0  0  0  0  0  0  0  0  0  0  0
    6.6080   -3.2139   20.2751 H   0  0  0  0  0  0  0  0  0  0  0  0
    8.0776   -3.7793   21.1380 H   0  0  0  0  0  0  0  0  0  0  0  0
    8.0942   -1.8067   20.5929 O   0  0  0  0  0  0  0  0  0  0  0  0
    5.3462    0.6300   20.0700 C   0  0  0  0  0  0  0  0  0  0  0  0
    4.8631    0.6402   21.0493 H   0  0  0  0  0  0  0  0  0  0  0  0
    4.7815    1.3095   18.9927 C   0  0  0  0  0  0  0  0  0  0  0  0
    3.8625    1.8752   19.0932 H   0  0  0  0  0  0  0  0  0  0  0  0
  1  2  1  0
  2  3  2  0
  3  4  1  0
  4  5  1  0
  4  6  2  0
  6  7  1  0
  7  8  1  0
  8  9  2  0
  9 10  1  0
  9 11  1  0
 11 12  1  0
 11 13  2  0
 13 14  1  0
 13 15  1  0
 15 16  1  0
 16 17  1  0
 17 18  1  0
 17 19  1  0
 17 20  1  0
 15 21  2  0
 21 22  1  0
  7 23  1  0
 23 24  1  0
 24 25  1  0
 24 26  1  0
 24 27  1  0
 27 28  1  0
 27 29  1  0
 27 30  1  0
  6 31  1  0
 31 32  1  0
 31 33  2  0
 33 34  1  0
 33  2  1  0
 30  7  1  0
 21  8  1  0
M  END
>  <plip>  (1) 
-0.034482758620689655

>  <filename>  (1) 
[H][c]1[n][c]([H])[c]([C]2([c]3[c]([H])[c]([H])[c]([H])[c]([O][C]([F])([F])[F])[c]3[H])[O][C]([H])([H])[C]([H])([H])[O]2)[c]([H])[c]1[H]

$$$$
