
     RDKit          3D

 30 31  0  0  0  0  0  0  0  0999 V2000
    6.1142    2.9514   23.2650 H   0  0  0  0  0  0  0  0  0  0  0  0
    6.8340    2.3146   23.7773 C   0  0  0  0  0  0  0  0  0  0  0  0
    7.4701    1.4089   23.0160 N   0  0  0  0  0  0  0  0  0  0  0  0
    8.3607    0.6598   23.6388 C   0  0  0  0  0  0  0  0  0  0  0  0
    8.9228   -0.3955   22.9675 N   0  0  0  0  0  0  0  0  0  0  0  0
    9.8757   -0.5829   23.1888 H   0  0  0  0  0  0  0  0  0  0  0  0
    9.0264   -0.2954   21.3372 S   0  0  0  0  0  0  0  0  0  0  0  0
    9.8845   -1.4379   21.0936 O   0  0  0  0  0  0  0  0  0  0  0  0
    9.4356    1.0221   20.9107 O   0  0  0  0  0  0  0  0  0  0  0  0
    7.4610   -0.6583   20.9161 N   0  0  0  0  0  0  0  0  0  0  0  0
    6.7611    0.0285   19.8648 C   0  0  0  0  0  0  0  0  0  0  0  0
    7.1971    0.0647   18.5133 C   0  0  0  0  0  0  0  0  0  0  0  0
    8.1264   -0.4343   18.2524 H   0  0  0  0  0  0  0  0  0  0  0  0
    6.5361    0.6667   17.5161 N   0  0  0  0  0  0  0  0  0  0  0  0
    5.3833    1.2834   17.8270 C   0  0  0  0  0  0  0  0  0  0  0  0
    4.8726    1.7914   17.0105 H   0  0  0  0  0  0  0  0  0  0  0  0
    4.8463    1.3034   19.1191 C   0  0  0  0  0  0  0  0  0  0  0  0
    3.9045    1.8134   19.3045 H   0  0  0  0  0  0  0  0  0  0  0  0
    5.5492    0.6644   20.1558 C   0  0  0  0  0  0  0  0  0  0  0  0
    5.1894    0.6500   21.1860 H   0  0  0  0  0  0  0  0  0  0  0  0
    6.7591   -1.6450   21.7488 C   0  0  0  0  0  0  0  0  0  0  0  0
    7.4846   -2.2567   22.2961 H   0  0  0  0  0  0  0  0  0  0  0  0
    6.1637   -2.3047   21.1133 H   0  0  0  0  0  0  0  0  0  0  0  0
    6.0953   -1.1580   22.4725 H   0  0  0  0  0  0  0  0  0  0  0  0
    8.7100    0.7724   24.9934 C   0  0  0  0  0  0  0  0  0  0  0  0
    9.4710    0.1064   25.3822 H   0  0  0  0  0  0  0  0  0  0  0  0
    8.0080    1.6711   25.7789 C   0  0  0  0  0  0  0  0  0  0  0  0
    8.1863    1.7501   26.8535 H   0  0  0  0  0  0  0  0  0  0  0  0
    7.0333    2.4603   25.1475 C   0  0  0  0  0  0  0  0  0  0  0  0
    6.4246    3.1590   25.7012 H   0  0  0  0  0  0  0  0  0  0  0  0
  1  2  1  0
  2  3  2  0
  3  4  1  0
  4  5  1  0
  5  6  1  0
  5  7  1  0
  7  8  2  0
  7  9  2  0
  7 10  1  0
 10 11  1  0
 11 12  2  0
 12 13  1  0
 12 14  1  0
 14 15  2  0
 15 16  1  0
 15 17  1  0
 17 18  1  0
 17 19  2  0
 19 20  1  0
 10 21  1  0
 21 22  1  0
 21 23  1  0
 21 24  1  0
  4 25  2  0
 25 26  1  0
 25 27  1  0
 27 28  1  0
 27 29  2  0
 29 30  1  0
 29  2  1  0
 19 11  1  0
M  END
>  <plip>  (1) 
-0.10714285714285714

>  <filename>  (1) 
[H][c]1[n][c]([N]([H])[S](=[O])(=[O])[N]([c]2[c]([H])[n][c]([H])[c]([H])[c]2[H])[C]([H])([H])[H])[c]([H])[c]([H])[c]1[H]

$$$$
