
     RDKit          3D

 38 39  0  0  0  0  0  0  0  0999 V2000
    8.1143   -0.6446   23.0026 H   0  0  0  0  0  0  0  0  0  0  0  0
    7.5968   -0.1104   22.2074 C   0  0  0  0  0  0  0  0  0  0  0  0
    7.2248    1.1637   22.4484 O   0  0  0  0  0  0  0  0  0  0  0  0
    7.4176    1.6663   23.7625 C   0  0  0  0  0  0  0  0  0  0  0  0
    8.4539    1.4804   24.0964 H   0  0  0  0  0  0  0  0  0  0  0  0
    7.2805    2.7436   23.6309 H   0  0  0  0  0  0  0  0  0  0  0  0
    6.4014    1.0914   24.7472 C   0  0  0  0  0  0  0  0  0  0  0  0
    6.5232    0.0016   24.8304 H   0  0  0  0  0  0  0  0  0  0  0  0
    5.3949    1.2569   24.3442 H   0  0  0  0  0  0  0  0  0  0  0  0
    6.5229    1.7233   26.1392 C   0  0  0  0  0  0  0  0  0  0  0  0
    6.3718    2.8116   26.0634 H   0  0  0  0  0  0  0  0  0  0  0  0
    7.5492    1.5884   26.5157 H   0  0  0  0  0  0  0  0  0  0  0  0
    5.6022    1.2079   27.1442 N   0  0  0  0  0  0  0  0  0  0  0  0
    4.1828    1.4639   26.8632 C   0  0  0  0  0  0  0  0  0  0  0  0
    3.8159    0.9248   25.9674 H   0  0  0  0  0  0  0  0  0  0  0  0
    4.0411    2.5396   26.6911 H   0  0  0  0  0  0  0  0  0  0  0  0
    3.3295    1.0309   28.0614 C   0  0  0  0  0  0  0  0  0  0  0  0
    3.5685    1.6681   28.9291 H   0  0  0  0  0  0  0  0  0  0  0  0
    2.2643    1.1304   27.8277 H   0  0  0  0  0  0  0  0  0  0  0  0
    3.5388   -0.3380   28.3917 O   0  0  0  0  0  0  0  0  0  0  0  0
    4.9120   -0.5861   28.6772 C   0  0  0  0  0  0  0  0  0  0  0  0
    4.9934   -1.6578   28.8870 H   0  0  0  0  0  0  0  0  0  0  0  0
    5.2196   -0.0203   29.5723 H   0  0  0  0  0  0  0  0  0  0  0  0
    5.8144   -0.2024   27.4987 C   0  0  0  0  0  0  0  0  0  0  0  0
    6.8646   -0.3436   27.7881 H   0  0  0  0  0  0  0  0  0  0  0  0
    5.5949   -0.8957   26.6631 H   0  0  0  0  0  0  0  0  0  0  0  0
    7.3572   -0.6745   21.0239 C   0  0  0  0  0  0  0  0  0  0  0  0
    7.9438   -2.3002   20.8309 Cl  0  0  0  0  0  0  0  0  0  0  0  0
    6.6482   -0.0132   19.8960 C   0  0  0  0  0  0  0  0  0  0  0  0
    7.1648    0.0389   18.5864 C   0  0  0  0  0  0  0  0  0  0  0  0
    8.1183   -0.4302   18.3547 H   0  0  0  0  0  0  0  0  0  0  0  0
    6.5583    0.6625   17.5682 N   0  0  0  0  0  0  0  0  0  0  0  0
    5.3966    1.2896   17.8201 C   0  0  0  0  0  0  0  0  0  0  0  0
    4.9381    1.8047   16.9759 H   0  0  0  0  0  0  0  0  0  0  0  0
    4.7911    1.3026   19.0813 C   0  0  0  0  0  0  0  0  0  0  0  0
    3.8605    1.8472   19.2258 H   0  0  0  0  0  0  0  0  0  0  0  0
    5.4336    0.6488   20.1336 C   0  0  0  0  0  0  0  0  0  0  0  0
    5.0245    0.6434   21.1414 H   0  0  0  0  0  0  0  0  0  0  0  0
  1  2  1  0
  2  3  1  0
  3  4  1  0
  4  5  1  0
  4  6  1  0
  4  7  1  0
  7  8  1  0
  7  9  1  0
  7 10  1  0
 10 11  1  0
 10 12  1  0
 10 13  1  0
 13 14  1  0
 14 15  1  0
 14 16  1  0
 14 17  1  0
 17 18  1  0
 17 19  1  0
 17 20  1  0
 20 21  1  0
 21 22  1  0
 21 23  1  0
 21 24  1  0
 24 25  1  0
 24 26  1  0
  2 27  2  3
 27 28  1  0
 27 29  1  0
 29 30  2  0
 30 31  1  0
 30 32  1  0
 32 33  2  0
 33 34  1  0
 33 35  1  0
 35 36  1  0
 35 37  2  0
 37 38  1  0
 24 13  1  0
 37 29  1  0
M  END
>  <plip>  (1) 
-0.0

>  <filename>  (1) 
[H][C]([O][C]([H])([H])[C]([H])([H])[C]([H])([H])[N]1[C]([H])([H])[C]([H])([H])[O][C]([H])([H])[C]1([H])[H])=[C]([Cl])[c]1[c]([H])[n][c]([H])[c]([H])[c]1[H]

$$$$
