
     RDKit          3D

 32 34  0  0  0  0  0  0  0  0999 V2000
    4.9168    1.7947   16.9821 H   0  0  0  0  0  0  0  0  0  0  0  0
    5.3911    1.3023   17.8272 C   0  0  0  0  0  0  0  0  0  0  0  0
    6.5524    0.6839   17.5636 N   0  0  0  0  0  0  0  0  0  0  0  0
    7.1481    0.0649   18.5881 C   0  0  0  0  0  0  0  0  0  0  0  0
    8.1004   -0.4133   18.3723 H   0  0  0  0  0  0  0  0  0  0  0  0
    6.6295   -0.0003   19.8969 C   0  0  0  0  0  0  0  0  0  0  0  0
    7.3861   -0.7228   20.9999 C   0  0  0  0  0  0  0  0  0  0  0  0
    7.6326   -1.7494   20.6960 H   0  0  0  0  0  0  0  0  0  0  0  0
    6.7850   -0.7622   21.9153 H   0  0  0  0  0  0  0  0  0  0  0  0
    8.6937   -0.0661   21.3149 C   0  0  0  0  0  0  0  0  0  0  0  0
    9.8539   -0.5438   20.9456 N   0  0  0  0  0  0  0  0  0  0  0  0
   10.8140    0.3759   21.2759 N   0  0  0  0  0  0  0  0  0  0  0  0
   10.2072    1.3877   21.8230 C   0  0  0  0  0  0  0  0  0  0  0  0
   10.7000    2.2862   22.1641 H   0  0  0  0  0  0  0  0  0  0  0  0
    8.8548    1.1653   21.9014 N   0  0  0  0  0  0  0  0  0  0  0  0
    7.8142    2.1150   22.2786 C   0  0  1  0  0  0  0  0  0  0  0  0
    7.2800    2.4518   21.3831 H   0  0  0  0  0  0  0  0  0  0  0  0
    6.8575    1.4693   23.1594 N   0  0  0  0  0  0  0  0  0  0  0  0
    7.4217    0.8887   23.7642 H   0  0  0  0  0  0  0  0  0  0  0  0
    6.2153    2.5420   23.9524 C   0  0  0  0  0  0  0  0  0  0  0  0
    5.2209    2.7803   23.5499 H   0  0  0  0  0  0  0  0  0  0  0  0
    6.0414    2.2039   24.9800 H   0  0  0  0  0  0  0  0  0  0  0  0
    7.1414    3.7913   23.8872 C   0  0  0  0  0  0  0  0  0  0  0  0
    7.4267    4.1495   24.8810 H   0  0  0  0  0  0  0  0  0  0  0  0
    6.6291    4.6319   23.4051 H   0  0  0  0  0  0  0  0  0  0  0  0
    8.3495    3.3118   23.0696 C   0  0  0  0  0  0  0  0  0  0  0  0
    9.1494    2.9668   23.7373 H   0  0  0  0  0  0  0  0  0  0  0  0
    8.7716    4.0742   22.4109 H   0  0  0  0  0  0  0  0  0  0  0  0
    5.4243    0.6568   20.1505 C   0  0  0  0  0  0  0  0  0  0  0  0
    5.0231    0.6511   21.1689 H   0  0  0  0  0  0  0  0  0  0  0  0
    4.7933    1.3220   19.0925 C   0  0  0  0  0  0  0  0  0  0  0  0
    3.8622    1.8528   19.2430 H   0  0  0  0  0  0  0  0  0  0  0  0
  1  2  1  0
  2  3  2  0
  3  4  1  0
  4  5  1  0
  4  6  2  0
  6  7  1  0
  7  8  1  0
  7  9  1  0
  7 10  1  0
 10 11  2  0
 11 12  1  0
 12 13  2  0
 13 14  1  0
 13 15  1  0
 15 16  1  0
 16 17  1  6
 16 18  1  0
 18 19  1  0
 18 20  1  0
 20 21  1  0
 20 22  1  0
 20 23  1  0
 23 24  1  0
 23 25  1  0
 23 26  1  0
 26 27  1  0
 26 28  1  0
  6 29  1  0
 29 30  1  0
 29 31  2  0
 31 32  1  0
 31  2  1  0
 15 10  1  0
 26 16  1  0
M  END
>  <plip>  (1) 
-0.07142857142857142

>  <filename>  (1) 
[H][c]1[n][c]([H])[c]([C]([H])([H])[c]2[n][n][c]([H])[n]2[C@@]2([H])[N]([H])[C]([H])([H])[C]([H])([H])[C]2([H])[H])[c]([H])[c]1[H]

$$$$
