
     RDKit          3D

 41 45  0  0  0  0  0  0  0  0999 V2000
    5.0373    1.7725   16.9585 H   0  0  0  0  0  0  0  0  0  0  0  0
    5.4693    1.2709   17.8243 C   0  0  0  0  0  0  0  0  0  0  0  0
    6.6274    0.6289   17.6186 N   0  0  0  0  0  0  0  0  0  0  0  0
    7.1827    0.0083   18.6638 C   0  0  0  0  0  0  0  0  0  0  0  0
    8.1202   -0.5094   18.4818 H   0  0  0  0  0  0  0  0  0  0  0  0
    6.6208   -0.0060   19.9431 C   0  0  0  0  0  0  0  0  0  0  0  0
    7.3529   -0.7043   20.9989 C   0  0  0  0  0  0  0  0  0  0  0  0
    8.5535   -1.3280   20.8019 N   0  0  0  0  0  0  0  0  0  0  0  0
    8.8258   -1.7785   22.0069 C   0  0  0  0  0  0  0  0  0  0  0  0
   10.0942   -2.6880   22.7964 S   0  0  0  0  0  0  0  0  0  0  0  0
    9.2252   -2.5729   24.3281 C   0  0  0  0  0  0  0  0  0  0  0  0
    9.5953   -3.0357   25.2323 H   0  0  0  0  0  0  0  0  0  0  0  0
    8.0573   -1.8902   24.2065 C   0  0  0  0  0  0  0  0  0  0  0  0
    7.1321   -1.6266   25.1752 N   0  0  0  0  0  0  0  0  0  0  0  0
    5.7496   -1.3345   24.8229 C   0  0  0  0  0  0  0  0  0  0  0  0
    5.6907   -0.4118   24.2382 H   0  0  0  0  0  0  0  0  0  0  0  0
    5.3532   -2.1618   24.2153 H   0  0  0  0  0  0  0  0  0  0  0  0
    5.0110   -1.1699   26.1443 C   0  0  0  0  0  0  0  0  0  0  0  0
    4.0633   -1.7113   26.1246 H   0  0  0  0  0  0  0  0  0  0  0  0
    4.7697   -0.1091   26.2748 H   0  0  0  0  0  0  0  0  0  0  0  0
    5.9520   -1.6587   27.2593 C   0  0  2  0  0  0  0  0  0  0  0  0
    5.5503   -2.5575   27.7348 H   0  0  0  0  0  0  0  0  0  0  0  0
    6.2535   -0.5901   28.3415 C   0  0  0  0  0  0  0  0  0  0  0  0
    6.1952   -1.0322   29.3477 H   0  0  0  0  0  0  0  0  0  0  0  0
    5.4899    0.2046   28.3364 H   0  0  0  0  0  0  0  0  0  0  0  0
    7.6016   -0.0378   28.0868 N   0  0  0  0  0  0  0  0  0  0  0  0
    7.5881    1.2594   27.4227 C   0  0  0  0  0  0  0  0  0  0  0  0
    7.1552    2.0049   28.0977 H   0  0  0  0  0  0  0  0  0  0  0  0
    7.0387    1.2566   26.4643 H   0  0  0  0  0  0  0  0  0  0  0  0
    8.6146    1.5820   27.2257 H   0  0  0  0  0  0  0  0  0  0  0  0
    8.3344   -1.0738   27.3257 C   0  0  0  0  0  0  0  0  0  0  0  0
    9.0630   -0.6450   26.6220 H   0  0  0  0  0  0  0  0  0  0  0  0
    8.9109   -1.6908   28.0212 H   0  0  0  0  0  0  0  0  0  0  0  0
    7.3130   -1.9689   26.5871 C   0  0  2  0  0  0  0  0  0  0  0  0
    7.5804   -3.0339   26.6915 H   0  0  0  0  0  0  0  0  0  0  0  0
    7.8578   -1.4574   22.8831 N   0  0  0  0  0  0  0  0  0  0  0  0
    6.8767   -0.7539   22.2286 N   0  0  0  0  0  0  0  0  0  0  0  0
    5.4030    0.6651   20.1558 C   0  0  0  0  0  0  0  0  0  0  0  0
    4.9238    0.6931   21.1368 H   0  0  0  0  0  0  0  0  0  0  0  0
    4.8213    1.3090   19.0642 C   0  0  0  0  0  0  0  0  0  0  0  0
    3.8875    1.8516   19.1572 H   0  0  0  0  0  0  0  0  0  0  0  0
  1  2  1  0
  2  3  2  0
  3  4  1  0
  4  5  1  0
  4  6  2  0
  6  7  1  0
  7  8  1  0
  8  9  2  0
  9 10  1  0
 10 11  1  0
 11 12  1  0
 11 13  2  0
 13 14  1  0
 14 15  1  0
 15 16  1  0
 15 17  1  0
 15 18  1  0
 18 19  1  0
 18 20  1  0
 18 21  1  0
 21 22  1  1
 21 23  1  0
 23 24  1  0
 23 25  1  0
 23 26  1  0
 26 27  1  0
 27 28  1  0
 27 29  1  0
 27 30  1  0
 26 31  1  0
 31 32  1  0
 31 33  1  0
 31 34  1  0
 34 35  1  6
 13 36  1  0
 36 37  1  0
  6 38  1  0
 38 39  1  0
 38 40  2  0
 40 41  1  0
 40  2  1  0
 37  7  2  0
 36  9  1  0
 34 14  1  0
 34 21  1  0
M  END
>  <plip>  (1) 
-0.07142857142857142

>  <filename>  (1) 
[H][c]1[n][c]([H])[c](-[c]2[n][c]3[s][c]([H])[c]([N]4[C]([H])([H])[C]([H])([H])[C@]5([H])[C]([H])([H])[N]([C]([H])([H])[H])[C]([H])([H])[C@]45[H])[n]3[n]2)[c]([H])[c]1[H]

$$$$
