
     RDKit          3D

 37 39  0  0  0  0  0  0  0  0999 V2000
    7.4376    1.2953   22.7881 S   0  0  0  0  0  0  0  0  0  0  0  0
    7.4091   -0.2992   22.3231 C   0  0  0  0  0  0  0  0  0  0  0  0
    7.2636   -0.7182   21.0138 N   0  0  0  0  0  0  0  0  0  0  0  0
    6.6477   -0.0236   19.9307 C   0  0  0  0  0  0  0  0  0  0  0  0
    5.4372    0.6412   20.1607 C   0  0  0  0  0  0  0  0  0  0  0  0
    4.8091    1.3007   19.1007 C   0  0  0  0  0  0  0  0  0  0  0  0
    5.4162    1.2831   17.8417 C   0  0  0  0  0  0  0  0  0  0  0  0
    6.5808    0.6576   17.5967 N   0  0  0  0  0  0  0  0  0  0  0  0
    7.1785    0.0265   18.6186 C   0  0  0  0  0  0  0  0  0  0  0  0
    8.1325   -0.4500   18.3906 H   0  0  0  0  0  0  0  0  0  0  0  0
    4.9557    1.7909   16.9960 H   0  0  0  0  0  0  0  0  0  0  0  0
    3.8746    1.8390   19.2473 H   0  0  0  0  0  0  0  0  0  0  0  0
    5.0259    0.6324   21.1688 H   0  0  0  0  0  0  0  0  0  0  0  0
    7.7998   -1.5532   20.8362 H   0  0  0  0  0  0  0  0  0  0  0  0
    7.6228   -1.3367   23.2002 N   0  0  0  0  0  0  0  0  0  0  0  0
    8.5838   -1.1881   24.3008 C   0  0  0  0  0  0  0  0  0  0  0  0
    8.0430   -1.7181   25.6344 C   0  0  0  0  0  0  0  0  0  0  0  0
    7.5260   -3.1679   25.4962 C   0  0  0  0  0  0  0  0  0  0  0  0
    7.0328   -3.7667   26.8022 C   0  0  0  0  0  0  0  0  0  0  0  0
    7.5213   -4.8558   27.4688 C   0  0  0  0  0  0  0  0  0  0  0  0
    6.8115   -5.1594   28.6725 C   0  0  0  0  0  0  0  0  0  0  0  0
    5.7851   -4.2956   28.8982 C   0  0  0  0  0  0  0  0  0  0  0  0
    5.6736   -3.1107   27.6511 S   0  0  0  0  0  0  0  0  0  0  0  0
    5.1166   -4.2303   29.7481 H   0  0  0  0  0  0  0  0  0  0  0  0
    7.0607   -5.9799   29.3412 H   0  0  0  0  0  0  0  0  0  0  0  0
    8.3674   -5.4248   27.0923 H   0  0  0  0  0  0  0  0  0  0  0  0
    6.4588   -3.1996   24.3816 C   0  0  0  0  0  0  0  0  0  0  0  0
    7.0104   -2.6683   23.0519 C   0  0  0  0  0  0  0  0  0  0  0  0
    7.7477   -3.3874   22.6572 H   0  0  0  0  0  0  0  0  0  0  0  0
    6.1929   -2.5961   22.3289 H   0  0  0  0  0  0  0  0  0  0  0  0
    6.1108   -4.2272   24.2249 H   0  0  0  0  0  0  0  0  0  0  0  0
    5.5909   -2.6009   24.6936 H   0  0  0  0  0  0  0  0  0  0  0  0
    8.3739   -3.8021   25.1803 H   0  0  0  0  0  0  0  0  0  0  0  0
    7.2305   -1.0705   25.9977 H   0  0  0  0  0  0  0  0  0  0  0  0
    8.8538   -1.6771   26.3744 H   0  0  0  0  0  0  0  0  0  0  0  0
    8.8269   -0.1243   24.3979 H   0  0  0  0  0  0  0  0  0  0  0  0
    9.5168   -1.7241   24.0482 H   0  0  0  0  0  0  0  0  0  0  0  0
  1  2  2  0
  2  3  1  0
  3  4  1  0
  4  5  2  0
  5  6  1  0
  6  7  2  0
  7  8  1  0
  8  9  2  0
  9 10  1  0
  7 11  1  0
  6 12  1  0
  5 13  1  0
  3 14  1  0
  2 15  1  0
 15 16  1  0
 16 17  1  0
 17 18  1  0
 18 19  1  0
 19 20  2  0
 20 21  1  0
 21 22  2  0
 22 23  1  0
 22 24  1  0
 21 25  1  0
 20 26  1  0
 18 27  1  0
 27 28  1  0
 28 29  1  0
 28 30  1  0
 27 31  1  0
 27 32  1  0
 18 33  1  0
 17 34  1  0
 17 35  1  0
 16 36  1  0
 16 37  1  0
  9  4  1  0
 28 15  1  0
 23 19  1  0
M  END
>  <plip>  (1) 
-0.0

>  <filename>  (1) 
[H][c]1[n][c]([H])[c]([N]([H])[C](=[S])[N]2[C]([H])([H])[C]([H])([H])[C]([H])([c]3[s][c]([H])[c]([H])[c]3[H])[C]([H])([H])[C]2([H])[H])[c]([H])[c]1[H]

$$$$
