
     RDKit          3D

 30 31  0  0  0  0  0  0  0  0999 V2000
    4.9131    1.8112   16.9692 H   0  0  0  0  0  0  0  0  0  0  0  0
    5.3842    1.3087   17.8136 C   0  0  0  0  0  0  0  0  0  0  0  0
    6.5473    0.6938   17.5470 N   0  0  0  0  0  0  0  0  0  0  0  0
    7.1510    0.0628   18.5620 C   0  0  0  0  0  0  0  0  0  0  0  0
    8.1101   -0.3945   18.3262 H   0  0  0  0  0  0  0  0  0  0  0  0
    6.6422   -0.0026   19.8742 C   0  0  0  0  0  0  0  0  0  0  0  0
    7.3687   -0.6921   20.9530 C   0  0  0  0  0  0  0  0  0  0  0  0
    7.6818   -0.2632   22.2309 C   0  0  0  0  0  0  0  0  0  0  0  0
    7.4464    1.0937   22.8460 C   0  0  1  0  0  0  0  0  0  0  0  0
    6.9447    1.7319   22.1061 H   0  0  0  0  0  0  0  0  0  0  0  0
    6.5480    0.9855   24.0833 C   0  0  0  0  0  0  0  0  0  0  0  0
    7.0284    0.3800   24.8601 H   0  0  0  0  0  0  0  0  0  0  0  0
    6.3277    1.9721   24.5061 H   0  0  0  0  0  0  0  0  0  0  0  0
    5.5985    0.5015   23.8331 H   0  0  0  0  0  0  0  0  0  0  0  0
    8.7819    1.7943   23.1755 C   0  0  0  0  0  0  0  0  0  0  0  0
    9.3309    1.1550   23.8804 H   0  0  0  0  0  0  0  0  0  0  0  0
    8.5612    2.7285   23.7095 H   0  0  0  0  0  0  0  0  0  0  0  0
    9.6368    2.0742   21.9359 C   0  0  0  0  0  0  0  0  0  0  0  0
    9.9149    1.1412   21.4295 H   0  0  0  0  0  0  0  0  0  0  0  0
    9.0901    2.6869   21.2073 H   0  0  0  0  0  0  0  0  0  0  0  0
   10.5568    2.6102   22.1930 H   0  0  0  0  0  0  0  0  0  0  0  0
    8.3636   -1.3638   22.8069 C   0  0  0  0  0  0  0  0  0  0  0  0
    8.7812   -1.4519   23.8054 H   0  0  0  0  0  0  0  0  0  0  0  0
    8.4805   -2.3872   21.9652 N   0  0  0  0  0  0  0  0  0  0  0  0
    7.8827   -1.9401   20.8473 N   0  0  0  0  0  0  0  0  0  0  0  0
    7.7957   -2.5445   20.0400 H   0  0  0  0  0  0  0  0  0  0  0  0
    5.4283    0.6512   20.1271 C   0  0  0  0  0  0  0  0  0  0  0  0
    5.0055    0.6293   21.1346 H   0  0  0  0  0  0  0  0  0  0  0  0
    4.7900    1.3163   19.0803 C   0  0  0  0  0  0  0  0  0  0  0  0
    3.8627    1.8505   19.2399 H   0  0  0  0  0  0  0  0  0  0  0  0
  1  2  1  0
  2  3  2  0
  3  4  1  0
  4  5  1  0
  4  6  2  0
  6  7  1  0
  7  8  2  0
  8  9  1  0
  9 10  1  6
  9 11  1  0
 11 12  1  0
 11 13  1  0
 11 14  1  0
  9 15  1  0
 15 16  1  0
 15 17  1  0
 15 18  1  0
 18 19  1  0
 18 20  1  0
 18 21  1  0
  8 22  1  0
 22 23  1  0
 22 24  2  0
 24 25  1  0
 25 26  1  0
  6 27  1  0
 27 28  1  0
 27 29  2  0
 29 30  1  0
 29  2  1  0
 25  7  1  0
M  END
>  <plip>  (1) 
-0.0

>  <filename>  (1) 
[H][c]1[n][c]([H])[c](-[c]2[c]([C@@]([H])([C]([H])([H])[H])[C]([H])([H])[C]([H])([H])[H])[c]([H])[n][n]2[H])[c]([H])[c]1[H]

$$$$
