
     RDKit          3D

 29 31  0  0  0  0  0  0  0  0999 V2000
   10.1088    1.4134   26.1603 H   0  0  0  0  0  0  0  0  0  0  0  0
    9.8600    1.0480   25.1657 C   0  0  0  0  0  0  0  0  0  0  0  0
    9.2499   -0.1461   25.0737 N   0  0  0  0  0  0  0  0  0  0  0  0
    8.9403   -0.5552   23.8294 C   0  0  0  0  0  0  0  0  0  0  0  0
    8.4356   -1.5143   23.7589 H   0  0  0  0  0  0  0  0  0  0  0  0
    9.2215    0.2068   22.6690 C   0  0  0  0  0  0  0  0  0  0  0  0
    8.7770   -0.2461   21.3095 C   0  0  1  0  0  0  0  0  0  0  0  0
    9.1679    0.4745   20.5767 H   0  0  0  0  0  0  0  0  0  0  0  0
    9.0205   -1.7423   20.9544 C   0  0  0  0  0  0  0  0  0  0  0  0
    9.6921   -2.3092   21.6117 H   0  0  0  0  0  0  0  0  0  0  0  0
    9.3852   -1.8586   19.9347 H   0  0  0  0  0  0  0  0  0  0  0  0
    7.5057   -2.0245   21.0463 C   0  0  0  0  0  0  0  0  0  0  0  0
    7.2003   -2.6164   21.9094 H   0  0  0  0  0  0  0  0  0  0  0  0
    7.0533   -2.4858   20.1630 H   0  0  0  0  0  0  0  0  0  0  0  0
    7.2183   -0.5073   21.1949 C   0  0  2  0  0  0  0  0  0  0  0  0
    6.6929   -0.2410   22.1245 H   0  0  0  0  0  0  0  0  0  0  0  0
    6.5367    0.1418   20.0323 C   0  0  0  0  0  0  0  0  0  0  0  0
    7.1155    0.1127   18.7490 C   0  0  0  0  0  0  0  0  0  0  0  0
    8.0674   -0.3959   18.5899 H   0  0  0  0  0  0  0  0  0  0  0  0
    6.5817    0.6811   17.6593 N   0  0  0  0  0  0  0  0  0  0  0  0
    5.4133    1.3201   17.8130 C   0  0  0  0  0  0  0  0  0  0  0  0
    5.0002    1.7883   16.9216 H   0  0  0  0  0  0  0  0  0  0  0  0
    4.7310    1.3861   19.0321 C   0  0  0  0  0  0  0  0  0  0  0  0
    3.7848    1.9078   19.0880 H   0  0  0  0  0  0  0  0  0  0  0  0
    5.3024    0.7939   20.1597 C   0  0  0  0  0  0  0  0  0  0  0  0
    4.8020    0.8517   21.1280 H   0  0  0  0  0  0  0  0  0  0  0  0
    9.8596    1.3934   22.7757 N   0  0  0  0  0  0  0  0  0  0  0  0
   10.1638    1.8053   24.0179 C   0  0  0  0  0  0  0  0  0  0  0  0
   10.6536    2.7707   24.1150 H   0  0  0  0  0  0  0  0  0  0  0  0
  1  2  1  0
  2  3  2  0
  3  4  1  0
  4  5  1  0
  4  6  2  0
  6  7  1  0
  7  8  1  6
  7  9  1  0
  9 10  1  0
  9 11  1  0
  9 12  1  0
 12 13  1  0
 12 14  1  0
 12 15  1  0
 15 16  1  1
 15 17  1  0
 17 18  2  0
 18 19  1  0
 18 20  1  0
 20 21  2  0
 21 22  1  0
 21 23  1  0
 23 24  1  0
 23 25  2  0
 25 26  1  0
  6 27  1  0
 27 28  2  0
 28 29  1  0
 28  2  1  0
 15  7  1  0
 25 17  1  0
M  END
>  <plip>  (1) 
-0.03571428571428571

>  <filename>  (1) 
[H][c]1[n][c]([H])[c]([C@@]2([H])[C]([H])([H])[C]([H])([H])[C@]2([H])[c]2[c]([H])[n][c]([H])[c]([H])[c]2[H])[n][c]1[H]

$$$$
