
     RDKit          3D

 30 32  0  0  0  0  0  0  0  0999 V2000
    8.5185   -3.3629   25.4340 H   0  0  0  0  0  0  0  0  0  0  0  0
    8.3524   -3.3537   24.4756 O   0  0  0  0  0  0  0  0  0  0  0  0
    7.9026   -2.0323   24.1758 C   0  0  2  0  0  0  0  0  0  0  0  0
    6.8336   -1.9279   24.4122 H   0  0  0  0  0  0  0  0  0  0  0  0
    7.9351   -1.6713   22.6878 C   0  0  0  0  0  0  0  0  0  0  0  0
    8.8963   -1.9429   21.8483 N   0  0  0  0  0  0  0  0  0  0  0  0
    8.5041   -1.2972   20.6867 O   0  0  0  0  0  0  0  0  0  0  0  0
    7.3346   -0.6932   20.9438 C   0  0  0  0  0  0  0  0  0  0  0  0
    6.6227    0.0339   19.8953 C   0  0  0  0  0  0  0  0  0  0  0  0
    7.1626    0.0540   18.6024 C   0  0  0  0  0  0  0  0  0  0  0  0
    8.1042   -0.4504   18.3971 H   0  0  0  0  0  0  0  0  0  0  0  0
    6.5807    0.6708   17.5713 N   0  0  0  0  0  0  0  0  0  0  0  0
    5.4224    1.3033   17.8046 C   0  0  0  0  0  0  0  0  0  0  0  0
    4.9745    1.8102   16.9502 H   0  0  0  0  0  0  0  0  0  0  0  0
    4.7967    1.3317   19.0574 C   0  0  0  0  0  0  0  0  0  0  0  0
    3.8582    1.8638   19.1673 H   0  0  0  0  0  0  0  0  0  0  0  0
    5.4013    0.6884   20.1342 C   0  0  0  0  0  0  0  0  0  0  0  0
    4.9483    0.7004   21.1308 H   0  0  0  0  0  0  0  0  0  0  0  0
    6.9406   -0.8740   22.1674 N   0  0  0  0  0  0  0  0  0  0  0  0
    8.6800   -0.9670   24.9468 C   0  0  0  0  0  0  0  0  0  0  0  0
    7.9828    0.0472   25.6259 C   0  0  0  0  0  0  0  0  0  0  0  0
    6.8976   -0.0179   25.7610 H   0  0  0  0  0  0  0  0  0  0  0  0
    8.6886    1.1433   26.1288 C   0  0  0  0  0  0  0  0  0  0  0  0
    8.1754    1.9479   26.6530 H   0  0  0  0  0  0  0  0  0  0  0  0
   10.0729    1.2119   25.9537 C   0  0  0  0  0  0  0  0  0  0  0  0
   10.5877    2.0862   26.3031 H   0  0  0  0  0  0  0  0  0  0  0  0
   10.7868    0.1742   25.3456 C   0  0  0  0  0  0  0  0  0  0  0  0
   11.8721    0.2198   25.2481 H   0  0  0  0  0  0  0  0  0  0  0  0
   10.0858   -0.9255   24.8480 C   0  0  0  0  0  0  0  0  0  0  0  0
   10.6165   -1.7467   24.3610 H   0  0  0  0  0  0  0  0  0  0  0  0
  1  2  1  0
  2  3  1  0
  3  4  1  1
  3  5  1  0
  5  6  2  0
  6  7  1  0
  7  8  1  0
  8  9  1  0
  9 10  2  0
 10 11  1  0
 10 12  1  0
 12 13  2  0
 13 14  1  0
 13 15  1  0
 15 16  1  0
 15 17  2  0
 17 18  1  0
  8 19  2  0
  3 20  1  0
 20 21  2  0
 21 22  1  0
 21 23  1  0
 23 24  1  0
 23 25  2  0
 25 26  1  0
 25 27  1  0
 27 28  1  0
 27 29  2  0
 29 30  1  0
 19  5  1  0
 29 20  1  0
 17  9  1  0
M  END
>  <plip>  (1) 
-0.06666666666666667

>  <filename>  (1) 
[H][O][C@]([H])([c]1[n][o][c](-[c]2[c]([H])[n][c]([H])[c]([H])[c]2[H])[n]1)[c]1[c]([H])[c]([H])[c]([H])[c]([H])[c]1[H]

$$$$
