
     RDKit          3D

 25 27  0  0  0  0  0  0  0  0999 V2000
    7.4223   -1.8038   27.4480 H   0  0  0  0  0  0  0  0  0  0  0  0
    7.8794   -2.0535   26.5006 C   0  0  0  0  0  0  0  0  0  0  0  0
    8.9509   -2.7816   26.1982 C   0  0  0  0  0  0  0  0  0  0  0  0
    9.6543   -3.3220   26.8164 H   0  0  0  0  0  0  0  0  0  0  0  0
    9.1386   -2.7834   24.7184 C   0  0  0  0  0  0  0  0  0  0  0  0
    9.9982   -3.3406   24.1028 O   0  0  0  0  0  0  0  0  0  0  0  0
    8.0817   -1.9952   24.2074 N   0  0  0  0  0  0  0  0  0  0  0  0
    7.9807   -1.5945   22.8767 N   0  0  0  0  0  0  0  0  0  0  0  0
    8.9323   -1.8706   21.9847 N   0  0  0  0  0  0  0  0  0  0  0  0
    8.5725   -1.3489   20.8613 N   0  0  0  0  0  0  0  0  0  0  0  0
    7.3645   -0.7156   21.0127 C   0  0  0  0  0  0  0  0  0  0  0  0
    6.6678   -0.0060   19.9251 C   0  0  0  0  0  0  0  0  0  0  0  0
    7.1848    0.0441   18.6147 C   0  0  0  0  0  0  0  0  0  0  0  0
    8.1332   -0.4320   18.3701 H   0  0  0  0  0  0  0  0  0  0  0  0
    6.5738    0.6626   17.5980 N   0  0  0  0  0  0  0  0  0  0  0  0
    5.4096    1.2839   17.8402 C   0  0  0  0  0  0  0  0  0  0  0  0
    4.9384    1.7844   16.9941 H   0  0  0  0  0  0  0  0  0  0  0  0
    4.8154    1.3042   19.1027 C   0  0  0  0  0  0  0  0  0  0  0  0
    3.8850    1.8346   19.2483 H   0  0  0  0  0  0  0  0  0  0  0  0
    5.4452    0.6496   20.1566 C   0  0  0  0  0  0  0  0  0  0  0  0
    4.9911    0.6545   21.1473 H   0  0  0  0  0  0  0  0  0  0  0  0
    6.9812   -0.8801   22.3170 C   0  0  0  0  0  0  0  0  0  0  0  0
    6.1491   -0.5692   22.9201 H   0  0  0  0  0  0  0  0  0  0  0  0
    7.2820   -1.5212   25.2447 C   0  0  0  0  0  0  0  0  0  0  0  0
    6.3021   -0.8192   25.1433 O   0  0  0  0  0  0  0  0  0  0  0  0
  1  2  1  0
  2  3  2  0
  3  4  1  0
  3  5  1  0
  5  6  2  0
  5  7  1  0
  7  8  1  0
  8  9  1  0
  9 10  2  0
 10 11  1  0
 11 12  1  0
 12 13  2  0
 13 14  1  0
 13 15  1  0
 15 16  2  0
 16 17  1  0
 16 18  1  0
 18 19  1  0
 18 20  2  0
 20 21  1  0
 11 22  2  0
 22 23  1  0
  7 24  1  0
 24 25  2  0
 24  2  1  0
 22  8  1  0
 20 12  1  0
M  END
>  <plip>  (1) 
-0.034482758620689655

>  <filename>  (1) 
[H][C]1=[C]([H])[C](=[O])[N]([n]2[n][n][c](-[c]3[c]([H])[n][c]([H])[c]([H])[c]3[H])[c]2[H])[C]1=[O]

$$$$
