
     RDKit          3D

 36 37  0  0  0  0  0  0  0  0999 V2000
    8.6742   -2.9477   26.9086 C   0  0  0  0  0  0  0  0  0  0  0  0
    8.5431   -2.3454   25.6147 O   0  0  0  0  0  0  0  0  0  0  0  0
    7.5867   -1.4256   25.4339 C   0  0  0  0  0  0  0  0  0  0  0  0
    6.5008   -1.4734   26.1949 N   0  0  0  0  0  0  0  0  0  0  0  0
    5.5440   -0.5988   25.9044 C   0  0  0  0  0  0  0  0  0  0  0  0
    5.6848    0.3625   24.9187 C   0  0  0  0  0  0  0  0  0  0  0  0
    6.9105    0.3930   24.2300 C   0  0  0  0  0  0  0  0  0  0  0  0
    7.1386    1.6113   23.2425 C   0  0  0  0  0  0  0  0  0  0  0  0
    6.4595    2.6188   23.4070 O   0  0  0  0  0  0  0  0  0  0  0  0
    8.0748    1.5476   22.2241 N   0  0  0  0  0  0  0  0  0  0  0  0
    8.3049    2.7866   21.4690 C   0  0  0  0  0  0  0  0  0  0  0  0
    8.9904    3.4688   21.9872 H   0  0  0  0  0  0  0  0  0  0  0  0
    7.3498    3.3017   21.3248 H   0  0  0  0  0  0  0  0  0  0  0  0
    8.7312    2.5481   20.4933 H   0  0  0  0  0  0  0  0  0  0  0  0
    8.5683    0.2794   21.6730 C   0  0  0  0  0  0  0  0  0  0  0  0
    7.4811   -0.6155   21.0321 C   0  0  0  0  0  0  0  0  0  0  0  0
    6.7170    0.0212   19.8830 C   0  0  0  0  0  0  0  0  0  0  0  0
    5.4979    0.6831   20.0962 C   0  0  0  0  0  0  0  0  0  0  0  0
    4.8728    1.3335   19.0274 C   0  0  0  0  0  0  0  0  0  0  0  0
    5.4838    1.2981   17.7728 C   0  0  0  0  0  0  0  0  0  0  0  0
    6.6286    0.6433   17.5271 N   0  0  0  0  0  0  0  0  0  0  0  0
    7.2111    0.0220   18.5627 C   0  0  0  0  0  0  0  0  0  0  0  0
    8.1237   -0.5223   18.3140 H   0  0  0  0  0  0  0  0  0  0  0  0
    5.0343    1.8105   16.9227 H   0  0  0  0  0  0  0  0  0  0  0  0
    3.9379    1.8723   19.1538 H   0  0  0  0  0  0  0  0  0  0  0  0
    5.0518    0.6815   21.0937 H   0  0  0  0  0  0  0  0  0  0  0  0
    6.7862   -0.9347   21.8201 H   0  0  0  0  0  0  0  0  0  0  0  0
    7.9792   -1.5284   20.6799 H   0  0  0  0  0  0  0  0  0  0  0  0
    9.0755   -0.2873   22.4583 H   0  0  0  0  0  0  0  0  0  0  0  0
    9.3305    0.5146   20.9183 H   0  0  0  0  0  0  0  0  0  0  0  0
    7.8320   -0.5607   24.4515 N   0  0  0  0  0  0  0  0  0  0  0  0
    4.9104    1.0758   24.6906 H   0  0  0  0  0  0  0  0  0  0  0  0
    4.6307   -0.6494   26.4982 H   0  0  0  0  0  0  0  0  0  0  0  0
    7.7866   -3.5301   27.1927 H   0  0  0  0  0  0  0  0  0  0  0  0
    9.5447   -3.6043   26.8238 H   0  0  0  0  0  0  0  0  0  0  0  0
    8.8572   -2.1790   27.6727 H   0  0  0  0  0  0  0  0  0  0  0  0
  1  2  1  0
  2  3  1  0
  3  4  2  0
  4  5  1  0
  5  6  2  0
  6  7  1  0
  7  8  1  0
  8  9  2  0
  8 10  1  0
 10 11  1  0
 11 12  1  0
 11 13  1  0
 11 14  1  0
 10 15  1  0
 15 16  1  0
 16 17  1  0
 17 18  2  0
 18 19  1  0
 19 20  2  0
 20 21  1  0
 21 22  2  0
 22 23  1  0
 20 24  1  0
 19 25  1  0
 18 26  1  0
 16 27  1  0
 16 28  1  0
 15 29  1  0
 15 30  1  0
  7 31  2  0
  6 32  1  0
  5 33  1  0
  1 34  1  0
  1 35  1  0
  1 36  1  0
 31  3  1  0
 22 17  1  0
M  END
>  <plip>  (1) 
-0.03571428571428571

>  <filename>  (1) 
[H][c]1[n][c]([O][C]([H])([H])[H])[n][c]([C](=[O])[N]([C]([H])([H])[H])[C]([H])([H])[C]([H])([H])[c]2[c]([H])[n][c]([H])[c]([H])[c]2[H])[c]1[H]

$$$$
