
     RDKit          3D

 34 35  0  0  0  0  0  0  0  0999 V2000
    5.0697    1.7696   16.7147 H   0  0  0  0  0  0  0  0  0  0  0  0
    5.4980    1.3288   17.6137 C   0  0  0  0  0  0  0  0  0  0  0  0
    6.6528    0.6666   17.4681 N   0  0  0  0  0  0  0  0  0  0  0  0
    7.2128    0.1540   18.5764 C   0  0  0  0  0  0  0  0  0  0  0  0
    8.1838   -0.3085   18.4193 H   0  0  0  0  0  0  0  0  0  0  0  0
    6.6598    0.2157   19.8630 C   0  0  0  0  0  0  0  0  0  0  0  0
    7.3285   -0.3960   21.1013 C   0  0  0  0  0  0  0  0  0  0  0  0
    6.3226   -1.2593   21.7416 N   0  0  0  0  0  0  0  0  0  0  0  0
    5.3841   -1.2567   21.3635 H   0  0  0  0  0  0  0  0  0  0  0  0
    6.5411   -1.9112   22.8801 C   0  0  0  0  0  0  0  0  0  0  0  0
    6.6440   -2.4464   23.9609 C   0  0  0  0  0  0  0  0  0  0  0  0
    7.0296   -3.0425   25.2083 C   0  0  0  0  0  0  0  0  0  0  0  0
    8.3107   -2.7367   25.7027 C   0  0  0  0  0  0  0  0  0  0  0  0
    8.9100   -2.0256   25.1451 H   0  0  0  0  0  0  0  0  0  0  0  0
    8.7950   -3.3572   26.8534 C   0  0  0  0  0  0  0  0  0  0  0  0
    9.7867   -3.1157   27.2212 H   0  0  0  0  0  0  0  0  0  0  0  0
    7.9962   -4.2946   27.5151 C   0  0  0  0  0  0  0  0  0  0  0  0
    8.3930   -4.8052   28.3841 H   0  0  0  0  0  0  0  0  0  0  0  0
    6.7032   -4.5846   27.0589 C   0  0  0  0  0  0  0  0  0  0  0  0
    6.0966   -5.3242   27.5818 H   0  0  0  0  0  0  0  0  0  0  0  0
    6.2130   -3.9451   25.9141 C   0  0  0  0  0  0  0  0  0  0  0  0
    5.2054   -4.1366   25.5623 H   0  0  0  0  0  0  0  0  0  0  0  0
    7.7523    0.7104   22.0907 C   0  0  0  0  0  0  0  0  0  0  0  0
    8.5151    1.3538   21.6405 H   0  0  0  0  0  0  0  0  0  0  0  0
    8.1741    0.2440   22.9867 H   0  0  0  0  0  0  0  0  0  0  0  0
    6.9025    1.3298   22.3954 H   0  0  0  0  0  0  0  0  0  0  0  0
    8.5646   -1.2654   20.8054 C   0  0  0  0  0  0  0  0  0  0  0  0
    9.2839   -0.7434   20.1692 H   0  0  0  0  0  0  0  0  0  0  0  0
    8.2638   -2.2047   20.3403 H   0  0  0  0  0  0  0  0  0  0  0  0
    9.0662   -1.5095   21.7474 H   0  0  0  0  0  0  0  0  0  0  0  0
    5.4599    0.9429   19.9853 C   0  0  0  0  0  0  0  0  0  0  0  0
    5.0122    1.1096   20.9671 H   0  0  0  0  0  0  0  0  0  0  0  0
    4.8666    1.4975   18.8507 C   0  0  0  0  0  0  0  0  0  0  0  0
    3.9399    2.0610   18.9199 H   0  0  0  0  0  0  0  0  0  0  0  0
  1  2  1  0
  2  3  2  0
  3  4  1  0
  4  5  1  0
  4  6  2  0
  6  7  1  0
  7  8  1  0
  8  9  1  0
  8 10  1  0
 10 11  3  0
 11 12  1  0
 12 13  2  0
 13 14  1  0
 13 15  1  0
 15 16  1  0
 15 17  2  0
 17 18  1  0
 17 19  1  0
 19 20  1  0
 19 21  2  0
 21 22  1  0
  7 23  1  0
 23 24  1  0
 23 25  1  0
 23 26  1  0
  7 27  1  0
 27 28  1  0
 27 29  1  0
 27 30  1  0
  6 31  1  0
 31 32  1  0
 31 33  2  0
 33 34  1  0
 33  2  1  0
 21 12  1  0
M  END
>  <plip>  (1) 
-0.07142857142857142

>  <filename>  (1) 
[H][c]1[n][c]([H])[c]([C]([N]([H])[C]#[C][c]2[c]([H])[c]([H])[c]([H])[c]([H])[c]2[H])([C]([H])([H])[H])[C]([H])([H])[H])[c]([H])[c]1[H]

$$$$
