
     RDKit          3D

 40 42  0  0  0  0  0  0  0  0999 V2000
    5.2853   -4.7134   29.4033 C   0  0  0  0  0  0  0  0  0  0  0  0
    6.3841   -4.5272   28.3906 C   0  0  0  0  0  0  0  0  0  0  0  0
    6.3826   -3.6966   27.2874 C   0  0  0  0  0  0  0  0  0  0  0  0
    7.6174   -3.7589   26.7224 N   0  0  0  0  0  0  0  0  0  0  0  0
    8.0787   -3.0483   25.5216 C   0  0  0  0  0  0  0  0  0  0  0  0
    8.0200   -1.5128   25.6990 C   0  0  0  0  0  0  0  0  0  0  0  0
    8.4969   -0.7886   24.4382 C   0  0  0  0  0  0  0  0  0  0  0  0
    7.7908   -1.2429   23.2308 N   0  0  0  0  0  0  0  0  0  0  0  0
    7.3487   -0.2787   22.3314 C   0  0  0  0  0  0  0  0  0  0  0  0
    7.0878    0.8618   22.6692 O   0  0  0  0  0  0  0  0  0  0  0  0
    7.2715   -0.7225   21.0090 N   0  0  0  0  0  0  0  0  0  0  0  0
    6.6647   -0.0183   19.9304 C   0  0  0  0  0  0  0  0  0  0  0  0
    5.4555    0.6510   20.1661 C   0  0  0  0  0  0  0  0  0  0  0  0
    4.8160    1.3013   19.1073 C   0  0  0  0  0  0  0  0  0  0  0  0
    5.4139    1.2809   17.8430 C   0  0  0  0  0  0  0  0  0  0  0  0
    6.5781    0.6572   17.5952 N   0  0  0  0  0  0  0  0  0  0  0  0
    7.1848    0.0277   18.6120 C   0  0  0  0  0  0  0  0  0  0  0  0
    8.1344   -0.4468   18.3660 H   0  0  0  0  0  0  0  0  0  0  0  0
    4.9488    1.7865   17.0000 H   0  0  0  0  0  0  0  0  0  0  0  0
    3.8787    1.8344   19.2528 H   0  0  0  0  0  0  0  0  0  0  0  0
    5.0575    0.6499   21.1775 H   0  0  0  0  0  0  0  0  0  0  0  0
    7.9365   -1.4498   20.8112 H   0  0  0  0  0  0  0  0  0  0  0  0
    7.7228   -2.6937   23.0191 C   0  0  0  0  0  0  0  0  0  0  0  0
    7.2445   -3.4271   24.2770 C   0  0  0  0  0  0  0  0  0  0  0  0
    6.1914   -3.1736   24.4713 H   0  0  0  0  0  0  0  0  0  0  0  0
    7.3018   -4.5077   24.1025 H   0  0  0  0  0  0  0  0  0  0  0  0
    8.7103   -3.0899   22.7276 H   0  0  0  0  0  0  0  0  0  0  0  0
    7.0182   -2.9137   22.2083 H   0  0  0  0  0  0  0  0  0  0  0  0
    9.5845   -0.9434   24.3211 H   0  0  0  0  0  0  0  0  0  0  0  0
    8.3204    0.2876   24.5480 H   0  0  0  0  0  0  0  0  0  0  0  0
    8.6484   -1.2104   26.5468 H   0  0  0  0  0  0  0  0  0  0  0  0
    6.9834   -1.2224   25.9335 H   0  0  0  0  0  0  0  0  0  0  0  0
    9.1232   -3.3715   25.3915 H   0  0  0  0  0  0  0  0  0  0  0  0
    8.4275   -4.5897   27.3915 N   0  0  0  0  0  0  0  0  0  0  0  0
    7.6938   -5.0620   28.3885 C   0  0  0  0  0  0  0  0  0  0  0  0
    8.1451   -5.7662   29.0792 H   0  0  0  0  0  0  0  0  0  0  0  0
    5.6081   -3.0665   26.8624 H   0  0  0  0  0  0  0  0  0  0  0  0
    4.2928   -4.6195   28.9461 H   0  0  0  0  0  0  0  0  0  0  0  0
    5.3410   -3.9607   30.2036 H   0  0  0  0  0  0  0  0  0  0  0  0
    5.3397   -5.6971   29.8825 H   0  0  0  0  0  0  0  0  0  0  0  0
  1  2  1  0
  2  3  2  0
  3  4  1  0
  4  5  1  0
  5  6  1  0
  6  7  1  0
  7  8  1  0
  8  9  1  0
  9 10  2  0
  9 11  1  0
 11 12  1  0
 12 13  2  0
 13 14  1  0
 14 15  2  0
 15 16  1  0
 16 17  2  0
 17 18  1  0
 15 19  1  0
 14 20  1  0
 13 21  1  0
 11 22  1  0
  8 23  1  0
 23 24  1  0
 24 25  1  0
 24 26  1  0
 23 27  1  0
 23 28  1  0
  7 29  1  0
  7 30  1  0
  6 31  1  0
  6 32  1  0
  5 33  1  0
  4 34  1  0
 34 35  2  0
 35 36  1  0
  3 37  1  0
  1 38  1  0
  1 39  1  0
  1 40  1  0
 35  2  1  0
 24  5  1  0
 17 12  1  0
M  END
>  <plip>  (1) 
-0.03571428571428571

>  <filename>  (1) 
[H][c]1[n][c]([H])[c]([N]([H])[C](=[O])[N]2[C]([H])([H])[C]([H])([H])[C]([H])([n]3[n][c]([H])[c]([C]([H])([H])[H])[c]3[H])[C]([H])([H])[C]2([H])[H])[c]([H])[c]1[H]

$$$$
