
     RDKit          3D

 39 41  0  0  0  0  0  0  0  0999 V2000
    5.0678    1.7815   16.8989 H   0  0  0  0  0  0  0  0  0  0  0  0
    5.5509    1.2725   17.7318 C   0  0  0  0  0  0  0  0  0  0  0  0
    6.6851    0.6171   17.4482 N   0  0  0  0  0  0  0  0  0  0  0  0
    7.2979   -0.0089   18.4622 C   0  0  0  0  0  0  0  0  0  0  0  0
    8.2204   -0.5319   18.2047 H   0  0  0  0  0  0  0  0  0  0  0  0
    6.8330   -0.0217   19.7850 C   0  0  0  0  0  0  0  0  0  0  0  0
    7.5666   -0.7906   20.8662 C   0  0  0  0  0  0  0  0  0  0  0  0
    7.8507   -0.1210   21.6850 H   0  0  0  0  0  0  0  0  0  0  0  0
    8.4953   -1.2192   20.4658 H   0  0  0  0  0  0  0  0  0  0  0  0
    6.7384   -1.8638   21.4223 N   0  0  0  0  0  0  0  0  0  0  0  0
    5.9423   -2.7234   20.7089 C   0  0  0  0  0  0  0  0  0  0  0  0
    5.9025   -2.7097   19.6253 H   0  0  0  0  0  0  0  0  0  0  0  0
    5.2423   -3.4874   21.4930 N   0  0  0  0  0  0  0  0  0  0  0  0
    5.5597   -3.1310   22.7902 N   0  0  0  0  0  0  0  0  0  0  0  0
    6.4443   -2.1836   22.7200 C   0  0  0  0  0  0  0  0  0  0  0  0
    7.1227   -1.5918   23.7606 O   0  0  0  0  0  0  0  0  0  0  0  0
    6.4911   -0.7066   24.5135 C   0  0  0  0  0  0  0  0  0  0  0  0
    5.5038   -0.4310   24.2374 H   0  0  0  0  0  0  0  0  0  0  0  0
    7.0366   -0.2572   25.7572 C   0  0  0  0  0  0  0  0  0  0  0  0
    7.8025    0.5230   25.6436 H   0  0  0  0  0  0  0  0  0  0  0  0
    7.5141   -1.1051   26.2619 H   0  0  0  0  0  0  0  0  0  0  0  0
    5.8652    0.2606   26.6563 C   0  0  0  0  0  0  0  0  0  0  0  0
    5.2927    1.0025   26.0796 H   0  0  0  0  0  0  0  0  0  0  0  0
    6.2311    0.7491   27.5662 H   0  0  0  0  0  0  0  0  0  0  0  0
    4.9368   -0.8664   27.0503 N   0  0  0  0  0  0  0  0  0  0  0  0
    5.0772   -1.2580   28.4613 C   0  0  0  0  0  0  0  0  0  0  0  0
    4.3267   -1.9933   28.8181 H   0  0  0  0  0  0  0  0  0  0  0  0
    4.9065   -0.3496   29.0485 H   0  0  0  0  0  0  0  0  0  0  0  0
    6.0817   -1.6356   28.7271 H   0  0  0  0  0  0  0  0  0  0  0  0
    4.7062   -1.7607   25.8776 C   0  0  0  0  0  0  0  0  0  0  0  0
    5.7708   -2.3527   26.1336 H   0  0  0  0  0  0  0  0  0  0  0  0
    3.4850   -2.8480   26.6885 H   0  0  0  0  0  0  0  0  0  0  0  0
    4.5646   -1.8726   26.0045 C   0  0  0  0  0  0  0  0  0  0  0  0
    4.6419   -2.3879   24.7949 H   0  0  0  0  0  0  0  0  0  0  0  0
    3.9404   -1.0212   25.2552 H   0  0  0  0  0  0  0  0  0  0  0  0
    5.6392    0.6619   20.0572 C   0  0  0  0  0  0  0  0  0  0  0  0
    5.2243    0.6684   21.0677 H   0  0  0  0  0  0  0  0  0  0  0  0
    4.9896    1.3190   19.0110 C   0  0  0  0  0  0  0  0  0  0  0  0
    4.0688    1.8676   19.1744 H   0  0  0  0  0  0  0  0  0  0  0  0
  1  2  1  0
  2  3  2  0
  3  4  1  0
  4  5  1  0
  4  6  2  0
  6  7  1  0
  7  8  1  0
  7  9  1  0
  7 10  1  0
 10 11  1  0
 11 12  1  0
 11 13  2  0
 13 14  1  0
 14 15  2  0
 15 16  1  0
 16 17  1  0
 17 18  1  0
 17 19  1  0
 19 20  1  0
 19 21  1  0
 19 22  1  0
 22 23  1  0
 22 24  1  0
 22 25  1  0
 25 26  1  0
 26 27  1  0
 26 28  1  0
 26 29  1  0
 25 30  1  0
 30 31  1  0
 30 32  1  0
 30 33  1  0
 33 34  1  0
 33 35  1  0
  6 36  1  0
 36 37  1  0
 36 38  2  0
 38 39  1  0
 38  2  1  0
 15 10  1  0
 33 17  1  0
M  END
>  <plip>  (1) 
-0.07142857142857142

>  <filename>  (1) 
[H][c]1[n][c]([H])[c]([C]([H])([H])[n]2[c]([H])[n][n][c]2[O][C]2([H])[C]([H])([H])[C]([H])([H])[N]([C]([H])([H])[H])[C]([H])([H])[C]2([H])[H])[c]([H])[c]1[H]

$$$$
