
     RDKit          3D

 24 25  0  0  0  0  0  0  0  0999 V2000
    8.4869    0.2178   20.2019 H   0  0  0  0  0  0  0  0  0  0  0  0
    7.9793   -0.5838   20.7188 C   0  0  0  0  0  0  0  0  0  0  0  0
    6.6707   -0.6795   20.4471 C   0  0  0  0  0  0  0  0  0  0  0  0
    5.6062   -1.7933   21.2208 Cl  0  0  0  0  0  0  0  0  0  0  0  0
    6.0273    0.1584   19.4082 C   0  0  0  0  0  0  0  0  0  0  0  0
    6.6399    0.2255   18.1462 C   0  0  0  0  0  0  0  0  0  0  0  0
    7.5407   -0.3558   17.9604 H   0  0  0  0  0  0  0  0  0  0  0  0
    6.1969    0.9667   17.1299 N   0  0  0  0  0  0  0  0  0  0  0  0
    5.1014    1.7078   17.3533 C   0  0  0  0  0  0  0  0  0  0  0  0
    4.7887    2.3325   16.5211 H   0  0  0  0  0  0  0  0  0  0  0  0
    4.3858    1.6921   18.5574 C   0  0  0  0  0  0  0  0  0  0  0  0
    3.5025    2.3180   18.6520 H   0  0  0  0  0  0  0  0  0  0  0  0
    4.8446    0.8942   19.6086 C   0  0  0  0  0  0  0  0  0  0  0  0
    4.3295    0.8877   20.5700 H   0  0  0  0  0  0  0  0  0  0  0  0
    8.8434   -1.3544   21.6111 C   0  0  0  0  0  0  0  0  0  0  0  0
    8.3690   -2.4790   22.1711 N   0  0  0  0  0  0  0  0  0  0  0  0
    9.1624   -3.1884   22.9775 C   0  0  0  0  0  0  0  0  0  0  0  0
    8.7642   -4.0855   23.4490 H   0  0  0  0  0  0  0  0  0  0  0  0
   10.4795   -2.8119   23.2403 C   0  0  0  0  0  0  0  0  0  0  0  0
   11.2307   -3.5547   24.0651 F   0  0  0  0  0  0  0  0  0  0  0  0
   11.0045   -1.6621   22.6637 C   0  0  0  0  0  0  0  0  0  0  0  0
   12.0351   -1.3726   22.8561 H   0  0  0  0  0  0  0  0  0  0  0  0
   10.1637   -0.9136   21.8493 C   0  0  0  0  0  0  0  0  0  0  0  0
   10.5089    0.0173   21.4164 H   0  0  0  0  0  0  0  0  0  0  0  0
  1  2  1  0
  2  3  2  3
  3  4  1  0
  3  5  1  0
  5  6  2  0
  6  7  1  0
  6  8  1  0
  8  9  2  0
  9 10  1  0
  9 11  1  0
 11 12  1  0
 11 13  2  0
 13 14  1  0
  2 15  1  0
 15 16  2  0
 16 17  1  0
 17 18  1  0
 17 19  2  0
 19 20  1  0
 19 21  1  0
 21 22  1  0
 21 23  2  0
 23 24  1  0
 13  5  1  0
 23 15  1  0
M  END
>  <plip>  (1) 
-0.06666666666666667

>  <filename>  (1) 
[H][C](=[C]([Cl])[c]1[c]([H])[n][c]([H])[c]([H])[c]1[H])[c]1[n][c]([H])[c]([F])[c]([H])[c]1[H]

$$$$
