
     RDKit          3D

 30 31  0  0  0  0  0  0  0  0999 V2000
    5.0109    1.7449   17.0445 H   0  0  0  0  0  0  0  0  0  0  0  0
    5.5149    1.2579   17.8737 C   0  0  0  0  0  0  0  0  0  0  0  0
    6.6920    0.6785   17.5845 N   0  0  0  0  0  0  0  0  0  0  0  0
    7.3392    0.0591   18.5791 C   0  0  0  0  0  0  0  0  0  0  0  0
    8.3035   -0.3987   18.3565 H   0  0  0  0  0  0  0  0  0  0  0  0
    6.8228   -0.0315   19.8900 C   0  0  0  0  0  0  0  0  0  0  0  0
    7.4748   -0.7859   20.9223 N   0  0  0  0  0  0  0  0  0  0  0  0
    6.8403   -1.7304   21.7326 C   0  0  0  0  0  0  0  0  0  0  0  0
    5.7390   -2.1846   21.5735 O   0  0  0  0  0  0  0  0  0  0  0  0
    7.9515   -2.0687   22.7734 C   0  0  0  0  0  0  0  0  0  0  0  0
    7.8897   -2.4166   23.9160 O   0  0  0  0  0  0  0  0  0  0  0  0
    9.1132   -1.7461   22.0843 N   0  0  0  0  0  0  0  0  0  0  0  0
   10.5712   -1.6835   22.8659 S   0  0  0  0  0  0  0  0  0  0  0  0
   10.6019   -2.8544   23.6980 O   0  0  0  0  0  0  0  0  0  0  0  0
   11.5584   -1.4011   21.8568 O   0  0  0  0  0  0  0  0  0  0  0  0
   10.4286   -0.3641   23.8264 N   0  0  0  0  0  0  0  0  0  0  0  0
    9.8390   -0.5010   25.1545 C   0  0  0  0  0  0  0  0  0  0  0  0
    9.8752   -1.5413   25.4831 H   0  0  0  0  0  0  0  0  0  0  0  0
   10.3990    0.0977   25.8863 H   0  0  0  0  0  0  0  0  0  0  0  0
    8.7937   -0.1752   25.1471 H   0  0  0  0  0  0  0  0  0  0  0  0
   10.8912    0.9390   23.3585 C   0  0  0  0  0  0  0  0  0  0  0  0
   11.3391    1.5030   24.1879 H   0  0  0  0  0  0  0  0  0  0  0  0
   11.6571    0.8118   22.5901 H   0  0  0  0  0  0  0  0  0  0  0  0
   10.0645    1.5124   22.9265 H   0  0  0  0  0  0  0  0  0  0  0  0
    8.8079   -0.6808   21.2793 C   0  0  0  0  0  0  0  0  0  0  0  0
    9.5481    0.2081   20.9618 O   0  0  0  0  0  0  0  0  0  0  0  0
    5.6110    0.5955   20.1833 C   0  0  0  0  0  0  0  0  0  0  0  0
    5.2246    0.5487   21.2000 H   0  0  0  0  0  0  0  0  0  0  0  0
    4.9443    1.2561   19.1510 C   0  0  0  0  0  0  0  0  0  0  0  0
    4.0036    1.7617   19.3298 H   0  0  0  0  0  0  0  0  0  0  0  0
  1  2  1  0
  2  3  2  0
  3  4  1  0
  4  5  1  0
  4  6  2  0
  6  7  1  0
  7  8  1  0
  8  9  2  0
  8 10  1  0
 10 11  2  0
 10 12  1  0
 12 13  1  0
 13 14  2  0
 13 15  2  0
 13 16  1  0
 16 17  1  0
 17 18  1  0
 17 19  1  0
 17 20  1  0
 16 21  1  0
 21 22  1  0
 21 23  1  0
 21 24  1  0
 12 25  1  0
 25 26  2  0
  6 27  1  0
 27 28  1  0
 27 29  2  0
 29 30  1  0
 29  2  1  0
 25  7  1  0
M  END
>  <plip>  (1) 
-0.10714285714285714

>  <filename>  (1) 
[H][c]1[n][c]([H])[c]([N]2[C](=[O])[C](=[O])[N]([S](=[O])(=[O])[N]([C]([H])([H])[H])[C]([H])([H])[H])[C]2=[O])[c]([H])[c]1[H]

$$$$
