
     RDKit          3D

 52 54  0  0  0  0  0  0  0  0999 V2000
    7.7696    3.7575   22.5574 C   0  0  0  0  0  0  0  0  0  0  0  0
    8.3647    2.7332   23.5165 C   0  0  0  0  0  0  0  0  0  0  0  0
    9.1160    3.2870   24.7393 C   0  0  0  0  0  0  0  0  0  0  0  0
   10.2722    4.1852   24.3644 C   0  0  0  0  0  0  0  0  0  0  0  0
    9.9985    5.5139   23.9832 C   0  0  0  0  0  0  0  0  0  0  0  0
   10.9785    6.3182   23.4062 C   0  0  0  0  0  0  0  0  0  0  0  0
   12.2852    5.8411   23.2426 C   0  0  0  0  0  0  0  0  0  0  0  0
   12.5947    4.5412   23.6413 C   0  0  0  0  0  0  0  0  0  0  0  0
   11.5978    3.7313   24.1943 C   0  0  0  0  0  0  0  0  0  0  0  0
   12.0560    2.0674   24.5488 Cl  0  0  0  0  0  0  0  0  0  0  0  0
   13.5847    4.1164   23.4979 H   0  0  0  0  0  0  0  0  0  0  0  0
   13.0643    6.4620   22.7991 H   0  0  0  0  0  0  0  0  0  0  0  0
   10.6804    7.3032   23.0790 H   0  0  0  0  0  0  0  0  0  0  0  0
    8.9809    5.9010   24.0822 H   0  0  0  0  0  0  0  0  0  0  0  0
    9.4763    2.4236   25.3082 H   0  0  0  0  0  0  0  0  0  0  0  0
    8.4249    3.8138   25.4049 H   0  0  0  0  0  0  0  0  0  0  0  0
    9.3881    1.8794   22.7936 N   0  0  0  0  0  4  0  0  0  0  0  0
    8.9644    1.0044   21.6919 C   0  0  0  0  0  0  0  0  0  0  0  0
    7.8212    0.0747   22.0927 C   0  0  2  0  0  0  0  0  0  0  0  0
    8.0888   -0.9175   23.2326 C   0  0  0  0  0  0  0  0  0  0  0  0
    7.1089   -2.0895   23.0036 C   0  0  0  0  0  0  0  0  0  0  0  0
    6.5630   -1.8719   21.6099 N   0  0  0  0  0  4  0  0  0  0  0  0
    6.3791   -3.0927   20.7939 C   0  0  0  0  0  0  0  0  0  0  0  0
    7.3280   -3.6415   20.7142 H   0  0  0  0  0  0  0  0  0  0  0  0
    5.6353   -3.7721   21.2244 H   0  0  0  0  0  0  0  0  0  0  0  0
    6.0863   -2.8219   19.7753 H   0  0  0  0  0  0  0  0  0  0  0  0
    7.4188   -0.8199   20.9325 C   0  0  1  0  0  0  0  0  0  0  0  0
    6.6632   -0.1151   19.8396 C   0  0  0  0  0  0  0  0  0  0  0  0
    5.4575    0.5682   20.0752 C   0  0  0  0  0  0  0  0  0  0  0  0
    4.8799    1.2809   19.0268 C   0  0  0  0  0  0  0  0  0  0  0  0
    5.5117    1.2814   17.7793 C   0  0  0  0  0  0  0  0  0  0  0  0
    6.6477    0.6161   17.5295 N   0  0  0  0  0  0  0  0  0  0  0  0
    7.1973   -0.0595   18.5464 C   0  0  0  0  0  0  0  0  0  0  0  0
    8.1341   -0.5708   18.3196 H   0  0  0  0  0  0  0  0  0  0  0  0
    5.0850    1.8415   16.9490 H   0  0  0  0  0  0  0  0  0  0  0  0
    3.9674    1.8510   19.1643 H   0  0  0  0  0  0  0  0  0  0  0  0
    4.9890    0.5770   21.0642 H   0  0  0  0  0  0  0  0  0  0  0  0
    8.3154   -1.3173   20.5337 H   0  0  0  0  0  0  0  0  0  0  0  0
    5.6471   -1.3731   21.7013 H   0  0  0  0  0  0  0  0  0  0  0  0
    6.2832   -2.1252   23.7242 H   0  0  0  0  0  0  0  0  0  0  0  0
    7.6286   -3.0529   23.0541 H   0  0  0  0  0  0  0  0  0  0  0  0
    7.9762   -0.4690   24.2274 H   0  0  0  0  0  0  0  0  0  0  0  0
    9.1179   -1.2928   23.1647 H   0  0  0  0  0  0  0  0  0  0  0  0
    6.9573    0.6984   22.3628 H   0  0  0  0  0  0  0  0  0  0  0  0
    9.8221    0.3991   21.3699 H   0  0  0  0  0  0  0  0  0  0  0  0
    8.6668    1.5942   20.8141 H   0  0  0  0  0  0  0  0  0  0  0  0
   10.1174    2.5650   22.4827 H   0  0  0  0  0  0  0  0  0  0  0  0
    9.8681    1.2852   23.5003 H   0  0  0  0  0  0  0  0  0  0  0  0
    7.5494    2.1040   23.8942 H   0  0  0  0  0  0  0  0  0  0  0  0
    8.5389    4.3911   22.1070 H   0  0  0  0  0  0  0  0  0  0  0  0
    7.0425    4.4084   23.0496 H   0  0  0  0  0  0  0  0  0  0  0  0
    7.2657    3.2506   21.7318 H   0  0  0  0  0  0  0  0  0  0  0  0
  1  2  1  0
  2  3  1  0
  3  4  1  0
  4  5  2  0
  5  6  1  0
  6  7  2  0
  7  8  1  0
  8  9  2  0
  9 10  1  0
  8 11  1  0
  7 12  1  0
  6 13  1  0
  5 14  1  0
  3 15  1  0
  3 16  1  0
  2 17  1  0
 17 18  1  0
 18 19  1  0
 19 20  1  0
 20 21  1  0
 21 22  1  0
 22 23  1  0
 23 24  1  0
 23 25  1  0
 23 26  1  0
 22 27  1  0
 27 28  1  0
 28 29  2  0
 29 30  1  0
 30 31  2  0
 31 32  1  0
 32 33  2  0
 33 34  1  0
 31 35  1  0
 30 36  1  0
 29 37  1  0
 27 38  1  6
 22 39  1  0
 21 40  1  0
 21 41  1  0
 20 42  1  0
 20 43  1  0
 19 44  1  1
 18 45  1  0
 18 46  1  0
 17 47  1  0
 17 48  1  0
  2 49  1  0
  1 50  1  0
  1 51  1  0
  1 52  1  0
  9  4  1  0
 27 19  1  0
 33 28  1  0
M  CHG  2  17   1  22   1
M  END
>  <plip>  (1) 
-0.14285714285714285

>  <filename>  (1) 
[H][c]1[n][c]([H])[c]([C@@]2([H])[C@]([H])([C]([H])([H])[N+]([H])([H])[C]([H])([C]([H])([H])[H])[C]([H])([H])[c]3[c]([H])[c]([H])[c]([H])[c]([H])[c]3[Cl])[C]([H])([H])[C]([H])([H])[N+]2([H])[C]([H])([H])[H])[c]([H])[c]1[H]

$$$$
