
     RDKit          3D

 21 22  0  0  0  0  0  0  0  0999 V2000
    4.9406    1.7726   17.0051 H   0  0  0  0  0  0  0  0  0  0  0  0
    5.4145    1.2795   17.8543 C   0  0  0  0  0  0  0  0  0  0  0  0
    6.5766    0.6582   17.6081 N   0  0  0  0  0  0  0  0  0  0  0  0
    7.1841    0.0435   18.6295 C   0  0  0  0  0  0  0  0  0  0  0  0
    8.1275   -0.4313   18.3796 H   0  0  0  0  0  0  0  0  0  0  0  0
    6.6605   -0.0028   19.9337 C   0  0  0  0  0  0  0  0  0  0  0  0
    7.3822   -0.7159   20.9882 C   0  0  0  0  0  0  0  0  0  0  0  0
    6.9095   -0.7994   22.2684 N   0  0  0  0  0  0  0  0  0  0  0  0
    7.8441   -1.4769   22.8660 C   0  0  0  0  0  0  0  0  0  0  0  0
    7.9200   -1.8616   24.1357 O   0  0  0  0  0  0  0  0  0  0  0  0
    6.8552   -1.4809   24.9661 C   0  0  0  0  0  0  0  0  0  0  0  0
    5.8645   -1.8174   24.6186 H   0  0  0  0  0  0  0  0  0  0  0  0
    6.8555   -0.1532   25.1582 F   0  0  0  0  0  0  0  0  0  0  0  0
    7.1520   -2.0675   26.1283 F   0  0  0  0  0  0  0  0  0  0  0  0
    8.8147   -1.8202   22.0195 N   0  0  0  0  0  0  0  0  0  0  0  0
    9.6386   -2.3547   22.2293 H   0  0  0  0  0  0  0  0  0  0  0  0
    8.5335   -1.3274   20.7780 N   0  0  0  0  0  0  0  0  0  0  0  0
    5.4372    0.6478   20.1790 C   0  0  0  0  0  0  0  0  0  0  0  0
    4.9975    0.6390   21.1790 H   0  0  0  0  0  0  0  0  0  0  0  0
    4.8138    1.3009   19.1175 C   0  0  0  0  0  0  0  0  0  0  0  0
    3.8850    1.8349   19.2565 H   0  0  0  0  0  0  0  0  0  0  0  0
  1  2  1  0
  2  3  2  0
  3  4  1  0
  4  5  1  0
  4  6  2  0
  6  7  1  0
  7  8  1  0
  8  9  2  0
  9 10  1  0
 10 11  1  0
 11 12  1  0
 11 13  1  0
 11 14  1  0
  9 15  1  0
 15 16  1  0
 15 17  1  0
  6 18  1  0
 18 19  1  0
 18 20  2  0
 20 21  1  0
 20  2  1  0
 17  7  2  0
M  END
>  <plip>  (1) 
-0.03571428571428571

>  <filename>  (1) 
[H][c]1[n][c]([H])[c](-[c]2[n][c]([O][C]([H])([F])[F])[n]([H])[n]2)[c]([H])[c]1[H]

$$$$
