
     RDKit          3D

 30 32  0  0  0  0  0  0  0  0999 V2000
    4.9175    1.7776   17.0010 H   0  0  0  0  0  0  0  0  0  0  0  0
    5.4034    1.2902   17.8414 C   0  0  0  0  0  0  0  0  0  0  0  0
    6.5682    0.6766   17.5783 N   0  0  0  0  0  0  0  0  0  0  0  0
    7.1814    0.0589   18.5925 C   0  0  0  0  0  0  0  0  0  0  0  0
    8.1285   -0.4306   18.3713 H   0  0  0  0  0  0  0  0  0  0  0  0
    6.6643    0.0077   19.8999 C   0  0  0  0  0  0  0  0  0  0  0  0
    7.3700   -0.6973   20.9737 C   0  0  0  0  0  0  0  0  0  0  0  0
    8.5553   -1.3785   20.8185 N   0  0  0  0  0  0  0  0  0  0  0  0
    8.9233   -1.8986   21.9249 N   0  0  0  0  0  0  0  0  0  0  0  0
    7.9817   -1.5817   22.8675 N   0  0  0  0  0  0  0  0  0  0  0  0
    8.1560   -2.0540   24.5722 S   0  0  0  0  0  0  0  0  0  0  0  0
    9.2056   -3.0474   24.6354 O   0  0  0  0  0  0  0  0  0  0  0  0
    8.1676   -0.8352   25.3535 O   0  0  0  0  0  0  0  0  0  0  0  0
    6.5830   -2.8934   24.9203 C   0  0  0  0  0  0  0  0  0  0  0  0
    5.5077   -2.1748   25.4664 C   0  0  0  0  0  0  0  0  0  0  0  0
    5.5733   -1.1078   25.6697 H   0  0  0  0  0  0  0  0  0  0  0  0
    4.3200   -2.8397   25.7843 C   0  0  0  0  0  0  0  0  0  0  0  0
    3.4817   -2.3046   26.2196 H   0  0  0  0  0  0  0  0  0  0  0  0
    4.2086   -4.2117   25.5465 C   0  0  0  0  0  0  0  0  0  0  0  0
    2.7256   -5.0378   25.9413 Cl  0  0  0  0  0  0  0  0  0  0  0  0
    5.2704   -4.9271   24.9881 C   0  0  0  0  0  0  0  0  0  0  0  0
    5.1607   -5.9925   24.8115 H   0  0  0  0  0  0  0  0  0  0  0  0
    6.4610   -4.2670   24.6700 C   0  0  0  0  0  0  0  0  0  0  0  0
    7.2810   -4.8429   24.2450 H   0  0  0  0  0  0  0  0  0  0  0  0
    6.9978   -0.8179   22.2839 C   0  0  0  0  0  0  0  0  0  0  0  0
    6.1358   -0.4306   22.8056 H   0  0  0  0  0  0  0  0  0  0  0  0
    5.4411    0.6528   20.1543 C   0  0  0  0  0  0  0  0  0  0  0  0
    4.9966    0.6406   21.1536 H   0  0  0  0  0  0  0  0  0  0  0  0
    4.8070    1.3096   19.1063 C   0  0  0  0  0  0  0  0  0  0  0  0
    3.8760    1.8415   19.2613 H   0  0  0  0  0  0  0  0  0  0  0  0
  1  2  1  0
  2  3  2  0
  3  4  1  0
  4  5  1  0
  4  6  2  0
  6  7  1  0
  7  8  1  0
  8  9  2  0
  9 10  1  0
 10 11  1  0
 11 12  2  0
 11 13  2  0
 11 14  1  0
 14 15  2  0
 15 16  1  0
 15 17  1  0
 17 18  1  0
 17 19  2  0
 19 20  1  0
 19 21  1  0
 21 22  1  0
 21 23  2  0
 23 24  1  0
 10 25  1  0
 25 26  1  0
  6 27  1  0
 27 28  1  0
 27 29  2  0
 29 30  1  0
 29  2  1  0
 25  7  2  0
 23 14  1  0
M  END
>  <plip>  (1) 
-0.034482758620689655

>  <filename>  (1) 
[H][c]1[n][c]([H])[c](-[c]2[n][n][n]([S](=[O])(=[O])[c]3[c]([H])[c]([H])[c]([Cl])[c]([H])[c]3[H])[c]2[H])[c]([H])[c]1[H]

$$$$
