
     RDKit          3D

 35 36  0  0  0  0  0  0  0  0999 V2000
    5.6967   -1.5781   21.7834 H   0  0  0  0  0  0  0  0  0  0  0  0
    6.7737   -1.4880   21.8752 C   0  0  0  0  0  0  0  0  0  0  0  0
    7.3948   -0.7212   20.9723 C   0  0  0  0  0  0  0  0  0  0  0  0
    9.1380   -0.5800   20.9575 Cl  0  0  0  0  0  0  0  0  0  0  0  0
    6.6722    0.0111   19.9005 C   0  0  0  0  0  0  0  0  0  0  0  0
    7.2027    0.0698   18.5962 C   0  0  0  0  0  0  0  0  0  0  0  0
    8.1494   -0.4213   18.3760 H   0  0  0  0  0  0  0  0  0  0  0  0
    6.6053    0.6816   17.5694 N   0  0  0  0  0  0  0  0  0  0  0  0
    5.4341    1.2968   17.8063 C   0  0  0  0  0  0  0  0  0  0  0  0
    4.9707    1.8017   16.9609 H   0  0  0  0  0  0  0  0  0  0  0  0
    4.8186    1.3086   19.0615 C   0  0  0  0  0  0  0  0  0  0  0  0
    3.8721    1.8200   19.1910 H   0  0  0  0  0  0  0  0  0  0  0  0
    5.4404    0.6561   20.1245 C   0  0  0  0  0  0  0  0  0  0  0  0
    5.0068    0.6811   21.1233 H   0  0  0  0  0  0  0  0  0  0  0  0
    7.3397   -2.2342   22.9043 N   0  0  0  0  0  0  0  0  0  0  0  0
    8.3233   -2.1318   23.1030 H   0  0  0  0  0  0  0  0  0  0  0  0
    6.6234   -3.0951   23.7235 C   0  0  0  0  0  0  0  0  0  0  0  0
    5.4379   -3.3120   23.5676 O   0  0  0  0  0  0  0  0  0  0  0  0
    7.4485   -3.7757   24.8176 C   0  0  0  0  0  0  0  0  0  0  0  0
    8.5019   -3.4685   24.7276 H   0  0  0  0  0  0  0  0  0  0  0  0
    6.9294   -3.3597   26.2145 C   0  0  0  0  0  0  0  0  0  0  0  0
    7.1189   -2.2908   26.3781 H   0  0  0  0  0  0  0  0  0  0  0  0
    5.8407   -3.4852   26.2180 H   0  0  0  0  0  0  0  0  0  0  0  0
    7.5290   -4.1709   27.3762 C   0  0  0  0  0  0  0  0  0  0  0  0
    6.8945   -4.0256   28.2525 H   0  0  0  0  0  0  0  0  0  0  0  0
    8.5316   -3.7974   27.6274 H   0  0  0  0  0  0  0  0  0  0  0  0
    7.5704   -5.6768   27.1105 C   0  0  0  0  0  0  0  0  0  0  0  0
    8.1248   -6.1938   27.9009 H   0  0  0  0  0  0  0  0  0  0  0  0
    6.5482   -6.0764   27.1503 H   0  0  0  0  0  0  0  0  0  0  0  0
    8.1438   -6.0267   25.7435 C   0  0  0  0  0  0  0  0  0  0  0  0
    9.2105   -5.7793   25.6758 H   0  0  0  0  0  0  0  0  0  0  0  0
    8.0745   -7.1024   25.6315 H   0  0  0  0  0  0  0  0  0  0  0  0
    7.3707   -5.3098   24.6369 C   0  0  0  0  0  0  0  0  0  0  0  0
    6.3111   -5.6045   24.6778 H   0  0  0  0  0  0  0  0  0  0  0  0
    7.7405   -5.5903   23.6425 H   0  0  0  0  0  0  0  0  0  0  0  0
  1  2  1  0
  2  3  2  3
  3  4  1  0
  3  5  1  0
  5  6  2  0
  6  7  1  0
  6  8  1  0
  8  9  2  0
  9 10  1  0
  9 11  1  0
 11 12  1  0
 11 13  2  0
 13 14  1  0
  2 15  1  0
 15 16  1  0
 15 17  1  0
 17 18  2  0
 17 19  1  0
 19 20  1  0
 19 21  1  0
 21 22  1  0
 21 23  1  0
 21 24  1  0
 24 25  1  0
 24 26  1  0
 24 27  1  0
 27 28  1  0
 27 29  1  0
 27 30  1  0
 30 31  1  0
 30 32  1  0
 30 33  1  0
 33 34  1  0
 33 35  1  0
 13  5  1  0
 33 19  1  0
M  END
>  <plip>  (1) 
-0.07142857142857142

>  <filename>  (1) 
[H][C](=[C]([Cl])[c]1[c]([H])[n][c]([H])[c]([H])[c]1[H])[N]([H])[C](=[O])[C]1([H])[C]([H])([H])[C]([H])([H])[C]([H])([H])[C]([H])([H])[C]1([H])[H]

$$$$
