
     RDKit          3D

 31 33  0  0  0  0  0  0  0  0999 V2000
    4.9379    1.7839   17.0026 H   0  0  0  0  0  0  0  0  0  0  0  0
    5.4048    1.2831   17.8472 C   0  0  0  0  0  0  0  0  0  0  0  0
    6.5686    0.6611   17.5929 N   0  0  0  0  0  0  0  0  0  0  0  0
    7.1746    0.0451   18.6141 C   0  0  0  0  0  0  0  0  0  0  0  0
    8.1235   -0.4354   18.3742 H   0  0  0  0  0  0  0  0  0  0  0  0
    6.6705    0.0091   19.9404 C   0  0  0  0  0  0  0  0  0  0  0  0
    7.3492   -0.6633   20.9895 N   0  0  0  0  0  0  0  0  0  0  0  0
    7.3725   -0.2996   22.3342 C   0  0  0  0  0  0  0  0  0  0  0  0
    6.9275    0.7066   22.8306 O   0  0  0  0  0  0  0  0  0  0  0  0
    8.0444   -1.3063   23.0394 N   0  0  0  0  0  0  0  0  0  0  0  0
    8.5370   -1.1575   24.4266 C   0  0  2  0  0  0  0  0  0  0  0  0
    9.5072   -0.6385   24.3960 H   0  0  0  0  0  0  0  0  0  0  0  0
    8.7301   -2.4894   25.1819 C   0  0  0  0  0  0  0  0  0  0  0  0
    7.9905   -3.2327   24.8502 H   0  0  0  0  0  0  0  0  0  0  0  0
    9.7212   -2.9143   25.0076 H   0  0  0  0  0  0  0  0  0  0  0  0
    8.5930   -2.1809   26.5579 O   0  0  0  0  0  0  0  0  0  0  0  0
    7.9365   -0.9326   26.7476 C   0  0  0  0  0  0  0  0  0  0  0  0
    8.6082   -0.2645   27.3059 H   0  0  0  0  0  0  0  0  0  0  0  0
    7.0567   -1.0818   27.3855 H   0  0  0  0  0  0  0  0  0  0  0  0
    7.5778   -0.3982   25.3528 C   0  0  0  0  0  0  0  0  0  0  0  0
    6.5456   -0.6404   25.0786 H   0  0  0  0  0  0  0  0  0  0  0  0
    7.6877    0.6825   25.2491 H   0  0  0  0  0  0  0  0  0  0  0  0
    8.5020   -2.2739   22.1788 C   0  0  0  0  0  0  0  0  0  0  0  0
    9.1437   -3.2568   22.4737 O   0  0  0  0  0  0  0  0  0  0  0  0
    8.0589   -1.9075   20.7931 C   0  0  0  0  0  0  0  0  0  0  0  0
    7.4126   -2.7020   20.4071 H   0  0  0  0  0  0  0  0  0  0  0  0
    8.9480   -1.8073   20.1576 H   0  0  0  0  0  0  0  0  0  0  0  0
    5.4496    0.6578   20.1838 C   0  0  0  0  0  0  0  0  0  0  0  0
    5.0408    0.6535   21.1911 H   0  0  0  0  0  0  0  0  0  0  0  0
    4.8164    1.2994   19.1144 C   0  0  0  0  0  0  0  0  0  0  0  0
    3.8837    1.8298   19.2599 H   0  0  0  0  0  0  0  0  0  0  0  0
  1  2  1  0
  2  3  2  0
  3  4  1  0
  4  5  1  0
  4  6  2  0
  6  7  1  0
  7  8  1  0
  8  9  2  0
  8 10  1  0
 10 11  1  0
 11 12  1  6
 11 13  1  0
 13 14  1  0
 13 15  1  0
 13 16  1  0
 16 17  1  0
 17 18  1  0
 17 19  1  0
 17 20  1  0
 20 21  1  0
 20 22  1  0
 10 23  1  0
 23 24  2  0
 23 25  1  0
 25 26  1  0
 25 27  1  0
  6 28  1  0
 28 29  1  0
 28 30  2  0
 30 31  1  0
 30  2  1  0
 25  7  1  0
 20 11  1  0
M  END
>  <plip>  (1) 
-0.03571428571428571

>  <filename>  (1) 
[H][c]1[n][c]([H])[c]([N]2[C](=[O])[N]([C@]3([H])[C]([H])([H])[O][C]([H])([H])[C]3([H])[H])[C](=[O])[C]2([H])[H])[c]([H])[c]1[H]

$$$$
