
     RDKit          3D

 38 40  0  0  0  0  0  0  0  0999 V2000
    5.3412   -2.7263   20.8231 O   0  0  0  0  0  0  0  0  0  0  0  0
    6.5035   -3.0579   20.7343 C   0  0  0  0  0  0  0  0  0  0  0  0
    6.8593   -4.5346   20.6896 C   0  0  0  0  0  0  0  0  0  0  0  0
    6.5432   -5.1330   22.0350 C   0  0  0  0  0  0  0  0  0  0  0  0
    5.4341   -5.8469   22.3222 C   0  0  0  0  0  0  0  0  0  0  0  0
    5.3740   -6.4075   23.9610 S   0  0  0  0  0  0  0  0  0  0  0  0
    6.9134   -5.6692   24.3103 C   0  0  0  0  0  0  0  0  0  0  0  0
    7.6623   -5.7617   25.4983 C   0  0  0  0  0  0  0  0  0  0  0  0
    8.8666   -5.0710   25.5809 C   0  0  0  0  0  0  0  0  0  0  0  0
    9.3064   -4.2923   24.4919 C   0  0  0  0  0  0  0  0  0  0  0  0
   10.8144   -3.4414   24.5949 Cl  0  0  0  0  0  0  0  0  0  0  0  0
    8.5842   -4.2026   23.3161 C   0  0  0  0  0  0  0  0  0  0  0  0
    7.3947   -4.9539   23.1950 C   0  0  0  0  0  0  0  0  0  0  0  0
    8.9285   -3.5477   22.5227 H   0  0  0  0  0  0  0  0  0  0  0  0
    9.4743   -5.1233   26.4780 H   0  0  0  0  0  0  0  0  0  0  0  0
    7.3107   -6.3844   26.3187 H   0  0  0  0  0  0  0  0  0  0  0  0
    4.6177   -6.1110   21.6612 H   0  0  0  0  0  0  0  0  0  0  0  0
    7.9084   -4.7099   20.4323 H   0  0  0  0  0  0  0  0  0  0  0  0
    6.2294   -4.9745   19.9076 H   0  0  0  0  0  0  0  0  0  0  0  0
    7.5136   -2.1355   20.7684 N   0  0  0  0  0  0  0  0  0  0  0  0
    7.2399   -0.7230   21.0408 C   0  0  0  0  0  0  0  0  0  0  0  0
    8.5825   -0.0532   21.4362 C   0  0  0  0  0  0  0  0  0  0  0  0
    8.4996    1.2854   21.8884 O   0  0  0  0  0  0  0  0  0  0  0  0
    8.0802    1.3053   22.7589 H   0  0  0  0  0  0  0  0  0  0  0  0
    9.0710   -0.7078   22.1780 H   0  0  0  0  0  0  0  0  0  0  0  0
    9.2233   -0.0343   20.5453 H   0  0  0  0  0  0  0  0  0  0  0  0
    6.5272   -0.0455   19.8735 C   0  0  0  0  0  0  0  0  0  0  0  0
    5.3520    0.7160   20.0143 C   0  0  0  0  0  0  0  0  0  0  0  0
    4.8176    1.3578   18.8910 C   0  0  0  0  0  0  0  0  0  0  0  0
    5.4812    1.2203   17.6680 C   0  0  0  0  0  0  0  0  0  0  0  0
    6.5862    0.4782   17.5031 N   0  0  0  0  0  0  0  0  0  0  0  0
    7.0773   -0.1359   18.5886 C   0  0  0  0  0  0  0  0  0  0  0  0
    7.9855   -0.7194   18.4248 H   0  0  0  0  0  0  0  0  0  0  0  0
    5.1143    1.7282   16.7775 H   0  0  0  0  0  0  0  0  0  0  0  0
    3.9200    1.9676   18.9475 H   0  0  0  0  0  0  0  0  0  0  0  0
    4.8601    0.8151   20.9851 H   0  0  0  0  0  0  0  0  0  0  0  0
    6.5768   -0.6867   21.9156 H   0  0  0  0  0  0  0  0  0  0  0  0
    8.3899   -2.3664   20.3360 H   0  0  0  0  0  0  0  0  0  0  0  0
  1  2  2  0
  2  3  1  0
  3  4  1  0
  4  5  2  0
  5  6  1  0
  6  7  1  0
  7  8  2  0
  8  9  1  0
  9 10  2  0
 10 11  1  0
 10 12  1  0
 12 13  2  0
 12 14  1  0
  9 15  1  0
  8 16  1  0
  5 17  1  0
  3 18  1  0
  3 19  1  0
  2 20  1  0
 20 21  1  0
 21 22  1  0
 22 23  1  0
 23 24  1  0
 22 25  1  0
 22 26  1  0
 21 27  1  0
 27 28  2  0
 28 29  1  0
 29 30  2  0
 30 31  1  0
 31 32  2  0
 32 33  1  0
 30 34  1  0
 29 35  1  0
 28 36  1  0
 21 37  1  0
 20 38  1  0
 13  4  1  0
 32 27  1  0
 13  7  1  0
M  END
>  <plip>  (1) 
-0.17857142857142858

>  <filename>  (1) 
[H][O][C]([H])([H])[C]([H])([c]1[c]([H])[n][c]([H])[c]([H])[c]1[H])[N]([H])[C](=[O])[C]([H])([H])[c]1[c]([H])[s][c]2[c]([H])[c]([H])[c]([Cl])[c]([H])[c]12

$$$$
