
     RDKit          3D

 28 30  0  0  0  0  0  0  0  0999 V2000
    4.9264    1.7867   17.0119 H   0  0  0  0  0  0  0  0  0  0  0  0
    5.4036    1.2841   17.8499 C   0  0  0  0  0  0  0  0  0  0  0  0
    6.5605    0.6631   17.5749 N   0  0  0  0  0  0  0  0  0  0  0  0
    7.1939    0.0514   18.5806 C   0  0  0  0  0  0  0  0  0  0  0  0
    8.1386   -0.4262   18.3394 H   0  0  0  0  0  0  0  0  0  0  0  0
    6.6958    0.0090   19.8994 C   0  0  0  0  0  0  0  0  0  0  0  0
    7.3201   -0.6970   20.9292 O   0  0  0  0  0  0  0  0  0  0  0  0
    8.6916   -0.7406   21.0507 C   0  0  0  0  0  0  0  0  0  0  0  0
    9.4227   -0.0197   20.4118 O   0  0  0  0  0  0  0  0  0  0  0  0
    9.1654   -1.7726   22.0360 C   0  0  0  0  0  0  0  0  0  0  0  0
   10.5769   -1.9389   22.2047 C   0  0  0  0  0  0  0  0  0  0  0  0
   11.2496   -1.2974   21.6333 H   0  0  0  0  0  0  0  0  0  0  0  0
   11.0928   -2.9011   23.0581 C   0  0  0  0  0  0  0  0  0  0  0  0
   12.1602   -3.0832   23.0890 H   0  0  0  0  0  0  0  0  0  0  0  0
   10.1917   -3.6794   23.8099 C   0  0  0  0  0  0  0  0  0  0  0  0
    8.7885   -3.5569   23.6509 C   0  0  0  0  0  0  0  0  0  0  0  0
    8.2851   -2.5964   22.7494 C   0  0  0  0  0  0  0  0  0  0  0  0
    7.2106   -2.5098   22.6155 H   0  0  0  0  0  0  0  0  0  0  0  0
    8.1892   -4.5345   24.5260 C   0  0  0  0  0  0  0  0  0  0  0  0
    7.1274   -4.7051   24.6443 H   0  0  0  0  0  0  0  0  0  0  0  0
    9.2058   -5.1784   25.1680 C   0  0  0  0  0  0  0  0  0  0  0  0
    9.1823   -5.9710   25.9068 H   0  0  0  0  0  0  0  0  0  0  0  0
   10.4145   -4.6627   24.7405 N   0  0  0  0  0  0  0  0  0  0  0  0
   11.3256   -4.9499   25.0526 H   0  0  0  0  0  0  0  0  0  0  0  0
    5.4791    0.6343   20.1789 C   0  0  0  0  0  0  0  0  0  0  0  0
    5.0659    0.5989   21.1850 H   0  0  0  0  0  0  0  0  0  0  0  0
    4.8336    1.2946   19.1257 C   0  0  0  0  0  0  0  0  0  0  0  0
    3.8992    1.8182   19.2760 H   0  0  0  0  0  0  0  0  0  0  0  0
  1  2  1  0
  2  3  2  0
  3  4  1  0
  4  5  1  0
  4  6  2  0
  6  7  1  0
  7  8  1  0
  8  9  2  0
  8 10  1  0
 10 11  2  0
 11 12  1  0
 11 13  1  0
 13 14  1  0
 13 15  2  0
 15 16  1  0
 16 17  2  0
 17 18  1  0
 16 19  1  0
 19 20  1  0
 19 21  2  0
 21 22  1  0
 21 23  1  0
 23 24  1  0
  6 25  1  0
 25 26  1  0
 25 27  2  0
 27 28  1  0
 27  2  1  0
 17 10  1  0
 23 15  1  0
M  END
>  <plip>  (1) 
-0.17857142857142858

>  <filename>  (1) 
[H][c]1[n][c]([H])[c]([O][C](=[O])[c]2[c]([H])[c]([H])[c]3[c]([c]2[H])[c]([H])[c]([H])[n]3[H])[c]([H])[c]1[H]

$$$$
