
     RDKit          3D

 46 48  0  0  0  0  0  0  0  0999 V2000
    6.6006   -1.8907   21.4594 C   0  0  0  0  0  0  0  0  0  0  0  0
    7.4264   -0.6414   21.0769 C   0  0  0  0  0  0  0  0  0  0  0  0
    8.8575   -1.1029   20.7378 C   0  0  0  0  0  0  0  0  0  0  0  0
    9.3395   -1.5436   21.6179 H   0  0  0  0  0  0  0  0  0  0  0  0
    9.4938   -0.2926   20.3677 H   0  0  0  0  0  0  0  0  0  0  0  0
    8.8604   -1.8699   19.9660 H   0  0  0  0  0  0  0  0  0  0  0  0
    7.5084    0.3042   22.3205 C   0  0  0  0  0  0  0  0  0  0  0  0
    8.3808    1.4904   22.1242 N   0  0  0  0  0  4  0  0  0  0  0  0
    9.7551    1.4338   22.7150 C   0  0  0  0  0  0  0  0  0  0  0  0
   10.5176    2.5828   22.1115 C   0  0  2  0  0  0  0  0  0  0  0  0
   11.4169    2.3465   20.9236 C   0  0  0  0  0  0  0  0  0  0  0  0
   12.0189    2.7167   22.2431 C   0  0  1  0  0  0  0  0  0  0  0  0
   12.6379    4.0666   22.4278 C   0  0  0  0  0  0  0  0  0  0  0  0
   12.4548    4.7535   23.6378 C   0  0  0  0  0  0  0  0  0  0  0  0
   13.0405    6.0036   23.8328 C   0  0  0  0  0  0  0  0  0  0  0  0
   13.7966    6.5900   22.8153 C   0  0  0  0  0  0  0  0  0  0  0  0
   14.0214    5.8983   21.6288 C   0  0  0  0  0  0  0  0  0  0  0  0
   13.4302    4.6539   21.4281 C   0  0  0  0  0  0  0  0  0  0  0  0
   13.5469    4.1153   20.4926 H   0  0  0  0  0  0  0  0  0  0  0  0
   14.6662    6.3222   20.8721 H   0  0  0  0  0  0  0  0  0  0  0  0
   14.2501    7.5656   22.9622 H   0  0  0  0  0  0  0  0  0  0  0  0
   12.9199    6.5283   24.7728 H   0  0  0  0  0  0  0  0  0  0  0  0
   11.8051    4.3418   24.4058 H   0  0  0  0  0  0  0  0  0  0  0  0
   12.5412    1.9173   22.7762 H   0  0  0  0  0  0  0  0  0  0  0  0
   11.5368    1.3126   20.6313 H   0  0  0  0  0  0  0  0  0  0  0  0
   11.4594    3.0579   20.1035 H   0  0  0  0  0  0  0  0  0  0  0  0
    9.9520    3.5150   22.1570 H   0  0  0  0  0  0  0  0  0  0  0  0
    9.7143    1.4919   23.8095 H   0  0  0  0  0  0  0  0  0  0  0  0
   10.2340    0.4780   22.4695 H   0  0  0  0  0  0  0  0  0  0  0  0
    8.4821    1.6596   21.0933 H   0  0  0  0  0  0  0  0  0  0  0  0
    7.9405    2.3654   22.4913 H   0  0  0  0  0  0  0  0  0  0  0  0
    7.8811   -0.2820   23.1670 H   0  0  0  0  0  0  0  0  0  0  0  0
    6.5038    0.6326   22.5875 H   0  0  0  0  0  0  0  0  0  0  0  0
    6.7211    0.0572   19.9011 C   0  0  0  0  0  0  0  0  0  0  0  0
    5.4889    0.7133   20.0977 C   0  0  0  0  0  0  0  0  0  0  0  0
    4.8622    1.3430   19.0233 C   0  0  0  0  0  0  0  0  0  0  0  0
    5.4697    1.2901   17.7663 C   0  0  0  0  0  0  0  0  0  0  0  0
    6.6225    0.6495   17.5393 N   0  0  0  0  0  0  0  0  0  0  0  0
    7.2158    0.0530   18.5854 C   0  0  0  0  0  0  0  0  0  0  0  0
    8.1477   -0.4602   18.3552 H   0  0  0  0  0  0  0  0  0  0  0  0
    5.0116    1.7789   16.9075 H   0  0  0  0  0  0  0  0  0  0  0  0
    3.9288    1.8784   19.1495 H   0  0  0  0  0  0  0  0  0  0  0  0
    5.0292    0.7381   21.0872 H   0  0  0  0  0  0  0  0  0  0  0  0
    7.0094   -2.3938   22.3448 H   0  0  0  0  0  0  0  0  0  0  0  0
    5.5549   -1.6415   21.6640 H   0  0  0  0  0  0  0  0  0  0  0  0
    6.5952   -2.6153   20.6359 H   0  0  0  0  0  0  0  0  0  0  0  0
  1  2  1  0
  2  3  1  0
  3  4  1  0
  3  5  1  0
  3  6  1  0
  2  7  1  0
  7  8  1  0
  8  9  1  0
  9 10  1  0
 10 11  1  0
 11 12  1  0
 12 13  1  0
 13 14  2  0
 14 15  1  0
 15 16  2  0
 16 17  1  0
 17 18  2  0
 18 19  1  0
 17 20  1  0
 16 21  1  0
 15 22  1  0
 14 23  1  0
 12 24  1  1
 11 25  1  0
 11 26  1  0
 10 27  1  6
  9 28  1  0
  9 29  1  0
  8 30  1  0
  8 31  1  0
  7 32  1  0
  7 33  1  0
  2 34  1  0
 34 35  2  0
 35 36  1  0
 36 37  2  0
 37 38  1  0
 38 39  2  0
 39 40  1  0
 37 41  1  0
 36 42  1  0
 35 43  1  0
  1 44  1  0
  1 45  1  0
  1 46  1  0
 12 10  1  0
 18 13  1  0
 39 34  1  0
M  CHG  1   8   1
M  END
>  <plip>  (1) 
-0.16666666666666666

>  <filename>  (1) 
[H][c]1[n][c]([H])[c]([C]([C]([H])([H])[H])([C]([H])([H])[H])[C]([H])([H])[N+]([H])([H])[C]([H])([H])[C@]2([H])[C]([H])([H])[C@@]2([H])[c]2[c]([H])[c]([H])[c]([H])[c]([H])[c]2[H])[c]([H])[c]1[H]

$$$$
