
     RDKit          3D

 27 28  0  0  0  0  0  0  0  0999 V2000
    8.9825    0.3336   21.2782 H   0  0  0  0  0  0  0  0  0  0  0  0
    8.7356   -0.5741   21.0220 O   0  0  0  0  0  0  0  0  0  0  0  0
    7.3340   -0.6036   21.1163 N   0  0  0  0  0  0  0  0  0  0  0  0
    6.7184   -1.6748   21.8307 C   0  0  0  0  0  0  0  0  0  0  0  0
    5.6507   -2.1491   21.4974 O   0  0  0  0  0  0  0  0  0  0  0  0
    7.3914   -2.0675   22.9802 N   0  0  0  0  0  0  0  0  0  0  0  0
    8.4027   -1.9961   23.0409 H   0  0  0  0  0  0  0  0  0  0  0  0
    6.7369   -2.7665   23.9621 C   0  0  0  0  0  0  0  0  0  0  0  0
    5.6482   -2.8180   23.8819 H   0  0  0  0  0  0  0  0  0  0  0  0
    7.3778   -3.3617   24.9769 C   0  0  0  0  0  0  0  0  0  0  0  0
    6.5597   -4.2238   26.2865 S   0  0  0  0  0  0  0  0  0  0  0  0
    8.1331   -4.6555   27.0156 C   0  0  0  0  0  0  0  0  0  0  0  0
    8.2966   -5.2659   28.0329 O   0  0  0  0  0  0  0  0  0  0  0  0
    9.1441   -4.1668   26.2249 N   0  0  0  0  0  0  0  0  0  0  0  0
   10.0932   -4.3518   26.4859 H   0  0  0  0  0  0  0  0  0  0  0  0
    8.8352   -3.4267   25.1150 C   0  0  0  0  0  0  0  0  0  0  0  0
    9.6734   -2.9238   24.3883 O   0  0  0  0  0  0  0  0  0  0  0  0
    6.6775    0.0049   20.0020 C   0  0  0  0  0  0  0  0  0  0  0  0
    7.2478    0.0335   18.7121 C   0  0  0  0  0  0  0  0  0  0  0  0
    8.2010   -0.4575   18.5213 H   0  0  0  0  0  0  0  0  0  0  0  0
    6.6585    0.6316   17.6693 N   0  0  0  0  0  0  0  0  0  0  0  0
    5.4838    1.2508   17.8760 C   0  0  0  0  0  0  0  0  0  0  0  0
    5.0428    1.7509   17.0144 H   0  0  0  0  0  0  0  0  0  0  0  0
    4.8396    1.2728   19.1173 C   0  0  0  0  0  0  0  0  0  0  0  0
    3.9017    1.8049   19.2283 H   0  0  0  0  0  0  0  0  0  0  0  0
    5.4330    0.6192   20.1993 C   0  0  0  0  0  0  0  0  0  0  0  0
    4.9689    0.5919   21.1838 H   0  0  0  0  0  0  0  0  0  0  0  0
  1  2  1  0
  2  3  1  0
  3  4  1  0
  4  5  2  0
  4  6  1  0
  6  7  1  0
  6  8  1  0
  8  9  1  0
  8 10  2  3
 10 11  1  0
 11 12  1  0
 12 13  2  0
 12 14  1  0
 14 15  1  0
 14 16  1  0
 16 17  2  0
  3 18  1  0
 18 19  2  0
 19 20  1  0
 19 21  1  0
 21 22  2  0
 22 23  1  0
 22 24  1  0
 24 25  1  0
 24 26  2  0
 26 27  1  0
 16 10  1  0
 26 18  1  0
M  END
>  <plip>  (1) 
-0.14285714285714285

>  <filename>  (1) 
[H][O][N]([C](=[O])[N]([H])[C]([H])=[C]1[S][C](=[O])[N]([H])[C]1=[O])[c]1[c]([H])[n][c]([H])[c]([H])[c]1[H]

$$$$
