
     RDKit          3D

 40 43  0  0  0  0  0  0  0  0999 V2000
    9.5972    5.9399   24.8834 H   0  0  0  0  0  0  0  0  0  0  0  0
    8.8256    5.5474   24.2241 C   0  0  0  0  0  0  0  0  0  0  0  0
    9.0708    4.3402   23.7200 N   0  0  0  0  0  0  0  0  0  0  0  0
    8.1470    3.8245   22.8855 C   0  0  0  0  0  0  0  0  0  0  0  0
    8.4353    2.5327   22.3402 C   0  0  0  0  0  0  0  0  0  0  0  0
    8.6336    1.4401   21.8825 C   0  0  0  0  0  0  0  0  0  0  0  0
    8.7391    0.0685   21.4033 C   0  0  2  0  0  0  0  0  0  0  0  0
    9.2393    0.0864   20.4268 H   0  0  0  0  0  0  0  0  0  0  0  0
    7.3029   -0.5141   21.1814 C   0  0  1  0  0  0  0  0  0  0  0  0
    6.7236   -0.3567   22.1030 H   0  0  0  0  0  0  0  0  0  0  0  0
    6.5681    0.1632   20.0273 C   0  0  0  0  0  0  0  0  0  0  0  0
    7.1108    0.1245   18.7266 C   0  0  0  0  0  0  0  0  0  0  0  0
    8.0522   -0.4028   18.5489 H   0  0  0  0  0  0  0  0  0  0  0  0
    6.5555    0.6862   17.6457 N   0  0  0  0  0  0  0  0  0  0  0  0
    5.3867    1.3199   17.8204 C   0  0  0  0  0  0  0  0  0  0  0  0
    4.9589    1.7888   16.9363 H   0  0  0  0  0  0  0  0  0  0  0  0
    4.7299    1.3880   19.0524 C   0  0  0  0  0  0  0  0  0  0  0  0
    3.7756    1.8969   19.1203 H   0  0  0  0  0  0  0  0  0  0  0  0
    5.3317    0.8057   20.1742 C   0  0  0  0  0  0  0  0  0  0  0  0
    4.8445    0.8430   21.1514 H   0  0  0  0  0  0  0  0  0  0  0  0
    7.3830   -2.0151   20.8739 C   0  0  0  0  0  0  0  0  0  0  0  0
    6.3779   -2.4515   20.9060 H   0  0  0  0  0  0  0  0  0  0  0  0
    7.7310   -2.0471   19.8500 H   0  0  0  0  0  0  0  0  0  0  0  0
    8.3498   -2.8534   21.7277 C   0  0  1  0  0  0  0  0  0  0  0  0
    8.2782   -3.9048   21.4258 H   0  0  0  0  0  0  0  0  0  0  0  0
   10.0729   -2.3119   21.4481 S   0  0  0  0  0  0  0  0  0  0  0  0
    9.6419   -0.7937   22.3473 C   0  0  2  0  0  0  0  0  0  0  0  0
   10.5656   -0.2541   22.5941 H   0  0  0  0  0  0  0  0  0  0  0  0
    8.9298   -1.3252   23.6161 C   0  0  0  0  0  0  0  0  0  0  0  0
    8.2638   -0.5637   24.0375 H   0  0  0  0  0  0  0  0  0  0  0  0
    9.6798   -1.5446   24.3838 H   0  0  0  0  0  0  0  0  0  0  0  0
    8.1702   -2.6340   23.2405 C   0  0  0  0  0  0  0  0  0  0  0  0
    8.5974   -3.4865   23.7804 H   0  0  0  0  0  0  0  0  0  0  0  0
    7.1079   -2.5744   23.5006 H   0  0  0  0  0  0  0  0  0  0  0  0
    6.9517    4.4864   22.5613 C   0  0  0  0  0  0  0  0  0  0  0  0
    6.2389    4.0145   21.8952 H   0  0  0  0  0  0  0  0  0  0  0  0
    6.7078    5.7462   23.1019 C   0  0  0  0  0  0  0  0  0  0  0  0
    5.7940    6.2890   22.8631 H   0  0  0  0  0  0  0  0  0  0  0  0
    7.6747    6.2898   23.9499 C   0  0  0  0  0  0  0  0  0  0  0  0
    7.5543    7.2705   24.3869 H   0  0  0  0  0  0  0  0  0  0  0  0
  1  2  1  0
  2  3  2  0
  3  4  1  0
  4  5  1  0
  5  6  3  0
  6  7  1  0
  7  8  1  6
  7  9  1  0
  9 10  1  1
  9 11  1  0
 11 12  2  0
 12 13  1  0
 12 14  1  0
 14 15  2  0
 15 16  1  0
 15 17  1  0
 17 18  1  0
 17 19  2  0
 19 20  1  0
  9 21  1  0
 21 22  1  0
 21 23  1  0
 21 24  1  0
 24 25  1  1
 24 26  1  0
 26 27  1  0
 27 28  1  1
 27 29  1  0
 29 30  1  0
 29 31  1  0
 29 32  1  0
 32 33  1  0
 32 34  1  0
  4 35  2  0
 35 36  1  0
 35 37  1  0
 37 38  1  0
 37 39  2  0
 39 40  1  0
 39  2  1  0
 27  7  1  0
 19 11  1  0
 32 24  1  0
M  END
>  <plip>  (1) 
-0.0

>  <filename>  (1) 
[H][c]1[n][c]([C]#[C][C@]2([H])[C@@]([H])([c]3[c]([H])[n][c]([H])[c]([H])[c]3[H])[C]([H])([H])[C@@]3([H])[S][C@]2([H])[C]([H])([H])[C]3([H])[H])[c]([H])[c]([H])[c]1[H]

$$$$
