
     RDKit          3D

 37 39  0  0  0  0  0  0  0  0999 V2000
    7.4613   -2.9319   22.2777 C   0  0  0  0  0  0  0  0  0  0  0  0
    6.7239   -2.0470   21.2716 C   0  0  0  0  0  0  0  0  0  0  0  0
    7.4038   -0.7082   21.0041 C   0  0  0  0  0  0  0  0  0  0  0  0
    7.4143    0.0395   22.2421 O   0  0  0  0  0  0  0  0  0  0  0  0
    8.1494    1.1754   22.2701 C   0  0  0  0  0  0  0  0  0  0  0  0
    8.8254    1.5455   21.3390 O   0  0  0  0  0  0  0  0  0  0  0  0
    8.0314    1.9149   23.5832 C   0  0  0  0  0  0  0  0  0  0  0  0
    7.2010    1.4454   24.6311 C   0  0  0  0  0  0  0  0  0  0  0  0
    7.0907    2.1545   25.8278 C   0  0  0  0  0  0  0  0  0  0  0  0
    7.7948    3.3438   25.9750 C   0  0  0  0  0  0  0  0  0  0  0  0
    7.8624    4.3024   27.1222 C   0  0  0  0  0  0  0  0  0  0  0  0
    8.8674    5.2465   26.7524 O   0  0  0  0  0  0  0  0  0  0  0  0
    9.3097    5.0365   25.4746 C   0  0  0  0  0  0  0  0  0  0  0  0
   10.0959    5.7800   24.9553 O   0  0  0  0  0  0  0  0  0  0  0  0
    8.6477    3.7962   24.9666 C   0  0  0  0  0  0  0  0  0  0  0  0
    8.7713    3.1063   23.7536 C   0  0  0  0  0  0  0  0  0  0  0  0
    9.4124    3.4693   22.9440 H   0  0  0  0  0  0  0  0  0  0  0  0
    8.1361    3.7853   28.0420 H   0  0  0  0  0  0  0  0  0  0  0  0
    6.9324    4.8510   27.3136 H   0  0  0  0  0  0  0  0  0  0  0  0
    6.4808    1.7797   26.6430 H   0  0  0  0  0  0  0  0  0  0  0  0
    6.6332    0.5251   24.5111 H   0  0  0  0  0  0  0  0  0  0  0  0
    6.6767    0.0606   19.9204 C   0  0  0  0  0  0  0  0  0  0  0  0
    5.4436    0.6874   20.1540 C   0  0  0  0  0  0  0  0  0  0  0  0
    4.7966    1.3212   19.0923 C   0  0  0  0  0  0  0  0  0  0  0  0
    5.3958    1.2888   17.8261 C   0  0  0  0  0  0  0  0  0  0  0  0
    6.5584    0.6692   17.5730 N   0  0  0  0  0  0  0  0  0  0  0  0
    7.1746    0.0863   18.6150 C   0  0  0  0  0  0  0  0  0  0  0  0
    8.1231   -0.4015   18.3779 H   0  0  0  0  0  0  0  0  0  0  0  0
    4.9303    1.7878   16.9764 H   0  0  0  0  0  0  0  0  0  0  0  0
    3.8571    1.8457   19.2309 H   0  0  0  0  0  0  0  0  0  0  0  0
    5.0052    0.6646   21.1524 H   0  0  0  0  0  0  0  0  0  0  0  0
    8.4461   -0.8676   20.7004 H   0  0  0  0  0  0  0  0  0  0  0  0
    6.6502   -2.5522   20.3001 H   0  0  0  0  0  0  0  0  0  0  0  0
    5.6922   -1.8491   21.5968 H   0  0  0  0  0  0  0  0  0  0  0  0
    7.5182   -2.4492   23.2586 H   0  0  0  0  0  0  0  0  0  0  0  0
    8.4862   -3.1377   21.9463 H   0  0  0  0  0  0  0  0  0  0  0  0
    6.9540   -3.8925   22.3993 H   0  0  0  0  0  0  0  0  0  0  0  0
  1  2  1  0
  2  3  1  0
  3  4  1  0
  4  5  1  0
  5  6  2  0
  5  7  1  0
  7  8  2  0
  8  9  1  0
  9 10  2  0
 10 11  1  0
 11 12  1  0
 12 13  1  0
 13 14  2  0
 13 15  1  0
 15 16  2  0
 16 17  1  0
 11 18  1  0
 11 19  1  0
  9 20  1  0
  8 21  1  0
  3 22  1  0
 22 23  2  0
 23 24  1  0
 24 25  2  0
 25 26  1  0
 26 27  2  0
 27 28  1  0
 25 29  1  0
 24 30  1  0
 23 31  1  0
  3 32  1  0
  2 33  1  0
  2 34  1  0
  1 35  1  0
  1 36  1  0
  1 37  1  0
 16  7  1  0
 27 22  1  0
 15 10  1  0
M  END
>  <plip>  (1) 
-0.10714285714285714

>  <filename>  (1) 
[H][c]1[n][c]([H])[c]([C]([H])([O][C](=[O])[c]2[c]([H])[c]([H])[c]3[c]([c]2[H])[C](=[O])[O][C]3([H])[H])[C]([H])([H])[C]([H])([H])[H])[c]([H])[c]1[H]

$$$$
