
     RDKit          3D

 47 49  0  0  0  0  0  0  0  0999 V2000
    4.7880    1.5875   17.0090 H   0  0  0  0  0  0  0  0  0  0  0  0
    5.3619    1.2160   17.8533 C   0  0  0  0  0  0  0  0  0  0  0  0
    6.5730    0.7119   17.5715 N   0  0  0  0  0  0  0  0  0  0  0  0
    7.3161    0.2760   18.5971 C   0  0  0  0  0  0  0  0  0  0  0  0
    8.3004   -0.1023   18.3370 H   0  0  0  0  0  0  0  0  0  0  0  0
    6.9079    0.2826   19.9654 C   0  0  0  0  0  0  0  0  0  0  0  0
    7.7563   -0.1609   20.9821 N   0  0  0  0  0  0  0  0  0  0  0  0
    8.7423   -1.2493   20.7421 C   0  0  0  0  0  0  0  0  0  0  0  0
    9.7330   -0.8415   20.4847 H   0  0  0  0  0  0  0  0  0  0  0  0
    8.3903   -1.8918   19.9361 H   0  0  0  0  0  0  0  0  0  0  0  0
    8.7519   -1.9877   22.0963 C   0  0  2  0  0  0  0  0  0  0  0  0
    9.5891   -2.6600   22.2485 H   0  0  0  0  0  0  0  0  0  0  0  0
    7.4567   -2.7280   22.2098 N   0  0  0  0  0  0  0  0  0  0  0  0
    7.4882   -3.6151   23.3291 O   0  0  0  0  0  0  0  0  0  0  0  0
    6.5346   -4.6655   23.0961 C   0  0  0  0  0  0  0  0  0  0  0  0
    6.8889   -5.3038   22.2785 H   0  0  0  0  0  0  0  0  0  0  0  0
    5.5654   -4.2481   22.7887 H   0  0  0  0  0  0  0  0  0  0  0  0
    6.3242   -5.4980   24.3571 C   0  0  0  0  0  0  0  0  0  0  0  0
    5.9283   -6.4805   24.0354 H   0  0  0  0  0  0  0  0  0  0  0  0
    7.3113   -5.7003   24.7943 H   0  0  0  0  0  0  0  0  0  0  0  0
    5.4409   -4.8840   25.3537 N   0  0  0  0  0  0  0  0  0  0  0  0
    3.9963   -5.0608   25.1606 C   0  0  0  0  0  0  0  0  0  0  0  0
    3.8052   -5.7951   24.3641 H   0  0  0  0  0  0  0  0  0  0  0  0
    3.5332   -5.4894   26.0620 H   0  0  0  0  0  0  0  0  0  0  0  0
    3.2577   -3.7660   24.8123 C   0  0  0  0  0  0  0  0  0  0  0  0
    3.6975   -3.3072   23.9191 H   0  0  0  0  0  0  0  0  0  0  0  0
    3.3289   -3.0360   25.6272 H   0  0  0  0  0  0  0  0  0  0  0  0
    2.1967   -3.9818   24.6215 H   0  0  0  0  0  0  0  0  0  0  0  0
    5.9298   -4.9571   26.7302 C   0  0  0  0  0  0  0  0  0  0  0  0
    5.2882   -4.3279   27.3593 H   0  0  0  0  0  0  0  0  0  0  0  0
    6.9125   -4.4636   26.7468 H   0  0  0  0  0  0  0  0  0  0  0  0
    6.0366   -6.3654   27.3414 C   0  0  0  0  0  0  0  0  0  0  0  0
    5.0498   -6.7805   27.5800 H   0  0  0  0  0  0  0  0  0  0  0  0
    6.6304   -6.3454   28.2622 H   0  0  0  0  0  0  0  0  0  0  0  0
    6.5293   -7.0560   26.6495 H   0  0  0  0  0  0  0  0  0  0  0  0
    6.4749   -1.6365   22.5034 C   0  0  0  0  0  0  0  0  0  0  0  0
    5.6511   -1.6714   21.7830 H   0  0  0  0  0  0  0  0  0  0  0  0
    6.0882   -1.7407   23.5245 H   0  0  0  0  0  0  0  0  0  0  0  0
    7.3055   -0.3413   22.3794 C   0  0  1  0  0  0  0  0  0  0  0  0
    6.8171    0.5418   22.8001 H   0  0  0  0  0  0  0  0  0  0  0  0
    8.6120   -0.7838   23.0419 C   0  0  0  0  0  0  0  0  0  0  0  0
    8.5163   -1.0669   24.0926 H   0  0  0  0  0  0  0  0  0  0  0  0
    9.4051   -0.0426   22.9145 H   0  0  0  0  0  0  0  0  0  0  0  0
    5.6251    0.8099   20.2216 C   0  0  0  0  0  0  0  0  0  0  0  0
    5.2421    0.8382   21.2388 H   0  0  0  0  0  0  0  0  0  0  0  0
    4.8561    1.2867   19.1549 C   0  0  0  0  0  0  0  0  0  0  0  0
    3.8880    1.7435   19.3289 H   0  0  0  0  0  0  0  0  0  0  0  0
  1  2  1  0
  2  3  2  0
  3  4  1  0
  4  5  1  0
  4  6  2  0
  6  7  1  0
  7  8  1  0
  8  9  1  0
  8 10  1  0
  8 11  1  0
 11 12  1  1
 11 13  1  0
 13 14  1  0
 14 15  1  0
 15 16  1  0
 15 17  1  0
 15 18  1  0
 18 19  1  0
 18 20  1  0
 18 21  1  0
 21 22  1  0
 22 23  1  0
 22 24  1  0
 22 25  1  0
 25 26  1  0
 25 27  1  0
 25 28  1  0
 21 29  1  0
 29 30  1  0
 29 31  1  0
 29 32  1  0
 32 33  1  0
 32 34  1  0
 32 35  1  0
 13 36  1  0
 36 37  1  0
 36 38  1  0
 36 39  1  0
 39 40  1  1
 39 41  1  0
 41 42  1  0
 41 43  1  0
  6 44  1  0
 44 45  1  0
 44 46  2  0
 46 47  1  0
 46  2  1  0
 39  7  1  0
 41 11  1  0
M  END
>  <plip>  (1) 
-0.03333333333333333

>  <filename>  (1) 
[H][c]1[n][c]([H])[c]([N]2[C]([H])([H])[C@]3([H])[N]([O][C]([H])([H])[C]([H])([H])[N]([C]([H])([H])[C]([H])([H])[H])[C]([H])([H])[C]([H])([H])[H])[C]([H])([H])[C@@]2([H])[C]3([H])[H])[c]([H])[c]1[H]

$$$$
