
     RDKit          3D

 38 41  0  0  0  0  0  0  0  0999 V2000
    6.0153   -3.3402   20.0725 O   0  0  0  0  0  0  0  0  0  0  0  0
    5.8576   -2.9918   21.2304 C   0  0  0  0  0  0  0  0  0  0  0  0
    6.3744   -1.8349   21.7137 N   0  0  0  0  0  0  0  0  0  0  0  0
    7.2581   -0.9771   20.9508 C   0  0  0  0  0  0  0  0  0  0  0  0
    6.5233   -0.2450   19.8390 C   0  0  0  0  0  0  0  0  0  0  0  0
    5.3412    0.4752   20.0606 C   0  0  0  0  0  0  0  0  0  0  0  0
    4.8308    1.2569   19.0233 C   0  0  0  0  0  0  0  0  0  0  0  0
    5.5008    1.2712   17.7936 C   0  0  0  0  0  0  0  0  0  0  0  0
    6.6080    0.5551   17.5504 N   0  0  0  0  0  0  0  0  0  0  0  0
    7.0861   -0.1854   18.5604 C   0  0  0  0  0  0  0  0  0  0  0  0
    7.9784   -0.7741   18.3369 H   0  0  0  0  0  0  0  0  0  0  0  0
    5.1296    1.8773   16.9675 H   0  0  0  0  0  0  0  0  0  0  0  0
    3.9418    1.8632   19.1539 H   0  0  0  0  0  0  0  0  0  0  0  0
    4.8347    0.4215   21.0280 H   0  0  0  0  0  0  0  0  0  0  0  0
    7.8902    0.0087   21.9211 C   0  0  0  0  0  0  0  0  0  0  0  0
    9.1437   -0.2842   22.6957 C   0  0  0  0  0  0  0  0  0  0  0  0
    9.1584    0.7387   21.5912 C   0  0  0  0  0  0  0  0  0  0  0  0
    9.2303    1.7968   21.8328 H   0  0  0  0  0  0  0  0  0  0  0  0
    9.6668    0.4601   20.6698 H   0  0  0  0  0  0  0  0  0  0  0  0
    9.6612   -1.2250   22.5226 H   0  0  0  0  0  0  0  0  0  0  0  0
    9.1731    0.0494   23.7306 H   0  0  0  0  0  0  0  0  0  0  0  0
    7.1367    0.5921   22.4528 H   0  0  0  0  0  0  0  0  0  0  0  0
    8.0429   -1.5909   20.4786 H   0  0  0  0  0  0  0  0  0  0  0  0
    6.3016   -1.6672   22.6983 H   0  0  0  0  0  0  0  0  0  0  0  0
    5.0722   -3.7787   22.2442 C   0  0  0  0  0  0  0  0  0  0  0  0
    4.6655   -3.5361   23.5282 C   0  0  0  0  0  0  0  0  0  0  0  0
    3.6952   -4.5525   23.8399 C   0  0  0  0  0  0  0  0  0  0  0  0
    3.7038   -5.4140   22.7317 C   0  0  0  0  0  0  0  0  0  0  0  0
    4.5412   -4.9556   21.7781 O   0  0  0  0  0  0  0  0  0  0  0  0
    2.8550   -6.5249   22.6716 C   0  0  0  0  0  0  0  0  0  0  0  0
    2.8883   -7.3784   21.6443 F   0  0  0  0  0  0  0  0  0  0  0  0
    1.9440   -6.7276   23.6929 C   0  0  0  0  0  0  0  0  0  0  0  0
    1.8830   -5.8338   24.7854 C   0  0  0  0  0  0  0  0  0  0  0  0
    2.7623   -4.7624   24.8832 C   0  0  0  0  0  0  0  0  0  0  0  0
    2.7520   -4.1150   25.7533 H   0  0  0  0  0  0  0  0  0  0  0  0
    1.1215   -5.9853   25.5465 H   0  0  0  0  0  0  0  0  0  0  0  0
    1.2769   -7.5765   23.5931 H   0  0  0  0  0  0  0  0  0  0  0  0
    4.9994   -2.7790   24.2291 H   0  0  0  0  0  0  0  0  0  0  0  0
  1  2  2  0
  2  3  1  0
  3  4  1  0
  4  5  1  0
  5  6  2  0
  6  7  1  0
  7  8  2  0
  8  9  1  0
  9 10  2  0
 10 11  1  0
  8 12  1  0
  7 13  1  0
  6 14  1  0
  4 15  1  0
 15 16  1  0
 16 17  1  0
 17 18  1  0
 17 19  1  0
 16 20  1  0
 16 21  1  0
 15 22  1  0
  4 23  1  0
  3 24  1  0
  2 25  1  0
 25 26  2  0
 26 27  1  0
 27 28  2  0
 28 29  1  0
 28 30  1  0
 30 31  1  0
 30 32  2  0
 32 33  1  0
 33 34  2  0
 34 35  1  0
 33 36  1  0
 32 37  1  0
 26 38  1  0
 10  5  1  0
 17 15  1  0
 29 25  1  0
 34 27  1  0
M  END
>  <plip>  (1) 
-0.1724137931034483

>  <filename>  (1) 
[H][c]1[n][c]([H])[c]([C]([H])([N]([H])[C](=[O])[c]2[o][c]3[c]([F])[c]([H])[c]([H])[c]([H])[c]3[c]2[H])[C]2([H])[C]([H])([H])[C]2([H])[H])[c]([H])[c]1[H]

$$$$
