
     RDKit          3D

 34 36  0  0  0  0  0  0  0  0999 V2000
    9.1406   -2.0157   20.8676 C   0  0  0  0  0  0  0  0  0  0  0  0
    7.6154   -2.0693   20.9814 C   0  0  0  0  0  0  0  0  0  0  0  0
    7.0406   -0.7239   21.1531 N   0  0  0  0  0  0  0  0  0  0  0  0
    7.2386   -0.1549   22.4185 C   0  0  0  0  0  0  0  0  0  0  0  0
    7.3835   -0.8726   23.3966 O   0  0  0  0  0  0  0  0  0  0  0  0
    7.3760    1.3465   22.5099 C   0  0  0  0  0  0  0  0  0  0  0  0
    7.6388    2.3553   21.6269 C   0  0  0  0  0  0  0  0  0  0  0  0
    7.8446    3.5435   22.4103 C   0  0  0  0  0  0  0  0  0  0  0  0
    8.2697    4.8656   22.1513 C   0  0  0  0  0  0  0  0  0  0  0  0
    8.4865    5.7081   23.2374 C   0  0  0  0  0  0  0  0  0  0  0  0
    9.2104    7.2750   22.9973 Cl  0  0  0  0  0  0  0  0  0  0  0  0
    8.2049    5.3106   24.5644 C   0  0  0  0  0  0  0  0  0  0  0  0
    7.7875    4.0052   24.8281 C   0  0  0  0  0  0  0  0  0  0  0  0
    7.6499    3.1388   23.7387 C   0  0  0  0  0  0  0  0  0  0  0  0
    7.3583    1.8233   23.7965 O   0  0  0  0  0  0  0  0  0  0  0  0
    7.5733    3.6395   25.8239 H   0  0  0  0  0  0  0  0  0  0  0  0
    8.3162    6.0338   25.3721 H   0  0  0  0  0  0  0  0  0  0  0  0
    8.3900    5.2293   21.1381 H   0  0  0  0  0  0  0  0  0  0  0  0
    7.6987    2.2828   20.5494 H   0  0  0  0  0  0  0  0  0  0  0  0
    6.4523   -0.0702   20.0224 C   0  0  0  0  0  0  0  0  0  0  0  0
    5.2520    0.6507   20.1450 C   0  0  0  0  0  0  0  0  0  0  0  0
    4.7673    1.3281   19.0194 C   0  0  0  0  0  0  0  0  0  0  0  0
    5.4654    1.2495   17.8091 C   0  0  0  0  0  0  0  0  0  0  0  0
    6.5895    0.5296   17.6591 N   0  0  0  0  0  0  0  0  0  0  0  0
    7.0538   -0.1113   18.7411 C   0  0  0  0  0  0  0  0  0  0  0  0
    7.9671   -0.6883   18.6058 H   0  0  0  0  0  0  0  0  0  0  0  0
    5.1136    1.7835   16.9278 H   0  0  0  0  0  0  0  0  0  0  0  0
    3.8709    1.9370   19.0747 H   0  0  0  0  0  0  0  0  0  0  0  0
    4.7365    0.7007   21.1064 H   0  0  0  0  0  0  0  0  0  0  0  0
    7.1288   -2.4975   20.1017 H   0  0  0  0  0  0  0  0  0  0  0  0
    7.3253   -2.6761   21.8462 H   0  0  0  0  0  0  0  0  0  0  0  0
    9.5933   -1.7635   21.8331 H   0  0  0  0  0  0  0  0  0  0  0  0
    9.4581   -1.2583   20.1432 H   0  0  0  0  0  0  0  0  0  0  0  0
    9.5440   -2.9796   20.5518 H   0  0  0  0  0  0  0  0  0  0  0  0
  1  2  1  0
  2  3  1  0
  3  4  1  0
  4  5  2  0
  4  6  1  0
  6  7  2  0
  7  8  1  0
  8  9  2  0
  9 10  1  0
 10 11  1  0
 10 12  2  0
 12 13  1  0
 13 14  2  0
 14 15  1  0
 13 16  1  0
 12 17  1  0
  9 18  1  0
  7 19  1  0
  3 20  1  0
 20 21  2  0
 21 22  1  0
 22 23  2  0
 23 24  1  0
 24 25  2  0
 25 26  1  0
 23 27  1  0
 22 28  1  0
 21 29  1  0
  2 30  1  0
  2 31  1  0
  1 32  1  0
  1 33  1  0
  1 34  1  0
 15  6  1  0
 25 20  1  0
 14  8  1  0
M  END
>  <plip>  (1) 
-0.07142857142857142

>  <filename>  (1) 
[H][c]1[n][c]([H])[c]([N]([C](=[O])[c]2[o][c]3[c]([H])[c]([H])[c]([Cl])[c]([H])[c]3[c]2[H])[C]([H])([H])[C]([H])([H])[H])[c]([H])[c]1[H]

$$$$
