
     RDKit          3D

 33 34  0  0  0  0  0  0  0  0999 V2000
   12.0044   -1.6183   21.7372 C   0  0  0  0  0  0  0  0  0  0  0  0
   10.6336   -1.0961   22.1716 C   0  0  0  0  0  0  0  0  0  0  0  0
    9.9123   -0.3784   21.0267 C   0  0  0  0  0  0  0  0  0  0  0  0
    8.5964    0.1140   21.4091 N   0  0  0  0  0  0  0  0  0  0  0  0
    7.4012   -0.6342   21.0474 C   0  0  0  0  0  0  0  0  0  0  0  0
    6.6351    0.0305   19.9269 C   0  0  0  0  0  0  0  0  0  0  0  0
    5.4075    0.6707   20.1452 C   0  0  0  0  0  0  0  0  0  0  0  0
    4.7750    1.3128   19.0780 C   0  0  0  0  0  0  0  0  0  0  0  0
    5.3982    1.2902   17.8273 C   0  0  0  0  0  0  0  0  0  0  0  0
    6.5678    0.6765   17.5954 N   0  0  0  0  0  0  0  0  0  0  0  0
    7.1681    0.0762   18.6301 C   0  0  0  0  0  0  0  0  0  0  0  0
    8.1162   -0.4136   18.3939 H   0  0  0  0  0  0  0  0  0  0  0  0
    4.9434    1.7927   16.9748 H   0  0  0  0  0  0  0  0  0  0  0  0
    3.8416    1.8535   19.2097 H   0  0  0  0  0  0  0  0  0  0  0  0
    4.9797    0.6786   21.1495 H   0  0  0  0  0  0  0  0  0  0  0  0
    6.7537   -0.7538   21.9284 H   0  0  0  0  0  0  0  0  0  0  0  0
    7.7297   -1.6371   20.7336 H   0  0  0  0  0  0  0  0  0  0  0  0
    8.4870    1.2727   22.1028 C   0  0  0  0  0  0  0  0  0  0  0  0
    9.6118    1.9878   22.2808 N   0  0  0  0  0  0  0  0  0  0  0  0
    9.5152    3.1155   22.9676 C   0  0  0  0  0  0  0  0  0  0  0  0
    8.3051    3.5495   23.4916 C   0  0  0  0  0  0  0  0  0  0  0  0
    8.2111    4.6847   24.1931 F   0  0  0  0  0  0  0  0  0  0  0  0
    7.1954    2.7477   23.2524 C   0  0  0  0  0  0  0  0  0  0  0  0
    7.2754    1.6085   22.5766 N   0  0  0  0  0  0  0  0  0  0  0  0
    6.2141    3.0399   23.6299 H   0  0  0  0  0  0  0  0  0  0  0  0
   10.4286    3.6942   23.1241 H   0  0  0  0  0  0  0  0  0  0  0  0
   10.5118    0.4814   20.7118 H   0  0  0  0  0  0  0  0  0  0  0  0
    9.7729   -1.0538   20.1658 H   0  0  0  0  0  0  0  0  0  0  0  0
   10.7415   -0.3938   23.0103 H   0  0  0  0  0  0  0  0  0  0  0  0
   10.0064   -1.9220   22.5337 H   0  0  0  0  0  0  0  0  0  0  0  0
   12.5006   -2.1587   22.5458 H   0  0  0  0  0  0  0  0  0  0  0  0
   11.9217   -2.2962   20.8852 H   0  0  0  0  0  0  0  0  0  0  0  0
   12.6684   -0.8045   21.4267 H   0  0  0  0  0  0  0  0  0  0  0  0
  1  2  1  0
  2  3  1  0
  3  4  1  0
  4  5  1  0
  5  6  1  0
  6  7  2  0
  7  8  1  0
  8  9  2  0
  9 10  1  0
 10 11  2  0
 11 12  1  0
  9 13  1  0
  8 14  1  0
  7 15  1  0
  5 16  1  0
  5 17  1  0
  4 18  1  0
 18 19  2  0
 19 20  1  0
 20 21  2  0
 21 22  1  0
 21 23  1  0
 23 24  2  0
 23 25  1  0
 20 26  1  0
  3 27  1  0
  3 28  1  0
  2 29  1  0
  2 30  1  0
  1 31  1  0
  1 32  1  0
  1 33  1  0
 11  6  1  0
 24 18  1  0
M  END
>  <plip>  (1) 
-0.03571428571428571

>  <filename>  (1) 
[H][c]1[n][c]([H])[c]([C]([H])([H])[N]([c]2[n][c]([H])[c]([F])[c]([H])[n]2)[C]([H])([H])[C]([H])([H])[C]([H])([H])[H])[c]([H])[c]1[H]

$$$$
