
     RDKit          3D

 34 36  0  0  0  0  0  0  0  0999 V2000
    4.2054   -6.0447   26.9875 C   0  0  0  0  0  0  0  0  0  0  0  0
    4.6715   -6.6070   25.8016 C   0  0  0  0  0  0  0  0  0  0  0  0
    5.0573   -5.7544   24.7656 C   0  0  0  0  0  0  0  0  0  0  0  0
    4.9818   -4.3661   24.9642 C   0  0  0  0  0  0  0  0  0  0  0  0
    5.4213   -3.3792   23.8799 C   0  0  0  0  0  0  0  0  0  0  0  0
    6.8564   -3.2477   23.6122 N   0  0  0  0  0  0  0  0  0  0  0  0
    7.3619   -2.2819   22.7845 C   0  0  0  0  0  0  0  0  0  0  0  0
    6.6604   -1.5740   21.8025 C   0  0  0  0  0  0  0  0  0  0  0  0
    7.3658   -0.7168   20.9617 C   0  0  0  0  0  0  0  0  0  0  0  0
    6.6503    0.0221   19.8871 C   0  0  0  0  0  0  0  0  0  0  0  0
    5.4243    0.6692   20.1173 C   0  0  0  0  0  0  0  0  0  0  0  0
    4.8017    1.3325   19.0608 C   0  0  0  0  0  0  0  0  0  0  0  0
    5.4091    1.3127   17.8014 C   0  0  0  0  0  0  0  0  0  0  0  0
    6.5679    0.6839   17.5519 N   0  0  0  0  0  0  0  0  0  0  0  0
    7.1664    0.0688   18.5816 C   0  0  0  0  0  0  0  0  0  0  0  0
    8.1024   -0.4396   18.3493 H   0  0  0  0  0  0  0  0  0  0  0  0
    4.9436    1.8197   16.9592 H   0  0  0  0  0  0  0  0  0  0  0  0
    3.8650    1.8571   19.1985 H   0  0  0  0  0  0  0  0  0  0  0  0
    4.9862    0.6678   21.1165 H   0  0  0  0  0  0  0  0  0  0  0  0
    8.7474   -0.5987   21.1667 C   0  0  0  0  0  0  0  0  0  0  0  0
    9.3290   -1.3042   22.2192 C   0  0  0  0  0  0  0  0  0  0  0  0
    8.6661   -2.1228   23.0290 N   0  0  0  0  0  0  0  0  0  0  0  0
   10.3946   -1.2250   22.4242 H   0  0  0  0  0  0  0  0  0  0  0  0
    9.3676    0.0351   20.5511 H   0  0  0  0  0  0  0  0  0  0  0  0
    5.5942   -1.7013   21.7014 H   0  0  0  0  0  0  0  0  0  0  0  0
    7.5521   -3.2762   24.3500 H   0  0  0  0  0  0  0  0  0  0  0  0
    4.9898   -2.4240   24.1837 H   0  0  0  0  0  0  0  0  0  0  0  0
    4.9546   -3.6947   22.9365 H   0  0  0  0  0  0  0  0  0  0  0  0
    4.4526   -3.8323   26.0809 N   0  0  0  0  0  0  0  0  0  0  0  0
    4.0917   -4.6566   27.0691 C   0  0  0  0  0  0  0  0  0  0  0  0
    3.6900   -4.1865   27.9648 H   0  0  0  0  0  0  0  0  0  0  0  0
    5.4198   -6.1470   23.8260 H   0  0  0  0  0  0  0  0  0  0  0  0
    4.7380   -7.6837   25.6805 H   0  0  0  0  0  0  0  0  0  0  0  0
    3.9172   -6.6630   27.8285 H   0  0  0  0  0  0  0  0  0  0  0  0
  1  2  2  0
  2  3  1  0
  3  4  2  0
  4  5  1  0
  5  6  1  0
  6  7  1  0
  7  8  2  0
  8  9  1  0
  9 10  1  0
 10 11  2  0
 11 12  1  0
 12 13  2  0
 13 14  1  0
 14 15  2  0
 15 16  1  0
 13 17  1  0
 12 18  1  0
 11 19  1  0
  9 20  2  0
 20 21  1  0
 21 22  2  0
 21 23  1  0
 20 24  1  0
  8 25  1  0
  6 26  1  0
  5 27  1  0
  5 28  1  0
  4 29  1  0
 29 30  2  0
 30 31  1  0
  3 32  1  0
  2 33  1  0
  1 34  1  0
 30  1  1  0
 22  7  1  0
 15 10  1  0
M  END
>  <plip>  (1) 
-0.07142857142857142

>  <filename>  (1) 
[H][c]1[n][c]([C]([H])([H])[N]([H])[c]2[n][c]([H])[c]([H])[c](-[c]3[c]([H])[n][c]([H])[c]([H])[c]3[H])[c]2[H])[c]([H])[c]([H])[c]1[H]

$$$$
