
     RDKit          3D

 28 30  0  0  0  0  0  0  0  0999 V2000
    9.4577   -0.2751   20.1322 O   0  0  0  0  0  0  0  0  0  0  0  0
    8.6602   -0.9255   20.7864 C   0  0  0  0  0  0  0  0  0  0  0  0
    7.2995   -0.7768   20.6385 N   0  0  0  0  0  0  0  0  0  0  0  0
    6.6242   -0.0115   19.6581 C   0  0  0  0  0  0  0  0  0  0  0  0
    5.4246    0.6171   20.0077 C   0  0  0  0  0  0  0  0  0  0  0  0
    4.7399    1.3463   19.0300 C   0  0  0  0  0  0  0  0  0  0  0  0
    5.2721    1.4238   17.7388 C   0  0  0  0  0  0  0  0  0  0  0  0
    6.4184    0.8228   17.3848 N   0  0  0  0  0  0  0  0  0  0  0  0
    7.0808    0.1360   18.3229 C   0  0  0  0  0  0  0  0  0  0  0  0
    8.0182   -0.3226   18.0226 H   0  0  0  0  0  0  0  0  0  0  0  0
    4.7696    1.9872   16.9562 H   0  0  0  0  0  0  0  0  0  0  0  0
    3.8153    1.8637   19.2543 H   0  0  0  0  0  0  0  0  0  0  0  0
    5.0615    0.5584   21.0344 H   0  0  0  0  0  0  0  0  0  0  0  0
    6.7387   -1.1107   21.4038 H   0  0  0  0  0  0  0  0  0  0  0  0
    9.1062   -1.9487   21.8069 C   0  0  0  0  0  0  0  0  0  0  0  0
   10.5096   -2.1072   21.9573 C   0  0  0  0  0  0  0  0  0  0  0  0
   11.0400   -2.9560   22.9089 C   0  0  0  0  0  0  0  0  0  0  0  0
   10.1744   -3.7050   23.7380 C   0  0  0  0  0  0  0  0  0  0  0  0
   10.4864   -4.5744   24.8454 C   0  0  0  0  0  0  0  0  0  0  0  0
    9.3828   -5.1567   25.3672 C   0  0  0  0  0  0  0  0  0  0  0  0
    7.9076   -4.6868   24.5728 S   0  0  0  0  0  0  0  0  0  0  0  0
    8.7840   -3.6303   23.5090 C   0  0  0  0  0  0  0  0  0  0  0  0
    8.2425   -2.7474   22.5628 C   0  0  0  0  0  0  0  0  0  0  0  0
    7.1606   -2.7276   22.4427 H   0  0  0  0  0  0  0  0  0  0  0  0
    9.3242   -5.8284   26.2139 H   0  0  0  0  0  0  0  0  0  0  0  0
   11.4913   -4.6903   25.2489 H   0  0  0  0  0  0  0  0  0  0  0  0
   12.1122   -3.0814   22.9994 H   0  0  0  0  0  0  0  0  0  0  0  0
   11.1714   -1.5686   21.2811 H   0  0  0  0  0  0  0  0  0  0  0  0
  1  2  2  0
  2  3  1  0
  3  4  1  0
  4  5  2  0
  5  6  1  0
  6  7  2  0
  7  8  1  0
  8  9  2  0
  9 10  1  0
  7 11  1  0
  6 12  1  0
  5 13  1  0
  3 14  1  0
  2 15  1  0
 15 16  2  0
 16 17  1  0
 17 18  2  0
 18 19  1  0
 19 20  2  0
 20 21  1  0
 21 22  1  0
 22 23  2  0
 23 24  1  0
 20 25  1  0
 19 26  1  0
 17 27  1  0
 16 28  1  0
  9  4  1  0
 23 15  1  0
 22 18  1  0
M  END
>  <plip>  (1) 
-0.10714285714285714

>  <filename>  (1) 
[H][c]1[n][c]([H])[c]([N]([H])[C](=[O])[c]2[c]([H])[c]([H])[c]3[c]([H])[c]([H])[s][c]3[c]2[H])[c]([H])[c]1[H]

$$$$
