
     RDKit          3D

 27 28  0  0  0  0  0  0  0  0999 V2000
    4.9179    1.7981   16.9856 H   0  0  0  0  0  0  0  0  0  0  0  0
    5.3972    1.3029   17.8272 C   0  0  0  0  0  0  0  0  0  0  0  0
    6.5541    0.6827   17.5562 N   0  0  0  0  0  0  0  0  0  0  0  0
    7.1487    0.0512   18.5782 C   0  0  0  0  0  0  0  0  0  0  0  0
    8.1081   -0.4159   18.3564 H   0  0  0  0  0  0  0  0  0  0  0  0
    6.6409   -0.0269   19.8905 C   0  0  0  0  0  0  0  0  0  0  0  0
    7.4005   -0.7360   20.9936 C   0  0  0  0  0  0  0  0  0  0  0  0
    7.9559   -1.5885   20.5781 H   0  0  0  0  0  0  0  0  0  0  0  0
    6.6852   -1.1462   21.7172 H   0  0  0  0  0  0  0  0  0  0  0  0
    8.4052    0.1539   21.7963 C   0  0  2  0  0  0  0  0  0  0  0  0
    8.8255   -0.4703   22.5945 H   0  0  0  0  0  0  0  0  0  0  0  0
    7.7155    1.3148   22.4689 C   0  0  0  0  0  0  0  0  0  0  0  0
    7.4389    2.5513   21.9733 C   0  0  0  0  0  0  0  0  0  0  0  0
    7.6428    3.0396   21.0389 H   0  0  0  0  0  0  0  0  0  0  0  0
    6.6921    3.2679   22.8463 O   0  0  0  0  0  0  0  0  0  0  0  0
    6.4874    2.4845   23.9308 C   0  0  0  0  0  0  0  0  0  0  0  0
    5.9284    2.9468   24.7316 H   0  0  0  0  0  0  0  0  0  0  0  0
    7.0785    1.2793   23.7558 C   0  0  0  0  0  0  0  0  0  0  0  0
    7.0712    0.4450   24.4437 H   0  0  0  0  0  0  0  0  0  0  0  0
    9.5537    0.6358   20.9191 C   0  0  0  0  0  0  0  0  0  0  0  0
    9.1213    1.2411   20.1295 H   0  0  0  0  0  0  0  0  0  0  0  0
   10.2694    1.2451   21.4829 H   0  0  0  0  0  0  0  0  0  0  0  0
   10.0886   -0.1983   20.4487 H   0  0  0  0  0  0  0  0  0  0  0  0
    5.4279    0.6322   20.1434 C   0  0  0  0  0  0  0  0  0  0  0  0
    5.0192    0.6429   21.1603 H   0  0  0  0  0  0  0  0  0  0  0  0
    4.8031    1.3127   19.0952 C   0  0  0  0  0  0  0  0  0  0  0  0
    3.8730    1.8464   19.2455 H   0  0  0  0  0  0  0  0  0  0  0  0
  1  2  1  0
  2  3  2  0
  3  4  1  0
  4  5  1  0
  4  6  2  0
  6  7  1  0
  7  8  1  0
  7  9  1  0
  7 10  1  0
 10 11  1  1
 10 12  1  0
 12 13  2  0
 13 14  1  0
 13 15  1  0
 15 16  1  0
 16 17  1  0
 16 18  2  0
 18 19  1  0
 10 20  1  0
 20 21  1  0
 20 22  1  0
 20 23  1  0
  6 24  1  0
 24 25  1  0
 24 26  2  0
 26 27  1  0
 26  2  1  0
 18 12  1  0
M  END
>  <plip>  (1) 
-0.03571428571428571

>  <filename>  (1) 
[H][c]1[n][c]([H])[c]([C]([H])([H])[C@]([H])([c]2[c]([H])[o][c]([H])[c]2[H])[C]([H])([H])[H])[c]([H])[c]1[H]

$$$$
