
     RDKit          3D

 33 35  0  0  0  0  0  0  0  0999 V2000
    9.0056   -3.2216   22.7926 H   0  0  0  0  0  0  0  0  0  0  0  0
    8.4980   -2.3343   22.4254 C   0  0  0  0  0  0  0  0  0  0  0  0
    8.2315   -1.2757   23.1168 N   0  0  0  0  0  0  0  0  0  0  0  0
    7.6025   -0.3202   22.3263 C   0  0  0  0  0  0  0  0  0  0  0  0
    7.2675    1.0498   22.8436 C   0  0  0  0  0  0  0  0  0  0  0  0
    7.3230    2.0188   22.1012 O   0  0  0  0  0  0  0  0  0  0  0  0
    6.8583    1.2152   24.2795 C   0  0  0  0  0  0  0  0  0  0  0  0
    7.0987    2.4515   24.9112 C   0  0  0  0  0  0  0  0  0  0  0  0
    7.5568    3.2523   24.3348 H   0  0  0  0  0  0  0  0  0  0  0  0
    6.7531    2.6405   26.2389 C   0  0  0  0  0  0  0  0  0  0  0  0
    6.9249    3.5830   26.7514 H   0  0  0  0  0  0  0  0  0  0  0  0
    6.1457    1.5984   26.9611 C   0  0  0  0  0  0  0  0  0  0  0  0
    5.8480    1.8941   28.2503 O   0  0  0  0  0  0  0  0  0  0  0  0
    5.2430    0.9242   29.0820 C   0  0  0  0  0  0  0  0  0  0  0  0
    4.2595    0.6092   28.7039 H   0  0  0  0  0  0  0  0  0  0  0  0
    5.8747    0.0331   29.2092 H   0  0  0  0  0  0  0  0  0  0  0  0
    5.1206    1.4252   30.0430 H   0  0  0  0  0  0  0  0  0  0  0  0
    5.8829    0.3711   26.3412 C   0  0  0  0  0  0  0  0  0  0  0  0
    5.4275   -0.4390   26.9007 H   0  0  0  0  0  0  0  0  0  0  0  0
    6.2353    0.1878   25.0045 C   0  0  0  0  0  0  0  0  0  0  0  0
    6.0492   -0.7719   24.5277 H   0  0  0  0  0  0  0  0  0  0  0  0
    7.3614   -0.6971   21.0117 C   0  0  0  0  0  0  0  0  0  0  0  0
    6.6603    0.0074   19.9182 C   0  0  0  0  0  0  0  0  0  0  0  0
    7.1657    0.0534   18.5957 C   0  0  0  0  0  0  0  0  0  0  0  0
    8.1188   -0.4178   18.3561 H   0  0  0  0  0  0  0  0  0  0  0  0
    6.5587    0.6708   17.5738 N   0  0  0  0  0  0  0  0  0  0  0  0
    5.3947    1.2925   17.8305 C   0  0  0  0  0  0  0  0  0  0  0  0
    4.9277    1.7982   16.9853 H   0  0  0  0  0  0  0  0  0  0  0  0
    4.7982    1.3033   19.0914 C   0  0  0  0  0  0  0  0  0  0  0  0
    3.8731    1.8412   19.2456 H   0  0  0  0  0  0  0  0  0  0  0  0
    5.4341    0.6454   20.1462 C   0  0  0  0  0  0  0  0  0  0  0  0
    5.0038    0.6391   21.1470 H   0  0  0  0  0  0  0  0  0  0  0  0
    7.9780   -2.2783   20.8015 S   0  0  0  0  0  0  0  0  0  0  0  0
  1  2  1  0
  2  3  2  0
  3  4  1  0
  4  5  1  0
  5  6  2  0
  5  7  1  0
  7  8  2  0
  8  9  1  0
  8 10  1  0
 10 11  1  0
 10 12  2  0
 12 13  1  0
 13 14  1  0
 14 15  1  0
 14 16  1  0
 14 17  1  0
 12 18  1  0
 18 19  1  0
 18 20  2  0
 20 21  1  0
  4 22  2  0
 22 23  1  0
 23 24  2  0
 24 25  1  0
 24 26  1  0
 26 27  2  0
 27 28  1  0
 27 29  1  0
 29 30  1  0
 29 31  2  0
 31 32  1  0
 22 33  1  0
 33  2  1  0
 20  7  1  0
 31 23  1  0
M  END
>  <plip>  (1) 
-0.0

>  <filename>  (1) 
[H][c]1[n][c]([C](=[O])[c]2[c]([H])[c]([H])[c]([O][C]([H])([H])[H])[c]([H])[c]2[H])[c](-[c]2[c]([H])[n][c]([H])[c]([H])[c]2[H])[s]1

$$$$
