
     RDKit          3D

 44 45  0  0  0  0  0  0  0  0999 V2000
    4.9186    1.7751   16.9995 H   0  0  0  0  0  0  0  0  0  0  0  0
    5.4054    1.2907   17.8421 C   0  0  0  0  0  0  0  0  0  0  0  0
    6.5705    0.6729   17.5870 N   0  0  0  0  0  0  0  0  0  0  0  0
    7.1705    0.0594   18.6127 C   0  0  0  0  0  0  0  0  0  0  0  0
    8.1149   -0.4306   18.3754 H   0  0  0  0  0  0  0  0  0  0  0  0
    6.6367    0.0044   19.9098 C   0  0  0  0  0  0  0  0  0  0  0  0
    7.3330   -0.7212   20.9959 C   0  0  0  0  0  0  0  0  0  0  0  0
    6.5869   -1.2869   21.9224 N   0  0  0  0  0  0  0  0  0  0  0  0
    7.1959   -1.9826   22.9226 N   0  0  0  0  0  0  0  0  0  0  0  0
    6.3023   -2.5371   23.9564 C   0  0  0  0  0  0  0  0  0  0  0  0
    6.7548   -3.4605   24.3236 H   0  0  0  0  0  0  0  0  0  0  0  0
    5.3494   -2.7928   23.4831 H   0  0  0  0  0  0  0  0  0  0  0  0
    6.0840   -1.5707   25.1189 C   0  0  0  0  0  0  0  0  0  0  0  0
    5.6601   -0.6397   24.7216 H   0  0  0  0  0  0  0  0  0  0  0  0
    7.0511   -1.3201   25.5720 H   0  0  0  0  0  0  0  0  0  0  0  0
    5.1558   -2.1411   26.1884 C   0  0  0  0  0  0  0  0  0  0  0  0
    5.5723   -3.0828   26.5750 H   0  0  0  0  0  0  0  0  0  0  0  0
    4.1860   -2.3995   25.7376 H   0  0  0  0  0  0  0  0  0  0  0  0
    4.9245   -1.1661   27.3406 C   0  0  0  0  0  0  0  0  0  0  0  0
    5.8841   -0.9586   27.8369 H   0  0  0  0  0  0  0  0  0  0  0  0
    4.5811   -0.2059   26.9338 H   0  0  0  0  0  0  0  0  0  0  0  0
    3.9161   -1.6606   28.3769 C   0  0  0  0  0  0  0  0  0  0  0  0
    2.9778   -1.9170   27.8652 H   0  0  0  0  0  0  0  0  0  0  0  0
    3.6741   -0.8361   29.0595 H   0  0  0  0  0  0  0  0  0  0  0  0
    4.4081   -2.8553   29.1970 C   0  0  0  0  0  0  0  0  0  0  0  0
    5.4120   -2.6326   29.5762 H   0  0  0  0  0  0  0  0  0  0  0  0
    4.5174   -3.7363   28.5491 H   0  0  0  0  0  0  0  0  0  0  0  0
    3.5026   -3.2102   30.3756 C   0  0  0  0  0  0  0  0  0  0  0  0
    4.0107   -3.9443   31.0115 H   0  0  0  0  0  0  0  0  0  0  0  0
    3.3580   -2.3172   30.9984 H   0  0  0  0  0  0  0  0  0  0  0  0
    2.1456   -3.7624   29.9531 C   0  0  0  0  0  0  0  0  0  0  0  0
    2.2707   -4.6231   29.2868 H   0  0  0  0  0  0  0  0  0  0  0  0
    1.5538   -3.0132   29.4171 H   0  0  0  0  0  0  0  0  0  0  0  0
    1.5668   -4.0894   30.8205 H   0  0  0  0  0  0  0  0  0  0  0  0
    8.5900   -2.0727   23.1317 C   0  0  0  0  0  0  0  0  0  0  0  0
    9.0847   -2.6631   24.0832 O   0  0  0  0  0  0  0  0  0  0  0  0
    9.3742   -1.4098   22.0854 C   0  0  0  0  0  0  0  0  0  0  0  0
   10.4476   -1.4896   22.2066 H   0  0  0  0  0  0  0  0  0  0  0  0
    8.7726   -0.7633   21.0526 C   0  0  0  0  0  0  0  0  0  0  0  0
    9.3604   -0.2451   20.2945 H   0  0  0  0  0  0  0  0  0  0  0  0
    5.4224    0.6554   20.1599 C   0  0  0  0  0  0  0  0  0  0  0  0
    4.9995    0.6280   21.1663 H   0  0  0  0  0  0  0  0  0  0  0  0
    4.8027    1.3173   19.1051 C   0  0  0  0  0  0  0  0  0  0  0  0
    3.8703    1.8480   19.2582 H   0  0  0  0  0  0  0  0  0  0  0  0
  1  2  1  0
  2  3  2  0
  3  4  1  0
  4  5  1  0
  4  6  2  0
  6  7  1  0
  7  8  2  0
  8  9  1  0
  9 10  1  0
 10 11  1  0
 10 12  1  0
 10 13  1  0
 13 14  1  0
 13 15  1  0
 13 16  1  0
 16 17  1  0
 16 18  1  0
 16 19  1  0
 19 20  1  0
 19 21  1  0
 19 22  1  0
 22 23  1  0
 22 24  1  0
 22 25  1  0
 25 26  1  0
 25 27  1  0
 25 28  1  0
 28 29  1  0
 28 30  1  0
 28 31  1  0
 31 32  1  0
 31 33  1  0
 31 34  1  0
  9 35  1  0
 35 36  2  0
 35 37  1  0
 37 38  1  0
 37 39  2  0
 39 40  1  0
  6 41  1  0
 41 42  1  0
 41 43  2  0
 43 44  1  0
 43  2  1  0
 39  7  1  0
M  END
>  <plip>  (1) 
-0.03571428571428571

>  <filename>  (1) 
[H][c]1[n][c]([H])[c](-[c]2[n][n]([C]([H])([H])[C]([H])([H])[C]([H])([H])[C]([H])([H])[C]([H])([H])[C]([H])([H])[C]([H])([H])[C]([H])([H])[H])[c](=[O])[c]([H])[c]2[H])[c]([H])[c]1[H]

$$$$
