
     RDKit          3D

 28 30  0  0  0  0  0  0  0  0999 V2000
    4.8468    1.9254   16.7598 H   0  0  0  0  0  0  0  0  0  0  0  0
    5.2690    1.4024   17.6154 C   0  0  0  0  0  0  0  0  0  0  0  0
    6.4188    0.7449   17.3943 N   0  0  0  0  0  0  0  0  0  0  0  0
    7.0247    0.1664   18.4391 C   0  0  0  0  0  0  0  0  0  0  0  0
    7.9421   -0.3816   18.2356 H   0  0  0  0  0  0  0  0  0  0  0  0
    6.5380    0.2325   19.7625 C   0  0  0  0  0  0  0  0  0  0  0  0
    7.2654   -0.1476   20.8909 N   0  0  0  0  0  0  0  0  0  0  0  0
    6.6662   -0.5246   21.6232 H   0  0  0  0  0  0  0  0  0  0  0  0
    8.4720   -0.8530   20.7347 N   0  0  0  0  0  0  0  0  0  0  0  0
    9.2940   -0.2521   20.6688 H   0  0  0  0  0  0  0  0  0  0  0  0
    8.7049   -1.8335   21.6712 C   0  0  0  0  0  0  0  0  0  0  0  0
   10.0235   -2.1444   21.8020 O   0  0  0  0  0  0  0  0  0  0  0  0
   10.0967   -2.9868   22.8831 C   0  0  0  0  0  0  0  0  0  0  0  0
   11.2490   -3.4846   23.4729 C   0  0  0  0  0  0  0  0  0  0  0  0
   12.2229   -3.2337   23.0740 H   0  0  0  0  0  0  0  0  0  0  0  0
   11.0825   -4.3723   24.5391 C   0  0  0  0  0  0  0  0  0  0  0  0
   11.9435   -4.8621   24.9786 H   0  0  0  0  0  0  0  0  0  0  0  0
    9.8072   -4.7024   25.0252 C   0  0  0  0  0  0  0  0  0  0  0  0
    9.7178   -5.4071   25.8466 H   0  0  0  0  0  0  0  0  0  0  0  0
    8.6642   -4.1478   24.4539 C   0  0  0  0  0  0  0  0  0  0  0  0
    7.6837   -4.3610   24.8605 H   0  0  0  0  0  0  0  0  0  0  0  0
    8.8073   -3.2726   23.3615 C   0  0  0  0  0  0  0  0  0  0  0  0
    7.9053   -2.4936   22.5568 C   0  0  0  0  0  0  0  0  0  0  0  0
    6.8357   -2.3962   22.6596 H   0  0  0  0  0  0  0  0  0  0  0  0
    5.2658    0.8089   19.9489 C   0  0  0  0  0  0  0  0  0  0  0  0
    4.7970    0.8043   20.9328 H   0  0  0  0  0  0  0  0  0  0  0  0
    4.6396    1.4233   18.8654 C   0  0  0  0  0  0  0  0  0  0  0  0
    3.6949    1.9462   18.9722 H   0  0  0  0  0  0  0  0  0  0  0  0
  1  2  1  0
  2  3  2  0
  3  4  1  0
  4  5  1  0
  4  6  2  0
  6  7  1  0
  7  8  1  0
  7  9  1  0
  9 10  1  0
  9 11  1  0
 11 12  1  0
 12 13  1  0
 13 14  2  0
 14 15  1  0
 14 16  1  0
 16 17  1  0
 16 18  2  0
 18 19  1  0
 18 20  1  0
 20 21  1  0
 20 22  2  0
 22 23  1  0
 23 24  1  0
  6 25  1  0
 25 26  1  0
 25 27  2  0
 27 28  1  0
 27  2  1  0
 23 11  2  0
 22 13  1  0
M  END
>  <plip>  (1) 
-0.10344827586206896

>  <filename>  (1) 
[H][c]1[n][c]([H])[c]([N]([H])[N]([H])[c]2[o][c]3[c]([H])[c]([H])[c]([H])[c]([H])[c]3[c]2[H])[c]([H])[c]1[H]

$$$$
