
     RDKit          3D

 42 44  0  0  0  0  0  0  0  0999 V2000
    9.8765    1.7293   22.7304 C   0  0  0  0  0  0  0  0  0  0  0  0
    9.1606    0.8492   21.8538 O   0  0  0  0  0  0  0  0  0  0  0  0
    7.8812    0.5632   22.1639 C   0  0  0  0  0  0  0  0  0  0  0  0
    7.2909    0.9868   23.1237 O   0  0  0  0  0  0  0  0  0  0  0  0
    7.3614   -0.4206   21.0754 C   0  0  0  0  0  0  0  0  0  0  0  0
    6.2683   -1.8166   21.5925 N   0  0  0  0  0  4  0  0  0  0  0  0
    6.7928   -2.9470   22.4039 C   0  0  1  0  0  0  0  0  0  0  0  0
    7.1524   -4.1140   21.4720 C   0  0  0  0  0  0  0  0  0  0  0  0
    7.3629   -5.0198   22.0504 H   0  0  0  0  0  0  0  0  0  0  0  0
    6.3355   -4.3190   20.7684 H   0  0  0  0  0  0  0  0  0  0  0  0
    8.0362   -3.8667   20.8796 H   0  0  0  0  0  0  0  0  0  0  0  0
    7.9696   -2.4938   23.2621 C   0  0  0  0  0  0  0  0  0  0  0  0
    9.2699   -2.5269   22.8644 C   0  0  0  0  0  0  0  0  0  0  0  0
   10.3834   -1.8184   23.9809 S   0  0  0  0  0  0  0  0  0  0  0  0
    9.0938   -1.4134   25.0731 C   0  0  0  0  0  0  0  0  0  0  0  0
    9.2130   -0.7074   26.2823 C   0  0  0  0  0  0  0  0  0  0  0  0
    8.0793   -0.5554   27.0749 C   0  0  0  0  0  0  0  0  0  0  0  0
    6.8398   -1.0833   26.6567 C   0  0  0  0  0  0  0  0  0  0  0  0
    6.7207   -1.7229   25.4299 C   0  0  0  0  0  0  0  0  0  0  0  0
    7.8521   -1.8857   24.5945 C   0  0  0  0  0  0  0  0  0  0  0  0
    5.7546   -2.1061   25.1089 H   0  0  0  0  0  0  0  0  0  0  0  0
    5.9723   -0.9972   27.3090 H   0  0  0  0  0  0  0  0  0  0  0  0
    8.1521   -0.0237   28.0195 H   0  0  0  0  0  0  0  0  0  0  0  0
   10.1727   -0.2914   26.5840 H   0  0  0  0  0  0  0  0  0  0  0  0
    9.6757   -2.9017   21.9333 H   0  0  0  0  0  0  0  0  0  0  0  0
    6.0136   -3.2925   23.0962 H   0  0  0  0  0  0  0  0  0  0  0  0
    5.5473   -1.2932   22.1033 H   0  0  0  0  0  0  0  0  0  0  0  0
    5.8983   -2.1188   20.6902 H   0  0  0  0  0  0  0  0  0  0  0  0
    6.5771    0.1338   19.9235 C   0  0  0  0  0  0  0  0  0  0  0  0
    5.4665    0.9777   20.0729 C   0  0  0  0  0  0  0  0  0  0  0  0
    4.8480    1.4801   18.9251 C   0  0  0  0  0  0  0  0  0  0  0  0
    5.3704    1.1417   17.6730 C   0  0  0  0  0  0  0  0  0  0  0  0
    6.4162    0.3171   17.5106 N   0  0  0  0  0  0  0  0  0  0  0  0
    6.9923   -0.1662   18.6132 C   0  0  0  0  0  0  0  0  0  0  0  0
    7.8648   -0.8025   18.4593 H   0  0  0  0  0  0  0  0  0  0  0  0
    4.9370    1.5438   16.7590 H   0  0  0  0  0  0  0  0  0  0  0  0
    3.9926    2.1436   18.9797 H   0  0  0  0  0  0  0  0  0  0  0  0
    5.1053    1.2466   21.0680 H   0  0  0  0  0  0  0  0  0  0  0  0
    8.2569   -0.9243   20.7167 H   0  0  0  0  0  0  0  0  0  0  0  0
    9.6597    1.4765   23.7697 H   0  0  0  0  0  0  0  0  0  0  0  0
    9.5992    2.7725   22.5549 H   0  0  0  0  0  0  0  0  0  0  0  0
   10.9350    1.5836   22.5162 H   0  0  0  0  0  0  0  0  0  0  0  0
  1  2  1  0
  2  3  1  0
  3  4  2  0
  3  5  1  0
  5  6  1  0
  6  7  1  0
  7  8  1  0
  8  9  1  0
  8 10  1  0
  8 11  1  0
  7 12  1  0
 12 13  2  0
 13 14  1  0
 14 15  1  0
 15 16  2  0
 16 17  1  0
 17 18  2  0
 18 19  1  0
 19 20  2  0
 19 21  1  0
 18 22  1  0
 17 23  1  0
 16 24  1  0
 13 25  1  0
  7 26  1  1
  6 27  1  0
  6 28  1  0
  5 29  1  0
 29 30  2  0
 30 31  1  0
 31 32  2  0
 32 33  1  0
 33 34  2  0
 34 35  1  0
 32 36  1  0
 31 37  1  0
 30 38  1  0
  5 39  1  0
  1 40  1  0
  1 41  1  0
  1 42  1  0
 20 12  1  0
 34 29  1  0
 20 15  1  0
M  CHG  1   6   1
M  END
>  <plip>  (1) 
-0.10344827586206896

>  <filename>  (1) 
[H][c]1[n][c]([H])[c]([C]([H])([C](=[O])[O][C]([H])([H])[H])[N+]([H])([H])[C@]([H])([c]2[c]([H])[s][c]3[c]([H])[c]([H])[c]([H])[c]([H])[c]23)[C]([H])([H])[H])[c]([H])[c]1[H]

$$$$
