
     RDKit          3D

 49 52  0  0  0  0  0  0  0  0999 V2000
   -0.1887   -9.0437   24.4553 C   0  0  0  0  0  0  0  0  0  0  0  0
    1.1341   -8.5350   24.4944 O   0  0  0  0  0  0  0  0  0  0  0  0
    1.3954   -7.3601   23.8582 C   0  0  0  0  0  0  0  0  0  0  0  0
    0.3911   -6.5597   23.2885 C   0  0  0  0  0  0  0  0  0  0  0  0
    0.7514   -5.4389   22.5410 C   0  0  0  0  0  0  0  0  0  0  0  0
    2.0867   -5.0753   22.4325 C   0  0  0  0  0  0  0  0  0  0  0  0
    3.0998   -5.7857   23.1051 C   0  0  0  0  0  0  0  0  0  0  0  0
    4.4925   -5.2572   23.0292 C   0  0  0  0  0  0  0  0  0  0  0  0
    4.8836   -4.1720   22.3950 N   0  0  0  0  0  0  0  0  0  0  0  0
    6.2452   -4.0440   22.6419 C   0  0  0  0  0  0  0  0  0  0  0  0
    7.1710   -2.9453   22.1562 C   0  0  0  0  0  0  0  0  0  0  0  0
    8.3854   -2.9763   22.3535 O   0  0  0  0  0  0  0  0  0  0  0  0
    6.6011   -1.9188   21.4673 N   0  0  0  0  0  0  0  0  0  0  0  0
    7.3655   -0.7738   21.0018 C   0  0  0  0  0  0  0  0  0  0  0  0
    6.6010   -0.0580   19.9066 C   0  0  0  0  0  0  0  0  0  0  0  0
    5.3929    0.6195   20.1294 C   0  0  0  0  0  0  0  0  0  0  0  0
    4.7947    1.2969   19.0641 C   0  0  0  0  0  0  0  0  0  0  0  0
    5.4221    1.2794   17.8135 C   0  0  0  0  0  0  0  0  0  0  0  0
    6.5720    0.6328   17.5765 N   0  0  0  0  0  0  0  0  0  0  0  0
    7.1326   -0.0101   18.6092 C   0  0  0  0  0  0  0  0  0  0  0  0
    8.0713   -0.5200   18.3860 H   0  0  0  0  0  0  0  0  0  0  0  0
    4.9850    1.8045   16.9659 H   0  0  0  0  0  0  0  0  0  0  0  0
    3.8683    1.8446   19.1901 H   0  0  0  0  0  0  0  0  0  0  0  0
    4.9349    0.6368   21.1224 H   0  0  0  0  0  0  0  0  0  0  0  0
    7.7505    0.1731   22.1441 C   0  0  0  0  0  0  0  0  0  0  0  0
    9.0973    0.1106   22.8128 C   0  0  0  0  0  0  0  0  0  0  0  0
    8.7650    1.2597   21.8981 C   0  0  0  0  0  0  0  0  0  0  0  0
    8.5942    2.2505   22.3191 H   0  0  0  0  0  0  0  0  0  0  0  0
    9.2446    1.2785   20.9191 H   0  0  0  0  0  0  0  0  0  0  0  0
    9.1456    0.2900   23.8861 H   0  0  0  0  0  0  0  0  0  0  0  0
    9.8015   -0.6478   22.4683 H   0  0  0  0  0  0  0  0  0  0  0  0
    6.9094    0.4184   22.7924 H   0  0  0  0  0  0  0  0  0  0  0  0
    8.3111   -1.1467   20.5775 H   0  0  0  0  0  0  0  0  0  0  0  0
    5.5929   -1.9172   21.3957 H   0  0  0  0  0  0  0  0  0  0  0  0
    6.6820   -5.0891   23.4278 C   0  0  0  0  0  0  0  0  0  0  0  0
    8.0559   -5.4255   23.9195 C   0  0  0  0  0  0  0  0  0  0  0  0
    8.0929   -6.3327   24.5316 H   0  0  0  0  0  0  0  0  0  0  0  0
    8.4658   -4.5912   24.4973 H   0  0  0  0  0  0  0  0  0  0  0  0
    8.7241   -5.5432   23.0613 H   0  0  0  0  0  0  0  0  0  0  0  0
    5.5614   -5.8393   23.6593 N   0  0  0  0  0  0  0  0  0  0  0  0
    5.5135   -6.6503   24.2511 H   0  0  0  0  0  0  0  0  0  0  0  0
    2.7376   -6.9494   23.8139 C   0  0  0  0  0  0  0  0  0  0  0  0
    3.4595   -7.5769   24.3385 H   0  0  0  0  0  0  0  0  0  0  0  0
    2.3936   -4.2609   21.8039 H   0  0  0  0  0  0  0  0  0  0  0  0
   -0.0274   -4.8500   22.0585 H   0  0  0  0  0  0  0  0  0  0  0  0
   -0.6537   -6.7876   23.4613 H   0  0  0  0  0  0  0  0  0  0  0  0
   -0.1464  -10.0365   24.9064 H   0  0  0  0  0  0  0  0  0  0  0  0
   -0.8793   -8.4022   25.0228 H   0  0  0  0  0  0  0  0  0  0  0  0
   -0.5568   -9.1234   23.4214 H   0  0  0  0  0  0  0  0  0  0  0  0
  1  2  1  0
  2  3  1  0
  3  4  2  0
  4  5  1  0
  5  6  2  0
  6  7  1  0
  7  8  1  0
  8  9  2  0
  9 10  1  0
 10 11  1  0
 11 12  2  0
 11 13  1  0
 13 14  1  0
 14 15  1  0
 15 16  2  0
 16 17  1  0
 17 18  2  0
 18 19  1  0
 19 20  2  0
 20 21  1  0
 18 22  1  0
 17 23  1  0
 16 24  1  0
 14 25  1  0
 25 26  1  0
 26 27  1  0
 27 28  1  0
 27 29  1  0
 26 30  1  0
 26 31  1  0
 25 32  1  0
 14 33  1  0
 13 34  1  0
 10 35  2  0
 35 36  1  0
 36 37  1  0
 36 38  1  0
 36 39  1  0
 35 40  1  0
 40 41  1  0
  7 42  2  0
 42 43  1  0
  6 44  1  0
  5 45  1  0
  4 46  1  0
  1 47  1  0
  1 48  1  0
  1 49  1  0
 42  3  1  0
 40  8  1  0
 20 15  1  0
 27 25  1  0
M  END
>  <plip>  (1) 
-0.1

>  <filename>  (1) 
[H][c]1[n][c]([H])[c]([C]([H])([N]([H])[C](=[O])[c]2[n][c](-[c]3[c]([H])[c]([H])[c]([H])[c]([O][C]([H])([H])[H])[c]3[H])[n]([H])[c]2[C]([H])([H])[H])[C]2([H])[C]([H])([H])[C]2([H])[H])[c]([H])[c]1[H]

$$$$
