
     RDKit          3D

 52 55  0  0  0  0  0  0  0  0999 V2000
    8.1400   -4.2775   21.0378 O   0  0  0  0  0  0  0  0  0  0  0  0
    8.5084   -3.0569   21.7272 S   0  0  0  0  0  0  0  0  0  0  0  0
    9.8598   -2.7426   22.1118 O   0  0  0  0  0  0  0  0  0  0  0  0
    7.9256   -1.9097   20.7007 N   0  0  0  0  0  0  0  0  0  0  0  0
    7.2924   -0.6760   21.1709 C   0  0  0  0  0  0  0  0  0  0  0  0
    6.5700   -0.0765   19.9876 C   0  0  0  0  0  0  0  0  0  0  0  0
    5.3615    0.6301   20.1320 C   0  0  0  0  0  0  0  0  0  0  0  0
    4.8126    1.2763   19.0229 C   0  0  0  0  0  0  0  0  0  0  0  0
    5.4840    1.1958   17.7985 C   0  0  0  0  0  0  0  0  0  0  0  0
    6.6041    0.4820   17.6217 N   0  0  0  0  0  0  0  0  0  0  0  0
    7.1152   -0.1452   18.6936 C   0  0  0  0  0  0  0  0  0  0  0  0
    8.0190   -0.7242   18.5054 H   0  0  0  0  0  0  0  0  0  0  0  0
    5.1001    1.7242   16.9269 H   0  0  0  0  0  0  0  0  0  0  0  0
    3.8914    1.8475   19.0946 H   0  0  0  0  0  0  0  0  0  0  0  0
    4.8559    0.6800   21.0993 H   0  0  0  0  0  0  0  0  0  0  0  0
    8.3380    0.2451   21.8575 C   0  0  0  0  0  0  0  0  0  0  0  0
    9.5990    0.5860   21.0117 C   0  0  0  0  0  0  0  0  0  0  0  0
   10.3586    1.8311   21.5339 C   0  0  0  0  0  0  0  0  0  0  0  0
   10.1585    2.0575   23.0410 C   0  0  0  0  0  0  0  0  0  0  0  0
    8.6649    2.2769   23.3920 C   0  0  0  0  0  0  0  0  0  0  0  0
    7.6976    1.5222   22.4438 C   0  0  0  0  0  0  0  0  0  0  0  0
    6.7747    1.2686   22.9825 H   0  0  0  0  0  0  0  0  0  0  0  0
    7.4013    2.1886   21.6188 H   0  0  0  0  0  0  0  0  0  0  0  0
    8.4981    1.9639   24.4318 H   0  0  0  0  0  0  0  0  0  0  0  0
    8.4258    3.3488   23.3509 H   0  0  0  0  0  0  0  0  0  0  0  0
   10.5403    1.1835   23.5896 H   0  0  0  0  0  0  0  0  0  0  0  0
   10.7525    2.9154   23.3793 H   0  0  0  0  0  0  0  0  0  0  0  0
   11.4264    1.7473   21.2944 H   0  0  0  0  0  0  0  0  0  0  0  0
    9.9934    2.7190   21.0011 H   0  0  0  0  0  0  0  0  0  0  0  0
    9.3323    0.7612   19.9611 H   0  0  0  0  0  0  0  0  0  0  0  0
   10.2552   -0.2905   21.0151 H   0  0  0  0  0  0  0  0  0  0  0  0
    8.7052   -0.3370   22.7151 H   0  0  0  0  0  0  0  0  0  0  0  0
    6.5213   -0.8826   21.9418 H   0  0  0  0  0  0  0  0  0  0  0  0
    7.3638   -2.5004   20.1031 H   0  0  0  0  0  0  0  0  0  0  0  0
    7.4664   -2.9548   23.0929 C   0  0  0  0  0  0  0  0  0  0  0  0
    7.5032   -2.2707   24.2842 C   0  0  0  0  0  0  0  0  0  0  0  0
    6.3232   -2.5466   24.9064 N   0  0  0  0  0  0  0  0  0  0  0  0
    5.9100   -2.0833   26.1901 C   0  0  0  0  0  0  0  0  0  0  0  0
    4.6425   -2.4184   26.6974 C   0  0  0  0  0  0  0  0  0  0  0  0
    4.2268   -1.8981   27.9251 C   0  0  0  0  0  0  0  0  0  0  0  0
    5.0594   -1.0436   28.6589 C   0  0  0  0  0  0  0  0  0  0  0  0
    6.3323   -0.7442   28.1697 C   0  0  0  0  0  0  0  0  0  0  0  0
    6.7693   -1.2816   26.9599 C   0  0  0  0  0  0  0  0  0  0  0  0
    7.7856   -1.0850   26.6377 H   0  0  0  0  0  0  0  0  0  0  0  0
    7.0034   -0.0988   28.7308 H   0  0  0  0  0  0  0  0  0  0  0  0
    4.7291   -0.6109   29.5991 H   0  0  0  0  0  0  0  0  0  0  0  0
    3.2537   -2.1752   28.3232 H   0  0  0  0  0  0  0  0  0  0  0  0
    3.9866   -3.0627   26.1183 H   0  0  0  0  0  0  0  0  0  0  0  0
    5.5467   -3.3599   24.1611 N   0  0  0  0  0  0  0  0  0  0  0  0
    6.2344   -3.6125   23.0717 C   0  0  0  0  0  0  0  0  0  0  0  0
    5.8136   -4.2545   22.3084 H   0  0  0  0  0  0  0  0  0  0  0  0
    8.2103   -1.5914   24.7476 H   0  0  0  0  0  0  0  0  0  0  0  0
  1  2  2  0
  2  3  2  0
  2  4  1  0
  4  5  1  0
  5  6  1  0
  6  7  2  0
  7  8  1  0
  8  9  2  0
  9 10  1  0
 10 11  2  0
 11 12  1  0
  9 13  1  0
  8 14  1  0
  7 15  1  0
  5 16  1  0
 16 17  1  0
 17 18  1  0
 18 19  1  0
 19 20  1  0
 20 21  1  0
 21 22  1  0
 21 23  1  0
 20 24  1  0
 20 25  1  0
 19 26  1  0
 19 27  1  0
 18 28  1  0
 18 29  1  0
 17 30  1  0
 17 31  1  0
 16 32  1  0
  5 33  1  0
  4 34  1  0
  2 35  1  0
 35 36  2  0
 36 37  1  0
 37 38  1  0
 38 39  2  0
 39 40  1  0
 40 41  2  0
 41 42  1  0
 42 43  2  0
 43 44  1  0
 42 45  1  0
 41 46  1  0
 40 47  1  0
 39 48  1  0
 37 49  1  0
 49 50  2  0
 50 51  1  0
 36 52  1  0
 11  6  1  0
 21 16  1  0
 50 35  1  0
 43 38  1  0
M  END
>  <plip>  (1) 
-0.034482758620689655

>  <filename>  (1) 
[H][c]1[n][c]([H])[c]([C]([H])([N]([H])[S](=[O])(=[O])[c]2[c]([H])[n][n](-[c]3[c]([H])[c]([H])[c]([H])[c]([H])[c]3[H])[c]2[H])[C]2([H])[C]([H])([H])[C]([H])([H])[C]([H])([H])[C]([H])([H])[C]2([H])[H])[c]([H])[c]1[H]

$$$$
