
     RDKit          3D

 25 26  0  0  0  0  0  0  0  0999 V2000
    4.9229    1.7934   16.9843 H   0  0  0  0  0  0  0  0  0  0  0  0
    5.3931    1.2979   17.8303 C   0  0  0  0  0  0  0  0  0  0  0  0
    6.5565    0.6813   17.5686 N   0  0  0  0  0  0  0  0  0  0  0  0
    7.1674    0.0639   18.5845 C   0  0  0  0  0  0  0  0  0  0  0  0
    8.1169   -0.4188   18.3546 H   0  0  0  0  0  0  0  0  0  0  0  0
    6.6477    0.0120   19.8938 C   0  0  0  0  0  0  0  0  0  0  0  0
    7.3406   -0.6926   20.9225 C   0  0  0  0  0  0  0  0  0  0  0  0
    7.9383   -1.2800   21.7899 C   0  0  0  0  0  0  0  0  0  0  0  0
    8.6759   -1.9370   22.8834 C   0  0  0  0  0  0  0  0  0  0  0  0
    7.7804   -2.4171   23.7986 F   0  0  0  0  0  0  0  0  0  0  0  0
    9.3404   -3.0212   22.3825 F   0  0  0  0  0  0  0  0  0  0  0  0
    9.6388   -1.0105   23.5695 C   0  0  0  0  0  0  0  0  0  0  0  0
   10.9367   -0.8741   23.0659 C   0  0  0  0  0  0  0  0  0  0  0  0
   11.2837   -1.4638   22.2201 H   0  0  0  0  0  0  0  0  0  0  0  0
   11.8250   -0.0141   23.5671 N   0  0  0  0  0  0  0  0  0  0  0  0
   11.4396    0.7468   24.5958 C   0  0  0  0  0  0  0  0  0  0  0  0
   12.1979    1.4204   24.9850 H   0  0  0  0  0  0  0  0  0  0  0  0
   10.1572    0.6995   25.1542 C   0  0  0  0  0  0  0  0  0  0  0  0
    9.9035    1.3475   25.9825 H   0  0  0  0  0  0  0  0  0  0  0  0
    9.2278   -0.1926   24.6296 C   0  0  0  0  0  0  0  0  0  0  0  0
    8.2065   -0.2453   25.0173 H   0  0  0  0  0  0  0  0  0  0  0  0
    5.4297    0.6602   20.1501 C   0  0  0  0  0  0  0  0  0  0  0  0
    5.0039    0.6413   21.1555 H   0  0  0  0  0  0  0  0  0  0  0  0
    4.7978    1.3171   19.0955 C   0  0  0  0  0  0  0  0  0  0  0  0
    3.8676    1.8481   19.2412 H   0  0  0  0  0  0  0  0  0  0  0  0
  1  2  1  0
  2  3  2  0
  3  4  1  0
  4  5  1  0
  4  6  2  0
  6  7  1  0
  7  8  3  0
  8  9  1  0
  9 10  1  0
  9 11  1  0
  9 12  1  0
 12 13  2  0
 13 14  1  0
 13 15  1  0
 15 16  2  0
 16 17  1  0
 16 18  1  0
 18 19  1  0
 18 20  2  0
 20 21  1  0
  6 22  1  0
 22 23  1  0
 22 24  2  0
 24 25  1  0
 24  2  1  0
 20 12  1  0
M  END
>  <plip>  (1) 
-0.07142857142857142

>  <filename>  (1) 
[H][c]1[n][c]([H])[c]([C]#[C][C]([F])([F])[c]2[c]([H])[n][c]([H])[c]([H])[c]2[H])[c]([H])[c]1[H]

$$$$
