
     RDKit          3D

 33 36  0  0  0  0  0  0  0  0999 V2000
    4.9555    1.8000   16.9911 H   0  0  0  0  0  0  0  0  0  0  0  0
    5.4096    1.2888   17.8353 C   0  0  0  0  0  0  0  0  0  0  0  0
    6.5800    0.6756   17.5954 N   0  0  0  0  0  0  0  0  0  0  0  0
    7.1897    0.0807   18.6270 C   0  0  0  0  0  0  0  0  0  0  0  0
    8.1459   -0.3977   18.4064 H   0  0  0  0  0  0  0  0  0  0  0  0
    6.6660    0.0521   19.9382 C   0  0  0  0  0  0  0  0  0  0  0  0
    7.3639   -0.6373   20.9835 N   0  0  0  0  0  0  0  0  0  0  0  0
    7.7595   -1.9499   20.9216 C   0  0  0  0  0  0  0  0  0  0  0  0
    7.4301   -2.5545   20.0970 H   0  0  0  0  0  0  0  0  0  0  0  0
    8.3452   -2.3709   22.0098 N   0  0  0  0  0  0  0  0  0  0  0  0
    8.2794   -1.3063   22.8646 C   0  0  0  0  0  0  0  0  0  0  0  0
    8.6028   -1.3917   23.8910 H   0  0  0  0  0  0  0  0  0  0  0  0
    7.6530   -0.2265   22.2916 C   0  0  0  0  0  0  0  0  0  0  0  0
    7.2954    1.0840   22.8544 C   0  0  0  0  0  0  0  0  0  0  0  0
    7.6053    2.2409   22.1496 C   0  0  0  0  0  0  0  0  0  0  0  0
    8.0623    2.1238   21.1685 H   0  0  0  0  0  0  0  0  0  0  0  0
    7.3141    3.5249   22.6530 C   0  0  0  0  0  0  0  0  0  0  0  0
    7.6012    4.3881   22.0529 H   0  0  0  0  0  0  0  0  0  0  0  0
    6.6857    3.6803   23.8740 C   0  0  0  0  0  0  0  0  0  0  0  0
    6.4769    4.6807   24.2532 H   0  0  0  0  0  0  0  0  0  0  0  0
    6.3198    2.5300   24.6380 C   0  0  0  0  0  0  0  0  0  0  0  0
    5.6582    2.6111   25.9079 C   0  0  0  0  0  0  0  0  0  0  0  0
    5.4335    3.5852   26.3445 H   0  0  0  0  0  0  0  0  0  0  0  0
    5.3180    1.4471   26.5569 C   0  0  0  0  0  0  0  0  0  0  0  0
    4.8270    1.4420   27.5232 H   0  0  0  0  0  0  0  0  0  0  0  0
    5.6323    0.2028   25.9521 C   0  0  0  0  0  0  0  0  0  0  0  0
    5.3660   -0.7272   26.4517 H   0  0  0  0  0  0  0  0  0  0  0  0
    6.2527    0.0757   24.8066 N   0  0  0  0  0  0  0  0  0  0  0  0
    6.6172    1.2126   24.1278 C   0  0  0  0  0  0  0  0  0  0  0  0
    5.4220    0.6635   20.1646 C   0  0  0  0  0  0  0  0  0  0  0  0
    4.9822    0.6532   21.1663 H   0  0  0  0  0  0  0  0  0  0  0  0
    4.7934    1.3012   19.0917 C   0  0  0  0  0  0  0  0  0  0  0  0
    3.8489    1.8165   19.2239 H   0  0  0  0  0  0  0  0  0  0  0  0
  1  2  1  0
  2  3  2  0
  3  4  1  0
  4  5  1  0
  4  6  2  0
  6  7  1  0
  7  8  1  0
  8  9  1  0
  8 10  2  0
 10 11  1  0
 11 12  1  0
 11 13  2  0
 13 14  1  0
 14 15  2  0
 15 16  1  0
 15 17  1  0
 17 18  1  0
 17 19  2  0
 19 20  1  0
 19 21  1  0
 21 22  2  0
 22 23  1  0
 22 24  1  0
 24 25  1  0
 24 26  2  0
 26 27  1  0
 26 28  1  0
 28 29  2  0
  6 30  1  0
 30 31  1  0
 30 32  2  0
 32 33  1  0
 32  2  1  0
 13  7  1  0
 29 14  1  0
 29 21  1  0
M  END
>  <plip>  (1) 
-0.034482758620689655

>  <filename>  (1) 
[H][c]1[n][c]([H])[c](-[n]2[c]([H])[n][c]([H])[c]2-[c]2[c]([H])[c]([H])[c]([H])[c]3[c]([H])[c]([H])[c]([H])[n][c]23)[c]([H])[c]1[H]

$$$$
