
     RDKit          3D

 35 36  0  0  0  0  0  0  0  0999 V2000
    9.9025    1.3000   21.0333 C   0  0  0  0  0  0  0  0  0  0  0  0
    8.6102    1.5834   21.7746 C   0  0  0  0  0  0  0  0  0  0  0  0
    8.0875    0.3202   22.3145 N   0  0  0  0  0  0  0  0  0  0  0  0
    8.9055   -0.3066   23.3726 C   0  0  0  0  0  0  0  0  0  0  0  0
    8.0747   -1.1502   24.3078 C   0  0  0  0  0  0  0  0  0  0  0  0
    8.2131   -2.5478   24.3176 C   0  0  0  0  0  0  0  0  0  0  0  0
    7.4774   -3.3300   25.2137 C   0  0  0  0  0  0  0  0  0  0  0  0
    6.6000   -2.7214   26.1148 C   0  0  0  0  0  0  0  0  0  0  0  0
    6.4686   -1.3283   26.1213 C   0  0  0  0  0  0  0  0  0  0  0  0
    7.2005   -0.5410   25.2239 C   0  0  0  0  0  0  0  0  0  0  0  0
    7.0330    1.3660   25.2896 Br  0  0  0  0  0  0  0  0  0  0  0  0
    5.8031   -0.8476   26.8319 H   0  0  0  0  0  0  0  0  0  0  0  0
    6.0253   -3.3305   26.8072 H   0  0  0  0  0  0  0  0  0  0  0  0
    7.5948   -4.4101   25.2141 H   0  0  0  0  0  0  0  0  0  0  0  0
    8.9069   -3.0232   23.6316 H   0  0  0  0  0  0  0  0  0  0  0  0
    9.3765    0.4857   23.9610 H   0  0  0  0  0  0  0  0  0  0  0  0
    9.7147   -0.9200   22.9493 H   0  0  0  0  0  0  0  0  0  0  0  0
    7.5501   -0.8573   21.1572 S   0  0  0  0  0  0  0  0  0  0  0  0
    8.7014   -1.4990   20.5064 O   0  0  0  0  0  0  0  0  0  0  0  0
    6.6995   -1.8444   21.8274 O   0  0  0  0  0  0  0  0  0  0  0  0
    6.6311    0.0624   19.9557 C   0  0  0  0  0  0  0  0  0  0  0  0
    5.4202    0.7041   20.2027 C   0  0  0  0  0  0  0  0  0  0  0  0
    4.8282    1.3166   19.1160 C   0  0  0  0  0  0  0  0  0  0  0  0
    5.4512    1.2778   17.8704 C   0  0  0  0  0  0  0  0  0  0  0  0
    6.6226    0.6494   17.6689 N   0  0  0  0  0  0  0  0  0  0  0  0
    7.2045    0.0481   18.7049 C   0  0  0  0  0  0  0  0  0  0  0  0
    8.1456   -0.4684   18.5322 H   0  0  0  0  0  0  0  0  0  0  0  0
    4.9666    1.7696   17.0338 H   0  0  0  0  0  0  0  0  0  0  0  0
    3.8796    1.8272   19.2095 H   0  0  0  0  0  0  0  0  0  0  0  0
    4.9189    0.7346   21.1707 H   0  0  0  0  0  0  0  0  0  0  0  0
    8.8096    2.2801   22.5958 H   0  0  0  0  0  0  0  0  0  0  0  0
    7.8949    2.0708   21.1036 H   0  0  0  0  0  0  0  0  0  0  0  0
   10.6113    0.8009   21.6989 H   0  0  0  0  0  0  0  0  0  0  0  0
    9.6918    0.6584   20.1757 H   0  0  0  0  0  0  0  0  0  0  0  0
   10.3555    2.2303   20.6856 H   0  0  0  0  0  0  0  0  0  0  0  0
  1  2  1  0
  2  3  1  0
  3  4  1  0
  4  5  1  0
  5  6  2  0
  6  7  1  0
  7  8  2  0
  8  9  1  0
  9 10  2  0
 10 11  1  0
  9 12  1  0
  8 13  1  0
  7 14  1  0
  6 15  1  0
  4 16  1  0
  4 17  1  0
  3 18  1  0
 18 19  2  0
 18 20  2  0
 18 21  1  0
 21 22  2  0
 22 23  1  0
 23 24  2  0
 24 25  1  0
 25 26  2  0
 26 27  1  0
 24 28  1  0
 23 29  1  0
 22 30  1  0
  2 31  1  0
  2 32  1  0
  1 33  1  0
  1 34  1  0
  1 35  1  0
 10  5  1  0
 26 21  1  0
M  END
>  <plip>  (1) 
-0.034482758620689655

>  <filename>  (1) 
[H][c]1[n][c]([H])[c]([S](=[O])(=[O])[N]([C]([H])([H])[c]2[c]([H])[c]([H])[c]([H])[c]([H])[c]2[Br])[C]([H])([H])[C]([H])([H])[H])[c]([H])[c]1[H]

$$$$
