
     RDKit          3D

 21 22  0  0  0  0  0  0  0  0999 V2000
    7.6370    0.7926   26.5575 Cl  0  0  0  0  0  0  0  0  0  0  0  0
    7.5609    0.3334   24.8911 C   0  0  0  0  0  0  0  0  0  0  0  0
    7.1577    1.2412   23.9191 C   0  0  0  0  0  0  0  0  0  0  0  0
    7.0686    0.9215   22.6192 N   0  0  0  0  0  0  0  0  0  0  0  0
    7.3899   -0.3054   22.2420 C   0  0  0  0  0  0  0  0  0  0  0  0
    7.3624   -0.6544   20.9271 O   0  0  0  0  0  0  0  0  0  0  0  0
    6.6662    0.0346   19.9323 C   0  0  0  0  0  0  0  0  0  0  0  0
    5.4344    0.6465   20.1664 C   0  0  0  0  0  0  0  0  0  0  0  0
    4.8053    1.3015   19.1020 C   0  0  0  0  0  0  0  0  0  0  0  0
    5.4031    1.2911   17.8400 C   0  0  0  0  0  0  0  0  0  0  0  0
    6.5711    0.6697   17.5960 N   0  0  0  0  0  0  0  0  0  0  0  0
    7.1843    0.0549   18.6176 C   0  0  0  0  0  0  0  0  0  0  0  0
    8.1277   -0.4390   18.3906 H   0  0  0  0  0  0  0  0  0  0  0  0
    4.9129    1.7787   16.9964 H   0  0  0  0  0  0  0  0  0  0  0  0
    3.8770    1.8398   19.2625 H   0  0  0  0  0  0  0  0  0  0  0  0
    4.9988    0.6313   21.1649 H   0  0  0  0  0  0  0  0  0  0  0  0
    7.8339   -1.2962   23.1590 C   0  0  0  0  0  0  0  0  0  0  0  0
    8.2702   -2.8852   22.6479 Cl  0  0  0  0  0  0  0  0  0  0  0  0
    7.9107   -0.9656   24.5055 C   0  0  0  0  0  0  0  0  0  0  0  0
    8.2368   -1.6914   25.2445 H   0  0  0  0  0  0  0  0  0  0  0  0
    6.8767    2.2486   24.2041 H   0  0  0  0  0  0  0  0  0  0  0  0
  1  2  1  0
  2  3  2  0
  3  4  1  0
  4  5  2  0
  5  6  1  0
  6  7  1  0
  7  8  2  0
  8  9  1  0
  9 10  2  0
 10 11  1  0
 11 12  2  0
 12 13  1  0
 10 14  1  0
  9 15  1  0
  8 16  1  0
  5 17  1  0
 17 18  1  0
 17 19  2  0
 19 20  1  0
  3 21  1  0
 19  2  1  0
 12  7  1  0
M  END
>  <plip>  (1) 
-0.0

>  <filename>  (1) 
[H][c]1[n][c]([H])[c]([O][c]2[n][c]([H])[c]([Cl])[c]([H])[c]2[Cl])[c]([H])[c]1[H]

$$$$
