
     RDKit          3D

 23 25  0  0  0  0  0  0  0  0999 V2000
    8.7766   -2.5843   27.5464 H   0  0  0  0  0  0  0  0  0  0  0  0
    8.4020   -2.1598   26.6224 C   0  0  0  0  0  0  0  0  0  0  0  0
    7.4264   -1.3061   26.5618 N   0  0  0  0  0  0  0  0  0  0  0  0
    7.1838   -0.9629   25.2549 C   0  0  0  0  0  0  0  0  0  0  0  0
    6.3941   -0.2530   25.0431 H   0  0  0  0  0  0  0  0  0  0  0  0
    7.9820   -1.5643   24.3221 C   0  0  0  0  0  0  0  0  0  0  0  0
    7.9431   -1.3870   22.8816 C   0  0  0  0  0  0  0  0  0  0  0  0
    7.0614   -0.5575   22.2725 N   0  0  0  0  0  0  0  0  0  0  0  0
    7.3455   -0.6769   20.9915 C   0  0  0  0  0  0  0  0  0  0  0  0
    6.6498    0.0118   19.9019 C   0  0  0  0  0  0  0  0  0  0  0  0
    7.1734    0.0595   18.6032 C   0  0  0  0  0  0  0  0  0  0  0  0
    8.1228   -0.4187   18.3629 H   0  0  0  0  0  0  0  0  0  0  0  0
    6.5711    0.6752   17.5828 N   0  0  0  0  0  0  0  0  0  0  0  0
    5.4058    1.2900   17.8402 C   0  0  0  0  0  0  0  0  0  0  0  0
    4.9178    1.7755   16.9996 H   0  0  0  0  0  0  0  0  0  0  0  0
    4.8019    1.3120   19.1044 C   0  0  0  0  0  0  0  0  0  0  0  0
    3.8701    1.8463   19.2601 H   0  0  0  0  0  0  0  0  0  0  0  0
    5.4310    0.6583   20.1561 C   0  0  0  0  0  0  0  0  0  0  0  0
    5.0066    0.6334   21.1644 H   0  0  0  0  0  0  0  0  0  0  0  0
    8.3625   -1.5474   20.8547 N   0  0  0  0  0  0  0  0  0  0  0  0
    8.7846   -1.8711   20.0003 H   0  0  0  0  0  0  0  0  0  0  0  0
    8.7588   -2.0238   22.0531 N   0  0  0  0  0  0  0  0  0  0  0  0
    9.0988   -2.6160   25.1122 S   0  0  0  0  0  0  0  0  0  0  0  0
  1  2  1  0
  2  3  2  0
  3  4  1  0
  4  5  1  0
  4  6  2  0
  6  7  1  0
  7  8  1  0
  8  9  2  0
  9 10  1  0
 10 11  2  0
 11 12  1  0
 11 13  1  0
 13 14  2  0
 14 15  1  0
 14 16  1  0
 16 17  1  0
 16 18  2  0
 18 19  1  0
  9 20  1  0
 20 21  1  0
 20 22  1  0
  6 23  1  0
 23  2  1  0
 22  7  2  0
 18 10  1  0
M  END
>  <plip>  (1) 
-0.03333333333333333

>  <filename>  (1) 
[H][c]1[n][c]([H])[c](-[c]2[n][c](-[c]3[c]([H])[n][c]([H])[c]([H])[c]3[H])[n]([H])[n]2)[s]1

$$$$
