
     RDKit          3D

 27 28  0  0  0  0  0  0  0  0999 V2000
    6.2397   -5.6252   23.6398 H   0  0  0  0  0  0  0  0  0  0  0  0
    5.8677   -5.1055   24.3600 O   0  0  0  0  0  0  0  0  0  0  0  0
    6.2440   -3.7632   24.1280 C   0  0  0  0  0  0  0  0  0  0  0  0
    5.6425   -3.1515   24.8052 H   0  0  0  0  0  0  0  0  0  0  0  0
    5.9770   -3.4485   23.1083 H   0  0  0  0  0  0  0  0  0  0  0  0
    7.7293   -3.5276   24.3983 C   0  0  0  0  0  0  0  0  0  0  0  0
    8.3222   -4.1492   23.7190 H   0  0  0  0  0  0  0  0  0  0  0  0
    7.9486   -3.8774   25.4111 H   0  0  0  0  0  0  0  0  0  0  0  0
    8.1672   -2.0579   24.2492 C   0  0  0  0  0  0  0  0  0  0  0  0
    9.1983   -1.9109   24.5857 H   0  0  0  0  0  0  0  0  0  0  0  0
    7.5377   -1.4317   24.8889 H   0  0  0  0  0  0  0  0  0  0  0  0
    8.0017   -1.5371   22.8640 C   0  0  0  0  0  0  0  0  0  0  0  0
    8.9049   -1.8702   21.9326 O   0  0  0  0  0  0  0  0  0  0  0  0
    8.5316   -1.3385   20.7157 N   0  0  0  0  0  0  0  0  0  0  0  0
    7.4006   -0.7053   20.9350 C   0  0  0  0  0  0  0  0  0  0  0  0
    6.6653    0.0076   19.8869 C   0  0  0  0  0  0  0  0  0  0  0  0
    7.1775    0.0615   18.5824 C   0  0  0  0  0  0  0  0  0  0  0  0
    8.1220   -0.4223   18.3572 H   0  0  0  0  0  0  0  0  0  0  0  0
    6.5653    0.6769   17.5666 N   0  0  0  0  0  0  0  0  0  0  0  0
    5.4048    1.2909   17.8374 C   0  0  0  0  0  0  0  0  0  0  0  0
    4.9228    1.7823   16.9971 H   0  0  0  0  0  0  0  0  0  0  0  0
    4.8096    1.3065   19.1055 C   0  0  0  0  0  0  0  0  0  0  0  0
    3.8782    1.8388   19.2594 H   0  0  0  0  0  0  0  0  0  0  0  0
    5.4450    0.6494   20.1548 C   0  0  0  0  0  0  0  0  0  0  0  0
    5.0018    0.6392   21.1550 H   0  0  0  0  0  0  0  0  0  0  0  0
    7.0127   -0.8084   22.2968 C   0  0  0  0  0  0  0  0  0  0  0  0
    6.1380   -0.4183   22.7833 H   0  0  0  0  0  0  0  0  0  0  0  0
  1  2  1  0
  2  3  1  0
  3  4  1  0
  3  5  1  0
  3  6  1  0
  6  7  1  0
  6  8  1  0
  6  9  1  0
  9 10  1  0
  9 11  1  0
  9 12  1  0
 12 13  1  0
 13 14  1  0
 14 15  2  0
 15 16  1  0
 16 17  2  0
 17 18  1  0
 17 19  1  0
 19 20  2  0
 20 21  1  0
 20 22  1  0
 22 23  1  0
 22 24  2  0
 24 25  1  0
 15 26  1  0
 26 27  1  0
 26 12  2  0
 24 16  1  0
M  END
>  <plip>  (1) 
-0.03571428571428571

>  <filename>  (1) 
[H][O][C]([H])([H])[C]([H])([H])[C]([H])([H])[c]1[o][n][c](-[c]2[c]([H])[n][c]([H])[c]([H])[c]2[H])[c]1[H]

$$$$
