
     RDKit          3D

 30 31  0  0  0  0  0  0  0  0999 V2000
    6.9952   -2.4661   20.2308 H   0  0  0  0  0  0  0  0  0  0  0  0
    7.5352   -1.9330   21.0099 C   0  0  0  0  0  0  0  0  0  0  0  0
    7.3136   -0.6065   21.0976 C   0  0  0  0  0  0  0  0  0  0  0  0
    6.6341    0.0659   19.9423 C   0  0  0  0  0  0  0  0  0  0  0  0
    7.1502    0.0336   18.6280 C   0  0  0  0  0  0  0  0  0  0  0  0
    8.0761   -0.4968   18.4161 H   0  0  0  0  0  0  0  0  0  0  0  0
    6.5851    0.6405   17.5738 N   0  0  0  0  0  0  0  0  0  0  0  0
    5.4319    1.2935   17.7874 C   0  0  0  0  0  0  0  0  0  0  0  0
    4.9705    1.7725   16.9253 H   0  0  0  0  0  0  0  0  0  0  0  0
    4.8035    1.3530   19.0366 C   0  0  0  0  0  0  0  0  0  0  0  0
    3.8555    1.8689   19.1461 H   0  0  0  0  0  0  0  0  0  0  0  0
    5.4227    0.7475   20.1289 C   0  0  0  0  0  0  0  0  0  0  0  0
    4.9757    0.7820   21.1243 H   0  0  0  0  0  0  0  0  0  0  0  0
    7.6498    0.2024   22.3251 C   0  0  0  0  0  0  0  0  0  0  0  0
    7.1506    1.1780   22.3260 H   0  0  0  0  0  0  0  0  0  0  0  0
    8.7351    0.3493   22.3958 H   0  0  0  0  0  0  0  0  0  0  0  0
    7.3762   -0.3626   23.2266 H   0  0  0  0  0  0  0  0  0  0  0  0
    8.3275   -2.7909   21.9167 C   0  0  0  0  0  0  0  0  0  0  0  0
    9.3113   -2.2025   22.6259 N   0  0  0  0  0  0  0  0  0  0  0  0
    9.9759   -2.9213   23.5347 C   0  0  0  0  0  0  0  0  0  0  0  0
   10.7527   -2.3960   24.0882 H   0  0  0  0  0  0  0  0  0  0  0  0
    9.6894   -4.2547   23.8039 C   0  0  0  0  0  0  0  0  0  0  0  0
   10.2034   -4.7797   24.6033 H   0  0  0  0  0  0  0  0  0  0  0  0
    8.7246   -4.8997   23.0220 C   0  0  0  0  0  0  0  0  0  0  0  0
    8.4825   -5.9445   23.2236 H   0  0  0  0  0  0  0  0  0  0  0  0
    8.0535   -4.1943   22.0226 C   0  0  0  0  0  0  0  0  0  0  0  0
    7.0442   -4.9253   21.1590 C   0  0  0  0  0  0  0  0  0  0  0  0
    6.0576   -4.4534   21.2197 H   0  0  0  0  0  0  0  0  0  0  0  0
    7.3421   -4.9473   20.1069 H   0  0  0  0  0  0  0  0  0  0  0  0
    6.9439   -5.9661   21.4844 H   0  0  0  0  0  0  0  0  0  0  0  0
  1  2  1  0
  2  3  2  3
  3  4  1  0
  4  5  2  0
  5  6  1  0
  5  7  1  0
  7  8  2  0
  8  9  1  0
  8 10  1  0
 10 11  1  0
 10 12  2  0
 12 13  1  0
  3 14  1  0
 14 15  1  0
 14 16  1  0
 14 17  1  0
  2 18  1  0
 18 19  2  0
 19 20  1  0
 20 21  1  0
 20 22  2  0
 22 23  1  0
 22 24  1  0
 24 25  1  0
 24 26  2  0
 26 27  1  0
 27 28  1  0
 27 29  1  0
 27 30  1  0
 12  4  1  0
 26 18  1  0
M  END
>  <plip>  (1) 
-0.03571428571428571

>  <filename>  (1) 
[H][C](=[C]([c]1[c]([H])[n][c]([H])[c]([H])[c]1[H])[C]([H])([H])[H])[c]1[n][c]([H])[c]([H])[c]([H])[c]1[C]([H])([H])[H]

$$$$
