
     RDKit          3D

 44 46  0  0  0  0  0  0  0  0999 V2000
    9.0140    1.3350   21.3210 C   0  0  0  0  0  0  0  0  0  0  0  0
    8.1924    0.2352   21.8345 N   0  0  0  0  0  0  0  0  0  0  0  0
    8.4639   -0.2982   23.1767 C   0  0  0  0  0  0  0  0  0  0  0  0
    9.3170   -1.5725   23.2319 C   0  0  0  0  0  0  0  0  0  0  0  0
    9.4521   -2.0717   24.6729 C   0  0  0  0  0  0  0  0  0  0  0  0
    8.1296   -2.3053   25.2565 N   0  0  0  0  0  0  0  0  0  0  0  0
    7.9417   -3.3420   26.2032 C   0  0  0  0  0  0  0  0  0  0  0  0
    8.6521   -4.6381   26.0722 C   0  0  0  0  0  0  0  0  0  0  0  0
    8.3473   -5.6172   27.0718 C   0  0  0  0  0  0  0  0  0  0  0  0
    7.2815   -5.4991   27.9251 C   0  0  0  0  0  0  0  0  0  0  0  0
    7.8327   -7.5523   28.9935 Cl  0  0  0  0  0  0  0  0  0  0  0  0
    7.2603   -5.1601   28.1535 C   0  0  0  0  0  0  0  0  0  0  0  0
    7.0756   -3.3705   27.2505 C   0  0  0  0  0  0  0  0  0  0  0  0
    6.3048   -2.6786   27.5391 H   0  0  0  0  0  0  0  0  0  0  0  0
    7.1408   -4.5418   29.0979 H   0  0  0  0  0  0  0  0  0  0  0  0
    8.1699   -6.6019   26.7459 H   0  0  0  0  0  0  0  0  0  0  0  0
    9.3280   -4.8018   25.2394 H   0  0  0  0  0  0  0  0  0  0  0  0
    7.3471   -1.0592   25.3026 C   0  0  0  0  0  0  0  0  0  0  0  0
    7.1360   -0.5130   23.8920 C   0  0  0  0  0  0  0  0  0  0  0  0
    6.6063    0.4440   23.9225 H   0  0  0  0  0  0  0  0  0  0  0  0
    6.5259   -1.2073   23.3086 H   0  0  0  0  0  0  0  0  0  0  0  0
    7.8691   -0.3029   25.9213 H   0  0  0  0  0  0  0  0  0  0  0  0
    6.3641   -1.2048   25.7583 H   0  0  0  0  0  0  0  0  0  0  0  0
   10.0529   -2.9840   24.6653 H   0  0  0  0  0  0  0  0  0  0  0  0
   10.0144   -1.3418   25.2867 H   0  0  0  0  0  0  0  0  0  0  0  0
    8.8352   -2.3581   22.6360 H   0  0  0  0  0  0  0  0  0  0  0  0
   10.3024   -1.3792   22.7972 H   0  0  0  0  0  0  0  0  0  0  0  0
    9.0063    0.5004   23.7129 H   0  0  0  0  0  0  0  0  0  0  0  0
    7.7947   -0.8951   20.6662 S   0  0  0  0  0  0  0  0  0  0  0  0
    9.0149   -1.2576   19.9616 O   0  0  0  0  0  0  0  0  0  0  0  0
    6.9425   -1.9341   21.2208 O   0  0  0  0  0  0  0  0  0  0  0  0
    6.8232    0.0702   19.6073 C   0  0  0  0  0  0  0  0  0  0  0  0
    5.6528    0.7257   19.9995 C   0  0  0  0  0  0  0  0  0  0  0  0
    4.9896    1.4410   19.0062 C   0  0  0  0  0  0  0  0  0  0  0  0
    5.5172    1.4626   17.7096 C   0  0  0  0  0  0  0  0  0  0  0  0
    6.6383    0.8139   17.3605 N   0  0  0  0  0  0  0  0  0  0  0  0
    7.2810    0.1286   18.3021 C   0  0  0  0  0  0  0  0  0  0  0  0
    8.1895   -0.3859   17.9965 H   0  0  0  0  0  0  0  0  0  0  0  0
    5.0206    2.0214   16.9181 H   0  0  0  0  0  0  0  0  0  0  0  0
    4.0793    1.9911   19.2160 H   0  0  0  0  0  0  0  0  0  0  0  0
    5.2638    0.6980   21.0230 H   0  0  0  0  0  0  0  0  0  0  0  0
    8.4581    1.9058   20.5685 H   0  0  0  0  0  0  0  0  0  0  0  0
    9.9708    1.0057   20.8946 H   0  0  0  0  0  0  0  0  0  0  0  0
    9.2161    2.0323   22.1407 H   0  0  0  0  0  0  0  0  0  0  0  0
  1  2  1  0
  2  3  1  0
  3  4  1  0
  4  5  1  0
  5  6  1  0
  6  7  1  0
  7  8  2  0
  8  9  1  0
  9 10  2  0
 10 11  1  0
 10 12  1  0
 12 13  2  0
 13 14  1  0
 12 15  1  0
  9 16  1  0
  8 17  1  0
  6 18  1  0
 18 19  1  0
 19 20  1  0
 19 21  1  0
 18 22  1  0
 18 23  1  0
  5 24  1  0
  5 25  1  0
  4 26  1  0
  4 27  1  0
  3 28  1  0
  2 29  1  0
 29 30  2  0
 29 31  2  0
 29 32  1  0
 32 33  2  0
 33 34  1  0
 34 35  2  0
 35 36  1  0
 36 37  2  0
 37 38  1  0
 35 39  1  0
 34 40  1  0
 33 41  1  0
  1 42  1  0
  1 43  1  0
  1 44  1  0
 19  3  1  0
 37 32  1  0
 13  7  1  0
M  END
>  <plip>  (1) 
-0.03571428571428571

>  <filename>  (1) 
[H][c]1[n][c]([H])[c]([S](=[O])(=[O])[N]([C]([H])([H])[H])[C]2([H])[C]([H])([H])[C]([H])([H])[N]([c]3[c]([H])[c]([H])[c]([Cl])[c]([H])[c]3[H])[C]([H])([H])[C]2([H])[H])[c]([H])[c]1[H]

$$$$
