
     RDKit          3D

 40 42  0  0  0  0  0  0  0  0999 V2000
    4.9165    1.7780   16.9972 H   0  0  0  0  0  0  0  0  0  0  0  0
    5.4051    1.2908   17.8366 C   0  0  0  0  0  0  0  0  0  0  0  0
    6.5645    0.6779   17.5782 N   0  0  0  0  0  0  0  0  0  0  0  0
    7.1732    0.0627   18.6026 C   0  0  0  0  0  0  0  0  0  0  0  0
    8.1184   -0.4213   18.3663 H   0  0  0  0  0  0  0  0  0  0  0  0
    6.6649   -0.0020   19.8983 C   0  0  0  0  0  0  0  0  0  0  0  0
    7.3556   -0.7549   21.0330 C   0  0  0  0  0  0  0  0  0  0  0  0
    7.3239    0.0769   22.1998 O   0  0  0  0  0  0  0  0  0  0  0  0
    8.0982    1.2715   22.1333 C   0  0  0  0  0  0  0  0  0  0  0  0
    8.1658    1.6464   21.1012 H   0  0  0  0  0  0  0  0  0  0  0  0
    9.1146    1.0711   22.5038 H   0  0  0  0  0  0  0  0  0  0  0  0
    7.4444    2.3185   22.9904 C   0  0  0  0  0  0  0  0  0  0  0  0
    7.6734    2.3632   24.3692 C   0  0  0  0  0  0  0  0  0  0  0  0
    8.3314    1.6401   24.8404 H   0  0  0  0  0  0  0  0  0  0  0  0
    7.0219    3.3289   25.1315 C   0  0  0  0  0  0  0  0  0  0  0  0
    7.1921    3.3682   26.2028 H   0  0  0  0  0  0  0  0  0  0  0  0
    6.1782    4.2391   24.6252 N   0  0  0  0  0  0  0  0  0  0  0  0
    5.9610    4.1915   23.3014 C   0  0  0  0  0  0  0  0  0  0  0  0
    5.2750    4.9286   22.8968 H   0  0  0  0  0  0  0  0  0  0  0  0
    6.5619    3.2634   22.4543 C   0  0  0  0  0  0  0  0  0  0  0  0
    6.3326    3.2657   21.3901 H   0  0  0  0  0  0  0  0  0  0  0  0
    6.5185   -2.0060   21.3626 C   0  0  0  0  0  0  0  0  0  0  0  0
    6.4735   -2.6143   20.4505 H   0  0  0  0  0  0  0  0  0  0  0  0
    5.4854   -1.7119   21.5747 H   0  0  0  0  0  0  0  0  0  0  0  0
    7.0956   -2.8264   22.5171 C   0  0  0  0  0  0  0  0  0  0  0  0
    7.0211   -2.2304   23.4339 H   0  0  0  0  0  0  0  0  0  0  0  0
    6.4869   -3.7254   22.6639 H   0  0  0  0  0  0  0  0  0  0  0  0
    8.5596   -3.2006   22.2650 C   0  0  0  0  0  0  0  0  0  0  0  0
    8.9684   -3.7240   23.1356 H   0  0  0  0  0  0  0  0  0  0  0  0
    8.6013   -3.9030   21.4220 H   0  0  0  0  0  0  0  0  0  0  0  0
    9.4205   -1.9757   21.9306 C   0  0  0  0  0  0  0  0  0  0  0  0
   10.4430   -2.2811   21.6848 H   0  0  0  0  0  0  0  0  0  0  0  0
    9.4805   -1.3227   22.8113 H   0  0  0  0  0  0  0  0  0  0  0  0
    8.8173   -1.1895   20.7592 C   0  0  0  0  0  0  0  0  0  0  0  0
    9.4419   -0.3265   20.4982 H   0  0  0  0  0  0  0  0  0  0  0  0
    8.8197   -1.8282   19.8787 H   0  0  0  0  0  0  0  0  0  0  0  0
    5.4432    0.6556   20.1500 C   0  0  0  0  0  0  0  0  0  0  0  0
    5.0134    0.6442   21.1557 H   0  0  0  0  0  0  0  0  0  0  0  0
    4.8068    1.3152   19.1044 C   0  0  0  0  0  0  0  0  0  0  0  0
    3.8704    1.8448   19.2587 H   0  0  0  0  0  0  0  0  0  0  0  0
  1  2  1  0
  2  3  2  0
  3  4  1  0
  4  5  1  0
  4  6  2  0
  6  7  1  0
  7  8  1  0
  8  9  1  0
  9 10  1  0
  9 11  1  0
  9 12  1  0
 12 13  2  0
 13 14  1  0
 13 15  1  0
 15 16  1  0
 15 17  2  0
 17 18  1  0
 18 19  1  0
 18 20  2  0
 20 21  1  0
  7 22  1  0
 22 23  1  0
 22 24  1  0
 22 25  1  0
 25 26  1  0
 25 27  1  0
 25 28  1  0
 28 29  1  0
 28 30  1  0
 28 31  1  0
 31 32  1  0
 31 33  1  0
 31 34  1  0
 34 35  1  0
 34 36  1  0
  6 37  1  0
 37 38  1  0
 37 39  2  0
 39 40  1  0
 39  2  1  0
 34  7  1  0
 20 12  1  0
M  END
>  <plip>  (1) 
-0.03571428571428571

>  <filename>  (1) 
[H][c]1[n][c]([H])[c]([C]2([O][C]([H])([H])[c]3[c]([H])[c]([H])[n][c]([H])[c]3[H])[C]([H])([H])[C]([H])([H])[C]([H])([H])[C]([H])([H])[C]2([H])[H])[c]([H])[c]1[H]

$$$$
