
     RDKit          3D

 35 36  0  0  0  0  0  0  0  0999 V2000
    6.8026   -1.0634   23.1679 C   0  0  0  0  0  0  0  0  0  0  0  0
    6.7206   -1.5829   21.7295 C   0  0  0  0  0  0  0  0  0  0  0  0
    7.4125   -0.6812   20.8025 N   0  0  0  0  0  0  0  0  0  0  0  0
    8.8083   -0.6007   20.8721 C   0  0  0  0  0  0  0  0  0  0  0  0
    9.4046    0.2769   20.2509 O   0  0  0  0  0  0  0  0  0  0  0  0
    9.5775   -1.7245   21.5873 C   0  0  0  0  0  0  0  0  0  0  0  0
   11.0120   -1.5667   21.6113 O   0  0  0  0  0  0  0  0  0  0  0  0
   11.4778   -0.6564   22.5271 C   0  0  0  0  0  0  0  0  0  0  0  0
   10.5958    0.0586   23.3632 C   0  0  0  0  0  0  0  0  0  0  0  0
   11.0771    0.9741   24.2946 C   0  0  0  0  0  0  0  0  0  0  0  0
   12.4513    1.1635   24.4040 C   0  0  0  0  0  0  0  0  0  0  0  0
   13.3452    0.4548   23.5953 C   0  0  0  0  0  0  0  0  0  0  0  0
   12.8609   -0.4331   22.6339 C   0  0  0  0  0  0  0  0  0  0  0  0
   14.0933   -1.2930   21.4499 Br  0  0  0  0  0  0  0  0  0  0  0  0
   14.4200    0.5774   23.6943 H   0  0  0  0  0  0  0  0  0  0  0  0
   12.8146    1.8687   25.1304 H   0  0  0  0  0  0  0  0  0  0  0  0
   10.4087    1.5339   24.9443 H   0  0  0  0  0  0  0  0  0  0  0  0
    9.5236   -0.0832   23.2745 H   0  0  0  0  0  0  0  0  0  0  0  0
    9.2090   -1.7964   22.6111 H   0  0  0  0  0  0  0  0  0  0  0  0
    9.3255   -2.6670   21.0994 H   0  0  0  0  0  0  0  0  0  0  0  0
    6.6870    0.0144   19.8021 C   0  0  0  0  0  0  0  0  0  0  0  0
    5.4457    0.5921   20.0829 C   0  0  0  0  0  0  0  0  0  0  0  0
    4.7806    1.2767   19.0583 C   0  0  0  0  0  0  0  0  0  0  0  0
    5.3580    1.3542   17.7831 C   0  0  0  0  0  0  0  0  0  0  0  0
    6.5466    0.7966   17.4927 N   0  0  0  0  0  0  0  0  0  0  0  0
    7.1951    0.1546   18.4861 C   0  0  0  0  0  0  0  0  0  0  0  0
    8.1587   -0.3008   18.2682 H   0  0  0  0  0  0  0  0  0  0  0  0
    4.8310    1.8834   16.9963 H   0  0  0  0  0  0  0  0  0  0  0  0
    3.8281    1.7654   19.2345 H   0  0  0  0  0  0  0  0  0  0  0  0
    5.0320    0.5224   21.0878 H   0  0  0  0  0  0  0  0  0  0  0  0
    5.6705   -1.6934   21.4392 H   0  0  0  0  0  0  0  0  0  0  0  0
    7.1786   -2.5784   21.6776 H   0  0  0  0  0  0  0  0  0  0  0  0
    7.8431   -0.9560   23.4878 H   0  0  0  0  0  0  0  0  0  0  0  0
    6.3059   -1.7673   23.8455 H   0  0  0  0  0  0  0  0  0  0  0  0
    6.3096   -0.0880   23.2498 H   0  0  0  0  0  0  0  0  0  0  0  0
  1  2  1  0
  2  3  1  0
  3  4  1  0
  4  5  2  0
  4  6  1  0
  6  7  1  0
  7  8  1  0
  8  9  2  0
  9 10  1  0
 10 11  2  0
 11 12  1  0
 12 13  2  0
 13 14  1  0
 12 15  1  0
 11 16  1  0
 10 17  1  0
  9 18  1  0
  6 19  1  0
  6 20  1  0
  3 21  1  0
 21 22  2  0
 22 23  1  0
 23 24  2  0
 24 25  1  0
 25 26  2  0
 26 27  1  0
 24 28  1  0
 23 29  1  0
 22 30  1  0
  2 31  1  0
  2 32  1  0
  1 33  1  0
  1 34  1  0
  1 35  1  0
 13  8  1  0
 26 21  1  0
M  END
>  <plip>  (1) 
-0.07142857142857142

>  <filename>  (1) 
[H][c]1[n][c]([H])[c]([N]([C](=[O])[C]([H])([H])[O][c]2[c]([H])[c]([H])[c]([H])[c]([H])[c]2[Br])[C]([H])([H])[C]([H])([H])[H])[c]([H])[c]1[H]

$$$$
