
     RDKit          3D

 31 32  0  0  0  0  0  0  0  0999 V2000
    4.9782    1.8002   16.9773 H   0  0  0  0  0  0  0  0  0  0  0  0
    5.4366    1.2849   17.8181 C   0  0  0  0  0  0  0  0  0  0  0  0
    6.5936    0.6561   17.5784 N   0  0  0  0  0  0  0  0  0  0  0  0
    7.1871    0.0319   18.6102 C   0  0  0  0  0  0  0  0  0  0  0  0
    8.1389   -0.4359   18.3549 H   0  0  0  0  0  0  0  0  0  0  0  0
    6.6790   -0.0049   19.9183 C   0  0  0  0  0  0  0  0  0  0  0  0
    7.3690   -0.6947   21.1053 C   0  0  0  0  0  0  0  0  0  0  0  0
    6.4682   -1.7221   21.5940 O   0  0  0  0  0  0  0  0  0  0  0  0
    6.2555   -2.8064   20.7971 C   0  0  0  0  0  0  0  0  0  0  0  0
    6.1961   -2.5518   19.7273 H   0  0  0  0  0  0  0  0  0  0  0  0
    7.2353   -3.7400   20.9647 F   0  0  0  0  0  0  0  0  0  0  0  0
    5.1119   -3.3847   21.1852 F   0  0  0  0  0  0  0  0  0  0  0  0
    8.7324   -1.3518   20.8105 C   0  0  0  0  0  0  0  0  0  0  0  0
    8.6345   -1.9485   19.9175 H   0  0  0  0  0  0  0  0  0  0  0  0
    8.9182   -2.0668   21.6150 H   0  0  0  0  0  0  0  0  0  0  0  0
    9.9058   -0.3949   20.6538 C   0  0  0  0  0  0  0  0  0  0  0  0
   10.8362   -0.9642   20.5420 H   0  0  0  0  0  0  0  0  0  0  0  0
    9.7375    0.1691   19.7307 H   0  0  0  0  0  0  0  0  0  0  0  0
   10.0210    0.5860   21.8181 C   0  0  0  0  0  0  0  0  0  0  0  0
   10.8069    1.3122   21.5945 H   0  0  0  0  0  0  0  0  0  0  0  0
   10.3440    0.0598   22.7271 H   0  0  0  0  0  0  0  0  0  0  0  0
    8.6785    1.2854   22.0661 C   0  0  0  0  0  0  0  0  0  0  0  0
    8.4125    1.8901   21.1874 H   0  0  0  0  0  0  0  0  0  0  0  0
    8.7558    1.9901   22.8997 H   0  0  0  0  0  0  0  0  0  0  0  0
    7.5691    0.2528   22.3136 C   0  0  0  0  0  0  0  0  0  0  0  0
    7.8280   -0.3778   23.1746 H   0  0  0  0  0  0  0  0  0  0  0  0
    6.6208    0.7294   22.5755 H   0  0  0  0  0  0  0  0  0  0  0  0
    5.4376    0.6227   20.1243 C   0  0  0  0  0  0  0  0  0  0  0  0
    4.9695    0.5925   21.1095 H   0  0  0  0  0  0  0  0  0  0  0  0
    4.8174    1.2862   19.0709 C   0  0  0  0  0  0  0  0  0  0  0  0
    3.8821    1.8168   19.2139 H   0  0  0  0  0  0  0  0  0  0  0  0
  1  2  1  0
  2  3  2  0
  3  4  1  0
  4  5  1  0
  4  6  2  0
  6  7  1  0
  7  8  1  0
  8  9  1  0
  9 10  1  0
  9 11  1  0
  9 12  1  0
  7 13  1  0
 13 14  1  0
 13 15  1  0
 13 16  1  0
 16 17  1  0
 16 18  1  0
 16 19  1  0
 19 20  1  0
 19 21  1  0
 19 22  1  0
 22 23  1  0
 22 24  1  0
 22 25  1  0
 25 26  1  0
 25 27  1  0
  6 28  1  0
 28 29  1  0
 28 30  2  0
 30 31  1  0
 30  2  1  0
 25  7  1  0
M  END
>  <plip>  (1) 
-0.0

>  <filename>  (1) 
[H][c]1[n][c]([H])[c]([C]2([O][C]([H])([F])[F])[C]([H])([H])[C]([H])([H])[C]([H])([H])[C]([H])([H])[C]2([H])[H])[c]([H])[c]1[H]

$$$$
