
     RDKit          3D

 40 42  0  0  0  0  0  0  0  0999 V2000
    4.9728    1.8589   16.9562 H   0  0  0  0  0  0  0  0  0  0  0  0
    5.4176    1.3249   17.7943 C   0  0  0  0  0  0  0  0  0  0  0  0
    6.5749    0.6939   17.5456 N   0  0  0  0  0  0  0  0  0  0  0  0
    7.1514    0.0548   18.5728 C   0  0  0  0  0  0  0  0  0  0  0  0
    8.0911   -0.4530   18.3520 H   0  0  0  0  0  0  0  0  0  0  0  0
    6.6217   -0.0089   19.8702 C   0  0  0  0  0  0  0  0  0  0  0  0
    7.3834   -0.6920   20.9757 C   0  0  0  0  0  0  0  0  0  0  0  0
    7.8679   -1.5877   20.5629 H   0  0  0  0  0  0  0  0  0  0  0  0
    6.6628   -1.0524   21.7261 H   0  0  0  0  0  0  0  0  0  0  0  0
    8.4195    0.1911   21.6385 C   0  0  0  0  0  0  0  0  0  0  0  0
    8.6079    1.5857   21.4800 C   0  0  0  0  0  0  0  0  0  0  0  0
    8.0688    2.2518   20.8083 H   0  0  0  0  0  0  0  0  0  0  0  0
    9.5679    2.0648   22.2523 N   0  0  0  0  0  0  0  0  0  0  0  0
   10.0223    0.9828   22.9215 N   0  0  0  0  0  0  0  0  0  0  0  0
   10.7452    1.0461   23.6319 H   0  0  0  0  0  0  0  0  0  0  0  0
    9.3727   -0.1483   22.5834 C   0  0  0  0  0  0  0  0  0  0  0  0
    9.7780   -1.2800   23.1881 O   0  0  0  0  0  0  0  0  0  0  0  0
    9.0757   -2.4805   22.8620 C   0  0  0  0  0  0  0  0  0  0  0  0
    9.2328   -2.6947   21.8007 H   0  0  0  0  0  0  0  0  0  0  0  0
    7.9998   -2.3555   23.0406 H   0  0  0  0  0  0  0  0  0  0  0  0
    9.6215   -3.6399   23.6795 C   0  0  0  0  0  0  0  0  0  0  0  0
   10.7118   -3.6543   23.5295 H   0  0  0  0  0  0  0  0  0  0  0  0
    9.2285   -4.5714   23.2211 H   0  0  0  0  0  0  0  0  0  0  0  0
    9.3614   -3.5907   25.1146 N   0  0  0  0  0  0  0  0  0  0  0  0
    9.9812   -4.6900   25.8391 C   0  0  0  0  0  0  0  0  0  0  0  0
   11.0743   -4.6123   25.8039 H   0  0  0  0  0  0  0  0  0  0  0  0
    9.7115   -5.6819   25.4167 H   0  0  0  0  0  0  0  0  0  0  0  0
    9.4230   -4.5526   27.2529 C   0  0  0  0  0  0  0  0  0  0  0  0
    9.3778   -5.5204   27.7535 H   0  0  0  0  0  0  0  0  0  0  0  0
   10.0719   -3.9202   27.8525 H   0  0  0  0  0  0  0  0  0  0  0  0
    8.0517   -3.8719   27.0688 C   0  0  0  0  0  0  0  0  0  0  0  0
    8.0123   -2.9488   27.6527 H   0  0  0  0  0  0  0  0  0  0  0  0
    7.2192   -4.5011   27.4004 H   0  0  0  0  0  0  0  0  0  0  0  0
    7.9681   -3.5528   25.5627 C   0  0  0  0  0  0  0  0  0  0  0  0
    7.5137   -2.5690   25.3882 H   0  0  0  0  0  0  0  0  0  0  0  0
    7.3405   -4.2984   25.0365 H   0  0  0  0  0  0  0  0  0  0  0  0
    5.4032    0.6409   20.1023 C   0  0  0  0  0  0  0  0  0  0  0  0
    4.9385    0.6116   21.0920 H   0  0  0  0  0  0  0  0  0  0  0  0
    4.7940    1.3227   19.0462 C   0  0  0  0  0  0  0  0  0  0  0  0
    3.8638    1.8604   19.1853 H   0  0  0  0  0  0  0  0  0  0  0  0
  1  2  1  0
  2  3  2  0
  3  4  1  0
  4  5  1  0
  4  6  2  0
  6  7  1  0
  7  8  1  0
  7  9  1  0
  7 10  1  0
 10 11  1  0
 11 12  1  0
 11 13  2  0
 13 14  1  0
 14 15  1  0
 14 16  1  0
 16 17  1  0
 17 18  1  0
 18 19  1  0
 18 20  1  0
 18 21  1  0
 21 22  1  0
 21 23  1  0
 21 24  1  0
 24 25  1  0
 25 26  1  0
 25 27  1  0
 25 28  1  0
 28 29  1  0
 28 30  1  0
 28 31  1  0
 31 32  1  0
 31 33  1  0
 31 34  1  0
 34 35  1  0
 34 36  1  0
  6 37  1  0
 37 38  1  0
 37 39  2  0
 39 40  1  0
 39  2  1  0
 16 10  2  0
 34 24  1  0
M  END
>  <plip>  (1) 
-0.07142857142857142

>  <filename>  (1) 
[H][c]1[n][c]([H])[c]([C]([H])([H])[c]2[c]([H])[n][n]([H])[c]2[O][C]([H])([H])[C]([H])([H])[N]2[C]([H])([H])[C]([H])([H])[C]([H])([H])[C]2([H])[H])[c]([H])[c]1[H]

$$$$
