
     RDKit          3D

 28 29  0  0  0  0  0  0  0  0999 V2000
    5.1718    2.0290   16.4711 H   0  0  0  0  0  0  0  0  0  0  0  0
    5.6434    1.5896   17.3455 C   0  0  0  0  0  0  0  0  0  0  0  0
    6.8375    1.0017   17.1481 N   0  0  0  0  0  0  0  0  0  0  0  0
    7.3930    0.3823   18.1950 C   0  0  0  0  0  0  0  0  0  0  0  0
    8.3521   -0.1033   18.0266 H   0  0  0  0  0  0  0  0  0  0  0  0
    6.7838    0.2598   19.4700 C   0  0  0  0  0  0  0  0  0  0  0  0
    7.4167   -0.6705   20.4166 N   0  0  0  0  0  0  0  0  0  0  0  0
    7.2477   -1.6228   20.0838 H   0  0  0  0  0  0  0  0  0  0  0  0
    6.7173   -1.0405   21.9431 S   0  0  0  0  0  0  0  0  0  0  0  0
    6.2051    0.1851   22.5327 O   0  0  0  0  0  0  0  0  0  0  0  0
    5.8585   -2.1428   21.5385 O   0  0  0  0  0  0  0  0  0  0  0  0
    8.1130   -1.6862   23.0099 C   0  0  0  0  0  0  0  0  0  0  0  0
    8.1045   -2.9290   23.5099 N   0  0  0  0  0  0  0  0  0  0  0  0
    9.1952   -3.3734   24.1542 C   0  0  0  0  0  0  0  0  0  0  0  0
    9.1246   -4.3788   24.5700 H   0  0  0  0  0  0  0  0  0  0  0  0
   10.3379   -2.5992   24.3047 C   0  0  0  0  0  0  0  0  0  0  0  0
   11.2024   -3.0258   24.7975 H   0  0  0  0  0  0  0  0  0  0  0  0
   10.3180   -1.2818   23.8263 C   0  0  0  0  0  0  0  0  0  0  0  0
   11.1955   -0.6440   23.9156 H   0  0  0  0  0  0  0  0  0  0  0  0
    9.1720   -0.7657   23.2063 C   0  0  0  0  0  0  0  0  0  0  0  0
    9.0884    0.6779   22.7902 C   0  0  0  0  0  0  0  0  0  0  0  0
    9.9748    1.2245   23.1269 H   0  0  0  0  0  0  0  0  0  0  0  0
    8.9999    0.7437   21.6994 H   0  0  0  0  0  0  0  0  0  0  0  0
    8.2011    1.1516   23.2209 H   0  0  0  0  0  0  0  0  0  0  0  0
    5.5930    0.9620   19.6864 C   0  0  0  0  0  0  0  0  0  0  0  0
    5.1405    0.9825   20.6717 H   0  0  0  0  0  0  0  0  0  0  0  0
    5.0128    1.6255   18.5906 C   0  0  0  0  0  0  0  0  0  0  0  0
    4.0704    2.1546   18.6973 H   0  0  0  0  0  0  0  0  0  0  0  0
  1  2  1  0
  2  3  2  0
  3  4  1  0
  4  5  1  0
  4  6  2  0
  6  7  1  0
  7  8  1  0
  7  9  1  0
  9 10  2  0
  9 11  2  0
  9 12  1  0
 12 13  2  0
 13 14  1  0
 14 15  1  0
 14 16  2  0
 16 17  1  0
 16 18  1  0
 18 19  1  0
 18 20  2  0
 20 21  1  0
 21 22  1  0
 21 23  1  0
 21 24  1  0
  6 25  1  0
 25 26  1  0
 25 27  2  0
 27 28  1  0
 27  2  1  0
 20 12  1  0
M  END
>  <plip>  (1) 
-0.10344827586206896

>  <filename>  (1) 
[H][c]1[n][c]([H])[c]([N]([H])[S](=[O])(=[O])[c]2[n][c]([H])[c]([H])[c]([H])[c]2[C]([H])([H])[H])[c]([H])[c]1[H]

$$$$
