
     RDKit          3D

 36 38  0  0  0  0  0  0  0  0999 V2000
    9.3821   -2.1324   23.5249 N   0  0  0  0  0  4  0  0  0  0  0  0
    8.6762   -3.4079   23.0372 C   0  0  0  0  0  0  0  0  0  0  0  0
    8.4155   -3.4184   21.5074 C   0  0  0  0  0  0  0  0  0  0  0  0
    7.3078   -2.5372   21.0642 N   0  0  0  0  0  0  0  0  0  0  0  0
    7.7573   -0.9112   21.2256 S   0  0  0  0  0  0  0  0  0  0  0  0
    7.4380   -0.4571   22.5783 O   0  0  0  0  0  0  0  0  0  0  0  0
    9.1265   -0.7820   20.7595 O   0  0  0  0  0  0  0  0  0  0  0  0
    6.7033   -0.2272   20.0694 C   0  0  0  0  0  0  0  0  0  0  0  0
    5.5834    0.5480   20.3622 C   0  0  0  0  0  0  0  0  0  0  0  0
    4.9887    1.1659   19.2685 C   0  0  0  0  0  0  0  0  0  0  0  0
    5.5211    0.9581   17.9913 C   0  0  0  0  0  0  0  0  0  0  0  0
    6.5727    0.1631   17.7397 N   0  0  0  0  0  0  0  0  0  0  0  0
    7.1508   -0.4338   18.7718 C   0  0  0  0  0  0  0  0  0  0  0  0
    8.0097   -1.0649   18.5500 H   0  0  0  0  0  0  0  0  0  0  0  0
    5.1088    1.4718   17.1297 H   0  0  0  0  0  0  0  0  0  0  0  0
    4.1290    1.8121   19.3841 H   0  0  0  0  0  0  0  0  0  0  0  0
    5.2102    0.6910   21.3820 H   0  0  0  0  0  0  0  0  0  0  0  0
    6.0288   -2.8946   21.7220 C   0  0  0  0  0  0  0  0  0  0  0  0
    6.1142   -3.2849   23.2035 C   0  0  0  0  0  0  0  0  0  0  0  0
    4.9407   -3.4650   23.9580 C   0  0  0  0  0  0  0  0  0  0  0  0
    5.0028   -3.8548   25.2994 C   0  0  0  0  0  0  0  0  0  0  0  0
    6.2414   -4.0346   25.9208 C   0  0  0  0  0  0  0  0  0  0  0  0
    7.4116   -3.8299   25.1892 C   0  0  0  0  0  0  0  0  0  0  0  0
    7.3641   -3.5059   23.8225 C   0  0  0  0  0  0  0  0  0  0  0  0
    8.3709   -3.9086   25.6925 H   0  0  0  0  0  0  0  0  0  0  0  0
    6.2955   -4.3362   26.9646 H   0  0  0  0  0  0  0  0  0  0  0  0
    4.0851   -4.0148   25.8596 H   0  0  0  0  0  0  0  0  0  0  0  0
    3.9702   -3.2988   23.4964 H   0  0  0  0  0  0  0  0  0  0  0  0
    5.6331   -3.7466   21.1510 H   0  0  0  0  0  0  0  0  0  0  0  0
    5.2881   -2.1015   21.5862 H   0  0  0  0  0  0  0  0  0  0  0  0
    9.3262   -3.1378   20.9719 H   0  0  0  0  0  0  0  0  0  0  0  0
    8.1409   -4.4392   21.2129 H   0  0  0  0  0  0  0  0  0  0  0  0
    9.2884   -4.2835   23.2723 H   0  0  0  0  0  0  0  0  0  0  0  0
    8.6721   -1.3455   23.4670 H   0  0  0  0  0  0  0  0  0  0  0  0
    9.6405   -2.2374   24.5247 H   0  0  0  0  0  0  0  0  0  0  0  0
   10.2230   -1.8854   22.9680 H   0  0  0  0  0  0  0  0  0  0  0  0
  1  2  1  0
  2  3  1  0
  3  4  1  0
  4  5  1  0
  5  6  2  0
  5  7  2  0
  5  8  1  0
  8  9  2  0
  9 10  1  0
 10 11  2  0
 11 12  1  0
 12 13  2  0
 13 14  1  0
 11 15  1  0
 10 16  1  0
  9 17  1  0
  4 18  1  0
 18 19  1  0
 19 20  2  0
 20 21  1  0
 21 22  2  0
 22 23  1  0
 23 24  2  0
 23 25  1  0
 22 26  1  0
 21 27  1  0
 20 28  1  0
 18 29  1  0
 18 30  1  0
  3 31  1  0
  3 32  1  0
  2 33  1  0
  1 34  1  0
  1 35  1  0
  1 36  1  0
 24  2  1  0
 13  8  1  0
 24 19  1  0
M  CHG  1   1   1
M  END
>  <plip>  (1) 
-0.06666666666666667

>  <filename>  (1) 
[H][c]1[n][c]([H])[c]([S](=[O])(=[O])[N]2[C]([H])([H])[c]3[c]([H])[c]([H])[c]([H])[c]([H])[c]3[C]([H])([N+]([H])([H])[H])[C]2([H])[H])[c]([H])[c]1[H]

$$$$
