
     RDKit          3D

 33 35  0  0  0  0  0  0  0  0999 V2000
    4.9555    1.7726   17.0393 H   0  0  0  0  0  0  0  0  0  0  0  0
    5.4294    1.2657   17.8767 C   0  0  0  0  0  0  0  0  0  0  0  0
    6.5818    0.6366   17.6026 N   0  0  0  0  0  0  0  0  0  0  0  0
    7.2166    0.0090   18.5995 C   0  0  0  0  0  0  0  0  0  0  0  0
    8.1780   -0.4482   18.3678 H   0  0  0  0  0  0  0  0  0  0  0  0
    6.7052   -0.0303   19.9145 C   0  0  0  0  0  0  0  0  0  0  0  0
    7.2847   -0.7224   20.9972 O   0  0  0  0  0  0  0  0  0  0  0  0
    8.6032   -0.8025   21.1327 C   0  0  0  0  0  0  0  0  0  0  0  0
    9.5207   -0.1075   20.5148 N   0  0  0  0  0  0  0  0  0  0  0  0
   10.7062   -0.5168   21.0343 N   0  0  0  0  0  0  0  0  0  0  0  0
   10.5500   -1.4251   21.9115 N   0  0  0  0  0  0  0  0  0  0  0  0
    9.1929   -1.6539   21.9799 N   0  0  0  0  0  0  0  0  0  0  0  0
    8.4204   -2.7275   23.0163 S   0  0  0  0  0  0  0  0  0  0  0  0
    9.3668   -3.7446   23.4249 O   0  0  0  0  0  0  0  0  0  0  0  0
    7.1321   -3.0507   22.4561 O   0  0  0  0  0  0  0  0  0  0  0  0
    8.1624   -1.7450   24.3406 N   0  0  0  0  0  0  0  0  0  0  0  0
    9.3604   -1.3694   25.1240 C   0  0  0  0  0  0  0  0  0  0  0  0
   10.0199   -0.6802   24.5746 H   0  0  0  0  0  0  0  0  0  0  0  0
    9.9250   -2.2869   25.3249 H   0  0  0  0  0  0  0  0  0  0  0  0
    8.9552   -0.6962   26.4478 C   0  0  0  0  0  0  0  0  0  0  0  0
    8.5665   -1.4549   27.1462 H   0  0  0  0  0  0  0  0  0  0  0  0
    9.8342   -0.2275   26.9074 H   0  0  0  0  0  0  0  0  0  0  0  0
    8.0033    0.3443   26.2526 O   0  0  0  0  0  0  0  0  0  0  0  0
    6.8141   -0.1219   25.6252 C   0  0  0  0  0  0  0  0  0  0  0  0
    6.1624    0.7518   25.5092 H   0  0  0  0  0  0  0  0  0  0  0  0
    6.2999   -0.8581   26.2628 H   0  0  0  0  0  0  0  0  0  0  0  0
    7.0908   -0.7356   24.2438 C   0  0  0  0  0  0  0  0  0  0  0  0
    6.1915   -1.2256   23.8593 H   0  0  0  0  0  0  0  0  0  0  0  0
    7.3460    0.0904   23.5629 H   0  0  0  0  0  0  0  0  0  0  0  0
    5.4965    0.6077   20.1921 C   0  0  0  0  0  0  0  0  0  0  0  0
    5.1066    0.5786   21.2100 H   0  0  0  0  0  0  0  0  0  0  0  0
    4.8476    1.2753   19.1487 C   0  0  0  0  0  0  0  0  0  0  0  0
    3.9133    1.8057   19.3038 H   0  0  0  0  0  0  0  0  0  0  0  0
  1  2  1  0
  2  3  2  0
  3  4  1  0
  4  5  1  0
  4  6  2  0
  6  7  1  0
  7  8  1  0
  8  9  2  0
  9 10  1  0
 10 11  2  0
 11 12  1  0
 12 13  1  0
 13 14  2  0
 13 15  2  0
 13 16  1  0
 16 17  1  0
 17 18  1  0
 17 19  1  0
 17 20  1  0
 20 21  1  0
 20 22  1  0
 20 23  1  0
 23 24  1  0
 24 25  1  0
 24 26  1  0
 24 27  1  0
 27 28  1  0
 27 29  1  0
  6 30  1  0
 30 31  1  0
 30 32  2  0
 32 33  1  0
 32  2  1  0
 12  8  1  0
 27 16  1  0
M  END
>  <plip>  (1) 
-0.07142857142857142

>  <filename>  (1) 
[H][c]1[n][c]([H])[c]([O][c]2[n][n][n][n]2[S](=[O])(=[O])[N]2[C]([H])([H])[C]([H])([H])[O][C]([H])([H])[C]2([H])[H])[c]([H])[c]1[H]

$$$$
