
     RDKit          3D

 57 58  0  0  0  0  0  0  0  0999 V2000
    5.2781    2.3985   27.1030 C   0  0  0  0  0  0  0  0  0  0  0  0
    5.2520    2.9635   25.8036 O   0  0  0  0  0  0  0  0  0  0  0  0
    6.1308    2.5404   24.8575 C   0  0  0  0  0  0  0  0  0  0  0  0
    5.9916    3.1331   23.6007 C   0  0  0  0  0  0  0  0  0  0  0  0
    6.8635    2.7679   22.5834 C   0  0  0  0  0  0  0  0  0  0  0  0
    6.7174    3.3062   21.3527 O   0  0  0  0  0  0  0  0  0  0  0  0
    5.9232    3.8494   21.3389 H   0  0  0  0  0  0  0  0  0  0  0  0
    7.8842    1.8368   22.7612 C   0  0  0  0  0  0  0  0  0  0  0  0
    8.7186    1.3627   21.5897 C   0  0  0  0  0  0  0  0  0  0  0  0
   10.2095    1.6116   21.7447 C   0  0  0  0  0  0  0  0  0  0  0  0
   10.4162    2.6826   21.8258 H   0  0  0  0  0  0  0  0  0  0  0  0
   10.5947    1.1196   22.6404 H   0  0  0  0  0  0  0  0  0  0  0  0
   10.7494    1.2297   20.8718 H   0  0  0  0  0  0  0  0  0  0  0  0
    8.5058   -0.1024   21.5111 N   0  0  0  0  0  4  0  0  0  0  0  0
    7.1178   -0.5655   21.2723 C   0  0  0  0  0  0  0  0  0  0  0  0
    7.1501   -2.0921   21.2606 C   0  0  0  0  0  0  0  0  0  0  0  0
    5.7652   -2.7019   21.1068 C   0  0  0  0  0  0  0  0  0  0  0  0
    5.7136   -4.2262   21.0363 N   0  0  0  0  0  4  0  0  0  0  0  0
    6.4738   -4.9431   22.1277 C   0  0  0  0  0  0  0  0  0  0  0  0
    6.2036   -4.5466   23.1114 H   0  0  0  0  0  0  0  0  0  0  0  0
    6.2481   -6.0150   22.1044 H   0  0  0  0  0  0  0  0  0  0  0  0
    7.5567   -4.8266   21.9938 H   0  0  0  0  0  0  0  0  0  0  0  0
    6.1034   -4.7521   19.6842 C   0  0  0  0  0  0  0  0  0  0  0  0
    7.1731   -4.9671   19.6722 H   0  0  0  0  0  0  0  0  0  0  0  0
    5.9076   -4.0049   18.9122 H   0  0  0  0  0  0  0  0  0  0  0  0
    5.5586   -5.6665   19.4310 H   0  0  0  0  0  0  0  0  0  0  0  0
    4.7184   -4.4686   21.2052 H   0  0  0  0  0  0  0  0  0  0  0  0
    5.1351   -2.3742   21.9407 H   0  0  0  0  0  0  0  0  0  0  0  0
    5.3148   -2.3218   20.1840 H   0  0  0  0  0  0  0  0  0  0  0  0
    7.8285   -2.4109   20.4688 H   0  0  0  0  0  0  0  0  0  0  0  0
    7.5937   -2.4202   22.2065 H   0  0  0  0  0  0  0  0  0  0  0  0
    6.5013    0.0963   20.0567 C   0  0  0  0  0  0  0  0  0  0  0  0
    5.2669    0.7657   20.1392 C   0  0  0  0  0  0  0  0  0  0  0  0
    4.7546    1.3800   18.9957 C   0  0  0  0  0  0  0  0  0  0  0  0
    5.4852    1.3023   17.8052 C   0  0  0  0  0  0  0  0  0  0  0  0
    6.6543    0.6546   17.7001 N   0  0  0  0  0  0  0  0  0  0  0  0
    7.1466    0.0856   18.8100 C   0  0  0  0  0  0  0  0  0  0  0  0
    8.1140   -0.4011   18.6850 H   0  0  0  0  0  0  0  0  0  0  0  0
    5.1147    1.7848   16.9038 H   0  0  0  0  0  0  0  0  0  0  0  0
    3.8202    1.9302   19.0149 H   0  0  0  0  0  0  0  0  0  0  0  0
    4.7281    0.8219   21.0866 H   0  0  0  0  0  0  0  0  0  0  0  0
    6.5062   -0.2496   22.1295 H   0  0  0  0  0  0  0  0  0  0  0  0
    8.7931   -0.3907   22.4763 H   0  0  0  0  0  0  0  0  0  0  0  0
    9.1448   -0.5246   20.8199 H   0  0  0  0  0  0  0  0  0  0  0  0
    8.3634    1.8449   20.6772 H   0  0  0  0  0  0  0  0  0  0  0  0
    7.9588    1.2164   24.0185 C   0  0  0  0  0  0  0  0  0  0  0  0
    8.8514    0.1648   24.0888 O   0  0  0  0  0  0  0  0  0  0  0  0
    9.1881   -0.4746   25.3115 C   0  0  0  0  0  0  0  0  0  0  0  0
    8.3340   -1.0289   25.7225 H   0  0  0  0  0  0  0  0  0  0  0  0
    9.5751    0.2291   26.0600 H   0  0  0  0  0  0  0  0  0  0  0  0
    9.9758   -1.1833   25.0452 H   0  0  0  0  0  0  0  0  0  0  0  0
    7.1097    1.5611   25.0770 C   0  0  0  0  0  0  0  0  0  0  0  0
    7.1682    1.0534   26.0282 H   0  0  0  0  0  0  0  0  0  0  0  0
    5.2222    3.8753   23.4270 H   0  0  0  0  0  0  0  0  0  0  0  0
    6.2395    2.5684   27.6065 H   0  0  0  0  0  0  0  0  0  0  0  0
    5.0689    1.3206   27.0809 H   0  0  0  0  0  0  0  0  0  0  0  0
    4.4920    2.9007   27.6689 H   0  0  0  0  0  0  0  0  0  0  0  0
  1  2  1  0
  2  3  1  0
  3  4  2  0
  4  5  1  0
  5  6  1  0
  6  7  1  0
  5  8  2  0
  8  9  1  0
  9 10  1  0
 10 11  1  0
 10 12  1  0
 10 13  1  0
  9 14  1  0
 14 15  1  0
 15 16  1  0
 16 17  1  0
 17 18  1  0
 18 19  1  0
 19 20  1  0
 19 21  1  0
 19 22  1  0
 18 23  1  0
 23 24  1  0
 23 25  1  0
 23 26  1  0
 18 27  1  0
 17 28  1  0
 17 29  1  0
 16 30  1  0
 16 31  1  0
 15 32  1  0
 32 33  2  0
 33 34  1  0
 34 35  2  0
 35 36  1  0
 36 37  2  0
 37 38  1  0
 35 39  1  0
 34 40  1  0
 33 41  1  0
 15 42  1  0
 14 43  1  0
 14 44  1  0
  9 45  1  0
  8 46  1  0
 46 47  1  0
 47 48  1  0
 48 49  1  0
 48 50  1  0
 48 51  1  0
 46 52  2  0
 52 53  1  0
  4 54  1  0
  1 55  1  0
  1 56  1  0
  1 57  1  0
 52  3  1  0
 37 32  1  0
M  CHG  2  14   1  18   1
M  END
>  <plip>  (1) 
-0.14285714285714285

>  <filename>  (1) 
[H][O][c]1[c]([H])[c]([O][C]([H])([H])[H])[c]([H])[c]([O][C]([H])([H])[H])[c]1[C]([H])([C]([H])([H])[H])[N+]([H])([H])[C]([H])([c]1[c]([H])[n][c]([H])[c]([H])[c]1[H])[C]([H])([H])[C]([H])([H])[N+]([H])([C]([H])([H])[H])[C]([H])([H])[H]

$$$$
