
     RDKit          3D

 40 42  0  0  0  0  0  0  0  0999 V2000
    8.1771   -1.8050   20.8065 C   0  0  0  0  0  0  0  0  0  0  0  0
    7.3365   -0.5735   21.1262 C   0  0  2  0  0  0  0  0  0  0  0  0
    6.6432    0.0667   19.9445 C   0  0  0  0  0  0  0  0  0  0  0  0
    5.4160    0.7168   20.1408 C   0  0  0  0  0  0  0  0  0  0  0  0
    4.7981    1.3329   19.0551 C   0  0  0  0  0  0  0  0  0  0  0  0
    5.4274    1.2882   17.8067 C   0  0  0  0  0  0  0  0  0  0  0  0
    6.5879    0.6556   17.5918 N   0  0  0  0  0  0  0  0  0  0  0  0
    7.1696    0.0625   18.6476 C   0  0  0  0  0  0  0  0  0  0  0  0
    8.1086   -0.4505   18.4365 H   0  0  0  0  0  0  0  0  0  0  0  0
    4.9702    1.7739   16.9465 H   0  0  0  0  0  0  0  0  0  0  0  0
    3.8514    1.8473   19.1695 H   0  0  0  0  0  0  0  0  0  0  0  0
    4.9775    0.7539   21.1427 H   0  0  0  0  0  0  0  0  0  0  0  0
    8.1270    0.4061   21.9048 N   0  0  0  0  0  0  0  0  0  0  0  0
    9.1250    1.2525   21.2432 C   0  0  0  0  0  0  0  0  0  0  0  0
    8.8127    2.3061   21.2019 H   0  0  0  0  0  0  0  0  0  0  0  0
   10.0882    1.2029   21.7706 H   0  0  0  0  0  0  0  0  0  0  0  0
    9.2956    0.9200   20.2126 H   0  0  0  0  0  0  0  0  0  0  0  0
    8.0173    0.3159   23.2808 C   0  0  0  0  0  0  0  0  0  0  0  0
    7.5544   -0.6774   23.8244 O   0  0  0  0  0  0  0  0  0  0  0  0
    8.5256    1.5058   24.1068 C   0  0  0  0  0  0  0  0  0  0  0  0
    7.6003    1.8760   25.2294 C   0  0  0  0  0  0  0  0  0  0  0  0
    7.7152    1.4918   26.5346 C   0  0  0  0  0  0  0  0  0  0  0  0
    6.6126    1.9026   27.2495 N   0  0  0  0  0  0  0  0  0  0  0  0
    5.7518    2.5432   26.4104 C   0  0  0  0  0  0  0  0  0  0  0  0
    6.3329    2.5533   25.1138 C   0  0  0  0  0  0  0  0  0  0  0  0
    5.5379    3.1621   24.1307 C   0  0  0  0  0  0  0  0  0  0  0  0
    6.0474    3.2287   22.4753 Cl  0  0  0  0  0  0  0  0  0  0  0  0
    4.3053    3.7141   24.4767 C   0  0  0  0  0  0  0  0  0  0  0  0
    3.8836    3.6248   25.8122 C   0  0  0  0  0  0  0  0  0  0  0  0
    4.5795    3.0454   26.7924 N   0  0  0  0  0  0  0  0  0  0  0  0
    2.9171    4.0461   26.0930 H   0  0  0  0  0  0  0  0  0  0  0  0
    3.6919    4.2016   23.7308 H   0  0  0  0  0  0  0  0  0  0  0  0
    6.3461    1.7278   28.2017 H   0  0  0  0  0  0  0  0  0  0  0  0
    8.5152    0.9290   27.0087 H   0  0  0  0  0  0  0  0  0  0  0  0
    8.6692    2.3700   23.4507 H   0  0  0  0  0  0  0  0  0  0  0  0
    9.5072    1.2045   24.4973 H   0  0  0  0  0  0  0  0  0  0  0  0
    6.5169   -0.9071   21.7793 H   0  0  0  0  0  0  0  0  0  0  0  0
    8.6181   -2.1836   21.7346 H   0  0  0  0  0  0  0  0  0  0  0  0
    7.5231   -2.5856   20.4098 H   0  0  0  0  0  0  0  0  0  0  0  0
    8.9834   -1.5761   20.0965 H   0  0  0  0  0  0  0  0  0  0  0  0
  1  2  1  0
  2  3  1  0
  3  4  2  0
  4  5  1  0
  5  6  2  0
  6  7  1  0
  7  8  2  0
  8  9  1  0
  6 10  1  0
  5 11  1  0
  4 12  1  0
  2 13  1  0
 13 14  1  0
 14 15  1  0
 14 16  1  0
 14 17  1  0
 13 18  1  0
 18 19  2  0
 18 20  1  0
 20 21  1  0
 21 22  2  0
 22 23  1  0
 23 24  1  0
 24 25  2  0
 25 26  1  0
 26 27  1  0
 26 28  2  0
 28 29  1  0
 29 30  2  0
 29 31  1  0
 28 32  1  0
 23 33  1  0
 22 34  1  0
 20 35  1  0
 20 36  1  0
  2 37  1  1
  1 38  1  0
  1 39  1  0
  1 40  1  0
  8  3  1  0
 25 21  1  0
 30 24  1  0
M  END
>  <plip>  (1) 
-0.06896551724137931

>  <filename>  (1) 
[H][c]1[n][c]([H])[c]([C@]([H])([N]([C](=[O])[C]([H])([H])[c]2[c]([H])[n]([H])[c]3[n][c]([H])[c]([H])[c]([Cl])[c]23)[C]([H])([H])[H])[C]([H])([H])[H])[c]([H])[c]1[H]

$$$$
