
     RDKit          3D

 50 53  0  0  0  0  0  0  0  0999 V2000
    9.7712   -4.6461   26.6032 N   0  0  0  0  0  0  0  0  0  0  0  0
    8.5753   -4.2009   26.0516 C   0  0  0  0  0  0  0  0  0  0  0  0
    7.8427   -3.2457   26.7476 C   0  0  0  0  0  0  0  0  0  0  0  0
    6.6777   -2.6776   26.1992 C   0  0  0  0  0  0  0  0  0  0  0  0
    6.2271   -3.0400   24.9346 C   0  0  0  0  0  0  0  0  0  0  0  0
    6.9672   -4.0059   24.2328 C   0  0  0  0  0  0  0  0  0  0  0  0
    8.1172   -4.6368   24.7800 C   0  0  0  0  0  0  0  0  0  0  0  0
    8.5376   -5.6099   23.8097 C   0  0  0  0  0  0  0  0  0  0  0  0
    7.7048   -5.4864   22.7316 C   0  0  0  0  0  0  0  0  0  0  0  0
    6.7472   -4.5224   22.9728 N   0  0  0  0  0  0  0  0  0  0  0  0
    5.7244   -4.0865   22.0282 C   0  0  0  0  0  0  0  0  0  0  0  0
    6.0931   -2.9416   21.0602 C   0  0  0  0  0  0  0  0  0  0  0  0
    5.9931   -3.0774   19.8547 O   0  0  0  0  0  0  0  0  0  0  0  0
    6.4870   -1.7947   21.6691 N   0  0  0  0  0  0  0  0  0  0  0  0
    7.3284   -0.7805   21.0420 C   0  0  0  0  0  0  0  0  0  0  0  0
    6.5762   -0.0689   19.9225 C   0  0  0  0  0  0  0  0  0  0  0  0
    5.3686    0.6169   20.1305 C   0  0  0  0  0  0  0  0  0  0  0  0
    4.7965    1.3077   19.0585 C   0  0  0  0  0  0  0  0  0  0  0  0
    5.4460    1.2782   17.8174 C   0  0  0  0  0  0  0  0  0  0  0  0
    6.5759    0.5970   17.5806 N   0  0  0  0  0  0  0  0  0  0  0  0
    7.1051   -0.0612   18.6237 C   0  0  0  0  0  0  0  0  0  0  0  0
    8.0285   -0.6069   18.4202 H   0  0  0  0  0  0  0  0  0  0  0  0
    5.0308    1.8082   16.9652 H   0  0  0  0  0  0  0  0  0  0  0  0
    3.8787    1.8759   19.1747 H   0  0  0  0  0  0  0  0  0  0  0  0
    4.8847    0.6056   21.1119 H   0  0  0  0  0  0  0  0  0  0  0  0
    7.8412    0.1945   22.1441 C   0  0  0  0  0  0  0  0  0  0  0  0
    8.6685   -0.4665   23.2759 C   0  0  0  0  0  0  0  0  0  0  0  0
   10.1341   -0.4784   22.7950 C   0  0  0  0  0  0  0  0  0  0  0  0
   10.2286    0.6182   21.7089 C   0  0  0  0  0  0  0  0  0  0  0  0
    8.8298    1.2643   21.6275 C   0  0  0  0  0  0  0  0  0  0  0  0
    8.5797    1.6273   20.6245 H   0  0  0  0  0  0  0  0  0  0  0  0
    8.7858    2.1427   22.2847 H   0  0  0  0  0  0  0  0  0  0  0  0
   10.5073    0.1670   20.7549 H   0  0  0  0  0  0  0  0  0  0  0  0
   10.9999    1.3642   21.9275 H   0  0  0  0  0  0  0  0  0  0  0  0
   10.4158   -1.4562   22.3876 H   0  0  0  0  0  0  0  0  0  0  0  0
   10.8228   -0.3002   23.6276 H   0  0  0  0  0  0  0  0  0  0  0  0
    8.5824    0.1612   24.1714 H   0  0  0  0  0  0  0  0  0  0  0  0
    8.3100   -1.4587   23.5758 H   0  0  0  0  0  0  0  0  0  0  0  0
    6.9466    0.6698   22.5722 H   0  0  0  0  0  0  0  0  0  0  0  0
    8.2051   -1.2719   20.5833 H   0  0  0  0  0  0  0  0  0  0  0  0
    6.3230   -1.7118   22.6601 H   0  0  0  0  0  0  0  0  0  0  0  0
    5.4502   -4.9236   21.3915 H   0  0  0  0  0  0  0  0  0  0  0  0
    4.8362   -3.7925   22.5998 H   0  0  0  0  0  0  0  0  0  0  0  0
    7.7035   -6.0019   21.7792 H   0  0  0  0  0  0  0  0  0  0  0  0
    9.3216   -6.3460   23.9389 H   0  0  0  0  0  0  0  0  0  0  0  0
    5.3340   -2.5882   24.5094 H   0  0  0  0  0  0  0  0  0  0  0  0
    6.1315   -1.9305   26.7669 H   0  0  0  0  0  0  0  0  0  0  0  0
    8.2021   -2.9483   27.7276 H   0  0  0  0  0  0  0  0  0  0  0  0
    9.7536   -4.5755   27.6111 H   0  0  0  0  0  0  0  0  0  0  0  0
   10.0424   -5.5685   26.3043 H   0  0  0  0  0  0  0  0  0  0  0  0
  1  2  1  0
  2  3  2  0
  3  4  1  0
  4  5  2  0
  5  6  1  0
  6  7  2  0
  7  8  1  0
  8  9  2  0
  9 10  1  0
 10 11  1  0
 11 12  1  0
 12 13  2  0
 12 14  1  0
 14 15  1  0
 15 16  1  0
 16 17  2  0
 17 18  1  0
 18 19  2  0
 19 20  1  0
 20 21  2  0
 21 22  1  0
 19 23  1  0
 18 24  1  0
 17 25  1  0
 15 26  1  0
 26 27  1  0
 27 28  1  0
 28 29  1  0
 29 30  1  0
 30 31  1  0
 30 32  1  0
 29 33  1  0
 29 34  1  0
 28 35  1  0
 28 36  1  0
 27 37  1  0
 27 38  1  0
 26 39  1  0
 15 40  1  0
 14 41  1  0
 11 42  1  0
 11 43  1  0
  9 44  1  0
  8 45  1  0
  5 46  1  0
  4 47  1  0
  3 48  1  0
  1 49  1  0
  1 50  1  0
  7  2  1  0
 21 16  1  0
 30 26  1  0
 10  6  1  0
M  END
>  <plip>  (1) 
-0.25

>  <filename>  (1) 
[H][c]1[n][c]([H])[c]([C]([H])([N]([H])[C](=[O])[C]([H])([H])[n]2[c]([H])[c]([H])[c]3[c]([N]([H])[H])[c]([H])[c]([H])[c]([H])[c]32)[C]2([H])[C]([H])([H])[C]([H])([H])[C]([H])([H])[C]2([H])[H])[c]([H])[c]1[H]

$$$$
