
     RDKit          3D

 44 46  0  0  0  0  0  0  0  0999 V2000
    6.1040   -3.1185   19.9820 O   0  0  0  0  0  0  0  0  0  0  0  0
    5.9238   -2.7942   21.1380 C   0  0  0  0  0  0  0  0  0  0  0  0
    5.0617   -3.6080   22.0846 C   0  0  0  0  0  0  0  0  0  0  0  0
    5.8347   -4.4758   23.1017 C   0  0  0  0  0  0  0  0  0  0  0  0
    4.8685   -5.2828   23.9435 C   0  0  0  0  0  0  0  0  0  0  0  0
    4.4201   -6.5428   23.5146 C   0  0  0  0  0  0  0  0  0  0  0  0
    3.4888   -7.2633   24.2625 C   0  0  0  0  0  0  0  0  0  0  0  0
    2.9748   -6.7452   25.4588 C   0  0  0  0  0  0  0  0  0  0  0  0
    1.9580   -7.5185   26.2789 C   0  0  0  0  0  0  0  0  0  0  0  0
    1.7990   -6.9423   27.6880 C   0  0  0  0  0  0  0  0  0  0  0  0
    1.6721   -5.5326   27.6384 O   0  0  0  0  0  0  0  0  0  0  0  0
    2.8588   -4.8997   27.1886 C   0  0  0  0  0  0  0  0  0  0  0  0
    3.3917   -5.4660   25.8806 C   0  0  0  0  0  0  0  0  0  0  0  0
    4.3269   -4.7507   25.1209 C   0  0  0  0  0  0  0  0  0  0  0  0
    4.6365   -3.7554   25.4433 H   0  0  0  0  0  0  0  0  0  0  0  0
    2.6064   -3.8410   27.0759 H   0  0  0  0  0  0  0  0  0  0  0  0
    3.6380   -4.9616   27.9697 H   0  0  0  0  0  0  0  0  0  0  0  0
    0.8910   -7.3188   28.1697 H   0  0  0  0  0  0  0  0  0  0  0  0
    2.6573   -7.2321   28.3188 H   0  0  0  0  0  0  0  0  0  0  0  0
    0.9866   -7.4799   25.7690 H   0  0  0  0  0  0  0  0  0  0  0  0
    2.2381   -8.5760   26.3470 H   0  0  0  0  0  0  0  0  0  0  0  0
    3.1543   -8.2349   23.9088 H   0  0  0  0  0  0  0  0  0  0  0  0
    4.7945   -6.9545   22.5799 H   0  0  0  0  0  0  0  0  0  0  0  0
    6.4539   -3.8421   23.7494 H   0  0  0  0  0  0  0  0  0  0  0  0
    6.5298   -5.1379   22.5658 H   0  0  0  0  0  0  0  0  0  0  0  0
    4.3793   -2.9505   22.6261 H   0  0  0  0  0  0  0  0  0  0  0  0
    4.4399   -4.2730   21.4918 H   0  0  0  0  0  0  0  0  0  0  0  0
    6.4951   -1.6879   21.7311 N   0  0  0  0  0  0  0  0  0  0  0  0
    7.3494   -0.7345   21.0196 C   0  0  0  0  0  0  0  0  0  0  0  0
    8.2524    0.5413   22.0641 C   0  0  0  0  0  0  0  0  0  0  0  0
    9.4213    0.5609   21.7050 O   0  0  0  0  0  0  0  0  0  0  0  0
    7.5650    1.1572   22.8689 O   0  0  0  0  0  1  0  0  0  0  0  0
    6.6174   -0.0338   19.8869 C   0  0  0  0  0  0  0  0  0  0  0  0
    5.4198    0.6567   20.1186 C   0  0  0  0  0  0  0  0  0  0  0  0
    4.8001    1.3155   19.0551 C   0  0  0  0  0  0  0  0  0  0  0  0
    5.4078    1.2820   17.7966 C   0  0  0  0  0  0  0  0  0  0  0  0
    6.5549    0.6320   17.5452 N   0  0  0  0  0  0  0  0  0  0  0  0
    7.1304   -0.0089   18.5746 C   0  0  0  0  0  0  0  0  0  0  0  0
    8.0753   -0.5067   18.3428 H   0  0  0  0  0  0  0  0  0  0  0  0
    4.9651    1.8217   16.9609 H   0  0  0  0  0  0  0  0  0  0  0  0
    3.8778    1.8669   19.1958 H   0  0  0  0  0  0  0  0  0  0  0  0
    4.9919    0.6922   21.1222 H   0  0  0  0  0  0  0  0  0  0  0  0
    8.2358   -1.2526   20.6456 H   0  0  0  0  0  0  0  0  0  0  0  0
    6.0094   -1.3773   22.5603 H   0  0  0  0  0  0  0  0  0  0  0  0
  1  2  2  0
  2  3  1  0
  3  4  1  0
  4  5  1  0
  5  6  2  0
  6  7  1  0
  7  8  2  0
  8  9  1  0
  9 10  1  0
 10 11  1  0
 11 12  1  0
 12 13  1  0
 13 14  2  0
 14 15  1  0
 12 16  1  0
 12 17  1  0
 10 18  1  0
 10 19  1  0
  9 20  1  0
  9 21  1  0
  7 22  1  0
  6 23  1  0
  4 24  1  0
  4 25  1  0
  3 26  1  0
  3 27  1  0
  2 28  1  0
 28 29  1  0
 29 30  1  0
 30 31  2  0
 30 32  1  0
 29 33  1  0
 33 34  2  0
 34 35  1  0
 35 36  2  0
 36 37  1  0
 37 38  2  0
 38 39  1  0
 36 40  1  0
 35 41  1  0
 34 42  1  0
 29 43  1  0
 28 44  1  0
 14  5  1  0
 38 33  1  0
 13  8  1  0
M  CHG  1  32  -1
M  END
>  <plip>  (1) 
-0.23333333333333334

>  <filename>  (1) 
[H][c]1[n][c]([H])[c]([C]([H])([C](=[O])[O-])[N]([H])[C](=[O])[C]([H])([H])[C]([H])([H])[c]2[c]([H])[c]([H])[c]3[c]([c]2[H])[C]([H])([H])[O][C]([H])([H])[C]3([H])[H])[c]([H])[c]1[H]

$$$$
