
     RDKit          3D

 22 22  0  0  0  0  0  0  0  0999 V2000
    4.9983    1.7591   16.9609 H   0  0  0  0  0  0  0  0  0  0  0  0
    5.4429    1.2953   17.8374 C   0  0  0  0  0  0  0  0  0  0  0  0
    6.6190    0.6846   17.6398 N   0  0  0  0  0  0  0  0  0  0  0  0
    7.2058    0.1271   18.7065 C   0  0  0  0  0  0  0  0  0  0  0  0
    8.1574   -0.3638   18.5270 H   0  0  0  0  0  0  0  0  0  0  0  0
    6.6594    0.1295   20.0007 C   0  0  0  0  0  0  0  0  0  0  0  0
    7.3323   -0.7262   21.0719 C   0  0  0  0  0  0  0  0  0  0  0  0
    8.7832   -0.6854   20.8638 N   0  0  0  0  0  0  0  0  0  0  0  0
    9.7346   -1.1376   21.4410 C   0  0  0  0  0  0  0  0  0  0  0  0
   11.0564   -1.6737   22.1280 S   0  0  0  0  0  0  0  0  0  0  0  0
    7.0441   -0.2548   22.5138 C   0  0  0  0  0  0  0  0  0  0  0  0
    7.1911    0.8211   22.6473 H   0  0  0  0  0  0  0  0  0  0  0  0
    6.0207   -0.4859   22.8057 H   0  0  0  0  0  0  0  0  0  0  0  0
    7.6964   -0.7761   23.2217 H   0  0  0  0  0  0  0  0  0  0  0  0
    6.8710   -2.1830   20.8885 C   0  0  0  0  0  0  0  0  0  0  0  0
    6.8275   -2.4675   19.8360 H   0  0  0  0  0  0  0  0  0  0  0  0
    5.8472   -2.2844   21.2656 H   0  0  0  0  0  0  0  0  0  0  0  0
    7.5429   -2.8649   21.4171 H   0  0  0  0  0  0  0  0  0  0  0  0
    5.4169    0.7477   20.1787 C   0  0  0  0  0  0  0  0  0  0  0  0
    4.9334    0.7783   21.1572 H   0  0  0  0  0  0  0  0  0  0  0  0
    4.8002    1.3424   19.0767 C   0  0  0  0  0  0  0  0  0  0  0  0
    3.8435    1.8422   19.1687 H   0  0  0  0  0  0  0  0  0  0  0  0
  1  2  1  0
  2  3  2  0
  3  4  1  0
  4  5  1  0
  4  6  2  0
  6  7  1  0
  7  8  1  0
  8  9  2  0
  9 10  2  0
  7 11  1  0
 11 12  1  0
 11 13  1  0
 11 14  1  0
  7 15  1  0
 15 16  1  0
 15 17  1  0
 15 18  1  0
  6 19  1  0
 19 20  1  0
 19 21  2  0
 21 22  1  0
 21  2  1  0
M  END
>  <plip>  (1) 
-0.07142857142857142

>  <filename>  (1) 
[H][c]1[n][c]([H])[c]([C]([N]=[C]=[S])([C]([H])([H])[H])[C]([H])([H])[H])[c]([H])[c]1[H]

$$$$
