
     RDKit          3D

 44 47  0  0  0  0  0  0  0  0999 V2000
    8.1313    2.0476   21.9187 O   0  0  0  0  0  0  0  0  0  0  0  0
    8.9845    1.1851   21.7408 C   0  0  0  0  0  0  0  0  0  0  0  0
    8.6470   -0.0488   21.3102 N   0  0  0  0  0  0  0  0  0  0  0  0
    7.2600   -0.4840   21.2099 C   0  0  0  0  0  0  0  0  0  0  0  0
    7.3048   -2.0143   21.0997 C   0  0  0  0  0  0  0  0  0  0  0  0
    5.9432   -2.7146   20.9981 C   0  0  0  0  0  0  0  0  0  0  0  0
    6.0527   -4.2269   20.9598 C   0  0  0  0  0  0  0  0  0  0  0  0
    6.4555   -5.0010   22.1873 C   0  0  0  0  0  0  0  0  0  0  0  0
    5.0518   -5.0947   21.6631 C   0  0  0  0  0  0  0  0  0  0  0  0
    4.2694   -4.6124   22.2443 H   0  0  0  0  0  0  0  0  0  0  0  0
    4.7306   -6.0189   21.1930 H   0  0  0  0  0  0  0  0  0  0  0  0
    6.6045   -4.4549   23.1180 H   0  0  0  0  0  0  0  0  0  0  0  0
    7.1206   -5.8559   22.0825 H   0  0  0  0  0  0  0  0  0  0  0  0
    6.4302   -4.6235   20.0175 H   0  0  0  0  0  0  0  0  0  0  0  0
    5.4190   -2.3526   20.1017 H   0  0  0  0  0  0  0  0  0  0  0  0
    5.3338   -2.4322   21.8698 H   0  0  0  0  0  0  0  0  0  0  0  0
    7.8586   -2.3971   21.9691 H   0  0  0  0  0  0  0  0  0  0  0  0
    7.9234   -2.2289   20.2249 H   0  0  0  0  0  0  0  0  0  0  0  0
    6.5577    0.1907   20.0412 C   0  0  0  0  0  0  0  0  0  0  0  0
    5.3125    0.8303   20.1628 C   0  0  0  0  0  0  0  0  0  0  0  0
    4.7194    1.3955   19.0271 C   0  0  0  0  0  0  0  0  0  0  0  0
    5.3975    1.3019   17.8055 C   0  0  0  0  0  0  0  0  0  0  0  0
    6.5827    0.6906   17.6631 N   0  0  0  0  0  0  0  0  0  0  0  0
    7.1415    0.1683   18.7645 C   0  0  0  0  0  0  0  0  0  0  0  0
    8.1103   -0.3060   18.6106 H   0  0  0  0  0  0  0  0  0  0  0  0
    4.9743    1.7388   16.9015 H   0  0  0  0  0  0  0  0  0  0  0  0
    3.7679    1.9182   19.0750 H   0  0  0  0  0  0  0  0  0  0  0  0
    4.8207    0.9003   21.1373 H   0  0  0  0  0  0  0  0  0  0  0  0
    6.7231   -0.1890   22.1271 H   0  0  0  0  0  0  0  0  0  0  0  0
    9.3863   -0.7281   21.2161 H   0  0  0  0  0  0  0  0  0  0  0  0
   10.4643    1.3996   21.9831 C   0  0  0  0  0  0  0  0  0  0  0  0
   11.4562    0.5224   21.8497 N   0  0  0  0  0  0  0  0  0  0  0  0
   12.5986    1.1851   22.1275 C   0  0  0  0  0  0  0  0  0  0  0  0
   12.3396    2.5099   22.4389 C   0  0  0  0  0  0  0  0  0  0  0  0
   13.0673    3.6968   22.7150 C   0  0  0  0  0  0  0  0  0  0  0  0
   14.3983    3.6500   22.6289 F   0  0  0  0  0  0  0  0  0  0  0  0
   12.4333    4.8752   23.0134 C   0  0  0  0  0  0  0  0  0  0  0  0
   10.9965    4.9171   23.0044 C   0  0  0  0  0  0  0  0  0  0  0  0
   10.2706    3.8090   22.6716 C   0  0  0  0  0  0  0  0  0  0  0  0
   10.9446    2.6284   22.3734 N   0  0  0  0  0  0  0  0  0  0  0  0
    9.1965    3.7433   22.5740 H   0  0  0  0  0  0  0  0  0  0  0  0
   10.4802    5.8464   23.2261 H   0  0  0  0  0  0  0  0  0  0  0  0
   13.0451    5.7474   23.2132 H   0  0  0  0  0  0  0  0  0  0  0  0
   13.5787    0.7184   22.0888 H   0  0  0  0  0  0  0  0  0  0  0  0
  1  2  2  0
  2  3  1  0
  3  4  1  0
  4  5  1  0
  5  6  1  0
  6  7  1  0
  7  8  1  0
  8  9  1  0
  9 10  1  0
  9 11  1  0
  8 12  1  0
  8 13  1  0
  7 14  1  0
  6 15  1  0
  6 16  1  0
  5 17  1  0
  5 18  1  0
  4 19  1  0
 19 20  2  0
 20 21  1  0
 21 22  2  0
 22 23  1  0
 23 24  2  0
 24 25  1  0
 22 26  1  0
 21 27  1  0
 20 28  1  0
  4 29  1  0
  3 30  1  0
  2 31  1  0
 31 32  2  0
 32 33  1  0
 33 34  2  0
 34 35  1  0
 35 36  1  0
 35 37  2  0
 37 38  1  0
 38 39  2  0
 39 40  1  0
 39 41  1  0
 38 42  1  0
 37 43  1  0
 33 44  1  0
  9  7  1  0
 24 19  1  0
 40 31  1  0
 40 34  1  0
M  END
>  <plip>  (1) 
-0.06666666666666667

>  <filename>  (1) 
[H][c]1[n][c]([H])[c]([C]([H])([N]([H])[C](=[O])[c]2[n][c]([H])[c]3[c]([F])[c]([H])[c]([H])[c]([H])[n]23)[C]([H])([H])[C]([H])([H])[C]2([H])[C]([H])([H])[C]2([H])[H])[c]([H])[c]1[H]

$$$$
