
     RDKit          3D

 30 31  0  0  0  0  0  0  0  0999 V2000
    7.8240    0.2398   22.1275 C   0  0  0  0  0  0  0  0  0  0  0  0
    7.4197   -0.7337   21.0098 C   0  0  0  0  0  0  0  0  0  0  0  0
    6.5901   -1.9245   21.5514 C   0  0  0  0  0  0  0  0  0  0  0  0
    7.4106   -2.8336   22.4313 C   0  0  0  0  0  0  0  0  0  0  0  0
    8.1424   -3.6769   21.9492 O   0  0  0  0  0  0  0  0  0  0  0  0
    7.3508   -2.6255   23.7810 N   0  0  0  0  0  0  0  0  0  0  0  0
    8.2659   -3.1852   24.6548 C   0  0  0  0  0  0  0  0  0  0  0  0
    7.8759   -3.3529   25.8830 N   0  0  0  0  0  0  0  0  0  0  0  0
    9.1432   -3.9894   26.7571 S   0  0  0  0  0  0  0  0  0  0  0  0
   10.2303   -3.9796   25.4363 C   0  0  0  0  0  0  0  0  0  0  0  0
    9.6100   -3.5058   24.3231 C   0  0  0  0  0  0  0  0  0  0  0  0
   10.0126   -3.3643   23.3264 H   0  0  0  0  0  0  0  0  0  0  0  0
   11.2562   -4.3240   25.5518 H   0  0  0  0  0  0  0  0  0  0  0  0
    6.5783   -2.1913   24.2555 H   0  0  0  0  0  0  0  0  0  0  0  0
    6.2496   -2.5433   20.7195 H   0  0  0  0  0  0  0  0  0  0  0  0
    5.7088   -1.5440   22.0626 H   0  0  0  0  0  0  0  0  0  0  0  0
    6.6578   -0.0126   19.9069 C   0  0  0  0  0  0  0  0  0  0  0  0
    5.4402    0.6439   20.1459 C   0  0  0  0  0  0  0  0  0  0  0  0
    4.8046    1.3074   19.0941 C   0  0  0  0  0  0  0  0  0  0  0  0
    5.3961    1.2943   17.8281 C   0  0  0  0  0  0  0  0  0  0  0  0
    6.5574    0.6757   17.5713 N   0  0  0  0  0  0  0  0  0  0  0  0
    7.1587    0.0526   18.5940 C   0  0  0  0  0  0  0  0  0  0  0  0
    8.1122   -0.4212   18.3563 H   0  0  0  0  0  0  0  0  0  0  0  0
    4.9227    1.7987   16.9860 H   0  0  0  0  0  0  0  0  0  0  0  0
    3.8746    1.8422   19.2457 H   0  0  0  0  0  0  0  0  0  0  0  0
    4.9988    0.6503   21.1441 H   0  0  0  0  0  0  0  0  0  0  0  0
    8.3336   -1.1536   20.5607 H   0  0  0  0  0  0  0  0  0  0  0  0
    8.3343    1.1116   21.7058 H   0  0  0  0  0  0  0  0  0  0  0  0
    8.4866   -0.2323   22.8602 H   0  0  0  0  0  0  0  0  0  0  0  0
    6.9386    0.6061   22.6629 H   0  0  0  0  0  0  0  0  0  0  0  0
  1  2  1  0
  2  3  1  0
  3  4  1  0
  4  5  2  0
  4  6  1  0
  6  7  1  0
  7  8  2  0
  8  9  1  0
  9 10  1  0
 10 11  2  0
 11 12  1  0
 10 13  1  0
  6 14  1  0
  3 15  1  0
  3 16  1  0
  2 17  1  0
 17 18  2  0
 18 19  1  0
 19 20  2  0
 20 21  1  0
 21 22  2  0
 22 23  1  0
 20 24  1  0
 19 25  1  0
 18 26  1  0
  2 27  1  0
  1 28  1  0
  1 29  1  0
  1 30  1  0
 11  7  1  0
 22 17  1  0
M  END
>  <plip>  (1) 
-0.06896551724137931

>  <filename>  (1) 
[H][c]1[n][c]([H])[c]([C]([H])([C]([H])([H])[H])[C]([H])([H])[C](=[O])[N]([H])[c]2[n][s][c]([H])[c]2[H])[c]([H])[c]1[H]

$$$$
