
     RDKit          3D

 28 29  0  0  0  0  0  0  0  0999 V2000
    7.8824   -1.8233   23.6568 H   0  0  0  0  0  0  0  0  0  0  0  0
    8.0533   -1.5312   22.7487 O   0  0  0  0  0  0  0  0  0  0  0  0
    7.0840   -0.5746   22.3277 C   0  0  1  0  0  0  0  0  0  0  0  0
    6.0700   -0.8798   22.6366 H   0  0  0  0  0  0  0  0  0  0  0  0
    7.1715    0.9165   22.9089 C   0  0  0  0  0  0  0  0  0  0  0  0
    6.2358    1.3881   23.5215 O   0  0  0  0  0  0  0  0  0  0  0  0
    8.4289    1.7047   22.6155 C   0  0  0  0  0  0  0  0  0  0  0  0
    8.4729    3.1040   22.7660 C   0  0  0  0  0  0  0  0  0  0  0  0
    7.5973    3.6694   23.0575 H   0  0  0  0  0  0  0  0  0  0  0  0
    9.6740    3.7765   22.5282 C   0  0  0  0  0  0  0  0  0  0  0  0
    9.7273    4.8578   22.6690 H   0  0  0  0  0  0  0  0  0  0  0  0
   10.8012    3.1635   22.1319 N   0  0  0  0  0  0  0  0  0  0  0  0
   10.7469    1.8412   21.9389 C   0  0  0  0  0  0  0  0  0  0  0  0
   11.6605    1.3580   21.5958 H   0  0  0  0  0  0  0  0  0  0  0  0
    9.5996    1.0780   22.1653 C   0  0  0  0  0  0  0  0  0  0  0  0
    9.6481    0.0094   22.0136 H   0  0  0  0  0  0  0  0  0  0  0  0
    7.3212   -0.7142   20.9216 N   0  0  0  0  0  0  0  0  0  0  0  0
    7.9940   -1.4531   20.7726 H   0  0  0  0  0  0  0  0  0  0  0  0
    6.6753   -0.0499   19.8849 C   0  0  0  0  0  0  0  0  0  0  0  0
    7.1912    0.0155   18.5608 C   0  0  0  0  0  0  0  0  0  0  0  0
    8.1327   -0.4830   18.3360 H   0  0  0  0  0  0  0  0  0  0  0  0
    6.6013    0.6573   17.5399 N   0  0  0  0  0  0  0  0  0  0  0  0
    5.4377    1.2831   17.7944 C   0  0  0  0  0  0  0  0  0  0  0  0
    4.9804    1.8111   16.9590 H   0  0  0  0  0  0  0  0  0  0  0  0
    4.8355    1.2825   19.0577 C   0  0  0  0  0  0  0  0  0  0  0  0
    3.9012    1.8118   19.2133 H   0  0  0  0  0  0  0  0  0  0  0  0
    5.4592    0.6125   20.1149 C   0  0  0  0  0  0  0  0  0  0  0  0
    5.0402    0.5948   21.1201 H   0  0  0  0  0  0  0  0  0  0  0  0
  1  2  1  0
  2  3  1  0
  3  4  1  6
  3  5  1  0
  5  6  2  0
  5  7  1  0
  7  8  2  0
  8  9  1  0
  8 10  1  0
 10 11  1  0
 10 12  2  0
 12 13  1  0
 13 14  1  0
 13 15  2  0
 15 16  1  0
  3 17  1  0
 17 18  1  0
 17 19  1  0
 19 20  2  0
 20 21  1  0
 20 22  1  0
 22 23  2  0
 23 24  1  0
 23 25  1  0
 25 26  1  0
 25 27  2  0
 27 28  1  0
 15  7  1  0
 27 19  1  0
M  END
>  <plip>  (1) 
-0.10714285714285714

>  <filename>  (1) 
[H][O][C@@]([H])([C](=[O])[c]1[c]([H])[c]([H])[n][c]([H])[c]1[H])[N]([H])[c]1[c]([H])[n][c]([H])[c]([H])[c]1[H]

$$$$
