
     RDKit          3D

 37 39  0  0  0  0  0  0  0  0999 V2000
    4.9396    1.7906   16.9784 H   0  0  0  0  0  0  0  0  0  0  0  0
    5.3987    1.2879   17.8291 C   0  0  0  0  0  0  0  0  0  0  0  0
    6.5628    0.6675   17.5929 N   0  0  0  0  0  0  0  0  0  0  0  0
    7.1732    0.0768   18.6304 C   0  0  0  0  0  0  0  0  0  0  0  0
    8.1236   -0.3997   18.3810 H   0  0  0  0  0  0  0  0  0  0  0  0
    6.6545    0.0571   19.9371 C   0  0  0  0  0  0  0  0  0  0  0  0
    7.3429   -0.7100   21.0491 C   0  0  2  0  0  0  0  0  0  0  0  0
    6.9568   -0.3848   22.0340 H   0  0  0  0  0  0  0  0  0  0  0  0
    8.8055   -0.5111   20.9913 N   0  0  0  0  0  0  0  0  0  0  0  0
    9.2144    0.8942   21.1817 C   0  0  0  0  0  0  0  0  0  0  0  0
    8.7697    1.4716   20.3662 H   0  0  0  0  0  0  0  0  0  0  0  0
   10.3037    0.9474   21.0407 H   0  0  0  0  0  0  0  0  0  0  0  0
    8.8285    1.5371   22.5130 C   0  0  0  0  0  0  0  0  0  0  0  0
    9.6469    1.4073   23.6493 C   0  0  0  0  0  0  0  0  0  0  0  0
   10.5912    0.8696   23.5685 H   0  0  0  0  0  0  0  0  0  0  0  0
    9.2503    1.9293   24.8854 C   0  0  0  0  0  0  0  0  0  0  0  0
    9.8909    1.8030   25.7542 H   0  0  0  0  0  0  0  0  0  0  0  0
    8.0239    2.5911   25.0102 C   0  0  0  0  0  0  0  0  0  0  0  0
    7.6872    2.9973   25.9573 H   0  0  0  0  0  0  0  0  0  0  0  0
    7.2153    2.7297   23.8829 C   0  0  0  0  0  0  0  0  0  0  0  0
    5.6763    3.5361   24.0234 Cl  0  0  0  0  0  0  0  0  0  0  0  0
    7.6044    2.2222   22.6422 C   0  0  0  0  0  0  0  0  0  0  0  0
    6.9339    2.3419   21.7971 H   0  0  0  0  0  0  0  0  0  0  0  0
    9.4934   -1.4136   21.9246 C   0  0  0  0  0  0  0  0  0  0  0  0
   10.5801   -1.3097   21.7969 H   0  0  0  0  0  0  0  0  0  0  0  0
    9.2488   -1.2015   22.9812 H   0  0  0  0  0  0  0  0  0  0  0  0
    9.1219   -2.8573   21.6224 C   0  0  0  0  0  0  0  0  0  0  0  0
    9.5803   -3.5095   22.3741 H   0  0  0  0  0  0  0  0  0  0  0  0
    9.5028   -3.1225   20.6260 H   0  0  0  0  0  0  0  0  0  0  0  0
    7.7246   -3.0843   21.7013 O   0  0  0  0  0  0  0  0  0  0  0  0
    6.9793   -2.2020   20.8798 C   0  0  0  0  0  0  0  0  0  0  0  0
    5.9317   -2.3544   21.1500 H   0  0  0  0  0  0  0  0  0  0  0  0
    7.0905   -2.4405   19.8156 H   0  0  0  0  0  0  0  0  0  0  0  0
    5.4245    0.6857   20.1577 C   0  0  0  0  0  0  0  0  0  0  0  0
    4.9819    0.6828   21.1543 H   0  0  0  0  0  0  0  0  0  0  0  0
    4.7863    1.3193   19.0857 C   0  0  0  0  0  0  0  0  0  0  0  0
    3.8504    1.8484   19.2205 H   0  0  0  0  0  0  0  0  0  0  0  0
  1  2  1  0
  2  3  2  0
  3  4  1  0
  4  5  1  0
  4  6  2  0
  6  7  1  0
  7  8  1  1
  7  9  1  0
  9 10  1  0
 10 11  1  0
 10 12  1  0
 10 13  1  0
 13 14  2  0
 14 15  1  0
 14 16  1  0
 16 17  1  0
 16 18  2  0
 18 19  1  0
 18 20  1  0
 20 21  1  0
 20 22  2  0
 22 23  1  0
  9 24  1  0
 24 25  1  0
 24 26  1  0
 24 27  1  0
 27 28  1  0
 27 29  1  0
 27 30  1  0
 30 31  1  0
 31 32  1  0
 31 33  1  0
  6 34  1  0
 34 35  1  0
 34 36  2  0
 36 37  1  0
 36  2  1  0
 31  7  1  0
 22 13  1  0
M  END
>  <plip>  (1) 
-0.06896551724137931

>  <filename>  (1) 
[H][c]1[n][c]([H])[c]([C@]2([H])[N]([C]([H])([H])[c]3[c]([H])[c]([H])[c]([H])[c]([Cl])[c]3[H])[C]([H])([H])[C]([H])([H])[O][C]2([H])[H])[c]([H])[c]1[H]

$$$$
