
     RDKit          3D

 32 34  0  0  0  0  0  0  0  0999 V2000
    7.5612    4.3868   21.9765 H   0  0  0  0  0  0  0  0  0  0  0  0
    7.3759    3.4759   22.5490 C   0  0  0  0  0  0  0  0  0  0  0  0
    6.9183    3.6352   23.7829 N   0  0  0  0  0  0  0  0  0  0  0  0
    6.7199    2.4905   24.4290 C   0  0  0  0  0  0  0  0  0  0  0  0
    6.2619    2.6264   25.6571 N   0  0  0  0  0  0  0  0  0  0  0  0
    6.1500    3.5734   25.9487 H   0  0  0  0  0  0  0  0  0  0  0  0
    6.1343    1.7617   26.1351 H   0  0  0  0  0  0  0  0  0  0  0  0
    6.9204    1.2475   24.0368 N   0  0  0  0  0  0  0  0  0  0  0  0
    7.3532    1.1182   22.7739 C   0  0  0  0  0  0  0  0  0  0  0  0
    7.5831   -0.2472   22.2565 C   0  0  0  0  0  0  0  0  0  0  0  0
    7.3435   -0.6781   20.9974 C   0  0  0  0  0  0  0  0  0  0  0  0
    6.6448    0.0293   19.9105 C   0  0  0  0  0  0  0  0  0  0  0  0
    7.1562    0.0618   18.5982 C   0  0  0  0  0  0  0  0  0  0  0  0
    8.1079   -0.4233   18.3742 H   0  0  0  0  0  0  0  0  0  0  0  0
    6.5606    0.6771   17.5706 N   0  0  0  0  0  0  0  0  0  0  0  0
    5.3965    1.2991   17.8222 C   0  0  0  0  0  0  0  0  0  0  0  0
    4.9227    1.7961   16.9783 H   0  0  0  0  0  0  0  0  0  0  0  0
    4.7909    1.3169   19.0828 C   0  0  0  0  0  0  0  0  0  0  0  0
    3.8609    1.8500   19.2345 H   0  0  0  0  0  0  0  0  0  0  0  0
    5.4126    0.6636   20.1399 C   0  0  0  0  0  0  0  0  0  0  0  0
    4.9778    0.6457   21.1398 H   0  0  0  0  0  0  0  0  0  0  0  0
    7.8392   -2.0849   20.7975 C   0  0  0  0  0  0  0  0  0  0  0  0
    8.6977   -2.0490   20.1221 H   0  0  0  0  0  0  0  0  0  0  0  0
    7.0621   -2.7113   20.3431 H   0  0  0  0  0  0  0  0  0  0  0  0
    8.2613   -2.5795   22.1953 C   0  0  0  0  0  0  0  0  0  0  0  0
    9.2633   -3.0193   22.1654 H   0  0  0  0  0  0  0  0  0  0  0  0
    7.5831   -3.3594   22.5537 H   0  0  0  0  0  0  0  0  0  0  0  0
    8.2054   -1.3302   23.1091 C   0  0  0  0  0  0  0  0  0  0  0  0
    7.6043   -1.4712   24.0144 H   0  0  0  0  0  0  0  0  0  0  0  0
    9.2067   -1.0205   23.4390 H   0  0  0  0  0  0  0  0  0  0  0  0
    7.6191    2.2363   21.9787 C   0  0  0  0  0  0  0  0  0  0  0  0
    7.9835    2.1410   20.9691 H   0  0  0  0  0  0  0  0  0  0  0  0
  1  2  1  0
  2  3  2  0
  3  4  1  0
  4  5  1  0
  5  6  1  0
  5  7  1  0
  4  8  2  0
  8  9  1  0
  9 10  1  0
 10 11  2  0
 11 12  1  0
 12 13  2  0
 13 14  1  0
 13 15  1  0
 15 16  2  0
 16 17  1  0
 16 18  1  0
 18 19  1  0
 18 20  2  0
 20 21  1  0
 11 22  1  0
 22 23  1  0
 22 24  1  0
 22 25  1  0
 25 26  1  0
 25 27  1  0
 25 28  1  0
 28 29  1  0
 28 30  1  0
  9 31  2  0
 31 32  1  0
 31  2  1  0
 28 10  1  0
 20 12  1  0
M  END
>  <plip>  (1) 
-0.03571428571428571

>  <filename>  (1) 
[H][c]1[n][c]([N]([H])[H])[n][c]([C]2=[C]([c]3[c]([H])[n][c]([H])[c]([H])[c]3[H])[C]([H])([H])[C]([H])([H])[C]2([H])[H])[c]1[H]

$$$$
