
     RDKit          3D

 52 54  0  0  0  0  0  0  0  0999 V2000
   11.8066    2.2498   22.3947 C   0  0  0  0  0  0  0  0  0  0  0  0
   10.4635    2.9431   22.6111 C   0  0  0  0  0  0  0  0  0  0  0  0
   10.5433    3.9981   23.7113 C   0  0  0  0  0  0  0  0  0  0  0  0
    9.3186    4.8749   23.8120 C   0  0  0  0  0  0  0  0  0  0  0  0
    8.3869    4.7001   24.8455 C   0  0  0  0  0  0  0  0  0  0  0  0
    7.2367    5.4916   24.9225 C   0  0  0  0  0  0  0  0  0  0  0  0
    7.0363    6.4609   23.9431 C   0  0  0  0  0  0  0  0  0  0  0  0
    5.9349    7.2263   24.0073 F   0  0  0  0  0  0  0  0  0  0  0  0
    7.9369    6.6662   22.8986 C   0  0  0  0  0  0  0  0  0  0  0  0
    9.0777    5.8638   22.8422 C   0  0  0  0  0  0  0  0  0  0  0  0
    9.7928    6.0076   22.0326 H   0  0  0  0  0  0  0  0  0  0  0  0
    7.7292    7.4305   22.1550 H   0  0  0  0  0  0  0  0  0  0  0  0
    6.5047    5.3708   25.7151 H   0  0  0  0  0  0  0  0  0  0  0  0
    8.5693    3.9312   25.5945 H   0  0  0  0  0  0  0  0  0  0  0  0
   11.4167    4.6296   23.5024 H   0  0  0  0  0  0  0  0  0  0  0  0
   10.7486    3.4912   24.6586 H   0  0  0  0  0  0  0  0  0  0  0  0
    9.3925    1.9573   22.9300 N   0  0  0  0  0  4  0  0  0  0  0  0
    9.0553    1.0317   21.8368 C   0  0  0  0  0  0  0  0  0  0  0  0
    7.8276    0.1946   22.1675 C   0  0  2  0  0  0  0  0  0  0  0  0
    7.9818   -0.7932   23.3407 C   0  0  0  0  0  0  0  0  0  0  0  0
    7.2041   -2.0746   22.9687 C   0  0  0  0  0  0  0  0  0  0  0  0
    6.6577   -1.8313   21.5853 N   0  0  0  0  0  4  0  0  0  0  0  0
    6.6330   -3.0459   20.7334 C   0  0  0  0  0  0  0  0  0  0  0  0
    6.2260   -2.8327   19.7392 H   0  0  0  0  0  0  0  0  0  0  0  0
    7.6641   -3.3987   20.5869 H   0  0  0  0  0  0  0  0  0  0  0  0
    6.0831   -3.8754   21.1937 H   0  0  0  0  0  0  0  0  0  0  0  0
    7.4504   -0.6869   20.9747 C   0  0  1  0  0  0  0  0  0  0  0  0
    6.6609    0.0060   19.9031 C   0  0  0  0  0  0  0  0  0  0  0  0
    5.4341    0.6404   20.1555 C   0  0  0  0  0  0  0  0  0  0  0  0
    4.8037    1.3062   19.1036 C   0  0  0  0  0  0  0  0  0  0  0  0
    5.4016    1.2926   17.8367 C   0  0  0  0  0  0  0  0  0  0  0  0
    6.5597    0.6766   17.5729 N   0  0  0  0  0  0  0  0  0  0  0  0
    7.1638    0.0564   18.5946 C   0  0  0  0  0  0  0  0  0  0  0  0
    8.1140   -0.4244   18.3627 H   0  0  0  0  0  0  0  0  0  0  0  0
    4.9205    1.7888   16.9944 H   0  0  0  0  0  0  0  0  0  0  0  0
    3.8765    1.8431   19.2533 H   0  0  0  0  0  0  0  0  0  0  0  0
    4.9951    0.6336   21.1602 H   0  0  0  0  0  0  0  0  0  0  0  0
    8.3533   -1.1308   20.5389 H   0  0  0  0  0  0  0  0  0  0  0  0
    5.6909   -1.4361   21.6567 H   0  0  0  0  0  0  0  0  0  0  0  0
    6.3910   -2.3076   23.6642 H   0  0  0  0  0  0  0  0  0  0  0  0
    7.8722   -2.9410   22.9240 H   0  0  0  0  0  0  0  0  0  0  0  0
    7.6110   -0.3596   24.2738 H   0  0  0  0  0  0  0  0  0  0  0  0
    9.0382   -1.0429   23.4995 H   0  0  0  0  0  0  0  0  0  0  0  0
    6.9948    0.8795   22.3718 H   0  0  0  0  0  0  0  0  0  0  0  0
    9.8862    0.3381   21.6436 H   0  0  0  0  0  0  0  0  0  0  0  0
    8.9095    1.5855   20.8964 H   0  0  0  0  0  0  0  0  0  0  0  0
    8.5343    2.4877   23.2283 H   0  0  0  0  0  0  0  0  0  0  0  0
    9.7052    1.4134   23.7752 H   0  0  0  0  0  0  0  0  0  0  0  0
   10.1746    3.4433   21.6829 H   0  0  0  0  0  0  0  0  0  0  0  0
   11.7888    1.5949   21.5180 H   0  0  0  0  0  0  0  0  0  0  0  0
   12.5978    2.9915   22.2406 H   0  0  0  0  0  0  0  0  0  0  0  0
   12.0768    1.6461   23.2705 H   0  0  0  0  0  0  0  0  0  0  0  0
  1  2  1  0
  2  3  1  0
  3  4  1  0
  4  5  2  0
  5  6  1  0
  6  7  2  0
  7  8  1  0
  7  9  1  0
  9 10  2  0
 10 11  1  0
  9 12  1  0
  6 13  1  0
  5 14  1  0
  3 15  1  0
  3 16  1  0
  2 17  1  0
 17 18  1  0
 18 19  1  0
 19 20  1  0
 20 21  1  0
 21 22  1  0
 22 23  1  0
 23 24  1  0
 23 25  1  0
 23 26  1  0
 22 27  1  0
 27 28  1  0
 28 29  2  0
 29 30  1  0
 30 31  2  0
 31 32  1  0
 32 33  2  0
 33 34  1  0
 31 35  1  0
 30 36  1  0
 29 37  1  0
 27 38  1  6
 22 39  1  0
 21 40  1  0
 21 41  1  0
 20 42  1  0
 20 43  1  0
 19 44  1  1
 18 45  1  0
 18 46  1  0
 17 47  1  0
 17 48  1  0
  2 49  1  0
  1 50  1  0
  1 51  1  0
  1 52  1  0
 10  4  1  0
 27 19  1  0
 33 28  1  0
M  CHG  2  17   1  22   1
M  END
>  <plip>  (1) 
-0.07142857142857142

>  <filename>  (1) 
[H][c]1[n][c]([H])[c]([C@@]2([H])[C@]([H])([C]([H])([H])[N+]([H])([H])[C]([H])([C]([H])([H])[H])[C]([H])([H])[c]3[c]([H])[c]([H])[c]([F])[c]([H])[c]3[H])[C]([H])([H])[C]([H])([H])[N+]2([H])[C]([H])([H])[H])[c]([H])[c]1[H]

$$$$
