
     RDKit          3D

 47 48  0  0  0  0  0  0  0  0999 V2000
    5.5456   -5.6728   20.6533 C   0  0  0  0  0  0  0  0  0  0  0  0
    4.7948   -4.8838   21.7062 C   0  0  0  0  0  0  0  0  0  0  0  0
    5.1146   -3.6098   21.9851 C   0  0  0  0  0  0  0  0  0  0  0  0
    5.9542   -2.7411   21.1281 C   0  0  0  0  0  0  0  0  0  0  0  0
    6.1827   -2.9688   19.9521 O   0  0  0  0  0  0  0  0  0  0  0  0
    6.5391   -1.6765   21.7776 N   0  0  0  0  0  0  0  0  0  0  0  0
    7.3463   -0.7262   21.0161 C   0  0  0  0  0  0  0  0  0  0  0  0
    8.0100    0.3086   21.9438 C   0  0  0  0  0  0  0  0  0  0  0  0
    8.9544   -0.2965   22.9718 N   0  0  0  0  0  4  0  0  0  0  0  0
    9.1234    0.6046   24.1477 C   0  0  0  0  0  0  0  0  0  0  0  0
    9.7978    0.1535   24.8814 H   0  0  0  0  0  0  0  0  0  0  0  0
    8.1597    0.8119   24.6226 H   0  0  0  0  0  0  0  0  0  0  0  0
    9.5557    1.5602   23.8210 H   0  0  0  0  0  0  0  0  0  0  0  0
   10.2963   -0.6050   22.3826 C   0  0  0  0  0  0  0  0  0  0  0  0
   10.2116   -1.3023   21.5457 H   0  0  0  0  0  0  0  0  0  0  0  0
   10.9547   -1.0381   23.1420 H   0  0  0  0  0  0  0  0  0  0  0  0
   10.7624    0.3184   22.0149 H   0  0  0  0  0  0  0  0  0  0  0  0
    8.4961   -1.1908   23.2675 H   0  0  0  0  0  0  0  0  0  0  0  0
    7.2178    0.8608   22.4596 H   0  0  0  0  0  0  0  0  0  0  0  0
    8.5621    1.0352   21.3410 H   0  0  0  0  0  0  0  0  0  0  0  0
    6.5738   -0.0259   19.9172 C   0  0  0  0  0  0  0  0  0  0  0  0
    5.3689    0.6543   20.1333 C   0  0  0  0  0  0  0  0  0  0  0  0
    4.7833    1.3320   19.0623 C   0  0  0  0  0  0  0  0  0  0  0  0
    5.4219    1.3064   17.8170 C   0  0  0  0  0  0  0  0  0  0  0  0
    6.5689    0.6534   17.5867 N   0  0  0  0  0  0  0  0  0  0  0  0
    7.1115    0.0020   18.6245 C   0  0  0  0  0  0  0  0  0  0  0  0
    8.0438   -0.5259   18.4176 H   0  0  0  0  0  0  0  0  0  0  0  0
    4.9895    1.8342   16.9683 H   0  0  0  0  0  0  0  0  0  0  0  0
    3.8592    1.8833   19.1830 H   0  0  0  0  0  0  0  0  0  0  0  0
    4.8908    0.6542   21.1164 H   0  0  0  0  0  0  0  0  0  0  0  0
    8.1427   -1.3120   20.5415 H   0  0  0  0  0  0  0  0  0  0  0  0
    5.9680   -1.3142   22.5249 H   0  0  0  0  0  0  0  0  0  0  0  0
    4.8350   -3.1885   22.9457 H   0  0  0  0  0  0  0  0  0  0  0  0
    3.7357   -5.5322   22.5572 C   0  0  0  0  0  0  0  0  0  0  0  0
    2.4502   -5.8663   22.0896 C   0  0  0  0  0  0  0  0  0  0  0  0
    1.5033   -6.5118   22.8822 C   0  0  0  0  0  0  0  0  0  0  0  0
    1.8040   -6.8078   24.2109 C   0  0  0  0  0  0  0  0  0  0  0  0
    3.0386   -6.4282   24.7444 C   0  0  0  0  0  0  0  0  0  0  0  0
    3.9691   -5.7938   23.9199 C   0  0  0  0  0  0  0  0  0  0  0  0
    5.1349   -5.4167   24.4769 F   0  0  0  0  0  0  0  0  0  0  0  0
    3.2818   -6.5848   25.7909 H   0  0  0  0  0  0  0  0  0  0  0  0
    1.0613   -7.2969   24.8372 H   0  0  0  0  0  0  0  0  0  0  0  0
    0.5349   -6.7544   22.4497 H   0  0  0  0  0  0  0  0  0  0  0  0
    2.1037   -5.5738   21.1187 H   0  0  0  0  0  0  0  0  0  0  0  0
    5.0294   -5.7461   19.6888 H   0  0  0  0  0  0  0  0  0  0  0  0
    5.7938   -6.6807   21.0028 H   0  0  0  0  0  0  0  0  0  0  0  0
    6.4686   -5.1320   20.4411 H   0  0  0  0  0  0  0  0  0  0  0  0
  1  2  1  0
  2  3  2  3
  3  4  1  0
  4  5  2  0
  4  6  1  0
  6  7  1  0
  7  8  1  0
  8  9  1  0
  9 10  1  0
 10 11  1  0
 10 12  1  0
 10 13  1  0
  9 14  1  0
 14 15  1  0
 14 16  1  0
 14 17  1  0
  9 18  1  0
  8 19  1  0
  8 20  1  0
  7 21  1  0
 21 22  2  0
 22 23  1  0
 23 24  2  0
 24 25  1  0
 25 26  2  0
 26 27  1  0
 24 28  1  0
 23 29  1  0
 22 30  1  0
  7 31  1  0
  6 32  1  0
  3 33  1  0
  2 34  1  0
 34 35  2  0
 35 36  1  0
 36 37  2  0
 37 38  1  0
 38 39  2  0
 39 40  1  0
 38 41  1  0
 37 42  1  0
 36 43  1  0
 35 44  1  0
  1 45  1  0
  1 46  1  0
  1 47  1  0
 26 21  1  0
 39 34  1  0
M  CHG  1   9   1
M  END
>  <plip>  (1) 
-0.16666666666666666

>  <filename>  (1) 
[H][C]([C](=[O])[N]([H])[C]([H])([c]1[c]([H])[n][c]([H])[c]([H])[c]1[H])[C]([H])([H])[N+]([H])([C]([H])([H])[H])[C]([H])([H])[H])=[C]([c]1[c]([H])[c]([H])[c]([H])[c]([H])[c]1[F])[C]([H])([H])[H]

$$$$
