
     RDKit          3D

 27 29  0  0  0  0  0  0  0  0999 V2000
    9.4755    0.1024   20.3906 O   0  0  0  0  0  0  0  0  0  0  0  0
    8.7616   -0.5831   21.1036 C   0  0  0  0  0  0  0  0  0  0  0  0
    7.3996   -0.6407   20.9336 N   0  0  0  0  0  0  0  0  0  0  0  0
    6.6748   -0.0151   19.8833 C   0  0  0  0  0  0  0  0  0  0  0  0
    5.4542    0.6191   20.1474 C   0  0  0  0  0  0  0  0  0  0  0  0
    4.8009    1.2944   19.1052 C   0  0  0  0  0  0  0  0  0  0  0  0
    5.3839    1.2925   17.8324 C   0  0  0  0  0  0  0  0  0  0  0  0
    6.5415    0.6700   17.5549 N   0  0  0  0  0  0  0  0  0  0  0  0
    7.1690    0.0482   18.5576 C   0  0  0  0  0  0  0  0  0  0  0  0
    8.1230   -0.4127   18.3239 H   0  0  0  0  0  0  0  0  0  0  0  0
    4.9136    1.8168   17.0028 H   0  0  0  0  0  0  0  0  0  0  0  0
    3.8705    1.8370   19.2685 H   0  0  0  0  0  0  0  0  0  0  0  0
    5.0523    0.6080   21.1605 H   0  0  0  0  0  0  0  0  0  0  0  0
    6.8972   -1.1935   21.6067 H   0  0  0  0  0  0  0  0  0  0  0  0
    9.3124   -1.4590   22.1916 C   0  0  0  0  0  0  0  0  0  0  0  0
   10.6437   -1.9126   22.0132 C   0  0  0  0  0  0  0  0  0  0  0  0
   11.2712   -2.7478   22.9177 C   0  0  0  0  0  0  0  0  0  0  0  0
   10.5375   -3.0879   24.0658 C   0  0  0  0  0  0  0  0  0  0  0  0
   10.9431   -3.8603   25.0879 O   0  0  0  0  0  0  0  0  0  0  0  0
    9.9290   -3.9130   26.0397 N   0  0  0  0  0  0  0  0  0  0  0  0
    8.9435   -3.1949   25.5879 C   0  0  0  0  0  0  0  0  0  0  0  0
    9.2457   -2.6233   24.3036 C   0  0  0  0  0  0  0  0  0  0  0  0
    8.6089   -1.8099   23.3467 C   0  0  0  0  0  0  0  0  0  0  0  0
    7.6029   -1.4569   23.5395 H   0  0  0  0  0  0  0  0  0  0  0  0
    8.0456   -3.1163   26.1912 H   0  0  0  0  0  0  0  0  0  0  0  0
   12.2881   -3.0780   22.7574 H   0  0  0  0  0  0  0  0  0  0  0  0
   11.1936   -1.5792   21.1382 H   0  0  0  0  0  0  0  0  0  0  0  0
  1  2  2  0
  2  3  1  0
  3  4  1  0
  4  5  2  0
  5  6  1  0
  6  7  2  0
  7  8  1  0
  8  9  2  0
  9 10  1  0
  7 11  1  0
  6 12  1  0
  5 13  1  0
  3 14  1  0
  2 15  1  0
 15 16  2  0
 16 17  1  0
 17 18  2  0
 18 19  1  0
 19 20  1  0
 20 21  2  0
 21 22  1  0
 22 23  2  0
 23 24  1  0
 21 25  1  0
 17 26  1  0
 16 27  1  0
  9  4  1  0
 23 15  1  0
 22 18  1  0
M  END
>  <plip>  (1) 
-0.10714285714285714

>  <filename>  (1) 
[H][c]1[n][c]([H])[c]([N]([H])[C](=[O])[c]2[c]([H])[c]([H])[c]3[o][n][c]([H])[c]3[c]2[H])[c]([H])[c]1[H]

$$$$
