
     RDKit          3D

 51 52  0  0  0  0  0  0  0  0999 V2000
    4.9729    4.5235   27.0554 C   0  0  0  0  0  0  0  0  0  0  0  0
    6.4722    4.5675   26.7732 C   0  0  0  0  0  0  0  0  0  0  0  0
    6.7779    4.5774   25.3584 N   0  0  0  0  0  0  0  0  0  0  0  0
    7.3905    3.4574   24.6787 C   0  0  0  0  0  0  0  0  0  0  0  0
    6.3895    2.6756   23.8025 C   0  0  0  0  0  0  0  0  0  0  0  0
    6.9533    1.5034   23.1451 N   0  0  0  0  0  0  0  0  0  0  0  0
    7.8645    1.5793   22.1354 C   0  0  0  0  0  0  0  0  0  0  0  0
    8.2007    2.6299   21.6176 O   0  0  0  0  0  0  0  0  0  0  0  0
    8.4899    0.2277   21.6275 C   0  0  0  0  0  0  0  0  0  0  0  0
    9.4160   -0.6606   22.6429 N   0  0  0  0  0  4  0  0  0  0  0  0
    8.8539   -1.0712   23.4165 H   0  0  0  0  0  0  0  0  0  0  0  0
   10.1786   -0.1004   23.0680 H   0  0  0  0  0  0  0  0  0  0  0  0
    9.8540   -1.4403   22.1154 H   0  0  0  0  0  0  0  0  0  0  0  0
    7.4147   -0.6947   21.0136 C   0  0  0  0  0  0  0  0  0  0  0  0
    6.6374   -0.0212   19.8879 C   0  0  0  0  0  0  0  0  0  0  0  0
    5.4167    0.6352   20.1228 C   0  0  0  0  0  0  0  0  0  0  0  0
    4.7855    1.3102   19.0751 C   0  0  0  0  0  0  0  0  0  0  0  0
    5.3944    1.3033   17.8185 C   0  0  0  0  0  0  0  0  0  0  0  0
    6.5495    0.6714   17.5579 N   0  0  0  0  0  0  0  0  0  0  0  0
    7.1470    0.0397   18.5750 C   0  0  0  0  0  0  0  0  0  0  0  0
    8.0959   -0.4398   18.3245 H   0  0  0  0  0  0  0  0  0  0  0  0
    4.9337    1.8278   16.9838 H   0  0  0  0  0  0  0  0  0  0  0  0
    3.8588    1.8600   19.2232 H   0  0  0  0  0  0  0  0  0  0  0  0
    4.9801    0.6404   21.1225 H   0  0  0  0  0  0  0  0  0  0  0  0
    6.7170   -1.0581   21.7824 H   0  0  0  0  0  0  0  0  0  0  0  0
    7.9248   -1.5840   20.6308 H   0  0  0  0  0  0  0  0  0  0  0  0
    9.1350    0.6070   20.8308 H   0  0  0  0  0  0  0  0  0  0  0  0
    6.7282    0.5921   23.5019 H   0  0  0  0  0  0  0  0  0  0  0  0
    5.5380    2.3638   24.4197 H   0  0  0  0  0  0  0  0  0  0  0  0
    6.0051    3.3680   23.0479 H   0  0  0  0  0  0  0  0  0  0  0  0
    8.2204    3.7967   24.0427 H   0  0  0  0  0  0  0  0  0  0  0  0
    7.8321    2.7884   25.4271 H   0  0  0  0  0  0  0  0  0  0  0  0
    6.5280    5.7663   24.6200 C   0  0  0  0  0  0  0  0  0  0  0  0
    5.3129    5.8954   23.9337 C   0  0  0  0  0  0  0  0  0  0  0  0
    5.0234    7.0381   23.1810 C   0  0  0  0  0  0  0  0  0  0  0  0
    5.9635    8.0701   23.1226 C   0  0  0  0  0  0  0  0  0  0  0  0
    7.1773    7.9540   23.8109 C   0  0  0  0  0  0  0  0  0  0  0  0
    7.4855    6.8115   24.5690 C   0  0  0  0  0  0  0  0  0  0  0  0
    8.7997    6.7228   25.3161 C   0  0  0  0  0  0  0  0  0  0  0  0
    9.5655    7.3477   24.8474 H   0  0  0  0  0  0  0  0  0  0  0  0
    9.1771    5.6952   25.3353 H   0  0  0  0  0  0  0  0  0  0  0  0
    8.7029    7.0553   26.3591 H   0  0  0  0  0  0  0  0  0  0  0  0
    7.9081    8.7610   23.7603 H   0  0  0  0  0  0  0  0  0  0  0  0
    5.7517    8.9643   22.5410 H   0  0  0  0  0  0  0  0  0  0  0  0
    4.0810    7.1165   22.6425 H   0  0  0  0  0  0  0  0  0  0  0  0
    4.6043    5.0745   24.0065 H   0  0  0  0  0  0  0  0  0  0  0  0
    6.9604    3.6915   27.2164 H   0  0  0  0  0  0  0  0  0  0  0  0
    6.9199    5.4491   27.2566 H   0  0  0  0  0  0  0  0  0  0  0  0
    4.7742    4.4528   28.1288 H   0  0  0  0  0  0  0  0  0  0  0  0
    4.4776    5.4227   26.6746 H   0  0  0  0  0  0  0  0  0  0  0  0
    4.5239    3.6551   26.5606 H   0  0  0  0  0  0  0  0  0  0  0  0
  1  2  1  0
  2  3  1  0
  3  4  1  0
  4  5  1  0
  5  6  1  0
  6  7  1  0
  7  8  2  0
  7  9  1  0
  9 10  1  0
 10 11  1  0
 10 12  1  0
 10 13  1  0
  9 14  1  0
 14 15  1  0
 15 16  2  0
 16 17  1  0
 17 18  2  0
 18 19  1  0
 19 20  2  0
 20 21  1  0
 18 22  1  0
 17 23  1  0
 16 24  1  0
 14 25  1  0
 14 26  1  0
  9 27  1  0
  6 28  1  0
  5 29  1  0
  5 30  1  0
  4 31  1  0
  4 32  1  0
  3 33  1  0
 33 34  2  0
 34 35  1  0
 35 36  2  0
 36 37  1  0
 37 38  2  0
 38 39  1  0
 39 40  1  0
 39 41  1  0
 39 42  1  0
 37 43  1  0
 36 44  1  0
 35 45  1  0
 34 46  1  0
  2 47  1  0
  2 48  1  0
  1 49  1  0
  1 50  1  0
  1 51  1  0
 20 15  1  0
 38 33  1  0
M  CHG  1  10   1
M  END
>  <plip>  (1) 
-0.07142857142857142

>  <filename>  (1) 
[H][c]1[n][c]([H])[c]([C]([H])([H])[C]([H])([C](=[O])[N]([H])[C]([H])([H])[C]([H])([H])[N]([c]2[c]([H])[c]([H])[c]([H])[c]([H])[c]2[C]([H])([H])[H])[C]([H])([H])[C]([H])([H])[H])[N+]([H])([H])[H])[c]([H])[c]1[H]

$$$$
