
     RDKit          3D

 25 26  0  0  0  0  0  0  0  0999 V2000
    4.9052    1.7695   17.0090 H   0  0  0  0  0  0  0  0  0  0  0  0
    5.4011    1.2893   17.8495 C   0  0  0  0  0  0  0  0  0  0  0  0
    6.5701    0.6818   17.5946 N   0  0  0  0  0  0  0  0  0  0  0  0
    7.1827    0.0545   18.6047 C   0  0  0  0  0  0  0  0  0  0  0  0
    8.1329   -0.4390   18.3823 H   0  0  0  0  0  0  0  0  0  0  0  0
    6.6475    0.0031   19.8929 C   0  0  0  0  0  0  0  0  0  0  0  0
    7.4175   -0.6611   20.9947 C   0  0  0  0  0  0  0  0  0  0  0  0
    6.5223   -1.1777   21.9042 F   0  0  0  0  0  0  0  0  0  0  0  0
    8.0959   -1.7410   20.4826 F   0  0  0  0  0  0  0  0  0  0  0  0
    8.4060    0.2512   21.7279 C   0  0  0  0  0  0  0  0  0  0  0  0
    8.5625    1.6064   21.3909 C   0  0  0  0  0  0  0  0  0  0  0  0
    7.9811    2.0598   20.5909 H   0  0  0  0  0  0  0  0  0  0  0  0
    9.4664    2.4161   22.0729 C   0  0  0  0  0  0  0  0  0  0  0  0
    9.5693    3.4592   21.7997 H   0  0  0  0  0  0  0  0  0  0  0  0
   10.2360    1.8920   23.1102 C   0  0  0  0  0  0  0  0  0  0  0  0
   10.9388    2.5272   23.6382 H   0  0  0  0  0  0  0  0  0  0  0  0
   10.0999    0.5513   23.4678 C   0  0  0  0  0  0  0  0  0  0  0  0
   10.7024    0.1525   24.2779 H   0  0  0  0  0  0  0  0  0  0  0  0
    9.1917   -0.2753   22.7882 C   0  0  0  0  0  0  0  0  0  0  0  0
    9.0906   -1.6583   23.2051 C   0  0  0  0  0  0  0  0  0  0  0  0
    9.0166   -2.7630   23.5451 N   0  0  0  0  0  0  0  0  0  0  0  0
    5.4399    0.6541   20.1571 C   0  0  0  0  0  0  0  0  0  0  0  0
    5.0079    0.6274   21.1548 H   0  0  0  0  0  0  0  0  0  0  0  0
    4.8047    1.3141   19.1128 C   0  0  0  0  0  0  0  0  0  0  0  0
    3.8734    1.8445   19.2687 H   0  0  0  0  0  0  0  0  0  0  0  0
  1  2  1  0
  2  3  2  0
  3  4  1  0
  4  5  1  0
  4  6  2  0
  6  7  1  0
  7  8  1  0
  7  9  1  0
  7 10  1  0
 10 11  2  0
 11 12  1  0
 11 13  1  0
 13 14  1  0
 13 15  2  0
 15 16  1  0
 15 17  1  0
 17 18  1  0
 17 19  2  0
 19 20  1  0
 20 21  3  0
  6 22  1  0
 22 23  1  0
 22 24  2  0
 24 25  1  0
 24  2  1  0
 19 10  1  0
M  END
>  <plip>  (1) 
-0.0

>  <filename>  (1) 
[H][c]1[n][c]([H])[c]([C]([F])([F])[c]2[c]([H])[c]([H])[c]([H])[c]([H])[c]2[C]#[N])[c]([H])[c]1[H]

$$$$
