
     RDKit          3D

 36 39  0  0  0  0  0  0  0  0999 V2000
    4.9306    1.7817   17.0063 H   0  0  0  0  0  0  0  0  0  0  0  0
    5.4026    1.2855   17.8490 C   0  0  0  0  0  0  0  0  0  0  0  0
    6.5598    0.6621   17.5814 N   0  0  0  0  0  0  0  0  0  0  0  0
    7.1802    0.0476   18.5932 C   0  0  0  0  0  0  0  0  0  0  0  0
    8.1348   -0.4286   18.3788 H   0  0  0  0  0  0  0  0  0  0  0  0
    6.6725    0.0062   19.9061 C   0  0  0  0  0  0  0  0  0  0  0  0
    7.3727   -0.6722   20.9452 N   0  0  0  0  0  0  0  0  0  0  0  0
    6.6715   -1.2157   21.9815 N   0  0  0  0  0  0  0  0  0  0  0  0
    7.5159   -1.7441   22.8185 C   0  0  0  0  0  0  0  0  0  0  0  0
    7.0875   -2.4045   24.0591 C   0  0  0  0  0  0  0  0  0  0  0  0
    5.8568   -2.5470   24.4758 N   0  0  0  0  0  0  0  0  0  0  0  0
    5.9565   -3.2119   25.6786 C   0  0  0  0  0  0  0  0  0  0  0  0
    4.9417   -3.6129   26.5557 C   0  0  0  0  0  0  0  0  0  0  0  0
    3.9107   -3.4062   26.2822 H   0  0  0  0  0  0  0  0  0  0  0  0
    5.2855   -4.2887   27.7361 C   0  0  0  0  0  0  0  0  0  0  0  0
    4.1723   -4.7422   28.6487 C   0  0  0  0  0  0  0  0  0  0  0  0
    3.0143   -4.8946   28.2978 O   0  0  0  0  0  0  0  0  0  0  0  0
    4.5047   -5.0246   29.9331 N   0  0  0  0  0  0  0  0  0  0  0  0
    5.3519   -4.7072   30.3669 H   0  0  0  0  0  0  0  0  0  0  0  0
    3.6930   -5.2954   30.4593 H   0  0  0  0  0  0  0  0  0  0  0  0
    6.6600   -4.5765   28.0054 C   0  0  0  0  0  0  0  0  0  0  0  0
    6.9368   -5.1462   28.8911 H   0  0  0  0  0  0  0  0  0  0  0  0
    7.6761   -4.1785   27.1442 C   0  0  0  0  0  0  0  0  0  0  0  0
    8.7181   -4.3905   27.3637 H   0  0  0  0  0  0  0  0  0  0  0  0
    7.3022   -3.4894   25.9851 C   0  0  0  0  0  0  0  0  0  0  0  0
    8.0080   -2.9590   24.9367 N   0  0  0  0  0  0  0  0  0  0  0  0
    9.0098   -2.9870   24.8511 H   0  0  0  0  0  0  0  0  0  0  0  0
    8.9427   -1.5820   22.3707 C   0  0  0  0  0  0  0  0  0  0  0  0
    9.5793   -1.0148   23.0622 H   0  0  0  0  0  0  0  0  0  0  0  0
    9.4596   -2.5289   22.1676 H   0  0  0  0  0  0  0  0  0  0  0  0
    8.7599   -0.8036   21.0820 C   0  0  0  0  0  0  0  0  0  0  0  0
    9.6150   -0.3852   20.3409 O   0  0  0  0  0  0  0  0  0  0  0  0
    5.4519    0.6411   20.1734 C   0  0  0  0  0  0  0  0  0  0  0  0
    5.0376    0.5952   21.1811 H   0  0  0  0  0  0  0  0  0  0  0  0
    4.8187    1.3029   19.1204 C   0  0  0  0  0  0  0  0  0  0  0  0
    3.8875    1.8321   19.2684 H   0  0  0  0  0  0  0  0  0  0  0  0
  1  2  1  0
  2  3  2  0
  3  4  1  0
  4  5  1  0
  4  6  2  0
  6  7  1  0
  7  8  1  0
  8  9  2  0
  9 10  1  0
 10 11  2  0
 11 12  1  0
 12 13  2  0
 13 14  1  0
 13 15  1  0
 15 16  1  0
 16 17  2  0
 16 18  1  0
 18 19  1  0
 18 20  1  0
 15 21  2  0
 21 22  1  0
 21 23  1  0
 23 24  1  0
 23 25  2  0
 25 26  1  0
 26 27  1  0
  9 28  1  0
 28 29  1  0
 28 30  1  0
 28 31  1  0
 31 32  2  0
  6 33  1  0
 33 34  1  0
 33 35  2  0
 35 36  1  0
 35  2  1  0
 31  7  1  0
 26 10  1  0
 25 12  1  0
M  END
>  <plip>  (1) 
-0.06896551724137931

>  <filename>  (1) 
[H][c]1[n][c]([H])[c]([N]2[N]=[C]([c]3[n][c]4[c]([H])[c]([C](=[O])[N]([H])[H])[c]([H])[c]([H])[c]4[n]3[H])[C]([H])([H])[C]2=[O])[c]([H])[c]1[H]

$$$$
