
     RDKit          3D

 47 48  0  0  0  0  0  0  0  0999 V2000
    6.7691   -1.6973   21.6364 C   0  0  0  0  0  0  0  0  0  0  0  0
    7.5929   -0.5088   21.1025 C   0  0  0  0  0  0  0  0  0  0  0  0
    8.9768   -1.0315   20.6767 C   0  0  0  0  0  0  0  0  0  0  0  0
    8.9245   -1.7132   19.8291 H   0  0  0  0  0  0  0  0  0  0  0  0
    9.6476   -0.2061   20.4140 H   0  0  0  0  0  0  0  0  0  0  0  0
    9.4350   -1.5885   21.4981 H   0  0  0  0  0  0  0  0  0  0  0  0
    7.7972    0.5677   22.2233 C   0  0  0  0  0  0  0  0  0  0  0  0
    8.5057    0.1149   23.4319 N   0  0  0  0  0  4  0  0  0  0  0  0
    9.8167   -0.1480   23.4742 C   0  0  0  0  0  0  0  0  0  0  0  0
   10.2393   -1.1348   24.2907 N   0  0  0  0  0  0  0  0  0  0  0  0
   11.2126   -1.0971   24.5563 H   0  0  0  0  0  0  0  0  0  0  0  0
    9.6489   -1.3124   25.0877 H   0  0  0  0  0  0  0  0  0  0  0  0
   10.7151    0.4563   22.6801 N   0  0  0  0  0  0  0  0  0  0  0  0
   10.8051    1.9188   22.5602 C   0  0  0  0  0  0  0  0  0  0  0  0
   11.8562    2.4126   23.5585 C   0  0  0  0  0  0  0  0  0  0  0  0
   12.0336    3.9064   23.6199 C   0  0  0  0  0  0  0  0  0  0  0  0
   11.1751    4.6942   24.4021 C   0  0  0  0  0  0  0  0  0  0  0  0
   11.3892    6.0692   24.5417 C   0  0  0  0  0  0  0  0  0  0  0  0
   12.4791    6.6688   23.8991 C   0  0  0  0  0  0  0  0  0  0  0  0
   13.3064    5.9053   23.0688 C   0  0  0  0  0  0  0  0  0  0  0  0
   13.0669    4.5365   22.9149 C   0  0  0  0  0  0  0  0  0  0  0  0
   13.6929    3.9491   22.2469 H   0  0  0  0  0  0  0  0  0  0  0  0
   14.1413    6.3700   22.5460 H   0  0  0  0  0  0  0  0  0  0  0  0
   12.6852    7.7264   24.0379 H   0  0  0  0  0  0  0  0  0  0  0  0
   10.7146    6.6666   25.1539 H   0  0  0  0  0  0  0  0  0  0  0  0
   10.3364    4.2234   24.9112 H   0  0  0  0  0  0  0  0  0  0  0  0
   11.5695    2.0500   24.5569 H   0  0  0  0  0  0  0  0  0  0  0  0
   12.8157    1.9337   23.3149 H   0  0  0  0  0  0  0  0  0  0  0  0
    9.8349    2.3876   22.7666 H   0  0  0  0  0  0  0  0  0  0  0  0
   11.0814    2.1918   21.5312 H   0  0  0  0  0  0  0  0  0  0  0  0
   11.6226    0.0318   22.7957 H   0  0  0  0  0  0  0  0  0  0  0  0
    7.9863   -0.5851   23.9438 H   0  0  0  0  0  0  0  0  0  0  0  0
    8.3156    1.4152   21.7643 H   0  0  0  0  0  0  0  0  0  0  0  0
    6.8149    0.9393   22.5352 H   0  0  0  0  0  0  0  0  0  0  0  0
    6.8136    0.1375   19.9379 C   0  0  0  0  0  0  0  0  0  0  0  0
    5.5577    0.7379   20.1441 C   0  0  0  0  0  0  0  0  0  0  0  0
    4.8880    1.3281   19.0698 C   0  0  0  0  0  0  0  0  0  0  0  0
    5.4824    1.2908   17.8042 C   0  0  0  0  0  0  0  0  0  0  0  0
    6.6596    0.7016   17.5694 N   0  0  0  0  0  0  0  0  0  0  0  0
    7.2881    0.1410   18.6125 C   0  0  0  0  0  0  0  0  0  0  0  0
    8.2377   -0.3384   18.3829 H   0  0  0  0  0  0  0  0  0  0  0  0
    5.0018    1.7560   16.9453 H   0  0  0  0  0  0  0  0  0  0  0  0
    3.9289    1.8174   19.1916 H   0  0  0  0  0  0  0  0  0  0  0  0
    5.0947    0.7552   21.1353 H   0  0  0  0  0  0  0  0  0  0  0  0
    5.8245   -1.3581   22.0639 H   0  0  0  0  0  0  0  0  0  0  0  0
    6.5270   -2.3980   20.8283 H   0  0  0  0  0  0  0  0  0  0  0  0
    7.3110   -2.2431   22.4154 H   0  0  0  0  0  0  0  0  0  0  0  0
  1  2  1  0
  2  3  1  0
  3  4  1  0
  3  5  1  0
  3  6  1  0
  2  7  1  0
  7  8  1  0
  8  9  2  3
  9 10  1  0
 10 11  1  0
 10 12  1  0
  9 13  1  0
 13 14  1  0
 14 15  1  0
 15 16  1  0
 16 17  2  0
 17 18  1  0
 18 19  2  0
 19 20  1  0
 20 21  2  0
 21 22  1  0
 20 23  1  0
 19 24  1  0
 18 25  1  0
 17 26  1  0
 15 27  1  0
 15 28  1  0
 14 29  1  0
 14 30  1  0
 13 31  1  0
  8 32  1  0
  7 33  1  0
  7 34  1  0
  2 35  1  0
 35 36  2  0
 36 37  1  0
 37 38  2  0
 38 39  1  0
 39 40  2  0
 40 41  1  0
 38 42  1  0
 37 43  1  0
 36 44  1  0
  1 45  1  0
  1 46  1  0
  1 47  1  0
 21 16  1  0
 40 35  1  0
M  CHG  1   8   1
M  END
>  <plip>  (1) 
-0.1

>  <filename>  (1) 
[H][c]1[n][c]([H])[c]([C]([C]([H])([H])[H])([C]([H])([H])[H])[C]([H])([H])[N+]([H])=[C]([N]([H])[H])[N]([H])[C]([H])([H])[C]([H])([H])[c]2[c]([H])[c]([H])[c]([H])[c]([H])[c]2[H])[c]([H])[c]1[H]

$$$$
