
     RDKit          3D

 40 43  0  0  0  0  0  0  0  0999 V2000
    5.1394    1.8287   16.8450 H   0  0  0  0  0  0  0  0  0  0  0  0
    5.5854    1.4270   17.7528 C   0  0  0  0  0  0  0  0  0  0  0  0
    6.7771    0.8304   17.6139 N   0  0  0  0  0  0  0  0  0  0  0  0
    7.3397    0.3242   18.7215 C   0  0  0  0  0  0  0  0  0  0  0  0
    8.3255   -0.1108   18.5667 H   0  0  0  0  0  0  0  0  0  0  0  0
    6.7581    0.3414   20.0010 C   0  0  0  0  0  0  0  0  0  0  0  0
    7.3302   -0.4716   21.1746 C   0  0  2  0  0  0  0  0  0  0  0  0
    6.6109   -1.7536   21.2172 C   0  0  0  0  0  0  0  0  0  0  0  0
    6.1278   -2.8566   21.2927 C   0  0  0  0  0  0  0  0  0  0  0  0
    5.7258   -4.2118   21.0681 C   0  0  0  0  0  0  0  0  0  0  0  0
    5.9325   -4.7075   19.7673 C   0  0  0  0  0  0  0  0  0  0  0  0
    6.2966   -4.0322   19.0007 H   0  0  0  0  0  0  0  0  0  0  0  0
    5.6632   -6.0404   19.4796 C   0  0  0  0  0  0  0  0  0  0  0  0
    5.8208   -6.4586   18.4875 H   0  0  0  0  0  0  0  0  0  0  0  0
    5.1693   -6.8638   20.4905 C   0  0  0  0  0  0  0  0  0  0  0  0
    4.9005   -7.8704   20.1912 H   0  0  0  0  0  0  0  0  0  0  0  0
    4.9204   -6.3774   21.7798 C   0  0  0  0  0  0  0  0  0  0  0  0
    4.5376   -7.0426   22.5531 H   0  0  0  0  0  0  0  0  0  0  0  0
    5.1738   -5.0312   22.0675 C   0  0  0  0  0  0  0  0  0  0  0  0
    4.9450   -4.6181   23.0509 H   0  0  0  0  0  0  0  0  0  0  0  0
    7.2612    0.2365   22.5868 C   0  0  0  0  0  0  0  0  0  0  0  0
    6.4893   -0.2086   23.2228 H   0  0  0  0  0  0  0  0  0  0  0  0
    7.0151    1.3015   22.4797 H   0  0  0  0  0  0  0  0  0  0  0  0
    8.6833    0.0626   23.1832 C   0  0  2  0  0  0  0  0  0  0  0  0
    8.7129    0.0946   24.2769 H   0  0  0  0  0  0  0  0  0  0  0  0
    9.5958    1.0899   22.4863 C   0  0  0  0  0  0  0  0  0  0  0  0
    9.1742    2.1004   22.4950 H   0  0  0  0  0  0  0  0  0  0  0  0
   10.5804    1.1403   22.9647 H   0  0  0  0  0  0  0  0  0  0  0  0
    9.6974    0.5110   21.0469 C   0  0  0  0  0  0  0  0  0  0  0  0
    9.3093    1.2059   20.2994 H   0  0  0  0  0  0  0  0  0  0  0  0
   10.7395    0.2876   20.8119 H   0  0  0  0  0  0  0  0  0  0  0  0
    8.8702   -0.7939   21.1117 C   0  0  1  0  0  0  0  0  0  0  0  0
    9.1195   -1.5201   20.3263 H   0  0  0  0  0  0  0  0  0  0  0  0
    9.1749   -1.2500   22.5486 C   0  0  0  0  0  0  0  0  0  0  0  0
    8.6140   -2.1415   22.8556 H   0  0  0  0  0  0  0  0  0  0  0  0
   10.2443   -1.4451   22.7136 H   0  0  0  0  0  0  0  0  0  0  0  0
    5.5200    0.9890   20.1179 C   0  0  0  0  0  0  0  0  0  0  0  0
    5.0262    1.0495   21.0900 H   0  0  0  0  0  0  0  0  0  0  0  0
    4.9284    1.5426   18.9825 C   0  0  0  0  0  0  0  0  0  0  0  0
    3.9809    2.0655   19.0380 H   0  0  0  0  0  0  0  0  0  0  0  0
  1  2  1  0
  2  3  2  0
  3  4  1  0
  4  5  1  0
  4  6  2  0
  6  7  1  0
  7  8  1  1
  8  9  3  0
  9 10  1  0
 10 11  2  0
 11 12  1  0
 11 13  1  0
 13 14  1  0
 13 15  2  0
 15 16  1  0
 15 17  1  0
 17 18  1  0
 17 19  2  0
 19 20  1  0
  7 21  1  0
 21 22  1  0
 21 23  1  0
 21 24  1  0
 24 25  1  1
 24 26  1  0
 26 27  1  0
 26 28  1  0
 26 29  1  0
 29 30  1  0
 29 31  1  0
 29 32  1  0
 32 33  1  6
 32 34  1  0
 34 35  1  0
 34 36  1  0
  6 37  1  0
 37 38  1  0
 37 39  2  0
 39 40  1  0
 39  2  1  0
 32  7  1  0
 19 10  1  0
 34 24  1  0
M  END
>  <plip>  (1) 
-0.034482758620689655

>  <filename>  (1) 
[H][c]1[n][c]([H])[c]([C@]2([C]#[C][c]3[c]([H])[c]([H])[c]([H])[c]([H])[c]3[H])[C]([H])([H])[C@]3([H])[C]([H])([H])[C]([H])([H])[C@@]2([H])[C]3([H])[H])[c]([H])[c]1[H]

$$$$
