
     RDKit          3D

 48 51  0  0  0  0  0  0  0  0999 V2000
    4.3796   -3.3401   23.3737 O   0  0  0  0  0  0  0  0  0  0  0  0
    5.3908   -3.9151   23.7371 C   0  0  0  0  0  0  0  0  0  0  0  0
    5.3517   -5.3201   24.3263 C   0  0  0  0  0  0  0  0  0  0  0  0
    5.2531   -5.3320   25.8812 C   0  0  0  0  0  0  0  0  0  0  0  0
    6.5064   -4.7337   26.5098 C   0  0  0  0  0  0  0  0  0  0  0  0
    7.6674   -5.5138   26.6456 C   0  0  0  0  0  0  0  0  0  0  0  0
    8.8886   -4.9216   26.9583 C   0  0  0  0  0  0  0  0  0  0  0  0
    8.9635   -3.5439   27.1600 C   0  0  0  0  0  0  0  0  0  0  0  0
    7.8065   -2.7603   27.1157 C   0  0  0  0  0  0  0  0  0  0  0  0
    6.5856   -3.3624   26.8143 C   0  0  0  0  0  0  0  0  0  0  0  0
    5.6822   -2.7622   26.8060 H   0  0  0  0  0  0  0  0  0  0  0  0
    7.8579   -1.6904   27.3070 H   0  0  0  0  0  0  0  0  0  0  0  0
    9.9229   -3.0959   27.3806 H   0  0  0  0  0  0  0  0  0  0  0  0
    9.7862   -5.5288   27.0248 H   0  0  0  0  0  0  0  0  0  0  0  0
    7.6100   -6.5904   26.5092 H   0  0  0  0  0  0  0  0  0  0  0  0
    3.8933   -4.7826   26.4064 C   0  0  0  0  0  0  0  0  0  0  0  0
    3.4831   -6.1984   26.8750 C   0  0  0  0  0  0  0  0  0  0  0  0
    4.8498   -6.7427   26.4047 C   0  0  0  0  0  0  0  0  0  0  0  0
    5.4782   -7.1275   27.2131 H   0  0  0  0  0  0  0  0  0  0  0  0
    4.8076   -7.5014   25.6160 H   0  0  0  0  0  0  0  0  0  0  0  0
    3.3116   -6.2864   27.9527 H   0  0  0  0  0  0  0  0  0  0  0  0
    2.6160   -6.6214   26.3571 H   0  0  0  0  0  0  0  0  0  0  0  0
    3.2657   -4.3334   25.6276 H   0  0  0  0  0  0  0  0  0  0  0  0
    3.9879   -4.0745   27.2357 H   0  0  0  0  0  0  0  0  0  0  0  0
    4.4832   -5.8246   23.8873 H   0  0  0  0  0  0  0  0  0  0  0  0
    6.2489   -5.8755   24.0243 H   0  0  0  0  0  0  0  0  0  0  0  0
    6.6411   -3.3710   23.6694 N   0  0  0  0  0  0  0  0  0  0  0  0
    6.9012   -1.9615   23.3615 C   0  0  0  0  0  0  0  0  0  0  0  0
    6.6394   -1.6821   21.8959 C   0  0  2  0  0  0  0  0  0  0  0  0
    7.5989   -2.1172   20.8251 C   0  0  0  0  0  0  0  0  0  0  0  0
    7.3456   -0.6529   21.0455 C   0  0  1  0  0  0  0  0  0  0  0  0
    6.6240    0.0724   19.9393 C   0  0  0  0  0  0  0  0  0  0  0  0
    5.4107    0.7372   20.1430 C   0  0  0  0  0  0  0  0  0  0  0  0
    4.7827    1.3663   19.0623 C   0  0  0  0  0  0  0  0  0  0  0  0
    5.3990    1.3287   17.8079 C   0  0  0  0  0  0  0  0  0  0  0  0
    6.5680    0.7091   17.5827 N   0  0  0  0  0  0  0  0  0  0  0  0
    7.1496    0.1055   18.6295 C   0  0  0  0  0  0  0  0  0  0  0  0
    8.0951   -0.3936   18.4171 H   0  0  0  0  0  0  0  0  0  0  0  0
    4.9388    1.8167   16.9487 H   0  0  0  0  0  0  0  0  0  0  0  0
    3.8371    1.8826   19.1794 H   0  0  0  0  0  0  0  0  0  0  0  0
    4.9755    0.7498   21.1430 H   0  0  0  0  0  0  0  0  0  0  0  0
    8.1213   -0.0653   21.5433 H   0  0  0  0  0  0  0  0  0  0  0  0
    8.5709   -2.5542   21.0505 H   0  0  0  0  0  0  0  0  0  0  0  0
    7.0798   -2.5321   19.9670 H   0  0  0  0  0  0  0  0  0  0  0  0
    5.5891   -1.8450   21.6587 H   0  0  0  0  0  0  0  0  0  0  0  0
    7.9437   -1.7632   23.6487 H   0  0  0  0  0  0  0  0  0  0  0  0
    6.2703   -1.3063   23.9800 H   0  0  0  0  0  0  0  0  0  0  0  0
    7.3479   -3.8982   24.1535 H   0  0  0  0  0  0  0  0  0  0  0  0
  1  2  2  0
  2  3  1  0
  3  4  1  0
  4  5  1  0
  5  6  2  0
  6  7  1  0
  7  8  2  0
  8  9  1  0
  9 10  2  0
 10 11  1  0
  9 12  1  0
  8 13  1  0
  7 14  1  0
  6 15  1  0
  4 16  1  0
 16 17  1  0
 17 18  1  0
 18 19  1  0
 18 20  1  0
 17 21  1  0
 17 22  1  0
 16 23  1  0
 16 24  1  0
  3 25  1  0
  3 26  1  0
  2 27  1  0
 27 28  1  0
 28 29  1  0
 29 30  1  0
 30 31  1  0
 31 32  1  0
 32 33  2  0
 33 34  1  0
 34 35  2  0
 35 36  1  0
 36 37  2  0
 37 38  1  0
 35 39  1  0
 34 40  1  0
 33 41  1  0
 31 42  1  1
 30 43  1  0
 30 44  1  0
 29 45  1  6
 28 46  1  0
 28 47  1  0
 27 48  1  0
 18  4  1  0
 31 29  1  0
 37 32  1  0
 10  5  1  0
M  END
>  <plip>  (1) 
-0.07142857142857142

>  <filename>  (1) 
[H][c]1[n][c]([H])[c]([C@]2([H])[C]([H])([H])[C@@]2([H])[C]([H])([H])[N]([H])[C](=[O])[C]([H])([H])[C]2([c]3[c]([H])[c]([H])[c]([H])[c]([H])[c]3[H])[C]([H])([H])[C]([H])([H])[C]2([H])[H])[c]([H])[c]1[H]

$$$$
