
     RDKit          3D

 37 39  0  0  0  0  0  0  0  0999 V2000
    8.2140   -5.5440   23.7606 C   0  0  0  0  0  0  0  0  0  0  0  0
    7.6589   -4.1520   23.4411 C   0  0  0  0  0  0  0  0  0  0  0  0
    8.5957   -3.4021   22.4839 C   0  0  0  0  0  0  0  0  0  0  0  0
    9.8975   -3.3742   23.1214 O   0  0  0  0  0  0  0  0  0  0  0  0
    9.8177   -3.1488   24.0660 H   0  0  0  0  0  0  0  0  0  0  0  0
    8.0343   -2.0310   22.0884 C   0  0  0  0  0  0  0  0  0  0  0  0
    7.8798   -1.6636   20.8328 N   0  0  0  0  0  0  0  0  0  0  0  0
    7.3348   -0.4262   20.9383 N   0  0  0  0  0  0  0  0  0  0  0  0
    6.7198    0.2078   19.8477 C   0  0  0  0  0  0  0  0  0  0  0  0
    5.6067    1.0254   20.0558 C   0  0  0  0  0  0  0  0  0  0  0  0
    4.9657    1.5744   18.9447 C   0  0  0  0  0  0  0  0  0  0  0  0
    5.4543    1.3035   17.6597 C   0  0  0  0  0  0  0  0  0  0  0  0
    6.5217    0.5117   17.4415 N   0  0  0  0  0  0  0  0  0  0  0  0
    7.1314   -0.0268   18.5186 C   0  0  0  0  0  0  0  0  0  0  0  0
    7.9914   -0.6649   18.3451 H   0  0  0  0  0  0  0  0  0  0  0  0
    4.9350    1.7462   16.8173 H   0  0  0  0  0  0  0  0  0  0  0  0
    4.0953    2.2090   19.0753 H   0  0  0  0  0  0  0  0  0  0  0  0
    5.2360    1.1959   21.0638 H   0  0  0  0  0  0  0  0  0  0  0  0
    7.2328   -0.0691   22.2924 C   0  0  0  0  0  0  0  0  0  0  0  0
    6.8651    1.2434   22.8680 C   0  0  0  0  0  0  0  0  0  0  0  0
    7.1210    2.4172   22.1353 C   0  0  0  0  0  0  0  0  0  0  0  0
    6.9268    3.6731   22.7129 C   0  0  0  0  0  0  0  0  0  0  0  0
    6.4420    3.7843   24.0162 C   0  0  0  0  0  0  0  0  0  0  0  0
    6.1443    2.6259   24.7363 C   0  0  0  0  0  0  0  0  0  0  0  0
    6.3573    1.3607   24.1807 C   0  0  0  0  0  0  0  0  0  0  0  0
    5.9697   -0.1868   25.2460 Br  0  0  0  0  0  0  0  0  0  0  0  0
    5.7610    2.6964   25.7476 H   0  0  0  0  0  0  0  0  0  0  0  0
    6.2970    4.7590   24.4691 H   0  0  0  0  0  0  0  0  0  0  0  0
    7.1732    4.5656   22.1479 H   0  0  0  0  0  0  0  0  0  0  0  0
    7.5153    2.3607   21.1247 H   0  0  0  0  0  0  0  0  0  0  0  0
    7.6225   -1.0796   23.0178 N   0  0  0  0  0  0  0  0  0  0  0  0
    8.6600   -3.9793   21.5590 H   0  0  0  0  0  0  0  0  0  0  0  0
    6.6611   -4.2452   23.0017 H   0  0  0  0  0  0  0  0  0  0  0  0
    7.5578   -3.5887   24.3729 H   0  0  0  0  0  0  0  0  0  0  0  0
    7.4144   -6.2111   24.0915 H   0  0  0  0  0  0  0  0  0  0  0  0
    8.6919   -5.9862   22.8860 H   0  0  0  0  0  0  0  0  0  0  0  0
    8.9744   -5.4647   24.5448 H   0  0  0  0  0  0  0  0  0  0  0  0
  1  2  1  0
  2  3  1  0
  3  4  1  0
  4  5  1  0
  3  6  1  0
  6  7  2  0
  7  8  1  0
  8  9  1  0
  9 10  2  0
 10 11  1  0
 11 12  2  0
 12 13  1  0
 13 14  2  0
 14 15  1  0
 12 16  1  0
 11 17  1  0
 10 18  1  0
  8 19  1  0
 19 20  1  0
 20 21  2  0
 21 22  1  0
 22 23  2  0
 23 24  1  0
 24 25  2  0
 25 26  1  0
 24 27  1  0
 23 28  1  0
 22 29  1  0
 21 30  1  0
 19 31  2  0
  3 32  1  0
  2 33  1  0
  2 34  1  0
  1 35  1  0
  1 36  1  0
  1 37  1  0
 31  6  1  0
 14  9  1  0
 25 20  1  0
M  END
>  <plip>  (1) 
-0.10714285714285714

>  <filename>  (1) 
[H][O][C]([H])([c]1[n][c](-[c]2[c]([H])[c]([H])[c]([H])[c]([H])[c]2[Br])[n](-[c]2[c]([H])[n][c]([H])[c]([H])[c]2[H])[n]1)[C]([H])([H])[C]([H])([H])[H]

$$$$
