
     RDKit          3D

 32 33  0  0  0  0  0  0  0  0999 V2000
    9.4133    0.8055   25.6701 H   0  0  0  0  0  0  0  0  0  0  0  0
    9.5224    1.0044   24.7202 O   0  0  0  0  0  0  0  0  0  0  0  0
   10.6405    0.2713   24.5491 C   0  0  0  0  0  0  0  0  0  0  0  0
   11.0591   -0.3365   25.5089 O   0  0  0  0  0  0  0  0  0  0  0  0
   11.2814    0.3139   23.1237 C   0  0  1  0  0  0  0  0  0  0  0  0
   10.7709    1.1405   22.6189 H   0  0  0  0  0  0  0  0  0  0  0  0
   12.7378    0.5152   22.9658 N   0  0  0  0  0  0  0  0  0  0  0  0
   13.0588    1.4162   23.3133 H   0  0  0  0  0  0  0  0  0  0  0  0
   13.2761   -0.1998   23.4546 H   0  0  0  0  0  0  0  0  0  0  0  0
   10.9443   -0.9917   22.3612 C   0  0  0  0  0  0  0  0  0  0  0  0
   11.4619   -0.9044   21.3999 H   0  0  0  0  0  0  0  0  0  0  0  0
   11.4037   -1.8440   22.8784 H   0  0  0  0  0  0  0  0  0  0  0  0
    9.4724   -1.2270   22.1435 C   0  0  0  0  0  0  0  0  0  0  0  0
    8.7725   -0.5836   21.1445 C   0  0  0  0  0  0  0  0  0  0  0  0
    9.3110    0.0727   20.4564 H   0  0  0  0  0  0  0  0  0  0  0  0
    7.3529   -0.7189   20.9819 C   0  0  0  0  0  0  0  0  0  0  0  0
    6.6278    0.0095   19.8871 C   0  0  0  0  0  0  0  0  0  0  0  0
    7.1475    0.0702   18.5762 C   0  0  0  0  0  0  0  0  0  0  0  0
    8.0900   -0.4251   18.3468 H   0  0  0  0  0  0  0  0  0  0  0  0
    6.5508    0.6833   17.5437 N   0  0  0  0  0  0  0  0  0  0  0  0
    5.3925    1.3135   17.7963 C   0  0  0  0  0  0  0  0  0  0  0  0
    4.9279    1.8238   16.9566 H   0  0  0  0  0  0  0  0  0  0  0  0
    4.7817    1.3366   19.0558 C   0  0  0  0  0  0  0  0  0  0  0  0
    3.8462    1.8724   19.1992 H   0  0  0  0  0  0  0  0  0  0  0  0
    5.4068    0.6708   20.1137 C   0  0  0  0  0  0  0  0  0  0  0  0
    4.9720    0.6914   21.1141 H   0  0  0  0  0  0  0  0  0  0  0  0
    6.6695   -1.5332   21.8529 C   0  0  0  0  0  0  0  0  0  0  0  0
    5.5916   -1.7020   21.7801 H   0  0  0  0  0  0  0  0  0  0  0  0
    7.3644   -2.1871   22.8334 N   0  0  0  0  0  0  0  0  0  0  0  0
    6.9626   -2.7727   23.5527 H   0  0  0  0  0  0  0  0  0  0  0  0
    8.7358   -2.1086   23.0650 C   0  0  0  0  0  0  0  0  0  0  0  0
    9.1778   -2.7685   23.9914 O   0  0  0  0  0  0  0  0  0  0  0  0
  1  2  1  0
  2  3  1  0
  3  4  2  0
  3  5  1  0
  5  6  1  6
  5  7  1  0
  7  8  1  0
  7  9  1  0
  5 10  1  0
 10 11  1  0
 10 12  1  0
 10 13  1  0
 13 14  2  0
 14 15  1  0
 14 16  1  0
 16 17  1  0
 17 18  2  0
 18 19  1  0
 18 20  1  0
 20 21  2  0
 21 22  1  0
 21 23  1  0
 23 24  1  0
 23 25  2  0
 25 26  1  0
 16 27  2  0
 27 28  1  0
 27 29  1  0
 29 30  1  0
 29 31  1  0
 31 32  2  0
 31 13  1  0
 25 17  1  0
M  END
>  <plip>  (1) 
-0.06896551724137931

>  <filename>  (1) 
[H][O][C](=[O])[C@@]([H])([N]([H])[H])[C]([H])([H])[c]1[c]([H])[c](-[c]2[c]([H])[n][c]([H])[c]([H])[c]2[H])[c]([H])[n]([H])[c]1=[O]

$$$$
