
     RDKit          3D

 29 30  0  0  0  0  0  0  0  0999 V2000
    7.3909   -2.6497   22.6536 C   0  0  0  0  0  0  0  0  0  0  0  0
    6.6432   -1.8140   21.6142 C   0  0  0  0  0  0  0  0  0  0  0  0
    7.4509   -0.6556   21.0193 C   0  0  0  0  0  0  0  0  0  0  0  0
    6.6781    0.0553   19.9281 C   0  0  0  0  0  0  0  0  0  0  0  0
    5.4388    0.6688   20.1655 C   0  0  0  0  0  0  0  0  0  0  0  0
    4.8025    1.3081   19.1013 C   0  0  0  0  0  0  0  0  0  0  0  0
    5.4001    1.2854   17.8366 C   0  0  0  0  0  0  0  0  0  0  0  0
    6.5613    0.6666   17.5842 N   0  0  0  0  0  0  0  0  0  0  0  0
    7.1751    0.0798   18.6204 C   0  0  0  0  0  0  0  0  0  0  0  0
    8.1191   -0.4130   18.3833 H   0  0  0  0  0  0  0  0  0  0  0  0
    4.9313    1.7836   16.9890 H   0  0  0  0  0  0  0  0  0  0  0  0
    3.8711    1.8374   19.2425 H   0  0  0  0  0  0  0  0  0  0  0  0
    5.0031    0.6495   21.1697 H   0  0  0  0  0  0  0  0  0  0  0  0
    7.9206    0.3191   22.0171 N   0  0  0  0  0  0  0  0  0  0  0  0
    7.1639    0.8686   23.0240 C   0  0  0  0  0  0  0  0  0  0  0  0
    6.0920    0.4699   23.4142 O   0  0  0  0  0  0  0  0  0  0  0  0
    7.9273    2.0746   23.5627 C   0  0  0  0  0  0  0  0  0  0  0  0
    9.0923    2.0689   22.7066 N   0  0  0  0  0  0  0  0  0  0  0  0
    9.0571    1.0871   21.7722 C   0  0  0  0  0  0  0  0  0  0  0  0
    9.8727    0.9112   20.8983 O   0  0  0  0  0  0  0  0  0  0  0  0
    9.8547    2.7193   22.6264 H   0  0  0  0  0  0  0  0  0  0  0  0
    8.1484    1.9282   24.6289 H   0  0  0  0  0  0  0  0  0  0  0  0
    7.2982    2.9719   23.4771 H   0  0  0  0  0  0  0  0  0  0  0  0
    8.3704   -1.0736   20.5963 H   0  0  0  0  0  0  0  0  0  0  0  0
    6.3368   -2.4444   20.7738 H   0  0  0  0  0  0  0  0  0  0  0  0
    5.7284   -1.4092   22.0305 H   0  0  0  0  0  0  0  0  0  0  0  0
    6.7718   -3.4773   23.0240 H   0  0  0  0  0  0  0  0  0  0  0  0
    8.3068   -3.0773   22.2245 H   0  0  0  0  0  0  0  0  0  0  0  0
    7.6720   -2.0290   23.5122 H   0  0  0  0  0  0  0  0  0  0  0  0
  1  2  1  0
  2  3  1  0
  3  4  1  0
  4  5  2  0
  5  6  1  0
  6  7  2  0
  7  8  1  0
  8  9  2  0
  9 10  1  0
  7 11  1  0
  6 12  1  0
  5 13  1  0
  3 14  1  0
 14 15  1  0
 15 16  2  0
 15 17  1  0
 17 18  1  0
 18 19  1  0
 19 20  2  0
 18 21  1  0
 17 22  1  0
 17 23  1  0
  3 24  1  0
  2 25  1  0
  2 26  1  0
  1 27  1  0
  1 28  1  0
  1 29  1  0
  9  4  1  0
 19 14  1  0
M  END
>  <plip>  (1) 
-0.10714285714285714

>  <filename>  (1) 
[H][c]1[n][c]([H])[c]([C]([H])([N]2[C](=[O])[N]([H])[C]([H])([H])[C]2=[O])[C]([H])([H])[C]([H])([H])[H])[c]([H])[c]1[H]

$$$$
