
     RDKit          3D

 39 41  0  0  0  0  0  0  0  0999 V2000
    7.3943    2.0813   22.0744 O   0  0  0  0  0  0  0  0  0  0  0  0
    8.6791    1.4109   22.0245 S   0  0  0  0  0  0  0  0  0  0  0  0
    9.7795    1.9340   21.2386 O   0  0  0  0  0  0  0  0  0  0  0  0
    9.2395    1.1652   23.5903 N   0  0  0  0  0  0  0  0  0  0  0  0
    8.1893    0.6837   24.5121 C   0  0  0  0  0  0  0  0  0  0  0  0
    7.4561    1.7811   25.2433 C   0  0  0  0  0  0  0  0  0  0  0  0
    7.8636    3.0503   25.2576 C   0  0  0  0  0  0  0  0  0  0  0  0
    9.1406    3.4837   24.5666 C   0  0  0  0  0  0  0  0  0  0  0  0
   10.0106    2.2836   24.1387 C   0  0  0  0  0  0  0  0  0  0  0  0
   10.5490    1.8777   25.0086 H   0  0  0  0  0  0  0  0  0  0  0  0
   10.7662    2.5889   23.4071 H   0  0  0  0  0  0  0  0  0  0  0  0
    8.8894    4.0902   23.6855 H   0  0  0  0  0  0  0  0  0  0  0  0
    9.7205    4.1359   25.2346 H   0  0  0  0  0  0  0  0  0  0  0  0
    7.2534    3.8171   25.7396 H   0  0  0  0  0  0  0  0  0  0  0  0
    6.5545    1.4607   25.7597 H   0  0  0  0  0  0  0  0  0  0  0  0
    7.4526    0.0682   23.9798 H   0  0  0  0  0  0  0  0  0  0  0  0
    8.6661    0.0068   25.2378 H   0  0  0  0  0  0  0  0  0  0  0  0
    8.4214   -0.1707   21.5962 N   0  0  0  0  0  0  0  0  0  0  0  0
    7.0665   -0.5835   21.2766 C   0  0  0  0  0  0  0  0  0  0  0  0
    6.5298    0.2028   20.1176 C   0  0  0  0  0  0  0  0  0  0  0  0
    5.3104    0.8889   20.1547 C   0  0  0  0  0  0  0  0  0  0  0  0
    4.8204    1.4211   18.9568 C   0  0  0  0  0  0  0  0  0  0  0  0
    5.5933    1.2944   17.7980 C   0  0  0  0  0  0  0  0  0  0  0  0
    6.8014    0.7101   17.7670 N   0  0  0  0  0  0  0  0  0  0  0  0
    7.2542    0.2100   18.9230 C   0  0  0  0  0  0  0  0  0  0  0  0
    8.2596   -0.2124   18.8993 H   0  0  0  0  0  0  0  0  0  0  0  0
    5.2312    1.6784   16.8469 H   0  0  0  0  0  0  0  0  0  0  0  0
    3.8621    1.9307   18.9130 H   0  0  0  0  0  0  0  0  0  0  0  0
    4.7857    1.0407   21.1020 H   0  0  0  0  0  0  0  0  0  0  0  0
    6.3888   -0.5245   22.1394 H   0  0  0  0  0  0  0  0  0  0  0  0
    7.1151   -1.6470   21.0062 H   0  0  0  0  0  0  0  0  0  0  0  0
    9.3517   -1.1372   22.0873 C   0  0  0  0  0  0  0  0  0  0  0  0
   10.7251   -1.0710   21.5145 C   0  0  0  0  0  0  0  0  0  0  0  0
    9.7846   -2.1710   21.1163 C   0  0  0  0  0  0  0  0  0  0  0  0
    9.3447   -2.1392   20.1243 H   0  0  0  0  0  0  0  0  0  0  0  0
    9.9136   -3.1433   21.5568 H   0  0  0  0  0  0  0  0  0  0  0  0
   10.8696   -0.2711   20.7958 H   0  0  0  0  0  0  0  0  0  0  0  0
   11.5801   -1.2701   22.1548 H   0  0  0  0  0  0  0  0  0  0  0  0
    9.2362   -1.4634   23.1286 H   0  0  0  0  0  0  0  0  0  0  0  0
  1  2  2  0
  2  3  2  0
  2  4  1  0
  4  5  1  0
  5  6  1  0
  6  7  2  0
  7  8  1  0
  8  9  1  0
  9 10  1  0
  9 11  1  0
  8 12  1  0
  8 13  1  0
  7 14  1  0
  6 15  1  0
  5 16  1  0
  5 17  1  0
  2 18  1  0
 18 19  1  0
 19 20  1  0
 20 21  2  0
 21 22  1  0
 22 23  2  0
 23 24  1  0
 24 25  2  0
 25 26  1  0
 23 27  1  0
 22 28  1  0
 21 29  1  0
 19 30  1  0
 19 31  1  0
 18 32  1  0
 32 33  1  0
 33 34  1  0
 34 35  1  0
 34 36  1  0
 33 37  1  0
 33 38  1  0
 32 39  1  0
  9  4  1  0
 25 20  1  0
 34 32  1  0
M  END
>  <plip>  (1) 
-0.10714285714285714

>  <filename>  (1) 
[H][C]1=[C]([H])[C]([H])([H])[C]([H])([H])[N]([S](=[O])(=[O])[N]([C]([H])([H])[c]2[c]([H])[n][c]([H])[c]([H])[c]2[H])[C]2([H])[C]([H])([H])[C]2([H])[H])[C]1([H])[H]

$$$$
