
     RDKit          3D

 33 34  0  0  0  0  0  0  0  0999 V2000
    4.9106    1.8351   17.0432 H   0  0  0  0  0  0  0  0  0  0  0  0
    5.4117    1.2990   17.8452 C   0  0  0  0  0  0  0  0  0  0  0  0
    6.5687    0.6888   17.5360 N   0  0  0  0  0  0  0  0  0  0  0  0
    7.1979    0.0211   18.5189 C   0  0  0  0  0  0  0  0  0  0  0  0
    8.1559   -0.4335   18.2615 H   0  0  0  0  0  0  0  0  0  0  0  0
    6.7207   -0.0846   19.8487 C   0  0  0  0  0  0  0  0  0  0  0  0
    7.3917   -0.8225   20.8715 N   0  0  0  0  0  0  0  0  0  0  0  0
    6.6973   -1.1582   21.5373 H   0  0  0  0  0  0  0  0  0  0  0  0
    8.4838   -0.1735   21.6600 C   0  0  0  0  0  0  0  0  0  0  0  0
    8.8190   -1.1932   22.7488 C   0  0  0  0  0  0  0  0  0  0  0  0
    7.9925   -1.2932   23.4577 H   0  0  0  0  0  0  0  0  0  0  0  0
    9.7183   -0.9201   23.3084 H   0  0  0  0  0  0  0  0  0  0  0  0
    8.9916   -2.1715   22.2900 H   0  0  0  0  0  0  0  0  0  0  0  0
    9.6753    0.0089   20.7138 C   0  0  0  0  0  0  0  0  0  0  0  0
    9.8740   -0.9297   20.1910 H   0  0  0  0  0  0  0  0  0  0  0  0
    9.4637    0.7793   19.9670 H   0  0  0  0  0  0  0  0  0  0  0  0
   10.5887    0.3041   21.2435 H   0  0  0  0  0  0  0  0  0  0  0  0
    8.0770    1.2233   22.2655 C   0  0  1  0  0  0  0  0  0  0  0  0
    7.7182    1.8266   21.4124 H   0  0  0  0  0  0  0  0  0  0  0  0
    6.9983    1.1297   23.2029 O   0  0  0  0  0  0  0  0  0  0  0  0
    7.2302    1.9255   24.3611 C   0  0  0  0  0  0  0  0  0  0  0  0
    7.4042    1.2658   25.2237 H   0  0  0  0  0  0  0  0  0  0  0  0
    6.3259    2.5112   24.5725 H   0  0  0  0  0  0  0  0  0  0  0  0
    8.4521    2.7947   24.0670 C   0  0  0  0  0  0  0  0  0  0  0  0
    8.1489    3.7717   23.6750 H   0  0  0  0  0  0  0  0  0  0  0  0
    9.0504    2.9911   24.9656 H   0  0  0  0  0  0  0  0  0  0  0  0
    9.1936    1.9697   23.0147 C   0  0  0  0  0  0  0  0  0  0  0  0
    9.8075    2.5768   22.3410 H   0  0  0  0  0  0  0  0  0  0  0  0
    9.8587    1.2532   23.5103 H   0  0  0  0  0  0  0  0  0  0  0  0
    5.5136    0.5753   20.1437 C   0  0  0  0  0  0  0  0  0  0  0  0
    5.1680    0.6049   21.1763 H   0  0  0  0  0  0  0  0  0  0  0  0
    4.8429    1.2682   19.1244 C   0  0  0  0  0  0  0  0  0  0  0  0
    3.9073    1.8024   19.3078 H   0  0  0  0  0  0  0  0  0  0  0  0
  1  2  1  0
  2  3  2  0
  3  4  1  0
  4  5  1  0
  4  6  2  0
  6  7  1  0
  7  8  1  0
  7  9  1  0
  9 10  1  0
 10 11  1  0
 10 12  1  0
 10 13  1  0
  9 14  1  0
 14 15  1  0
 14 16  1  0
 14 17  1  0
  9 18  1  0
 18 19  1  6
 18 20  1  0
 20 21  1  0
 21 22  1  0
 21 23  1  0
 21 24  1  0
 24 25  1  0
 24 26  1  0
 24 27  1  0
 27 28  1  0
 27 29  1  0
  6 30  1  0
 30 31  1  0
 30 32  2  0
 32 33  1  0
 32  2  1  0
 27 18  1  0
M  END
>  <plip>  (1) 
-0.03571428571428571

>  <filename>  (1) 
[H][c]1[n][c]([H])[c]([N]([H])[C]([C]([H])([H])[H])([C]([H])([H])[H])[C@@]2([H])[O][C]([H])([H])[C]([H])([H])[C]2([H])[H])[c]([H])[c]1[H]

$$$$
