
     RDKit          3D

 43 45  0  0  0  0  0  0  0  0999 V2000
    9.9796    1.9504   22.0772 C   0  0  0  0  0  0  0  0  0  0  0  0
    8.4905    2.0833   21.7984 N   0  0  0  0  0  4  0  0  0  0  0  0
    7.6673    1.1615   22.6920 C   0  0  0  0  0  0  0  0  0  0  0  0
    7.8516   -0.2440   22.2357 C   0  0  0  0  0  0  0  0  0  0  0  0
    8.4138   -1.3606   22.8245 C   0  0  0  0  0  0  0  0  0  0  0  0
    8.4176   -2.3288   21.8026 C   0  0  0  0  0  0  0  0  0  0  0  0
    7.8922   -1.8678   20.6834 N   0  0  0  0  0  0  0  0  0  0  0  0
    7.5312   -0.5967   20.9495 N   0  0  0  0  0  0  0  0  0  0  0  0
    6.7593    0.0749   19.9574 C   0  0  0  0  0  0  0  0  0  0  0  0
    5.5139    0.6803   20.1917 C   0  0  0  0  0  0  0  0  0  0  0  0
    4.8813    1.3088   19.1095 C   0  0  0  0  0  0  0  0  0  0  0  0
    5.4946    1.2997   17.8532 C   0  0  0  0  0  0  0  0  0  0  0  0
    6.6509    0.6584   17.6153 N   0  0  0  0  0  0  0  0  0  0  0  0
    7.2358    0.0347   18.6385 C   0  0  0  0  0  0  0  0  0  0  0  0
    8.1212   -0.5507   18.4109 H   0  0  0  0  0  0  0  0  0  0  0  0
    5.0438    1.8027   16.9986 H   0  0  0  0  0  0  0  0  0  0  0  0
    3.9167    1.7930   19.2195 H   0  0  0  0  0  0  0  0  0  0  0  0
    5.0268    0.6273   21.1690 H   0  0  0  0  0  0  0  0  0  0  0  0
    8.7624   -3.3539   21.8253 H   0  0  0  0  0  0  0  0  0  0  0  0
    8.8056   -1.4723   23.8266 H   0  0  0  0  0  0  0  0  0  0  0  0
    6.6139    1.4615   22.6306 H   0  0  0  0  0  0  0  0  0  0  0  0
    7.9761    1.2667   23.7354 H   0  0  0  0  0  0  0  0  0  0  0  0
    8.0043    3.5086   21.8310 C   0  0  0  0  0  0  0  0  0  0  0  0
    8.1495    4.2662   23.1575 C   0  0  0  0  0  0  0  0  0  0  0  0
    9.5527    4.7965   23.5182 C   0  0  0  0  0  0  0  0  0  0  0  0
    9.3425    6.2032   24.1227 C   0  0  0  0  0  0  0  0  0  0  0  0
    7.8205    6.4028   24.1623 C   0  0  0  0  0  0  0  0  0  0  0  0
    7.3721    5.5500   23.0502 N   0  0  0  0  0  4  0  0  0  0  0  0
    7.7463    6.0134   22.1623 H   0  0  0  0  0  0  0  0  0  0  0  0
    6.3490    5.4250   22.9752 H   0  0  0  0  0  0  0  0  0  0  0  0
    7.5237    7.4480   24.0271 H   0  0  0  0  0  0  0  0  0  0  0  0
    7.4151    6.0666   25.1267 H   0  0  0  0  0  0  0  0  0  0  0  0
    9.7998    6.3137   25.1119 H   0  0  0  0  0  0  0  0  0  0  0  0
    9.7992    6.9667   23.4800 H   0  0  0  0  0  0  0  0  0  0  0  0
   10.0721    4.1273   24.2098 H   0  0  0  0  0  0  0  0  0  0  0  0
   10.1991    4.8565   22.6300 H   0  0  0  0  0  0  0  0  0  0  0  0
    7.7743    3.6449   23.9840 H   0  0  0  0  0  0  0  0  0  0  0  0
    8.5485    4.0848   21.0704 H   0  0  0  0  0  0  0  0  0  0  0  0
    6.9352    3.5096   21.5576 H   0  0  0  0  0  0  0  0  0  0  0  0
    8.3228    1.7000   20.8379 H   0  0  0  0  0  0  0  0  0  0  0  0
   10.5500    2.7165   21.5398 H   0  0  0  0  0  0  0  0  0  0  0  0
   10.2091    2.0586   23.1441 H   0  0  0  0  0  0  0  0  0  0  0  0
   10.3307    0.9636   21.7620 H   0  0  0  0  0  0  0  0  0  0  0  0
  1  2  1  0
  2  3  1  0
  3  4  1  0
  4  5  2  0
  5  6  1  0
  6  7  2  0
  7  8  1  0
  8  9  1  0
  9 10  2  0
 10 11  1  0
 11 12  2  0
 12 13  1  0
 13 14  2  0
 14 15  1  0
 12 16  1  0
 11 17  1  0
 10 18  1  0
  6 19  1  0
  5 20  1  0
  3 21  1  0
  3 22  1  0
  2 23  1  0
 23 24  1  0
 24 25  1  0
 25 26  1  0
 26 27  1  0
 27 28  1  0
 28 29  1  0
 28 30  1  0
 27 31  1  0
 27 32  1  0
 26 33  1  0
 26 34  1  0
 25 35  1  0
 25 36  1  0
 24 37  1  0
 23 38  1  0
 23 39  1  0
  2 40  1  0
  1 41  1  0
  1 42  1  0
  1 43  1  0
  8  4  1  0
 14  9  1  0
 28 24  1  0
M  CHG  2   2   1  28   1
M  END
>  <plip>  (1) 
-0.10344827586206896

>  <filename>  (1) 
[H][c]1[n][c]([H])[c](-[n]2[n][c]([H])[c]([H])[c]2[C]([H])([H])[N+]([H])([C]([H])([H])[H])[C]([H])([H])[C]2([H])[C]([H])([H])[C]([H])([H])[C]([H])([H])[N+]2([H])[H])[c]([H])[c]1[H]

$$$$
