
     RDKit          3D

 35 36  0  0  0  0  0  0  0  0999 V2000
    5.7263   -2.8737   20.3826 O   0  0  0  0  0  0  0  0  0  0  0  0
    5.6677   -2.7105   21.5783 C   0  0  0  0  0  0  0  0  0  0  0  0
    4.8215   -3.5528   22.4998 C   0  0  0  0  0  0  0  0  0  0  0  0
    5.4753   -4.8203   23.0688 C   0  0  0  0  0  0  0  0  0  0  0  0
    6.7429   -4.5078   24.3408 S   0  0  0  0  0  0  0  0  0  0  0  0
    5.7383   -4.1491   25.7864 C   0  0  0  0  0  0  0  0  0  0  0  0
    5.4872   -2.8204   26.1639 C   0  0  0  0  0  0  0  0  0  0  0  0
    4.7625   -2.5207   27.3245 C   0  0  0  0  0  0  0  0  0  0  0  0
    4.2923   -3.5695   28.1098 C   0  0  0  0  0  0  0  0  0  0  0  0
    3.6085   -3.2936   29.2344 F   0  0  0  0  0  0  0  0  0  0  0  0
    4.5333   -4.8991   27.7743 C   0  0  0  0  0  0  0  0  0  0  0  0
    5.2599   -5.1830   26.6114 C   0  0  0  0  0  0  0  0  0  0  0  0
    5.4677   -6.2165   26.3479 H   0  0  0  0  0  0  0  0  0  0  0  0
    4.1625   -5.6814   28.4290 H   0  0  0  0  0  0  0  0  0  0  0  0
    4.5685   -1.4998   27.6351 H   0  0  0  0  0  0  0  0  0  0  0  0
    5.8727   -2.0108   25.5490 H   0  0  0  0  0  0  0  0  0  0  0  0
    5.9641   -5.4204   22.2894 H   0  0  0  0  0  0  0  0  0  0  0  0
    4.6958   -5.4398   23.5232 H   0  0  0  0  0  0  0  0  0  0  0  0
    4.4801   -2.9551   23.3499 H   0  0  0  0  0  0  0  0  0  0  0  0
    3.9553   -3.8269   21.8930 H   0  0  0  0  0  0  0  0  0  0  0  0
    6.2961   -1.6626   22.1847 N   0  0  0  0  0  0  0  0  0  0  0  0
    7.4250   -0.8700   21.3083 S   0  0  0  0  0  0  0  0  0  0  0  0
    8.3205   -1.8295   20.7023 O   0  0  0  0  0  0  0  0  0  0  0  0
    7.8924    0.1390   22.2324 O   0  0  0  0  0  0  0  0  0  0  0  0
    6.4619   -0.1835   20.0512 C   0  0  0  0  0  0  0  0  0  0  0  0
    5.2700    0.5297   20.2324 C   0  0  0  0  0  0  0  0  0  0  0  0
    4.8144    1.2457   19.1270 C   0  0  0  0  0  0  0  0  0  0  0  0
    5.5347    1.1963   17.9288 C   0  0  0  0  0  0  0  0  0  0  0  0
    6.6471    0.4677   17.7689 N   0  0  0  0  0  0  0  0  0  0  0  0
    7.0898   -0.2253   18.8141 C   0  0  0  0  0  0  0  0  0  0  0  0
    7.9798   -0.8253   18.6349 H   0  0  0  0  0  0  0  0  0  0  0  0
    5.1924    1.7459   17.0514 H   0  0  0  0  0  0  0  0  0  0  0  0
    3.9118    1.8460   19.1651 H   0  0  0  0  0  0  0  0  0  0  0  0
    4.6961    0.5437   21.1632 H   0  0  0  0  0  0  0  0  0  0  0  0
    6.5003   -1.6323   23.1623 H   0  0  0  0  0  0  0  0  0  0  0  0
  1  2  2  0
  2  3  1  0
  3  4  1  0
  4  5  1  0
  5  6  1  0
  6  7  2  0
  7  8  1  0
  8  9  2  0
  9 10  1  0
  9 11  1  0
 11 12  2  0
 12 13  1  0
 11 14  1  0
  8 15  1  0
  7 16  1  0
  4 17  1  0
  4 18  1  0
  3 19  1  0
  3 20  1  0
  2 21  1  0
 21 22  1  0
 22 23  2  0
 22 24  2  0
 22 25  1  0
 25 26  2  0
 26 27  1  0
 27 28  2  0
 28 29  1  0
 29 30  2  0
 30 31  1  0
 28 32  1  0
 27 33  1  0
 26 34  1  0
 21 35  1  0
 12  6  1  0
 30 25  1  0
M  END
>  <plip>  (1) 
-0.03333333333333333

>  <filename>  (1) 
[H][c]1[n][c]([H])[c]([S](=[O])(=[O])[N]([H])[C](=[O])[C]([H])([H])[C]([H])([H])[S][c]2[c]([H])[c]([H])[c]([F])[c]([H])[c]2[H])[c]([H])[c]1[H]

$$$$
