
     RDKit          3D

 30 32  0  0  0  0  0  0  0  0999 V2000
    7.3329    1.2654   22.0092 O   0  0  0  0  0  0  0  0  0  0  0  0
    7.7271    0.2023   21.5797 C   0  0  0  0  0  0  0  0  0  0  0  0
    9.0120   -0.2421   21.6725 N   0  0  0  0  0  0  0  0  0  0  0  0
   10.1817    0.4597   21.9651 C   0  0  0  0  0  0  0  0  0  0  0  0
   11.2587   -0.3072   22.3048 C   0  0  0  0  0  0  0  0  0  0  0  0
   12.4949    0.3221   22.5910 C   0  0  0  0  0  0  0  0  0  0  0  0
   13.6459   -0.1669   23.0038 N   0  0  0  0  0  0  0  0  0  0  0  0
   14.5032    0.8785   23.1240 N   0  0  0  0  0  0  0  0  0  0  0  0
   13.8767    1.9808   22.7924 C   0  0  0  0  0  0  0  0  0  0  0  0
   12.5855    1.7114   22.4271 N   0  0  0  0  0  0  0  0  0  0  0  0
   11.5109    2.4773   21.9874 C   0  0  0  0  0  0  0  0  0  0  0  0
   10.2991    1.8869   21.8144 C   0  0  0  0  0  0  0  0  0  0  0  0
    9.4209    2.4732   21.5708 H   0  0  0  0  0  0  0  0  0  0  0  0
   11.7033    3.5316   21.7980 H   0  0  0  0  0  0  0  0  0  0  0  0
   14.3092    2.9712   22.7990 H   0  0  0  0  0  0  0  0  0  0  0  0
   11.1821   -1.3777   22.4179 H   0  0  0  0  0  0  0  0  0  0  0  0
    9.1567   -1.2101   21.4407 H   0  0  0  0  0  0  0  0  0  0  0  0
    6.7476   -0.8123   20.8252 C   0  0  0  0  0  0  0  0  0  0  0  0
    7.4440   -1.9286   20.3969 F   0  0  0  0  0  0  0  0  0  0  0  0
    5.8409   -1.2753   21.7162 F   0  0  0  0  0  0  0  0  0  0  0  0
    6.0552   -0.1910   19.6404 C   0  0  0  0  0  0  0  0  0  0  0  0
    4.9524    0.6571   19.8082 C   0  0  0  0  0  0  0  0  0  0  0  0
    4.5786    1.4553   18.7269 C   0  0  0  0  0  0  0  0  0  0  0  0
    5.2950    1.3515   17.5305 C   0  0  0  0  0  0  0  0  0  0  0  0
    6.2876    0.4683   17.3367 N   0  0  0  0  0  0  0  0  0  0  0  0
    6.6440   -0.2931   18.3723 C   0  0  0  0  0  0  0  0  0  0  0  0
    7.4468   -1.0100   18.2036 H   0  0  0  0  0  0  0  0  0  0  0  0
    5.0533    1.9875   16.6801 H   0  0  0  0  0  0  0  0  0  0  0  0
    3.7747    2.1793   18.8055 H   0  0  0  0  0  0  0  0  0  0  0  0
    4.4118    0.6977   20.7544 H   0  0  0  0  0  0  0  0  0  0  0  0
  1  2  2  0
  2  3  1  0
  3  4  1  0
  4  5  2  0
  5  6  1  0
  6  7  2  0
  7  8  1  0
  8  9  2  0
  9 10  1  0
 10 11  1  0
 11 12  2  0
 12 13  1  0
 11 14  1  0
  9 15  1  0
  5 16  1  0
  3 17  1  0
  2 18  1  0
 18 19  1  0
 18 20  1  0
 18 21  1  0
 21 22  2  0
 22 23  1  0
 23 24  2  0
 24 25  1  0
 25 26  2  0
 26 27  1  0
 24 28  1  0
 23 29  1  0
 22 30  1  0
 12  4  1  0
 26 21  1  0
 10  6  1  0
M  END
>  <plip>  (1) 
-0.03225806451612903

>  <filename>  (1) 
[H][c]1[n][c]([H])[c]([C]([F])([F])[C](=[O])[N]([H])[c]2[c]([H])[c]([H])[n]3[c]([H])[n][n][c]3[c]2[H])[c]([H])[c]1[H]

$$$$
