
     RDKit          3D

 34 35  0  0  0  0  0  0  0  0999 V2000
    8.1060    2.4015   21.7580 C   0  0  0  0  0  0  0  0  0  0  0  0
    8.7993    1.1740   22.3603 C   0  0  1  0  0  0  0  0  0  0  0  0
    8.7531    0.1183   21.3308 N   0  0  0  0  0  0  0  0  0  0  0  0
    7.3867   -0.8088   21.2331 S   0  0  0  0  0  0  0  0  0  0  0  0
    6.5928   -0.6991   22.4359 O   0  0  0  0  0  0  0  0  0  0  0  0
    7.9824   -2.0554   20.7907 O   0  0  0  0  0  0  0  0  0  0  0  0
    6.5343   -0.0336   19.9665 C   0  0  0  0  0  0  0  0  0  0  0  0
    5.3605    0.7043   20.1427 C   0  0  0  0  0  0  0  0  0  0  0  0
    4.9044    1.3997   19.0251 C   0  0  0  0  0  0  0  0  0  0  0  0
    5.6183    1.3085   17.8237 C   0  0  0  0  0  0  0  0  0  0  0  0
    6.7281    0.5642   17.6843 N   0  0  0  0  0  0  0  0  0  0  0  0
    7.1928   -0.0838   18.7494 C   0  0  0  0  0  0  0  0  0  0  0  0
    8.1093   -0.6569   18.6038 H   0  0  0  0  0  0  0  0  0  0  0  0
    5.2699    1.8357   16.9345 H   0  0  0  0  0  0  0  0  0  0  0  0
    4.0235    2.0284   19.0819 H   0  0  0  0  0  0  0  0  0  0  0  0
    4.8401    0.7523   21.1055 H   0  0  0  0  0  0  0  0  0  0  0  0
    9.3764   -0.6711   21.4715 H   0  0  0  0  0  0  0  0  0  0  0  0
   10.2505    1.4111   22.7822 C   0  0  0  0  0  0  0  0  0  0  0  0
   11.0747    2.2612   22.0212 C   0  0  0  0  0  0  0  0  0  0  0  0
   12.3912    2.5329   22.3877 C   0  0  0  0  0  0  0  0  0  0  0  0
   12.9280    1.9748   23.5483 C   0  0  0  0  0  0  0  0  0  0  0  0
   12.1429    1.1481   24.3458 C   0  0  0  0  0  0  0  0  0  0  0  0
   10.8301    0.8621   23.9562 C   0  0  0  0  0  0  0  0  0  0  0  0
   10.0627   -0.0500   24.8453 N   0  0  0  0  0  4  0  0  0  0  0  0
    9.3307   -0.8758   24.3132 O   0  0  0  0  0  0  0  0  0  0  0  0
   10.2097    0.0534   26.0473 O   0  0  0  0  0  1  0  0  0  0  0  0
   12.5354    0.7226   25.2642 H   0  0  0  0  0  0  0  0  0  0  0  0
   13.9510    2.1769   23.8396 H   0  0  0  0  0  0  0  0  0  0  0  0
   12.9870    3.1883   21.7641 H   0  0  0  0  0  0  0  0  0  0  0  0
   10.6704    2.7257   21.1253 H   0  0  0  0  0  0  0  0  0  0  0  0
    8.2486    0.8456   23.2530 H   0  0  0  0  0  0  0  0  0  0  0  0
    8.4150    3.3291   22.2555 H   0  0  0  0  0  0  0  0  0  0  0  0
    7.0198    2.2954   21.8478 H   0  0  0  0  0  0  0  0  0  0  0  0
    8.3587    2.4783   20.6969 H   0  0  0  0  0  0  0  0  0  0  0  0
  1  2  1  0
  2  3  1  0
  3  4  1  0
  4  5  2  0
  4  6  2  0
  4  7  1  0
  7  8  2  0
  8  9  1  0
  9 10  2  0
 10 11  1  0
 11 12  2  0
 12 13  1  0
 10 14  1  0
  9 15  1  0
  8 16  1  0
  3 17  1  0
  2 18  1  0
 18 19  2  0
 19 20  1  0
 20 21  2  0
 21 22  1  0
 22 23  2  0
 23 24  1  0
 24 25  2  0
 24 26  1  0
 22 27  1  0
 21 28  1  0
 20 29  1  0
 19 30  1  0
  2 31  1  1
  1 32  1  0
  1 33  1  0
  1 34  1  0
 12  7  1  0
 23 18  1  0
M  CHG  2  24   1  26  -1
M  END
>  <plip>  (1) 
-0.06666666666666667

>  <filename>  (1) 
[H][c]1[n][c]([H])[c]([S](=[O])(=[O])[N]([H])[C@@]([H])([c]2[c]([H])[c]([H])[c]([H])[c]([H])[c]2[N+](=[O])[O-])[C]([H])([H])[H])[c]([H])[c]1[H]

$$$$
