
     RDKit          3D

 33 34  0  0  0  0  0  0  0  0999 V2000
    4.9270    1.7748   17.0001 H   0  0  0  0  0  0  0  0  0  0  0  0
    5.4071    1.2881   17.8458 C   0  0  0  0  0  0  0  0  0  0  0  0
    6.5722    0.6711   17.5976 N   0  0  0  0  0  0  0  0  0  0  0  0
    7.1745    0.0530   18.6153 C   0  0  0  0  0  0  0  0  0  0  0  0
    8.1165   -0.4395   18.3842 H   0  0  0  0  0  0  0  0  0  0  0  0
    6.6529    0.0256   19.9116 C   0  0  0  0  0  0  0  0  0  0  0  0
    7.4050   -0.7181   20.9369 C   0  0  0  0  0  0  0  0  0  0  0  0
    8.1096   -1.7568   20.6848 N   0  0  0  0  0  0  0  0  0  0  0  0
    8.6845   -2.2165   21.9488 C   0  0  0  0  0  0  0  0  0  0  0  0
    8.3692   -3.2439   22.1585 H   0  0  0  0  0  0  0  0  0  0  0  0
    9.7748   -2.2278   21.8555 H   0  0  0  0  0  0  0  0  0  0  0  0
    8.2142   -1.2478   23.0627 C   0  0  0  0  0  0  0  0  0  0  0  0
    9.0544   -0.7350   23.5627 H   0  0  0  0  0  0  0  0  0  0  0  0
    7.6051   -1.7302   23.8416 H   0  0  0  0  0  0  0  0  0  0  0  0
    7.4129   -0.3439   22.2679 N   0  0  0  0  0  0  0  0  0  0  0  0
    6.8119    0.7499   22.8360 O   0  0  0  0  0  0  0  0  0  0  0  0
    7.6737    1.9026   22.7503 C   0  0  0  0  0  0  0  0  0  0  0  0
    7.9933    2.0264   21.7075 H   0  0  0  0  0  0  0  0  0  0  0  0
    8.5569    1.7251   23.3794 H   0  0  0  0  0  0  0  0  0  0  0  0
    6.9268    3.1342   23.2229 C   0  0  0  0  0  0  0  0  0  0  0  0
    6.5807    2.9910   24.2558 H   0  0  0  0  0  0  0  0  0  0  0  0
    6.0262    3.2856   22.6106 H   0  0  0  0  0  0  0  0  0  0  0  0
    7.8162    4.3799   23.1413 C   0  0  0  0  0  0  0  0  0  0  0  0
    8.7192    4.2261   23.7479 H   0  0  0  0  0  0  0  0  0  0  0  0
    8.1658    4.5144   22.1079 H   0  0  0  0  0  0  0  0  0  0  0  0
    7.0995    5.6430   23.6033 C   0  0  0  0  0  0  0  0  0  0  0  0
    6.2106    5.8296   22.9892 H   0  0  0  0  0  0  0  0  0  0  0  0
    7.7486    6.5221   23.5377 H   0  0  0  0  0  0  0  0  0  0  0  0
    6.7658    5.5414   24.6424 H   0  0  0  0  0  0  0  0  0  0  0  0
    5.4318    0.6678   20.1687 C   0  0  0  0  0  0  0  0  0  0  0  0
    4.9916    0.6516   21.1699 H   0  0  0  0  0  0  0  0  0  0  0  0
    4.8036    1.3095   19.1075 C   0  0  0  0  0  0  0  0  0  0  0  0
    3.8715    1.8422   19.2548 H   0  0  0  0  0  0  0  0  0  0  0  0
  1  2  1  0
  2  3  2  0
  3  4  1  0
  4  5  1  0
  4  6  2  0
  6  7  1  0
  7  8  2  0
  8  9  1  0
  9 10  1  0
  9 11  1  0
  9 12  1  0
 12 13  1  0
 12 14  1  0
 12 15  1  0
 15 16  1  0
 16 17  1  0
 17 18  1  0
 17 19  1  0
 17 20  1  0
 20 21  1  0
 20 22  1  0
 20 23  1  0
 23 24  1  0
 23 25  1  0
 23 26  1  0
 26 27  1  0
 26 28  1  0
 26 29  1  0
  6 30  1  0
 30 31  1  0
 30 32  2  0
 32 33  1  0
 32  2  1  0
 15  7  1  0
M  END
>  <plip>  (1) 
-0.034482758620689655

>  <filename>  (1) 
[H][c]1[n][c]([H])[c]([C]2=[N][C]([H])([H])[C]([H])([H])[N]2[O][C]([H])([H])[C]([H])([H])[C]([H])([H])[C]([H])([H])[H])[c]([H])[c]1[H]

$$$$
