
     RDKit          3D

 45 47  0  0  0  0  0  0  0  0999 V2000
    7.4924    1.1750   22.5382 C   0  0  0  0  0  0  0  0  0  0  0  0
    7.7370   -0.2540   22.1182 C   0  0  0  0  0  0  0  0  0  0  0  0
    7.4111   -0.7279   20.9070 C   0  0  0  0  0  0  0  0  0  0  0  0
    6.6425   -0.0156   19.8629 C   0  0  0  0  0  0  0  0  0  0  0  0
    5.4253    0.6434   20.1065 C   0  0  0  0  0  0  0  0  0  0  0  0
    4.7916    1.3114   19.0578 C   0  0  0  0  0  0  0  0  0  0  0  0
    5.3970    1.3076   17.7995 C   0  0  0  0  0  0  0  0  0  0  0  0
    6.5491    0.6670   17.5332 N   0  0  0  0  0  0  0  0  0  0  0  0
    7.1390    0.0248   18.5438 C   0  0  0  0  0  0  0  0  0  0  0  0
    8.0837   -0.4672   18.3079 H   0  0  0  0  0  0  0  0  0  0  0  0
    4.9423    1.8413   16.9690 H   0  0  0  0  0  0  0  0  0  0  0  0
    3.8647    1.8528   19.2128 H   0  0  0  0  0  0  0  0  0  0  0  0
    4.9947    0.6343   21.1092 H   0  0  0  0  0  0  0  0  0  0  0  0
    7.7836   -1.7114   20.6097 H   0  0  0  0  0  0  0  0  0  0  0  0
    8.3940   -1.1186   23.1599 C   0  0  0  0  0  0  0  0  0  0  0  0
    8.7033   -0.7211   24.2590 O   0  0  0  0  0  0  0  0  0  0  0  0
    8.5952   -2.4076   22.7523 O   0  0  0  0  0  0  0  0  0  0  0  0
    9.0395   -3.3913   23.7176 C   0  0  0  0  0  0  0  0  0  0  0  0
    7.9796   -3.8807   24.7182 C   0  0  0  0  0  0  0  0  0  0  0  0
    8.1087   -3.6397   25.9055 O   0  0  0  0  0  0  0  0  0  0  0  0
    6.8902   -4.5677   24.2197 N   0  0  0  0  0  0  0  0  0  0  0  0
    5.6889   -4.6315   24.9520 C   0  0  0  0  0  0  0  0  0  0  0  0
    5.2397   -3.7526   25.9446 C   0  0  0  0  0  0  0  0  0  0  0  0
    4.0019   -4.0098   26.5384 C   0  0  0  0  0  0  0  0  0  0  0  0
    3.2465   -5.1306   26.1589 C   0  0  0  0  0  0  0  0  0  0  0  0
    3.7032   -5.9846   25.1454 C   0  0  0  0  0  0  0  0  0  0  0  0
    4.9126   -5.7027   24.5148 C   0  0  0  0  0  0  0  0  0  0  0  0
    5.5707   -6.3522   23.3323 C   0  0  0  0  0  0  0  0  0  0  0  0
    6.8783   -5.5502   23.1079 C   0  0  0  0  0  0  0  0  0  0  0  0
    6.8520   -4.8712   21.7435 C   0  0  0  0  0  0  0  0  0  0  0  0
    5.9896   -4.1934   21.7125 H   0  0  0  0  0  0  0  0  0  0  0  0
    7.7540   -4.2914   21.5442 H   0  0  0  0  0  0  0  0  0  0  0  0
    6.7375   -5.6283   20.9570 H   0  0  0  0  0  0  0  0  0  0  0  0
    7.7519   -6.2151   23.1922 H   0  0  0  0  0  0  0  0  0  0  0  0
    4.9225   -6.2801   22.4515 H   0  0  0  0  0  0  0  0  0  0  0  0
    5.7554   -7.4164   23.4655 H   0  0  0  0  0  0  0  0  0  0  0  0
    3.1194   -6.8574   24.8578 H   0  0  0  0  0  0  0  0  0  0  0  0
    2.3074   -5.3353   26.6631 H   0  0  0  0  0  0  0  0  0  0  0  0
    3.6346   -3.3366   27.3127 H   0  0  0  0  0  0  0  0  0  0  0  0
    5.8477   -2.9099   26.2503 H   0  0  0  0  0  0  0  0  0  0  0  0
    9.8498   -2.9997   24.3323 H   0  0  0  0  0  0  0  0  0  0  0  0
    9.3836   -4.2336   23.1176 H   0  0  0  0  0  0  0  0  0  0  0  0
    8.2519    1.5072   23.2499 H   0  0  0  0  0  0  0  0  0  0  0  0
    6.5194    1.2776   23.0368 H   0  0  0  0  0  0  0  0  0  0  0  0
    7.5109    1.8356   21.6663 H   0  0  0  0  0  0  0  0  0  0  0  0
  1  2  1  0
  2  3  2  3
  3  4  1  0
  4  5  2  0
  5  6  1  0
  6  7  2  0
  7  8  1  0
  8  9  2  0
  9 10  1  0
  7 11  1  0
  6 12  1  0
  5 13  1  0
  3 14  1  0
  2 15  1  0
 15 16  2  0
 15 17  1  0
 17 18  1  0
 18 19  1  0
 19 20  2  0
 19 21  1  0
 21 22  1  0
 22 23  2  0
 23 24  1  0
 24 25  2  0
 25 26  1  0
 26 27  2  0
 27 28  1  0
 28 29  1  0
 29 30  1  0
 30 31  1  0
 30 32  1  0
 30 33  1  0
 29 34  1  0
 28 35  1  0
 28 36  1  0
 26 37  1  0
 25 38  1  0
 24 39  1  0
 23 40  1  0
 18 41  1  0
 18 42  1  0
  1 43  1  0
  1 44  1  0
  1 45  1  0
  9  4  1  0
 29 21  1  0
 27 22  1  0
M  END
>  <plip>  (1) 
-0.03571428571428571

>  <filename>  (1) 
[H][C](=[C]([C](=[O])[O][C]([H])([H])[C](=[O])[N]1[c]2[c]([H])[c]([H])[c]([H])[c]([H])[c]2[C]([H])([H])[C]1([H])[C]([H])([H])[H])[C]([H])([H])[H])[c]1[c]([H])[n][c]([H])[c]([H])[c]1[H]

$$$$
