
     RDKit          3D

 37 38  0  0  0  0  0  0  0  0999 V2000
    6.0473   -2.3250   22.5758 O   0  0  0  0  0  0  0  0  0  0  0  0
    6.5016   -2.0099   21.4881 C   0  0  0  0  0  0  0  0  0  0  0  0
    7.0798   -0.6298   21.1475 C   0  0  0  0  0  0  0  0  0  0  0  0
    6.5209    0.1092   19.9352 C   0  0  0  0  0  0  0  0  0  0  0  0
    5.2696    0.7332   20.0242 C   0  0  0  0  0  0  0  0  0  0  0  0
    4.7535    1.3831   18.9004 C   0  0  0  0  0  0  0  0  0  0  0  0
    5.5096    1.3952   17.7246 C   0  0  0  0  0  0  0  0  0  0  0  0
    6.7163    0.8210   17.6163 N   0  0  0  0  0  0  0  0  0  0  0  0
    7.2035    0.2128   18.7056 C   0  0  0  0  0  0  0  0  0  0  0  0
    8.2026   -0.2102   18.5929 H   0  0  0  0  0  0  0  0  0  0  0  0
    5.1323    1.8792   16.8256 H   0  0  0  0  0  0  0  0  0  0  0  0
    3.7969    1.8937   18.9278 H   0  0  0  0  0  0  0  0  0  0  0  0
    4.7294    0.7088   20.9726 H   0  0  0  0  0  0  0  0  0  0  0  0
    6.9470   -0.0374   22.0541 H   0  0  0  0  0  0  0  0  0  0  0  0
    8.1622   -0.7653   21.0289 H   0  0  0  0  0  0  0  0  0  0  0  0
    6.6220   -2.9330   20.4892 N   0  0  0  0  0  0  0  0  0  0  0  0
    6.3525   -4.3630   20.7098 C   0  0  0  0  0  0  0  0  0  0  0  0
    7.1055   -5.0996   21.8680 C   0  0  0  0  0  0  0  0  0  0  0  0
    8.2178   -5.5740   21.7506 O   0  0  0  0  0  0  0  0  0  0  0  0
    6.3459   -5.1901   22.9987 N   0  0  0  0  0  0  0  0  0  0  0  0
    6.7271   -5.5881   24.2777 C   0  0  0  0  0  0  0  0  0  0  0  0
    8.0099   -5.2766   24.7405 C   0  0  0  0  0  0  0  0  0  0  0  0
    8.3433   -5.4568   26.0818 C   0  0  0  0  0  0  0  0  0  0  0  0
    7.4193   -6.0342   26.9593 C   0  0  0  0  0  0  0  0  0  0  0  0
    6.1615   -6.4196   26.4998 C   0  0  0  0  0  0  0  0  0  0  0  0
    5.8009   -6.1957   25.1569 C   0  0  0  0  0  0  0  0  0  0  0  0
    4.4664   -6.6473   24.7081 N   0  0  0  0  0  4  0  0  0  0  0  0
    4.0652   -6.3250   23.5950 O   0  0  0  0  0  0  0  0  0  0  0  0
    3.8077   -7.3420   25.4650 O   0  0  0  0  0  1  0  0  0  0  0  0
    5.4391   -6.8704   27.1714 H   0  0  0  0  0  0  0  0  0  0  0  0
    7.6716   -6.1791   28.0047 H   0  0  0  0  0  0  0  0  0  0  0  0
    9.3187   -5.1370   26.4428 H   0  0  0  0  0  0  0  0  0  0  0  0
    8.7038   -4.8550   24.0234 H   0  0  0  0  0  0  0  0  0  0  0  0
    5.4439   -4.7529   22.9722 H   0  0  0  0  0  0  0  0  0  0  0  0
    5.2843   -4.4891   20.9133 H   0  0  0  0  0  0  0  0  0  0  0  0
    6.5791   -4.8925   19.7834 H   0  0  0  0  0  0  0  0  0  0  0  0
    7.1915   -2.6576   19.7041 H   0  0  0  0  0  0  0  0  0  0  0  0
  1  2  2  0
  2  3  1  0
  3  4  1  0
  4  5  2  0
  5  6  1  0
  6  7  2  0
  7  8  1  0
  8  9  2  0
  9 10  1  0
  7 11  1  0
  6 12  1  0
  5 13  1  0
  3 14  1  0
  3 15  1  0
  2 16  1  0
 16 17  1  0
 17 18  1  0
 18 19  2  0
 18 20  1  0
 20 21  1  0
 21 22  2  0
 22 23  1  0
 23 24  2  0
 24 25  1  0
 25 26  2  0
 26 27  1  0
 27 28  2  0
 27 29  1  0
 25 30  1  0
 24 31  1  0
 23 32  1  0
 22 33  1  0
 20 34  1  0
 17 35  1  0
 17 36  1  0
 16 37  1  0
  9  4  1  0
 26 21  1  0
M  CHG  2  27   1  29  -1
M  END
>  <plip>  (1) 
-0.10344827586206896

>  <filename>  (1) 
[H][c]1[n][c]([H])[c]([C]([H])([H])[C](=[O])[N]([H])[C]([H])([H])[C](=[O])[N]([H])[c]2[c]([H])[c]([H])[c]([H])[c]([H])[c]2[N+](=[O])[O-])[c]([H])[c]1[H]

$$$$
