
     RDKit          3D

 35 37  0  0  0  0  0  0  0  0999 V2000
    4.9500    1.8221   16.9297 H   0  0  0  0  0  0  0  0  0  0  0  0
    5.4052    1.3232   17.7840 C   0  0  0  0  0  0  0  0  0  0  0  0
    6.5710    0.6988   17.5551 N   0  0  0  0  0  0  0  0  0  0  0  0
    7.1623    0.0991   18.5937 C   0  0  0  0  0  0  0  0  0  0  0  0
    8.1069   -0.3970   18.3764 H   0  0  0  0  0  0  0  0  0  0  0  0
    6.6494    0.0796   19.9024 C   0  0  0  0  0  0  0  0  0  0  0  0
    7.4254   -0.5806   20.9554 C   0  0  0  0  0  0  0  0  0  0  0  0
    8.3865   -1.5279   20.8913 C   0  0  0  0  0  0  0  0  0  0  0  0
    8.8849   -1.9920   20.0573 H   0  0  0  0  0  0  0  0  0  0  0  0
    8.7541   -1.8602   22.1850 N   0  0  0  0  0  0  0  0  0  0  0  0
    9.6784   -2.8819   22.4183 N   0  0  0  0  0  0  0  0  0  0  0  0
   10.6369   -2.5694   22.3347 H   0  0  0  0  0  0  0  0  0  0  0  0
    9.5004   -3.8184   23.4643 C   0  0  0  0  0  0  0  0  0  0  0  0
   10.6346   -4.2472   24.1713 C   0  0  0  0  0  0  0  0  0  0  0  0
   11.5922   -3.7741   23.9763 H   0  0  0  0  0  0  0  0  0  0  0  0
   10.5750   -5.3263   25.0569 C   0  0  0  0  0  0  0  0  0  0  0  0
   11.4790   -5.6646   25.5486 H   0  0  0  0  0  0  0  0  0  0  0  0
    9.3581   -5.9844   25.2642 C   0  0  0  0  0  0  0  0  0  0  0  0
    9.1850   -7.0816   26.0668 O   0  0  0  0  0  0  0  0  0  0  0  0
   10.1192   -8.1463   25.9702 C   0  0  0  0  0  0  0  0  0  0  0  0
   11.0814   -7.8661   26.3994 H   0  0  0  0  0  0  0  0  0  0  0  0
    9.7114   -8.9775   26.5498 H   0  0  0  0  0  0  0  0  0  0  0  0
   10.2868   -8.4780   24.9395 H   0  0  0  0  0  0  0  0  0  0  0  0
    8.2063   -5.5043   24.6330 C   0  0  0  0  0  0  0  0  0  0  0  0
    7.2765   -6.0184   24.8553 H   0  0  0  0  0  0  0  0  0  0  0  0
    8.2704   -4.4302   23.7472 C   0  0  0  0  0  0  0  0  0  0  0  0
    7.3746   -4.0958   23.2385 H   0  0  0  0  0  0  0  0  0  0  0  0
    8.0629   -1.0678   23.0919 C   0  0  0  0  0  0  0  0  0  0  0  0
    8.1248   -0.9567   24.7492 S   0  0  0  0  0  0  0  0  0  0  0  0
    7.2491   -0.3151   22.3039 N   0  0  0  0  0  0  0  0  0  0  0  0
    6.6701    0.3770   22.7476 H   0  0  0  0  0  0  0  0  0  0  0  0
    5.4030    0.7000   20.1095 C   0  0  0  0  0  0  0  0  0  0  0  0
    4.9206    0.6696   21.0871 H   0  0  0  0  0  0  0  0  0  0  0  0
    4.7805    1.3353   19.0364 C   0  0  0  0  0  0  0  0  0  0  0  0
    3.8350    1.8509   19.1590 H   0  0  0  0  0  0  0  0  0  0  0  0
  1  2  1  0
  2  3  2  0
  3  4  1  0
  4  5  1  0
  4  6  2  0
  6  7  1  0
  7  8  2  0
  8  9  1  0
  8 10  1  0
 10 11  1  0
 11 12  1  0
 11 13  1  0
 13 14  2  0
 14 15  1  0
 14 16  1  0
 16 17  1  0
 16 18  2  0
 18 19  1  0
 19 20  1  0
 20 21  1  0
 20 22  1  0
 20 23  1  0
 18 24  1  0
 24 25  1  0
 24 26  2  0
 26 27  1  0
 10 28  1  0
 28 29  2  0
 28 30  1  0
 30 31  1  0
  6 32  1  0
 32 33  1  0
 32 34  2  0
 34 35  1  0
 34  2  1  0
 30  7  1  0
 26 13  1  0
M  END
>  <plip>  (1) 
-0.16666666666666666

>  <filename>  (1) 
[H][c]1[n][c]([H])[c](-[c]2[c]([H])[n]([N]([H])[c]3[c]([H])[c]([H])[c]([O][C]([H])([H])[H])[c]([H])[c]3[H])[c](=[S])[n]2[H])[c]([H])[c]1[H]

$$$$
