
     RDKit          3D

 37 40  0  0  0  0  0  0  0  0999 V2000
    6.9930   -3.0461   23.2045 H   0  0  0  0  0  0  0  0  0  0  0  0
    7.5366   -2.3419   22.5958 C   0  0  0  0  0  0  0  0  0  0  0  0
    8.8640   -2.1036   22.7642 C   0  0  0  0  0  0  0  0  0  0  0  0
    9.5975   -2.7662   23.8281 C   0  0  0  0  0  0  0  0  0  0  0  0
   10.8353   -3.3449   23.7803 C   0  0  0  0  0  0  0  0  0  0  0  0
   11.5557   -3.3036   22.9719 H   0  0  0  0  0  0  0  0  0  0  0  0
   11.0613   -4.0877   24.9156 N   0  0  0  0  0  0  0  0  0  0  0  0
   11.9516   -4.4492   25.2148 H   0  0  0  0  0  0  0  0  0  0  0  0
    9.9718   -3.9858   25.7506 C   0  0  0  0  0  0  0  0  0  0  0  0
    9.6754   -4.6206   26.9682 C   0  0  0  0  0  0  0  0  0  0  0  0
   10.3594   -5.3280   27.4296 H   0  0  0  0  0  0  0  0  0  0  0  0
    8.4629   -4.3193   27.5725 C   0  0  0  0  0  0  0  0  0  0  0  0
    8.1799   -4.8062   28.5004 H   0  0  0  0  0  0  0  0  0  0  0  0
    7.5717   -3.3805   27.0053 C   0  0  0  0  0  0  0  0  0  0  0  0
    6.6225   -3.1879   27.4865 H   0  0  0  0  0  0  0  0  0  0  0  0
    7.8839   -2.7402   25.8156 C   0  0  0  0  0  0  0  0  0  0  0  0
    7.2468   -1.9501   25.4294 H   0  0  0  0  0  0  0  0  0  0  0  0
    9.0601   -3.1076   25.1306 C   0  0  0  0  0  0  0  0  0  0  0  0
    9.5663   -1.2132   21.7646 C   0  0  0  0  0  0  0  0  0  0  0  0
   10.4768   -0.7793   22.1858 H   0  0  0  0  0  0  0  0  0  0  0  0
    9.8573   -1.8014   20.8825 H   0  0  0  0  0  0  0  0  0  0  0  0
    8.6151   -0.1011   21.3215 C   0  0  0  0  0  0  0  0  0  0  0  0
    8.4138    0.5937   22.1572 H   0  0  0  0  0  0  0  0  0  0  0  0
    9.0570    0.4812   20.5021 H   0  0  0  0  0  0  0  0  0  0  0  0
    7.3587   -0.6919   20.8448 N   0  0  0  0  0  0  0  0  0  0  0  0
    6.6519   -0.0102   19.8105 C   0  0  0  0  0  0  0  0  0  0  0  0
    7.1768    0.0773   18.5060 C   0  0  0  0  0  0  0  0  0  0  0  0
    8.1203   -0.4258   18.2966 H   0  0  0  0  0  0  0  0  0  0  0  0
    6.5773    0.7215   17.4971 N   0  0  0  0  0  0  0  0  0  0  0  0
    5.4153    1.3384   17.7753 C   0  0  0  0  0  0  0  0  0  0  0  0
    4.9481    1.8659   16.9492 H   0  0  0  0  0  0  0  0  0  0  0  0
    4.8108    1.3192   19.0389 C   0  0  0  0  0  0  0  0  0  0  0  0
    3.8764    1.8479   19.2011 H   0  0  0  0  0  0  0  0  0  0  0  0
    5.4338    0.6232   20.0789 C   0  0  0  0  0  0  0  0  0  0  0  0
    5.0019    0.5556   21.0768 H   0  0  0  0  0  0  0  0  0  0  0  0
    6.7157   -1.7161   21.5667 C   0  0  0  0  0  0  0  0  0  0  0  0
    5.5795   -2.0909   21.3307 O   0  0  0  0  0  0  0  0  0  0  0  0
  1  2  1  0
  2  3  2  0
  3  4  1  0
  4  5  2  0
  5  6  1  0
  5  7  1  0
  7  8  1  0
  7  9  1  0
  9 10  2  0
 10 11  1  0
 10 12  1  0
 12 13  1  0
 12 14  2  0
 14 15  1  0
 14 16  1  0
 16 17  1  0
 16 18  2  0
  3 19  1  0
 19 20  1  0
 19 21  1  0
 19 22  1  0
 22 23  1  0
 22 24  1  0
 22 25  1  0
 25 26  1  0
 26 27  2  0
 27 28  1  0
 27 29  1  0
 29 30  2  0
 30 31  1  0
 30 32  1  0
 32 33  1  0
 32 34  2  0
 34 35  1  0
 25 36  1  0
 36 37  2  0
 36  2  1  0
 18  4  1  0
 34 26  1  0
 18  9  1  0
M  END
>  <plip>  (1) 
-0.10714285714285714

>  <filename>  (1) 
[H][C]1=[C]([c]2[c]([H])[n]([H])[c]3[c]([H])[c]([H])[c]([H])[c]([H])[c]23)[C]([H])([H])[C]([H])([H])[N]([c]2[c]([H])[n][c]([H])[c]([H])[c]2[H])[C]1=[O]

$$$$
