
     RDKit          3D

 40 41  0  0  0  0  0  0  0  0999 V2000
    5.9598   -2.9093   20.5539 C   0  0  0  0  0  0  0  0  0  0  0  0
    7.2889   -2.2354   20.7090 N   0  0  0  0  0  4  0  0  0  0  0  0
    8.1427   -2.9952   21.6778 C   0  0  0  0  0  0  0  0  0  0  0  0
    7.7768   -2.8676   22.7049 H   0  0  0  0  0  0  0  0  0  0  0  0
    9.1792   -2.6435   21.6461 H   0  0  0  0  0  0  0  0  0  0  0  0
    8.1332   -4.0659   21.4420 H   0  0  0  0  0  0  0  0  0  0  0  0
    7.1175   -0.7316   21.0479 C   0  0  0  0  0  0  0  0  0  0  0  0
    8.4451   -0.0037   21.3008 C   0  0  0  0  0  0  0  0  0  0  0  0
    8.9255   -0.0071   22.6823 N   0  0  0  0  0  0  0  0  0  0  0  0
   10.1950    0.4367   22.9052 C   0  0  0  0  0  0  0  0  0  0  0  0
   10.8233    1.0211   21.8908 N   0  0  0  0  0  0  0  0  0  0  0  0
   12.1184    1.2970   21.9909 C   0  0  0  0  0  0  0  0  0  0  0  0
   12.8803    0.9064   23.0901 C   0  0  0  0  0  0  0  0  0  0  0  0
   14.5909    1.0836   22.9961 Cl  0  0  0  0  0  0  0  0  0  0  0  0
   12.2310    0.3412   24.1899 C   0  0  0  0  0  0  0  0  0  0  0  0
   10.8376    0.1918   24.1243 C   0  0  0  0  0  0  0  0  0  0  0  0
    9.9982   -0.3573   25.2147 C   0  0  0  0  0  0  0  0  0  0  0  0
    8.8163    0.3038   25.3693 F   0  0  0  0  0  0  0  0  0  0  0  0
   10.6274   -0.2561   26.3943 F   0  0  0  0  0  0  0  0  0  0  0  0
    9.6818   -1.6564   25.0360 F   0  0  0  0  0  0  0  0  0  0  0  0
   12.8179    0.0077   25.0440 H   0  0  0  0  0  0  0  0  0  0  0  0
   12.5769    1.8050   21.1478 H   0  0  0  0  0  0  0  0  0  0  0  0
    8.2850    0.2247   23.4230 H   0  0  0  0  0  0  0  0  0  0  0  0
    8.3815    1.0223   20.9120 H   0  0  0  0  0  0  0  0  0  0  0  0
    9.1978   -0.4934   20.6678 H   0  0  0  0  0  0  0  0  0  0  0  0
    6.4141   -0.0754   19.8815 C   0  0  0  0  0  0  0  0  0  0  0  0
    5.2755    0.7188   20.0573 C   0  0  0  0  0  0  0  0  0  0  0  0
    4.7601    1.3992   18.9517 C   0  0  0  0  0  0  0  0  0  0  0  0
    5.4134    1.2766   17.7207 C   0  0  0  0  0  0  0  0  0  0  0  0
    6.5095    0.5228   17.5376 N   0  0  0  0  0  0  0  0  0  0  0  0
    6.9847   -0.1329   18.6002 C   0  0  0  0  0  0  0  0  0  0  0  0
    7.9107   -0.6893   18.4281 H   0  0  0  0  0  0  0  0  0  0  0  0
    5.0427    1.7974   16.8415 H   0  0  0  0  0  0  0  0  0  0  0  0
    3.8855    2.0363   19.0324 H   0  0  0  0  0  0  0  0  0  0  0  0
    4.8189    0.8129   21.0466 H   0  0  0  0  0  0  0  0  0  0  0  0
    6.5137   -0.6812   21.9637 H   0  0  0  0  0  0  0  0  0  0  0  0
    7.7501   -2.2306   19.7775 H   0  0  0  0  0  0  0  0  0  0  0  0
    5.3790   -2.8125   21.4809 H   0  0  0  0  0  0  0  0  0  0  0  0
    6.0875   -3.9737   20.3308 H   0  0  0  0  0  0  0  0  0  0  0  0
    5.3985   -2.4372   19.7440 H   0  0  0  0  0  0  0  0  0  0  0  0
  1  2  1  0
  2  3  1  0
  3  4  1  0
  3  5  1  0
  3  6  1  0
  2  7  1  0
  7  8  1  0
  8  9  1  0
  9 10  1  0
 10 11  2  0
 11 12  1  0
 12 13  2  0
 13 14  1  0
 13 15  1  0
 15 16  2  0
 16 17  1  0
 17 18  1  0
 17 19  1  0
 17 20  1  0
 15 21  1  0
 12 22  1  0
  9 23  1  0
  8 24  1  0
  8 25  1  0
  7 26  1  0
 26 27  2  0
 27 28  1  0
 28 29  2  0
 29 30  1  0
 30 31  2  0
 31 32  1  0
 29 33  1  0
 28 34  1  0
 27 35  1  0
  7 36  1  0
  2 37  1  0
  1 38  1  0
  1 39  1  0
  1 40  1  0
 16 10  1  0
 31 26  1  0
M  CHG  1   2   1
M  END
>  <plip>  (1) 
-0.13793103448275862

>  <filename>  (1) 
[H][c]1[n][c]([H])[c]([C]([H])([C]([H])([H])[N]([H])[c]2[n][c]([H])[c]([Cl])[c]([H])[c]2[C]([F])([F])[F])[N+]([H])([C]([H])([H])[H])[C]([H])([H])[H])[c]([H])[c]1[H]

$$$$
