
     RDKit          3D

 31 33  0  0  0  0  0  0  0  0999 V2000
    6.6322    1.0620   23.2742 H   0  0  0  0  0  0  0  0  0  0  0  0
    7.2369    1.8005   22.7474 C   0  0  0  0  0  0  0  0  0  0  0  0
    6.8146    3.0740   22.6138 C   0  0  0  0  0  0  0  0  0  0  0  0
    7.6648    4.4171   21.8250 S   0  0  0  0  0  0  0  0  0  0  0  0
    6.3256    5.5274   22.0600 C   0  0  0  0  0  0  0  0  0  0  0  0
    6.2576    7.0861   21.5924 S   0  0  0  0  0  0  0  0  0  0  0  0
    5.3396    4.8816   22.7370 N   0  0  0  0  0  0  0  0  0  0  0  0
    4.5040    5.3445   23.0471 H   0  0  0  0  0  0  0  0  0  0  0  0
    5.5160    3.5762   23.1333 C   0  0  0  0  0  0  0  0  0  0  0  0
    4.7006    3.0066   23.8231 O   0  0  0  0  0  0  0  0  0  0  0  0
    8.4391    1.2850   22.2132 N   0  0  0  0  0  0  0  0  0  0  0  0
    9.6897    1.8691   22.3378 C   0  0  0  0  0  0  0  0  0  0  0  0
    9.7879    2.7796   22.9156 H   0  0  0  0  0  0  0  0  0  0  0  0
   10.6036    1.1098   21.6633 C   0  0  0  0  0  0  0  0  0  0  0  0
   11.6673    1.3014   21.5812 H   0  0  0  0  0  0  0  0  0  0  0  0
    9.8948    0.0059   21.1075 C   0  0  0  0  0  0  0  0  0  0  0  0
   10.2897   -0.7938   20.4928 H   0  0  0  0  0  0  0  0  0  0  0  0
    8.5762    0.1243   21.4586 C   0  0  0  0  0  0  0  0  0  0  0  0
    7.4008   -0.6911   21.0114 C   0  0  0  0  0  0  0  0  0  0  0  0
    6.7369   -0.9307   21.8523 H   0  0  0  0  0  0  0  0  0  0  0  0
    7.7858   -1.6577   20.6666 H   0  0  0  0  0  0  0  0  0  0  0  0
    6.6201   -0.0124   19.8947 C   0  0  0  0  0  0  0  0  0  0  0  0
    7.1427    0.0559   18.5911 C   0  0  0  0  0  0  0  0  0  0  0  0
    8.0925   -0.4213   18.3540 H   0  0  0  0  0  0  0  0  0  0  0  0
    6.5483    0.6825   17.5693 N   0  0  0  0  0  0  0  0  0  0  0  0
    5.3868    1.3044   17.8203 C   0  0  0  0  0  0  0  0  0  0  0  0
    4.9238    1.8091   16.9731 H   0  0  0  0  0  0  0  0  0  0  0  0
    4.7803    1.3172   19.0798 C   0  0  0  0  0  0  0  0  0  0  0  0
    3.8514    1.8587   19.2205 H   0  0  0  0  0  0  0  0  0  0  0  0
    5.4099    0.6459   20.1327 C   0  0  0  0  0  0  0  0  0  0  0  0
    4.9857    0.6468   21.1391 H   0  0  0  0  0  0  0  0  0  0  0  0
  1  2  1  0
  2  3  2  3
  3  4  1  0
  4  5  1  0
  5  6  2  0
  5  7  1  0
  7  8  1  0
  7  9  1  0
  9 10  2  0
  2 11  1  0
 11 12  1  0
 12 13  1  0
 12 14  2  0
 14 15  1  0
 14 16  1  0
 16 17  1  0
 16 18  2  0
 18 19  1  0
 19 20  1  0
 19 21  1  0
 19 22  1  0
 22 23  2  0
 23 24  1  0
 23 25  1  0
 25 26  2  0
 26 27  1  0
 26 28  1  0
 28 29  1  0
 28 30  2  0
 30 31  1  0
  9  3  1  0
 18 11  1  0
 30 22  1  0
M  END
>  <plip>  (1) 
-0.07142857142857142

>  <filename>  (1) 
[H][C](=[C]1[S][C](=[S])[N]([H])[C]1=[O])[n]1[c]([H])[c]([H])[c]([H])[c]1[C]([H])([H])[c]1[c]([H])[n][c]([H])[c]([H])[c]1[H]

$$$$
