
     RDKit          3D

 28 29  0  0  0  0  0  0  0  0999 V2000
    4.9317    1.8694   16.9916 H   0  0  0  0  0  0  0  0  0  0  0  0
    5.4066    1.3050   17.7875 C   0  0  0  0  0  0  0  0  0  0  0  0
    6.5503    0.6570   17.5149 N   0  0  0  0  0  0  0  0  0  0  0  0
    7.1408   -0.0073   18.5254 C   0  0  0  0  0  0  0  0  0  0  0  0
    8.0812   -0.5100   18.3300 H   0  0  0  0  0  0  0  0  0  0  0  0
    6.6159   -0.0714   19.8324 C   0  0  0  0  0  0  0  0  0  0  0  0
    7.3781   -0.8021   20.9235 C   0  0  0  0  0  0  0  0  0  0  0  0
    8.3066   -1.2097   20.5101 H   0  0  0  0  0  0  0  0  0  0  0  0
    7.6464   -0.0850   21.7060 H   0  0  0  0  0  0  0  0  0  0  0  0
    6.5934   -1.9538   21.5608 C   0  0  1  0  0  0  0  0  0  0  0  0
    5.6898   -1.5720   22.0422 H   0  0  0  0  0  0  0  0  0  0  0  0
    6.0037   -3.2449   20.1722 Br  0  0  0  0  0  0  0  0  0  0  0  0
    7.4440   -2.5902   22.5398 O   0  0  0  0  0  0  0  0  0  0  0  0
    7.2226   -2.2169   23.8473 C   0  0  0  0  0  0  0  0  0  0  0  0
    6.4032   -1.1346   24.1887 C   0  0  0  0  0  0  0  0  0  0  0  0
    6.0370   -0.4988   23.3913 H   0  0  0  0  0  0  0  0  0  0  0  0
    6.0221   -0.9058   25.5168 C   0  0  0  0  0  0  0  0  0  0  0  0
    5.3094   -0.1235   25.7569 H   0  0  0  0  0  0  0  0  0  0  0  0
    6.5258   -1.7091   26.5429 C   0  0  0  0  0  0  0  0  0  0  0  0
    6.1417   -1.5090   27.8245 F   0  0  0  0  0  0  0  0  0  0  0  0
    7.4318   -2.7267   26.2267 C   0  0  0  0  0  0  0  0  0  0  0  0
    7.8388   -3.3463   27.0200 H   0  0  0  0  0  0  0  0  0  0  0  0
    7.7673   -2.9814   24.8858 C   0  0  0  0  0  0  0  0  0  0  0  0
    8.4404   -3.7898   24.6273 H   0  0  0  0  0  0  0  0  0  0  0  0
    5.4128    0.5864   20.1013 C   0  0  0  0  0  0  0  0  0  0  0  0
    4.9684    0.5706   21.0969 H   0  0  0  0  0  0  0  0  0  0  0  0
    4.8089    1.2897   19.0557 C   0  0  0  0  0  0  0  0  0  0  0  0
    3.8908    1.8452   19.2119 H   0  0  0  0  0  0  0  0  0  0  0  0
  1  2  1  0
  2  3  2  0
  3  4  1  0
  4  5  1  0
  4  6  2  0
  6  7  1  0
  7  8  1  0
  7  9  1  0
  7 10  1  0
 10 11  1  1
 10 12  1  0
 10 13  1  0
 13 14  1  0
 14 15  2  0
 15 16  1  0
 15 17  1  0
 17 18  1  0
 17 19  2  0
 19 20  1  0
 19 21  1  0
 21 22  1  0
 21 23  2  0
 23 24  1  0
  6 25  1  0
 25 26  1  0
 25 27  2  0
 27 28  1  0
 27  2  1  0
 23 14  1  0
M  END
>  <plip>  (1) 
-0.03571428571428571

>  <filename>  (1) 
[H][c]1[n][c]([H])[c]([C]([H])([H])[C@@]([H])([Br])[O][c]2[c]([H])[c]([H])[c]([F])[c]([H])[c]2[H])[c]([H])[c]1[H]

$$$$
