
     RDKit          3D

 37 39  0  0  0  0  0  0  0  0999 V2000
    8.4896    1.5681   23.0032 C   0  0  0  0  0  0  0  0  0  0  0  0
    8.6269    1.3258   21.6235 O   0  0  0  0  0  0  0  0  0  0  0  0
    8.7718   -0.0442   21.2984 C   0  0  0  0  0  0  0  0  0  0  0  0
    7.4050   -0.7526   21.0351 C   0  0  2  0  0  0  0  0  0  0  0  0
    7.5939   -2.1725   20.7948 N   0  0  0  0  0  0  0  0  0  0  0  0
    7.8702   -3.0769   21.7309 C   0  0  0  0  0  0  0  0  0  0  0  0
    8.0273   -4.3271   21.2342 N   0  0  0  0  0  0  0  0  0  0  0  0
    8.2881   -5.2808   22.1233 C   0  0  0  0  0  0  0  0  0  0  0  0
    8.4059   -5.0135   23.4962 C   0  0  0  0  0  0  0  0  0  0  0  0
    8.6608   -5.7612   24.6474 N   0  0  0  0  0  0  0  0  0  0  0  0
    8.6016   -4.8688   25.5976 C   0  0  0  0  0  0  0  0  0  0  0  0
    8.3344   -3.5803   25.1809 N   0  0  0  0  0  0  0  0  0  0  0  0
    8.1230   -2.4009   26.0064 C   0  0  0  0  0  0  0  0  0  0  0  0
    8.4861   -1.5138   25.4751 H   0  0  0  0  0  0  0  0  0  0  0  0
    8.6836   -2.5202   26.9365 H   0  0  0  0  0  0  0  0  0  0  0  0
    7.0617   -2.2612   26.2489 H   0  0  0  0  0  0  0  0  0  0  0  0
    8.2079   -3.6643   23.8218 C   0  0  0  0  0  0  0  0  0  0  0  0
    7.9540   -2.6641   22.9892 N   0  0  0  0  0  0  0  0  0  0  0  0
    8.7323   -5.0735   26.6524 H   0  0  0  0  0  0  0  0  0  0  0  0
    8.4288   -6.2981   21.7490 H   0  0  0  0  0  0  0  0  0  0  0  0
    7.5334   -2.6474   19.9110 H   0  0  0  0  0  0  0  0  0  0  0  0
    6.6318   -0.0887   19.9127 C   0  0  0  0  0  0  0  0  0  0  0  0
    5.4356    0.6057   20.1555 C   0  0  0  0  0  0  0  0  0  0  0  0
    4.8139    1.2926   19.1105 C   0  0  0  0  0  0  0  0  0  0  0  0
    5.4137    1.2742   17.8498 C   0  0  0  0  0  0  0  0  0  0  0  0
    6.5667    0.6394   17.5981 N   0  0  0  0  0  0  0  0  0  0  0  0
    7.1545   -0.0140   18.6124 C   0  0  0  0  0  0  0  0  0  0  0  0
    8.1250   -0.4468   18.3606 H   0  0  0  0  0  0  0  0  0  0  0  0
    4.9537    1.7827   17.0033 H   0  0  0  0  0  0  0  0  0  0  0  0
    3.8917    1.8407   19.2555 H   0  0  0  0  0  0  0  0  0  0  0  0
    5.0151    0.6344   21.1621 H   0  0  0  0  0  0  0  0  0  0  0  0
    6.8277   -0.6379   21.9694 H   0  0  0  0  0  0  0  0  0  0  0  0
    9.2999   -0.6039   22.0870 H   0  0  0  0  0  0  0  0  0  0  0  0
    9.3752   -0.0946   20.3844 H   0  0  0  0  0  0  0  0  0  0  0  0
    9.4199    1.3296   23.5436 H   0  0  0  0  0  0  0  0  0  0  0  0
    8.2682    2.6309   23.1202 H   0  0  0  0  0  0  0  0  0  0  0  0
    7.6750    0.9790   23.4546 H   0  0  0  0  0  0  0  0  0  0  0  0
  1  2  1  0
  2  3  1  0
  3  4  1  0
  4  5  1  0
  5  6  1  0
  6  7  2  0
  7  8  1  0
  8  9  2  0
  9 10  1  0
 10 11  2  0
 11 12  1  0
 12 13  1  0
 13 14  1  0
 13 15  1  0
 13 16  1  0
 12 17  1  0
 17 18  2  0
 11 19  1  0
  8 20  1  0
  5 21  1  0
  4 22  1  0
 22 23  2  0
 23 24  1  0
 24 25  2  0
 25 26  1  0
 26 27  2  0
 27 28  1  0
 25 29  1  0
 24 30  1  0
 23 31  1  0
  4 32  1  1
  3 33  1  0
  3 34  1  0
  1 35  1  0
  1 36  1  0
  1 37  1  0
 18  6  1  0
 27 22  1  0
 17  9  1  0
M  END
>  <plip>  (1) 
-0.13793103448275862

>  <filename>  (1) 
[H][c]1[n][c]([H])[c]([C@@]([H])([N]([H])[c]2[n][c]([H])[c]3[n][c]([H])[n]([C]([H])([H])[H])[c]3[n]2)[C]([H])([H])[O][C]([H])([H])[H])[c]([H])[c]1[H]

$$$$
