
     RDKit          3D

 39 42  0  0  0  0  0  0  0  0999 V2000
    4.9162    1.8088   16.9613 H   0  0  0  0  0  0  0  0  0  0  0  0
    5.3760    1.3047   17.8086 C   0  0  0  0  0  0  0  0  0  0  0  0
    6.5267    0.6639   17.5542 N   0  0  0  0  0  0  0  0  0  0  0  0
    7.1292    0.0542   18.5834 C   0  0  0  0  0  0  0  0  0  0  0  0
    8.0723   -0.4408   18.3461 H   0  0  0  0  0  0  0  0  0  0  0  0
    6.6403    0.0431   19.9076 C   0  0  0  0  0  0  0  0  0  0  0  0
    7.3817   -0.6293   21.0598 C   0  0  2  0  0  0  0  0  0  0  0  0
    7.0246   -0.1885   22.0046 H   0  0  0  0  0  0  0  0  0  0  0  0
    8.9035   -0.3659   21.0312 C   0  0  0  0  0  0  0  0  0  0  0  0
    9.4874    0.6944   20.9624 O   0  0  0  0  0  0  0  0  0  0  0  0
    9.5239   -1.5715   21.1175 N   0  0  0  0  0  0  0  0  0  0  0  0
   10.5132   -1.5124   21.2999 H   0  0  0  0  0  0  0  0  0  0  0  0
    8.6801   -2.6776   21.5042 C   0  0  0  0  0  0  0  0  0  0  0  0
    8.9593   -3.5967   20.9773 H   0  0  0  0  0  0  0  0  0  0  0  0
    8.7247   -2.8653   22.5907 H   0  0  0  0  0  0  0  0  0  0  0  0
    7.2791   -2.1954   21.0737 C   0  0  1  0  0  0  0  0  0  0  0  0
    7.0954   -2.4835   20.0366 H   0  0  0  0  0  0  0  0  0  0  0  0
    6.2164   -2.8696   21.8985 C   0  0  0  0  0  0  0  0  0  0  0  0
    6.2393   -2.9599   23.1981 N   0  0  0  0  0  0  0  0  0  0  0  0
    5.1211   -3.6966   23.5421 C   0  0  0  0  0  0  0  0  0  0  0  0
    4.6351   -4.0196   24.8150 C   0  0  0  0  0  0  0  0  0  0  0  0
    5.1949   -3.6868   25.6843 H   0  0  0  0  0  0  0  0  0  0  0  0
    3.4357   -4.7299   24.9314 C   0  0  0  0  0  0  0  0  0  0  0  0
    2.9084   -4.9749   26.3144 C   0  0  0  0  0  0  0  0  0  0  0  0
    3.5788   -4.9687   27.3259 O   0  0  0  0  0  0  0  0  0  0  0  0
    1.5673   -5.2395   26.4266 N   0  0  0  0  0  0  0  0  0  0  0  0
    0.9707   -4.6646   25.8568 H   0  0  0  0  0  0  0  0  0  0  0  0
    1.3689   -5.2237   27.4167 H   0  0  0  0  0  0  0  0  0  0  0  0
    2.7744   -5.1889   23.7526 C   0  0  0  0  0  0  0  0  0  0  0  0
    1.8501   -5.7666   23.8215 H   0  0  0  0  0  0  0  0  0  0  0  0
    3.2798   -4.9130   22.4875 C   0  0  0  0  0  0  0  0  0  0  0  0
    2.7584   -5.3299   21.6346 H   0  0  0  0  0  0  0  0  0  0  0  0
    4.4319   -4.1122   22.3883 C   0  0  0  0  0  0  0  0  0  0  0  0
    5.1682   -3.5650   21.3445 N   0  0  0  0  0  0  0  0  0  0  0  0
    4.8880   -3.4787   20.3855 H   0  0  0  0  0  0  0  0  0  0  0  0
    5.4291    0.7064   20.1360 C   0  0  0  0  0  0  0  0  0  0  0  0
    5.0076    0.7292   21.1416 H   0  0  0  0  0  0  0  0  0  0  0  0
    4.7820    1.3406   19.0720 C   0  0  0  0  0  0  0  0  0  0  0  0
    3.8473    1.8713   19.2122 H   0  0  0  0  0  0  0  0  0  0  0  0
  1  2  1  0
  2  3  2  0
  3  4  1  0
  4  5  1  0
  4  6  2  0
  6  7  1  0
  7  8  1  1
  7  9  1  0
  9 10  2  0
  9 11  1  0
 11 12  1  0
 11 13  1  0
 13 14  1  0
 13 15  1  0
 13 16  1  0
 16 17  1  6
 16 18  1  0
 18 19  2  0
 19 20  1  0
 20 21  2  0
 21 22  1  0
 21 23  1  0
 23 24  1  0
 24 25  2  0
 24 26  1  0
 26 27  1  0
 26 28  1  0
 23 29  2  0
 29 30  1  0
 29 31  1  0
 31 32  1  0
 31 33  2  0
 33 34  1  0
 34 35  1  0
  6 36  1  0
 36 37  1  0
 36 38  2  0
 38 39  1  0
 38  2  1  0
 16  7  1  0
 34 18  1  0
 33 20  1  0
M  END
>  <plip>  (1) 
-0.10344827586206896

>  <filename>  (1) 
[H][c]1[n][c]([H])[c]([C@]2([H])[C](=[O])[N]([H])[C]([H])([H])[C@@]2([H])[c]2[n][c]3[c]([H])[c]([C](=[O])[N]([H])[H])[c]([H])[c]([H])[c]3[n]2[H])[c]([H])[c]1[H]

$$$$
