
     RDKit          3D

 41 43  0  0  0  0  0  0  0  0999 V2000
    8.9982    1.4196   21.3650 C   0  0  0  0  0  0  0  0  0  0  0  0
    8.1662    0.4643   22.1019 N   0  0  0  0  0  0  0  0  0  0  0  0
    8.3078    0.4774   23.4884 C   0  0  0  0  0  0  0  0  0  0  0  0
    8.7478    1.4616   24.0615 O   0  0  0  0  0  0  0  0  0  0  0  0
    7.9071   -0.7746   24.2581 C   0  0  0  0  0  0  0  0  0  0  0  0
    8.8188   -1.0345   25.4627 C   0  0  0  0  0  0  0  0  0  0  0  0
    8.4901   -2.2871   26.0672 O   0  0  0  0  0  0  0  0  0  0  0  0
    7.1692   -2.5993   26.2382 C   0  0  0  0  0  0  0  0  0  0  0  0
    6.8829   -3.6765   27.0888 C   0  0  0  0  0  0  0  0  0  0  0  0
    5.5625   -4.0881   27.2822 C   0  0  0  0  0  0  0  0  0  0  0  0
    4.5449   -3.4285   26.5961 C   0  0  0  0  0  0  0  0  0  0  0  0
    3.2739   -3.8313   26.7651 F   0  0  0  0  0  0  0  0  0  0  0  0
    4.8074   -2.3555   25.7524 C   0  0  0  0  0  0  0  0  0  0  0  0
    6.1251   -1.9037   25.5901 C   0  0  0  0  0  0  0  0  0  0  0  0
    6.4736   -0.6562   24.8039 C   0  0  0  0  0  0  0  0  0  0  0  0
    6.3808    0.2227   25.4612 H   0  0  0  0  0  0  0  0  0  0  0  0
    5.7749   -0.4870   23.9864 H   0  0  0  0  0  0  0  0  0  0  0  0
    3.9714   -1.8854   25.2432 H   0  0  0  0  0  0  0  0  0  0  0  0
    5.2972   -4.9015   27.9496 H   0  0  0  0  0  0  0  0  0  0  0  0
    7.7197   -4.1563   27.5855 H   0  0  0  0  0  0  0  0  0  0  0  0
    8.7233   -0.2174   26.1967 H   0  0  0  0  0  0  0  0  0  0  0  0
    9.8696   -1.1343   25.1860 H   0  0  0  0  0  0  0  0  0  0  0  0
    7.9436   -1.6623   23.6135 H   0  0  0  0  0  0  0  0  0  0  0  0
    7.3310   -0.4963   21.3822 C   0  0  0  0  0  0  0  0  0  0  0  0
    8.1970   -2.1025   21.0093 C   0  0  0  0  0  0  0  0  0  0  0  0
    7.5928   -3.0457   21.5208 O   0  0  0  0  0  0  0  0  0  0  0  0
    9.2260   -1.9651   20.3494 O   0  0  0  0  0  1  0  0  0  0  0  0
    6.6477    0.0758   20.1472 C   0  0  0  0  0  0  0  0  0  0  0  0
    5.4103    0.7351   20.2359 C   0  0  0  0  0  0  0  0  0  0  0  0
    4.8429    1.2985   19.0893 C   0  0  0  0  0  0  0  0  0  0  0  0
    5.5267    1.1777   17.8743 C   0  0  0  0  0  0  0  0  0  0  0  0
    6.6914    0.5242   17.7527 N   0  0  0  0  0  0  0  0  0  0  0  0
    7.2306   -0.0007   18.8677 C   0  0  0  0  0  0  0  0  0  0  0  0
    8.1762   -0.5341   18.7543 H   0  0  0  0  0  0  0  0  0  0  0  0
    5.1181    1.6054   16.9584 H   0  0  0  0  0  0  0  0  0  0  0  0
    3.8967    1.8289   19.1207 H   0  0  0  0  0  0  0  0  0  0  0  0
    4.9069    0.8046   21.2000 H   0  0  0  0  0  0  0  0  0  0  0  0
    6.5691   -0.8740   22.0644 H   0  0  0  0  0  0  0  0  0  0  0  0
   10.0046    1.4372   21.7942 H   0  0  0  0  0  0  0  0  0  0  0  0
    8.5876    2.4310   21.4322 H   0  0  0  0  0  0  0  0  0  0  0  0
    9.0659    1.1182   20.3186 H   0  0  0  0  0  0  0  0  0  0  0  0
  1  2  1  0
  2  3  1  0
  3  4  2  0
  3  5  1  0
  5  6  1  0
  6  7  1  0
  7  8  1  0
  8  9  2  0
  9 10  1  0
 10 11  2  0
 11 12  1  0
 11 13  1  0
 13 14  2  0
 14 15  1  0
 15 16  1  0
 15 17  1  0
 13 18  1  0
 10 19  1  0
  9 20  1  0
  6 21  1  0
  6 22  1  0
  5 23  1  0
  2 24  1  0
 24 25  1  0
 25 26  2  0
 25 27  1  0
 24 28  1  0
 28 29  2  0
 29 30  1  0
 30 31  2  0
 31 32  1  0
 32 33  2  0
 33 34  1  0
 31 35  1  0
 30 36  1  0
 29 37  1  0
 24 38  1  0
  1 39  1  0
  1 40  1  0
  1 41  1  0
 15  5  1  0
 33 28  1  0
 14  8  1  0
M  CHG  1  27  -1
M  END
>  <plip>  (1) 
-0.03571428571428571

>  <filename>  (1) 
[H][c]1[n][c]([H])[c]([C]([H])([C](=[O])[O-])[N]([C](=[O])[C]2([H])[C]([H])([H])[O][c]3[c]([H])[c]([H])[c]([F])[c]([H])[c]3[C]2([H])[H])[C]([H])([H])[H])[c]([H])[c]1[H]

$$$$
