
     RDKit          3D

 28 29  0  0  0  0  0  0  0  0999 V2000
    4.9050    1.8380   17.0126 H   0  0  0  0  0  0  0  0  0  0  0  0
    5.4067    1.2984   17.8100 C   0  0  0  0  0  0  0  0  0  0  0  0
    6.5675    0.6673   17.5504 N   0  0  0  0  0  0  0  0  0  0  0  0
    7.1685    0.0119   18.5626 C   0  0  0  0  0  0  0  0  0  0  0  0
    8.1196   -0.4722   18.3598 H   0  0  0  0  0  0  0  0  0  0  0  0
    6.6304   -0.0556   19.8666 C   0  0  0  0  0  0  0  0  0  0  0  0
    7.3395   -0.7790   20.9943 C   0  0  0  0  0  0  0  0  0  0  0  0
    8.3115   -1.1450   20.6566 H   0  0  0  0  0  0  0  0  0  0  0  0
    7.5310   -0.0582   21.7989 H   0  0  0  0  0  0  0  0  0  0  0  0
    6.5326   -1.9601   21.5591 C   0  0  1  0  0  0  0  0  0  0  0  0
    5.6455   -1.5597   22.0529 H   0  0  0  0  0  0  0  0  0  0  0  0
    5.9541   -3.2287   20.1356 Br  0  0  0  0  0  0  0  0  0  0  0  0
    7.5216   -2.8842   22.8109 S   0  0  0  0  0  0  0  0  0  0  0  0
    6.2261   -4.0204   23.1752 C   0  0  0  0  0  0  0  0  0  0  0  0
    6.2534   -5.3147   22.6437 C   0  0  0  0  0  0  0  0  0  0  0  0
    7.1081   -5.6337   22.0550 H   0  0  0  0  0  0  0  0  0  0  0  0
    5.1774   -6.1853   22.8527 C   0  0  0  0  0  0  0  0  0  0  0  0
    5.1996   -7.1884   22.4378 H   0  0  0  0  0  0  0  0  0  0  0  0
    4.0670   -5.7597   23.5911 C   0  0  0  0  0  0  0  0  0  0  0  0
    3.2338   -6.4346   23.7576 H   0  0  0  0  0  0  0  0  0  0  0  0
    4.0340   -4.4639   24.1190 C   0  0  0  0  0  0  0  0  0  0  0  0
    3.1692   -4.1253   24.6826 H   0  0  0  0  0  0  0  0  0  0  0  0
    5.1135   -3.5983   23.9120 C   0  0  0  0  0  0  0  0  0  0  0  0
    5.0894   -2.5876   24.3084 H   0  0  0  0  0  0  0  0  0  0  0  0
    5.4358    0.6093   20.1264 C   0  0  0  0  0  0  0  0  0  0  0  0
    5.0102    0.6061   21.1291 H   0  0  0  0  0  0  0  0  0  0  0  0
    4.8217    1.2932   19.0796 C   0  0  0  0  0  0  0  0  0  0  0  0
    3.8981    1.8358   19.2439 H   0  0  0  0  0  0  0  0  0  0  0  0
  1  2  1  0
  2  3  2  0
  3  4  1  0
  4  5  1  0
  4  6  2  0
  6  7  1  0
  7  8  1  0
  7  9  1  0
  7 10  1  0
 10 11  1  1
 10 12  1  0
 10 13  1  0
 13 14  1  0
 14 15  2  0
 15 16  1  0
 15 17  1  0
 17 18  1  0
 17 19  2  0
 19 20  1  0
 19 21  1  0
 21 22  1  0
 21 23  2  0
 23 24  1  0
  6 25  1  0
 25 26  1  0
 25 27  2  0
 27 28  1  0
 27  2  1  0
 23 14  1  0
M  END
>  <plip>  (1) 
-0.06896551724137931

>  <filename>  (1) 
[H][c]1[n][c]([H])[c]([C]([H])([H])[C@@]([H])([Br])[S][c]2[c]([H])[c]([H])[c]([H])[c]([H])[c]2[H])[c]([H])[c]1[H]

$$$$
