
     RDKit          3D

 37 40  0  0  0  0  0  0  0  0999 V2000
    4.8988    1.8073   17.0521 H   0  0  0  0  0  0  0  0  0  0  0  0
    5.3910    1.3987   17.9320 C   0  0  0  0  0  0  0  0  0  0  0  0
    6.6294    0.9168   17.7535 N   0  0  0  0  0  0  0  0  0  0  0  0
    7.2509    0.4108   18.8240 C   0  0  0  0  0  0  0  0  0  0  0  0
    8.2688    0.0780   18.6263 H   0  0  0  0  0  0  0  0  0  0  0  0
    6.6870    0.2976   20.1224 C   0  0  0  0  0  0  0  0  0  0  0  0
    7.4486   -0.3904   21.2337 C   0  0  0  0  0  0  0  0  0  0  0  0
    6.8640   -0.5195   22.6175 C   0  0  0  0  0  0  0  0  0  0  0  0
    6.9938   -1.5898   23.3589 N   0  0  0  0  0  0  0  0  0  0  0  0
    6.5347   -1.4297   24.6290 N   0  0  0  0  0  0  0  0  0  0  0  0
    6.0767   -0.2368   24.8653 C   0  0  0  0  0  0  0  0  0  0  0  0
    5.6415    0.2497   26.1969 C   0  0  0  0  0  0  0  0  0  0  0  0
    6.1877    1.4333   26.7212 C   0  0  0  0  0  0  0  0  0  0  0  0
    6.9381    1.9758   26.1484 H   0  0  0  0  0  0  0  0  0  0  0  0
    5.8033    1.9232   27.9692 C   0  0  0  0  0  0  0  0  0  0  0  0
    6.2321    2.8465   28.3432 H   0  0  0  0  0  0  0  0  0  0  0  0
    4.8706    1.2202   28.7301 C   0  0  0  0  0  0  0  0  0  0  0  0
    4.5711    1.5809   29.7129 H   0  0  0  0  0  0  0  0  0  0  0  0
    4.3489    0.0176   28.2520 C   0  0  0  0  0  0  0  0  0  0  0  0
    3.6538   -0.5498   28.8563 H   0  0  0  0  0  0  0  0  0  0  0  0
    4.7136   -0.4732   26.9842 C   0  0  0  0  0  0  0  0  0  0  0  0
    4.2032   -1.6047   26.4487 O   0  0  0  0  0  0  0  0  0  0  0  0
    3.2735   -2.3843   27.1759 C   0  0  0  0  0  0  0  0  0  0  0  0
    3.7063   -2.7879   28.1010 H   0  0  0  0  0  0  0  0  0  0  0  0
    2.3695   -1.8108   27.4163 H   0  0  0  0  0  0  0  0  0  0  0  0
    3.0079   -3.2120   26.5192 H   0  0  0  0  0  0  0  0  0  0  0  0
    6.1573    0.8152   23.4830 S   0  0  0  0  0  0  0  0  0  0  0  0
    8.3629   -1.5260   20.8043 C   0  0  0  0  0  0  0  0  0  0  0  0
    8.4306   -2.3827   21.4705 H   0  0  0  0  0  0  0  0  0  0  0  0
    8.3737   -1.7258   19.7422 H   0  0  0  0  0  0  0  0  0  0  0  0
    8.9838   -0.2534   21.2288 C   0  0  0  0  0  0  0  0  0  0  0  0
    9.4275    0.3898   20.4705 H   0  0  0  0  0  0  0  0  0  0  0  0
    9.4900   -0.2108   22.1890 H   0  0  0  0  0  0  0  0  0  0  0  0
    5.3983    0.8327   20.2763 C   0  0  0  0  0  0  0  0  0  0  0  0
    4.9028    0.8386   21.2442 H   0  0  0  0  0  0  0  0  0  0  0  0
    4.7469    1.3853   19.1698 C   0  0  0  0  0  0  0  0  0  0  0  0
    3.7573    1.8169   19.2623 H   0  0  0  0  0  0  0  0  0  0  0  0
  1  2  1  0
  2  3  2  0
  3  4  1  0
  4  5  1  0
  4  6  2  0
  6  7  1  0
  7  8  1  0
  8  9  2  0
  9 10  1  0
 10 11  2  0
 11 12  1  0
 12 13  2  0
 13 14  1  0
 13 15  1  0
 15 16  1  0
 15 17  2  0
 17 18  1  0
 17 19  1  0
 19 20  1  0
 19 21  2  0
 21 22  1  0
 22 23  1  0
 23 24  1  0
 23 25  1  0
 23 26  1  0
 11 27  1  0
  7 28  1  0
 28 29  1  0
 28 30  1  0
 28 31  1  0
 31 32  1  0
 31 33  1  0
  6 34  1  0
 34 35  1  0
 34 36  2  0
 36 37  1  0
 36  2  1  0
 31  7  1  0
 27  8  1  0
 21 12  1  0
M  END
>  <plip>  (1) 
-0.0

>  <filename>  (1) 
[H][c]1[n][c]([H])[c]([C]2([c]3[n][n][c](-[c]4[c]([H])[c]([H])[c]([H])[c]([H])[c]4[O][C]([H])([H])[H])[s]3)[C]([H])([H])[C]2([H])[H])[c]([H])[c]1[H]

$$$$
