
     RDKit          3D

 36 38  0  0  0  0  0  0  0  0999 V2000
    7.0665   -2.4433   20.0715 H   0  0  0  0  0  0  0  0  0  0  0  0
    7.3346   -1.8957   20.9602 C   0  0  0  0  0  0  0  0  0  0  0  0
    7.1538   -0.5651   21.0664 C   0  0  0  0  0  0  0  0  0  0  0  0
    6.5551    0.1839   19.9469 C   0  0  0  0  0  0  0  0  0  0  0  0
    7.1173    0.1528   18.6561 C   0  0  0  0  0  0  0  0  0  0  0  0
    8.0648   -0.3608   18.4891 H   0  0  0  0  0  0  0  0  0  0  0  0
    6.5587    0.7222   17.5806 N   0  0  0  0  0  0  0  0  0  0  0  0
    5.3848    1.3486   17.7594 C   0  0  0  0  0  0  0  0  0  0  0  0
    4.9418    1.7876   16.8681 H   0  0  0  0  0  0  0  0  0  0  0  0
    4.7409    1.4514   18.9987 C   0  0  0  0  0  0  0  0  0  0  0  0
    3.7936    1.9723   19.0794 H   0  0  0  0  0  0  0  0  0  0  0  0
    5.3521    0.8804   20.1147 C   0  0  0  0  0  0  0  0  0  0  0  0
    4.9084    0.9287   21.1113 H   0  0  0  0  0  0  0  0  0  0  0  0
    7.6084    0.1585   22.3069 C   0  0  0  0  0  0  0  0  0  0  0  0
    8.6638    0.4239   22.1619 H   0  0  0  0  0  0  0  0  0  0  0  0
    7.0666    1.0955   22.4684 H   0  0  0  0  0  0  0  0  0  0  0  0
    7.5003   -0.7819   23.5123 C   0  0  0  0  0  0  0  0  0  0  0  0
    7.9019   -0.3150   24.4198 H   0  0  0  0  0  0  0  0  0  0  0  0
    6.4462   -1.0104   23.7323 H   0  0  0  0  0  0  0  0  0  0  0  0
    8.1952   -2.0349   23.2271 N   0  0  0  0  0  0  0  0  0  0  0  0
    9.4184   -2.3822   23.9510 C   0  0  0  0  0  0  0  0  0  0  0  0
    9.2665   -2.1961   25.0262 H   0  0  0  0  0  0  0  0  0  0  0  0
    9.5586   -3.4605   23.8302 H   0  0  0  0  0  0  0  0  0  0  0  0
   10.6296   -1.6063   23.4430 C   0  0  0  0  0  0  0  0  0  0  0  0
   10.8062   -0.2584   23.7951 C   0  0  0  0  0  0  0  0  0  0  0  0
   10.0581    0.2562   24.3940 H   0  0  0  0  0  0  0  0  0  0  0  0
   11.9316    0.4578   23.3913 C   0  0  0  0  0  0  0  0  0  0  0  0
   12.0672    1.4990   23.6601 H   0  0  0  0  0  0  0  0  0  0  0  0
   12.9377   -0.1809   22.6592 C   0  0  0  0  0  0  0  0  0  0  0  0
   14.4232    0.6594   22.3870 Cl  0  0  0  0  0  0  0  0  0  0  0  0
   12.7421   -1.4968   22.2201 C   0  0  0  0  0  0  0  0  0  0  0  0
   13.9508   -2.2804   21.2614 Cl  0  0  0  0  0  0  0  0  0  0  0  0
   11.5805   -2.1911   22.5901 C   0  0  0  0  0  0  0  0  0  0  0  0
   11.4410   -3.2123   22.2610 H   0  0  0  0  0  0  0  0  0  0  0  0
    7.9335   -2.7078   22.0332 C   0  0  0  0  0  0  0  0  0  0  0  0
    8.1946   -3.8916   21.8772 O   0  0  0  0  0  0  0  0  0  0  0  0
  1  2  1  0
  2  3  2  0
  3  4  1  0
  4  5  2  0
  5  6  1  0
  5  7  1  0
  7  8  2  0
  8  9  1  0
  8 10  1  0
 10 11  1  0
 10 12  2  0
 12 13  1  0
  3 14  1  0
 14 15  1  0
 14 16  1  0
 14 17  1  0
 17 18  1  0
 17 19  1  0
 17 20  1  0
 20 21  1  0
 21 22  1  0
 21 23  1  0
 21 24  1  0
 24 25  2  0
 25 26  1  0
 25 27  1  0
 27 28  1  0
 27 29  2  0
 29 30  1  0
 29 31  1  0
 31 32  1  0
 31 33  2  0
 33 34  1  0
 20 35  1  0
 35 36  2  0
 35  2  1  0
 12  4  1  0
 33 24  1  0
M  END
>  <plip>  (1) 
-0.06666666666666667

>  <filename>  (1) 
[H][C]1=[C]([c]2[c]([H])[n][c]([H])[c]([H])[c]2[H])[C]([H])([H])[C]([H])([H])[N]([C]([H])([H])[c]2[c]([H])[c]([H])[c]([Cl])[c]([Cl])[c]2[H])[C]1=[O]

$$$$
