
     RDKit          3D

 31 32  0  0  0  0  0  0  0  0999 V2000
    8.3650   -5.4372   21.1828 H   0  0  0  0  0  0  0  0  0  0  0  0
    7.5281   -5.0366   21.4715 O   0  0  0  0  0  0  0  0  0  0  0  0
    7.8179   -4.9414   22.7806 C   0  0  0  0  0  0  0  0  0  0  0  0
    8.9034   -5.3265   23.1474 O   0  0  0  0  0  0  0  0  0  0  0  0
    6.7679   -4.1992   23.6426 C   0  0  1  0  0  0  0  0  0  0  0  0
    5.9141   -4.0629   22.9758 H   0  0  0  0  0  0  0  0  0  0  0  0
    6.3439   -4.8965   24.8759 N   0  0  0  0  0  0  0  0  0  0  0  0
    5.6722   -4.3636   25.4253 H   0  0  0  0  0  0  0  0  0  0  0  0
    7.1300   -5.1284   25.4791 H   0  0  0  0  0  0  0  0  0  0  0  0
    7.3721   -2.7875   23.8620 C   0  0  0  0  0  0  0  0  0  0  0  0
    6.6428   -2.1700   24.4077 H   0  0  0  0  0  0  0  0  0  0  0  0
    8.2577   -2.8815   24.5060 H   0  0  0  0  0  0  0  0  0  0  0  0
    7.7706   -2.1601   22.6002 N   0  0  0  0  0  0  0  0  0  0  0  0
    6.8768   -1.8155   21.6170 C   0  0  0  0  0  0  0  0  0  0  0  0
    5.7278   -2.1827   21.5093 O   0  0  0  0  0  0  0  0  0  0  0  0
    7.5146   -0.9227   20.7381 N   0  0  0  0  0  0  0  0  0  0  0  0
    6.8051   -0.1526   19.7472 C   0  0  0  0  0  0  0  0  0  0  0  0
    7.2820    0.0263   18.4282 C   0  0  0  0  0  0  0  0  0  0  0  0
    8.2413   -0.4060   18.1379 H   0  0  0  0  0  0  0  0  0  0  0  0
    6.6076    0.7170   17.5000 N   0  0  0  0  0  0  0  0  0  0  0  0
    5.4457    1.2916   17.8527 C   0  0  0  0  0  0  0  0  0  0  0  0
    4.9327    1.8467   17.0690 H   0  0  0  0  0  0  0  0  0  0  0  0
    4.9090    1.2004   19.1397 C   0  0  0  0  0  0  0  0  0  0  0  0
    3.9825    1.7138   19.3736 H   0  0  0  0  0  0  0  0  0  0  0  0
    5.5961    0.4541   20.1020 C   0  0  0  0  0  0  0  0  0  0  0  0
    5.2177    0.3432   21.1160 H   0  0  0  0  0  0  0  0  0  0  0  0
    8.8132   -0.6776   21.1572 C   0  0  0  0  0  0  0  0  0  0  0  0
    9.5811    0.1045   20.6619 O   0  0  0  0  0  0  0  0  0  0  0  0
    9.0666   -1.5645   22.3632 C   0  0  0  0  0  0  0  0  0  0  0  0
    9.4082   -0.9357   23.1921 H   0  0  0  0  0  0  0  0  0  0  0  0
    9.8523   -2.2977   22.1356 H   0  0  0  0  0  0  0  0  0  0  0  0
  1  2  1  0
  2  3  1  0
  3  4  2  0
  3  5  1  0
  5  6  1  6
  5  7  1  0
  7  8  1  0
  7  9  1  0
  5 10  1  0
 10 11  1  0
 10 12  1  0
 10 13  1  0
 13 14  1  0
 14 15  2  0
 14 16  1  0
 16 17  1  0
 17 18  2  0
 18 19  1  0
 18 20  1  0
 20 21  2  0
 21 22  1  0
 21 23  1  0
 23 24  1  0
 23 25  2  0
 25 26  1  0
 16 27  1  0
 27 28  2  0
 27 29  1  0
 29 30  1  0
 29 31  1  0
 29 13  1  0
 25 17  1  0
M  END
>  <plip>  (1) 
-0.07142857142857142

>  <filename>  (1) 
[H][O][C](=[O])[C@@]([H])([N]([H])[H])[C]([H])([H])[N]1[C](=[O])[N]([c]2[c]([H])[n][c]([H])[c]([H])[c]2[H])[C](=[O])[C]1([H])[H]

$$$$
