
     RDKit          3D

 26 27  0  0  0  0  0  0  0  0999 V2000
    4.9075    1.9131   16.8842 H   0  0  0  0  0  0  0  0  0  0  0  0
    5.3650    1.3810   17.7159 C   0  0  0  0  0  0  0  0  0  0  0  0
    6.5383    0.7770   17.4576 N   0  0  0  0  0  0  0  0  0  0  0  0
    7.1152    0.1276   18.4771 C   0  0  0  0  0  0  0  0  0  0  0  0
    8.0756   -0.3367   18.2560 H   0  0  0  0  0  0  0  0  0  0  0  0
    6.5610   -0.0086   19.7738 C   0  0  0  0  0  0  0  0  0  0  0  0
    7.2610   -0.7581   20.8539 C   0  0  0  0  0  0  0  0  0  0  0  0
    8.5614   -0.4408   21.1767 C   0  0  0  0  0  0  0  0  0  0  0  0
    9.0578    0.3110   20.5672 H   0  0  0  0  0  0  0  0  0  0  0  0
    9.2165   -1.0122   22.3046 C   0  0  0  0  0  0  0  0  0  0  0  0
   10.5577   -0.5586   22.8077 C   0  0  0  0  0  0  0  0  0  0  0  0
   10.8838   -0.6349   23.9720 O   0  0  0  0  0  0  0  0  0  0  0  0
   11.5718    0.0497   21.7700 C   0  0  0  0  0  0  0  0  0  0  0  0
   11.0929    1.2155   21.2827 F   0  0  0  0  0  0  0  0  0  0  0  0
   11.7240   -0.7903   20.7349 F   0  0  0  0  0  0  0  0  0  0  0  0
   12.7782    0.2970   22.2749 F   0  0  0  0  0  0  0  0  0  0  0  0
    8.5865   -1.9922   23.0293 C   0  0  0  0  0  0  0  0  0  0  0  0
    9.0541   -2.5052   23.8718 H   0  0  0  0  0  0  0  0  0  0  0  0
    7.3322   -2.3419   22.6805 N   0  0  0  0  0  0  0  0  0  0  0  0
    6.7628   -3.0211   23.1641 H   0  0  0  0  0  0  0  0  0  0  0  0
    6.5774   -1.8263   21.6158 C   0  0  0  0  0  0  0  0  0  0  0  0
    5.4935   -2.3501   21.4264 O   0  0  0  0  0  0  0  0  0  0  0  0
    5.3414    0.6462   20.0138 C   0  0  0  0  0  0  0  0  0  0  0  0
    4.9025    0.6207   21.0147 H   0  0  0  0  0  0  0  0  0  0  0  0
    4.7418    1.3555   18.9690 C   0  0  0  0  0  0  0  0  0  0  0  0
    3.8160    1.9026   19.1184 H   0  0  0  0  0  0  0  0  0  0  0  0
  1  2  1  0
  2  3  2  0
  3  4  1  0
  4  5  1  0
  4  6  2  0
  6  7  1  0
  7  8  2  0
  8  9  1  0
  8 10  1  0
 10 11  1  0
 11 12  2  0
 11 13  1  0
 13 14  1  0
 13 15  1  0
 13 16  1  0
 10 17  2  0
 17 18  1  0
 17 19  1  0
 19 20  1  0
 19 21  1  0
 21 22  2  0
  6 23  1  0
 23 24  1  0
 23 25  2  0
 25 26  1  0
 25  2  1  0
 21  7  1  0
M  END
>  <plip>  (1) 
-0.03333333333333333

>  <filename>  (1) 
[H][c]1[n][c]([H])[c](-[c]2[c]([H])[c]([C](=[O])[C]([F])([F])[F])[c]([H])[n]([H])[c]2=[O])[c]([H])[c]1[H]

$$$$
