
     RDKit          3D

 34 36  0  0  0  0  0  0  0  0999 V2000
    5.5316   -1.8522   21.4429 O   0  0  0  0  0  0  0  0  0  0  0  0
    6.7013   -1.5680   21.4244 C   0  0  0  0  0  0  0  0  0  0  0  0
    7.6274   -2.0124   22.3272 N   0  0  0  0  0  0  0  0  0  0  0  0
    8.9251   -1.4130   22.0647 C   0  0  0  0  0  0  0  0  0  0  0  0
    9.4765   -0.4725   23.1190 C   0  0  0  0  0  0  0  0  0  0  0  0
   10.8433   -0.5020   23.4169 C   0  0  0  0  0  0  0  0  0  0  0  0
   11.4073    0.4134   24.3041 C   0  0  0  0  0  0  0  0  0  0  0  0
   10.5900    1.3695   24.9032 C   0  0  0  0  0  0  0  0  0  0  0  0
    9.2224    1.4304   24.6187 C   0  0  0  0  0  0  0  0  0  0  0  0
    8.6768    0.5219   23.7070 C   0  0  0  0  0  0  0  0  0  0  0  0
    7.3348    0.5319   23.3298 O   0  0  0  0  0  0  0  0  0  0  0  0
    6.5292    1.6049   23.5277 C   0  0  0  0  0  0  0  0  0  0  0  0
    5.3178    1.3339   23.0311 F   0  0  0  0  0  0  0  0  0  0  0  0
    6.9734    2.7186   22.9307 F   0  0  0  0  0  0  0  0  0  0  0  0
    6.3659    1.8976   24.8296 F   0  0  0  0  0  0  0  0  0  0  0  0
    8.5853    2.1702   25.0836 H   0  0  0  0  0  0  0  0  0  0  0  0
   11.0303    2.0770   25.5915 H   0  0  0  0  0  0  0  0  0  0  0  0
   12.4704    0.3834   24.5138 H   0  0  0  0  0  0  0  0  0  0  0  0
   11.4774   -1.2424   22.9382 H   0  0  0  0  0  0  0  0  0  0  0  0
    8.6823   -0.6820   20.7361 C   0  0  0  0  0  0  0  0  0  0  0  0
    9.4971   -0.1065   20.0624 O   0  0  0  0  0  0  0  0  0  0  0  0
    7.3355   -0.8113   20.4394 N   0  0  0  0  0  0  0  0  0  0  0  0
    6.6316   -0.0508   19.4476 C   0  0  0  0  0  0  0  0  0  0  0  0
    5.4630    0.6159   19.8216 C   0  0  0  0  0  0  0  0  0  0  0  0
    4.8248    1.4101   18.8640 C   0  0  0  0  0  0  0  0  0  0  0  0
    5.3551    1.4764   17.5704 C   0  0  0  0  0  0  0  0  0  0  0  0
    6.4502    0.7978   17.1886 N   0  0  0  0  0  0  0  0  0  0  0  0
    7.0756    0.0582   18.1117 C   0  0  0  0  0  0  0  0  0  0  0  0
    7.9641   -0.4873   17.8023 H   0  0  0  0  0  0  0  0  0  0  0  0
    4.8860    2.0908   16.8047 H   0  0  0  0  0  0  0  0  0  0  0  0
    3.9330    1.9741   19.1097 H   0  0  0  0  0  0  0  0  0  0  0  0
    5.0782    0.5045   20.8375 H   0  0  0  0  0  0  0  0  0  0  0  0
    9.6826   -2.1874   21.8686 H   0  0  0  0  0  0  0  0  0  0  0  0
    7.2148   -2.0807   23.2455 H   0  0  0  0  0  0  0  0  0  0  0  0
  1  2  2  0
  2  3  1  0
  3  4  1  0
  4  5  1  0
  5  6  2  0
  6  7  1  0
  7  8  2  0
  8  9  1  0
  9 10  2  0
 10 11  1  0
 11 12  1  0
 12 13  1  0
 12 14  1  0
 12 15  1  0
  9 16  1  0
  8 17  1  0
  7 18  1  0
  6 19  1  0
  4 20  1  0
 20 21  2  0
 20 22  1  0
 22 23  1  0
 23 24  2  0
 24 25  1  0
 25 26  2  0
 26 27  1  0
 27 28  2  0
 28 29  1  0
 26 30  1  0
 25 31  1  0
 24 32  1  0
  4 33  1  0
  3 34  1  0
 22  2  1  0
 28 23  1  0
 10  5  1  0
M  END
>  <plip>  (1) 
-0.20689655172413793

>  <filename>  (1) 
[H][c]1[n][c]([H])[c]([N]2[C](=[O])[N]([H])[C]([H])([c]3[c]([H])[c]([H])[c]([H])[c]([H])[c]3[O][C]([F])([F])[F])[C]2=[O])[c]([H])[c]1[H]

$$$$
