
     RDKit          3D

 34 37  0  0  0  0  0  0  0  0999 V2000
    4.9330    1.8773   16.9126 H   0  0  0  0  0  0  0  0  0  0  0  0
    5.3904    1.3368   17.7403 C   0  0  0  0  0  0  0  0  0  0  0  0
    6.5432    0.7038   17.4829 N   0  0  0  0  0  0  0  0  0  0  0  0
    7.1357    0.0615   18.5003 C   0  0  0  0  0  0  0  0  0  0  0  0
    8.0779   -0.4219   18.2459 H   0  0  0  0  0  0  0  0  0  0  0  0
    6.6372   -0.0067   19.8160 C   0  0  0  0  0  0  0  0  0  0  0  0
    7.3515   -0.7840   20.9148 C   0  0  1  0  0  0  0  0  0  0  0  0
    6.9686   -1.8170   20.8858 H   0  0  0  0  0  0  0  0  0  0  0  0
    8.9070   -0.9012   20.8373 C   0  0  0  0  0  0  0  0  0  0  0  0
    9.2317   -1.6349   20.0991 H   0  0  0  0  0  0  0  0  0  0  0  0
    9.3644    0.0648   20.5969 H   0  0  0  0  0  0  0  0  0  0  0  0
    9.2528   -1.2640   22.2596 C   0  0  0  0  0  0  0  0  0  0  0  0
   10.2405   -1.8865   22.8740 N   0  0  0  0  0  0  0  0  0  0  0  0
    9.8252   -1.9716   24.1510 N   0  0  0  0  0  0  0  0  0  0  0  0
   10.3970   -2.4890   24.8088 H   0  0  0  0  0  0  0  0  0  0  0  0
    8.5960   -1.3970   24.3702 C   0  0  0  0  0  0  0  0  0  0  0  0
    7.8834   -1.4899   25.6816 C   0  0  0  0  0  0  0  0  0  0  0  0
    8.1283   -2.4041   26.4530 O   0  0  0  0  0  0  0  0  0  0  0  0
    6.8804   -0.4543   26.0407 C   0  0  0  0  0  0  0  0  0  0  0  0
    7.0352    1.1763   25.4889 S   0  0  0  0  0  0  0  0  0  0  0  0
    5.6476    1.6560   26.3773 C   0  0  0  0  0  0  0  0  0  0  0  0
    5.3283    2.6903   26.3478 H   0  0  0  0  0  0  0  0  0  0  0  0
    5.0868    0.6191   27.0597 C   0  0  0  0  0  0  0  0  0  0  0  0
    4.2088    0.7164   27.6929 H   0  0  0  0  0  0  0  0  0  0  0  0
    5.7942   -0.5967   26.8651 C   0  0  0  0  0  0  0  0  0  0  0  0
    5.5201   -1.5442   27.3147 H   0  0  0  0  0  0  0  0  0  0  0  0
    8.2138   -0.9193   23.1300 C   0  0  0  0  0  0  0  0  0  0  0  0
    7.1002   -0.2829   22.3594 C   0  0  0  0  0  0  0  0  0  0  0  0
    7.2047    0.8085   22.3942 H   0  0  0  0  0  0  0  0  0  0  0  0
    6.1047   -0.5385   22.7161 H   0  0  0  0  0  0  0  0  0  0  0  0
    5.4099    0.6453   20.0438 C   0  0  0  0  0  0  0  0  0  0  0  0
    4.9557    0.6531   21.0352 H   0  0  0  0  0  0  0  0  0  0  0  0
    4.7850    1.3259   18.9983 C   0  0  0  0  0  0  0  0  0  0  0  0
    3.8567    1.8635   19.1546 H   0  0  0  0  0  0  0  0  0  0  0  0
  1  2  1  0
  2  3  2  0
  3  4  1  0
  4  5  1  0
  4  6  2  0
  6  7  1  0
  7  8  1  1
  7  9  1  0
  9 10  1  0
  9 11  1  0
  9 12  1  0
 12 13  2  0
 13 14  1  0
 14 15  1  0
 14 16  1  0
 16 17  1  0
 17 18  2  0
 17 19  1  0
 19 20  1  0
 20 21  1  0
 21 22  1  0
 21 23  2  0
 23 24  1  0
 23 25  1  0
 25 26  1  0
 16 27  2  0
 27 28  1  0
 28 29  1  0
 28 30  1  0
  6 31  1  0
 31 32  1  0
 31 33  2  0
 33 34  1  0
 33  2  1  0
 28  7  1  0
 27 12  1  0
 25 19  2  0
M  END
>  <plip>  (1) 
-0.03571428571428571

>  <filename>  (1) 
[H][c]1[n][c]([H])[c]([C@@]2([H])[C]([H])([H])[c]3[n][n]([H])[c]([C](=[O])[c]4[s][c]([H])[c]([H])[c]4[H])[c]3[C]2([H])[H])[c]([H])[c]1[H]

$$$$
