
     RDKit          3D

 47 49  0  0  0  0  0  0  0  0999 V2000
    8.7135    2.4022   22.8594 C   0  0  0  0  0  0  0  0  0  0  0  0
    8.5836    1.4317   21.7296 N   0  0  0  0  0  4  0  0  0  0  0  0
    9.9522    1.0628   21.2258 C   0  0  0  0  0  0  0  0  0  0  0  0
   10.4747    0.4489   21.9734 H   0  0  0  0  0  0  0  0  0  0  0  0
   10.5448    1.9639   21.0421 H   0  0  0  0  0  0  0  0  0  0  0  0
    9.8826    0.5001   20.2923 H   0  0  0  0  0  0  0  0  0  0  0  0
    7.7839    0.2037   22.1660 C   0  0  0  0  0  0  0  0  0  0  0  0
    7.3971   -0.7406   21.0017 C   0  0  0  0  0  0  0  0  0  0  0  0
    6.6499   -1.8707   21.5287 N   0  0  0  0  0  0  0  0  0  0  0  0
    7.2772   -2.8932   22.1843 C   0  0  0  0  0  0  0  0  0  0  0  0
    8.4927   -2.9535   22.2027 O   0  0  0  0  0  0  0  0  0  0  0  0
    6.3180   -3.8783   22.9339 C   0  0  0  0  0  0  0  0  0  0  0  0
    5.6675   -3.3330   24.2221 C   0  0  0  0  0  0  0  0  0  0  0  0
    6.6355   -3.2757   25.3838 C   0  0  0  0  0  0  0  0  0  0  0  0
    6.5634   -2.4010   26.2249 O   0  0  0  0  0  0  0  0  0  0  0  0
    7.6445   -4.3586   25.4207 C   0  0  0  0  0  0  0  0  0  0  0  0
    8.5144   -4.5361   26.5137 C   0  0  0  0  0  0  0  0  0  0  0  0
    9.4199   -5.5907   26.5161 C   0  0  0  0  0  0  0  0  0  0  0  0
    9.4827   -6.4759   25.4247 C   0  0  0  0  0  0  0  0  0  0  0  0
    8.6668   -6.2741   24.3129 C   0  0  0  0  0  0  0  0  0  0  0  0
    7.7410   -5.2278   24.3228 C   0  0  0  0  0  0  0  0  0  0  0  0
    6.9268   -5.1321   23.2302 O   0  0  0  0  0  0  0  0  0  0  0  0
    8.6983   -6.8984   23.4250 H   0  0  0  0  0  0  0  0  0  0  0  0
   10.1504   -7.3350   25.4604 H   0  0  0  0  0  0  0  0  0  0  0  0
   10.0728   -5.7279   27.3717 H   0  0  0  0  0  0  0  0  0  0  0  0
    8.4492   -3.8367   27.3478 H   0  0  0  0  0  0  0  0  0  0  0  0
    5.2334   -2.3424   24.1168 H   0  0  0  0  0  0  0  0  0  0  0  0
    4.8724   -4.0304   24.5164 H   0  0  0  0  0  0  0  0  0  0  0  0
    5.5583   -4.1480   22.1983 H   0  0  0  0  0  0  0  0  0  0  0  0
    5.6552   -1.8682   21.4017 H   0  0  0  0  0  0  0  0  0  0  0  0
    6.6190   -0.0354   19.9149 C   0  0  0  0  0  0  0  0  0  0  0  0
    5.4073    0.6372   20.1485 C   0  0  0  0  0  0  0  0  0  0  0  0
    4.7882    1.3071   19.0898 C   0  0  0  0  0  0  0  0  0  0  0  0
    5.4056    1.2946   17.8343 C   0  0  0  0  0  0  0  0  0  0  0  0
    6.5644    0.6647   17.5869 N   0  0  0  0  0  0  0  0  0  0  0  0
    7.1444    0.0293   18.6129 C   0  0  0  0  0  0  0  0  0  0  0  0
    8.0936   -0.4619   18.3831 H   0  0  0  0  0  0  0  0  0  0  0  0
    4.9535    1.8168   16.9929 H   0  0  0  0  0  0  0  0  0  0  0  0
    3.8602    1.8560   19.2296 H   0  0  0  0  0  0  0  0  0  0  0  0
    4.9580    0.6582   21.1448 H   0  0  0  0  0  0  0  0  0  0  0  0
    8.3234   -1.1305   20.5683 H   0  0  0  0  0  0  0  0  0  0  0  0
    8.3601   -0.3698   22.8973 H   0  0  0  0  0  0  0  0  0  0  0  0
    6.8699    0.5388   22.6667 H   0  0  0  0  0  0  0  0  0  0  0  0
    8.0228    1.8650   20.9535 H   0  0  0  0  0  0  0  0  0  0  0  0
    7.7283    2.7166   23.2165 H   0  0  0  0  0  0  0  0  0  0  0  0
    9.2492    1.9257   23.6923 H   0  0  0  0  0  0  0  0  0  0  0  0
    9.2723    3.2890   22.5455 H   0  0  0  0  0  0  0  0  0  0  0  0
  1  2  1  0
  2  3  1  0
  3  4  1  0
  3  5  1  0
  3  6  1  0
  2  7  1  0
  7  8  1  0
  8  9  1  0
  9 10  1  0
 10 11  2  0
 10 12  1  0
 12 13  1  0
 13 14  1  0
 14 15  2  0
 14 16  1  0
 16 17  2  0
 17 18  1  0
 18 19  2  0
 19 20  1  0
 20 21  2  0
 21 22  1  0
 20 23  1  0
 19 24  1  0
 18 25  1  0
 17 26  1  0
 13 27  1  0
 13 28  1  0
 12 29  1  0
  9 30  1  0
  8 31  1  0
 31 32  2  0
 32 33  1  0
 33 34  2  0
 34 35  1  0
 35 36  2  0
 36 37  1  0
 34 38  1  0
 33 39  1  0
 32 40  1  0
  8 41  1  0
  7 42  1  0
  7 43  1  0
  2 44  1  0
  1 45  1  0
  1 46  1  0
  1 47  1  0
 22 12  1  0
 36 31  1  0
 21 16  1  0
M  CHG  1   2   1
M  END
>  <plip>  (1) 
-0.10344827586206896

>  <filename>  (1) 
[H][c]1[n][c]([H])[c]([C]([H])([N]([H])[C](=[O])[C]2([H])[O][c]3[c]([H])[c]([H])[c]([H])[c]([H])[c]3[C](=[O])[C]2([H])[H])[C]([H])([H])[N+]([H])([C]([H])([H])[H])[C]([H])([H])[H])[c]([H])[c]1[H]

$$$$
