
     RDKit          3D

 26 29  0  0  0  0  0  0  0  0999 V2000
    4.9217    1.7740   17.0023 H   0  0  0  0  0  0  0  0  0  0  0  0
    5.4070    1.2879   17.8463 C   0  0  0  0  0  0  0  0  0  0  0  0
    6.5714    0.6711   17.5905 N   0  0  0  0  0  0  0  0  0  0  0  0
    7.1765    0.0577   18.6101 C   0  0  0  0  0  0  0  0  0  0  0  0
    8.1235   -0.4280   18.3729 H   0  0  0  0  0  0  0  0  0  0  0  0
    6.6507    0.0120   19.9111 C   0  0  0  0  0  0  0  0  0  0  0  0
    7.3536   -0.6899   20.9904 C   0  0  0  0  0  0  0  0  0  0  0  0
    6.8784   -0.7404   22.1904 N   0  0  0  0  0  0  0  0  0  0  0  0
    7.7257   -1.4515   22.9840 N   0  0  0  0  0  0  0  0  0  0  0  0
    7.7900   -1.8463   24.3040 C   0  0  0  0  0  0  0  0  0  0  0  0
    6.8344   -1.5553   25.2995 N   0  0  0  0  0  0  0  0  0  0  0  0
    5.7064   -0.8266   25.0779 N   0  0  0  0  0  0  0  0  0  0  0  0
    5.0892   -0.7878   26.2375 C   0  0  0  0  0  0  0  0  0  0  0  0
    4.1480   -0.2663   26.3420 H   0  0  0  0  0  0  0  0  0  0  0  0
    5.8077   -1.4835   27.2401 C   0  0  0  0  0  0  0  0  0  0  0  0
    5.5315   -1.6017   28.2768 H   0  0  0  0  0  0  0  0  0  0  0  0
    6.9184   -1.9622   26.6091 C   0  0  0  0  0  0  0  0  0  0  0  0
    7.7551   -2.5516   26.9759 H   0  0  0  0  0  0  0  0  0  0  0  0
    8.8900   -2.5411   24.4809 N   0  0  0  0  0  0  0  0  0  0  0  0
    9.5620   -2.6107   23.2842 N   0  0  0  0  0  0  0  0  0  0  0  0
    8.8512   -1.9563   22.4201 C   0  0  0  0  0  0  0  0  0  0  0  0
    8.9030   -1.5228   20.7337 S   0  0  0  0  0  0  0  0  0  0  0  0
    5.4288    0.6570   20.1660 C   0  0  0  0  0  0  0  0  0  0  0  0
    5.0027    0.6321   21.1727 H   0  0  0  0  0  0  0  0  0  0  0  0
    4.8032    1.3110   19.1091 C   0  0  0  0  0  0  0  0  0  0  0  0
    3.8716    1.8453   19.2598 H   0  0  0  0  0  0  0  0  0  0  0  0
  1  2  1  0
  2  3  2  0
  3  4  1  0
  4  5  1  0
  4  6  2  0
  6  7  1  0
  7  8  2  0
  8  9  1  0
  9 10  1  0
 10 11  1  0
 11 12  1  0
 12 13  2  0
 13 14  1  0
 13 15  1  0
 15 16  1  0
 15 17  2  0
 17 18  1  0
 10 19  2  0
 19 20  1  0
 20 21  2  0
 21 22  1  0
  6 23  1  0
 23 24  1  0
 23 25  2  0
 25 26  1  0
 25  2  1  0
 22  7  1  0
 21  9  1  0
 17 11  1  0
M  END
>  <plip>  (1) 
-0.07142857142857142

>  <filename>  (1) 
[H][c]1[n][c]([H])[c](-[c]2[n][n]3[c](-[n]4[n][c]([H])[c]([H])[c]4[H])[n][n][c]3[s]2)[c]([H])[c]1[H]

$$$$
