
     RDKit          3D

 38 39  0  0  0  0  0  0  0  0999 V2000
    8.9084   -2.4297   21.1391 C   0  0  0  0  0  0  0  0  0  0  0  0
    7.4512   -1.9864   20.9587 C   0  0  0  0  0  0  0  0  0  0  0  0
    6.4962   -2.7699   21.8709 C   0  0  0  0  0  0  0  0  0  0  0  0
    6.7387   -2.5913   22.9190 H   0  0  0  0  0  0  0  0  0  0  0  0
    5.4599   -2.4645   21.6881 H   0  0  0  0  0  0  0  0  0  0  0  0
    6.5827   -3.8472   21.6763 H   0  0  0  0  0  0  0  0  0  0  0  0
    7.2978   -0.5083   21.1068 N   0  0  0  0  0  0  0  0  0  0  0  0
    7.6163    0.0608   22.3439 C   0  0  0  0  0  0  0  0  0  0  0  0
    7.9156   -0.6341   23.3085 O   0  0  0  0  0  0  0  0  0  0  0  0
    7.6338    1.5481   22.4405 C   0  0  0  0  0  0  0  0  0  0  0  0
    7.7495    2.2330   23.5931 C   0  0  0  0  0  0  0  0  0  0  0  0
    8.0207    3.6841   23.6433 C   0  0  0  0  0  0  0  0  0  0  0  0
    8.6087    4.3389   22.5426 C   0  0  0  0  0  0  0  0  0  0  0  0
    8.8701    5.7045   22.5620 C   0  0  0  0  0  0  0  0  0  0  0  0
    8.5396    6.4621   23.6831 C   0  0  0  0  0  0  0  0  0  0  0  0
    7.9457    5.8470   24.7903 C   0  0  0  0  0  0  0  0  0  0  0  0
    7.5235    6.8559   26.1334 Cl  0  0  0  0  0  0  0  0  0  0  0  0
    7.7047    4.4593   24.7868 C   0  0  0  0  0  0  0  0  0  0  0  0
    6.9999    3.7111   26.1837 Cl  0  0  0  0  0  0  0  0  0  0  0  0
    8.7362    7.5276   23.6878 H   0  0  0  0  0  0  0  0  0  0  0  0
    9.3254    6.1774   21.6989 H   0  0  0  0  0  0  0  0  0  0  0  0
    8.8838    3.7583   21.6682 H   0  0  0  0  0  0  0  0  0  0  0  0
    7.6474    1.7300   24.5587 H   0  0  0  0  0  0  0  0  0  0  0  0
    7.5474    2.0732   21.4941 H   0  0  0  0  0  0  0  0  0  0  0  0
    6.6651    0.1883   20.0164 C   0  0  0  0  0  0  0  0  0  0  0  0
    5.4260    0.8263   20.1831 C   0  0  0  0  0  0  0  0  0  0  0  0
    4.8030    1.3988   19.0668 C   0  0  0  0  0  0  0  0  0  0  0  0
    5.4444    1.3434   17.8254 C   0  0  0  0  0  0  0  0  0  0  0  0
    6.6342    0.7437   17.6442 N   0  0  0  0  0  0  0  0  0  0  0  0
    7.2110    0.1765   18.7108 C   0  0  0  0  0  0  0  0  0  0  0  0
    8.1659   -0.3204   18.5321 H   0  0  0  0  0  0  0  0  0  0  0  0
    5.0019    1.8029   16.9435 H   0  0  0  0  0  0  0  0  0  0  0  0
    3.8442    1.9007   19.1503 H   0  0  0  0  0  0  0  0  0  0  0  0
    4.9762    0.8637   21.1758 H   0  0  0  0  0  0  0  0  0  0  0  0
    7.1376   -2.2047   19.9311 H   0  0  0  0  0  0  0  0  0  0  0  0
    8.9950   -3.5048   20.9449 H   0  0  0  0  0  0  0  0  0  0  0  0
    9.2321   -2.2408   22.1632 H   0  0  0  0  0  0  0  0  0  0  0  0
    9.5831   -1.8903   20.4619 H   0  0  0  0  0  0  0  0  0  0  0  0
  1  2  1  0
  2  3  1  0
  3  4  1  0
  3  5  1  0
  3  6  1  0
  2  7  1  0
  7  8  1  0
  8  9  2  0
  8 10  1  0
 10 11  2  3
 11 12  1  0
 12 13  2  0
 13 14  1  0
 14 15  2  0
 15 16  1  0
 16 17  1  0
 16 18  2  0
 18 19  1  0
 15 20  1  0
 14 21  1  0
 13 22  1  0
 11 23  1  0
 10 24  1  0
  7 25  1  0
 25 26  2  0
 26 27  1  0
 27 28  2  0
 28 29  1  0
 29 30  2  0
 30 31  1  0
 28 32  1  0
 27 33  1  0
 26 34  1  0
  2 35  1  0
  1 36  1  0
  1 37  1  0
  1 38  1  0
 18 12  1  0
 30 25  1  0
M  END
>  <plip>  (1) 
-0.0

>  <filename>  (1) 
[H][C]([C](=[O])[N]([c]1[c]([H])[n][c]([H])[c]([H])[c]1[H])[C]([H])([C]([H])([H])[H])[C]([H])([H])[H])=[C]([H])[c]1[c]([H])[c]([H])[c]([H])[c]([Cl])[c]1[Cl]

$$$$
