
     RDKit          3D

 42 42  0  0  0  0  0  0  0  0999 V2000
    9.5921    5.5399   24.8736 C   0  0  0  0  0  0  0  0  0  0  0  0
    8.2940    5.4436   24.0830 C   0  0  0  0  0  0  0  0  0  0  0  0
    8.1749    4.1929   23.4352 O   0  0  0  0  0  0  0  0  0  0  0  0
    7.5719    3.1653   24.1955 C   0  0  0  0  0  0  0  0  0  0  0  0
    7.7382    1.8444   23.4509 C   0  0  0  0  0  0  0  0  0  0  0  0
    9.1996    1.3514   23.4047 C   0  0  0  0  0  0  0  0  0  0  0  0
    9.4460   -0.2763   22.7335 S   0  0  0  0  0  0  0  0  0  0  0  0
    8.8230   -1.2661   23.5926 O   0  0  0  0  0  0  0  0  0  0  0  0
   10.8052   -0.4405   22.2596 O   0  0  0  0  0  0  0  0  0  0  0  0
    8.6183   -0.1218   21.3117 N   0  0  0  0  0  0  0  0  0  0  0  0
    7.2210   -0.5740   21.2011 C   0  0  2  0  0  0  0  0  0  0  0  0
    7.1623   -2.1023   20.9286 C   0  0  0  0  0  0  0  0  0  0  0  0
    5.8730   -2.6753   20.9501 O   0  0  0  0  0  0  0  0  0  0  0  0
    5.4706   -3.2337   22.1758 C   0  0  0  0  0  0  0  0  0  0  0  0
    4.4083   -3.4528   22.0580 H   0  0  0  0  0  0  0  0  0  0  0  0
    6.0110   -4.1674   22.3990 H   0  0  0  0  0  0  0  0  0  0  0  0
    5.6005   -2.5527   23.0331 H   0  0  0  0  0  0  0  0  0  0  0  0
    7.4921   -2.1997   19.9034 H   0  0  0  0  0  0  0  0  0  0  0  0
    7.8821   -2.6288   21.5730 H   0  0  0  0  0  0  0  0  0  0  0  0
    6.5924    0.2186   20.0745 C   0  0  0  0  0  0  0  0  0  0  0  0
    5.3402    0.8403   20.1752 C   0  0  0  0  0  0  0  0  0  0  0  0
    4.7680    1.3999   19.0328 C   0  0  0  0  0  0  0  0  0  0  0  0
    5.4773    1.3414   17.8306 C   0  0  0  0  0  0  0  0  0  0  0  0
    6.6949    0.7904   17.7208 N   0  0  0  0  0  0  0  0  0  0  0  0
    7.2302    0.2558   18.8238 C   0  0  0  0  0  0  0  0  0  0  0  0
    8.2088   -0.2039   18.6739 H   0  0  0  0  0  0  0  0  0  0  0  0
    5.0563    1.7607   16.9212 H   0  0  0  0  0  0  0  0  0  0  0  0
    3.7966    1.8791   19.0578 H   0  0  0  0  0  0  0  0  0  0  0  0
    4.8232    0.8883   21.1357 H   0  0  0  0  0  0  0  0  0  0  0  0
    6.6786   -0.3844   22.1339 H   0  0  0  0  0  0  0  0  0  0  0  0
    9.2896   -0.5637   20.6944 H   0  0  0  0  0  0  0  0  0  0  0  0
    9.6625    1.3086   24.3930 H   0  0  0  0  0  0  0  0  0  0  0  0
    9.8122    1.9884   22.7616 H   0  0  0  0  0  0  0  0  0  0  0  0
    7.0759    1.1046   23.9215 H   0  0  0  0  0  0  0  0  0  0  0  0
    7.3752    1.9890   22.4230 H   0  0  0  0  0  0  0  0  0  0  0  0
    8.0199    3.0839   25.2029 H   0  0  0  0  0  0  0  0  0  0  0  0
    6.4978    3.3744   24.3398 H   0  0  0  0  0  0  0  0  0  0  0  0
    8.2828    6.1942   23.2860 H   0  0  0  0  0  0  0  0  0  0  0  0
    7.4220    5.6478   24.7295 H   0  0  0  0  0  0  0  0  0  0  0  0
    9.6608    6.5058   25.3842 H   0  0  0  0  0  0  0  0  0  0  0  0
    9.6544    4.7512   25.6317 H   0  0  0  0  0  0  0  0  0  0  0  0
   10.4508    5.4363   24.2025 H   0  0  0  0  0  0  0  0  0  0  0  0
  1  2  1  0
  2  3  1  0
  3  4  1  0
  4  5  1  0
  5  6  1  0
  6  7  1  0
  7  8  2  0
  7  9  2  0
  7 10  1  0
 10 11  1  0
 11 12  1  0
 12 13  1  0
 13 14  1  0
 14 15  1  0
 14 16  1  0
 14 17  1  0
 12 18  1  0
 12 19  1  0
 11 20  1  0
 20 21  2  0
 21 22  1  0
 22 23  2  0
 23 24  1  0
 24 25  2  0
 25 26  1  0
 23 27  1  0
 22 28  1  0
 21 29  1  0
 11 30  1  1
 10 31  1  0
  6 32  1  0
  6 33  1  0
  5 34  1  0
  5 35  1  0
  4 36  1  0
  4 37  1  0
  2 38  1  0
  2 39  1  0
  1 40  1  0
  1 41  1  0
  1 42  1  0
 25 20  1  0
M  END
>  <plip>  (1) 
-0.13793103448275862

>  <filename>  (1) 
[H][c]1[n][c]([H])[c]([C@]([H])([N]([H])[S](=[O])(=[O])[C]([H])([H])[C]([H])([H])[C]([H])([H])[O][C]([H])([H])[C]([H])([H])[H])[C]([H])([H])[O][C]([H])([H])[H])[c]([H])[c]1[H]

$$$$
