
     RDKit          3D

 33 33  0  0  0  0  0  0  0  0999 V2000
    4.9144   -7.3754   21.6776 H   0  0  0  0  0  0  0  0  0  0  0  0
    5.2804   -6.4901   21.5467 O   0  0  0  0  0  0  0  0  0  0  0  0
    6.6396   -6.4803   21.9514 C   0  0  0  0  0  0  0  0  0  0  0  0
    7.2500   -7.1796   21.3649 H   0  0  0  0  0  0  0  0  0  0  0  0
    6.7502   -6.7691   23.0108 H   0  0  0  0  0  0  0  0  0  0  0  0
    7.1722   -5.0716   21.7685 C   0  0  0  0  0  0  0  0  0  0  0  0
    7.0477   -4.7555   20.7236 H   0  0  0  0  0  0  0  0  0  0  0  0
    8.2481   -5.0677   21.9776 H   0  0  0  0  0  0  0  0  0  0  0  0
    6.4988   -4.0612   22.6971 C   0  0  0  0  0  0  0  0  0  0  0  0
    5.4043   -4.0720   22.5159 H   0  0  0  0  0  0  0  0  0  0  0  0
    6.6516   -4.3868   23.7377 H   0  0  0  0  0  0  0  0  0  0  0  0
    7.1254   -2.7465   22.5441 N   0  0  0  0  0  0  0  0  0  0  0  0
    7.0647   -2.2537   23.4338 H   0  0  0  0  0  0  0  0  0  0  0  0
    6.5401   -1.9234   21.4697 C   0  0  0  0  0  0  0  0  0  0  0  0
    6.3935   -2.5610   20.5863 H   0  0  0  0  0  0  0  0  0  0  0  0
    5.5461   -1.5311   21.7261 H   0  0  0  0  0  0  0  0  0  0  0  0
    7.3983   -0.7006   21.0228 C   0  0  1  0  0  0  0  0  0  0  0  0
    8.6606   -1.1160   20.5209 O   0  0  0  0  0  0  0  0  0  0  0  0
    9.0005   -1.6910   21.2265 H   0  0  0  0  0  0  0  0  0  0  0  0
    6.6578    0.0122   19.9032 C   0  0  0  0  0  0  0  0  0  0  0  0
    7.1681    0.0559   18.5972 C   0  0  0  0  0  0  0  0  0  0  0  0
    8.1190   -0.4261   18.3758 H   0  0  0  0  0  0  0  0  0  0  0  0
    6.5611    0.6695   17.5716 N   0  0  0  0  0  0  0  0  0  0  0  0
    5.4002    1.2900   17.8288 C   0  0  0  0  0  0  0  0  0  0  0  0
    4.9326    1.7937   16.9853 H   0  0  0  0  0  0  0  0  0  0  0  0
    4.8041    1.3106   19.0904 C   0  0  0  0  0  0  0  0  0  0  0  0
    3.8750    1.8405   19.2426 H   0  0  0  0  0  0  0  0  0  0  0  0
    5.4340    0.6551   20.1432 C   0  0  0  0  0  0  0  0  0  0  0  0
    4.9905    0.6581   21.1428 H   0  0  0  0  0  0  0  0  0  0  0  0
    7.6634    0.2576   22.1954 C   0  0  0  0  0  0  0  0  0  0  0  0
    8.3086   -0.2194   22.9440 H   0  0  0  0  0  0  0  0  0  0  0  0
    6.7360    0.5675   22.6849 H   0  0  0  0  0  0  0  0  0  0  0  0
    8.1760    1.1439   21.8126 H   0  0  0  0  0  0  0  0  0  0  0  0
  1  2  1  0
  2  3  1  0
  3  4  1  0
  3  5  1  0
  3  6  1  0
  6  7  1  0
  6  8  1  0
  6  9  1  0
  9 10  1  0
  9 11  1  0
  9 12  1  0
 12 13  1  0
 12 14  1  0
 14 15  1  0
 14 16  1  0
 14 17  1  0
 17 18  1  6
 18 19  1  0
 17 20  1  0
 20 21  2  0
 21 22  1  0
 21 23  1  0
 23 24  2  0
 24 25  1  0
 24 26  1  0
 26 27  1  0
 26 28  2  0
 28 29  1  0
 17 30  1  0
 30 31  1  0
 30 32  1  0
 30 33  1  0
 28 20  1  0
M  END
>  <plip>  (1) 
-0.06896551724137931

>  <filename>  (1) 
[H][O][C]([H])([H])[C]([H])([H])[C]([H])([H])[N]([H])[C]([H])([H])[C@@]([O][H])([c]1[c]([H])[n][c]([H])[c]([H])[c]1[H])[C]([H])([H])[H]

$$$$
