
     RDKit          3D

 23 24  0  0  0  0  0  0  0  0999 V2000
    9.9367   -2.4780   21.9852 H   0  0  0  0  0  0  0  0  0  0  0  0
    9.0043   -1.9311   21.9860 C   0  0  0  0  0  0  0  0  0  0  0  0
    8.5162   -1.3450   20.8500 N   0  0  0  0  0  0  0  0  0  0  0  0
    7.3866   -0.7288   21.0623 C   0  0  0  0  0  0  0  0  0  0  0  0
    6.6493   -0.0211   20.0013 C   0  0  0  0  0  0  0  0  0  0  0  0
    7.1998    0.0004   18.7034 C   0  0  0  0  0  0  0  0  0  0  0  0
    8.1468   -0.4952   18.5045 H   0  0  0  0  0  0  0  0  0  0  0  0
    6.6288    0.6106   17.6606 N   0  0  0  0  0  0  0  0  0  0  0  0
    5.4690    1.2479   17.8731 C   0  0  0  0  0  0  0  0  0  0  0  0
    5.0333    1.7490   17.0107 H   0  0  0  0  0  0  0  0  0  0  0  0
    4.8317    1.2869   19.1153 C   0  0  0  0  0  0  0  0  0  0  0  0
    3.8976    1.8255   19.2278 H   0  0  0  0  0  0  0  0  0  0  0  0
    5.4251    0.6461   20.2014 C   0  0  0  0  0  0  0  0  0  0  0  0
    4.9373    0.6867   21.1765 H   0  0  0  0  0  0  0  0  0  0  0  0
    6.8316   -0.8188   22.7147 S   0  0  0  0  0  0  0  0  0  0  0  0
    8.2307   -1.7703   23.1068 C   0  0  0  0  0  0  0  0  0  0  0  0
    8.5055   -2.2754   24.3488 O   0  0  0  0  0  0  0  0  0  0  0  0
    7.3906   -1.9485   25.5403 S   0  0  0  0  0  0  0  0  0  0  0  0
    6.2204   -2.7178   25.2364 O   0  0  0  0  0  0  0  0  0  0  0  0
    7.4687   -0.5446   25.8057 O   0  0  0  0  0  0  0  0  0  0  0  0
    8.1708   -2.7136   26.7327 N   0  0  0  0  0  0  0  0  0  0  0  0
    9.0690   -2.2554   26.7316 H   0  0  0  0  0  0  0  0  0  0  0  0
    8.2589   -3.6491   26.3666 H   0  0  0  0  0  0  0  0  0  0  0  0
  1  2  1  0
  2  3  1  0
  3  4  2  0
  4  5  1  0
  5  6  2  0
  6  7  1  0
  6  8  1  0
  8  9  2  0
  9 10  1  0
  9 11  1  0
 11 12  1  0
 11 13  2  0
 13 14  1  0
  4 15  1  0
 15 16  1  0
 16 17  1  0
 17 18  1  0
 18 19  2  0
 18 20  2  0
 18 21  1  0
 21 22  1  0
 21 23  1  0
 16  2  2  0
 13  5  1  0
M  END
>  <plip>  (1) 
-0.07142857142857142

>  <filename>  (1) 
[H][c]1[n][c](-[c]2[c]([H])[n][c]([H])[c]([H])[c]2[H])[s][c]1[O][S](=[O])(=[O])[N]([H])[H]

$$$$
