
     RDKit          3D

 38 40  0  0  0  0  0  0  0  0999 V2000
    8.6603   -3.5830   22.2117 C   0  0  0  0  0  0  0  0  0  0  0  0
    8.1576   -2.2075   21.9595 C   0  0  0  0  0  0  0  0  0  0  0  0
    7.7005   -1.8782   20.7724 N   0  0  0  0  0  0  0  0  0  0  0  0
    7.2912   -0.6030   20.9474 N   0  0  0  0  0  0  0  0  0  0  0  0
    6.6146    0.0594   19.8984 C   0  0  0  0  0  0  0  0  0  0  0  0
    5.3887    0.6921   20.1196 C   0  0  0  0  0  0  0  0  0  0  0  0
    4.7804    1.3238   19.0355 C   0  0  0  0  0  0  0  0  0  0  0  0
    5.4196    1.2943   17.7922 C   0  0  0  0  0  0  0  0  0  0  0  0
    6.5712    0.6317   17.5651 N   0  0  0  0  0  0  0  0  0  0  0  0
    7.1474    0.0149   18.5994 C   0  0  0  0  0  0  0  0  0  0  0  0
    8.0668   -0.5405   18.4085 H   0  0  0  0  0  0  0  0  0  0  0  0
    5.0042    1.8316   16.9445 H   0  0  0  0  0  0  0  0  0  0  0  0
    3.8464    1.8567   19.1590 H   0  0  0  0  0  0  0  0  0  0  0  0
    4.9245    0.6572   21.1075 H   0  0  0  0  0  0  0  0  0  0  0  0
    7.5776   -0.2069   22.2218 C   0  0  0  0  0  0  0  0  0  0  0  0
    7.3615    1.1515   22.7959 C   0  0  0  0  0  0  0  0  0  0  0  0
    8.5764    1.6968   23.5841 C   0  0  0  0  0  0  0  0  0  0  0  0
    9.8004    1.8881   22.6710 C   0  0  0  0  0  0  0  0  0  0  0  0
   10.6580    2.2918   23.2198 H   0  0  0  0  0  0  0  0  0  0  0  0
   10.1075    0.9289   22.2389 H   0  0  0  0  0  0  0  0  0  0  0  0
    9.5803    2.5694   21.8388 H   0  0  0  0  0  0  0  0  0  0  0  0
    8.1750    2.9547   24.3289 C   0  0  0  0  0  0  0  0  0  0  0  0
    8.1467    2.9962   25.7303 C   0  0  0  0  0  0  0  0  0  0  0  0
    7.7361    4.1682   26.3697 C   0  0  0  0  0  0  0  0  0  0  0  0
    7.3494    5.2748   25.7245 N   0  0  0  0  0  0  0  0  0  0  0  0
    7.3653    5.2256   24.3834 C   0  0  0  0  0  0  0  0  0  0  0  0
    7.7610    4.1048   23.6530 C   0  0  0  0  0  0  0  0  0  0  0  0
    7.7221    4.1338   22.5680 H   0  0  0  0  0  0  0  0  0  0  0  0
    7.0421    6.1228   23.8611 H   0  0  0  0  0  0  0  0  0  0  0  0
    7.7228    4.2116   27.4584 H   0  0  0  0  0  0  0  0  0  0  0  0
    8.4239    2.1250   26.3139 H   0  0  0  0  0  0  0  0  0  0  0  0
    8.8396    0.9435   24.3333 H   0  0  0  0  0  0  0  0  0  0  0  0
    7.0990    1.8665   22.0127 H   0  0  0  0  0  0  0  0  0  0  0  0
    6.4952    1.1036   23.4644 H   0  0  0  0  0  0  0  0  0  0  0  0
    8.1114   -1.2161   22.8874 N   0  0  0  0  0  0  0  0  0  0  0  0
    9.6547   -3.5558   22.6610 H   0  0  0  0  0  0  0  0  0  0  0  0
    8.6843   -4.1080   21.2576 H   0  0  0  0  0  0  0  0  0  0  0  0
    7.9690   -4.1132   22.8722 H   0  0  0  0  0  0  0  0  0  0  0  0
  1  2  1  0
  2  3  2  0
  3  4  1  0
  4  5  1  0
  5  6  2  0
  6  7  1  0
  7  8  2  0
  8  9  1  0
  9 10  2  0
 10 11  1  0
  8 12  1  0
  7 13  1  0
  6 14  1  0
  4 15  1  0
 15 16  1  0
 16 17  1  0
 17 18  1  0
 18 19  1  0
 18 20  1  0
 18 21  1  0
 17 22  1  0
 22 23  2  0
 23 24  1  0
 24 25  2  0
 25 26  1  0
 26 27  2  0
 27 28  1  0
 26 29  1  0
 24 30  1  0
 23 31  1  0
 17 32  1  0
 16 33  1  0
 16 34  1  0
 15 35  2  0
  1 36  1  0
  1 37  1  0
  1 38  1  0
 35  2  1  0
 10  5  1  0
 27 22  1  0
M  END
>  <plip>  (1) 
-0.03571428571428571

>  <filename>  (1) 
[H][c]1[n][c]([H])[c](-[n]2[n][c]([C]([H])([H])[H])[n][c]2[C]([H])([H])[C]([H])([c]2[c]([H])[c]([H])[n][c]([H])[c]2[H])[C]([H])([H])[H])[c]([H])[c]1[H]

$$$$
