
     RDKit          3D

 23 24  0  0  0  0  0  0  0  0999 V2000
    8.8929    0.1781   20.4024 H   0  0  0  0  0  0  0  0  0  0  0  0
    8.6465   -0.5251   21.1076 N   0  0  0  0  0  0  0  0  0  0  0  0
    7.4055   -0.7937   20.9357 C   0  0  0  0  0  0  0  0  0  0  0  0
    6.6833   -1.8576   21.8178 C   0  0  0  0  0  0  0  0  0  0  0  0
    5.5542   -2.3990   21.5260 N   0  0  0  0  0  0  0  0  0  0  0  0
    5.2591   -3.3881   22.5688 C   0  0  0  0  0  0  0  0  0  0  0  0
    5.2197   -4.3907   22.1251 H   0  0  0  0  0  0  0  0  0  0  0  0
    4.2727   -3.1802   22.9946 H   0  0  0  0  0  0  0  0  0  0  0  0
    6.3939   -3.2809   23.6268 C   0  0  0  0  0  0  0  0  0  0  0  0
    6.0313   -2.9167   24.5996 H   0  0  0  0  0  0  0  0  0  0  0  0
    6.9122   -4.2323   23.7959 H   0  0  0  0  0  0  0  0  0  0  0  0
    7.2639   -2.3235   22.9778 N   0  0  0  0  0  0  0  0  0  0  0  0
    8.1793   -2.0416   23.2873 H   0  0  0  0  0  0  0  0  0  0  0  0
    6.6461   -0.0428   19.8786 C   0  0  0  0  0  0  0  0  0  0  0  0
    7.2094    0.0740   18.5957 C   0  0  0  0  0  0  0  0  0  0  0  0
    8.1687   -0.3943   18.3686 H   0  0  0  0  0  0  0  0  0  0  0  0
    6.6232    0.7088   17.5795 N   0  0  0  0  0  0  0  0  0  0  0  0
    5.4516    1.3179   17.8292 C   0  0  0  0  0  0  0  0  0  0  0  0
    4.9802    1.8030   16.9749 H   0  0  0  0  0  0  0  0  0  0  0  0
    4.8351    1.3124   19.0843 C   0  0  0  0  0  0  0  0  0  0  0  0
    3.8988    1.8427   19.2155 H   0  0  0  0  0  0  0  0  0  0  0  0
    5.4379    0.6160   20.1349 C   0  0  0  0  0  0  0  0  0  0  0  0
    5.0018    0.6030   21.1374 H   0  0  0  0  0  0  0  0  0  0  0  0
  1  2  1  0
  2  3  2  3
  3  4  1  0
  4  5  2  0
  5  6  1  0
  6  7  1  0
  6  8  1  0
  6  9  1  0
  9 10  1  0
  9 11  1  0
  9 12  1  0
 12 13  1  0
  3 14  1  0
 14 15  2  0
 15 16  1  0
 15 17  1  0
 17 18  2  0
 18 19  1  0
 18 20  1  0
 20 21  1  0
 20 22  2  0
 22 23  1  0
 12  4  1  0
 22 14  1  0
M  END
>  <plip>  (1) 
-0.07142857142857142

>  <filename>  (1) 
[H][N]=[C]([C]1=[N][C]([H])([H])[C]([H])([H])[N]1[H])[c]1[c]([H])[n][c]([H])[c]([H])[c]1[H]

$$$$
