
     RDKit          3D

 21 21  0  0  0  0  0  0  0  0999 V2000
    5.3778    0.1703   23.8034 H   0  0  0  0  0  0  0  0  0  0  0  0
    5.9334    1.0374   23.8420 N   0  0  0  0  0  0  0  0  0  0  0  0
    6.9663    0.9738   23.2191 N   0  0  0  0  0  4  0  0  0  0  0  0
    8.0536    1.0593   22.7022 N   0  0  0  0  0  0  0  0  0  0  0  0
    8.4353    0.2149   21.6154 C   0  0  0  0  0  0  0  0  0  0  0  0
    9.6587    0.3500   21.1110 C   0  0  0  0  0  0  0  0  0  0  0  0
   10.4078    1.0278   21.5074 H   0  0  0  0  0  0  0  0  0  0  0  0
    9.9405   -0.2663   20.2631 H   0  0  0  0  0  0  0  0  0  0  0  0
    7.3989   -0.7136   21.0047 C   0  0  0  0  0  0  0  0  0  0  0  0
    6.7047   -1.0889   21.7715 H   0  0  0  0  0  0  0  0  0  0  0  0
    7.9190   -1.5942   20.6078 H   0  0  0  0  0  0  0  0  0  0  0  0
    6.6435   -0.0044   19.8990 C   0  0  0  0  0  0  0  0  0  0  0  0
    7.1593    0.0637   18.5931 C   0  0  0  0  0  0  0  0  0  0  0  0
    8.1046   -0.4227   18.3546 H   0  0  0  0  0  0  0  0  0  0  0  0
    6.5581    0.6874   17.5748 N   0  0  0  0  0  0  0  0  0  0  0  0
    5.3955    1.3024   17.8298 C   0  0  0  0  0  0  0  0  0  0  0  0
    4.9182    1.7933   16.9843 H   0  0  0  0  0  0  0  0  0  0  0  0
    4.8009    1.3195   19.0928 C   0  0  0  0  0  0  0  0  0  0  0  0
    3.8706    1.8487   19.2450 H   0  0  0  0  0  0  0  0  0  0  0  0
    5.4289    0.6487   20.1423 C   0  0  0  0  0  0  0  0  0  0  0  0
    4.9902    0.6331   21.1405 H   0  0  0  0  0  0  0  0  0  0  0  0
  1  2  1  0
  2  3  2  0
  3  4  2  0
  4  5  1  0
  5  6  2  3
  6  7  1  0
  6  8  1  0
  5  9  1  0
  9 10  1  0
  9 11  1  0
  9 12  1  0
 12 13  2  0
 13 14  1  0
 13 15  1  0
 15 16  2  0
 16 17  1  0
 16 18  1  0
 18 19  1  0
 18 20  2  0
 20 21  1  0
 20 12  1  0
M  CHG  1   3   1
M  END
>  <plip>  (1) 
-0.10344827586206896

>  <filename>  (1) 
[H][N]=[N+]=[N][C](=[C]([H])[H])[C]([H])([H])[c]1[c]([H])[n][c]([H])[c]([H])[c]1[H]

$$$$
