
     RDKit          3D

 46 49  0  0  0  0  0  0  0  0999 V2000
    5.0651    1.8752   17.1492 H   0  0  0  0  0  0  0  0  0  0  0  0
    5.5212    1.4132   18.0223 C   0  0  0  0  0  0  0  0  0  0  0  0
    6.7419    0.8914   17.8424 N   0  0  0  0  0  0  0  0  0  0  0  0
    7.3327    0.3222   18.9016 C   0  0  0  0  0  0  0  0  0  0  0  0
    8.3436   -0.0395   18.7060 H   0  0  0  0  0  0  0  0  0  0  0  0
    6.7369    0.1636   20.1674 C   0  0  0  0  0  0  0  0  0  0  0  0
    7.5067   -0.5469   21.3005 C   0  0  2  0  0  0  0  0  0  0  0  0
    8.3468    0.4377   22.0463 N   0  0  0  0  0  0  0  0  0  0  0  0
    7.6038    1.4416   22.8076 C   0  0  0  0  0  0  0  0  0  0  0  0
    8.3159    2.0893   23.3338 H   0  0  0  0  0  0  0  0  0  0  0  0
    6.9747    0.9765   23.5744 H   0  0  0  0  0  0  0  0  0  0  0  0
    6.9696    2.0876   22.1754 H   0  0  0  0  0  0  0  0  0  0  0  0
    9.3975    1.0802   21.2400 C   0  0  0  0  0  0  0  0  0  0  0  0
    9.0308    2.0181   20.7867 H   0  0  0  0  0  0  0  0  0  0  0  0
    9.6550    0.4347   20.3902 H   0  0  0  0  0  0  0  0  0  0  0  0
   10.7018    1.3443   21.9895 C   0  0  0  0  0  0  0  0  0  0  0  0
   11.1561    2.6419   22.2822 C   0  0  0  0  0  0  0  0  0  0  0  0
   10.5212    3.5080   22.0863 H   0  0  0  0  0  0  0  0  0  0  0  0
   12.4347    2.8491   22.8184 C   0  0  0  0  0  0  0  0  0  0  0  0
   12.7619    3.8619   23.0363 H   0  0  0  0  0  0  0  0  0  0  0  0
   13.2915    1.7679   23.0482 C   0  0  0  0  0  0  0  0  0  0  0  0
   14.3062    1.9268   23.3995 H   0  0  0  0  0  0  0  0  0  0  0  0
   12.8348    0.4690   22.8054 C   0  0  0  0  0  0  0  0  0  0  0  0
   13.4924   -0.3810   22.9741 H   0  0  0  0  0  0  0  0  0  0  0  0
   11.5401    0.2643   22.3178 C   0  0  0  0  0  0  0  0  0  0  0  0
   11.1768   -0.7551   22.1909 H   0  0  0  0  0  0  0  0  0  0  0  0
    8.4331   -1.7325   20.8224 C   0  0  0  0  0  0  0  0  0  0  0  0
    8.3266   -1.8275   19.7476 H   0  0  0  0  0  0  0  0  0  0  0  0
    9.4780   -1.5211   21.0629 H   0  0  0  0  0  0  0  0  0  0  0  0
    8.0046   -2.9862   21.6248 C   0  0  2  0  0  0  0  0  0  0  0  0
    8.7882   -3.7438   21.6916 H   0  0  0  0  0  0  0  0  0  0  0  0
    6.6605   -3.5248   21.1147 C   0  0  0  0  0  0  0  0  0  0  0  0
    6.3960   -4.4504   21.6433 H   0  0  0  0  0  0  0  0  0  0  0  0
    6.6540   -3.7560   20.0460 H   0  0  0  0  0  0  0  0  0  0  0  0
    5.6962   -2.3653   21.4797 C   0  0  0  0  0  0  0  0  0  0  0  0
    5.3199   -1.8941   20.5682 H   0  0  0  0  0  0  0  0  0  0  0  0
    4.8558   -2.7356   22.0751 H   0  0  0  0  0  0  0  0  0  0  0  0
    6.5983   -1.3753   22.2762 C   0  0  1  0  0  0  0  0  0  0  0  0
    6.0719   -0.7285   22.9718 H   0  0  0  0  0  0  0  0  0  0  0  0
    7.5833   -2.3414   22.9490 C   0  0  0  0  0  0  0  0  0  0  0  0
    8.4042   -1.8454   23.4769 H   0  0  0  0  0  0  0  0  0  0  0  0
    7.0986   -3.0360   23.6453 H   0  0  0  0  0  0  0  0  0  0  0  0
    5.4747    0.7680   20.3407 C   0  0  0  0  0  0  0  0  0  0  0  0
    4.9754    0.7647   21.3123 H   0  0  0  0  0  0  0  0  0  0  0  0
    4.8540    1.3890   19.2491 C   0  0  0  0  0  0  0  0  0  0  0  0
    3.8914    1.8834   19.3416 H   0  0  0  0  0  0  0  0  0  0  0  0
  1  2  1  0
  2  3  2  0
  3  4  1  0
  4  5  1  0
  4  6  2  0
  6  7  1  0
  7  8  1  1
  8  9  1  0
  9 10  1  0
  9 11  1  0
  9 12  1  0
  8 13  1  0
 13 14  1  0
 13 15  1  0
 13 16  1  0
 16 17  2  0
 17 18  1  0
 17 19  1  0
 19 20  1  0
 19 21  2  0
 21 22  1  0
 21 23  1  0
 23 24  1  0
 23 25  2  0
 25 26  1  0
  7 27  1  0
 27 28  1  0
 27 29  1  0
 27 30  1  0
 30 31  1  1
 30 32  1  0
 32 33  1  0
 32 34  1  0
 32 35  1  0
 35 36  1  0
 35 37  1  0
 35 38  1  0
 38 39  1  1
 38 40  1  0
 40 41  1  0
 40 42  1  0
  6 43  1  0
 43 44  1  0
 43 45  2  0
 45 46  1  0
 45  2  1  0
 38  7  1  0
 25 16  1  0
 40 30  1  0
M  END
>  <plip>  (1) 
-0.034482758620689655

>  <filename>  (1) 
[H][c]1[n][c]([H])[c]([C@]2([N]([C]([H])([H])[H])[C]([H])([H])[c]3[c]([H])[c]([H])[c]([H])[c]([H])[c]3[H])[C]([H])([H])[C@]3([H])[C]([H])([H])[C]([H])([H])[C@@]2([H])[C]3([H])[H])[c]([H])[c]1[H]

$$$$
