
     RDKit          3D

 28 30  0  0  0  0  0  0  0  0999 V2000
    4.9365    1.8360   16.9896 H   0  0  0  0  0  0  0  0  0  0  0  0
    5.3998    1.2847   17.8077 C   0  0  0  0  0  0  0  0  0  0  0  0
    6.5433    0.6406   17.5234 N   0  0  0  0  0  0  0  0  0  0  0  0
    7.1522   -0.0083   18.5261 C   0  0  0  0  0  0  0  0  0  0  0  0
    8.0785   -0.5255   18.2733 H   0  0  0  0  0  0  0  0  0  0  0  0
    6.6674   -0.0530   19.8499 C   0  0  0  0  0  0  0  0  0  0  0  0
    7.5728   -0.9106   21.1278 S   0  0  0  0  0  0  0  0  0  0  0  0
    8.6398    0.4486   21.7641 C   0  0  0  0  0  0  0  0  0  0  0  0
    9.3654   -0.0494   22.4172 H   0  0  0  0  0  0  0  0  0  0  0  0
    9.2083    0.8407   20.9123 H   0  0  0  0  0  0  0  0  0  0  0  0
    7.8636    1.5491   22.4617 C   0  0  0  0  0  0  0  0  0  0  0  0
    7.6590    2.7565   21.7303 C   0  0  0  0  0  0  0  0  0  0  0  0
    8.2014    2.8582   20.7978 H   0  0  0  0  0  0  0  0  0  0  0  0
    6.8478    3.7798   22.1835 C   0  0  0  0  0  0  0  0  0  0  0  0
    6.6655    4.6541   21.5626 H   0  0  0  0  0  0  0  0  0  0  0  0
    6.2837    3.6142   23.4684 C   0  0  0  0  0  0  0  0  0  0  0  0
    6.5027    2.4543   24.2513 C   0  0  0  0  0  0  0  0  0  0  0  0
    5.7766    2.7254   25.4564 C   0  0  0  0  0  0  0  0  0  0  0  0
    5.6886    2.0954   26.3337 H   0  0  0  0  0  0  0  0  0  0  0  0
    5.1760    3.9000   25.4198 N   0  0  0  0  0  0  0  0  0  0  0  0
    5.4871    4.4282   24.2137 N   0  0  0  0  0  0  0  0  0  0  0  0
    5.1488    5.3409   23.9545 H   0  0  0  0  0  0  0  0  0  0  0  0
    7.2921    1.3854   23.7210 C   0  0  0  0  0  0  0  0  0  0  0  0
    7.4426    0.4572   24.2783 H   0  0  0  0  0  0  0  0  0  0  0  0
    5.4542    0.5992   20.1182 C   0  0  0  0  0  0  0  0  0  0  0  0
    5.0522    0.5977   21.1347 H   0  0  0  0  0  0  0  0  0  0  0  0
    4.8103    1.2751   19.0763 C   0  0  0  0  0  0  0  0  0  0  0  0
    3.8698    1.7918   19.2358 H   0  0  0  0  0  0  0  0  0  0  0  0
  1  2  1  0
  2  3  2  0
  3  4  1  0
  4  5  1  0
  4  6  2  0
  6  7  1  0
  7  8  1  0
  8  9  1  0
  8 10  1  0
  8 11  1  0
 11 12  2  0
 12 13  1  0
 12 14  1  0
 14 15  1  0
 14 16  2  0
 16 17  1  0
 17 18  1  0
 18 19  1  0
 18 20  2  0
 20 21  1  0
 21 22  1  0
 17 23  2  0
 23 24  1  0
  6 25  1  0
 25 26  1  0
 25 27  2  0
 27 28  1  0
 27  2  1  0
 23 11  1  0
 21 16  1  0
M  END
>  <plip>  (1) 
-0.07142857142857142

>  <filename>  (1) 
[H][c]1[n][c]([H])[c]([S][C]([H])([H])[c]2[c]([H])[c]([H])[c]3[c]([c]([H])[n][n]3[H])[c]2[H])[c]([H])[c]1[H]

$$$$
