
     RDKit          3D

 39 42  0  0  0  0  0  0  0  0999 V2000
    8.8571   -3.3464   22.0456 C   0  0  0  0  0  0  0  0  0  0  0  0
    8.2508   -2.0352   21.9849 N   0  0  0  0  0  0  0  0  0  0  0  0
    7.9606   -1.2422   23.0229 C   0  0  0  0  0  0  0  0  0  0  0  0
    7.3050   -0.1350   22.5035 C   0  0  0  0  0  0  0  0  0  0  0  0
    6.8255    1.0417   23.2420 C   0  0  0  0  0  0  0  0  0  0  0  0
    6.4136    0.9472   24.3949 O   0  0  0  0  0  0  0  0  0  0  0  0
    6.8651    2.2505   22.5945 N   0  0  0  0  0  0  0  0  0  0  0  0
    7.9596    2.7355   21.7161 C   0  0  0  0  0  0  0  0  0  0  0  0
    7.8251    4.2615   21.9057 C   0  0  0  0  0  0  0  0  0  0  0  0
    8.2973    4.6388   23.3293 C   0  0  0  0  0  0  0  0  0  0  0  0
    7.1583    4.0660   24.2272 C   0  0  0  0  0  0  0  0  0  0  0  0
    6.2090    3.4390   23.1816 C   0  0  0  0  0  0  0  0  0  0  0  0
    6.2999    4.3921   21.9971 C   0  0  0  0  0  0  0  0  0  0  0  0
    5.7848    3.9946   21.1126 H   0  0  0  0  0  0  0  0  0  0  0  0
    5.9349    5.4071   22.1889 H   0  0  0  0  0  0  0  0  0  0  0  0
    5.2107    3.2249   23.5679 H   0  0  0  0  0  0  0  0  0  0  0  0
    7.5014    3.3059   24.9358 H   0  0  0  0  0  0  0  0  0  0  0  0
    6.6473    4.8616   24.7845 H   0  0  0  0  0  0  0  0  0  0  0  0
    9.2816    4.2096   23.5551 H   0  0  0  0  0  0  0  0  0  0  0  0
    8.3707    5.7298   23.4118 H   0  0  0  0  0  0  0  0  0  0  0  0
    8.2872    4.8685   21.1292 H   0  0  0  0  0  0  0  0  0  0  0  0
    7.7639    2.4112   20.6870 H   0  0  0  0  0  0  0  0  0  0  0  0
    8.9442    2.3493   22.0218 H   0  0  0  0  0  0  0  0  0  0  0  0
    7.2019   -0.3967   21.1089 C   0  0  0  0  0  0  0  0  0  0  0  0
    6.5130    0.3091   20.0181 C   0  0  0  0  0  0  0  0  0  0  0  0
    5.2717    0.9663   20.0992 C   0  0  0  0  0  0  0  0  0  0  0  0
    4.7296    1.4949   18.9257 C   0  0  0  0  0  0  0  0  0  0  0  0
    5.4406    1.3795   17.7245 C   0  0  0  0  0  0  0  0  0  0  0  0
    6.6149    0.7390   17.6272 N   0  0  0  0  0  0  0  0  0  0  0  0
    7.1153    0.2194   18.7468 C   0  0  0  0  0  0  0  0  0  0  0  0
    8.0652   -0.2970   18.6455 H   0  0  0  0  0  0  0  0  0  0  0  0
    5.0560    1.8194   16.8070 H   0  0  0  0  0  0  0  0  0  0  0  0
    3.7771    2.0135   18.9292 H   0  0  0  0  0  0  0  0  0  0  0  0
    4.7319    1.0731   21.0424 H   0  0  0  0  0  0  0  0  0  0  0  0
    7.8140   -1.5417   20.8270 N   0  0  0  0  0  0  0  0  0  0  0  0
    8.2130   -1.5333   24.0355 H   0  0  0  0  0  0  0  0  0  0  0  0
    8.8762   -3.7311   21.0257 H   0  0  0  0  0  0  0  0  0  0  0  0
    8.2532   -4.0002   22.6826 H   0  0  0  0  0  0  0  0  0  0  0  0
    9.8701   -3.2736   22.4537 H   0  0  0  0  0  0  0  0  0  0  0  0
  1  2  1  0
  2  3  1  0
  3  4  2  0
  4  5  1  0
  5  6  2  0
  5  7  1  0
  7  8  1  0
  8  9  1  0
  9 10  1  0
 10 11  1  0
 11 12  1  0
 12 13  1  0
 13 14  1  0
 13 15  1  0
 12 16  1  0
 11 17  1  0
 11 18  1  0
 10 19  1  0
 10 20  1  0
  9 21  1  0
  8 22  1  0
  8 23  1  0
  4 24  1  0
 24 25  1  0
 25 26  2  0
 26 27  1  0
 27 28  2  0
 28 29  1  0
 29 30  2  0
 30 31  1  0
 28 32  1  0
 27 33  1  0
 26 34  1  0
 24 35  2  0
  3 36  1  0
  1 37  1  0
  1 38  1  0
  1 39  1  0
 35  2  1  0
 12  7  1  0
 30 25  1  0
 13  9  1  0
M  END
>  <plip>  (1) 
-0.03571428571428571

>  <filename>  (1) 
[H][c]1[n][c]([H])[c](-[c]2[n][n]([C]([H])([H])[H])[c]([H])[c]2[C](=[O])[N]2[C]([H])([H])[C]3([H])[C]([H])([H])[C]([H])([H])[C]2([H])[C]3([H])[H])[c]([H])[c]1[H]

$$$$
