
     RDKit          3D

 31 32  0  0  0  0  0  0  0  0999 V2000
    5.0790    1.7935   16.9123 H   0  0  0  0  0  0  0  0  0  0  0  0
    5.4579    1.2957   17.8014 C   0  0  0  0  0  0  0  0  0  0  0  0
    6.5638    0.5548   17.6205 N   0  0  0  0  0  0  0  0  0  0  0  0
    7.0577   -0.0734   18.6911 C   0  0  0  0  0  0  0  0  0  0  0  0
    7.9613   -0.6702   18.5499 H   0  0  0  0  0  0  0  0  0  0  0  0
    6.4920    0.0171   19.9703 C   0  0  0  0  0  0  0  0  0  0  0  0
    7.0917   -0.7435   21.1104 C   0  0  0  0  0  0  0  0  0  0  0  0
    7.9923    0.6811   22.6107 S   0  0  0  0  0  0  0  0  0  0  0  0
    6.9772    1.6361   23.0443 O   0  0  0  0  0  0  0  0  0  0  0  0
    8.6780   -0.1541   23.6061 O   0  0  0  0  0  0  0  0  0  0  0  0
    9.1542    1.5880   21.8022 N   0  0  0  0  0  0  0  0  0  0  0  0
   10.1947    0.7858   21.1762 C   0  0  0  0  0  0  0  0  0  0  0  0
    9.7369    0.0487   20.4986 H   0  0  0  0  0  0  0  0  0  0  0  0
   10.8372    1.4683   20.6064 H   0  0  0  0  0  0  0  0  0  0  0  0
   10.8105    0.2396   21.8988 H   0  0  0  0  0  0  0  0  0  0  0  0
    9.4778    2.8892   22.4018 C   0  0  0  0  0  0  0  0  0  0  0  0
    8.6864    3.6055   22.1597 H   0  0  0  0  0  0  0  0  0  0  0  0
   10.4110    3.2473   21.9547 H   0  0  0  0  0  0  0  0  0  0  0  0
    9.5997    2.8702   23.4951 H   0  0  0  0  0  0  0  0  0  0  0  0
    8.0162   -1.7104   20.6627 O   0  0  0  0  0  0  0  0  0  0  0  0
    7.5371   -2.9856   21.1064 C   0  0  0  0  0  0  0  0  0  0  0  0
    8.4070   -3.6201   21.3030 H   0  0  0  0  0  0  0  0  0  0  0  0
    6.9212   -3.4445   20.3206 H   0  0  0  0  0  0  0  0  0  0  0  0
    6.7100   -2.5943   22.3108 C   0  0  0  0  0  0  0  0  0  0  0  0
    7.3573   -2.3300   23.1573 H   0  0  0  0  0  0  0  0  0  0  0  0
    5.9249   -3.2867   22.6100 H   0  0  0  0  0  0  0  0  0  0  0  0
    6.1005   -1.4171   21.7947 O   0  0  0  0  0  0  0  0  0  0  0  0
    5.3208    0.7677   20.1431 C   0  0  0  0  0  0  0  0  0  0  0  0
    4.8293    0.8038   21.1178 H   0  0  0  0  0  0  0  0  0  0  0  0
    4.8014    1.4283   19.0304 C   0  0  0  0  0  0  0  0  0  0  0  0
    3.8995    2.0259   19.0999 H   0  0  0  0  0  0  0  0  0  0  0  0
  1  2  1  0
  2  3  2  0
  3  4  1  0
  4  5  1  0
  4  6  2  0
  6  7  1  0
  7  8  1  0
  8  9  2  0
  8 10  2  0
  8 11  1  0
 11 12  1  0
 12 13  1  0
 12 14  1  0
 12 15  1  0
 11 16  1  0
 16 17  1  0
 16 18  1  0
 16 19  1  0
  7 20  1  0
 20 21  1  0
 21 22  1  0
 21 23  1  0
 21 24  1  0
 24 25  1  0
 24 26  1  0
 24 27  1  0
  6 28  1  0
 28 29  1  0
 28 30  2  0
 30 31  1  0
 30  2  1  0
 27  7  1  0
M  END
>  <plip>  (1) 
-0.10714285714285714

>  <filename>  (1) 
[H][c]1[n][c]([H])[c]([C]2([S](=[O])(=[O])[N]([C]([H])([H])[H])[C]([H])([H])[H])[O][C]([H])([H])[C]([H])([H])[O]2)[c]([H])[c]1[H]

$$$$
