
     RDKit          3D

 25 27  0  0  0  0  0  0  0  0999 V2000
    4.7378    1.3380   19.0176 C   0  0  0  0  0  0  0  0  0  0  0  0
    5.3992    1.3141   17.7841 C   0  0  0  0  0  0  0  0  0  0  0  0
    6.5485    0.6510   17.5864 N   0  0  0  0  0  0  0  0  0  0  0  0
    7.0814    0.0183   18.6404 C   0  0  0  0  0  0  0  0  0  0  0  0
    6.5103   -0.0140   19.9297 C   0  0  0  0  0  0  0  0  0  0  0  0
    7.2644   -0.6323   21.0346 C   0  0  0  0  0  0  0  0  0  0  0  0
    8.6207   -0.5485   21.2720 C   0  0  0  0  0  0  0  0  0  0  0  0
    9.8771   -0.0333   20.6715 C   0  0  0  0  0  0  0  0  0  0  0  0
   10.9369   -0.2236   21.7761 N   0  0  0  0  0  4  0  0  0  0  0  0
   10.2621   -1.0127   22.9466 C   0  0  0  0  0  0  0  0  0  0  0  0
    8.8276   -1.1286   22.5131 C   0  0  0  0  0  0  0  0  0  0  0  0
    7.7215   -1.6026   23.0557 N   0  0  0  0  0  0  0  0  0  0  0  0
    6.7670   -1.2803   22.1377 N   0  0  0  0  0  0  0  0  0  0  0  0
    5.8004   -1.5011   22.3475 H   0  0  0  0  0  0  0  0  0  0  0  0
   10.3686   -0.4491   23.8734 H   0  0  0  0  0  0  0  0  0  0  0  0
   10.7299   -1.9874   23.0703 H   0  0  0  0  0  0  0  0  0  0  0  0
   11.7474   -0.7658   21.4054 H   0  0  0  0  0  0  0  0  0  0  0  0
   11.2343    0.7248   22.1158 H   0  0  0  0  0  0  0  0  0  0  0  0
    9.8041    1.0212   20.3963 H   0  0  0  0  0  0  0  0  0  0  0  0
   10.1794   -0.5846   19.7768 H   0  0  0  0  0  0  0  0  0  0  0  0
    5.2895    0.6626   20.1066 C   0  0  0  0  0  0  0  0  0  0  0  0
    4.8004    0.6987   21.0839 H   0  0  0  0  0  0  0  0  0  0  0  0
    8.0081   -0.5146   18.4408 H   0  0  0  0  0  0  0  0  0  0  0  0
    4.9974    1.8522   16.9244 H   0  0  0  0  0  0  0  0  0  0  0  0
    3.8207    1.9060   19.1106 H   0  0  0  0  0  0  0  0  0  0  0  0
  1  2  2  0
  2  3  1  0
  3  4  2  0
  4  5  1  0
  5  6  1  0
  6  7  2  0
  7  8  1  0
  8  9  1  0
  9 10  1  0
 10 11  1  0
 11 12  2  0
 12 13  1  0
 13 14  1  0
 10 15  1  0
 10 16  1  0
  9 17  1  0
  9 18  1  0
  8 19  1  0
  8 20  1  0
  5 21  2  0
 21 22  1  0
  4 23  1  0
  2 24  1  0
  1 25  1  0
 21  1  1  0
 13  6  1  0
 11  7  1  0
M  CHG  1   9   1
M  END
>  <plip>  (1) 
-0.034482758620689655

>  <filename>  (1) 
[H][c]1[n][c]([H])[c](-[c]2[c]3[c]([n][n]2[H])[C]([H])([H])[N+]([H])([H])[C]3([H])[H])[c]([H])[c]1[H]

$$$$
