
     RDKit          3D

 25 27  0  0  0  0  0  0  0  0999 V2000
    9.6724   -3.6010   26.7339 H   0  0  0  0  0  0  0  0  0  0  0  0
    8.9851   -3.0282   26.1277 C   0  0  0  0  0  0  0  0  0  0  0  0
    7.8367   -2.4283   26.4295 C   0  0  0  0  0  0  0  0  0  0  0  0
    7.2939   -2.3563   27.3605 H   0  0  0  0  0  0  0  0  0  0  0  0
    7.2961   -1.7784   25.1961 C   0  0  0  0  0  0  0  0  0  0  0  0
    6.2785   -1.1443   25.0884 O   0  0  0  0  0  0  0  0  0  0  0  0
    8.2035   -2.0482   24.1817 N   0  0  0  0  0  0  0  0  0  0  0  0
    8.0664   -1.6176   22.8731 C   0  0  0  0  0  0  0  0  0  0  0  0
    8.9659   -1.9161   21.9684 N   0  0  0  0  0  0  0  0  0  0  0  0
    8.5188   -1.3376   20.8064 O   0  0  0  0  0  0  0  0  0  0  0  0
    7.3520   -0.7006   21.0312 C   0  0  0  0  0  0  0  0  0  0  0  0
    6.6696   -0.0043   19.9235 C   0  0  0  0  0  0  0  0  0  0  0  0
    7.1868    0.0430   18.6148 C   0  0  0  0  0  0  0  0  0  0  0  0
    8.1328   -0.4295   18.3576 H   0  0  0  0  0  0  0  0  0  0  0  0
    6.5729    0.6633   17.6007 N   0  0  0  0  0  0  0  0  0  0  0  0
    5.4091    1.2840   17.8420 C   0  0  0  0  0  0  0  0  0  0  0  0
    4.9363    1.7835   16.9951 H   0  0  0  0  0  0  0  0  0  0  0  0
    4.8140    1.3048   19.1041 C   0  0  0  0  0  0  0  0  0  0  0  0
    3.8835    1.8365   19.2486 H   0  0  0  0  0  0  0  0  0  0  0  0
    5.4473    0.6478   20.1561 C   0  0  0  0  0  0  0  0  0  0  0  0
    5.0017    0.6442   21.1508 H   0  0  0  0  0  0  0  0  0  0  0  0
    7.0096   -0.8438   22.3370 C   0  0  0  0  0  0  0  0  0  0  0  0
    6.1617   -0.4795   22.8878 H   0  0  0  0  0  0  0  0  0  0  0  0
    9.2708   -2.8099   24.6766 C   0  0  0  0  0  0  0  0  0  0  0  0
   10.2173   -3.2064   24.0610 O   0  0  0  0  0  0  0  0  0  0  0  0
  1  2  1  0
  2  3  2  0
  3  4  1  0
  3  5  1  0
  5  6  2  0
  5  7  1  0
  7  8  1  0
  8  9  2  0
  9 10  1  0
 10 11  1  0
 11 12  1  0
 12 13  2  0
 13 14  1  0
 13 15  1  0
 15 16  2  0
 16 17  1  0
 16 18  1  0
 18 19  1  0
 18 20  2  0
 20 21  1  0
 11 22  2  0
 22 23  1  0
  7 24  1  0
 24 25  2  0
 24  2  1  0
 22  8  1  0
 20 12  1  0
M  END
>  <plip>  (1) 
-0.03571428571428571

>  <filename>  (1) 
[H][C]1=[C]([H])[C](=[O])[N]([c]2[n][o][c](-[c]3[c]([H])[n][c]([H])[c]([H])[c]3[H])[c]2[H])[C]1=[O]

$$$$
