
     RDKit          3D

 30 31  0  0  0  0  0  0  0  0999 V2000
   11.0869   -6.9585   25.4078 H   0  0  0  0  0  0  0  0  0  0  0  0
   10.5035   -6.3694   25.9081 O   0  0  0  0  0  0  0  0  0  0  0  0
   10.0025   -5.4232   25.0437 C   0  0  0  0  0  0  0  0  0  0  0  0
   10.4208   -4.1076   25.1936 C   0  0  0  0  0  0  0  0  0  0  0  0
   11.1327   -3.9741   25.9916 H   0  0  0  0  0  0  0  0  0  0  0  0
    9.9163   -3.0830   24.3838 C   0  0  0  0  0  0  0  0  0  0  0  0
   10.2647   -2.0585   24.4933 H   0  0  0  0  0  0  0  0  0  0  0  0
    8.9396   -3.4066   23.4339 C   0  0  0  0  0  0  0  0  0  0  0  0
    8.3380   -2.5271   22.5756 O   0  0  0  0  0  0  0  0  0  0  0  0
    8.3254   -1.1672   22.9628 N   0  0  0  0  0  0  0  0  0  0  0  0
    7.6710   -1.0449   23.7288 H   0  0  0  0  0  0  0  0  0  0  0  0
    7.6576   -0.3845   22.0096 C   0  0  0  0  0  0  0  0  0  0  0  0
    7.5063   -0.6767   20.8024 N   0  0  0  0  0  0  0  0  0  0  0  0
    6.7444    0.0347   19.8667 C   0  0  0  0  0  0  0  0  0  0  0  0
    7.1959    0.0673   18.5210 C   0  0  0  0  0  0  0  0  0  0  0  0
    8.1220   -0.4560   18.2873 H   0  0  0  0  0  0  0  0  0  0  0  0
    6.5640    0.6912   17.5214 N   0  0  0  0  0  0  0  0  0  0  0  0
    5.4068    1.3159   17.8175 C   0  0  0  0  0  0  0  0  0  0  0  0
    4.9324    1.8490   16.9964 H   0  0  0  0  0  0  0  0  0  0  0  0
    4.8328    1.2968   19.0912 C   0  0  0  0  0  0  0  0  0  0  0  0
    3.8952    1.8141   19.2700 H   0  0  0  0  0  0  0  0  0  0  0  0
    5.5051    0.6359   20.1329 C   0  0  0  0  0  0  0  0  0  0  0  0
    5.0831    0.5659   21.1351 H   0  0  0  0  0  0  0  0  0  0  0  0
    7.2826    0.7393   22.7085 N   0  0  0  0  0  0  0  0  0  0  0  0
    8.0825    0.9069   23.3000 H   0  0  0  0  0  0  0  0  0  0  0  0
    7.1302    1.5031   22.0601 H   0  0  0  0  0  0  0  0  0  0  0  0
    8.5272   -4.7377   23.2636 C   0  0  0  0  0  0  0  0  0  0  0  0
    7.7946   -4.9565   22.4936 H   0  0  0  0  0  0  0  0  0  0  0  0
    9.0506   -5.7414   24.0730 C   0  0  0  0  0  0  0  0  0  0  0  0
    8.7386   -6.7699   23.9615 H   0  0  0  0  0  0  0  0  0  0  0  0
  1  2  1  0
  2  3  1  0
  3  4  2  0
  4  5  1  0
  4  6  1  0
  6  7  1  0
  6  8  2  0
  8  9  1  0
  9 10  1  0
 10 11  1  0
 10 12  1  0
 12 13  2  3
 13 14  1  0
 14 15  2  0
 15 16  1  0
 15 17  1  0
 17 18  2  0
 18 19  1  0
 18 20  1  0
 20 21  1  0
 20 22  2  0
 22 23  1  0
 12 24  1  0
 24 25  1  0
 24 26  1  0
  8 27  1  0
 27 28  1  0
 27 29  2  0
 29 30  1  0
 29  3  1  0
 22 14  1  0
M  END
>  <plip>  (1) 
-0.13333333333333333

>  <filename>  (1) 
[H][O][c]1[c]([H])[c]([H])[c]([O][N]([H])[C](=[N][c]2[c]([H])[n][c]([H])[c]([H])[c]2[H])[N]([H])[H])[c]([H])[c]1[H]

$$$$
