
     RDKit          3D

 41 43  0  0  0  0  0  0  0  0999 V2000
    4.9529    1.8853   16.9264 H   0  0  0  0  0  0  0  0  0  0  0  0
    5.4149    1.3598   17.7601 C   0  0  0  0  0  0  0  0  0  0  0  0
    6.5710    0.7365   17.4930 N   0  0  0  0  0  0  0  0  0  0  0  0
    7.1544    0.0721   18.4982 C   0  0  0  0  0  0  0  0  0  0  0  0
    8.1042   -0.4105   18.2656 H   0  0  0  0  0  0  0  0  0  0  0  0
    6.6221   -0.0152   19.7929 C   0  0  0  0  0  0  0  0  0  0  0  0
    7.2634   -0.8673   20.8531 C   0  0  0  0  0  0  0  0  0  0  0  0
    8.3197   -1.0574   20.6155 H   0  0  0  0  0  0  0  0  0  0  0  0
    7.2114   -0.3456   21.8145 H   0  0  0  0  0  0  0  0  0  0  0  0
    6.5915   -2.1555   21.0430 N   0  0  0  0  0  0  0  0  0  0  0  0
    6.2217   -2.9216   19.9957 N   0  0  0  0  0  0  0  0  0  0  0  0
    5.7905   -4.0453   20.5396 C   0  0  0  0  0  0  0  0  0  0  0  0
    5.4476   -4.8331   19.8718 H   0  0  0  0  0  0  0  0  0  0  0  0
    5.8562   -4.0320   21.9472 C   0  0  0  0  0  0  0  0  0  0  0  0
    5.5974   -4.8128   22.6460 H   0  0  0  0  0  0  0  0  0  0  0  0
    6.4106   -2.7986   22.2409 C   0  0  0  0  0  0  0  0  0  0  0  0
    6.7646   -2.1942   23.4313 N   0  0  0  0  0  0  0  0  0  0  0  0
    6.0381   -2.4887   24.6643 C   0  0  0  0  0  0  0  0  0  0  0  0
    5.1810   -1.8112   24.7799 H   0  0  0  0  0  0  0  0  0  0  0  0
    5.6294   -3.5072   24.6529 H   0  0  0  0  0  0  0  0  0  0  0  0
    7.0799   -2.2872   25.7738 C   0  0  0  0  0  0  0  0  0  0  0  0
    6.6360   -1.9136   26.7035 H   0  0  0  0  0  0  0  0  0  0  0  0
    7.5788   -3.2389   25.9971 H   0  0  0  0  0  0  0  0  0  0  0  0
    8.1224   -1.3385   25.1551 C   0  0  1  0  0  0  0  0  0  0  0  0
    7.6914   -0.3132   25.1115 H   0  0  0  0  0  0  0  0  0  0  0  0
    9.4313   -1.3519   25.8176 N   0  0  0  0  0  0  0  0  0  0  0  0
    9.3957   -1.0781   27.2531 C   0  0  0  0  0  0  0  0  0  0  0  0
    8.5791   -1.6031   27.7510 H   0  0  0  0  0  0  0  0  0  0  0  0
   10.3167   -1.4452   27.7062 H   0  0  0  0  0  0  0  0  0  0  0  0
    9.3089   -0.0102   27.5192 H   0  0  0  0  0  0  0  0  0  0  0  0
   10.4014   -0.4679   25.1689 C   0  0  0  0  0  0  0  0  0  0  0  0
   10.0220    0.5593   25.0224 H   0  0  0  0  0  0  0  0  0  0  0  0
   10.6876   -0.8441   24.1821 H   0  0  0  0  0  0  0  0  0  0  0  0
   11.3099   -0.3846   25.7754 H   0  0  0  0  0  0  0  0  0  0  0  0
    8.1702   -1.9161   23.7322 C   0  0  0  0  0  0  0  0  0  0  0  0
    8.7693   -2.8438   23.7379 H   0  0  0  0  0  0  0  0  0  0  0  0
    8.6319   -1.2353   23.0126 H   0  0  0  0  0  0  0  0  0  0  0  0
    5.4253    0.6553   20.0572 C   0  0  0  0  0  0  0  0  0  0  0  0
    4.9961    0.6206   21.0618 H   0  0  0  0  0  0  0  0  0  0  0  0
    4.8055    1.3565   19.0205 C   0  0  0  0  0  0  0  0  0  0  0  0
    3.8773    1.8953   19.1720 H   0  0  0  0  0  0  0  0  0  0  0  0
  1  2  1  0
  2  3  2  0
  3  4  1  0
  4  5  1  0
  4  6  2  0
  6  7  1  0
  7  8  1  0
  7  9  1  0
  7 10  1  0
 10 11  1  0
 11 12  2  0
 12 13  1  0
 12 14  1  0
 14 15  1  0
 14 16  2  0
 16 17  1  0
 17 18  1  0
 18 19  1  0
 18 20  1  0
 18 21  1  0
 21 22  1  0
 21 23  1  0
 21 24  1  0
 24 25  1  6
 24 26  1  0
 26 27  1  0
 27 28  1  0
 27 29  1  0
 27 30  1  0
 26 31  1  0
 31 32  1  0
 31 33  1  0
 31 34  1  0
 24 35  1  0
 35 36  1  0
 35 37  1  0
  6 38  1  0
 38 39  1  0
 38 40  2  0
 40 41  1  0
 40  2  1  0
 16 10  1  0
 35 17  1  0
M  END
>  <plip>  (1) 
-0.10714285714285714

>  <filename>  (1) 
[H][c]1[n][c]([H])[c]([C]([H])([H])[n]2[n][c]([H])[c]([H])[c]2[N]2[C]([H])([H])[C]([H])([H])[C@@]([H])([N]([C]([H])([H])[H])[C]([H])([H])[H])[C]2([H])[H])[c]([H])[c]1[H]

$$$$
