
     RDKit          3D

 43 44  0  0  0  0  0  0  0  0999 V2000
    8.7395   -0.1212   23.2476 C   0  0  0  0  0  0  0  0  0  0  0  0
    8.3921    0.3198   21.8157 C   0  0  0  0  0  0  0  0  0  0  0  0
    9.6658    0.5482   20.9946 C   0  0  0  0  0  0  0  0  0  0  0  0
   10.3003   -0.3465   20.9601 H   0  0  0  0  0  0  0  0  0  0  0  0
   10.2661    1.3555   21.4286 H   0  0  0  0  0  0  0  0  0  0  0  0
    9.4329    0.8255   19.9624 H   0  0  0  0  0  0  0  0  0  0  0  0
    7.3584   -0.6211   21.1255 C   0  0  0  0  0  0  0  0  0  0  0  0
    7.9213   -1.9987   20.7087 C   0  0  0  0  0  0  0  0  0  0  0  0
    8.2574   -2.9324   21.7838 N   0  0  0  0  0  0  0  0  0  0  0  0
    7.2532   -3.3376   22.6312 C   0  0  0  0  0  0  0  0  0  0  0  0
    6.0689   -3.2674   22.3747 O   0  0  0  0  0  0  0  0  0  0  0  0
    7.7880   -3.8362   23.8077 N   0  0  0  0  0  0  0  0  0  0  0  0
    6.9975   -4.3405   24.8608 C   0  0  0  0  0  0  0  0  0  0  0  0
    5.7764   -3.7332   25.1803 C   0  0  0  0  0  0  0  0  0  0  0  0
    4.9369   -4.2689   26.1602 C   0  0  0  0  0  0  0  0  0  0  0  0
    5.3411   -5.4193   26.8357 C   0  0  0  0  0  0  0  0  0  0  0  0
    4.5218   -5.9675   27.7454 F   0  0  0  0  0  0  0  0  0  0  0  0
    6.5744   -6.0138   26.5957 C   0  0  0  0  0  0  0  0  0  0  0  0
    7.4237   -5.4555   25.6280 C   0  0  0  0  0  0  0  0  0  0  0  0
    8.7329   -6.0134   25.4253 C   0  0  0  0  0  0  0  0  0  0  0  0
    9.8008   -6.4181   25.2291 N   0  0  0  0  0  0  0  0  0  0  0  0
    6.8555   -6.8837   27.1794 H   0  0  0  0  0  0  0  0  0  0  0  0
    3.9802   -3.8151   26.4091 H   0  0  0  0  0  0  0  0  0  0  0  0
    5.4879   -2.8588   24.6103 H   0  0  0  0  0  0  0  0  0  0  0  0
    8.6640   -4.3118   23.6569 H   0  0  0  0  0  0  0  0  0  0  0  0
    9.0941   -2.7197   22.3043 H   0  0  0  0  0  0  0  0  0  0  0  0
    8.8111   -1.8607   20.0844 H   0  0  0  0  0  0  0  0  0  0  0  0
    7.1526   -2.4676   20.0866 H   0  0  0  0  0  0  0  0  0  0  0  0
    6.6432    0.0401   19.9425 C   0  0  0  0  0  0  0  0  0  0  0  0
    5.4180    0.7023   20.1284 C   0  0  0  0  0  0  0  0  0  0  0  0
    4.8109    1.3388   19.0435 C   0  0  0  0  0  0  0  0  0  0  0  0
    5.4390    1.2893   17.7962 C   0  0  0  0  0  0  0  0  0  0  0  0
    6.5901    0.6399   17.5786 N   0  0  0  0  0  0  0  0  0  0  0  0
    7.1597    0.0319   18.6306 C   0  0  0  0  0  0  0  0  0  0  0  0
    8.0812   -0.5088   18.4080 H   0  0  0  0  0  0  0  0  0  0  0  0
    4.9992    1.7812   16.9315 H   0  0  0  0  0  0  0  0  0  0  0  0
    3.8750    1.8727   19.1521 H   0  0  0  0  0  0  0  0  0  0  0  0
    4.9425    0.7093   21.1112 H   0  0  0  0  0  0  0  0  0  0  0  0
    6.5793   -0.8439   21.8702 H   0  0  0  0  0  0  0  0  0  0  0  0
    7.8876    1.2918   21.9062 H   0  0  0  0  0  0  0  0  0  0  0  0
    9.3859   -1.0061   23.2808 H   0  0  0  0  0  0  0  0  0  0  0  0
    7.8440   -0.3487   23.8374 H   0  0  0  0  0  0  0  0  0  0  0  0
    9.2855    0.6786   23.7604 H   0  0  0  0  0  0  0  0  0  0  0  0
  1  2  1  0
  2  3  1  0
  3  4  1  0
  3  5  1  0
  3  6  1  0
  2  7  1  0
  7  8  1  0
  8  9  1  0
  9 10  1  0
 10 11  2  0
 10 12  1  0
 12 13  1  0
 13 14  2  0
 14 15  1  0
 15 16  2  0
 16 17  1  0
 16 18  1  0
 18 19  2  0
 19 20  1  0
 20 21  3  0
 18 22  1  0
 15 23  1  0
 14 24  1  0
 12 25  1  0
  9 26  1  0
  8 27  1  0
  8 28  1  0
  7 29  1  0
 29 30  2  0
 30 31  1  0
 31 32  2  0
 32 33  1  0
 33 34  2  0
 34 35  1  0
 32 36  1  0
 31 37  1  0
 30 38  1  0
  7 39  1  0
  2 40  1  0
  1 41  1  0
  1 42  1  0
  1 43  1  0
 19 13  1  0
 34 29  1  0
M  END
>  <plip>  (1) 
-0.13793103448275862

>  <filename>  (1) 
[H][c]1[n][c]([H])[c]([C]([H])([C]([H])([H])[N]([H])[C](=[O])[N]([H])[c]2[c]([H])[c]([H])[c]([F])[c]([H])[c]2[C]#[N])[C]([H])([C]([H])([H])[H])[C]([H])([H])[H])[c]([H])[c]1[H]

$$$$
