
     RDKit          3D

 28 30  0  0  0  0  0  0  0  0999 V2000
   12.2490    2.8624   22.8804 H   0  0  0  0  0  0  0  0  0  0  0  0
   12.0318    1.8179   23.0567 C   0  0  0  0  0  0  0  0  0  0  0  0
   11.9973    1.2315   24.2876 N   0  0  0  0  0  0  0  0  0  0  0  0
   11.6100    0.0090   23.9979 C   0  0  0  0  0  0  0  0  0  0  0  0
   11.4078   -0.7819   24.7110 H   0  0  0  0  0  0  0  0  0  0  0  0
   11.4514   -0.1433   22.6629 N   0  0  0  0  0  0  0  0  0  0  0  0
   10.9538   -1.2613   21.8591 C   0  0  0  0  0  0  0  0  0  0  0  0
   11.3860   -2.1998   22.2258 H   0  0  0  0  0  0  0  0  0  0  0  0
   11.2882   -1.0623   20.8394 H   0  0  0  0  0  0  0  0  0  0  0  0
    9.4500   -1.3401   21.8577 C   0  0  0  0  0  0  0  0  0  0  0  0
    8.7885   -0.7453   20.8508 N   0  0  0  0  0  0  0  0  0  0  0  0
    7.4406   -0.7237   20.9432 C   0  0  0  0  0  0  0  0  0  0  0  0
    6.6892    0.0108   19.8972 C   0  0  0  0  0  0  0  0  0  0  0  0
    7.2035    0.0660   18.5900 C   0  0  0  0  0  0  0  0  0  0  0  0
    8.1555   -0.4024   18.3545 H   0  0  0  0  0  0  0  0  0  0  0  0
    6.5789    0.6649   17.5723 N   0  0  0  0  0  0  0  0  0  0  0  0
    5.4174    1.2798   17.8362 C   0  0  0  0  0  0  0  0  0  0  0  0
    4.9486    1.7874   16.9965 H   0  0  0  0  0  0  0  0  0  0  0  0
    4.8215    1.2995   19.1014 C   0  0  0  0  0  0  0  0  0  0  0  0
    3.8840    1.8264   19.2460 H   0  0  0  0  0  0  0  0  0  0  0  0
    5.4627    0.6500   20.1555 C   0  0  0  0  0  0  0  0  0  0  0  0
    5.0171    0.6683   21.1540 H   0  0  0  0  0  0  0  0  0  0  0  0
    6.7775   -1.3967   21.9999 C   0  0  0  0  0  0  0  0  0  0  0  0
    5.6944   -1.4548   22.0113 H   0  0  0  0  0  0  0  0  0  0  0  0
    7.4335   -2.0378   22.9825 N   0  0  0  0  0  0  0  0  0  0  0  0
    8.7741   -1.9937   22.9143 C   0  0  0  0  0  0  0  0  0  0  0  0
    9.3281   -2.5203   23.6915 H   0  0  0  0  0  0  0  0  0  0  0  0
   11.7094    1.0301   22.0535 N   0  0  0  0  0  0  0  0  0  0  0  0
  1  2  1  0
  2  3  1  0
  3  4  2  0
  4  5  1  0
  4  6  1  0
  6  7  1  0
  7  8  1  0
  7  9  1  0
  7 10  1  0
 10 11  2  0
 11 12  1  0
 12 13  1  0
 13 14  2  0
 14 15  1  0
 14 16  1  0
 16 17  2  0
 17 18  1  0
 17 19  1  0
 19 20  1  0
 19 21  2  0
 21 22  1  0
 12 23  2  0
 23 24  1  0
 23 25  1  0
 25 26  2  0
 26 27  1  0
  6 28  1  0
 28  2  2  0
 26 10  1  0
 21 13  1  0
M  END
>  <plip>  (1) 
-0.03571428571428571

>  <filename>  (1) 
[H][c]1[n][c]([H])[n]([C]([H])([H])[c]2[n][c](-[c]3[c]([H])[n][c]([H])[c]([H])[c]3[H])[c]([H])[n][c]2[H])[n]1

$$$$
