
     RDKit          3D

 53 56  0  0  0  0  0  0  0  0999 V2000
    7.3847   -0.8720   26.6159 Br  0  0  0  0  0  0  0  0  0  0  0  0
    6.6321    0.8864   26.7026 C   0  0  0  0  0  0  0  0  0  0  0  0
    5.9858    1.2829   27.8875 C   0  0  0  0  0  0  0  0  0  0  0  0
    5.4317    2.5551   28.0146 C   0  0  0  0  0  0  0  0  0  0  0  0
    5.5215    3.4465   26.9498 C   0  0  0  0  0  0  0  0  0  0  0  0
    6.1073    3.0397   25.7439 C   0  0  0  0  0  0  0  0  0  0  0  0
    6.6623    1.7613   25.5911 C   0  0  0  0  0  0  0  0  0  0  0  0
    7.1923    1.4022   24.3285 N   0  0  0  0  0  0  0  0  0  0  0  0
    6.7054    1.9284   23.0426 C   0  0  0  0  0  0  0  0  0  0  0  0
    7.9709    1.9497   22.1829 C   0  0  0  0  0  0  0  0  0  0  0  0
    8.7957    0.7534   22.6510 C   0  0  0  0  0  0  0  0  0  0  0  0
    8.6090   -0.3662   21.6925 N   0  0  0  0  0  4  0  0  0  0  0  0
    7.2253   -0.8287   21.5515 C   0  0  0  0  0  0  0  0  0  0  0  0
    6.6992   -0.0834   20.3619 C   0  0  0  0  0  0  0  0  0  0  0  0
    5.5081    0.6471   20.4374 C   0  0  0  0  0  0  0  0  0  0  0  0
    5.0961    1.3352   19.2993 C   0  0  0  0  0  0  0  0  0  0  0  0
    5.8541    1.2639   18.1279 C   0  0  0  0  0  0  0  0  0  0  0  0
    6.9912    0.5501   18.0524 N   0  0  0  0  0  0  0  0  0  0  0  0
    7.4040   -0.1047   19.1497 C   0  0  0  0  0  0  0  0  0  0  0  0
    8.3272   -0.6729   19.0901 H   0  0  0  0  0  0  0  0  0  0  0  0
    5.5155    1.8080   17.2502 H   0  0  0  0  0  0  0  0  0  0  0  0
    4.1937    1.9353   19.3013 H   0  0  0  0  0  0  0  0  0  0  0  0
    4.9119    0.6917   21.3489 H   0  0  0  0  0  0  0  0  0  0  0  0
    7.2755   -2.3463   21.3262 C   0  0  0  0  0  0  0  0  0  0  0  0
    7.6181   -3.0735   22.6382 C   0  0  0  0  0  0  0  0  0  0  0  0
    7.6681   -4.5861   22.4150 C   0  0  0  0  0  0  0  0  0  0  0  0
    6.4211   -5.0441   21.8768 O   0  0  0  0  0  0  0  0  0  0  0  0
    6.1158   -4.4550   20.6085 C   0  0  0  0  0  0  0  0  0  0  0  0
    5.9656   -2.9367   20.7680 C   0  0  0  0  0  0  0  0  0  0  0  0
    5.7339   -2.4848   19.7985 H   0  0  0  0  0  0  0  0  0  0  0  0
    5.1384   -2.7230   21.4525 H   0  0  0  0  0  0  0  0  0  0  0  0
    6.9115   -4.6825   19.8962 H   0  0  0  0  0  0  0  0  0  0  0  0
    5.1996   -4.8986   20.2155 H   0  0  0  0  0  0  0  0  0  0  0  0
    8.4772   -4.8289   21.7213 H   0  0  0  0  0  0  0  0  0  0  0  0
    7.8753   -5.0955   23.3618 H   0  0  0  0  0  0  0  0  0  0  0  0
    6.8622   -2.8457   23.3969 H   0  0  0  0  0  0  0  0  0  0  0  0
    8.5870   -2.7291   23.0111 H   0  0  0  0  0  0  0  0  0  0  0  0
    8.0719   -2.5359   20.6052 H   0  0  0  0  0  0  0  0  0  0  0  0
    6.6273   -0.6049   22.4448 H   0  0  0  0  0  0  0  0  0  0  0  0
    9.1836   -1.1638   21.9660 H   0  0  0  0  0  0  0  0  0  0  0  0
    8.9093   -0.0591   20.7681 H   0  0  0  0  0  0  0  0  0  0  0  0
    8.3222    0.4744   24.1024 C   0  0  0  0  0  0  0  0  0  0  0  0
    8.0155   -0.5695   24.2023 H   0  0  0  0  0  0  0  0  0  0  0  0
    9.1378    0.6711   24.8048 H   0  0  0  0  0  0  0  0  0  0  0  0
    9.8583    1.0304   22.6733 H   0  0  0  0  0  0  0  0  0  0  0  0
    8.5395    2.8687   22.3683 H   0  0  0  0  0  0  0  0  0  0  0  0
    7.7435    1.8934   21.1124 H   0  0  0  0  0  0  0  0  0  0  0  0
    5.9651    1.2335   22.6230 H   0  0  0  0  0  0  0  0  0  0  0  0
    6.2607    2.9307   23.1084 H   0  0  0  0  0  0  0  0  0  0  0  0
    6.1194    3.7160   24.8976 H   0  0  0  0  0  0  0  0  0  0  0  0
    5.0898    4.4368   27.0334 H   0  0  0  0  0  0  0  0  0  0  0  0
    4.9111    2.8462   28.9232 H   0  0  0  0  0  0  0  0  0  0  0  0
    5.8916    0.5966   28.7198 H   0  0  0  0  0  0  0  0  0  0  0  0
  1  2  1  0
  2  3  2  0
  3  4  1  0
  4  5  2  0
  5  6  1  0
  6  7  2  0
  7  8  1  0
  8  9  1  0
  9 10  1  0
 10 11  1  0
 11 12  1  0
 12 13  1  0
 13 14  1  0
 14 15  2  0
 15 16  1  0
 16 17  2  0
 17 18  1  0
 18 19  2  0
 19 20  1  0
 17 21  1  0
 16 22  1  0
 15 23  1  0
 13 24  1  0
 24 25  1  0
 25 26  1  0
 26 27  1  0
 27 28  1  0
 28 29  1  0
 29 30  1  0
 29 31  1  0
 28 32  1  0
 28 33  1  0
 26 34  1  0
 26 35  1  0
 25 36  1  0
 25 37  1  0
 24 38  1  0
 13 39  1  0
 12 40  1  0
 12 41  1  0
 11 42  1  0
 42 43  1  0
 42 44  1  0
 11 45  1  0
 10 46  1  0
 10 47  1  0
  9 48  1  0
  9 49  1  0
  6 50  1  0
  5 51  1  0
  4 52  1  0
  3 53  1  0
  7  2  1  0
 42  8  1  0
 19 14  1  0
 29 24  1  0
M  CHG  1  12   1
M  END
>  <plip>  (1) 
-0.07142857142857142

>  <filename>  (1) 
[H][c]1[n][c]([H])[c]([C]([H])([C]2([H])[C]([H])([H])[C]([H])([H])[O][C]([H])([H])[C]2([H])[H])[N+]([H])([H])[C]2([H])[C]([H])([H])[N]([c]3[c]([H])[c]([H])[c]([H])[c]([H])[c]3[Br])[C]([H])([H])[C]2([H])[H])[c]([H])[c]1[H]

$$$$
