
     RDKit          3D

 45 48  0  0  0  0  0  0  0  0999 V2000
    4.7722    1.3018   19.0684 C   0  0  0  0  0  0  0  0  0  0  0  0
    5.4122    1.2922   17.8261 C   0  0  0  0  0  0  0  0  0  0  0  0
    6.5722    0.6592   17.5983 N   0  0  0  0  0  0  0  0  0  0  0  0
    7.1194    0.0084   18.6354 C   0  0  0  0  0  0  0  0  0  0  0  0
    6.5586   -0.0590   19.9174 C   0  0  0  0  0  0  0  0  0  0  0  0
    7.3147   -0.7616   21.0301 C   0  0  0  0  0  0  0  0  0  0  0  0
    8.0083    0.2700   21.9292 C   0  0  0  0  0  0  0  0  0  0  0  0
    9.0902   -0.2733   22.8711 C   0  0  0  0  0  0  0  0  0  0  0  0
    8.5547   -1.1377   24.0167 C   0  0  0  0  0  0  0  0  0  0  0  0
    9.6346   -1.0141   25.0918 C   0  0  0  0  0  0  0  0  0  0  0  0
   10.3419    0.1909   24.8362 O   0  0  0  0  0  0  0  0  0  0  0  0
    9.8670    0.8042   23.6485 C   0  0  0  0  0  0  0  0  0  0  0  0
    9.2147    1.6569   23.9015 H   0  0  0  0  0  0  0  0  0  0  0  0
   10.7336    1.1917   23.0988 H   0  0  0  0  0  0  0  0  0  0  0  0
   10.3325   -1.8566   25.0240 H   0  0  0  0  0  0  0  0  0  0  0  0
    9.2220   -0.9798   26.1093 H   0  0  0  0  0  0  0  0  0  0  0  0
    7.6109   -0.7186   24.3880 H   0  0  0  0  0  0  0  0  0  0  0  0
    8.3781   -2.1770   23.7271 H   0  0  0  0  0  0  0  0  0  0  0  0
    9.8277   -0.8518   22.2944 H   0  0  0  0  0  0  0  0  0  0  0  0
    7.2295    0.7744   22.5168 H   0  0  0  0  0  0  0  0  0  0  0  0
    8.4432    1.0395   21.2774 H   0  0  0  0  0  0  0  0  0  0  0  0
    6.4717   -1.6782   21.7600 N   0  0  0  0  0  0  0  0  0  0  0  0
    6.0002   -2.8456   21.2532 C   0  0  0  0  0  0  0  0  0  0  0  0
    6.1838   -3.3040   19.9088 C   0  0  0  0  0  0  0  0  0  0  0  0
    5.8812   -4.5643   19.5350 N   0  0  0  0  0  0  0  0  0  0  0  0
    5.3336   -5.3377   20.4798 C   0  0  0  0  0  0  0  0  0  0  0  0
    4.9466   -4.7900   21.7373 C   0  0  0  0  0  0  0  0  0  0  0  0
    4.0914   -5.5390   22.5703 N   0  0  0  0  0  0  0  0  0  0  0  0
    3.5965   -5.1876   23.7962 C   0  0  0  0  0  0  0  0  0  0  0  0
    2.8093   -6.2279   24.2048 C   0  0  0  0  0  0  0  0  0  0  0  0
    2.8641   -7.1696   23.1526 C   0  0  0  0  0  0  0  0  0  0  0  0
    3.6273   -6.7495   22.1666 N   0  0  0  0  0  0  0  0  0  0  0  0
    2.3786   -8.1338   23.0751 H   0  0  0  0  0  0  0  0  0  0  0  0
    2.2743   -6.3240   25.1361 H   0  0  0  0  0  0  0  0  0  0  0  0
    3.8555   -4.2309   24.2373 H   0  0  0  0  0  0  0  0  0  0  0  0
    5.2980   -3.5651   22.1467 N   0  0  0  0  0  0  0  0  0  0  0  0
    5.1335   -6.3774   20.2584 H   0  0  0  0  0  0  0  0  0  0  0  0
    6.5582   -2.6291   19.1451 H   0  0  0  0  0  0  0  0  0  0  0  0
    5.9730   -1.4262   22.5991 H   0  0  0  0  0  0  0  0  0  0  0  0
    8.0971   -1.3798   20.5668 H   0  0  0  0  0  0  0  0  0  0  0  0
    5.3549    0.6234   20.1377 C   0  0  0  0  0  0  0  0  0  0  0  0
    4.8993    0.6497   21.1309 H   0  0  0  0  0  0  0  0  0  0  0  0
    8.0748   -0.4789   18.4226 H   0  0  0  0  0  0  0  0  0  0  0  0
    4.9781    1.8216   16.9813 H   0  0  0  0  0  0  0  0  0  0  0  0
    3.8586    1.8676   19.2005 H   0  0  0  0  0  0  0  0  0  0  0  0
  1  2  2  0
  2  3  1  0
  3  4  2  0
  4  5  1  0
  5  6  1  0
  6  7  1  0
  7  8  1  0
  8  9  1  0
  9 10  1  0
 10 11  1  0
 11 12  1  0
 12 13  1  0
 12 14  1  0
 10 15  1  0
 10 16  1  0
  9 17  1  0
  9 18  1  0
  8 19  1  0
  7 20  1  0
  7 21  1  0
  6 22  1  0
 22 23  1  0
 23 24  2  0
 24 25  1  0
 25 26  2  0
 26 27  1  0
 27 28  1  0
 28 29  1  0
 29 30  2  0
 30 31  1  0
 31 32  2  0
 31 33  1  0
 30 34  1  0
 29 35  1  0
 27 36  2  0
 26 37  1  0
 24 38  1  0
 22 39  1  0
  6 40  1  0
  5 41  2  0
 41 42  1  0
  4 43  1  0
  2 44  1  0
  1 45  1  0
 41  1  1  0
 12  8  1  0
 36 23  1  0
 32 28  1  0
M  END
>  <plip>  (1) 
-0.10714285714285714

>  <filename>  (1) 
[H][c]1[n][c]([H])[c](-[n]2[n][c]([H])[c]([H])[c]2[H])[n][c]1[N]([H])[C]([H])([c]1[c]([H])[n][c]([H])[c]([H])[c]1[H])[C]([H])([H])[C]1([H])[C]([H])([H])[O][C]([H])([H])[C]1([H])[H]

$$$$
