
     RDKit          3D

 33 34  0  0  0  0  0  0  0  0999 V2000
    4.9373    1.7806   17.0140 H   0  0  0  0  0  0  0  0  0  0  0  0
    5.4029    1.2464   17.8399 C   0  0  0  0  0  0  0  0  0  0  0  0
    6.5493    0.6091   17.5516 N   0  0  0  0  0  0  0  0  0  0  0  0
    7.1751   -0.0194   18.5560 C   0  0  0  0  0  0  0  0  0  0  0  0
    8.1085   -0.5183   18.3102 H   0  0  0  0  0  0  0  0  0  0  0  0
    6.6947   -0.0515   19.8909 C   0  0  0  0  0  0  0  0  0  0  0  0
    7.4142   -0.6904   20.9458 N   0  0  0  0  0  0  0  0  0  0  0  0
    8.8035   -0.6619   21.0704 C   0  0  0  0  0  0  0  0  0  0  0  0
    9.5655   -0.0628   20.3444 O   0  0  0  0  0  0  0  0  0  0  0  0
    9.1931   -1.4738   22.2865 C   0  0  0  0  0  0  0  0  0  0  0  0
    9.6453   -0.7918   23.0119 H   0  0  0  0  0  0  0  0  0  0  0  0
    9.9547   -2.1940   21.9877 H   0  0  0  0  0  0  0  0  0  0  0  0
    7.8852   -2.1216   22.7617 C   0  0  0  0  0  0  0  0  0  0  0  0
    7.7247   -2.1004   23.8448 H   0  0  0  0  0  0  0  0  0  0  0  0
    7.8208   -3.1634   22.4332 H   0  0  0  0  0  0  0  0  0  0  0  0
    6.8088   -1.3915   22.0102 C   0  0  2  0  0  0  0  0  0  0  0  0
    6.0434   -0.8540   22.5643 H   0  0  0  0  0  0  0  0  0  0  0  0
    5.9146   -2.8793   21.1540 O   0  0  0  0  0  0  0  0  0  0  0  0
    4.8647   -3.3553   21.8809 C   0  0  0  0  0  0  0  0  0  0  0  0
    3.8939   -3.4516   21.4370 H   0  0  0  0  0  0  0  0  0  0  0  0
    5.6303   -2.5850   20.2710 H   0  0  0  0  0  0  0  0  0  0  0  0
    4.9769   -3.6970   23.2480 C   0  0  0  0  0  0  0  0  0  0  0  0
    5.4457   -2.8749   23.8567 H   0  0  0  0  0  0  0  0  0  0  0  0
    5.6318   -4.5884   23.4604 H   0  0  0  0  0  0  0  0  0  0  0  0
    3.6350   -3.9564   23.7097 O   0  0  0  0  0  0  0  0  0  0  0  0
    3.5195   -4.5587   24.9717 C   0  0  0  0  0  0  0  0  0  0  0  0
    3.9911   -3.9671   25.7685 H   0  0  0  0  0  0  0  0  0  0  0  0
    2.4505   -4.6291   25.1877 H   0  0  0  0  0  0  0  0  0  0  0  0
    3.9410   -5.5755   24.9959 H   0  0  0  0  0  0  0  0  0  0  0  0
    5.4677    0.5655   20.1548 C   0  0  0  0  0  0  0  0  0  0  0  0
    5.0402    0.5177   21.1558 H   0  0  0  0  0  0  0  0  0  0  0  0
    4.8212    1.2440   19.1108 C   0  0  0  0  0  0  0  0  0  0  0  0
    3.8911    1.7756   19.2794 H   0  0  0  0  0  0  0  0  0  0  0  0
  1  2  1  0
  2  3  2  0
  3  4  1  0
  4  5  1  0
  4  6  2  0
  6  7  1  0
  7  8  1  0
  8  9  2  0
  8 10  1  0
 10 11  1  0
 10 12  1  0
 10 13  1  0
 13 14  1  0
 13 15  1  0
 13 16  1  0
 16 17  1  1
 16 18  1  0
 18 19  1  0
 19 20  1  0
 19 21  1  0
 19 22  1  0
 22 23  1  0
 22 24  1  0
 22 25  1  0
 25 26  1  0
 26 27  1  0
 26 28  1  0
 26 29  1  0
  6 30  1  0
 30 31  1  0
 30 32  2  0
 32 33  1  0
 32  2  1  0
 16  7  1  0
M  END
>  <plip>  (1) 
-0.10714285714285714

>  <filename>  (1) 
[H][c]1[n][c]([H])[c]([N]2[C](=[O])[C]([H])([H])[C]([H])([H])[C@]2([H])[O][C]([H])([H])[C]([H])([H])[O][C]([H])([H])[H])[c]([H])[c]1[H]

$$$$
