
     RDKit          3D

 35 38  0  0  0  0  0  0  0  0999 V2000
    4.9211    1.8462   17.0106 H   0  0  0  0  0  0  0  0  0  0  0  0
    5.4061    1.3213   17.8320 C   0  0  0  0  0  0  0  0  0  0  0  0
    6.5589    0.6972   17.5400 N   0  0  0  0  0  0  0  0  0  0  0  0
    7.1876    0.0553   18.5354 C   0  0  0  0  0  0  0  0  0  0  0  0
    8.1233   -0.4513   18.2993 H   0  0  0  0  0  0  0  0  0  0  0  0
    6.7011    0.0173   19.8593 C   0  0  0  0  0  0  0  0  0  0  0  0
    7.4033   -0.6493   20.9302 N   0  0  0  0  0  0  0  0  0  0  0  0
    7.2831   -2.0169   21.1340 C   0  0  0  0  0  0  0  0  0  0  0  0
    6.4556   -2.7324   20.6191 O   0  0  0  0  0  0  0  0  0  0  0  0
    8.3842   -2.5301   22.0442 C   0  0  0  0  0  0  0  0  0  0  0  0
    9.0638   -3.1370   21.4418 H   0  0  0  0  0  0  0  0  0  0  0  0
    7.9363   -3.1819   22.7946 H   0  0  0  0  0  0  0  0  0  0  0  0
    9.2515   -1.1029   22.7572 S   0  0  0  0  0  0  0  0  0  0  0  0
    8.1968    0.1341   21.8847 C   0  0  2  0  0  0  0  0  0  0  0  0
    8.8652    0.7806   21.3108 H   0  0  0  0  0  0  0  0  0  0  0  0
    7.3708    0.9858   22.8273 C   0  0  0  0  0  0  0  0  0  0  0  0
    6.6665    0.3758   23.8369 C   0  0  0  0  0  0  0  0  0  0  0  0
    6.7330   -0.6952   23.9747 H   0  0  0  0  0  0  0  0  0  0  0  0
    5.8893    1.0097   24.7499 N   0  0  0  0  0  0  0  0  0  0  0  0
    5.7828    2.3155   24.6554 C   0  0  0  0  0  0  0  0  0  0  0  0
    5.1534    2.8096   25.3951 H   0  0  0  0  0  0  0  0  0  0  0  0
    6.4103    3.0992   23.6420 C   0  0  0  0  0  0  0  0  0  0  0  0
    6.1847    4.5074   23.5096 C   0  0  0  0  0  0  0  0  0  0  0  0
    5.4496    5.0007   24.1410 H   0  0  0  0  0  0  0  0  0  0  0  0
    6.8791    5.2411   22.5827 C   0  0  0  0  0  0  0  0  0  0  0  0
    6.7324    6.3187   22.4992 H   0  0  0  0  0  0  0  0  0  0  0  0
    7.8085    4.5992   21.7281 C   0  0  0  0  0  0  0  0  0  0  0  0
    8.3682    5.2128   21.0253 H   0  0  0  0  0  0  0  0  0  0  0  0
    7.9785    3.2251   21.7669 C   0  0  0  0  0  0  0  0  0  0  0  0
    8.6671    2.7701   21.0612 H   0  0  0  0  0  0  0  0  0  0  0  0
    7.2749    2.4252   22.7197 C   0  0  0  0  0  0  0  0  0  0  0  0
    5.5092    0.6757   20.1503 C   0  0  0  0  0  0  0  0  0  0  0  0
    5.1731    0.6667   21.1870 H   0  0  0  0  0  0  0  0  0  0  0  0
    4.8350    1.3250   19.1102 C   0  0  0  0  0  0  0  0  0  0  0  0
    3.8936    1.8322   19.2790 H   0  0  0  0  0  0  0  0  0  0  0  0
  1  2  1  0
  2  3  2  0
  3  4  1  0
  4  5  1  0
  4  6  2  0
  6  7  1  0
  7  8  1  0
  8  9  2  0
  8 10  1  0
 10 11  1  0
 10 12  1  0
 10 13  1  0
 13 14  1  0
 14 15  1  6
 14 16  1  0
 16 17  2  0
 17 18  1  0
 17 19  1  0
 19 20  2  0
 20 21  1  0
 20 22  1  0
 22 23  2  0
 23 24  1  0
 23 25  1  0
 25 26  1  0
 25 27  2  0
 27 28  1  0
 27 29  1  0
 29 30  1  0
 29 31  2  0
  6 32  1  0
 32 33  1  0
 32 34  2  0
 34 35  1  0
 34  2  1  0
 14  7  1  0
 31 16  1  0
 31 22  1  0
M  END
>  <plip>  (1) 
-0.10714285714285714

>  <filename>  (1) 
[H][c]1[n][c]([H])[c]([N]2[C](=[O])[C]([H])([H])[S][C@]2([H])[c]2[c]([H])[n][c]([H])[c]3[c]([H])[c]([H])[c]([H])[c]([H])[c]23)[c]([H])[c]1[H]

$$$$
