
     RDKit          3D

 28 29  0  0  0  0  0  0  0  0999 V2000
    4.9725    1.8320   16.9395 H   0  0  0  0  0  0  0  0  0  0  0  0
    5.4145    1.3374   17.8025 C   0  0  0  0  0  0  0  0  0  0  0  0
    6.5899    0.7201   17.5966 N   0  0  0  0  0  0  0  0  0  0  0  0
    7.1638    0.1126   18.6487 C   0  0  0  0  0  0  0  0  0  0  0  0
    8.1235   -0.3724   18.4574 H   0  0  0  0  0  0  0  0  0  0  0  0
    6.6009    0.0661   19.9531 C   0  0  0  0  0  0  0  0  0  0  0  0
    7.1420   -0.6580   21.0596 N   0  0  0  0  0  0  0  0  0  0  0  0
    7.8425    0.1281   22.0714 C   0  0  0  0  0  0  0  0  0  0  0  0
    8.5392   -0.5210   22.6111 H   0  0  0  0  0  0  0  0  0  0  0  0
    8.4129    0.9556   21.6295 H   0  0  0  0  0  0  0  0  0  0  0  0
    7.1317    0.5478   22.8007 H   0  0  0  0  0  0  0  0  0  0  0  0
    7.5089   -2.0507   20.8541 C   0  0  1  0  0  0  0  0  0  0  0  0
    8.3947   -2.1205   20.1936 H   0  0  0  0  0  0  0  0  0  0  0  0
    7.7955   -2.6303   22.1580 N   0  0  0  0  0  0  0  0  0  0  0  0
    7.0534   -2.2009   22.7041 H   0  0  0  0  0  0  0  0  0  0  0  0
    7.5639   -4.0702   22.0779 C   0  0  0  0  0  0  0  0  0  0  0  0
    7.1625   -4.4138   23.0367 H   0  0  0  0  0  0  0  0  0  0  0  0
    8.5115   -4.6033   21.9088 H   0  0  0  0  0  0  0  0  0  0  0  0
    6.5817   -4.3125   20.8970 C   0  0  0  0  0  0  0  0  0  0  0  0
    5.6554   -4.7861   21.2381 H   0  0  0  0  0  0  0  0  0  0  0  0
    7.0301   -4.9823   20.1562 H   0  0  0  0  0  0  0  0  0  0  0  0
    6.3331   -2.9030   20.3263 C   0  0  0  0  0  0  0  0  0  0  0  0
    6.2480   -2.8555   19.2370 H   0  0  0  0  0  0  0  0  0  0  0  0
    5.4143   -2.4749   20.7440 H   0  0  0  0  0  0  0  0  0  0  0  0
    5.3976    0.7612   20.1446 C   0  0  0  0  0  0  0  0  0  0  0  0
    4.9656    0.7704   21.1448 H   0  0  0  0  0  0  0  0  0  0  0  0
    4.7830    1.3810   19.0498 C   0  0  0  0  0  0  0  0  0  0  0  0
    3.8415    1.9058   19.1616 H   0  0  0  0  0  0  0  0  0  0  0  0
  1  2  1  0
  2  3  2  0
  3  4  1  0
  4  5  1  0
  4  6  2  0
  6  7  1  0
  7  8  1  0
  8  9  1  0
  8 10  1  0
  8 11  1  0
  7 12  1  0
 12 13  1  6
 12 14  1  0
 14 15  1  0
 14 16  1  0
 16 17  1  0
 16 18  1  0
 16 19  1  0
 19 20  1  0
 19 21  1  0
 19 22  1  0
 22 23  1  0
 22 24  1  0
  6 25  1  0
 25 26  1  0
 25 27  2  0
 27 28  1  0
 27  2  1  0
 22 12  1  0
M  END
>  <plip>  (1) 
-0.06896551724137931

>  <filename>  (1) 
[H][c]1[n][c]([H])[c]([N]([C]([H])([H])[H])[C@@]2([H])[N]([H])[C]([H])([H])[C]([H])([H])[C]2([H])[H])[c]([H])[c]1[H]

$$$$
