
     RDKit          3D

 29 31  0  0  0  0  0  0  0  0999 V2000
    4.9242    1.8311   16.9140 H   0  0  0  0  0  0  0  0  0  0  0  0
    5.3644    1.3358   17.7776 C   0  0  0  0  0  0  0  0  0  0  0  0
    6.5449    0.7318   17.5763 N   0  0  0  0  0  0  0  0  0  0  0  0
    7.1242    0.1468   18.6334 C   0  0  0  0  0  0  0  0  0  0  0  0
    8.0976   -0.2964   18.4477 H   0  0  0  0  0  0  0  0  0  0  0  0
    6.5613    0.0991   19.9216 C   0  0  0  0  0  0  0  0  0  0  0  0
    7.2597   -0.6018   21.0523 C   0  0  2  0  0  0  0  0  0  0  0  0
    6.9162   -0.2206   22.0260 H   0  0  0  0  0  0  0  0  0  0  0  0
    8.7351   -0.6014   20.9409 N   0  0  0  0  0  0  0  0  0  0  0  0
    9.6821    0.3636   21.2858 N   0  0  0  0  0  0  0  0  0  0  0  0
    9.5500    1.7391   21.4814 C   0  0  0  0  0  0  0  0  0  0  0  0
    8.2246    2.4068   21.5720 C   0  0  0  0  0  0  0  0  0  0  0  0
    7.6173    1.9565   22.3614 H   0  0  0  0  0  0  0  0  0  0  0  0
    8.3467    3.4649   21.8017 H   0  0  0  0  0  0  0  0  0  0  0  0
    7.6864    2.2901   20.6301 H   0  0  0  0  0  0  0  0  0  0  0  0
   10.7222    2.2975   21.5818 N   0  0  0  0  0  0  0  0  0  0  0  0
   11.6425    1.2745   21.4930 C   0  0  0  0  0  0  0  0  0  0  0  0
   12.6993    1.4896   21.5374 H   0  0  0  0  0  0  0  0  0  0  0  0
   11.0318    0.0744   21.3372 C   0  0  0  0  0  0  0  0  0  0  0  0
   11.3754   -0.9483   21.2747 H   0  0  0  0  0  0  0  0  0  0  0  0
    8.8391   -1.9790   20.9284 C   0  0  0  0  0  0  0  0  0  0  0  0
    9.7812   -2.7240   20.8954 O   0  0  0  0  0  0  0  0  0  0  0  0
    7.3326   -2.1493   21.0008 C   0  0  0  0  0  0  0  0  0  0  0  0
    6.9023   -2.6091   20.1099 H   0  0  0  0  0  0  0  0  0  0  0  0
    7.0100   -2.6809   21.8980 H   0  0  0  0  0  0  0  0  0  0  0  0
    5.3270    0.7369   20.1098 C   0  0  0  0  0  0  0  0  0  0  0  0
    4.8634    0.7611   21.0984 H   0  0  0  0  0  0  0  0  0  0  0  0
    4.7198    1.3645   19.0191 C   0  0  0  0  0  0  0  0  0  0  0  0
    3.7846    1.9021   19.1258 H   0  0  0  0  0  0  0  0  0  0  0  0
  1  2  1  0
  2  3  2  0
  3  4  1  0
  4  5  1  0
  4  6  2  0
  6  7  1  0
  7  8  1  1
  7  9  1  0
  9 10  1  0
 10 11  1  0
 11 12  1  0
 12 13  1  0
 12 14  1  0
 12 15  1  0
 11 16  2  0
 16 17  1  0
 17 18  1  0
 17 19  2  0
 19 20  1  0
  9 21  1  0
 21 22  2  0
 21 23  1  0
 23 24  1  0
 23 25  1  0
  6 26  1  0
 26 27  1  0
 26 28  2  0
 28 29  1  0
 28  2  1  0
 23  7  1  0
 19 10  1  0
M  END
>  <plip>  (1) 
-0.07142857142857142

>  <filename>  (1) 
[H][c]1[n][c]([H])[c]([C@]2([H])[N]([n]3[c]([C]([H])([H])[H])[n][c]([H])[c]3[H])[C](=[O])[C]2([H])[H])[c]([H])[c]1[H]

$$$$
