
     RDKit          3D

 29 30  0  0  0  0  0  0  0  0999 V2000
    5.3250   -2.8548   23.7687 H   0  0  0  0  0  0  0  0  0  0  0  0
    6.3732   -2.6545   23.9927 C   0  0  0  0  0  0  0  0  0  0  0  0
    7.1162   -1.9295   23.1452 C   0  0  0  0  0  0  0  0  0  0  0  0
    8.1442   -1.6540   23.3634 H   0  0  0  0  0  0  0  0  0  0  0  0
    6.6650   -1.4073   21.9285 N   0  0  0  0  0  0  0  0  0  0  0  0
    5.6961   -1.5689   21.7036 H   0  0  0  0  0  0  0  0  0  0  0  0
    7.4031   -0.7352   21.0022 C   0  0  0  0  0  0  0  0  0  0  0  0
    9.0516   -0.6356   21.0438 S   0  0  0  0  0  0  0  0  0  0  0  0
    6.6101   -0.0598   19.9321 C   0  0  0  0  0  0  0  0  0  0  0  0
    7.1560    0.0320   18.6394 C   0  0  0  0  0  0  0  0  0  0  0  0
    8.1129   -0.4246   18.3999 H   0  0  0  0  0  0  0  0  0  0  0  0
    6.5703    0.6596   17.6172 N   0  0  0  0  0  0  0  0  0  0  0  0
    5.4067    1.2840   17.8533 C   0  0  0  0  0  0  0  0  0  0  0  0
    4.9370    1.7756   17.0001 H   0  0  0  0  0  0  0  0  0  0  0  0
    4.8015    1.3087   19.1139 C   0  0  0  0  0  0  0  0  0  0  0  0
    3.8731    1.8487   19.2543 H   0  0  0  0  0  0  0  0  0  0  0  0
    5.4051    0.6261   20.1714 C   0  0  0  0  0  0  0  0  0  0  0  0
    4.9750    0.6600   21.1753 H   0  0  0  0  0  0  0  0  0  0  0  0
    6.8584   -3.1912   25.2824 C   0  0  0  0  0  0  0  0  0  0  0  0
    5.9064   -3.5462   26.2588 C   0  0  0  0  0  0  0  0  0  0  0  0
    4.8483   -3.4145   26.0494 H   0  0  0  0  0  0  0  0  0  0  0  0
    6.3000   -4.0552   27.4985 C   0  0  0  0  0  0  0  0  0  0  0  0
    5.5592   -4.3208   28.2527 H   0  0  0  0  0  0  0  0  0  0  0  0
    7.6594   -4.2328   27.7729 C   0  0  0  0  0  0  0  0  0  0  0  0
    7.9554   -4.6443   28.7301 H   0  0  0  0  0  0  0  0  0  0  0  0
    8.6233   -3.8778   26.8248 C   0  0  0  0  0  0  0  0  0  0  0  0
    9.6815   -4.0100   27.0479 H   0  0  0  0  0  0  0  0  0  0  0  0
    8.2264   -3.3617   25.5871 C   0  0  0  0  0  0  0  0  0  0  0  0
    8.9826   -3.1227   24.8438 H   0  0  0  0  0  0  0  0  0  0  0  0
  1  2  1  0
  2  3  2  3
  3  4  1  0
  3  5  1  0
  5  6  1  0
  5  7  1  0
  7  8  2  0
  7  9  1  0
  9 10  2  0
 10 11  1  0
 10 12  1  0
 12 13  2  0
 13 14  1  0
 13 15  1  0
 15 16  1  0
 15 17  2  0
 17 18  1  0
  2 19  1  0
 19 20  2  0
 20 21  1  0
 20 22  1  0
 22 23  1  0
 22 24  2  0
 24 25  1  0
 24 26  1  0
 26 27  1  0
 26 28  2  0
 28 29  1  0
 17  9  1  0
 28 19  1  0
M  END
>  <plip>  (1) 
-0.03571428571428571

>  <filename>  (1) 
[H][C](=[C]([H])[N]([H])[C](=[S])[c]1[c]([H])[n][c]([H])[c]([H])[c]1[H])[c]1[c]([H])[c]([H])[c]([H])[c]([H])[c]1[H]

$$$$
