
     RDKit          3D

 35 37  0  0  0  0  0  0  0  0999 V2000
    4.9918    1.8863   17.0088 H   0  0  0  0  0  0  0  0  0  0  0  0
    5.4652    1.3217   17.8100 C   0  0  0  0  0  0  0  0  0  0  0  0
    6.6345    0.7350   17.5070 N   0  0  0  0  0  0  0  0  0  0  0  0
    7.2633    0.0605   18.4783 C   0  0  0  0  0  0  0  0  0  0  0  0
    8.2112   -0.3999   18.2022 H   0  0  0  0  0  0  0  0  0  0  0  0
    6.7526   -0.0990   19.7900 C   0  0  0  0  0  0  0  0  0  0  0  0
    7.4650   -0.8018   20.7972 N   0  0  0  0  0  0  0  0  0  0  0  0
    6.9332   -1.7310   21.6900 C   0  0  0  0  0  0  0  0  0  0  0  0
    5.8497   -2.2563   21.7030 O   0  0  0  0  0  0  0  0  0  0  0  0
    7.9479   -2.0293   22.5808 N   0  0  0  0  0  0  0  0  0  0  0  0
    7.8368   -2.7688   23.2441 H   0  0  0  0  0  0  0  0  0  0  0  0
    9.1434   -1.4927   22.2375 C   0  0  0  0  0  0  0  0  0  0  0  0
   10.1941   -1.6902   22.8071 O   0  0  0  0  0  0  0  0  0  0  0  0
    8.8917   -0.5949   21.0438 C   0  0  2  0  0  0  0  0  0  0  0  0
    9.5083   -0.9563   20.2105 H   0  0  0  0  0  0  0  0  0  0  0  0
    9.2923    0.8384   21.3867 C   0  0  0  0  0  0  0  0  0  0  0  0
    9.0812    1.5035   20.5372 H   0  0  0  0  0  0  0  0  0  0  0  0
    8.6757    1.2058   22.2264 H   0  0  0  0  0  0  0  0  0  0  0  0
   10.7010    0.8036   21.7029 N   0  0  0  0  0  0  0  0  0  0  0  0
   11.0138   -0.0307   22.1880 H   0  0  0  0  0  0  0  0  0  0  0  0
   11.3857    1.9292   22.1032 C   0  0  0  0  0  0  0  0  0  0  0  0
   10.7820    3.1926   22.1360 C   0  0  0  0  0  0  0  0  0  0  0  0
    9.7284    3.2657   21.8931 H   0  0  0  0  0  0  0  0  0  0  0  0
   11.5302    4.3319   22.4388 C   0  0  0  0  0  0  0  0  0  0  0  0
   11.0317    5.2975   22.4200 H   0  0  0  0  0  0  0  0  0  0  0  0
   12.8922    4.2271   22.7198 C   0  0  0  0  0  0  0  0  0  0  0  0
   13.4787    5.1088   22.9627 H   0  0  0  0  0  0  0  0  0  0  0  0
   13.4903    2.9629   22.6956 C   0  0  0  0  0  0  0  0  0  0  0  0
   14.5590    2.8851   22.8266 H   0  0  0  0  0  0  0  0  0  0  0  0
   12.7456    1.8127   22.4384 C   0  0  0  0  0  0  0  0  0  0  0  0
   13.1995    0.8259   22.4931 H   0  0  0  0  0  0  0  0  0  0  0  0
    5.5175    0.5026   20.0807 C   0  0  0  0  0  0  0  0  0  0  0  0
    5.1012    0.3894   21.0821 H   0  0  0  0  0  0  0  0  0  0  0  0
    4.8726    1.2365   19.0766 C   0  0  0  0  0  0  0  0  0  0  0  0
    3.9358    1.7549   19.2655 H   0  0  0  0  0  0  0  0  0  0  0  0
  1  2  1  0
  2  3  2  0
  3  4  1  0
  4  5  1  0
  4  6  2  0
  6  7  1  0
  7  8  1  0
  8  9  2  0
  8 10  1  0
 10 11  1  0
 10 12  1  0
 12 13  2  0
 12 14  1  0
 14 15  1  6
 14 16  1  0
 16 17  1  0
 16 18  1  0
 16 19  1  0
 19 20  1  0
 19 21  1  0
 21 22  2  0
 22 23  1  0
 22 24  1  0
 24 25  1  0
 24 26  2  0
 26 27  1  0
 26 28  1  0
 28 29  1  0
 28 30  2  0
 30 31  1  0
  6 32  1  0
 32 33  1  0
 32 34  2  0
 34 35  1  0
 34  2  1  0
 14  7  1  0
 30 21  1  0
M  END
>  <plip>  (1) 
-0.10714285714285714

>  <filename>  (1) 
[H][c]1[n][c]([H])[c]([N]2[C](=[O])[N]([H])[C](=[O])[C@]2([H])[C]([H])([H])[N]([H])[c]2[c]([H])[c]([H])[c]([H])[c]([H])[c]2[H])[c]([H])[c]1[H]

$$$$
