
     RDKit          3D

 24 25  0  0  0  0  0  0  0  0999 V2000
    4.3419   -2.5661   18.4049 H   0  0  0  0  0  0  0  0  0  0  0  0
    4.9712   -3.1575   18.9580 N   0  0  0  0  0  0  0  0  0  0  0  0
    5.6572   -2.4016   19.6695 N   0  0  0  0  0  4  0  0  0  0  0  0
    6.5628   -2.8851   20.4574 N   0  0  0  0  0  0  0  0  0  0  0  0
    7.3495   -1.9720   21.0910 C   0  0  0  0  0  0  0  0  0  0  0  0
    7.3400   -0.5496   20.9995 C   0  0  0  0  0  0  0  0  0  0  0  0
    6.6835    0.1871   19.9058 C   0  0  0  0  0  0  0  0  0  0  0  0
    7.2173    0.2308   18.6030 C   0  0  0  0  0  0  0  0  0  0  0  0
    8.1649   -0.2707   18.3949 H   0  0  0  0  0  0  0  0  0  0  0  0
    6.6050    0.8182   17.5714 N   0  0  0  0  0  0  0  0  0  0  0  0
    5.4189    1.4021   17.8027 C   0  0  0  0  0  0  0  0  0  0  0  0
    4.9418    1.8797   16.9460 H   0  0  0  0  0  0  0  0  0  0  0  0
    4.8019    1.4143   19.0565 C   0  0  0  0  0  0  0  0  0  0  0  0
    3.8391    1.8992   19.1775 H   0  0  0  0  0  0  0  0  0  0  0  0
    5.4529    0.8146   20.1339 C   0  0  0  0  0  0  0  0  0  0  0  0
    5.0039    0.7805   21.1324 H   0  0  0  0  0  0  0  0  0  0  0  0
    7.9690    0.1873   22.0549 C   0  0  0  0  0  0  0  0  0  0  0  0
    7.8076    1.2704   22.0893 H   0  0  0  0  0  0  0  0  0  0  0  0
    8.7197   -0.4369   23.0116 C   0  0  0  0  0  0  0  0  0  0  0  0
    9.1897    0.0695   23.8445 H   0  0  0  0  0  0  0  0  0  0  0  0
    8.9350   -1.8918   22.9727 C   0  0  0  0  0  0  0  0  0  0  0  0
    9.6222   -2.5352   23.7451 O   0  0  0  0  0  0  0  0  0  0  0  0
    8.2448   -2.5478   21.9504 N   0  0  0  0  0  0  0  0  0  0  0  0
    8.2677   -3.5579   21.9953 H   0  0  0  0  0  0  0  0  0  0  0  0
  1  2  1  0
  2  3  2  0
  3  4  2  0
  4  5  1  0
  5  6  2  0
  6  7  1  0
  7  8  2  0
  8  9  1  0
  8 10  1  0
 10 11  2  0
 11 12  1  0
 11 13  1  0
 13 14  1  0
 13 15  2  0
 15 16  1  0
  6 17  1  0
 17 18  1  0
 17 19  2  0
 19 20  1  0
 19 21  1  0
 21 22  2  0
 21 23  1  0
 23 24  1  0
 23  5  1  0
 15  7  1  0
M  CHG  1   3   1
M  END
>  <plip>  (1) 
-0.13333333333333333

>  <filename>  (1) 
[H][N]=[N+]=[N][c]1[c](-[c]2[c]([H])[n][c]([H])[c]([H])[c]2[H])[c]([H])[c]([H])[c](=[O])[n]1[H]

$$$$
