
     RDKit          3D

 39 41  0  0  0  0  0  0  0  0999 V2000
   11.3453   -4.0451   24.9258 H   0  0  0  0  0  0  0  0  0  0  0  0
   10.3729   -3.7332   25.2958 C   0  0  0  0  0  0  0  0  0  0  0  0
    9.6707   -2.9432   24.4786 N   0  0  0  0  0  0  0  0  0  0  0  0
    8.4654   -2.5013   24.8562 C   0  0  0  0  0  0  0  0  0  0  0  0
    7.7309   -1.6875   23.7970 C   0  0  2  0  0  0  0  0  0  0  0  0
    6.8191   -1.2437   24.2084 H   0  0  0  0  0  0  0  0  0  0  0  0
    7.3343   -2.6481   22.6518 C   0  0  0  0  0  0  0  0  0  0  0  0
    8.2458   -3.1350   22.2779 H   0  0  0  0  0  0  0  0  0  0  0  0
    6.7019   -3.4505   23.0517 H   0  0  0  0  0  0  0  0  0  0  0  0
    6.6250   -1.9258   21.5057 C   0  0  0  0  0  0  0  0  0  0  0  0
    6.4075   -2.6219   20.6864 H   0  0  0  0  0  0  0  0  0  0  0  0
    5.6562   -1.5582   21.8589 H   0  0  0  0  0  0  0  0  0  0  0  0
    7.4266   -0.7210   20.9651 C   0  0  1  0  0  0  0  0  0  0  0  0
    8.3597   -1.1180   20.5341 H   0  0  0  0  0  0  0  0  0  0  0  0
    6.6681    0.0093   19.8608 C   0  0  0  0  0  0  0  0  0  0  0  0
    7.1589    0.0668   18.5411 C   0  0  0  0  0  0  0  0  0  0  0  0
    8.1064   -0.4149   18.2976 H   0  0  0  0  0  0  0  0  0  0  0  0
    6.5498    0.6896   17.5239 N   0  0  0  0  0  0  0  0  0  0  0  0
    5.3929    1.3135   17.7905 C   0  0  0  0  0  0  0  0  0  0  0  0
    4.9227    1.8329   16.9589 H   0  0  0  0  0  0  0  0  0  0  0  0
    4.7967    1.3200   19.0553 C   0  0  0  0  0  0  0  0  0  0  0  0
    3.8598    1.8489   19.2098 H   0  0  0  0  0  0  0  0  0  0  0  0
    5.4435    0.6606   20.1030 C   0  0  0  0  0  0  0  0  0  0  0  0
    5.0027    0.6655   21.1011 H   0  0  0  0  0  0  0  0  0  0  0  0
    7.8379    0.2217   22.1205 C   0  0  0  0  0  0  0  0  0  0  0  0
    6.9340    0.6872   22.5413 H   0  0  0  0  0  0  0  0  0  0  0  0
    8.4516    1.0416   21.7257 H   0  0  0  0  0  0  0  0  0  0  0  0
    8.5809   -0.5193   23.2414 C   0  0  0  0  0  0  0  0  0  0  0  0
    9.5337   -0.9166   22.8678 H   0  0  0  0  0  0  0  0  0  0  0  0
    8.8363    0.1815   24.0473 H   0  0  0  0  0  0  0  0  0  0  0  0
    7.9265   -2.8708   26.1101 C   0  0  0  0  0  0  0  0  0  0  0  0
    6.5171   -2.4538   26.4026 C   0  0  0  0  0  0  0  0  0  0  0  0
    5.6779   -2.8870   25.4319 F   0  0  0  0  0  0  0  0  0  0  0  0
    6.3804   -1.1108   26.4529 F   0  0  0  0  0  0  0  0  0  0  0  0
    6.0345   -2.9262   27.5606 F   0  0  0  0  0  0  0  0  0  0  0  0
    8.6784   -3.6593   26.9841 C   0  0  0  0  0  0  0  0  0  0  0  0
    8.2818   -3.9121   27.9688 H   0  0  0  0  0  0  0  0  0  0  0  0
    9.9212   -4.1181   26.5571 C   0  0  0  0  0  0  0  0  0  0  0  0
   10.5342   -4.7747   27.1665 H   0  0  0  0  0  0  0  0  0  0  0  0
  1  2  1  0
  2  3  2  0
  3  4  1  0
  4  5  1  0
  5  6  1  1
  5  7  1  0
  7  8  1  0
  7  9  1  0
  7 10  1  0
 10 11  1  0
 10 12  1  0
 10 13  1  0
 13 14  1  6
 13 15  1  0
 15 16  2  0
 16 17  1  0
 16 18  1  0
 18 19  2  0
 19 20  1  0
 19 21  1  0
 21 22  1  0
 21 23  2  0
 23 24  1  0
 13 25  1  0
 25 26  1  0
 25 27  1  0
 25 28  1  0
 28 29  1  0
 28 30  1  0
  4 31  2  0
 31 32  1  0
 32 33  1  0
 32 34  1  0
 32 35  1  0
 31 36  1  0
 36 37  1  0
 36 38  2  0
 38 39  1  0
 38  2  1  0
 28  5  1  0
 23 15  1  0
M  END
>  <plip>  (1) 
-0.034482758620689655

>  <filename>  (1) 
[H][c]1[n][c]([C@]2([H])[C]([H])([H])[C]([H])([H])[C@@]([H])([c]3[c]([H])[n][c]([H])[c]([H])[c]3[H])[C]([H])([H])[C]2([H])[H])[c]([C]([F])([F])[F])[c]([H])[c]1[H]

$$$$
