
     RDKit          3D

 34 36  0  0  0  0  0  0  0  0999 V2000
    4.9778    1.8217   17.0271 H   0  0  0  0  0  0  0  0  0  0  0  0
    5.4606    1.2987   17.8489 C   0  0  0  0  0  0  0  0  0  0  0  0
    6.6313    0.7017   17.5673 N   0  0  0  0  0  0  0  0  0  0  0  0
    7.2437    0.0492   18.5646 C   0  0  0  0  0  0  0  0  0  0  0  0
    8.1979   -0.4166   18.3186 H   0  0  0  0  0  0  0  0  0  0  0  0
    6.7183   -0.0761   19.8716 C   0  0  0  0  0  0  0  0  0  0  0  0
    7.3699   -0.7792   20.9279 N   0  0  0  0  0  0  0  0  0  0  0  0
    6.7539   -1.8144   21.6162 C   0  0  0  0  0  0  0  0  0  0  0  0
    5.6304   -2.2344   21.5026 O   0  0  0  0  0  0  0  0  0  0  0  0
    7.6954   -2.3902   22.4365 N   0  0  0  0  0  0  0  0  0  0  0  0
    7.4928   -3.2853   22.8421 H   0  0  0  0  0  0  0  0  0  0  0  0
    8.9537   -2.0156   22.0959 C   0  0  0  0  0  0  0  0  0  0  0  0
    9.9508   -2.6376   22.3598 O   0  0  0  0  0  0  0  0  0  0  0  0
    8.8046   -0.7368   21.2128 C   0  0  2  0  0  0  0  0  0  0  0  0
    9.3725   -0.9611   20.2960 H   0  0  0  0  0  0  0  0  0  0  0  0
    9.2906    0.4891   21.8492 N   0  0  0  0  0  0  0  0  0  0  0  0
   10.7773    0.5417   21.8477 C   0  0  0  0  0  0  0  0  0  0  0  0
   11.1724    0.5399   20.8217 H   0  0  0  0  0  0  0  0  0  0  0  0
   11.1603   -0.3617   22.3373 H   0  0  0  0  0  0  0  0  0  0  0  0
   11.3765    1.7813   22.5489 C   0  0  0  0  0  0  0  0  0  0  0  0
   11.2491    1.6773   23.6354 H   0  0  0  0  0  0  0  0  0  0  0  0
   12.4551    1.8027   22.3488 H   0  0  0  0  0  0  0  0  0  0  0  0
   10.7917    3.0660   22.1560 N   0  0  0  0  0  0  0  0  0  0  0  0
   11.0833    3.3548   21.2201 H   0  0  0  0  0  0  0  0  0  0  0  0
    9.3287    2.9711   22.2286 C   0  0  0  0  0  0  0  0  0  0  0  0
    9.0677    2.8672   23.2879 H   0  0  0  0  0  0  0  0  0  0  0  0
    8.8827    3.9123   21.8860 H   0  0  0  0  0  0  0  0  0  0  0  0
    8.6689    1.7870   21.4834 C   0  0  0  0  0  0  0  0  0  0  0  0
    8.6767    1.9786   20.3994 H   0  0  0  0  0  0  0  0  0  0  0  0
    7.6169    1.7680   21.7840 H   0  0  0  0  0  0  0  0  0  0  0  0
    5.4945    0.5542   20.1459 C   0  0  0  0  0  0  0  0  0  0  0  0
    5.0694    0.4903   21.1494 H   0  0  0  0  0  0  0  0  0  0  0  0
    4.8669    1.2608   19.1150 C   0  0  0  0  0  0  0  0  0  0  0  0
    3.9291    1.7805   19.2824 H   0  0  0  0  0  0  0  0  0  0  0  0
  1  2  1  0
  2  3  2  0
  3  4  1  0
  4  5  1  0
  4  6  2  0
  6  7  1  0
  7  8  1  0
  8  9  2  0
  8 10  1  0
 10 11  1  0
 10 12  1  0
 12 13  2  0
 12 14  1  0
 14 15  1  6
 14 16  1  0
 16 17  1  0
 17 18  1  0
 17 19  1  0
 17 20  1  0
 20 21  1  0
 20 22  1  0
 20 23  1  0
 23 24  1  0
 23 25  1  0
 25 26  1  0
 25 27  1  0
 25 28  1  0
 28 29  1  0
 28 30  1  0
  6 31  1  0
 31 32  1  0
 31 33  2  0
 33 34  1  0
 33  2  1  0
 14  7  1  0
 28 16  1  0
M  END
>  <plip>  (1) 
-0.13793103448275862

>  <filename>  (1) 
[H][c]1[n][c]([H])[c]([N]2[C](=[O])[N]([H])[C](=[O])[C@]2([H])[N]2[C]([H])([H])[C]([H])([H])[N]([H])[C]([H])([H])[C]2([H])[H])[c]([H])[c]1[H]

$$$$
