
     RDKit          3D

 35 36  0  0  0  0  0  0  0  0999 V2000
   12.4307    6.3139   26.0359 C   0  0  0  0  0  0  0  0  0  0  0  0
   12.0845    5.6960   24.7008 C   0  0  0  0  0  0  0  0  0  0  0  0
   12.9055    5.9549   23.5940 C   0  0  0  0  0  0  0  0  0  0  0  0
   12.6987    5.3295   22.3639 C   0  0  0  0  0  0  0  0  0  0  0  0
   11.6890    4.3829   22.2294 C   0  0  0  0  0  0  0  0  0  0  0  0
   10.7946    4.1528   23.2866 C   0  0  0  0  0  0  0  0  0  0  0  0
    9.7546    3.2071   23.1153 N   0  0  0  0  0  0  0  0  0  0  0  0
    9.8558    2.0522   22.3751 C   0  0  0  0  0  0  0  0  0  0  0  0
   10.9152    1.6395   21.9290 O   0  0  0  0  0  0  0  0  0  0  0  0
    8.4735    1.2470   22.1046 C   0  0  0  0  0  0  0  0  0  0  0  0
    7.3937    1.6519   22.5090 O   0  0  0  0  0  0  0  0  0  0  0  0
    8.5933    0.0866   21.4015 N   0  0  0  0  0  0  0  0  0  0  0  0
    7.4190   -0.6878   21.0047 C   0  0  0  0  0  0  0  0  0  0  0  0
    6.6421   -0.0012   19.9036 C   0  0  0  0  0  0  0  0  0  0  0  0
    5.4256    0.6500   20.1462 C   0  0  0  0  0  0  0  0  0  0  0  0
    4.7920    1.3101   19.0912 C   0  0  0  0  0  0  0  0  0  0  0  0
    5.3973    1.2949   17.8323 C   0  0  0  0  0  0  0  0  0  0  0  0
    6.5632    0.6815   17.5802 N   0  0  0  0  0  0  0  0  0  0  0  0
    7.1656    0.0654   18.6045 C   0  0  0  0  0  0  0  0  0  0  0  0
    8.1157   -0.4151   18.3652 H   0  0  0  0  0  0  0  0  0  0  0  0
    4.9302    1.7944   16.9845 H   0  0  0  0  0  0  0  0  0  0  0  0
    3.8629    1.8498   19.2361 H   0  0  0  0  0  0  0  0  0  0  0  0
    5.0083    0.6619   21.1557 H   0  0  0  0  0  0  0  0  0  0  0  0
    7.7638   -1.6779   20.6827 H   0  0  0  0  0  0  0  0  0  0  0  0
    6.7709   -0.8388   21.8771 H   0  0  0  0  0  0  0  0  0  0  0  0
    9.5145   -0.1952   21.0995 H   0  0  0  0  0  0  0  0  0  0  0  0
    8.8866    3.3817   23.6038 H   0  0  0  0  0  0  0  0  0  0  0  0
   10.9587    4.8724   24.4921 C   0  0  0  0  0  0  0  0  0  0  0  0
    9.7078    4.8217   25.7236 Cl  0  0  0  0  0  0  0  0  0  0  0  0
   11.5874    3.8063   21.3159 H   0  0  0  0  0  0  0  0  0  0  0  0
   13.3194    5.5801   21.5093 H   0  0  0  0  0  0  0  0  0  0  0  0
   13.7063    6.6751   23.7074 H   0  0  0  0  0  0  0  0  0  0  0  0
   11.5912    6.8839   26.4433 H   0  0  0  0  0  0  0  0  0  0  0  0
   13.2850    6.9860   25.9270 H   0  0  0  0  0  0  0  0  0  0  0  0
   12.7202    5.5686   26.7822 H   0  0  0  0  0  0  0  0  0  0  0  0
  1  2  1  0
  2  3  2  0
  3  4  1  0
  4  5  2  0
  5  6  1  0
  6  7  1  0
  7  8  1  0
  8  9  2  0
  8 10  1  0
 10 11  2  0
 10 12  1  0
 12 13  1  0
 13 14  1  0
 14 15  2  0
 15 16  1  0
 16 17  2  0
 17 18  1  0
 18 19  2  0
 19 20  1  0
 17 21  1  0
 16 22  1  0
 15 23  1  0
 13 24  1  0
 13 25  1  0
 12 26  1  0
  7 27  1  0
  6 28  2  0
 28 29  1  0
  5 30  1  0
  4 31  1  0
  3 32  1  0
  1 33  1  0
  1 34  1  0
  1 35  1  0
 28  2  1  0
 19 14  1  0
M  END
>  <plip>  (1) 
-0.10714285714285714

>  <filename>  (1) 
[H][c]1[n][c]([H])[c]([C]([H])([H])[N]([H])[C](=[O])[C](=[O])[N]([H])[c]2[c]([H])[c]([H])[c]([H])[c]([C]([H])([H])[H])[c]2[Cl])[c]([H])[c]1[H]

$$$$
