
     RDKit          3D

 39 41  0  0  0  0  0  0  0  0999 V2000
    7.1165   -0.6034   22.7445 C   0  0  0  0  0  0  0  0  0  0  0  0
    7.7170   -0.7557   21.1002 S   0  0  0  0  0  0  0  0  0  0  0  0
    9.0572   -0.2247   20.9261 O   0  0  0  0  0  0  0  0  0  0  0  0
    7.6950   -2.3762   20.8064 N   0  0  0  0  0  0  0  0  0  0  0  0
    6.4896   -2.8655   20.9498 C   0  0  0  0  0  0  0  0  0  0  0  0
    5.4676   -2.2159   21.1916 O   0  0  0  0  0  0  0  0  0  0  0  0
    6.3302   -4.3975   20.8659 C   0  0  0  0  0  0  0  0  0  0  0  0
    6.2541   -5.1280   22.2498 C   0  0  0  0  0  0  0  0  0  0  0  0
    7.5288   -4.9226   23.1029 C   0  0  0  0  0  0  0  0  0  0  0  0
    7.1001   -4.0055   24.2174 C   0  0  0  0  0  0  0  0  0  0  0  0
    7.9081   -3.3643   25.1570 C   0  0  0  0  0  0  0  0  0  0  0  0
    7.3208   -2.5789   26.1533 C   0  0  0  0  0  0  0  0  0  0  0  0
    5.9211   -2.4489   26.1994 C   0  0  0  0  0  0  0  0  0  0  0  0
    5.2138   -1.4714   27.4574 Cl  0  0  0  0  0  0  0  0  0  0  0  0
    5.0952   -3.0782   25.2716 C   0  0  0  0  0  0  0  0  0  0  0  0
    5.7097   -3.8630   24.2785 C   0  0  0  0  0  0  0  0  0  0  0  0
    5.0912   -4.6437   23.1672 C   0  0  0  0  0  0  0  0  0  0  0  0
    3.9159   -4.8489   22.9755 O   0  0  0  0  0  0  0  0  0  0  0  0
    4.0163   -2.9524   25.3232 H   0  0  0  0  0  0  0  0  0  0  0  0
    7.9286   -2.0717   26.8957 H   0  0  0  0  0  0  0  0  0  0  0  0
    8.9905   -3.4695   25.1143 H   0  0  0  0  0  0  0  0  0  0  0  0
    8.3653   -4.4864   22.5429 H   0  0  0  0  0  0  0  0  0  0  0  0
    7.8916   -5.8737   23.5169 H   0  0  0  0  0  0  0  0  0  0  0  0
    6.0652   -6.1888   22.0439 H   0  0  0  0  0  0  0  0  0  0  0  0
    5.4139   -4.5886   20.3011 H   0  0  0  0  0  0  0  0  0  0  0  0
    7.1773   -4.7772   20.2899 H   0  0  0  0  0  0  0  0  0  0  0  0
    6.6175   -0.1050   19.9418 C   0  0  0  0  0  0  0  0  0  0  0  0
    5.4093    0.5483   20.1864 C   0  0  0  0  0  0  0  0  0  0  0  0
    4.8628    1.2471   19.1167 C   0  0  0  0  0  0  0  0  0  0  0  0
    5.5025    1.2089   17.8758 C   0  0  0  0  0  0  0  0  0  0  0  0
    6.6225    0.5023   17.6477 N   0  0  0  0  0  0  0  0  0  0  0  0
    7.1658   -0.1561   18.6666 C   0  0  0  0  0  0  0  0  0  0  0  0
    8.0830   -0.7020   18.4381 H   0  0  0  0  0  0  0  0  0  0  0  0
    5.0808    1.7341   17.0212 H   0  0  0  0  0  0  0  0  0  0  0  0
    3.9431    1.8074   19.2268 H   0  0  0  0  0  0  0  0  0  0  0  0
    4.8905    0.4893   21.1466 H   0  0  0  0  0  0  0  0  0  0  0  0
    6.1731   -1.1319   22.8048 H   0  0  0  0  0  0  0  0  0  0  0  0
    7.0210    0.4530   22.9780 H   0  0  0  0  0  0  0  0  0  0  0  0
    7.8682   -1.0907   23.3578 H   0  0  0  0  0  0  0  0  0  0  0  0
  1  2  1  0
  2  3  2  0
  2  4  2  0
  4  5  1  0
  5  6  2  0
  5  7  1  0
  7  8  1  0
  8  9  1  0
  9 10  1  0
 10 11  2  0
 11 12  1  0
 12 13  2  0
 13 14  1  0
 13 15  1  0
 15 16  2  0
 16 17  1  0
 17 18  2  0
 15 19  1  0
 12 20  1  0
 11 21  1  0
  9 22  1  0
  9 23  1  0
  8 24  1  0
  7 25  1  0
  7 26  1  0
  2 27  1  0
 27 28  2  0
 28 29  1  0
 29 30  2  0
 30 31  1  0
 31 32  2  0
 32 33  1  0
 30 34  1  0
 29 35  1  0
 28 36  1  0
  1 37  1  0
  1 38  1  0
  1 39  1  0
 17  8  1  0
 32 27  1  0
 16 10  1  0
M  END
>  <plip>  (1) 
-0.0967741935483871

>  <filename>  (1) 
[H][c]1[n][c]([H])[c]([S](=[O])(=[N][C](=[O])[C]([H])([H])[C]2([H])[C](=[O])[c]3[c]([H])[c]([Cl])[c]([H])[c]([H])[c]3[C]2([H])[H])[C]([H])([H])[H])[c]([H])[c]1[H]

$$$$
