
     RDKit          3D

 37 39  0  0  0  0  0  0  0  0999 V2000
    9.6892   -0.5099   23.5847 C   0  0  0  0  0  0  0  0  0  0  0  0
    8.9604   -1.8205   23.2349 C   0  0  0  0  0  0  0  0  0  0  0  0
    9.2651   -2.9573   24.2289 C   0  0  0  0  0  0  0  0  0  0  0  0
   10.5466   -3.5333   24.2206 C   0  0  0  0  0  0  0  0  0  0  0  0
   10.8886   -4.5191   25.1461 C   0  0  0  0  0  0  0  0  0  0  0  0
    9.9610   -4.9249   26.1076 C   0  0  0  0  0  0  0  0  0  0  0  0
    8.6772   -4.3747   26.1111 C   0  0  0  0  0  0  0  0  0  0  0  0
    8.3087   -3.4117   25.1608 C   0  0  0  0  0  0  0  0  0  0  0  0
    6.8771   -2.9098   25.0937 C   0  0  0  0  0  0  0  0  0  0  0  0
    6.7856   -1.5634   24.3795 C   0  0  0  0  0  0  0  0  0  0  0  0
    7.5047   -1.5863   23.1059 N   0  0  0  0  0  0  0  0  0  0  0  0
    6.8373   -1.6521   21.9002 C   0  0  0  0  0  0  0  0  0  0  0  0
    5.5532   -2.6462   21.5936 S   0  0  0  0  0  0  0  0  0  0  0  0
    7.3869   -0.8168   20.9566 N   0  0  0  0  0  0  0  0  0  0  0  0
    6.6752   -0.0954   19.9414 C   0  0  0  0  0  0  0  0  0  0  0  0
    5.4689    0.5734   20.1920 C   0  0  0  0  0  0  0  0  0  0  0  0
    4.8658    1.2581   19.1281 C   0  0  0  0  0  0  0  0  0  0  0  0
    5.4747    1.2601   17.8687 C   0  0  0  0  0  0  0  0  0  0  0  0
    6.6451    0.6448   17.6267 N   0  0  0  0  0  0  0  0  0  0  0  0
    7.2210   -0.0039   18.6450 C   0  0  0  0  0  0  0  0  0  0  0  0
    8.1747   -0.4878   18.4463 H   0  0  0  0  0  0  0  0  0  0  0  0
    5.0113    1.7652   17.0235 H   0  0  0  0  0  0  0  0  0  0  0  0
    3.9329    1.7896   19.2609 H   0  0  0  0  0  0  0  0  0  0  0  0
    5.0395    0.5773   21.1961 H   0  0  0  0  0  0  0  0  0  0  0  0
    8.2179   -0.3615   21.3120 H   0  0  0  0  0  0  0  0  0  0  0  0
    5.7449   -1.2891   24.2148 H   0  0  0  0  0  0  0  0  0  0  0  0
    7.2276   -0.7806   25.0160 H   0  0  0  0  0  0  0  0  0  0  0  0
    6.4327   -2.8287   26.0934 H   0  0  0  0  0  0  0  0  0  0  0  0
    6.2579   -3.6366   24.5534 H   0  0  0  0  0  0  0  0  0  0  0  0
    7.9481   -4.7036   26.8491 H   0  0  0  0  0  0  0  0  0  0  0  0
   10.2309   -5.6743   26.8458 H   0  0  0  0  0  0  0  0  0  0  0  0
   11.8757   -4.9705   25.1212 H   0  0  0  0  0  0  0  0  0  0  0  0
   11.2819   -3.1928   23.4933 H   0  0  0  0  0  0  0  0  0  0  0  0
    9.3486   -2.1666   22.2665 H   0  0  0  0  0  0  0  0  0  0  0  0
    9.4488   -0.1821   24.6036 H   0  0  0  0  0  0  0  0  0  0  0  0
   10.7745   -0.6439   23.5174 H   0  0  0  0  0  0  0  0  0  0  0  0
    9.3978    0.2898   22.8932 H   0  0  0  0  0  0  0  0  0  0  0  0
  1  2  1  0
  2  3  1  0
  3  4  2  0
  4  5  1  0
  5  6  2  0
  6  7  1  0
  7  8  2  0
  8  9  1  0
  9 10  1  0
 10 11  1  0
 11 12  1  0
 12 13  2  0
 12 14  1  0
 14 15  1  0
 15 16  2  0
 16 17  1  0
 17 18  2  0
 18 19  1  0
 19 20  2  0
 20 21  1  0
 18 22  1  0
 17 23  1  0
 16 24  1  0
 14 25  1  0
 10 26  1  0
 10 27  1  0
  9 28  1  0
  9 29  1  0
  7 30  1  0
  6 31  1  0
  5 32  1  0
  4 33  1  0
  2 34  1  0
  1 35  1  0
  1 36  1  0
  1 37  1  0
 11  2  1  0
 20 15  1  0
  8  3  1  0
M  END
>  <plip>  (1) 
-0.07142857142857142

>  <filename>  (1) 
[H][c]1[n][c]([H])[c]([N]([H])[C](=[S])[N]2[C]([H])([H])[C]([H])([H])[c]3[c]([H])[c]([H])[c]([H])[c]([H])[c]3[C]2([H])[C]([H])([H])[H])[c]([H])[c]1[H]

$$$$
