
     RDKit          3D

 37 38  0  0  0  0  0  0  0  0999 V2000
    6.5557    5.3354   25.4335 H   0  0  0  0  0  0  0  0  0  0  0  0
    7.0884    5.3421   24.6131 O   0  0  0  0  0  0  0  0  0  0  0  0
    7.2312    4.0230   24.4387 C   0  0  0  0  0  0  0  0  0  0  0  0
    6.7434    3.2888   25.2692 O   0  0  0  0  0  0  0  0  0  0  0  0
    8.0245    3.5376   23.1288 C   0  0  0  0  0  0  0  0  0  0  0  0
    8.5989    4.3570   22.4056 O   0  0  0  0  0  0  0  0  0  0  0  0
    8.0491    2.1220   22.8449 C   0  0  0  0  0  0  0  0  0  0  0  0
    7.5350    1.4505   23.5132 H   0  0  0  0  0  0  0  0  0  0  0  0
    8.6995    1.5902   21.7781 C   0  0  0  0  0  0  0  0  0  0  0  0
    9.3368    2.3706   20.9326 O   0  0  0  0  0  0  0  0  0  0  0  0
    9.2035    3.3084   21.2615 H   0  0  0  0  0  0  0  0  0  0  0  0
    8.7488    0.0968   21.4952 C   0  0  1  0  0  0  0  0  0  0  0  0
    9.3075   -0.0123   20.5562 H   0  0  0  0  0  0  0  0  0  0  0  0
    9.5133   -0.7071   22.5886 C   0  0  0  0  0  0  0  0  0  0  0  0
   10.5260   -0.2981   22.7156 H   0  0  0  0  0  0  0  0  0  0  0  0
    8.9975   -0.5832   23.5537 H   0  0  0  0  0  0  0  0  0  0  0  0
    9.6009   -2.2001   22.2331 C   0  0  0  0  0  0  0  0  0  0  0  0
   10.2237   -2.3163   21.3309 H   0  0  0  0  0  0  0  0  0  0  0  0
   10.1128   -2.7529   23.0287 H   0  0  0  0  0  0  0  0  0  0  0  0
    8.2142   -2.8042   21.9786 C   0  0  0  0  0  0  0  0  0  0  0  0
    7.6217   -2.8003   22.9052 H   0  0  0  0  0  0  0  0  0  0  0  0
    8.3009   -3.8565   21.6761 H   0  0  0  0  0  0  0  0  0  0  0  0
    7.4818   -1.9992   20.9082 C   0  0  0  0  0  0  0  0  0  0  0  0
    8.0867   -2.0048   20.0028 H   0  0  0  0  0  0  0  0  0  0  0  0
    6.5183   -2.4484   20.6496 H   0  0  0  0  0  0  0  0  0  0  0  0
    7.3234   -0.5081   21.2385 C   0  0  2  0  0  0  0  0  0  0  0  0
    6.7171   -0.4088   22.1567 H   0  0  0  0  0  0  0  0  0  0  0  0
    6.6217    0.1775   20.0724 C   0  0  0  0  0  0  0  0  0  0  0  0
    7.1821    0.1353   18.7806 C   0  0  0  0  0  0  0  0  0  0  0  0
    8.1500   -0.3496   18.6209 H   0  0  0  0  0  0  0  0  0  0  0  0
    6.6141    0.6614   17.6876 N   0  0  0  0  0  0  0  0  0  0  0  0
    5.4454    1.2954   17.8567 C   0  0  0  0  0  0  0  0  0  0  0  0
    5.0019    1.7145   16.9580 H   0  0  0  0  0  0  0  0  0  0  0  0
    4.8087    1.4226   19.0938 C   0  0  0  0  0  0  0  0  0  0  0  0
    3.8746    1.9645   19.1643 H   0  0  0  0  0  0  0  0  0  0  0  0
    5.4135    0.8661   20.2225 C   0  0  0  0  0  0  0  0  0  0  0  0
    4.9648    0.9673   21.2125 H   0  0  0  0  0  0  0  0  0  0  0  0
  1  2  1  0
  2  3  1  0
  3  4  2  0
  3  5  1  0
  5  6  2  0
  5  7  1  0
  7  8  1  0
  7  9  2  3
  9 10  1  0
 10 11  1  0
  9 12  1  0
 12 13  1  6
 12 14  1  0
 14 15  1  0
 14 16  1  0
 14 17  1  0
 17 18  1  0
 17 19  1  0
 17 20  1  0
 20 21  1  0
 20 22  1  0
 20 23  1  0
 23 24  1  0
 23 25  1  0
 23 26  1  0
 26 27  1  1
 26 28  1  0
 28 29  2  0
 29 30  1  0
 29 31  1  0
 31 32  2  0
 32 33  1  0
 32 34  1  0
 34 35  1  0
 34 36  2  0
 36 37  1  0
 26 12  1  0
 36 28  1  0
M  END
>  <plip>  (1) 
-0.10714285714285714

>  <filename>  (1) 
[H][O][C](=[O])[C](=[O])[C]([H])=[C]([O][H])[C@@]1([H])[C]([H])([H])[C]([H])([H])[C]([H])([H])[C]([H])([H])[C@]1([H])[c]1[c]([H])[n][c]([H])[c]([H])[c]1[H]

$$$$
