
     RDKit          3D

 43 44  0  0  0  0  0  0  0  0999 V2000
   11.4833    1.2907   22.3036 C   0  0  0  0  0  0  0  0  0  0  0  0
   10.1447    1.8490   21.8714 C   0  0  0  0  0  0  0  0  0  0  0  0
    9.6734    3.0151   22.3468 C   0  0  0  0  0  0  0  0  0  0  0  0
   10.3915    3.9759   23.2091 C   0  0  0  0  0  0  0  0  0  0  0  0
   11.5701    4.5937   22.7651 C   0  0  0  0  0  0  0  0  0  0  0  0
   12.2511    5.4907   23.5879 C   0  0  0  0  0  0  0  0  0  0  0  0
   11.7422    5.7999   24.8525 C   0  0  0  0  0  0  0  0  0  0  0  0
   10.5430    5.2259   25.2927 C   0  0  0  0  0  0  0  0  0  0  0  0
    9.8746    4.2934   24.4872 C   0  0  0  0  0  0  0  0  0  0  0  0
    8.6272    3.5641   24.9727 C   0  0  0  0  0  0  0  0  0  0  0  0
    8.7257    2.2288   24.7782 F   0  0  0  0  0  0  0  0  0  0  0  0
    7.5223    3.9513   24.2975 F   0  0  0  0  0  0  0  0  0  0  0  0
    8.3679    3.7646   26.2744 F   0  0  0  0  0  0  0  0  0  0  0  0
   10.1626    5.4725   26.2832 H   0  0  0  0  0  0  0  0  0  0  0  0
   12.2812    6.4805   25.5018 H   0  0  0  0  0  0  0  0  0  0  0  0
   13.1733    5.9462   23.2412 H   0  0  0  0  0  0  0  0  0  0  0  0
   11.9278    4.3721   21.7603 H   0  0  0  0  0  0  0  0  0  0  0  0
    8.6351    3.3080   22.1689 H   0  0  0  0  0  0  0  0  0  0  0  0
    9.2984    1.0167   20.9465 C   0  0  0  0  0  0  0  0  0  0  0  0
    8.2385    0.3342   21.8148 N   0  0  0  0  0  4  0  0  0  0  0  0
    7.2808   -0.6488   21.1723 C   0  0  2  0  0  0  0  0  0  0  0  0
    8.0116   -1.9346   20.7964 C   0  0  0  0  0  0  0  0  0  0  0  0
    7.3000   -2.6624   20.4044 H   0  0  0  0  0  0  0  0  0  0  0  0
    8.4936   -2.3919   21.6651 H   0  0  0  0  0  0  0  0  0  0  0  0
    8.7784   -1.7306   20.0421 H   0  0  0  0  0  0  0  0  0  0  0  0
    6.5872    0.0092   19.9927 C   0  0  0  0  0  0  0  0  0  0  0  0
    5.3632    0.6703   20.1647 C   0  0  0  0  0  0  0  0  0  0  0  0
    4.7830    1.3204   19.0777 C   0  0  0  0  0  0  0  0  0  0  0  0
    5.4364    1.2875   17.8441 C   0  0  0  0  0  0  0  0  0  0  0  0
    6.6016    0.6525   17.6471 N   0  0  0  0  0  0  0  0  0  0  0  0
    7.1550    0.0429   18.7067 C   0  0  0  0  0  0  0  0  0  0  0  0
    8.1175   -0.4339   18.5063 H   0  0  0  0  0  0  0  0  0  0  0  0
    5.0189    1.8042   16.9818 H   0  0  0  0  0  0  0  0  0  0  0  0
    3.8496    1.8629   19.1770 H   0  0  0  0  0  0  0  0  0  0  0  0
    4.8893    0.6844   21.1488 H   0  0  0  0  0  0  0  0  0  0  0  0
    6.5158   -0.8622   21.9229 H   0  0  0  0  0  0  0  0  0  0  0  0
    8.7692   -0.0935   22.6098 H   0  0  0  0  0  0  0  0  0  0  0  0
    7.6796    1.1197   22.2212 H   0  0  0  0  0  0  0  0  0  0  0  0
    9.9091    0.2663   20.4349 H   0  0  0  0  0  0  0  0  0  0  0  0
    8.8052    1.6331   20.1928 H   0  0  0  0  0  0  0  0  0  0  0  0
   12.3221    1.8536   21.8765 H   0  0  0  0  0  0  0  0  0  0  0  0
   11.5976    0.2431   22.0082 H   0  0  0  0  0  0  0  0  0  0  0  0
   11.5999    1.3345   23.3937 H   0  0  0  0  0  0  0  0  0  0  0  0
  1  2  1  0
  2  3  2  3
  3  4  1  0
  4  5  2  0
  5  6  1  0
  6  7  2  0
  7  8  1  0
  8  9  2  0
  9 10  1  0
 10 11  1  0
 10 12  1  0
 10 13  1  0
  8 14  1  0
  7 15  1  0
  6 16  1  0
  5 17  1  0
  3 18  1  0
  2 19  1  0
 19 20  1  0
 20 21  1  0
 21 22  1  0
 22 23  1  0
 22 24  1  0
 22 25  1  0
 21 26  1  0
 26 27  2  0
 27 28  1  0
 28 29  2  0
 29 30  1  0
 30 31  2  0
 31 32  1  0
 29 33  1  0
 28 34  1  0
 27 35  1  0
 21 36  1  1
 20 37  1  0
 20 38  1  0
 19 39  1  0
 19 40  1  0
  1 41  1  0
  1 42  1  0
  1 43  1  0
  9  4  1  0
 31 26  1  0
M  CHG  1  20   1
M  END
>  <plip>  (1) 
-0.03571428571428571

>  <filename>  (1) 
[H][C](=[C]([C]([H])([H])[H])[C]([H])([H])[N+]([H])([H])[C@@]([H])([c]1[c]([H])[n][c]([H])[c]([H])[c]1[H])[C]([H])([H])[H])[c]1[c]([H])[c]([H])[c]([H])[c]([H])[c]1[C]([F])([F])[F]

$$$$
