
     RDKit          3D

 36 37  0  0  0  0  0  0  0  0999 V2000
    3.8213    3.5333   22.8082 C   0  0  0  0  0  0  0  0  0  0  0  0
    4.1646    2.6336   23.9816 C   0  0  0  0  0  0  0  0  0  0  0  0
    3.2276    2.4496   25.0035 C   0  0  0  0  0  0  0  0  0  0  0  0
    3.5316    1.6185   26.0947 C   0  0  0  0  0  0  0  0  0  0  0  0
    4.7771    0.9992   26.1183 C   0  0  0  0  0  0  0  0  0  0  0  0
    5.6899    1.1537   25.1588 N   0  0  0  0  0  0  0  0  0  0  0  0
    5.4047    1.9407   24.1336 C   0  0  0  0  0  0  0  0  0  0  0  0
    6.3911    2.0426   23.1626 N   0  0  0  0  0  0  0  0  0  0  0  0
    7.6550    1.4866   23.2109 C   0  0  0  0  0  0  0  0  0  0  0  0
    8.1723    1.0362   24.2033 O   0  0  0  0  0  0  0  0  0  0  0  0
    8.4394    1.4605   21.8976 C   0  0  0  0  0  0  0  0  0  0  0  0
    8.6916    0.0214   21.3907 C   0  0  0  0  0  0  0  0  0  0  0  0
    7.4042   -0.7256   21.0001 C   0  0  0  0  0  0  0  0  0  0  0  0
    6.6371   -0.0244   19.8983 C   0  0  0  0  0  0  0  0  0  0  0  0
    5.4276    0.6418   20.1380 C   0  0  0  0  0  0  0  0  0  0  0  0
    4.7942    1.3206   19.0925 C   0  0  0  0  0  0  0  0  0  0  0  0
    5.3916    1.3085   17.8284 C   0  0  0  0  0  0  0  0  0  0  0  0
    6.5523    0.6883   17.5685 N   0  0  0  0  0  0  0  0  0  0  0  0
    7.1534    0.0594   18.5902 C   0  0  0  0  0  0  0  0  0  0  0  0
    8.1088   -0.4125   18.3522 H   0  0  0  0  0  0  0  0  0  0  0  0
    4.9239    1.8116   16.9836 H   0  0  0  0  0  0  0  0  0  0  0  0
    3.8607    1.8581   19.2340 H   0  0  0  0  0  0  0  0  0  0  0  0
    4.9984    0.6190   21.1403 H   0  0  0  0  0  0  0  0  0  0  0  0
    7.6590   -1.7477   20.6919 H   0  0  0  0  0  0  0  0  0  0  0  0
    6.7664   -0.8295   21.8882 H   0  0  0  0  0  0  0  0  0  0  0  0
    9.3689    0.0527   20.5267 H   0  0  0  0  0  0  0  0  0  0  0  0
    9.2191   -0.5370   22.1721 H   0  0  0  0  0  0  0  0  0  0  0  0
    9.3998    1.9180   22.1575 H   0  0  0  0  0  0  0  0  0  0  0  0
    7.9817    2.0735   21.1130 H   0  0  0  0  0  0  0  0  0  0  0  0
    6.1378    2.5771   22.3546 H   0  0  0  0  0  0  0  0  0  0  0  0
    5.0720    0.3466   26.9450 H   0  0  0  0  0  0  0  0  0  0  0  0
    2.8369    1.4492   26.9101 H   0  0  0  0  0  0  0  0  0  0  0  0
    2.2601    2.9602   24.9475 H   0  0  0  0  0  0  0  0  0  0  0  0
    3.7929    2.9850   21.8582 H   0  0  0  0  0  0  0  0  0  0  0  0
    2.8277    3.9676   22.9602 H   0  0  0  0  0  0  0  0  0  0  0  0
    4.5242    4.3678   22.6970 H   0  0  0  0  0  0  0  0  0  0  0  0
  1  2  1  0
  2  3  2  0
  3  4  1  0
  4  5  2  0
  5  6  1  0
  6  7  2  0
  7  8  1  0
  8  9  1  0
  9 10  2  0
  9 11  1  0
 11 12  1  0
 12 13  1  0
 13 14  1  0
 14 15  2  0
 15 16  1  0
 16 17  2  0
 17 18  1  0
 18 19  2  0
 19 20  1  0
 17 21  1  0
 16 22  1  0
 15 23  1  0
 13 24  1  0
 13 25  1  0
 12 26  1  0
 12 27  1  0
 11 28  1  0
 11 29  1  0
  8 30  1  0
  5 31  1  0
  4 32  1  0
  3 33  1  0
  1 34  1  0
  1 35  1  0
  1 36  1  0
  7  2  1  0
 19 14  1  0
M  END
>  <plip>  (1) 
-0.07142857142857142

>  <filename>  (1) 
[H][c]1[n][c]([N]([H])[C](=[O])[C]([H])([H])[C]([H])([H])[C]([H])([H])[c]2[c]([H])[n][c]([H])[c]([H])[c]2[H])[c]([C]([H])([H])[H])[c]([H])[c]1[H]

$$$$
