
     RDKit          3D

 41 43  0  0  0  0  0  0  0  0999 V2000
    4.9230    1.7946   16.9841 H   0  0  0  0  0  0  0  0  0  0  0  0
    5.3922    1.3000   17.8324 C   0  0  0  0  0  0  0  0  0  0  0  0
    6.5516    0.6797   17.5751 N   0  0  0  0  0  0  0  0  0  0  0  0
    7.1600    0.0713   18.5984 C   0  0  0  0  0  0  0  0  0  0  0  0
    8.1062   -0.4095   18.3636 H   0  0  0  0  0  0  0  0  0  0  0  0
    6.6522    0.0202   19.9084 C   0  0  0  0  0  0  0  0  0  0  0  0
    7.4106   -0.7065   20.9948 C   0  0  0  0  0  0  0  0  0  0  0  0
    7.5040   -1.7754   20.7595 H   0  0  0  0  0  0  0  0  0  0  0  0
    6.8747   -0.6336   21.9485 H   0  0  0  0  0  0  0  0  0  0  0  0
    8.7632   -0.1914   21.1766 N   0  0  0  0  0  0  0  0  0  0  0  0
    9.9453   -0.7936   20.8634 C   0  0  0  0  0  0  0  0  0  0  0  0
    9.9855   -1.7849   20.4283 H   0  0  0  0  0  0  0  0  0  0  0  0
   10.9556   -0.0108   21.1215 N   0  0  0  0  0  0  0  0  0  0  0  0
   10.4407    1.1642   21.5988 N   0  0  0  0  0  0  0  0  0  0  0  0
    9.1359    1.0456   21.6410 C   0  0  0  0  0  0  0  0  0  0  0  0
    8.1872    2.1019   22.1507 C   0  0  0  0  0  0  0  0  0  0  0  0
    8.8025    2.9811   22.4108 H   0  0  0  0  0  0  0  0  0  0  0  0
    7.5326    2.4137   21.3257 H   0  0  0  0  0  0  0  0  0  0  0  0
    7.3467    1.6503   23.2692 N   0  0  0  0  0  0  0  0  0  0  0  0
    6.2076    2.5251   23.4912 C   0  0  0  0  0  0  0  0  0  0  0  0
    6.4960    3.5589   23.7739 H   0  0  0  0  0  0  0  0  0  0  0  0
    5.5863    2.1152   24.2938 H   0  0  0  0  0  0  0  0  0  0  0  0
    5.5976    2.5721   22.5818 H   0  0  0  0  0  0  0  0  0  0  0  0
    8.1280    1.4533   24.5001 C   0  0  0  0  0  0  0  0  0  0  0  0
    9.1229    1.1006   24.2080 H   0  0  0  0  0  0  0  0  0  0  0  0
    8.2909    2.4098   25.0375 H   0  0  0  0  0  0  0  0  0  0  0  0
    7.4910    0.4318   25.4207 C   0  0  0  0  0  0  0  0  0  0  0  0
    7.5320   -0.9293   25.0813 C   0  0  0  0  0  0  0  0  0  0  0  0
    8.0416   -1.2327   24.1645 H   0  0  0  0  0  0  0  0  0  0  0  0
    6.9185   -1.8832   25.8970 C   0  0  0  0  0  0  0  0  0  0  0  0
    6.9564   -2.9347   25.6198 H   0  0  0  0  0  0  0  0  0  0  0  0
    6.2544   -1.4830   27.0637 C   0  0  0  0  0  0  0  0  0  0  0  0
    5.7741   -2.2249   27.6982 H   0  0  0  0  0  0  0  0  0  0  0  0
    6.2092   -0.1284   27.4113 C   0  0  0  0  0  0  0  0  0  0  0  0
    5.6938    0.1929   28.3140 H   0  0  0  0  0  0  0  0  0  0  0  0
    6.8273    0.8224   26.5924 C   0  0  0  0  0  0  0  0  0  0  0  0
    6.7912    1.8802   26.8559 H   0  0  0  0  0  0  0  0  0  0  0  0
    5.4307    0.6580   20.1546 C   0  0  0  0  0  0  0  0  0  0  0  0
    5.0040    0.6439   21.1642 H   0  0  0  0  0  0  0  0  0  0  0  0
    4.7956    1.3185   19.0974 C   0  0  0  0  0  0  0  0  0  0  0  0
    3.8659    1.8512   19.2405 H   0  0  0  0  0  0  0  0  0  0  0  0
  1  2  1  0
  2  3  2  0
  3  4  1  0
  4  5  1  0
  4  6  2  0
  6  7  1  0
  7  8  1  0
  7  9  1  0
  7 10  1  0
 10 11  1  0
 11 12  1  0
 11 13  2  0
 13 14  1  0
 14 15  2  0
 15 16  1  0
 16 17  1  0
 16 18  1  0
 16 19  1  0
 19 20  1  0
 20 21  1  0
 20 22  1  0
 20 23  1  0
 19 24  1  0
 24 25  1  0
 24 26  1  0
 24 27  1  0
 27 28  2  0
 28 29  1  0
 28 30  1  0
 30 31  1  0
 30 32  2  0
 32 33  1  0
 32 34  1  0
 34 35  1  0
 34 36  2  0
 36 37  1  0
  6 38  1  0
 38 39  1  0
 38 40  2  0
 40 41  1  0
 40  2  1  0
 15 10  1  0
 36 27  1  0
M  END
>  <plip>  (1) 
-0.07142857142857142

>  <filename>  (1) 
[H][c]1[n][c]([H])[c]([C]([H])([H])[n]2[c]([H])[n][n][c]2[C]([H])([H])[N]([C]([H])([H])[H])[C]([H])([H])[c]2[c]([H])[c]([H])[c]([H])[c]([H])[c]2[H])[c]([H])[c]1[H]

$$$$
