
     RDKit          3D

 33 35  0  0  0  0  0  0  0  0999 V2000
    4.9195    1.9475   16.8531 H   0  0  0  0  0  0  0  0  0  0  0  0
    5.3798    1.4097   17.6795 C   0  0  0  0  0  0  0  0  0  0  0  0
    6.5305    0.7769   17.3962 N   0  0  0  0  0  0  0  0  0  0  0  0
    7.1449    0.1247   18.3927 C   0  0  0  0  0  0  0  0  0  0  0  0
    8.0854   -0.3691   18.1521 H   0  0  0  0  0  0  0  0  0  0  0  0
    6.6297    0.0472   19.7056 C   0  0  0  0  0  0  0  0  0  0  0  0
    7.2930   -0.6823   20.7829 N   0  0  0  0  0  0  0  0  0  0  0  0
    6.6399   -1.7922   21.3851 C   0  0  0  0  0  0  0  0  0  0  0  0
    5.5984   -2.2272   20.9423 O   0  0  0  0  0  0  0  0  0  0  0  0
    7.3001   -2.4029   22.5272 C   0  0  0  0  0  0  0  0  0  0  0  0
    6.7669   -3.2520   22.9212 H   0  0  0  0  0  0  0  0  0  0  0  0
    8.4830   -1.9782   23.0067 C   0  0  0  0  0  0  0  0  0  0  0  0
    9.2488   -2.6818   24.1120 C   0  0  0  0  0  0  0  0  0  0  0  0
   10.4367   -3.1838   23.7427 N   0  0  0  0  0  0  0  0  0  0  0  0
   11.0200   -4.0740   24.5417 C   0  0  0  0  0  0  0  0  0  0  0  0
   11.9326   -4.5062   24.1581 H   0  0  0  0  0  0  0  0  0  0  0  0
   10.4999   -4.4682   25.7763 C   0  0  0  0  0  0  0  0  0  0  0  0
   11.0103   -5.2235   26.3606 H   0  0  0  0  0  0  0  0  0  0  0  0
    9.3436   -3.8523   26.2335 C   0  0  0  0  0  0  0  0  0  0  0  0
    8.9166   -4.0992   27.2070 H   0  0  0  0  0  0  0  0  0  0  0  0
    8.7345   -2.9048   25.4054 C   0  0  0  0  0  0  0  0  0  0  0  0
    7.5021   -2.1866   25.8631 C   0  0  0  0  0  0  0  0  0  0  0  0
    7.4546   -0.9166   25.4379 F   0  0  0  0  0  0  0  0  0  0  0  0
    7.3886   -2.1647   27.2027 F   0  0  0  0  0  0  0  0  0  0  0  0
    6.3998   -2.8065   25.3865 F   0  0  0  0  0  0  0  0  0  0  0  0
    9.0362   -0.8806   22.3602 N   0  0  0  0  0  0  0  0  0  0  0  0
    9.9649   -0.5208   22.5148 H   0  0  0  0  0  0  0  0  0  0  0  0
    8.5293   -0.2441   21.2481 C   0  0  0  0  0  0  0  0  0  0  0  0
    9.1824    0.6409   20.7361 O   0  0  0  0  0  0  0  0  0  0  0  0
    5.4172    0.6859   19.9735 C   0  0  0  0  0  0  0  0  0  0  0  0
    4.9847    0.6143   20.9700 H   0  0  0  0  0  0  0  0  0  0  0  0
    4.7864    1.3946   18.9441 C   0  0  0  0  0  0  0  0  0  0  0  0
    3.8557    1.9270   19.1092 H   0  0  0  0  0  0  0  0  0  0  0  0
  1  2  1  0
  2  3  2  0
  3  4  1  0
  4  5  1  0
  4  6  2  0
  6  7  1  0
  7  8  1  0
  8  9  2  0
  8 10  1  0
 10 11  1  0
 10 12  2  0
 12 13  1  0
 13 14  2  0
 14 15  1  0
 15 16  1  0
 15 17  2  0
 17 18  1  0
 17 19  1  0
 19 20  1  0
 19 21  2  0
 21 22  1  0
 22 23  1  0
 22 24  1  0
 22 25  1  0
 12 26  1  0
 26 27  1  0
 26 28  1  0
 28 29  2  0
  6 30  1  0
 30 31  1  0
 30 32  2  0
 32 33  1  0
 32  2  1  0
 28  7  1  0
 21 13  1  0
M  END
>  <plip>  (1) 
-0.10714285714285714

>  <filename>  (1) 
[H][c]1[n][c]([H])[c](-[n]2[c](=[O])[c]([H])[c](-[c]3[n][c]([H])[c]([H])[c]([H])[c]3[C]([F])([F])[F])[n]([H])[c]2=[O])[c]([H])[c]1[H]

$$$$
