
     RDKit          3D

 33 34  0  0  0  0  0  0  0  0999 V2000
    8.4626   -2.5521   22.2594 O   0  0  0  0  0  0  0  0  0  0  0  0
    9.2209   -1.7972   21.6415 C   0  0  0  0  0  0  0  0  0  0  0  0
   10.6018   -1.9193   21.8841 N   0  0  0  0  0  0  0  0  0  0  0  0
   11.1490   -2.7595   22.9169 N   0  0  0  0  0  0  0  0  0  0  0  0
   10.4042   -2.9707   24.0842 C   0  0  0  0  0  0  0  0  0  0  0  0
   10.5409   -4.1978   24.7344 C   0  0  0  0  0  0  0  0  0  0  0  0
    9.7289   -4.5303   25.8257 C   0  0  0  0  0  0  0  0  0  0  0  0
    8.7118   -3.6522   26.2583 C   0  0  0  0  0  0  0  0  0  0  0  0
    7.7877   -4.0442   27.2498 N   0  0  0  0  0  4  0  0  0  0  0  0
    6.7856   -3.3349   27.4131 O   0  0  0  0  0  0  0  0  0  0  0  0
    8.0100   -5.0812   27.8915 O   0  0  0  0  0  1  0  0  0  0  0  0
    8.6199   -2.3884   25.6301 C   0  0  0  0  0  0  0  0  0  0  0  0
    9.4810   -2.0233   24.5859 C   0  0  0  0  0  0  0  0  0  0  0  0
    9.3406   -0.2486   23.8510 Br  0  0  0  0  0  0  0  0  0  0  0  0
    7.8555   -1.6828   25.9597 H   0  0  0  0  0  0  0  0  0  0  0  0
    9.8576   -5.5011   26.3039 H   0  0  0  0  0  0  0  0  0  0  0  0
   11.2762   -4.9026   24.3614 H   0  0  0  0  0  0  0  0  0  0  0  0
   11.7402   -3.5526   22.6312 H   0  0  0  0  0  0  0  0  0  0  0  0
   11.2223   -1.2190   21.4719 H   0  0  0  0  0  0  0  0  0  0  0  0
    8.6444   -0.7773   20.7139 C   0  0  0  0  0  0  0  0  0  0  0  0
    9.3597   -0.2023   19.8927 O   0  0  0  0  0  0  0  0  0  0  0  0
    7.2790   -0.4818   20.7007 N   0  0  0  0  0  0  0  0  0  0  0  0
    6.6090    0.1840   19.6579 C   0  0  0  0  0  0  0  0  0  0  0  0
    5.3472    0.7145   19.9072 C   0  0  0  0  0  0  0  0  0  0  0  0
    4.6958    1.3844   18.8646 C   0  0  0  0  0  0  0  0  0  0  0  0
    5.3114    1.4918   17.6084 C   0  0  0  0  0  0  0  0  0  0  0  0
    6.5118    0.9479   17.3432 N   0  0  0  0  0  0  0  0  0  0  0  0
    7.1441    0.3177   18.3544 C   0  0  0  0  0  0  0  0  0  0  0  0
    8.1153   -0.1243   18.1598 H   0  0  0  0  0  0  0  0  0  0  0  0
    4.8061    2.0315   16.8141 H   0  0  0  0  0  0  0  0  0  0  0  0
    3.7222    1.8382   19.0133 H   0  0  0  0  0  0  0  0  0  0  0  0
    4.8985    0.6252   20.8948 H   0  0  0  0  0  0  0  0  0  0  0  0
    6.7283   -0.7723   21.5074 H   0  0  0  0  0  0  0  0  0  0  0  0
  1  2  2  0
  2  3  1  0
  3  4  1  0
  4  5  1  0
  5  6  2  0
  6  7  1  0
  7  8  2  0
  8  9  1  0
  9 10  2  0
  9 11  1  0
  8 12  1  0
 12 13  2  0
 13 14  1  0
 12 15  1  0
  7 16  1  0
  6 17  1  0
  4 18  1  0
  3 19  1  0
  2 20  1  0
 20 21  2  0
 20 22  1  0
 22 23  1  0
 23 24  2  0
 24 25  1  0
 25 26  2  0
 26 27  1  0
 27 28  2  0
 28 29  1  0
 26 30  1  0
 25 31  1  0
 24 32  1  0
 22 33  1  0
 13  5  1  0
 28 23  1  0
M  CHG  2   9   1  11  -1
M  END
>  <plip>  (1) 
-0.0967741935483871

>  <filename>  (1) 
[H][c]1[n][c]([H])[c]([N]([H])[C](=[O])[C](=[O])[N]([H])[N]([H])[c]2[c]([H])[c]([H])[c]([N+](=[O])[O-])[c]([H])[c]2[Br])[c]([H])[c]1[H]

$$$$
