
     RDKit          3D

 37 41  0  0  0  0  0  0  0  0999 V2000
    4.9445    1.8053   16.9788 H   0  0  0  0  0  0  0  0  0  0  0  0
    5.3984    1.2903   17.8226 C   0  0  0  0  0  0  0  0  0  0  0  0
    6.5621    0.6714   17.5722 N   0  0  0  0  0  0  0  0  0  0  0  0
    7.1564    0.0364   18.5851 C   0  0  0  0  0  0  0  0  0  0  0  0
    8.1084   -0.4419   18.3532 H   0  0  0  0  0  0  0  0  0  0  0  0
    6.6294   -0.0076   19.8870 C   0  0  0  0  0  0  0  0  0  0  0  0
    7.3545   -0.6943   20.9428 C   0  0  0  0  0  0  0  0  0  0  0  0
    7.9688   -1.8521   20.7416 N   0  0  0  0  0  0  0  0  0  0  0  0
    8.4690   -2.1640   21.9430 N   0  0  0  0  0  0  0  0  0  0  0  0
    8.3000   -1.2504   22.8859 C   0  0  0  0  0  0  0  0  0  0  0  0
    7.5581   -0.2532   22.2832 C   0  0  0  0  0  0  0  0  0  0  0  0
    7.3525    1.0011   22.9104 C   0  0  0  0  0  0  0  0  0  0  0  0
    7.5243    1.2332   24.1731 N   0  0  0  0  0  0  0  0  0  0  0  0
    7.2327    2.5794   24.3090 C   0  0  0  0  0  0  0  0  0  0  0  0
    7.2224    3.4095   25.4358 C   0  0  0  0  0  0  0  0  0  0  0  0
    7.4772    2.9954   26.4054 H   0  0  0  0  0  0  0  0  0  0  0  0
    6.8782    4.7462   25.2477 C   0  0  0  0  0  0  0  0  0  0  0  0
    6.8601    5.4151   26.1015 H   0  0  0  0  0  0  0  0  0  0  0  0
    6.5547    5.2435   23.9695 C   0  0  0  0  0  0  0  0  0  0  0  0
    6.2896    6.2894   23.8600 H   0  0  0  0  0  0  0  0  0  0  0  0
    6.5650    4.4228   22.8384 C   0  0  0  0  0  0  0  0  0  0  0  0
    6.3157    4.7885   21.8494 H   0  0  0  0  0  0  0  0  0  0  0  0
    6.9100    3.0979   23.0533 C   0  0  0  0  0  0  0  0  0  0  0  0
    6.9894    2.0755   22.1506 O   0  0  0  0  0  0  0  0  0  0  0  0
    9.2099   -1.4751   24.0586 C   0  0  0  0  0  0  0  0  0  0  0  0
    8.6390   -1.5278   24.9873 H   0  0  0  0  0  0  0  0  0  0  0  0
    9.8859   -0.6190   24.1577 H   0  0  0  0  0  0  0  0  0  0  0  0
    9.9470   -2.7926   23.6751 C   0  0  0  0  0  0  0  0  0  0  0  0
    9.7119   -3.6171   24.3531 H   0  0  0  0  0  0  0  0  0  0  0  0
   11.0312   -2.6841   23.6700 H   0  0  0  0  0  0  0  0  0  0  0  0
    9.4900   -3.1330   22.2296 C   0  0  0  0  0  0  0  0  0  0  0  0
    9.0612   -4.1324   22.1440 H   0  0  0  0  0  0  0  0  0  0  0  0
   10.2847   -2.9514   21.5016 H   0  0  0  0  0  0  0  0  0  0  0  0
    5.4070    0.6293   20.1311 C   0  0  0  0  0  0  0  0  0  0  0  0
    4.9808    0.6427   21.1343 H   0  0  0  0  0  0  0  0  0  0  0  0
    4.7859    1.2922   19.0781 C   0  0  0  0  0  0  0  0  0  0  0  0
    3.8659    1.8373   19.2353 H   0  0  0  0  0  0  0  0  0  0  0  0
  1  2  1  0
  2  3  2  0
  3  4  1  0
  4  5  1  0
  4  6  2  0
  6  7  1  0
  7  8  2  0
  8  9  1  0
  9 10  1  0
 10 11  2  0
 11 12  1  0
 12 13  2  0
 13 14  1  0
 14 15  2  0
 15 16  1  0
 15 17  1  0
 17 18  1  0
 17 19  2  0
 19 20  1  0
 19 21  1  0
 21 22  1  0
 21 23  2  0
 23 24  1  0
 10 25  1  0
 25 26  1  0
 25 27  1  0
 25 28  1  0
 28 29  1  0
 28 30  1  0
 28 31  1  0
 31 32  1  0
 31 33  1  0
  6 34  1  0
 34 35  1  0
 34 36  2  0
 36 37  1  0
 36  2  1  0
 11  7  1  0
 24 12  1  0
 31  9  1  0
 23 14  1  0
M  END
>  <plip>  (1) 
-0.0

>  <filename>  (1) 
[H][c]1[n][c]([H])[c](-[c]2[n][n]3[c]([c]2-[c]2[n][c]4[c]([H])[c]([H])[c]([H])[c]([H])[c]4[o]2)[C]([H])([H])[C]([H])([H])[C]3([H])[H])[c]([H])[c]1[H]

$$$$
