
     RDKit          3D

 41 44  0  0  0  0  0  0  0  0999 V2000
    5.9008   -1.1311   22.1047 H   0  0  0  0  0  0  0  0  0  0  0  0
    6.5905   -1.6564   21.6676 O   0  0  0  0  0  0  0  0  0  0  0  0
    7.4251   -0.7250   20.9919 C   0  0  1  0  0  0  0  0  0  0  0  0
    8.1863   -1.3445   20.5014 H   0  0  0  0  0  0  0  0  0  0  0  0
    6.6565    0.0028   19.9092 C   0  0  0  0  0  0  0  0  0  0  0  0
    7.1600    0.0587   18.6007 C   0  0  0  0  0  0  0  0  0  0  0  0
    8.1070   -0.4279   18.3623 H   0  0  0  0  0  0  0  0  0  0  0  0
    6.5620    0.6763   17.5743 N   0  0  0  0  0  0  0  0  0  0  0  0
    5.4019    1.2940   17.8356 C   0  0  0  0  0  0  0  0  0  0  0  0
    4.9179    1.7844   16.9952 H   0  0  0  0  0  0  0  0  0  0  0  0
    4.8031    1.3062   19.1003 C   0  0  0  0  0  0  0  0  0  0  0  0
    3.8730    1.8411   19.2546 H   0  0  0  0  0  0  0  0  0  0  0  0
    5.4294    0.6401   20.1513 C   0  0  0  0  0  0  0  0  0  0  0  0
    5.0062    0.6573   21.1604 H   0  0  0  0  0  0  0  0  0  0  0  0
    8.1908    0.2436   21.9674 C   0  0  0  0  0  0  0  0  0  0  0  0
    7.2793    1.2113   22.7308 C   0  0  0  0  0  0  0  0  0  0  0  0
    7.0186    2.4658   22.1878 C   0  0  0  0  0  0  0  0  0  0  0  0
    7.4099    2.7081   21.2013 H   0  0  0  0  0  0  0  0  0  0  0  0
    6.2389    3.4365   22.8601 C   0  0  0  0  0  0  0  0  0  0  0  0
    6.0826    4.4073   22.3927 H   0  0  0  0  0  0  0  0  0  0  0  0
    5.6877    3.1545   24.0863 C   0  0  0  0  0  0  0  0  0  0  0  0
    5.0930    3.8929   24.6208 H   0  0  0  0  0  0  0  0  0  0  0  0
    5.8645    1.8618   24.6696 C   0  0  0  0  0  0  0  0  0  0  0  0
    5.2525    1.5531   25.9250 C   0  0  0  0  0  0  0  0  0  0  0  0
    4.6818    2.3383   26.4197 H   0  0  0  0  0  0  0  0  0  0  0  0
    5.3638    0.3027   26.4809 C   0  0  0  0  0  0  0  0  0  0  0  0
    4.8878    0.0802   27.4362 H   0  0  0  0  0  0  0  0  0  0  0  0
    6.0921   -0.7079   25.8005 C   0  0  0  0  0  0  0  0  0  0  0  0
    6.1632   -1.6986   26.2439 H   0  0  0  0  0  0  0  0  0  0  0  0
    6.7012   -0.4451   24.5887 C   0  0  0  0  0  0  0  0  0  0  0  0
    7.2338   -1.2451   24.0814 H   0  0  0  0  0  0  0  0  0  0  0  0
    6.6343    0.8584   23.9829 C   0  0  0  0  0  0  0  0  0  0  0  0
    9.3928    0.9488   21.2365 C   0  0  0  0  0  0  0  0  0  0  0  0
    9.4192    0.8055   20.1530 H   0  0  0  0  0  0  0  0  0  0  0  0
    9.4662    2.0194   21.4391 H   0  0  0  0  0  0  0  0  0  0  0  0
   10.4109    0.1030   22.0260 C   0  0  0  0  0  0  0  0  0  0  0  0
   11.1148    0.6863   22.6257 H   0  0  0  0  0  0  0  0  0  0  0  0
   10.9854   -0.6025   21.4152 H   0  0  0  0  0  0  0  0  0  0  0  0
    9.2548   -0.5227   22.8256 C   0  0  0  0  0  0  0  0  0  0  0  0
    9.1816   -1.6133   22.7568 H   0  0  0  0  0  0  0  0  0  0  0  0
    9.2516   -0.2355   23.8796 H   0  0  0  0  0  0  0  0  0  0  0  0
  1  2  1  0
  2  3  1  0
  3  4  1  6
  3  5  1  0
  5  6  2  0
  6  7  1  0
  6  8  1  0
  8  9  2  0
  9 10  1  0
  9 11  1  0
 11 12  1  0
 11 13  2  0
 13 14  1  0
  3 15  1  0
 15 16  1  0
 16 17  2  0
 17 18  1  0
 17 19  1  0
 19 20  1  0
 19 21  2  0
 21 22  1  0
 21 23  1  0
 23 24  2  0
 24 25  1  0
 24 26  1  0
 26 27  1  0
 26 28  2  0
 28 29  1  0
 28 30  1  0
 30 31  1  0
 30 32  2  0
 15 33  1  0
 33 34  1  0
 33 35  1  0
 33 36  1  0
 36 37  1  0
 36 38  1  0
 36 39  1  0
 39 40  1  0
 39 41  1  0
 13  5  1  0
 39 15  1  0
 32 16  1  0
 32 23  1  0
M  END
>  <plip>  (1) 
-0.07142857142857142

>  <filename>  (1) 
[H][O][C@@]([H])([c]1[c]([H])[n][c]([H])[c]([H])[c]1[H])[C]1([c]2[c]([H])[c]([H])[c]([H])[c]3[c]([H])[c]([H])[c]([H])[c]([H])[c]23)[C]([H])([H])[C]([H])([H])[C]1([H])[H]

$$$$
