
     RDKit          3D

 38 40  0  0  0  0  0  0  0  0999 V2000
    9.4207    0.7514   20.2459 O   0  0  0  0  0  0  0  0  0  0  0  0
    9.3436   -0.2394   21.3078 S   0  0  0  0  0  0  0  0  0  0  0  0
    9.3985   -1.6593   21.0298 O   0  0  0  0  0  0  0  0  0  0  0  0
    7.8756    0.2622   21.9842 N   0  0  0  0  0  0  0  0  0  0  0  0
    7.0063   -0.8270   21.8997 C   0  0  0  0  0  0  0  0  0  0  0  0
    6.9353   -1.7562   22.7892 N   0  0  0  0  0  0  0  0  0  0  0  0
    6.1556   -2.7719   22.2479 N   0  0  0  0  0  0  0  0  0  0  0  0
    5.8105   -2.3879   21.0533 C   0  0  0  0  0  0  0  0  0  0  0  0
    6.2996   -1.1256   20.7552 N   0  0  0  0  0  0  0  0  0  0  0  0
    5.9495   -0.2619   19.6389 C   0  0  0  0  0  0  0  0  0  0  0  0
    5.0400    0.7899   19.8246 C   0  0  0  0  0  0  0  0  0  0  0  0
    4.7609    1.6236   18.7318 C   0  0  0  0  0  0  0  0  0  0  0  0
    5.3968    1.3825   17.5082 C   0  0  0  0  0  0  0  0  0  0  0  0
    6.2734    0.3833   17.3277 N   0  0  0  0  0  0  0  0  0  0  0  0
    6.5529   -0.4084   18.3740 C   0  0  0  0  0  0  0  0  0  0  0  0
    7.3039   -1.1893   18.2377 H   0  0  0  0  0  0  0  0  0  0  0  0
    5.2161    2.0190   16.6388 H   0  0  0  0  0  0  0  0  0  0  0  0
    4.0831    2.4670   18.8147 H   0  0  0  0  0  0  0  0  0  0  0  0
    4.5981    0.9618   20.8096 H   0  0  0  0  0  0  0  0  0  0  0  0
    5.2516   -2.9694   20.3280 H   0  0  0  0  0  0  0  0  0  0  0  0
    7.7083    0.9046   21.2202 H   0  0  0  0  0  0  0  0  0  0  0  0
   10.4157    0.2026   22.6555 C   0  0  0  0  0  0  0  0  0  0  0  0
   10.0528   -0.4120   24.0133 C   0  0  0  0  0  0  0  0  0  0  0  0
   10.7892    0.3878   25.1014 C   0  0  0  0  0  0  0  0  0  0  0  0
   12.3007    0.6110   24.8453 C   0  0  0  0  0  0  0  0  0  0  0  0
   12.7286    0.8096   23.3806 C   0  0  0  0  0  0  0  0  0  0  0  0
   11.9144   -0.0130   22.3802 C   0  0  0  0  0  0  0  0  0  0  0  0
   12.1671    0.3013   21.3707 H   0  0  0  0  0  0  0  0  0  0  0  0
   12.1636   -1.0807   22.4747 H   0  0  0  0  0  0  0  0  0  0  0  0
   12.6258    1.8694   23.1095 H   0  0  0  0  0  0  0  0  0  0  0  0
   13.8019    0.5831   23.3050 H   0  0  0  0  0  0  0  0  0  0  0  0
   12.6269    1.5135   25.3644 H   0  0  0  0  0  0  0  0  0  0  0  0
   12.8550   -0.2271   25.2799 H   0  0  0  0  0  0  0  0  0  0  0  0
   10.2746    1.3534   25.1882 H   0  0  0  0  0  0  0  0  0  0  0  0
   10.6692   -0.1051   26.0728 H   0  0  0  0  0  0  0  0  0  0  0  0
    8.9668   -0.3898   24.1816 H   0  0  0  0  0  0  0  0  0  0  0  0
   10.3408   -1.4725   24.0201 H   0  0  0  0  0  0  0  0  0  0  0  0
   10.1924    1.2753   22.6786 H   0  0  0  0  0  0  0  0  0  0  0  0
  1  2  2  0
  2  3  2  0
  2  4  1  0
  4  5  1  0
  5  6  2  0
  6  7  1  0
  7  8  2  0
  8  9  1  0
  9 10  1  0
 10 11  2  0
 11 12  1  0
 12 13  2  0
 13 14  1  0
 14 15  2  0
 15 16  1  0
 13 17  1  0
 12 18  1  0
 11 19  1  0
  8 20  1  0
  4 21  1  0
  2 22  1  0
 22 23  1  0
 23 24  1  0
 24 25  1  0
 25 26  1  0
 26 27  1  0
 27 28  1  0
 27 29  1  0
 26 30  1  0
 26 31  1  0
 25 32  1  0
 25 33  1  0
 24 34  1  0
 24 35  1  0
 23 36  1  0
 23 37  1  0
 22 38  1  0
  9  5  1  0
 15 10  1  0
 27 22  1  0
M  END
>  <plip>  (1) 
-0.13793103448275862

>  <filename>  (1) 
[H][c]1[n][c]([H])[c](-[n]2[c]([H])[n][n][c]2[N]([H])[S](=[O])(=[O])[C]2([H])[C]([H])([H])[C]([H])([H])[C]([H])([H])[C]([H])([H])[C]2([H])[H])[c]([H])[c]1[H]

$$$$
