
     RDKit          3D

 48 51  0  0  0  0  0  0  0  0999 V2000
    8.8903   -2.9214   24.6368 O   0  0  0  0  0  0  0  0  0  0  0  0
    7.9836   -2.2965   24.1460 C   0  0  0  0  0  0  0  0  0  0  0  0
    6.7980   -2.0646   24.7734 O   0  0  0  0  0  0  0  0  0  0  0  0
    6.5992   -2.6800   26.0639 C   0  0  0  0  0  0  0  0  0  0  0  0
    6.6332   -4.1962   25.9400 C   0  0  0  0  0  0  0  0  0  0  0  0
    5.7953   -4.8813   25.0364 C   0  0  0  0  0  0  0  0  0  0  0  0
    5.5054   -6.2113   25.3196 C   0  0  0  0  0  0  0  0  0  0  0  0
    4.6178   -6.8912   24.5773 F   0  0  0  0  0  0  0  0  0  0  0  0
    6.1096   -6.8363   26.4170 C   0  0  0  0  0  0  0  0  0  0  0  0
    7.0504   -6.2351   27.1584 N   0  0  0  0  0  0  0  0  0  0  0  0
    7.3233   -4.9475   26.9000 C   0  0  0  0  0  0  0  0  0  0  0  0
    8.1120   -4.4997   27.5080 H   0  0  0  0  0  0  0  0  0  0  0  0
    5.8258   -7.8533   26.6687 H   0  0  0  0  0  0  0  0  0  0  0  0
    5.3674   -4.4055   24.1545 H   0  0  0  0  0  0  0  0  0  0  0  0
    5.2409   -2.2000   26.6499 C   0  0  0  0  0  0  0  0  0  0  0  0
    4.9617   -2.8762   28.0140 C   0  0  0  0  0  0  0  0  0  0  0  0
    3.6706   -2.4282   28.6975 C   0  0  0  0  0  0  0  0  0  0  0  0
    3.6484   -0.9031   28.8403 C   0  0  0  0  0  0  0  0  0  0  0  0
    3.8351   -0.2243   27.4752 C   0  0  0  0  0  0  0  0  0  0  0  0
    5.1513   -0.6651   26.8037 C   0  0  0  0  0  0  0  0  0  0  0  0
    5.9935   -0.3223   27.4249 H   0  0  0  0  0  0  0  0  0  0  0  0
    5.2674   -0.1813   25.8278 H   0  0  0  0  0  0  0  0  0  0  0  0
    2.9877   -0.4856   26.8232 H   0  0  0  0  0  0  0  0  0  0  0  0
    3.8155    0.8663   27.5911 H   0  0  0  0  0  0  0  0  0  0  0  0
    2.7300   -0.5704   29.3375 H   0  0  0  0  0  0  0  0  0  0  0  0
    4.4797   -0.5967   29.4948 H   0  0  0  0  0  0  0  0  0  0  0  0
    3.5955   -2.9042   29.6839 H   0  0  0  0  0  0  0  0  0  0  0  0
    2.8075   -2.7816   28.1180 H   0  0  0  0  0  0  0  0  0  0  0  0
    4.9828   -3.9694   27.9296 H   0  0  0  0  0  0  0  0  0  0  0  0
    5.7720   -2.5928   28.6860 H   0  0  0  0  0  0  0  0  0  0  0  0
    4.4488   -2.5081   25.9490 H   0  0  0  0  0  0  0  0  0  0  0  0
    7.4091   -2.3670   26.7359 H   0  0  0  0  0  0  0  0  0  0  0  0
    7.9559   -1.6770   22.7801 C   0  0  0  0  0  0  0  0  0  0  0  0
    6.9084   -1.0386   22.1594 C   0  0  0  0  0  0  0  0  0  0  0  0
    7.3769   -0.6887   20.9423 N   0  0  0  0  0  0  0  0  0  0  0  0
    6.6954   -0.0009   19.8965 C   0  0  0  0  0  0  0  0  0  0  0  0
    5.4943    0.6765   20.1406 C   0  0  0  0  0  0  0  0  0  0  0  0
    4.8752    1.3198   19.0671 C   0  0  0  0  0  0  0  0  0  0  0  0
    5.4770    1.2725   17.8067 C   0  0  0  0  0  0  0  0  0  0  0  0
    6.6278    0.6213   17.5698 N   0  0  0  0  0  0  0  0  0  0  0  0
    7.2211    0.0023   18.5926 C   0  0  0  0  0  0  0  0  0  0  0  0
    8.1566   -0.5151   18.3885 H   0  0  0  0  0  0  0  0  0  0  0  0
    5.0228    1.7689   16.9531 H   0  0  0  0  0  0  0  0  0  0  0  0
    3.9430    1.8567   19.2018 H   0  0  0  0  0  0  0  0  0  0  0  0
    5.0603    0.7240   21.1398 H   0  0  0  0  0  0  0  0  0  0  0  0
    8.6645   -1.1007   20.8163 N   0  0  0  0  0  0  0  0  0  0  0  0
    9.0083   -1.6857   21.9021 N   0  0  0  0  0  0  0  0  0  0  0  0
    5.9069   -0.8222   22.4741 H   0  0  0  0  0  0  0  0  0  0  0  0
  1  2  2  0
  2  3  1  0
  3  4  1  0
  4  5  1  0
  5  6  2  0
  6  7  1  0
  7  8  1  0
  7  9  2  0
  9 10  1  0
 10 11  2  0
 11 12  1  0
  9 13  1  0
  6 14  1  0
  4 15  1  0
 15 16  1  0
 16 17  1  0
 17 18  1  0
 18 19  1  0
 19 20  1  0
 20 21  1  0
 20 22  1  0
 19 23  1  0
 19 24  1  0
 18 25  1  0
 18 26  1  0
 17 27  1  0
 17 28  1  0
 16 29  1  0
 16 30  1  0
 15 31  1  0
  4 32  1  0
  2 33  1  0
 33 34  2  0
 34 35  1  0
 35 36  1  0
 36 37  2  0
 37 38  1  0
 38 39  2  0
 39 40  1  0
 40 41  2  0
 41 42  1  0
 39 43  1  0
 38 44  1  0
 37 45  1  0
 35 46  1  0
 46 47  2  0
 34 48  1  0
 11  5  1  0
 20 15  1  0
 47 33  1  0
 41 36  1  0
M  END
>  <plip>  (1) 
-0.034482758620689655

>  <filename>  (1) 
[H][c]1[n][c]([H])[c](-[n]2[n][n][c]([C](=[O])[O][C]([H])([c]3[c]([H])[n][c]([H])[c]([F])[c]3[H])[C]3([H])[C]([H])([H])[C]([H])([H])[C]([H])([H])[C]([H])([H])[C]3([H])[H])[c]2[H])[c]([H])[c]1[H]

$$$$
