
     RDKit          3D

 37 39  0  0  0  0  0  0  0  0999 V2000
    8.7488   -0.3952   21.2075 C   0  0  0  0  0  0  0  0  0  0  0  0
    7.3334   -0.7131   20.9795 N   0  0  0  0  0  0  0  0  0  0  0  0
    6.6534   -1.7426   21.6429 C   0  0  0  0  0  0  0  0  0  0  0  0
    5.5627   -2.1305   21.2810 O   0  0  0  0  0  0  0  0  0  0  0  0
    7.3685   -2.4065   22.8233 C   0  0  0  0  0  0  0  0  0  0  0  0
    6.5628   -3.5448   23.3594 C   0  0  0  0  0  0  0  0  0  0  0  0
    5.6534   -3.4096   24.2671 N   0  0  0  0  0  0  0  0  0  0  0  0
    5.0164   -4.6158   24.5408 C   0  0  0  0  0  0  0  0  0  0  0  0
    3.9163   -4.6949   25.5541 C   0  0  0  0  0  0  0  0  0  0  0  0
    3.6693   -3.6209   26.4345 C   0  0  0  0  0  0  0  0  0  0  0  0
    2.6465   -3.6891   27.3856 C   0  0  0  0  0  0  0  0  0  0  0  0
    1.8439   -4.8306   27.4845 C   0  0  0  0  0  0  0  0  0  0  0  0
    2.0733   -5.9061   26.6209 C   0  0  0  0  0  0  0  0  0  0  0  0
    3.0937   -5.8404   25.6680 C   0  0  0  0  0  0  0  0  0  0  0  0
    3.2341   -6.6969   25.0122 H   0  0  0  0  0  0  0  0  0  0  0  0
    1.4587   -6.8017   26.6899 H   0  0  0  0  0  0  0  0  0  0  0  0
    1.0488   -4.8812   28.2269 H   0  0  0  0  0  0  0  0  0  0  0  0
    2.4755   -2.8447   28.0494 H   0  0  0  0  0  0  0  0  0  0  0  0
    4.2879   -2.7304   26.3582 H   0  0  0  0  0  0  0  0  0  0  0  0
    5.4925   -5.6675   23.8136 C   0  0  0  0  0  0  0  0  0  0  0  0
    6.7428   -5.1588   22.7559 S   0  0  0  0  0  0  0  0  0  0  0  0
    5.1792   -6.6981   23.8747 H   0  0  0  0  0  0  0  0  0  0  0  0
    8.3573   -2.7514   22.5089 H   0  0  0  0  0  0  0  0  0  0  0  0
    7.4908   -1.6744   23.6278 H   0  0  0  0  0  0  0  0  0  0  0  0
    6.6560   -0.0095   19.9155 C   0  0  0  0  0  0  0  0  0  0  0  0
    5.4398    0.6418   20.1619 C   0  0  0  0  0  0  0  0  0  0  0  0
    4.8165    1.3122   19.1045 C   0  0  0  0  0  0  0  0  0  0  0  0
    5.4033    1.2959   17.8350 C   0  0  0  0  0  0  0  0  0  0  0  0
    6.5674    0.6792   17.5800 N   0  0  0  0  0  0  0  0  0  0  0  0
    7.1768    0.0651   18.6028 C   0  0  0  0  0  0  0  0  0  0  0  0
    8.1222   -0.4211   18.3737 H   0  0  0  0  0  0  0  0  0  0  0  0
    4.9222    1.7875   16.9905 H   0  0  0  0  0  0  0  0  0  0  0  0
    3.8836    1.8381   19.2561 H   0  0  0  0  0  0  0  0  0  0  0  0
    5.0087    0.6115   21.1619 H   0  0  0  0  0  0  0  0  0  0  0  0
    8.9627   -0.2176   22.2692 H   0  0  0  0  0  0  0  0  0  0  0  0
    9.4401   -1.1673   20.8348 H   0  0  0  0  0  0  0  0  0  0  0  0
    8.9764    0.5309   20.6758 H   0  0  0  0  0  0  0  0  0  0  0  0
  1  2  1  0
  2  3  1  0
  3  4  2  0
  3  5  1  0
  5  6  1  0
  6  7  2  0
  7  8  1  0
  8  9  1  0
  9 10  2  0
 10 11  1  0
 11 12  2  0
 12 13  1  0
 13 14  2  0
 14 15  1  0
 13 16  1  0
 12 17  1  0
 11 18  1  0
 10 19  1  0
  8 20  2  0
 20 21  1  0
 20 22  1  0
  5 23  1  0
  5 24  1  0
  2 25  1  0
 25 26  2  0
 26 27  1  0
 27 28  2  0
 28 29  1  0
 29 30  2  0
 30 31  1  0
 28 32  1  0
 27 33  1  0
 26 34  1  0
  1 35  1  0
  1 36  1  0
  1 37  1  0
 21  6  1  0
 30 25  1  0
 14  9  1  0
M  END
>  <plip>  (1) 
-0.07142857142857142

>  <filename>  (1) 
[H][c]1[n][c]([H])[c]([N]([C](=[O])[C]([H])([H])[c]2[n][c](-[c]3[c]([H])[c]([H])[c]([H])[c]([H])[c]3[H])[c]([H])[s]2)[C]([H])([H])[H])[c]([H])[c]1[H]

$$$$
