
     RDKit          3D

 32 33  0  0  0  0  0  0  0  0999 V2000
    4.9759    1.8082   16.9940 H   0  0  0  0  0  0  0  0  0  0  0  0
    5.4487    1.2833   17.8217 C   0  0  0  0  0  0  0  0  0  0  0  0
    6.6093    0.6601   17.5573 N   0  0  0  0  0  0  0  0  0  0  0  0
    7.2147    0.0249   18.5712 C   0  0  0  0  0  0  0  0  0  0  0  0
    8.1543   -0.4628   18.3143 H   0  0  0  0  0  0  0  0  0  0  0  0
    6.7181   -0.0415   19.9073 C   0  0  0  0  0  0  0  0  0  0  0  0
    7.3817   -0.7547   20.9136 N   0  0  0  0  0  0  0  0  0  0  0  0
    8.3785   -0.7927   20.7887 H   0  0  0  0  0  0  0  0  0  0  0  0
    7.0942   -0.6051   22.3289 C   0  0  2  0  0  0  0  0  0  0  0  0
    6.0553   -0.9055   22.4966 H   0  0  0  0  0  0  0  0  0  0  0  0
    7.2393    0.8110   22.8501 C   0  0  0  0  0  0  0  0  0  0  0  0
    8.3857    1.5655   22.5273 C   0  0  0  0  0  0  0  0  0  0  0  0
    9.3321    0.9832   21.7571 O   0  0  0  0  0  0  0  0  0  0  0  0
   10.5121    1.7341   21.4822 C   0  0  0  0  0  0  0  0  0  0  0  0
   10.9775    2.0611   22.4175 H   0  0  0  0  0  0  0  0  0  0  0  0
   11.1761    1.0675   20.9343 H   0  0  0  0  0  0  0  0  0  0  0  0
   10.2546    2.6177   20.8895 H   0  0  0  0  0  0  0  0  0  0  0  0
    8.6059    2.7999   22.9664 N   0  0  0  0  0  0  0  0  0  0  0  0
    7.6945    3.3733   23.7575 C   0  0  0  0  0  0  0  0  0  0  0  0
    7.9226    4.3871   24.0878 H   0  0  0  0  0  0  0  0  0  0  0  0
    6.5327    2.7250   24.1540 C   0  0  0  0  0  0  0  0  0  0  0  0
    5.8294    3.2336   24.8022 H   0  0  0  0  0  0  0  0  0  0  0  0
    6.3069    1.4210   23.6907 C   0  0  0  0  0  0  0  0  0  0  0  0
    5.4022    0.8807   23.9852 H   0  0  0  0  0  0  0  0  0  0  0  0
    8.0060   -1.5849   23.0615 C   0  0  0  0  0  0  0  0  0  0  0  0
    7.8390   -2.5966   22.6770 H   0  0  0  0  0  0  0  0  0  0  0  0
    9.0533   -1.3099   22.9005 H   0  0  0  0  0  0  0  0  0  0  0  0
    7.8099   -1.5802   24.1383 H   0  0  0  0  0  0  0  0  0  0  0  0
    5.4965    0.6118   20.1450 C   0  0  0  0  0  0  0  0  0  0  0  0
    5.0726    0.6066   21.1467 H   0  0  0  0  0  0  0  0  0  0  0  0
    4.8637    1.2773   19.0915 C   0  0  0  0  0  0  0  0  0  0  0  0
    3.9265    1.7957   19.2538 H   0  0  0  0  0  0  0  0  0  0  0  0
  1  2  1  0
  2  3  2  0
  3  4  1  0
  4  5  1  0
  4  6  2  0
  6  7  1  0
  7  8  1  0
  7  9  1  0
  9 10  1  6
  9 11  1  0
 11 12  2  0
 12 13  1  0
 13 14  1  0
 14 15  1  0
 14 16  1  0
 14 17  1  0
 12 18  1  0
 18 19  2  0
 19 20  1  0
 19 21  1  0
 21 22  1  0
 21 23  2  0
 23 24  1  0
  9 25  1  0
 25 26  1  0
 25 27  1  0
 25 28  1  0
  6 29  1  0
 29 30  1  0
 29 31  2  0
 31 32  1  0
 31  2  1  0
 23 11  1  0
M  END
>  <plip>  (1) 
-0.07142857142857142

>  <filename>  (1) 
[H][c]1[n][c]([H])[c]([N]([H])[C@]([H])([c]2[c]([O][C]([H])([H])[H])[n][c]([H])[c]([H])[c]2[H])[C]([H])([H])[H])[c]([H])[c]1[H]

$$$$
