
     RDKit          3D

 37 38  0  0  0  0  0  0  0  0999 V2000
   11.8124   -0.8130   22.5097 C   0  0  0  0  0  0  0  0  0  0  0  0
   11.4395    0.6469   22.5614 C   0  0  0  0  0  0  0  0  0  0  0  0
   12.2134    1.5127   23.3466 C   0  0  0  0  0  0  0  0  0  0  0  0
   13.6286    0.7735   24.3708 Br  0  0  0  0  0  0  0  0  0  0  0  0
   11.9422    2.8832   23.3902 C   0  0  0  0  0  0  0  0  0  0  0  0
   10.8873    3.3986   22.6433 C   0  0  0  0  0  0  0  0  0  0  0  0
   10.0784    2.5358   21.8964 C   0  0  0  0  0  0  0  0  0  0  0  0
   10.3341    1.1469   21.8525 C   0  0  0  0  0  0  0  0  0  0  0  0
    9.4140    0.2307   21.1510 C   0  0  0  0  0  0  0  0  0  0  0  0
    9.5047   -0.9860   21.2410 O   0  0  0  0  0  0  0  0  0  0  0  0
    8.3172    0.7783   20.5300 N   0  0  0  0  0  0  0  0  0  0  0  0
    7.0015    0.1855   20.5832 C   0  0  0  0  0  0  0  0  0  0  0  0
    6.9777   -1.3343   20.6108 C   0  0  0  0  0  0  0  0  0  0  0  0
    7.4954   -1.7429   19.7466 H   0  0  0  0  0  0  0  0  0  0  0  0
    5.9443   -1.6825   20.5977 H   0  0  0  0  0  0  0  0  0  0  0  0
    7.4506   -1.7105   21.5199 H   0  0  0  0  0  0  0  0  0  0  0  0
    6.3425    0.6682   21.8646 C   0  0  0  0  0  0  0  0  0  0  0  0
    5.3373    0.2496   21.9395 H   0  0  0  0  0  0  0  0  0  0  0  0
    6.9250    0.3459   22.7338 H   0  0  0  0  0  0  0  0  0  0  0  0
    6.2721    1.7593   21.8649 H   0  0  0  0  0  0  0  0  0  0  0  0
    6.3313    0.6813   19.3434 C   0  0  0  0  0  0  0  0  0  0  0  0
    5.1375    1.4079   19.3730 C   0  0  0  0  0  0  0  0  0  0  0  0
    4.6692    1.9134   18.1706 C   0  0  0  0  0  0  0  0  0  0  0  0
    5.3944    1.7048   16.9978 C   0  0  0  0  0  0  0  0  0  0  0  0
    6.5294    0.9812   16.9606 N   0  0  0  0  0  0  0  0  0  0  0  0
    6.9745    0.4697   18.1172 C   0  0  0  0  0  0  0  0  0  0  0  0
    7.8983   -0.1055   18.1239 H   0  0  0  0  0  0  0  0  0  0  0  0
    5.0405    2.1755   16.0917 H   0  0  0  0  0  0  0  0  0  0  0  0
    3.7624    2.5067   18.1314 H   0  0  0  0  0  0  0  0  0  0  0  0
    4.6059    1.5917   20.3045 H   0  0  0  0  0  0  0  0  0  0  0  0
    8.3137    1.7922   20.5103 H   0  0  0  0  0  0  0  0  0  0  0  0
    9.2278    2.9598   21.3681 H   0  0  0  0  0  0  0  0  0  0  0  0
   10.6837    4.4653   22.6551 H   0  0  0  0  0  0  0  0  0  0  0  0
   12.5415    3.5574   23.9963 H   0  0  0  0  0  0  0  0  0  0  0  0
   11.6239   -1.2241   21.5147 H   0  0  0  0  0  0  0  0  0  0  0  0
   11.2281   -1.3739   23.2443 H   0  0  0  0  0  0  0  0  0  0  0  0
   12.8800   -0.9431   22.7245 H   0  0  0  0  0  0  0  0  0  0  0  0
  1  2  1  0
  2  3  2  0
  3  4  1  0
  3  5  1  0
  5  6  2  0
  6  7  1  0
  7  8  2  0
  8  9  1  0
  9 10  2  0
  9 11  1  0
 11 12  1  0
 12 13  1  0
 13 14  1  0
 13 15  1  0
 13 16  1  0
 12 17  1  0
 17 18  1  0
 17 19  1  0
 17 20  1  0
 12 21  1  0
 21 22  2  0
 22 23  1  0
 23 24  2  0
 24 25  1  0
 25 26  2  0
 26 27  1  0
 24 28  1  0
 23 29  1  0
 22 30  1  0
 11 31  1  0
  7 32  1  0
  6 33  1  0
  5 34  1  0
  1 35  1  0
  1 36  1  0
  1 37  1  0
  8  2  1  0
 26 21  1  0
M  END
>  <plip>  (1) 
-0.07142857142857142

>  <filename>  (1) 
[H][c]1[n][c]([H])[c]([C]([N]([H])[C](=[O])[c]2[c]([H])[c]([H])[c]([H])[c]([Br])[c]2[C]([H])([H])[H])([C]([H])([H])[H])[C]([H])([H])[H])[c]([H])[c]1[H]

$$$$
