
     RDKit          3D

 34 36  0  0  0  0  0  0  0  0999 V2000
    9.4962   -0.4409   19.9562 H   0  0  0  0  0  0  0  0  0  0  0  0
    8.8645   -0.7560   20.7807 C   0  0  0  0  0  0  0  0  0  0  0  0
    9.4839   -1.3283   21.8072 N   0  0  0  0  0  0  0  0  0  0  0  0
    8.7559   -1.6803   22.8801 N   0  0  0  0  0  0  0  0  0  0  0  0
    7.4413   -1.4204   22.8946 C   0  0  0  0  0  0  0  0  0  0  0  0
    6.7198   -1.7621   24.1690 C   0  0  0  0  0  0  0  0  0  0  0  0
    7.3850   -1.5120   25.0022 H   0  0  0  0  0  0  0  0  0  0  0  0
    5.8455   -1.1144   24.2536 H   0  0  0  0  0  0  0  0  0  0  0  0
    6.3375   -3.2412   24.2016 C   0  0  0  0  0  0  0  0  0  0  0  0
    7.1991   -4.1937   24.7572 C   0  0  0  0  0  0  0  0  0  0  0  0
    8.1253   -3.8622   25.2256 H   0  0  0  0  0  0  0  0  0  0  0  0
    6.8418   -5.5834   24.7569 C   0  0  0  0  0  0  0  0  0  0  0  0
    7.5264   -6.1183   25.4711 H   0  0  0  0  0  0  0  0  0  0  0  0
    5.6758   -6.1253   23.9259 C   0  0  0  0  0  0  0  0  0  0  0  0
    5.7019   -6.1539   24.1417 C   0  0  0  0  0  0  0  0  0  0  0  0
    4.9667   -7.1076   25.5498 F   0  0  0  0  0  0  0  0  0  0  0  0
    5.4968   -6.9680   21.6046 F   0  0  0  0  0  0  0  0  0  0  0  0
    6.6286   -7.6176   22.0219 F   0  0  0  0  0  0  0  0  0  0  0  0
    4.8625   -5.1150   23.4706 C   0  0  0  0  0  0  0  0  0  0  0  0
    4.3509   -5.2768   22.4898 H   0  0  0  0  0  0  0  0  0  0  0  0
    5.1788   -3.6739   23.5906 C   0  0  0  0  0  0  0  0  0  0  0  0
    4.5251   -2.9597   23.1091 H   0  0  0  0  0  0  0  0  0  0  0  0
    6.7448   -0.8844   21.8723 N   0  0  0  0  0  0  0  0  0  0  0  0
    7.4558   -0.5445   20.7931 C   0  0  0  0  0  0  0  0  0  0  0  0
    6.7257    0.0826   19.6652 C   0  0  0  0  0  0  0  0  0  0  0  0
    7.1804   -0.0868   18.3484 C   0  0  0  0  0  0  0  0  0  0  0  0
    8.0504   -0.7091   18.1393 H   0  0  0  0  0  0  0  0  0  0  0  0
    6.6080    0.4700   17.2800 N   0  0  0  0  0  0  0  0  0  0  0  0
    5.5280    1.2360   17.4848 C   0  0  0  0  0  0  0  0  0  0  0  0
    5.0833    1.6824   16.5978 H   0  0  0  0  0  0  0  0  0  0  0  0
    4.9757    1.4575   18.7495 C   0  0  0  0  0  0  0  0  0  0  0  0
    4.1002    2.0906   18.8469 H   0  0  0  0  0  0  0  0  0  0  0  0
    5.5740    0.8664   19.8603 C   0  0  0  0  0  0  0  0  0  0  0  0
    5.1638    1.0080   20.8617 H   0  0  0  0  0  0  0  0  0  0  0  0
  1  2  1  0
  2  3  2  0
  3  4  1  0
  4  5  2  0
  5  6  1  0
  6  7  1  0
  6  8  1  0
  6  9  1  0
  9 10  2  0
 10 11  1  0
 10 12  1  0
 12 13  1  0
 12 14  2  0
 14 15  1  0
 15 16  1  0
 15 17  1  0
 15 18  1  0
 14 19  1  0
 19 20  1  0
 19 21  2  0
 21 22  1  0
  5 23  1  0
 23 24  2  0
 24 25  1  0
 25 26  2  0
 26 27  1  0
 26 28  1  0
 28 29  2  0
 29 30  1  0
 29 31  1  0
 31 32  1  0
 31 33  2  0
 33 34  1  0
 24  2  1  0
 33 25  1  0
 21  9  1  0
M  END
>  <plip>  (1) 
-0.06896551724137931

>  <filename>  (1) 
[H][c]1[n][n][c]([C]([H])([H])[c]2[c]([H])[c]([H])[c]([C]([F])([F])[F])[c]([H])[c]2[H])[n][c]1-[c]1[c]([H])[n][c]([H])[c]([H])[c]1[H]

$$$$
