
     RDKit          3D

 43 45  0  0  0  0  0  0  0  0999 V2000
    4.9701    1.8894   16.9912 H   0  0  0  0  0  0  0  0  0  0  0  0
    5.4564    1.3173   17.7797 C   0  0  0  0  0  0  0  0  0  0  0  0
    6.6075    0.7081   17.4478 N   0  0  0  0  0  0  0  0  0  0  0  0
    7.2474    0.0274   18.4067 C   0  0  0  0  0  0  0  0  0  0  0  0
    8.2069   -0.4138   18.1439 H   0  0  0  0  0  0  0  0  0  0  0  0
    6.7550   -0.1191   19.7224 C   0  0  0  0  0  0  0  0  0  0  0  0
    7.4772   -0.8496   20.7431 N   0  0  0  0  0  0  0  0  0  0  0  0
    8.7383   -0.4783   21.2149 C   0  0  0  0  0  0  0  0  0  0  0  0
    9.4081    0.4080   20.7509 O   0  0  0  0  0  0  0  0  0  0  0  0
    9.1399   -1.3855   22.3549 C   0  0  0  0  0  0  0  0  0  0  0  0
    9.5121   -0.7659   23.1717 H   0  0  0  0  0  0  0  0  0  0  0  0
    9.9507   -2.0285   22.0045 H   0  0  0  0  0  0  0  0  0  0  0  0
    7.8612   -2.1111   22.7266 C   0  0  1  0  0  0  0  0  0  0  0  0
    7.9771   -3.1929   22.8656 H   0  0  0  0  0  0  0  0  0  0  0  0
    7.3281   -1.4715   23.8891 O   0  0  0  0  0  0  0  0  0  0  0  0
    6.6193   -2.3118   24.7890 C   0  0  0  0  0  0  0  0  0  0  0  0
    5.9678   -3.0113   24.2374 H   0  0  0  0  0  0  0  0  0  0  0  0
    5.9792   -1.6342   25.3647 H   0  0  0  0  0  0  0  0  0  0  0  0
    7.5307   -3.0373   25.7916 C   0  0  0  0  0  0  0  0  0  0  0  0
    8.1372   -2.2533   26.2631 H   0  0  0  0  0  0  0  0  0  0  0  0
    6.9043   -3.4616   26.5916 H   0  0  0  0  0  0  0  0  0  0  0  0
    8.4497   -4.0284   25.2146 N   0  0  0  0  0  0  0  0  0  0  0  0
    7.8907   -5.3527   24.9266 C   0  0  0  0  0  0  0  0  0  0  0  0
    6.8622   -5.2287   24.5698 H   0  0  0  0  0  0  0  0  0  0  0  0
    8.4456   -5.7527   24.0633 H   0  0  0  0  0  0  0  0  0  0  0  0
    7.9613   -6.3805   26.0960 C   0  0  0  0  0  0  0  0  0  0  0  0
    7.0214   -6.9416   26.1323 H   0  0  0  0  0  0  0  0  0  0  0  0
    8.7528   -7.1027   25.8652 H   0  0  0  0  0  0  0  0  0  0  0  0
    8.3146   -5.7720   27.4613 C   0  0  0  0  0  0  0  0  0  0  0  0
    7.4875   -5.1631   27.8492 H   0  0  0  0  0  0  0  0  0  0  0  0
    8.4620   -6.5770   28.1918 H   0  0  0  0  0  0  0  0  0  0  0  0
    9.5935   -4.9181   27.3331 C   0  0  0  0  0  0  0  0  0  0  0  0
   10.4857   -5.5426   27.4424 H   0  0  0  0  0  0  0  0  0  0  0  0
    9.6450   -4.2114   28.1563 H   0  0  0  0  0  0  0  0  0  0  0  0
    9.6954   -4.1593   25.9740 C   0  0  0  0  0  0  0  0  0  0  0  0
   10.0425   -3.1405   26.1307 H   0  0  0  0  0  0  0  0  0  0  0  0
   10.4315   -4.6369   25.3114 H   0  0  0  0  0  0  0  0  0  0  0  0
    6.9314   -1.8796   21.5132 C   0  0  0  0  0  0  0  0  0  0  0  0
    5.9284   -2.4925   21.2488 O   0  0  0  0  0  0  0  0  0  0  0  0
    5.5483    0.5043   20.0498 C   0  0  0  0  0  0  0  0  0  0  0  0
    5.1572    0.4056   21.0624 H   0  0  0  0  0  0  0  0  0  0  0  0
    4.8970    1.2471   19.0587 C   0  0  0  0  0  0  0  0  0  0  0  0
    3.9740    1.7736   19.2656 H   0  0  0  0  0  0  0  0  0  0  0  0
  1  2  1  0
  2  3  2  0
  3  4  1  0
  4  5  1  0
  4  6  2  0
  6  7  1  0
  7  8  1  0
  8  9  2  0
  8 10  1  0
 10 11  1  0
 10 12  1  0
 10 13  1  0
 13 14  1  1
 13 15  1  0
 15 16  1  0
 16 17  1  0
 16 18  1  0
 16 19  1  0
 19 20  1  0
 19 21  1  0
 19 22  1  0
 22 23  1  0
 23 24  1  0
 23 25  1  0
 23 26  1  0
 26 27  1  0
 26 28  1  0
 26 29  1  0
 29 30  1  0
 29 31  1  0
 29 32  1  0
 32 33  1  0
 32 34  1  0
 32 35  1  0
 35 36  1  0
 35 37  1  0
 13 38  1  0
 38 39  2  0
  6 40  1  0
 40 41  1  0
 40 42  2  0
 42 43  1  0
 42  2  1  0
 38  7  1  0
 35 22  1  0
M  END
>  <plip>  (1) 
-0.14285714285714285

>  <filename>  (1) 
[H][c]1[n][c]([H])[c]([N]2[C](=[O])[C]([H])([H])[C@@]([H])([O][C]([H])([H])[C]([H])([H])[N]3[C]([H])([H])[C]([H])([H])[C]([H])([H])[C]([H])([H])[C]3([H])[H])[C]2=[O])[c]([H])[c]1[H]

$$$$
