
     RDKit          3D

 44 46  0  0  0  0  0  0  0  0999 V2000
    9.2602    0.7607   21.2974 C   0  0  0  0  0  0  0  0  0  0  0  0
    8.0976   -0.0309   21.9008 C   0  0  0  0  0  0  0  0  0  0  0  0
    7.3434   -0.7275   20.8744 O   0  0  0  0  0  0  0  0  0  0  0  0
    6.6778    0.0104   19.9217 C   0  0  0  0  0  0  0  0  0  0  0  0
    5.4544    0.6479   20.1723 C   0  0  0  0  0  0  0  0  0  0  0  0
    4.8168    1.3030   19.1094 C   0  0  0  0  0  0  0  0  0  0  0  0
    5.4026    1.2913   17.8392 C   0  0  0  0  0  0  0  0  0  0  0  0
    6.5684    0.6766   17.5860 N   0  0  0  0  0  0  0  0  0  0  0  0
    7.1857    0.0668   18.6089 C   0  0  0  0  0  0  0  0  0  0  0  0
    8.1234   -0.4363   18.3901 H   0  0  0  0  0  0  0  0  0  0  0  0
    4.9178    1.7826   16.9948 H   0  0  0  0  0  0  0  0  0  0  0  0
    3.8841    1.8339   19.2579 H   0  0  0  0  0  0  0  0  0  0  0  0
    5.0142    0.6125   21.1681 H   0  0  0  0  0  0  0  0  0  0  0  0
    7.1784    0.8539   22.8203 C   0  0  0  0  0  0  0  0  0  0  0  0
    7.1294    2.0693   22.7160 O   0  0  0  0  0  0  0  0  0  0  0  0
    6.3965    0.2002   23.7347 N   0  0  0  0  0  0  0  0  0  0  0  0
    5.4763    0.9272   24.6180 C   0  0  0  0  0  0  0  0  0  0  0  0
    6.2049    1.7785   25.6650 C   0  0  0  0  0  0  0  0  0  0  0  0
    5.2652    1.8543   26.8670 C   0  0  0  0  0  0  0  0  0  0  0  0
    4.3574    0.7148   26.7210 N   0  0  0  0  0  0  0  0  0  0  0  0
    3.4833    0.2897   27.7118 C   0  0  0  0  0  0  0  0  0  0  0  0
    2.8539   -0.9834   27.6375 C   0  0  0  0  0  0  0  0  0  0  0  0
    1.9660   -1.4380   28.6176 C   0  0  0  0  0  0  0  0  0  0  0  0
    1.6586   -0.6445   29.7218 C   0  0  0  0  0  0  0  0  0  0  0  0
    2.2496    0.6159   29.8363 C   0  0  0  0  0  0  0  0  0  0  0  0
    3.1317    1.0645   28.8587 C   0  0  0  0  0  0  0  0  0  0  0  0
    3.6524    2.3063   29.0387 F   0  0  0  0  0  0  0  0  0  0  0  0
    2.0391    1.2675   30.6803 H   0  0  0  0  0  0  0  0  0  0  0  0
    0.9704   -0.9929   30.4877 H   0  0  0  0  0  0  0  0  0  0  0  0
    1.5098   -2.4202   28.5186 H   0  0  0  0  0  0  0  0  0  0  0  0
    3.0766   -1.6200   26.7882 H   0  0  0  0  0  0  0  0  0  0  0  0
    4.5448    0.0234   25.4503 C   0  0  0  0  0  0  0  0  0  0  0  0
    4.9908   -0.9716   25.5981 H   0  0  0  0  0  0  0  0  0  0  0  0
    3.5819   -0.1213   24.9479 H   0  0  0  0  0  0  0  0  0  0  0  0
    4.7025    2.7956   26.8857 H   0  0  0  0  0  0  0  0  0  0  0  0
    5.8216    1.7975   27.8099 H   0  0  0  0  0  0  0  0  0  0  0  0
    6.4568    2.7599   25.2645 H   0  0  0  0  0  0  0  0  0  0  0  0
    7.1432    1.2909   25.9391 H   0  0  0  0  0  0  0  0  0  0  0  0
    4.8564    1.5930   24.0069 H   0  0  0  0  0  0  0  0  0  0  0  0
    6.4218   -0.8044   23.7822 H   0  0  0  0  0  0  0  0  0  0  0  0
    8.4959   -0.8576   22.5054 H   0  0  0  0  0  0  0  0  0  0  0  0
    9.8853    0.0984   20.6884 H   0  0  0  0  0  0  0  0  0  0  0  0
    8.8949    1.5822   20.6694 H   0  0  0  0  0  0  0  0  0  0  0  0
    9.8843    1.1937   22.0870 H   0  0  0  0  0  0  0  0  0  0  0  0
  1  2  1  0
  2  3  1  0
  3  4  1  0
  4  5  2  0
  5  6  1  0
  6  7  2  0
  7  8  1  0
  8  9  2  0
  9 10  1  0
  7 11  1  0
  6 12  1  0
  5 13  1  0
  2 14  1  0
 14 15  2  0
 14 16  1  0
 16 17  1  0
 17 18  1  0
 18 19  1  0
 19 20  1  0
 20 21  1  0
 21 22  2  0
 22 23  1  0
 23 24  2  0
 24 25  1  0
 25 26  2  0
 26 27  1  0
 25 28  1  0
 24 29  1  0
 23 30  1  0
 22 31  1  0
 20 32  1  0
 32 33  1  0
 32 34  1  0
 19 35  1  0
 19 36  1  0
 18 37  1  0
 18 38  1  0
 17 39  1  0
 16 40  1  0
  2 41  1  0
  1 42  1  0
  1 43  1  0
  1 44  1  0
  9  4  1  0
 32 17  1  0
 26 21  1  0
M  END
>  <plip>  (1) 
-0.07142857142857142

>  <filename>  (1) 
[H][c]1[n][c]([H])[c]([O][C]([H])([C](=[O])[N]([H])[C]2([H])[C]([H])([H])[N]([c]3[c]([H])[c]([H])[c]([H])[c]([H])[c]3[F])[C]([H])([H])[C]2([H])[H])[C]([H])([H])[H])[c]([H])[c]1[H]

$$$$
