
     RDKit          3D

 48 50  0  0  0  0  0  0  0  0999 V2000
   11.9169   -0.9863   21.0962 O   0  0  0  0  0  0  0  0  0  0  0  0
   11.3534    0.0202   21.5603 C   0  0  0  0  0  0  0  0  0  0  0  0
   11.1643    1.1302   21.0185 O   0  0  0  0  0  1  0  0  0  0  0  0
   10.6721   -0.1844   22.9230 C   0  0  0  0  0  0  0  0  0  0  0  0
    9.3548   -0.8272   22.5234 C   0  0  0  0  0  0  0  0  0  0  0  0
    8.7137    0.0130   21.4555 N   0  0  0  0  0  4  0  0  0  0  0  0
    8.4341    1.4864   21.8372 C   0  0  0  0  0  0  0  0  0  0  0  0
    7.6721    1.6580   23.1406 C   0  0  0  0  0  0  0  0  0  0  0  0
    7.3139    3.0921   23.4699 C   0  0  2  0  0  0  0  0  0  0  0  0
    6.1867    3.3270   24.4251 C   0  0  0  0  0  0  0  0  0  0  0  0
    6.0133    3.6915   22.9699 C   0  0  1  0  0  0  0  0  0  0  0  0
    5.8912    5.1227   22.5185 C   0  0  0  0  0  0  0  0  0  0  0  0
    6.7458    6.1428   22.9682 C   0  0  0  0  0  0  0  0  0  0  0  0
    6.6916    7.4273   22.4167 C   0  0  0  0  0  0  0  0  0  0  0  0
    5.7569    7.7323   21.4198 C   0  0  0  0  0  0  0  0  0  0  0  0
    4.8253    6.7563   21.0364 C   0  0  0  0  0  0  0  0  0  0  0  0
    4.8902    5.4783   21.6043 C   0  0  0  0  0  0  0  0  0  0  0  0
    4.1818    4.7155   21.2926 H   0  0  0  0  0  0  0  0  0  0  0  0
    4.0814    6.9681   20.2688 H   0  0  0  0  0  0  0  0  0  0  0  0
    5.7532    8.7119   20.9514 H   0  0  0  0  0  0  0  0  0  0  0  0
    7.3676    8.1964   22.7790 H   0  0  0  0  0  0  0  0  0  0  0  0
    7.4287    5.9529   23.7900 H   0  0  0  0  0  0  0  0  0  0  0  0
    5.4063    2.9986   22.3791 H   0  0  0  0  0  0  0  0  0  0  0  0
    6.2887    4.1297   25.1471 H   0  0  0  0  0  0  0  0  0  0  0  0
    5.6432    2.4587   24.7915 H   0  0  0  0  0  0  0  0  0  0  0  0
    8.1682    3.7681   23.5445 H   0  0  0  0  0  0  0  0  0  0  0  0
    6.7627    1.0435   23.0899 H   0  0  0  0  0  0  0  0  0  0  0  0
    8.2804    1.2475   23.9539 H   0  0  0  0  0  0  0  0  0  0  0  0
    7.8822    1.9246   21.0002 H   0  0  0  0  0  0  0  0  0  0  0  0
    9.4006    1.9888   21.8501 H   0  0  0  0  0  0  0  0  0  0  0  0
    7.4796   -0.6860   20.9807 C   0  0  0  0  0  0  0  0  0  0  0  0
    6.7248    0.0399   19.9089 C   0  0  0  0  0  0  0  0  0  0  0  0
    5.4919    0.6661   20.1496 C   0  0  0  0  0  0  0  0  0  0  0  0
    4.8533    1.3178   19.0933 C   0  0  0  0  0  0  0  0  0  0  0  0
    5.4699    1.3127   17.8361 C   0  0  0  0  0  0  0  0  0  0  0  0
    6.6470    0.7203   17.5903 N   0  0  0  0  0  0  0  0  0  0  0  0
    7.2568    0.1121   18.6180 C   0  0  0  0  0  0  0  0  0  0  0  0
    8.2063   -0.3727   18.3859 H   0  0  0  0  0  0  0  0  0  0  0  0
    4.9925    1.8026   16.9903 H   0  0  0  0  0  0  0  0  0  0  0  0
    3.9035    1.8264   19.2228 H   0  0  0  0  0  0  0  0  0  0  0  0
    5.0444    0.6381   21.1464 H   0  0  0  0  0  0  0  0  0  0  0  0
    6.8130   -0.8469   21.8382 H   0  0  0  0  0  0  0  0  0  0  0  0
    7.7620   -1.6809   20.6136 H   0  0  0  0  0  0  0  0  0  0  0  0
    9.3903    0.1044   20.6735 H   0  0  0  0  0  0  0  0  0  0  0  0
    9.5547   -1.8295   22.1127 H   0  0  0  0  0  0  0  0  0  0  0  0
    8.6739   -0.9599   23.3772 H   0  0  0  0  0  0  0  0  0  0  0  0
   10.5134    0.7766   23.4184 H   0  0  0  0  0  0  0  0  0  0  0  0
   11.2697   -0.8506   23.5432 H   0  0  0  0  0  0  0  0  0  0  0  0
  1  2  2  0
  2  3  1  0
  2  4  1  0
  4  5  1  0
  5  6  1  0
  6  7  1  0
  7  8  1  0
  8  9  1  0
  9 10  1  0
 10 11  1  0
 11 12  1  0
 12 13  2  0
 13 14  1  0
 14 15  2  0
 15 16  1  0
 16 17  2  0
 17 18  1  0
 16 19  1  0
 15 20  1  0
 14 21  1  0
 13 22  1  0
 11 23  1  6
 10 24  1  0
 10 25  1  0
  9 26  1  1
  8 27  1  0
  8 28  1  0
  7 29  1  0
  7 30  1  0
  6 31  1  0
 31 32  1  0
 32 33  2  0
 33 34  1  0
 34 35  2  0
 35 36  1  0
 36 37  2  0
 37 38  1  0
 35 39  1  0
 34 40  1  0
 33 41  1  0
 31 42  1  0
 31 43  1  0
  6 44  1  0
  5 45  1  0
  5 46  1  0
  4 47  1  0
  4 48  1  0
 11  9  1  0
 17 12  1  0
 37 32  1  0
M  CHG  2   3  -1   6   1
M  END
>  <plip>  (1) 
-0.06666666666666667

>  <filename>  (1) 
[H][c]1[n][c]([H])[c]([C]([H])([H])[N+]([H])([C]([H])([H])[C]([H])([H])[C](=[O])[O-])[C]([H])([H])[C]([H])([H])[C@]2([H])[C]([H])([H])[C@@]2([H])[c]2[c]([H])[c]([H])[c]([H])[c]([H])[c]2[H])[c]([H])[c]1[H]

$$$$
