
     RDKit          3D

 35 37  0  0  0  0  0  0  0  0999 V2000
    4.8535    1.6325   16.8779 H   0  0  0  0  0  0  0  0  0  0  0  0
    5.4560    1.4315   17.7592 C   0  0  0  0  0  0  0  0  0  0  0  0
    6.6970    0.9745   17.5226 N   0  0  0  0  0  0  0  0  0  0  0  0
    7.4361    0.6727   18.5956 C   0  0  0  0  0  0  0  0  0  0  0  0
    8.4496    0.3214   18.3949 H   0  0  0  0  0  0  0  0  0  0  0  0
    6.9973    0.7634   19.9225 C   0  0  0  0  0  0  0  0  0  0  0  0
    7.8193    0.1220   21.0174 C   0  0  2  0  0  0  0  0  0  0  0  0
    8.6848   -0.3554   20.5385 H   0  0  0  0  0  0  0  0  0  0  0  0
    7.0673   -0.9044   21.7613 N   0  0  0  0  0  0  0  0  0  0  0  0
    6.3806   -1.9219   21.0963 C   0  0  0  0  0  0  0  0  0  0  0  0
    6.2485   -1.8837   19.8914 O   0  0  0  0  0  0  0  0  0  0  0  0
    5.9612   -2.9502   21.8744 N   0  0  0  0  0  0  0  0  0  0  0  0
    5.9876   -2.7433   22.8643 H   0  0  0  0  0  0  0  0  0  0  0  0
    5.6291   -4.2164   21.4381 C   0  0  0  0  0  0  0  0  0  0  0  0
    5.8709   -4.6673   20.1359 C   0  0  0  0  0  0  0  0  0  0  0  0
    6.1917   -3.9805   19.3694 H   0  0  0  0  0  0  0  0  0  0  0  0
    5.6474   -6.0092   19.8670 C   0  0  0  0  0  0  0  0  0  0  0  0
    5.8914   -6.4206   18.8856 H   0  0  0  0  0  0  0  0  0  0  0  0
    5.1291   -6.8677   20.7526 N   0  0  0  0  0  0  0  0  0  0  0  0
    4.8210   -6.3944   21.9650 C   0  0  0  0  0  0  0  0  0  0  0  0
    4.3355   -7.0951   22.6412 H   0  0  0  0  0  0  0  0  0  0  0  0
    5.0785   -5.0930   22.3714 C   0  0  0  0  0  0  0  0  0  0  0  0
    4.8607   -4.7635   23.3829 H   0  0  0  0  0  0  0  0  0  0  0  0
    6.9643   -0.6557   23.0957 C   0  0  0  0  0  0  0  0  0  0  0  0
    6.4450   -1.4034   23.9061 O   0  0  0  0  0  0  0  0  0  0  0  0
    7.5895    0.6761   23.4070 C   0  0  0  0  0  0  0  0  0  0  0  0
    6.7882    1.3517   23.7264 H   0  0  0  0  0  0  0  0  0  0  0  0
    8.2673    0.5435   24.2514 H   0  0  0  0  0  0  0  0  0  0  0  0
    8.2960    1.1021   22.1126 C   0  0  0  0  0  0  0  0  0  0  0  0
    8.0957    2.1419   21.8359 H   0  0  0  0  0  0  0  0  0  0  0  0
    9.3787    1.0060   22.2187 H   0  0  0  0  0  0  0  0  0  0  0  0
    5.7469    1.3473   20.1494 C   0  0  0  0  0  0  0  0  0  0  0  0
    5.4027    1.5632   21.1638 H   0  0  0  0  0  0  0  0  0  0  0  0
    4.9454    1.6511   19.0438 C   0  0  0  0  0  0  0  0  0  0  0  0
    3.9375    2.0378   19.1631 H   0  0  0  0  0  0  0  0  0  0  0  0
  1  2  1  0
  2  3  2  0
  3  4  1  0
  4  5  1  0
  4  6  2  0
  6  7  1  0
  7  8  1  6
  7  9  1  0
  9 10  1  0
 10 11  2  0
 10 12  1  0
 12 13  1  0
 12 14  1  0
 14 15  2  0
 15 16  1  0
 15 17  1  0
 17 18  1  0
 17 19  2  0
 19 20  1  0
 20 21  1  0
 20 22  2  0
 22 23  1  0
  9 24  1  0
 24 25  2  0
 24 26  1  0
 26 27  1  0
 26 28  1  0
 26 29  1  0
 29 30  1  0
 29 31  1  0
  6 32  1  0
 32 33  1  0
 32 34  2  0
 34 35  1  0
 34  2  1  0
 29  7  1  0
 22 14  1  0
M  END
>  <plip>  (1) 
-0.10714285714285714

>  <filename>  (1) 
[H][c]1[n][c]([H])[c]([C@]2([H])[N]([C](=[O])[N]([H])[c]3[c]([H])[c]([H])[n][c]([H])[c]3[H])[C](=[O])[C]([H])([H])[C]2([H])[H])[c]([H])[c]1[H]

$$$$
