
     RDKit          3D

 31 33  0  0  0  0  0  0  0  0999 V2000
    7.0807   -2.0806   21.1129 C   0  0  0  0  0  0  0  0  0  0  0  0
    7.2654   -0.5720   21.1320 C   0  0  1  0  0  0  0  0  0  0  0  0
    8.6604   -0.2352   21.0864 N   0  0  0  0  0  0  0  0  0  0  0  0
    9.1745    0.9501   21.4678 C   0  0  0  0  0  0  0  0  0  0  0  0
    8.3675    2.0265   21.9371 C   0  0  0  0  0  0  0  0  0  0  0  0
    8.9637    3.1946   22.3888 C   0  0  0  0  0  0  0  0  0  0  0  0
   10.3591    3.2398   22.2755 C   0  0  0  0  0  0  0  0  0  0  0  0
   11.3286    4.2115   22.4425 N   0  0  0  0  0  0  0  0  0  0  0  0
   12.4989    3.6493   21.9952 C   0  0  0  0  0  0  0  0  0  0  0  0
   12.3781    2.4188   21.6058 N   0  0  0  0  0  0  0  0  0  0  0  0
   11.0508    2.1212   21.7398 C   0  0  0  0  0  0  0  0  0  0  0  0
   10.5013    0.9728   21.3700 N   0  0  0  0  0  0  0  0  0  0  0  0
   13.4244    4.2188   21.9930 H   0  0  0  0  0  0  0  0  0  0  0  0
   11.1763    5.1822   22.6529 H   0  0  0  0  0  0  0  0  0  0  0  0
    8.3728    4.0126   22.7954 H   0  0  0  0  0  0  0  0  0  0  0  0
    7.2920    1.9130   21.9290 H   0  0  0  0  0  0  0  0  0  0  0  0
    9.4063   -0.8721   20.8708 H   0  0  0  0  0  0  0  0  0  0  0  0
    6.5632    0.1313   19.9951 C   0  0  0  0  0  0  0  0  0  0  0  0
    5.3346    0.7752   20.1489 C   0  0  0  0  0  0  0  0  0  0  0  0
    4.7398    1.3619   19.0309 C   0  0  0  0  0  0  0  0  0  0  0  0
    5.4098    1.3054   17.8059 C   0  0  0  0  0  0  0  0  0  0  0  0
    6.6009    0.7109   17.6459 N   0  0  0  0  0  0  0  0  0  0  0  0
    7.1561    0.1448   18.7226 C   0  0  0  0  0  0  0  0  0  0  0  0
    8.1289   -0.3200   18.5599 H   0  0  0  0  0  0  0  0  0  0  0  0
    4.9716    1.7480   16.9143 H   0  0  0  0  0  0  0  0  0  0  0  0
    3.7835    1.8625   19.1000 H   0  0  0  0  0  0  0  0  0  0  0  0
    4.8648    0.8178   21.1326 H   0  0  0  0  0  0  0  0  0  0  0  0
    6.8567   -0.2060   22.0876 H   0  0  0  0  0  0  0  0  0  0  0  0
    6.0743   -2.3591   21.4396 H   0  0  0  0  0  0  0  0  0  0  0  0
    7.7969   -2.5447   21.7968 H   0  0  0  0  0  0  0  0  0  0  0  0
    7.2191   -2.4829   20.1104 H   0  0  0  0  0  0  0  0  0  0  0  0
  1  2  1  0
  2  3  1  0
  3  4  1  0
  4  5  2  0
  5  6  1  0
  6  7  2  0
  7  8  1  0
  8  9  1  0
  9 10  2  0
 10 11  1  0
 11 12  2  0
  9 13  1  0
  8 14  1  0
  6 15  1  0
  5 16  1  0
  3 17  1  0
  2 18  1  0
 18 19  2  0
 19 20  1  0
 20 21  2  0
 21 22  1  0
 22 23  2  0
 23 24  1  0
 21 25  1  0
 20 26  1  0
 19 27  1  0
  2 28  1  1
  1 29  1  0
  1 30  1  0
  1 31  1  0
 12  4  1  0
 23 18  1  0
 11  7  1  0
M  END
>  <plip>  (1) 
-0.06896551724137931

>  <filename>  (1) 
[H][c]1[n][c]([H])[c]([C@]([H])([N]([H])[c]2[n][c]3[n][c]([H])[n]([H])[c]3[c]([H])[c]2[H])[C]([H])([H])[H])[c]([H])[c]1[H]

$$$$
