
     RDKit          3D

 31 32  0  0  0  0  0  0  0  0999 V2000
    6.1308   -2.6013   21.0516 H   0  0  0  0  0  0  0  0  0  0  0  0
    6.6182   -1.8284   21.6386 C   0  0  0  0  0  0  0  0  0  0  0  0
    6.4915   -1.6279   22.9462 C   0  0  0  0  0  0  0  0  0  0  0  0
    5.8613   -2.3583   23.8988 O   0  0  0  0  0  0  0  0  0  0  0  0
    5.0931   -3.4822   23.4728 C   0  0  0  0  0  0  0  0  0  0  0  0
    4.5714   -3.2455   22.5346 H   0  0  0  0  0  0  0  0  0  0  0  0
    4.3367   -3.6326   24.2530 H   0  0  0  0  0  0  0  0  0  0  0  0
    6.0026   -4.7103   23.3382 C   0  0  0  0  0  0  0  0  0  0  0  0
    6.5213   -4.8140   24.3016 H   0  0  0  0  0  0  0  0  0  0  0  0
    6.7859   -4.4832   22.6004 H   0  0  0  0  0  0  0  0  0  0  0  0
    5.3529   -5.9710   22.9905 N   0  0  0  0  0  0  0  0  0  0  0  0
    4.8611   -5.9070   22.1037 H   0  0  0  0  0  0  0  0  0  0  0  0
    4.6611   -6.2132   23.6936 H   0  0  0  0  0  0  0  0  0  0  0  0
    7.0805   -0.3419   23.4262 C   0  0  0  0  0  0  0  0  0  0  0  0
    7.7061   -0.5110   24.3123 H   0  0  0  0  0  0  0  0  0  0  0  0
    6.2757    0.3267   23.7722 H   0  0  0  0  0  0  0  0  0  0  0  0
    7.8263    0.1904   22.1763 C   0  0  0  0  0  0  0  0  0  0  0  0
    8.9089    0.1525   22.3268 H   0  0  0  0  0  0  0  0  0  0  0  0
    7.5757    1.2302   21.9443 H   0  0  0  0  0  0  0  0  0  0  0  0
    7.4180   -0.7363   20.9786 C   0  0  2  0  0  0  0  0  0  0  0  0
    8.3140   -1.1733   20.5093 H   0  0  0  0  0  0  0  0  0  0  0  0
    6.6566   -0.0163   19.8727 C   0  0  0  0  0  0  0  0  0  0  0  0
    7.1567    0.0529   18.5612 C   0  0  0  0  0  0  0  0  0  0  0  0
    8.1113   -0.4138   18.3149 H   0  0  0  0  0  0  0  0  0  0  0  0
    6.5531    0.6830   17.5420 N   0  0  0  0  0  0  0  0  0  0  0  0
    5.3943    1.3054   17.8083 C   0  0  0  0  0  0  0  0  0  0  0  0
    4.9236    1.8161   16.9699 H   0  0  0  0  0  0  0  0  0  0  0  0
    4.8032    1.3164   19.0766 C   0  0  0  0  0  0  0  0  0  0  0  0
    3.8731    1.8501   19.2342 H   0  0  0  0  0  0  0  0  0  0  0  0
    5.4464    0.6503   20.1209 C   0  0  0  0  0  0  0  0  0  0  0  0
    5.0173    0.6494   21.1257 H   0  0  0  0  0  0  0  0  0  0  0  0
  1  2  1  0
  2  3  2  0
  3  4  1  0
  4  5  1  0
  5  6  1  0
  5  7  1  0
  5  8  1  0
  8  9  1  0
  8 10  1  0
  8 11  1  0
 11 12  1  0
 11 13  1  0
  3 14  1  0
 14 15  1  0
 14 16  1  0
 14 17  1  0
 17 18  1  0
 17 19  1  0
 17 20  1  0
 20 21  1  6
 20 22  1  0
 22 23  2  0
 23 24  1  0
 23 25  1  0
 25 26  2  0
 26 27  1  0
 26 28  1  0
 28 29  1  0
 28 30  2  0
 30 31  1  0
 20  2  1  0
 30 22  1  0
M  END
>  <plip>  (1) 
-0.07142857142857142

>  <filename>  (1) 
[H][C]1=[C]([O][C]([H])([H])[C]([H])([H])[N]([H])[H])[C]([H])([H])[C]([H])([H])[C@]1([H])[c]1[c]([H])[n][c]([H])[c]([H])[c]1[H]

$$$$
