
     RDKit          3D

 37 39  0  0  0  0  0  0  0  0999 V2000
    4.9231    1.8007   16.9734 H   0  0  0  0  0  0  0  0  0  0  0  0
    5.3905    1.3022   17.8203 C   0  0  0  0  0  0  0  0  0  0  0  0
    6.5523    0.6812   17.5627 N   0  0  0  0  0  0  0  0  0  0  0  0
    7.1611    0.0718   18.5882 C   0  0  0  0  0  0  0  0  0  0  0  0
    8.1051   -0.4211   18.3543 H   0  0  0  0  0  0  0  0  0  0  0  0
    6.6507    0.0163   19.8966 C   0  0  0  0  0  0  0  0  0  0  0  0
    7.3775   -0.7051   20.9653 C   0  0  0  0  0  0  0  0  0  0  0  0
    8.7594   -0.5712   21.1339 C   0  0  0  0  0  0  0  0  0  0  0  0
    9.3313    0.0784   20.4830 H   0  0  0  0  0  0  0  0  0  0  0  0
    9.3749   -1.2544   22.1789 C   0  0  0  0  0  0  0  0  0  0  0  0
   10.4463   -1.1600   22.3398 H   0  0  0  0  0  0  0  0  0  0  0  0
    8.7226   -2.0518   23.0396 N   0  0  0  0  0  0  0  0  0  0  0  0
    7.3998   -2.1962   22.8732 C   0  0  0  0  0  0  0  0  0  0  0  0
    6.6772   -3.0695   23.8608 C   0  0  0  0  0  0  0  0  0  0  0  0
    7.3669   -3.8477   24.2099 H   0  0  0  0  0  0  0  0  0  0  0  0
    5.8316   -3.5677   23.3694 H   0  0  0  0  0  0  0  0  0  0  0  0
    6.1326   -2.2701   25.0595 C   0  0  0  0  0  0  0  0  0  0  0  0
    6.9275   -1.7032   25.5712 H   0  0  0  0  0  0  0  0  0  0  0  0
    5.3723   -1.5539   24.7316 H   0  0  0  0  0  0  0  0  0  0  0  0
    5.4188   -3.0987   25.9688 O   0  0  0  0  0  0  0  0  0  0  0  0
    6.0647   -3.8952   26.8649 C   0  0  0  0  0  0  0  0  0  0  0  0
    7.4520   -3.9451   27.0441 C   0  0  0  0  0  0  0  0  0  0  0  0
    8.0960   -3.3131   26.4424 H   0  0  0  0  0  0  0  0  0  0  0  0
    7.9912   -4.8215   27.9936 C   0  0  0  0  0  0  0  0  0  0  0  0
    9.0701   -4.8651   28.1214 H   0  0  0  0  0  0  0  0  0  0  0  0
    7.1628   -5.6321   28.7687 C   0  0  0  0  0  0  0  0  0  0  0  0
    7.5847   -6.3129   29.5015 H   0  0  0  0  0  0  0  0  0  0  0  0
    5.7738   -5.5695   28.5930 C   0  0  0  0  0  0  0  0  0  0  0  0
    5.1202   -6.2003   29.1915 H   0  0  0  0  0  0  0  0  0  0  0  0
    5.2260   -4.7045   27.6492 C   0  0  0  0  0  0  0  0  0  0  0  0
    4.1556   -4.6274   27.4851 H   0  0  0  0  0  0  0  0  0  0  0  0
    6.7021   -1.5432   21.8553 C   0  0  0  0  0  0  0  0  0  0  0  0
    5.6382   -1.6886   21.7441 H   0  0  0  0  0  0  0  0  0  0  0  0
    5.4275    0.6610   20.1383 C   0  0  0  0  0  0  0  0  0  0  0  0
    5.0074    0.6487   21.1461 H   0  0  0  0  0  0  0  0  0  0  0  0
    4.7945    1.3225   19.0871 C   0  0  0  0  0  0  0  0  0  0  0  0
    3.8629    1.8530   19.2344 H   0  0  0  0  0  0  0  0  0  0  0  0
  1  2  1  0
  2  3  2  0
  3  4  1  0
  4  5  1  0
  4  6  2  0
  6  7  1  0
  7  8  2  0
  8  9  1  0
  8 10  1  0
 10 11  1  0
 10 12  2  0
 12 13  1  0
 13 14  1  0
 14 15  1  0
 14 16  1  0
 14 17  1  0
 17 18  1  0
 17 19  1  0
 17 20  1  0
 20 21  1  0
 21 22  2  0
 22 23  1  0
 22 24  1  0
 24 25  1  0
 24 26  2  0
 26 27  1  0
 26 28  1  0
 28 29  1  0
 28 30  2  0
 30 31  1  0
 13 32  2  0
 32 33  1  0
  6 34  1  0
 34 35  1  0
 34 36  2  0
 36 37  1  0
 36  2  1  0
 32  7  1  0
 30 21  1  0
M  END
>  <plip>  (1) 
-0.03571428571428571

>  <filename>  (1) 
[H][c]1[n][c]([H])[c](-[c]2[c]([H])[c]([H])[n][c]([C]([H])([H])[C]([H])([H])[O][c]3[c]([H])[c]([H])[c]([H])[c]([H])[c]3[H])[c]2[H])[c]([H])[c]1[H]

$$$$
