
     RDKit          3D

 33 35  0  0  0  0  0  0  0  0999 V2000
    6.7487   -2.2881   21.3997 C   0  0  0  0  0  0  0  0  0  0  0  0
    7.6003   -0.7580   21.1732 S   0  0  0  0  0  0  0  0  0  0  0  0
    8.9741   -0.9642   20.7453 O   0  0  0  0  0  0  0  0  0  0  0  0
    7.3056   -0.0018   22.6089 N   0  0  0  0  0  0  0  0  0  0  0  0
    7.8452    1.2117   22.5485 C   0  0  0  0  0  0  0  0  0  0  0  0
    8.3668    1.7460   21.5617 O   0  0  0  0  0  0  0  0  0  0  0  0
    7.7723    1.9913   23.8416 C   0  0  0  0  0  0  0  0  0  0  0  0
    8.2642    3.2396   24.0727 C   0  0  0  0  0  0  0  0  0  0  0  0
    7.9869    3.6971   25.4091 C   0  0  0  0  0  0  0  0  0  0  0  0
    8.3071    4.9348   26.0217 C   0  0  0  0  0  0  0  0  0  0  0  0
    7.9220    5.1832   27.3311 C   0  0  0  0  0  0  0  0  0  0  0  0
    7.2179    4.1944   28.0422 C   0  0  0  0  0  0  0  0  0  0  0  0
    6.8617    4.4561   29.3094 F   0  0  0  0  0  0  0  0  0  0  0  0
    6.8838    2.9704   27.4916 C   0  0  0  0  0  0  0  0  0  0  0  0
    7.2734    2.7254   26.1594 C   0  0  0  0  0  0  0  0  0  0  0  0
    6.9667    1.2916   25.2200 S   0  0  0  0  0  0  0  0  0  0  0  0
    6.3374    2.2570   28.1000 H   0  0  0  0  0  0  0  0  0  0  0  0
    8.1389    6.1187   27.8342 H   0  0  0  0  0  0  0  0  0  0  0  0
    8.8478    5.6999   25.4661 H   0  0  0  0  0  0  0  0  0  0  0  0
    8.8102    3.8275   23.3352 H   0  0  0  0  0  0  0  0  0  0  0  0
    6.6555    0.0906   20.0082 C   0  0  0  0  0  0  0  0  0  0  0  0
    5.4253    0.7087   20.2489 C   0  0  0  0  0  0  0  0  0  0  0  0
    4.8195    1.3073   19.1457 C   0  0  0  0  0  0  0  0  0  0  0  0
    5.4551    1.2522   17.8981 C   0  0  0  0  0  0  0  0  0  0  0  0
    6.6262    0.6271   17.6915 N   0  0  0  0  0  0  0  0  0  0  0  0
    7.2221    0.0659   18.7384 C   0  0  0  0  0  0  0  0  0  0  0  0
    8.1797   -0.4309   18.5648 H   0  0  0  0  0  0  0  0  0  0  0  0
    4.9988    1.7231   17.0277 H   0  0  0  0  0  0  0  0  0  0  0  0
    3.8724    1.8283   19.2397 H   0  0  0  0  0  0  0  0  0  0  0  0
    4.9564    0.7430   21.2397 H   0  0  0  0  0  0  0  0  0  0  0  0
    6.8016   -2.8773   20.4846 H   0  0  0  0  0  0  0  0  0  0  0  0
    7.2963   -2.7568   22.2128 H   0  0  0  0  0  0  0  0  0  0  0  0
    5.7267   -2.0605   21.6962 H   0  0  0  0  0  0  0  0  0  0  0  0
  1  2  1  0
  2  3  2  0
  2  4  2  0
  4  5  1  0
  5  6  2  0
  5  7  1  0
  7  8  2  0
  8  9  1  0
  9 10  2  0
 10 11  1  0
 11 12  2  0
 12 13  1  0
 12 14  1  0
 14 15  2  0
 15 16  1  0
 14 17  1  0
 11 18  1  0
 10 19  1  0
  8 20  1  0
  2 21  1  0
 21 22  2  0
 22 23  1  0
 23 24  2  0
 24 25  1  0
 25 26  2  0
 26 27  1  0
 24 28  1  0
 23 29  1  0
 22 30  1  0
  1 31  1  0
  1 32  1  0
  1 33  1  0
 16  7  1  0
 26 21  1  0
 15  9  1  0
M  END
>  <plip>  (1) 
-0.13793103448275862

>  <filename>  (1) 
[H][c]1[n][c]([H])[c]([S](=[O])(=[N][C](=[O])[c]2[s][c]3[c]([H])[c]([F])[c]([H])[c]([H])[c]3[c]2[H])[C]([H])([H])[H])[c]([H])[c]1[H]

$$$$
