
     RDKit          3D

 20 21  0  0  0  0  0  0  0  0999 V2000
    4.9181    1.7843   16.9965 H   0  0  0  0  0  0  0  0  0  0  0  0
    5.4025    1.2917   17.8394 C   0  0  0  0  0  0  0  0  0  0  0  0
    6.5596    0.6686   17.5794 N   0  0  0  0  0  0  0  0  0  0  0  0
    7.1838    0.0558   18.5938 C   0  0  0  0  0  0  0  0  0  0  0  0
    8.1241   -0.4340   18.3527 H   0  0  0  0  0  0  0  0  0  0  0  0
    6.6827    0.0172   19.9076 C   0  0  0  0  0  0  0  0  0  0  0  0
    7.2796   -0.6803   20.9462 O   0  0  0  0  0  0  0  0  0  0  0  0
    8.6376   -0.8116   21.0919 C   0  0  0  0  0  0  0  0  0  0  0  0
    9.5773    0.1708   20.7266 C   0  0  0  0  0  0  0  0  0  0  0  0
    9.2916    1.0773   20.2105 H   0  0  0  0  0  0  0  0  0  0  0  0
   10.8827    0.0588   21.0022 N   0  0  0  0  0  0  0  0  0  0  0  0
   11.3657   -1.0516   21.5520 N   0  0  0  0  0  0  0  0  0  0  0  0
   10.5125   -2.0125   21.9237 C   0  0  0  0  0  0  0  0  0  0  0  0
   10.9824   -2.8525   22.4151 H   0  0  0  0  0  0  0  0  0  0  0  0
    9.1281   -1.9338   21.7465 C   0  0  0  0  0  0  0  0  0  0  0  0
    8.4584   -2.7028   22.1169 H   0  0  0  0  0  0  0  0  0  0  0  0
    5.4590    0.6432   20.1722 C   0  0  0  0  0  0  0  0  0  0  0  0
    5.0355    0.6082   21.1786 H   0  0  0  0  0  0  0  0  0  0  0  0
    4.8214    1.3005   19.1140 C   0  0  0  0  0  0  0  0  0  0  0  0
    3.8882    1.8304   19.2661 H   0  0  0  0  0  0  0  0  0  0  0  0
  1  2  1  0
  2  3  2  0
  3  4  1  0
  4  5  1  0
  4  6  2  0
  6  7  1  0
  7  8  1  0
  8  9  2  0
  9 10  1  0
  9 11  1  0
 11 12  2  0
 12 13  1  0
 13 14  1  0
 13 15  2  0
 15 16  1  0
  6 17  1  0
 17 18  1  0
 17 19  2  0
 19 20  1  0
 19  2  1  0
 15  8  1  0
M  END
>  <plip>  (1) 
-0.07142857142857142

>  <filename>  (1) 
[H][c]1[n][c]([H])[c]([O][c]2[c]([H])[n][n][c]([H])[c]2[H])[c]([H])[c]1[H]

$$$$
