
     RDKit          3D

 27 28  0  0  0  0  0  0  0  0999 V2000
    4.9479    1.8231   16.8981 H   0  0  0  0  0  0  0  0  0  0  0  0
    5.4078    1.3358   17.7543 C   0  0  0  0  0  0  0  0  0  0  0  0
    6.5709    0.7090   17.5236 N   0  0  0  0  0  0  0  0  0  0  0  0
    7.1637    0.1001   18.5608 C   0  0  0  0  0  0  0  0  0  0  0  0
    8.1185   -0.3826   18.3373 H   0  0  0  0  0  0  0  0  0  0  0  0
    6.6383    0.0647   19.8648 C   0  0  0  0  0  0  0  0  0  0  0  0
    7.2988   -0.6850   21.0038 C   0  0  0  0  0  0  0  0  0  0  0  0
    7.2144   -0.0909   21.9228 H   0  0  0  0  0  0  0  0  0  0  0  0
    8.3750   -0.7920   20.8102 H   0  0  0  0  0  0  0  0  0  0  0  0
    6.6849   -2.0838   21.2565 C   0  0  0  0  0  0  0  0  0  0  0  0
    5.6064   -1.9783   21.4302 H   0  0  0  0  0  0  0  0  0  0  0  0
    6.7835   -2.6623   20.3270 H   0  0  0  0  0  0  0  0  0  0  0  0
    7.3626   -2.8240   22.3826 C   0  0  0  0  0  0  0  0  0  0  0  0
    6.8785   -2.9953   23.6825 C   0  0  0  0  0  0  0  0  0  0  0  0
    5.9049   -2.5859   23.9756 H   0  0  0  0  0  0  0  0  0  0  0  0
    7.5270   -3.6631   24.6371 N   0  0  0  0  0  0  0  0  0  0  0  0
    8.6690   -4.1981   24.2430 C   0  0  0  0  0  0  0  0  0  0  0  0
    9.2982   -5.0150   25.0960 N   0  0  0  0  0  0  0  0  0  0  0  0
    9.0608   -4.7502   26.0350 H   0  0  0  0  0  0  0  0  0  0  0  0
   10.2626   -4.9803   24.8202 H   0  0  0  0  0  0  0  0  0  0  0  0
    9.3232   -4.0268   23.1034 N   0  0  0  0  0  0  0  0  0  0  0  0
    8.6406   -3.3597   22.1893 C   0  0  0  0  0  0  0  0  0  0  0  0
    9.1272   -3.2488   21.2174 H   0  0  0  0  0  0  0  0  0  0  0  0
    5.4210    0.7306   20.0735 C   0  0  0  0  0  0  0  0  0  0  0  0
    4.9887    0.7454   21.0747 H   0  0  0  0  0  0  0  0  0  0  0  0
    4.7889    1.3664   19.0057 C   0  0  0  0  0  0  0  0  0  0  0  0
    3.8436    1.8830   19.1326 H   0  0  0  0  0  0  0  0  0  0  0  0
  1  2  1  0
  2  3  2  0
  3  4  1  0
  4  5  1  0
  4  6  2  0
  6  7  1  0
  7  8  1  0
  7  9  1  0
  7 10  1  0
 10 11  1  0
 10 12  1  0
 10 13  1  0
 13 14  2  0
 14 15  1  0
 14 16  1  0
 16 17  2  0
 17 18  1  0
 18 19  1  0
 18 20  1  0
 17 21  1  0
 21 22  2  0
 22 23  1  0
  6 24  1  0
 24 25  1  0
 24 26  2  0
 26 27  1  0
 26  2  1  0
 22 13  1  0
M  END
>  <plip>  (1) 
-0.07142857142857142

>  <filename>  (1) 
[H][c]1[n][c]([H])[c]([C]([H])([H])[C]([H])([H])[c]2[c]([H])[n][c]([N]([H])[H])[n][c]2[H])[c]([H])[c]1[H]

$$$$
