
     RDKit          3D

 40 43  0  0  0  0  0  0  0  0999 V2000
    6.9919   -1.6935   21.5035 O   0  0  0  0  0  0  0  0  0  0  0  0
    7.4895   -0.7588   20.8963 C   0  0  0  0  0  0  0  0  0  0  0  0
    6.7092    0.0090   19.8757 C   0  0  0  0  0  0  0  0  0  0  0  0
    5.4856    0.6507   20.1377 C   0  0  0  0  0  0  0  0  0  0  0  0
    4.8667    1.3278   19.0856 C   0  0  0  0  0  0  0  0  0  0  0  0
    5.4656    1.3116   17.8194 C   0  0  0  0  0  0  0  0  0  0  0  0
    6.6047    0.6587   17.5502 N   0  0  0  0  0  0  0  0  0  0  0  0
    7.2005    0.0268   18.5670 C   0  0  0  0  0  0  0  0  0  0  0  0
    8.1195   -0.4987   18.3098 H   0  0  0  0  0  0  0  0  0  0  0  0
    5.0055    1.8320   16.9811 H   0  0  0  0  0  0  0  0  0  0  0  0
    3.9302    1.8610   19.2232 H   0  0  0  0  0  0  0  0  0  0  0  0
    5.0275    0.6304   21.1305 H   0  0  0  0  0  0  0  0  0  0  0  0
    8.7925   -0.3770   21.0990 N   0  0  0  0  0  0  0  0  0  0  0  0
    9.4005    0.8792   20.6664 C   0  0  0  0  0  0  0  0  0  0  0  0
   10.6872    0.9975   21.4939 C   0  0  0  0  0  0  0  0  0  0  0  0
   11.0014   -0.4455   21.9071 C   0  0  0  0  0  0  0  0  0  0  0  0
    9.6247   -1.1104   22.0615 C   0  0  0  0  0  0  0  0  0  0  0  0
    9.0536   -1.0496   23.4684 C   0  0  0  0  0  0  0  0  0  0  0  0
    8.5263    0.1820   23.9714 C   0  0  0  0  0  0  0  0  0  0  0  0
    7.8386    0.3087   25.0853 N   0  0  0  0  0  0  0  0  0  0  0  0
    7.5887   -0.8377   25.8008 C   0  0  0  0  0  0  0  0  0  0  0  0
    6.7204   -0.7499   26.9295 C   0  0  0  0  0  0  0  0  0  0  0  0
    6.3599   -1.8798   27.6288 C   0  0  0  0  0  0  0  0  0  0  0  0
    6.8866   -3.1551   27.2558 C   0  0  0  0  0  0  0  0  0  0  0  0
    7.7921   -3.2585   26.2255 C   0  0  0  0  0  0  0  0  0  0  0  0
    8.1369   -2.1131   25.4458 C   0  0  0  0  0  0  0  0  0  0  0  0
    8.9078   -2.1815   24.2482 C   0  0  0  0  0  0  0  0  0  0  0  0
    9.3197   -3.1479   23.9461 H   0  0  0  0  0  0  0  0  0  0  0  0
    8.2390   -4.2184   25.9741 H   0  0  0  0  0  0  0  0  0  0  0  0
    6.5623   -4.0603   27.7693 H   0  0  0  0  0  0  0  0  0  0  0  0
    5.6685   -1.8066   28.4691 H   0  0  0  0  0  0  0  0  0  0  0  0
    6.3399    0.2379   27.1682 H   0  0  0  0  0  0  0  0  0  0  0  0
    8.6494    1.1003   23.3896 H   0  0  0  0  0  0  0  0  0  0  0  0
    9.6740   -2.1644   21.7593 H   0  0  0  0  0  0  0  0  0  0  0  0
   11.5684   -0.9561   21.1184 H   0  0  0  0  0  0  0  0  0  0  0  0
   11.5832   -0.5176   22.8305 H   0  0  0  0  0  0  0  0  0  0  0  0
   10.5152    1.6225   22.3776 H   0  0  0  0  0  0  0  0  0  0  0  0
   11.4996    1.4685   20.9329 H   0  0  0  0  0  0  0  0  0  0  0  0
    9.5958    0.8175   19.5951 H   0  0  0  0  0  0  0  0  0  0  0  0
    8.7221    1.7288   20.8197 H   0  0  0  0  0  0  0  0  0  0  0  0
  1  2  2  0
  2  3  1  0
  3  4  2  0
  4  5  1  0
  5  6  2  0
  6  7  1  0
  7  8  2  0
  8  9  1  0
  6 10  1  0
  5 11  1  0
  4 12  1  0
  2 13  1  0
 13 14  1  0
 14 15  1  0
 15 16  1  0
 16 17  1  0
 17 18  1  0
 18 19  2  0
 19 20  1  0
 20 21  2  0
 21 22  1  0
 22 23  2  0
 23 24  1  0
 24 25  2  0
 25 26  1  0
 26 27  2  0
 27 28  1  0
 25 29  1  0
 24 30  1  0
 23 31  1  0
 22 32  1  0
 19 33  1  0
 17 34  1  0
 16 35  1  0
 16 36  1  0
 15 37  1  0
 15 38  1  0
 14 39  1  0
 14 40  1  0
  8  3  1  0
 17 13  1  0
 27 18  1  0
 26 21  1  0
M  END
>  <plip>  (1) 
-0.07142857142857142

>  <filename>  (1) 
[H][c]1[n][c]([H])[c]([C](=[O])[N]2[C]([H])([H])[C]([H])([H])[C]([H])([H])[C]2([H])[c]2[c]([H])[n][c]3[c]([H])[c]([H])[c]([H])[c]([H])[c]3[c]2[H])[c]([H])[c]1[H]

$$$$
