
     RDKit          3D

 52 54  0  0  0  0  0  0  0  0999 V2000
    7.7683    1.7354   23.1082 C   0  0  0  0  0  0  0  0  0  0  0  0
    8.5591    1.4217   21.8383 C   0  0  0  0  0  0  0  0  0  0  0  0
    8.4234   -0.0774   21.5291 N   0  0  0  0  0  4  0  0  0  0  0  0
    7.0463   -0.6489   21.2563 C   0  0  0  0  0  0  0  0  0  0  0  0
    6.4367    0.1119   20.0989 C   0  0  0  0  0  0  0  0  0  0  0  0
    5.2121    0.7904   20.1820 C   0  0  0  0  0  0  0  0  0  0  0  0
    4.7362    1.4637   19.0517 C   0  0  0  0  0  0  0  0  0  0  0  0
    5.4974    1.4327   17.8792 C   0  0  0  0  0  0  0  0  0  0  0  0
    6.6744    0.7990   17.7836 N   0  0  0  0  0  0  0  0  0  0  0  0
    7.1294    0.1801   18.8788 C   0  0  0  0  0  0  0  0  0  0  0  0
    8.1062   -0.2941   18.7632 H   0  0  0  0  0  0  0  0  0  0  0  0
    5.1503    1.9340   16.9771 H   0  0  0  0  0  0  0  0  0  0  0  0
    3.8062    2.0204   19.0664 H   0  0  0  0  0  0  0  0  0  0  0  0
    4.6431    0.8002   21.1142 H   0  0  0  0  0  0  0  0  0  0  0  0
    7.2932   -2.1429   20.9474 C   0  0  0  0  0  0  0  0  0  0  0  0
    6.0083   -2.9339   20.5909 C   0  0  0  0  0  0  0  0  0  0  0  0
    5.4212   -3.6317   21.8283 C   0  0  0  0  0  0  0  0  0  0  0  0
    6.3945   -4.7124   22.3729 C   0  0  0  0  0  0  0  0  0  0  0  0
    7.8759   -4.3970   22.0532 C   0  0  0  0  0  0  0  0  0  0  0  0
    8.1342   -2.8819   22.0362 C   0  0  0  0  0  0  0  0  0  0  0  0
    9.2080   -2.7066   21.8813 H   0  0  0  0  0  0  0  0  0  0  0  0
    7.8912   -2.4802   23.0333 H   0  0  0  0  0  0  0  0  0  0  0  0
    8.1338   -4.8127   21.0685 H   0  0  0  0  0  0  0  0  0  0  0  0
    8.5391   -4.8898   22.7738 H   0  0  0  0  0  0  0  0  0  0  0  0
    6.2617   -4.7960   23.4593 H   0  0  0  0  0  0  0  0  0  0  0  0
    6.1433   -5.6961   21.9549 H   0  0  0  0  0  0  0  0  0  0  0  0
    4.4447   -4.0771   21.6203 H   0  0  0  0  0  0  0  0  0  0  0  0
    5.2461   -2.8765   22.6065 H   0  0  0  0  0  0  0  0  0  0  0  0
    5.2980   -2.2698   20.0924 H   0  0  0  0  0  0  0  0  0  0  0  0
    6.2537   -3.7024   19.8440 H   0  0  0  0  0  0  0  0  0  0  0  0
    7.9089   -2.0753   20.0520 H   0  0  0  0  0  0  0  0  0  0  0  0
    6.4098   -0.5411   22.1418 H   0  0  0  0  0  0  0  0  0  0  0  0
    8.8378   -0.6256   22.3153 H   0  0  0  0  0  0  0  0  0  0  0  0
    8.9626   -0.3055   20.6615 H   0  0  0  0  0  0  0  0  0  0  0  0
   10.0305    1.9399   21.7820 C   0  0  0  0  0  0  0  0  0  0  0  0
   10.4443    2.4803   20.7768 O   0  0  0  0  0  0  0  0  0  0  0  0
   10.8481    1.6598   22.8477 N   0  0  0  0  0  0  0  0  0  0  0  0
   12.1715    2.1164   22.8740 C   0  0  0  0  0  0  0  0  0  0  0  0
   12.4431    3.4501   22.6641 C   0  0  0  0  0  0  0  0  0  0  0  0
   13.8634    3.6754   22.6449 C   0  0  0  0  0  0  0  0  0  0  0  0
   14.0441    3.8636   22.9266 C   0  0  0  0  0  0  0  0  0  0  0  0
   14.5183    1.9093   22.7381 N   0  0  0  0  0  0  0  0  0  0  0  0
   13.4116    1.2724   22.8578 C   0  0  0  0  0  0  0  0  0  0  0  0
   13.3757   -0.4550   22.8271 Cl  0  0  0  0  0  0  0  0  0  0  0  0
   14.4155    4.1941   23.9905 H   0  0  0  0  0  0  0  0  0  0  0  0
   14.8696    4.0080   22.1205 H   0  0  0  0  0  0  0  0  0  0  0  0
   11.8251    4.1459   22.1226 H   0  0  0  0  0  0  0  0  0  0  0  0
   10.4671    1.1832   23.6460 H   0  0  0  0  0  0  0  0  0  0  0  0
    8.1298    1.9756   21.0026 H   0  0  0  0  0  0  0  0  0  0  0  0
    8.0574    1.0806   23.9381 H   0  0  0  0  0  0  0  0  0  0  0  0
    6.7076    1.5622   22.8961 H   0  0  0  0  0  0  0  0  0  0  0  0
    7.8939    2.7778   23.4110 H   0  0  0  0  0  0  0  0  0  0  0  0
  1  2  1  0
  2  3  1  0
  3  4  1  0
  4  5  1  0
  5  6  2  0
  6  7  1  0
  7  8  2  0
  8  9  1  0
  9 10  2  0
 10 11  1  0
  8 12  1  0
  7 13  1  0
  6 14  1  0
  4 15  1  0
 15 16  1  0
 16 17  1  0
 17 18  1  0
 18 19  1  0
 19 20  1  0
 20 21  1  0
 20 22  1  0
 19 23  1  0
 19 24  1  0
 18 25  1  0
 18 26  1  0
 17 27  1  0
 17 28  1  0
 16 29  1  0
 16 30  1  0
 15 31  1  0
  4 32  1  0
  3 33  1  0
  3 34  1  0
  2 35  1  0
 35 36  2  0
 35 37  1  0
 37 38  1  0
 38 39  2  0
 39 40  1  0
 40 41  2  0
 41 42  1  0
 42 43  2  0
 43 44  1  0
 41 45  1  0
 40 46  1  0
 39 47  1  0
 37 48  1  0
  2 49  1  0
  1 50  1  0
  1 51  1  0
  1 52  1  0
 10  5  1  0
 20 15  1  0
 43 38  1  0
M  CHG  1   3   1
M  END
>  <plip>  (1) 
-0.06451612903225806

>  <filename>  (1) 
[H][c]1[n][c]([Cl])[c]([N]([H])[C](=[O])[C]([H])([C]([H])([H])[H])[N+]([H])([H])[C]([H])([c]2[c]([H])[n][c]([H])[c]([H])[c]2[H])[C]2([H])[C]([H])([H])[C]([H])([H])[C]([H])([H])[C]([H])([H])[C]2([H])[H])[c]([H])[c]1[H]

$$$$
