
     RDKit          3D

 48 51  0  0  0  0  0  0  0  0999 V2000
    4.9228    1.8256   16.9608 H   0  0  0  0  0  0  0  0  0  0  0  0
    5.3889    1.3113   17.8018 C   0  0  0  0  0  0  0  0  0  0  0  0
    6.5494    0.6897   17.5409 N   0  0  0  0  0  0  0  0  0  0  0  0
    7.1528    0.0555   18.5609 C   0  0  0  0  0  0  0  0  0  0  0  0
    8.1051   -0.4153   18.3134 H   0  0  0  0  0  0  0  0  0  0  0  0
    6.6370   -0.0137   19.8594 C   0  0  0  0  0  0  0  0  0  0  0  0
    7.4122   -0.6764   20.9734 C   0  0  2  0  0  0  0  0  0  0  0  0
    8.1289   -1.3864   20.5319 H   0  0  0  0  0  0  0  0  0  0  0  0
    6.5195   -1.4173   21.8072 O   0  0  0  0  0  0  0  0  0  0  0  0
    6.8436   -1.2020   23.1667 C   0  0  0  0  0  0  0  0  0  0  0  0
    7.5883   -1.9451   23.5010 H   0  0  0  0  0  0  0  0  0  0  0  0
    5.9657   -1.3299   23.8078 H   0  0  0  0  0  0  0  0  0  0  0  0
    7.3851    0.2298   23.2145 C   0  0  2  0  0  0  0  0  0  0  0  0
    6.5569    0.9403   23.3311 H   0  0  0  0  0  0  0  0  0  0  0  0
    8.1322    0.3503   21.8849 C   0  0  1  0  0  0  0  0  0  0  0  0
    8.1008    1.3609   21.4538 H   0  0  0  0  0  0  0  0  0  0  0  0
    9.5976    0.0219   22.2770 C   0  0  0  0  0  0  0  0  0  0  0  0
    9.9710   -0.9009   21.8129 H   0  0  0  0  0  0  0  0  0  0  0  0
   10.2877    0.8289   21.9966 H   0  0  0  0  0  0  0  0  0  0  0  0
    9.6215   -0.1546   23.6912 O   0  0  0  0  0  0  0  0  0  0  0  0
    8.4662    0.4635   24.2570 C   0  0  2  0  0  0  0  0  0  0  0  0
    8.6324    1.5476   24.3629 H   0  0  0  0  0  0  0  0  0  0  0  0
    8.1952   -0.1706   25.6291 C   0  0  0  0  0  0  0  0  0  0  0  0
    8.3079   -1.2522   25.4866 H   0  0  0  0  0  0  0  0  0  0  0  0
    9.0020    0.1405   26.3130 H   0  0  0  0  0  0  0  0  0  0  0  0
    6.8625    0.1335   26.1848 N   0  0  0  0  0  0  0  0  0  0  0  0
    6.2215   -0.9998   26.8402 C   0  0  0  0  0  0  0  0  0  0  0  0
    5.1963   -0.7277   27.1143 H   0  0  0  0  0  0  0  0  0  0  0  0
    6.7333   -1.3604   27.7530 H   0  0  0  0  0  0  0  0  0  0  0  0
    6.1522   -1.8389   26.1400 H   0  0  0  0  0  0  0  0  0  0  0  0
    6.8416    1.3417   27.0164 C   0  0  0  0  0  0  0  0  0  0  0  0
    5.8535    1.3897   27.4935 H   0  0  0  0  0  0  0  0  0  0  0  0
    7.5842    1.2734   27.8370 H   0  0  0  0  0  0  0  0  0  0  0  0
    7.0686    2.6242   26.2288 C   0  0  0  0  0  0  0  0  0  0  0  0
    6.1250    3.0597   25.2824 C   0  0  0  0  0  0  0  0  0  0  0  0
    5.2228    2.4691   25.1321 H   0  0  0  0  0  0  0  0  0  0  0  0
    6.3420    4.2267   24.5388 C   0  0  0  0  0  0  0  0  0  0  0  0
    5.5970    4.5489   23.8146 H   0  0  0  0  0  0  0  0  0  0  0  0
    7.5100    4.9752   24.7250 C   0  0  0  0  0  0  0  0  0  0  0  0
    7.6789    5.8801   24.1436 H   0  0  0  0  0  0  0  0  0  0  0  0
    8.4607    4.5496   25.6596 C   0  0  0  0  0  0  0  0  0  0  0  0
    9.3741    5.1172   25.8135 H   0  0  0  0  0  0  0  0  0  0  0  0
    8.2326    3.3829   26.3992 C   0  0  0  0  0  0  0  0  0  0  0  0
    8.9703    3.0337   27.1093 H   0  0  0  0  0  0  0  0  0  0  0  0
    5.4251    0.6436   20.1080 C   0  0  0  0  0  0  0  0  0  0  0  0
    4.9981    0.6178   21.1087 H   0  0  0  0  0  0  0  0  0  0  0  0
    4.7894    1.3175   19.0640 C   0  0  0  0  0  0  0  0  0  0  0  0
    3.8622    1.8542   19.2233 H   0  0  0  0  0  0  0  0  0  0  0  0
  1  2  1  0
  2  3  2  0
  3  4  1  0
  4  5  1  0
  4  6  2  0
  6  7  1  0
  7  8  1  6
  7  9  1  0
  9 10  1  0
 10 11  1  0
 10 12  1  0
 10 13  1  0
 13 14  1  6
 13 15  1  0
 15 16  1  6
 15 17  1  0
 17 18  1  0
 17 19  1  0
 17 20  1  0
 20 21  1  0
 21 22  1  1
 21 23  1  0
 23 24  1  0
 23 25  1  0
 23 26  1  0
 26 27  1  0
 27 28  1  0
 27 29  1  0
 27 30  1  0
 26 31  1  0
 31 32  1  0
 31 33  1  0
 31 34  1  0
 34 35  2  0
 35 36  1  0
 35 37  1  0
 37 38  1  0
 37 39  2  0
 39 40  1  0
 39 41  1  0
 41 42  1  0
 41 43  2  0
 43 44  1  0
  6 45  1  0
 45 46  1  0
 45 47  2  0
 47 48  1  0
 47  2  1  0
 15  7  1  0
 43 34  1  0
 21 13  1  0
M  END
>  <plip>  (1) 
-0.03571428571428571

>  <filename>  (1) 
[H][c]1[n][c]([H])[c]([C@]2([H])[O][C]([H])([H])[C@]3([H])[C@@]2([H])[C]([H])([H])[O][C@]3([H])[C]([H])([H])[N]([C]([H])([H])[H])[C]([H])([H])[c]2[c]([H])[c]([H])[c]([H])[c]([H])[c]2[H])[c]([H])[c]1[H]

$$$$
