
     RDKit          3D

 37 38  0  0  0  0  0  0  0  0999 V2000
    4.9588    1.7616   16.9971 H   0  0  0  0  0  0  0  0  0  0  0  0
    5.4242    1.3086   17.8704 C   0  0  0  0  0  0  0  0  0  0  0  0
    6.5985    0.6883   17.6660 N   0  0  0  0  0  0  0  0  0  0  0  0
    7.1752    0.1129   18.7287 C   0  0  0  0  0  0  0  0  0  0  0  0
    8.1088   -0.4183   18.5459 H   0  0  0  0  0  0  0  0  0  0  0  0
    6.6572    0.1375   20.0468 C   0  0  0  0  0  0  0  0  0  0  0  0
    7.3627   -0.5171   21.0916 N   0  0  0  0  0  0  0  0  0  0  0  0
    7.4286   -0.2789   22.4562 C   0  0  0  0  0  0  0  0  0  0  0  0
    7.0325    0.9432   22.9251 N   0  0  0  0  0  0  0  0  0  0  0  0
    7.1121    1.7567   22.3519 H   0  0  0  0  0  0  0  0  0  0  0  0
    7.0241    1.2011   24.2670 C   0  0  0  0  0  0  0  0  0  0  0  0
    7.0654    0.3879   25.1481 O   0  0  0  0  0  0  0  0  0  0  0  0
    6.9234    2.5365   24.4116 O   0  0  0  0  0  0  0  0  0  0  0  0
    6.7887    3.0861   25.7624 C   0  0  0  0  0  0  0  0  0  0  0  0
    8.0546    2.7904   26.5675 C   0  0  0  0  0  0  0  0  0  0  0  0
    8.1696    1.7153   26.7193 H   0  0  0  0  0  0  0  0  0  0  0  0
    8.9344    3.1701   26.0401 H   0  0  0  0  0  0  0  0  0  0  0  0
    7.9886    3.2831   27.5416 H   0  0  0  0  0  0  0  0  0  0  0  0
    5.5405    2.5148   26.4385 C   0  0  0  0  0  0  0  0  0  0  0  0
    4.6600    2.6917   25.8138 H   0  0  0  0  0  0  0  0  0  0  0  0
    5.3929    3.0055   27.4043 H   0  0  0  0  0  0  0  0  0  0  0  0
    5.6500    1.4405   26.5960 H   0  0  0  0  0  0  0  0  0  0  0  0
    6.6312    4.5894   25.5544 C   0  0  0  0  0  0  0  0  0  0  0  0
    7.5090    5.0100   25.0525 H   0  0  0  0  0  0  0  0  0  0  0  0
    6.5237    5.0809   26.5288 H   0  0  0  0  0  0  0  0  0  0  0  0
    5.7385    4.8100   24.9591 H   0  0  0  0  0  0  0  0  0  0  0  0
    7.9051   -1.2095   23.1716 N   0  0  0  0  0  0  0  0  0  0  0  0
    8.1402   -2.3556   22.3149 C   0  0  0  0  0  0  0  0  0  0  0  0
    7.4760   -3.1823   22.5999 H   0  0  0  0  0  0  0  0  0  0  0  0
    9.1670   -2.7151   22.4386 H   0  0  0  0  0  0  0  0  0  0  0  0
    7.8590   -1.8809   20.8786 C   0  0  0  0  0  0  0  0  0  0  0  0
    7.0969   -2.4828   20.3746 H   0  0  0  0  0  0  0  0  0  0  0  0
    8.7553   -1.8848   20.2502 H   0  0  0  0  0  0  0  0  0  0  0  0
    5.4134    0.7591   20.2311 C   0  0  0  0  0  0  0  0  0  0  0  0
    4.9318    0.7458   21.2109 H   0  0  0  0  0  0  0  0  0  0  0  0
    4.7980    1.3525   19.1208 C   0  0  0  0  0  0  0  0  0  0  0  0
    3.8392    1.8471   19.2143 H   0  0  0  0  0  0  0  0  0  0  0  0
  1  2  1  0
  2  3  2  0
  3  4  1  0
  4  5  1  0
  4  6  2  0
  6  7  1  0
  7  8  1  0
  8  9  1  0
  9 10  1  0
  9 11  1  0
 11 12  2  0
 11 13  1  0
 13 14  1  0
 14 15  1  0
 15 16  1  0
 15 17  1  0
 15 18  1  0
 14 19  1  0
 19 20  1  0
 19 21  1  0
 19 22  1  0
 14 23  1  0
 23 24  1  0
 23 25  1  0
 23 26  1  0
  8 27  2  0
 27 28  1  0
 28 29  1  0
 28 30  1  0
 28 31  1  0
 31 32  1  0
 31 33  1  0
  6 34  1  0
 34 35  1  0
 34 36  2  0
 36 37  1  0
 36  2  1  0
 31  7  1  0
M  END
>  <plip>  (1) 
-0.07142857142857142

>  <filename>  (1) 
[H][c]1[n][c]([H])[c]([N]2[C]([N]([H])[C](=[O])[O][C]([C]([H])([H])[H])([C]([H])([H])[H])[C]([H])([H])[H])=[N][C]([H])([H])[C]2([H])[H])[c]([H])[c]1[H]

$$$$
