
     RDKit          3D

 30 32  0  0  0  0  0  0  0  0999 V2000
    7.0195   -2.0852   21.1268 C   0  0  0  0  0  0  0  0  0  0  0  0
    7.1838   -0.5692   21.1547 C   0  0  0  0  0  0  0  0  0  0  0  0
    8.5861   -0.2429   21.1338 N   0  0  0  0  0  0  0  0  0  0  0  0
    9.1513    0.9319   21.5169 C   0  0  0  0  0  0  0  0  0  0  0  0
   10.4669    0.9281   21.5180 N   0  0  0  0  0  0  0  0  0  0  0  0
   11.0276    2.0978   21.9673 N   0  0  0  0  0  0  0  0  0  0  0  0
   12.3454    2.4096   22.1209 C   0  0  0  0  0  0  0  0  0  0  0  0
   12.4750    3.6171   22.6202 N   0  0  0  0  0  0  0  0  0  0  0  0
   11.2332    4.1423   22.8063 N   0  0  0  0  0  0  0  0  0  0  0  0
   10.3597    3.2275   22.4163 C   0  0  0  0  0  0  0  0  0  0  0  0
    8.9310    3.2066   22.3407 C   0  0  0  0  0  0  0  0  0  0  0  0
    8.3323    2.0639   21.9085 C   0  0  0  0  0  0  0  0  0  0  0  0
    7.2560    1.9546   21.8797 H   0  0  0  0  0  0  0  0  0  0  0  0
    8.3908    4.1034   22.6361 H   0  0  0  0  0  0  0  0  0  0  0  0
   13.1296    1.7043   21.8885 H   0  0  0  0  0  0  0  0  0  0  0  0
    9.2954   -0.9215   20.9277 H   0  0  0  0  0  0  0  0  0  0  0  0
    6.4977    0.1357   20.0069 C   0  0  0  0  0  0  0  0  0  0  0  0
    5.2666    0.7865   20.1343 C   0  0  0  0  0  0  0  0  0  0  0  0
    4.6979    1.3775   19.0041 C   0  0  0  0  0  0  0  0  0  0  0  0
    5.3955    1.3166   17.7941 C   0  0  0  0  0  0  0  0  0  0  0  0
    6.5824    0.7091   17.6567 N   0  0  0  0  0  0  0  0  0  0  0  0
    7.1118    0.1434   18.7455 C   0  0  0  0  0  0  0  0  0  0  0  0
    8.0838   -0.3290   18.6045 H   0  0  0  0  0  0  0  0  0  0  0  0
    4.9847    1.7673   16.8937 H   0  0  0  0  0  0  0  0  0  0  0  0
    3.7463    1.8935   19.0513 H   0  0  0  0  0  0  0  0  0  0  0  0
    4.7693    0.8340   21.1051 H   0  0  0  0  0  0  0  0  0  0  0  0
    6.7413   -0.2076   22.0972 H   0  0  0  0  0  0  0  0  0  0  0  0
    7.1665   -2.4915   20.1252 H   0  0  0  0  0  0  0  0  0  0  0  0
    7.7427   -2.5445   21.8052 H   0  0  0  0  0  0  0  0  0  0  0  0
    6.0271   -2.3936   21.4661 H   0  0  0  0  0  0  0  0  0  0  0  0
  1  2  1  0
  2  3  1  0
  3  4  1  0
  4  5  2  0
  5  6  1  0
  6  7  1  0
  7  8  2  0
  8  9  1  0
  9 10  2  0
 10 11  1  0
 11 12  2  0
 12 13  1  0
 11 14  1  0
  7 15  1  0
  3 16  1  0
  2 17  1  0
 17 18  2  0
 18 19  1  0
 19 20  2  0
 20 21  1  0
 21 22  2  0
 22 23  1  0
 20 24  1  0
 19 25  1  0
 18 26  1  0
  2 27  1  0
  1 28  1  0
  1 29  1  0
  1 30  1  0
 12  4  1  0
 22 17  1  0
 10  6  1  0
M  END
>  <plip>  (1) 
-0.06896551724137931

>  <filename>  (1) 
[H][c]1[n][c]([H])[c]([C]([H])([N]([H])[c]2[n][n]3[c]([H])[n][n][c]3[c]([H])[c]2[H])[C]([H])([H])[H])[c]([H])[c]1[H]

$$$$
