
     RDKit          3D

 44 46  0  0  0  0  0  0  0  0999 V2000
    7.7966    1.0215   24.6501 O   0  0  0  0  0  0  0  0  0  0  0  0
    7.8260   -0.0304   24.0585 C   0  0  0  0  0  0  0  0  0  0  0  0
    8.7617   -0.2948   22.8609 C   0  0  0  0  0  0  0  0  0  0  0  0
    8.2507    0.1972   21.6302 O   0  0  0  0  0  0  0  0  0  0  0  0
    7.3919   -0.7277   20.9713 C   0  0  0  0  0  0  0  0  0  0  0  0
    6.6429   -0.0027   19.8906 C   0  0  0  0  0  0  0  0  0  0  0  0
    5.4343    0.6579   20.1423 C   0  0  0  0  0  0  0  0  0  0  0  0
    4.7970    1.3199   19.0910 C   0  0  0  0  0  0  0  0  0  0  0  0
    5.3929    1.3032   17.8258 C   0  0  0  0  0  0  0  0  0  0  0  0
    6.5583    0.6881   17.5732 N   0  0  0  0  0  0  0  0  0  0  0  0
    7.1629    0.0683   18.5937 C   0  0  0  0  0  0  0  0  0  0  0  0
    8.1152   -0.4092   18.3569 H   0  0  0  0  0  0  0  0  0  0  0  0
    4.9248    1.8017   16.9765 H   0  0  0  0  0  0  0  0  0  0  0  0
    3.8641    1.8533   19.2323 H   0  0  0  0  0  0  0  0  0  0  0  0
    5.0040    0.6546   21.1465 H   0  0  0  0  0  0  0  0  0  0  0  0
    6.6892   -1.1686   21.6931 H   0  0  0  0  0  0  0  0  0  0  0  0
    7.9968   -1.5498   20.5547 H   0  0  0  0  0  0  0  0  0  0  0  0
    8.9955   -1.3674   22.8110 H   0  0  0  0  0  0  0  0  0  0  0  0
    9.6852    0.2603   23.0467 H   0  0  0  0  0  0  0  0  0  0  0  0
    7.0688   -1.1032   24.3794 O   0  0  0  0  0  0  0  0  0  0  0  0
    6.1333   -0.9259   25.4751 C   0  0  0  0  0  0  0  0  0  0  0  0
    5.3703   -2.2321   25.6607 C   0  0  0  0  0  0  0  0  0  0  0  0
    4.3415   -2.1591   26.8015 C   0  0  0  0  0  0  0  0  0  0  0  0
    3.6272   -3.4179   26.9458 N   0  0  0  0  0  0  0  0  0  0  0  0
    4.1390   -4.5072   27.6404 C   0  0  0  0  0  0  0  0  0  0  0  0
    5.1067   -4.4440   28.3616 O   0  0  0  0  0  0  0  0  0  0  0  0
    3.2732   -5.6812   27.2858 C   0  0  0  0  0  0  0  0  0  0  0  0
    3.3244   -7.0216   27.6815 C   0  0  0  0  0  0  0  0  0  0  0  0
    2.3624   -7.8878   27.1485 C   0  0  0  0  0  0  0  0  0  0  0  0
    1.4068   -7.4355   26.2194 C   0  0  0  0  0  0  0  0  0  0  0  0
    1.3598   -6.0952   25.8266 C   0  0  0  0  0  0  0  0  0  0  0  0
    2.3043   -5.2286   26.3826 C   0  0  0  0  0  0  0  0  0  0  0  0
    2.5440   -3.7697   26.1534 C   0  0  0  0  0  0  0  0  0  0  0  0
    1.9601   -3.0000   25.4264 O   0  0  0  0  0  0  0  0  0  0  0  0
    0.6069   -5.7496   25.1198 H   0  0  0  0  0  0  0  0  0  0  0  0
    0.7015   -8.1564   25.8153 H   0  0  0  0  0  0  0  0  0  0  0  0
    2.3033   -8.9249   27.4563 H   0  0  0  0  0  0  0  0  0  0  0  0
    4.0844   -7.3811   28.3743 H   0  0  0  0  0  0  0  0  0  0  0  0
    4.8195   -1.9569   27.7698 H   0  0  0  0  0  0  0  0  0  0  0  0
    3.5820   -1.3870   26.6164 H   0  0  0  0  0  0  0  0  0  0  0  0
    4.8557   -2.4839   24.7231 H   0  0  0  0  0  0  0  0  0  0  0  0
    6.0855   -3.0401   25.8674 H   0  0  0  0  0  0  0  0  0  0  0  0
    5.4692   -0.0875   25.2228 H   0  0  0  0  0  0  0  0  0  0  0  0
    6.7018   -0.6430   26.3719 H   0  0  0  0  0  0  0  0  0  0  0  0
  1  2  2  0
  2  3  1  0
  3  4  1  0
  4  5  1  0
  5  6  1  0
  6  7  2  0
  7  8  1  0
  8  9  2  0
  9 10  1  0
 10 11  2  0
 11 12  1  0
  9 13  1  0
  8 14  1  0
  7 15  1  0
  5 16  1  0
  5 17  1  0
  3 18  1  0
  3 19  1  0
  2 20  1  0
 20 21  1  0
 21 22  1  0
 22 23  1  0
 23 24  1  0
 24 25  1  0
 25 26  2  0
 25 27  1  0
 27 28  2  0
 28 29  1  0
 29 30  2  0
 30 31  1  0
 31 32  2  0
 32 33  1  0
 33 34  2  0
 31 35  1  0
 30 36  1  0
 29 37  1  0
 28 38  1  0
 23 39  1  0
 23 40  1  0
 22 41  1  0
 22 42  1  0
 21 43  1  0
 21 44  1  0
 11  6  1  0
 33 24  1  0
 32 27  1  0
M  END
>  <plip>  (1) 
-0.03571428571428571

>  <filename>  (1) 
[H][c]1[n][c]([H])[c]([C]([H])([H])[O][C]([H])([H])[C](=[O])[O][C]([H])([H])[C]([H])([H])[C]([H])([H])[N]2[C](=[O])[c]3[c]([H])[c]([H])[c]([H])[c]([H])[c]3[C]2=[O])[c]([H])[c]1[H]

$$$$
