
     RDKit          3D

 43 44  0  0  0  0  0  0  0  0999 V2000
    7.5915    1.4593   22.4855 C   0  0  0  0  0  0  0  0  0  0  0  0
    8.3331    0.2639   21.8715 C   0  0  0  0  0  0  0  0  0  0  0  0
    9.5465    0.7249   21.0695 C   0  0  0  0  0  0  0  0  0  0  0  0
   10.2019    1.3875   21.6444 H   0  0  0  0  0  0  0  0  0  0  0  0
    9.1892    1.2709   20.1973 H   0  0  0  0  0  0  0  0  0  0  0  0
   10.1498   -0.1205   20.7190 H   0  0  0  0  0  0  0  0  0  0  0  0
    7.4527   -0.6500   20.9626 C   0  0  0  0  0  0  0  0  0  0  0  0
    6.4985   -1.4687   21.7408 N   0  0  0  0  0  4  0  0  0  0  0  0
    7.0864   -2.5983   22.4456 C   0  0  0  0  0  0  0  0  0  0  0  0
    6.0603   -3.3227   23.3072 C   0  0  0  0  0  0  0  0  0  0  0  0
    6.7920   -4.4632   23.9874 C   0  0  0  0  0  0  0  0  0  0  0  0
    7.2353   -4.3361   25.3041 C   0  0  0  0  0  0  0  0  0  0  0  0
    8.1997   -5.1947   25.8365 C   0  0  0  0  0  0  0  0  0  0  0  0
    8.7990   -6.1633   25.0235 C   0  0  0  0  0  0  0  0  0  0  0  0
    8.3331   -6.3460   23.7192 C   0  0  0  0  0  0  0  0  0  0  0  0
    7.2824   -5.5567   23.2305 C   0  0  0  0  0  0  0  0  0  0  0  0
    6.6774   -5.8339   21.9461 C   0  0  0  0  0  0  0  0  0  0  0  0
    6.1178   -5.9831   20.9446 N   0  0  0  0  0  0  0  0  0  0  0  0
    8.7552   -7.1153   23.0783 H   0  0  0  0  0  0  0  0  0  0  0  0
    9.6099   -6.7940   25.3982 H   0  0  0  0  0  0  0  0  0  0  0  0
    8.4900   -5.0861   26.8790 H   0  0  0  0  0  0  0  0  0  0  0  0
    6.8319   -3.5264   25.9103 H   0  0  0  0  0  0  0  0  0  0  0  0
    5.6505   -2.6229   24.0465 H   0  0  0  0  0  0  0  0  0  0  0  0
    5.2376   -3.6803   22.6826 H   0  0  0  0  0  0  0  0  0  0  0  0
    7.5299   -3.3034   21.7300 H   0  0  0  0  0  0  0  0  0  0  0  0
    7.9191   -2.2729   23.0882 H   0  0  0  0  0  0  0  0  0  0  0  0
    6.0384   -0.8160   22.4273 H   0  0  0  0  0  0  0  0  0  0  0  0
    5.7548   -1.7645   21.0662 H   0  0  0  0  0  0  0  0  0  0  0  0
    6.6295    0.0252   19.8979 C   0  0  0  0  0  0  0  0  0  0  0  0
    5.3961    0.6504   20.1302 C   0  0  0  0  0  0  0  0  0  0  0  0
    4.7725    1.3140   19.0713 C   0  0  0  0  0  0  0  0  0  0  0  0
    5.3807    1.3005   17.8128 C   0  0  0  0  0  0  0  0  0  0  0  0
    6.5267    0.6544   17.5585 N   0  0  0  0  0  0  0  0  0  0  0  0
    7.1182    0.0349   18.5848 C   0  0  0  0  0  0  0  0  0  0  0  0
    8.0409   -0.4998   18.3494 H   0  0  0  0  0  0  0  0  0  0  0  0
    4.9278    1.8283   16.9754 H   0  0  0  0  0  0  0  0  0  0  0  0
    3.8326    1.8369   19.2016 H   0  0  0  0  0  0  0  0  0  0  0  0
    4.9365    0.6376   21.1224 H   0  0  0  0  0  0  0  0  0  0  0  0
    8.1558   -1.3281   20.4576 H   0  0  0  0  0  0  0  0  0  0  0  0
    8.6839   -0.3761   22.6955 H   0  0  0  0  0  0  0  0  0  0  0  0
    7.1747    2.0972   21.6976 H   0  0  0  0  0  0  0  0  0  0  0  0
    8.2749    2.0711   23.0865 H   0  0  0  0  0  0  0  0  0  0  0  0
    6.7649    1.1632   23.1432 H   0  0  0  0  0  0  0  0  0  0  0  0
  1  2  1  0
  2  3  1  0
  3  4  1  0
  3  5  1  0
  3  6  1  0
  2  7  1  0
  7  8  1  0
  8  9  1  0
  9 10  1  0
 10 11  1  0
 11 12  2  0
 12 13  1  0
 13 14  2  0
 14 15  1  0
 15 16  2  0
 16 17  1  0
 17 18  3  0
 15 19  1  0
 14 20  1  0
 13 21  1  0
 12 22  1  0
 10 23  1  0
 10 24  1  0
  9 25  1  0
  9 26  1  0
  8 27  1  0
  8 28  1  0
  7 29  1  0
 29 30  2  0
 30 31  1  0
 31 32  2  0
 32 33  1  0
 33 34  2  0
 34 35  1  0
 32 36  1  0
 31 37  1  0
 30 38  1  0
  7 39  1  0
  2 40  1  0
  1 41  1  0
  1 42  1  0
  1 43  1  0
 16 11  1  0
 34 29  1  0
M  CHG  1   8   1
M  END
>  <plip>  (1) 
-0.10714285714285714

>  <filename>  (1) 
[H][c]1[n][c]([H])[c]([C]([H])([C]([H])([C]([H])([H])[H])[C]([H])([H])[H])[N+]([H])([H])[C]([H])([H])[C]([H])([H])[c]2[c]([H])[c]([H])[c]([H])[c]([H])[c]2[C]#[N])[c]([H])[c]1[H]

$$$$
