
     RDKit          3D

 34 37  0  0  0  0  0  0  0  0999 V2000
    4.9100    1.8084   16.9734 H   0  0  0  0  0  0  0  0  0  0  0  0
    5.3832    1.3078   17.8161 C   0  0  0  0  0  0  0  0  0  0  0  0
    6.5465    0.6912   17.5504 N   0  0  0  0  0  0  0  0  0  0  0  0
    7.1574    0.0661   18.5628 C   0  0  0  0  0  0  0  0  0  0  0  0
    8.1146   -0.3969   18.3230 H   0  0  0  0  0  0  0  0  0  0  0  0
    6.6553    0.0104   19.8790 C   0  0  0  0  0  0  0  0  0  0  0  0
    7.3813   -0.6670   20.9647 C   0  0  0  0  0  0  0  0  0  0  0  0
    7.5245   -0.3398   22.3059 C   0  0  0  0  0  0  0  0  0  0  0  0
    7.0323    0.8087   22.9125 N   0  0  0  0  0  0  0  0  0  0  0  0
    6.9658    1.6335   22.3389 H   0  0  0  0  0  0  0  0  0  0  0  0
    6.7514    0.9520   24.2596 C   0  0  0  0  0  0  0  0  0  0  0  0
    6.4544   -0.0378   25.1501 C   0  0  0  0  0  0  0  0  0  0  0  0
    6.3921   -1.1000   24.9449 H   0  0  0  0  0  0  0  0  0  0  0  0
    6.1963    0.5255   26.3843 N   0  0  0  0  0  0  0  0  0  0  0  0
    5.9261    0.0313   27.2158 H   0  0  0  0  0  0  0  0  0  0  0  0
    6.3085    1.8919   26.2885 C   0  0  0  0  0  0  0  0  0  0  0  0
    6.1179    2.8833   27.2686 C   0  0  0  0  0  0  0  0  0  0  0  0
    5.8346    2.6155   28.2815 H   0  0  0  0  0  0  0  0  0  0  0  0
    6.2988    4.2089   26.8883 C   0  0  0  0  0  0  0  0  0  0  0  0
    6.1533    5.0023   27.6190 H   0  0  0  0  0  0  0  0  0  0  0  0
    6.6663    4.5486   25.5648 C   0  0  0  0  0  0  0  0  0  0  0  0
    6.7988    5.5928   25.2929 H   0  0  0  0  0  0  0  0  0  0  0  0
    6.8524    3.5633   24.5978 C   0  0  0  0  0  0  0  0  0  0  0  0
    7.1419    3.8355   23.5819 H   0  0  0  0  0  0  0  0  0  0  0  0
    6.6648    2.2130   24.9540 C   0  0  0  0  0  0  0  0  0  0  0  0
    8.3023   -1.3857   22.8614 C   0  0  0  0  0  0  0  0  0  0  0  0
    8.6422   -1.4684   23.8887 H   0  0  0  0  0  0  0  0  0  0  0  0
    8.6145   -2.2990   21.9463 N   0  0  0  0  0  0  0  0  0  0  0  0
    8.0565   -1.8390   20.8153 N   0  0  0  0  0  0  0  0  0  0  0  0
    8.1313   -2.3833   19.9646 H   0  0  0  0  0  0  0  0  0  0  0  0
    5.4349    0.6591   20.1330 C   0  0  0  0  0  0  0  0  0  0  0  0
    5.0190    0.6299   21.1398 H   0  0  0  0  0  0  0  0  0  0  0  0
    4.7918    1.3185   19.0843 C   0  0  0  0  0  0  0  0  0  0  0  0
    3.8615    1.8504   19.2379 H   0  0  0  0  0  0  0  0  0  0  0  0
  1  2  1  0
  2  3  2  0
  3  4  1  0
  4  5  1  0
  4  6  2  0
  6  7  1  0
  7  8  2  0
  8  9  1  0
  9 10  1  0
  9 11  1  0
 11 12  2  0
 12 13  1  0
 12 14  1  0
 14 15  1  0
 14 16  1  0
 16 17  2  0
 17 18  1  0
 17 19  1  0
 19 20  1  0
 19 21  2  0
 21 22  1  0
 21 23  1  0
 23 24  1  0
 23 25  2  0
  8 26  1  0
 26 27  1  0
 26 28  2  0
 28 29  1  0
 29 30  1  0
  6 31  1  0
 31 32  1  0
 31 33  2  0
 33 34  1  0
 33  2  1  0
 29  7  1  0
 25 11  1  0
 25 16  1  0
M  END
>  <plip>  (1) 
-0.0

>  <filename>  (1) 
[H][c]1[n][c]([H])[c](-[c]2[c]([N]([H])[c]3[c]([H])[n]([H])[c]4[c]([H])[c]([H])[c]([H])[c]([H])[c]34)[c]([H])[n][n]2[H])[c]([H])[c]1[H]

$$$$
