
     RDKit          3D

 45 46  0  0  0  0  0  0  0  0999 V2000
    3.3636   -2.4237   28.3745 C   0  0  0  0  0  0  0  0  0  0  0  0
    4.9659   -2.0456   29.1235 S   0  0  0  0  0  0  0  0  0  0  0  0
    6.0045   -1.6956   27.7104 C   0  0  0  0  0  0  0  0  0  0  0  0
    6.6721   -2.7285   27.0373 C   0  0  0  0  0  0  0  0  0  0  0  0
    7.5503   -2.4560   25.9810 C   0  0  0  0  0  0  0  0  0  0  0  0
    7.7733   -1.1302   25.5897 C   0  0  0  0  0  0  0  0  0  0  0  0
    8.6175   -0.7522   24.5851 O   0  0  0  0  0  0  0  0  0  0  0  0
    8.9266   -1.6640   23.5346 C   0  0  0  0  0  0  0  0  0  0  0  0
    9.4507   -0.8798   22.3393 C   0  0  0  0  0  0  0  0  0  0  0  0
    8.4430   -0.0760   21.5386 N   0  0  0  0  0  4  0  0  0  0  0  0
    8.0022    1.2012   22.2821 C   0  0  0  0  0  0  0  0  0  0  0  0
    8.2483    2.4440   21.4206 C   0  0  0  0  0  0  0  0  0  0  0  0
    9.6277    2.4556   21.0658 O   0  0  0  0  0  0  0  0  0  0  0  0
    9.9016    3.3630   20.8546 H   0  0  0  0  0  0  0  0  0  0  0  0
    7.6297    2.3873   20.5109 H   0  0  0  0  0  0  0  0  0  0  0  0
    7.9645    3.3381   21.9906 H   0  0  0  0  0  0  0  0  0  0  0  0
    8.5907    1.2750   23.1969 H   0  0  0  0  0  0  0  0  0  0  0  0
    6.9466    1.1092   22.5616 H   0  0  0  0  0  0  0  0  0  0  0  0
    7.2733   -0.8596   20.9850 C   0  0  0  0  0  0  0  0  0  0  0  0
    6.6057   -0.0694   19.8891 C   0  0  0  0  0  0  0  0  0  0  0  0
    5.4008    0.6220   20.0866 C   0  0  0  0  0  0  0  0  0  0  0  0
    4.8544    1.3356   19.0143 C   0  0  0  0  0  0  0  0  0  0  0  0
    5.5293    1.3439   17.7913 C   0  0  0  0  0  0  0  0  0  0  0  0
    6.6982    0.7167   17.5947 N   0  0  0  0  0  0  0  0  0  0  0  0
    7.2199    0.0496   18.6325 C   0  0  0  0  0  0  0  0  0  0  0  0
    8.1811   -0.4321   18.4411 H   0  0  0  0  0  0  0  0  0  0  0  0
    5.1185    1.8766   16.9314 H   0  0  0  0  0  0  0  0  0  0  0  0
    3.9257    1.8847   19.1124 H   0  0  0  0  0  0  0  0  0  0  0  0
    4.9048    0.6090   21.0602 H   0  0  0  0  0  0  0  0  0  0  0  0
    6.5610   -1.0667   21.7961 H   0  0  0  0  0  0  0  0  0  0  0  0
    7.6340   -1.8245   20.6072 H   0  0  0  0  0  0  0  0  0  0  0  0
    8.9447    0.3370   20.7147 H   0  0  0  0  0  0  0  0  0  0  0  0
    9.9614   -1.5837   21.6746 H   0  0  0  0  0  0  0  0  0  0  0  0
   10.2045   -0.1863   22.7226 H   0  0  0  0  0  0  0  0  0  0  0  0
    8.0564   -2.2696   23.2508 H   0  0  0  0  0  0  0  0  0  0  0  0
    9.7234   -2.3440   23.8613 H   0  0  0  0  0  0  0  0  0  0  0  0
    7.1333   -0.0864   26.2754 C   0  0  0  0  0  0  0  0  0  0  0  0
    6.2552   -0.3663   27.3225 C   0  0  0  0  0  0  0  0  0  0  0  0
    5.7599    0.4405   27.8580 H   0  0  0  0  0  0  0  0  0  0  0  0
    7.3453    0.9323   25.9665 H   0  0  0  0  0  0  0  0  0  0  0  0
    8.0686   -3.2571   25.4628 H   0  0  0  0  0  0  0  0  0  0  0  0
    6.5043   -3.7577   27.3497 H   0  0  0  0  0  0  0  0  0  0  0  0
    3.4318   -3.2653   27.6821 H   0  0  0  0  0  0  0  0  0  0  0  0
    2.7077   -2.7037   29.2050 H   0  0  0  0  0  0  0  0  0  0  0  0
    2.9428   -1.5524   27.8706 H   0  0  0  0  0  0  0  0  0  0  0  0
  1  2  1  0
  2  3  1  0
  3  4  2  0
  4  5  1  0
  5  6  2  0
  6  7  1  0
  7  8  1  0
  8  9  1  0
  9 10  1  0
 10 11  1  0
 11 12  1  0
 12 13  1  0
 13 14  1  0
 12 15  1  0
 12 16  1  0
 11 17  1  0
 11 18  1  0
 10 19  1  0
 19 20  1  0
 20 21  2  0
 21 22  1  0
 22 23  2  0
 23 24  1  0
 24 25  2  0
 25 26  1  0
 23 27  1  0
 22 28  1  0
 21 29  1  0
 19 30  1  0
 19 31  1  0
 10 32  1  0
  9 33  1  0
  9 34  1  0
  8 35  1  0
  8 36  1  0
  6 37  1  0
 37 38  2  0
 38 39  1  0
 37 40  1  0
  5 41  1  0
  4 42  1  0
  1 43  1  0
  1 44  1  0
  1 45  1  0
 38  3  1  0
 25 20  1  0
M  CHG  1  10   1
M  END
>  <plip>  (1) 
-0.10714285714285714

>  <filename>  (1) 
[H][O][C]([H])([H])[C]([H])([H])[N+]([H])([C]([H])([H])[c]1[c]([H])[n][c]([H])[c]([H])[c]1[H])[C]([H])([H])[C]([H])([H])[O][c]1[c]([H])[c]([H])[c]([S][C]([H])([H])[H])[c]([H])[c]1[H]

$$$$
