
     RDKit          3D

 41 43  0  0  0  0  0  0  0  0999 V2000
    7.3781   -2.7179   22.6748 C   0  0  0  0  0  0  0  0  0  0  0  0
    6.6030   -1.9397   21.5995 C   0  0  0  0  0  0  0  0  0  0  0  0
    6.0788   -2.9241   20.5475 C   0  0  0  0  0  0  0  0  0  0  0  0
    6.8497   -3.6422   20.2453 H   0  0  0  0  0  0  0  0  0  0  0  0
    5.7040   -2.4159   19.6535 H   0  0  0  0  0  0  0  0  0  0  0  0
    5.2579   -3.5074   20.9709 H   0  0  0  0  0  0  0  0  0  0  0  0
    7.3825   -0.7332   21.0103 C   0  0  0  0  0  0  0  0  0  0  0  0
    7.7599    0.1694   22.0831 N   0  0  0  0  0  0  0  0  0  0  0  0
    8.7112    1.1354   21.9815 C   0  0  0  0  0  0  0  0  0  0  0  0
    9.4381    1.2545   21.0021 O   0  0  0  0  0  0  0  0  0  0  0  0
    8.8054    2.0192   23.1893 C   0  0  0  0  0  0  0  0  0  0  0  0
    9.7165    3.0531   23.2575 C   0  0  0  0  0  0  0  0  0  0  0  0
    9.5791    3.7126   24.4390 N   0  0  0  0  0  0  0  0  0  0  0  0
   10.2724    4.8229   24.8946 C   0  0  0  0  0  0  0  0  0  0  0  0
    9.9273    5.3884   26.0899 C   0  0  0  0  0  0  0  0  0  0  0  0
    8.8608    4.8122   26.8656 C   0  0  0  0  0  0  0  0  0  0  0  0
    8.2076    3.6809   26.4331 C   0  0  0  0  0  0  0  0  0  0  0  0
    8.5464    3.1000   25.1773 C   0  0  0  0  0  0  0  0  0  0  0  0
    8.0739    2.0434   24.4146 C   0  0  0  0  0  0  0  0  0  0  0  0
    7.2994    1.3734   24.7714 H   0  0  0  0  0  0  0  0  0  0  0  0
    7.4300    3.2075   27.0209 H   0  0  0  0  0  0  0  0  0  0  0  0
    8.5778    5.2790   27.8052 H   0  0  0  0  0  0  0  0  0  0  0  0
   10.4757    6.2545   26.4481 H   0  0  0  0  0  0  0  0  0  0  0  0
   11.0781    5.1537   24.2494 H   0  0  0  0  0  0  0  0  0  0  0  0
   10.4504    3.3719   22.5319 H   0  0  0  0  0  0  0  0  0  0  0  0
    7.0984    0.3028   22.8247 H   0  0  0  0  0  0  0  0  0  0  0  0
    6.6205    0.0270   19.9221 C   0  0  0  0  0  0  0  0  0  0  0  0
    5.3978    0.6909   20.1289 C   0  0  0  0  0  0  0  0  0  0  0  0
    4.7915    1.3317   19.0435 C   0  0  0  0  0  0  0  0  0  0  0  0
    5.4245    1.3031   17.7957 C   0  0  0  0  0  0  0  0  0  0  0  0
    6.5977    0.6927   17.5791 N   0  0  0  0  0  0  0  0  0  0  0  0
    7.1672    0.0903   18.6342 C   0  0  0  0  0  0  0  0  0  0  0  0
    8.1236   -0.3971   18.4432 H   0  0  0  0  0  0  0  0  0  0  0  0
    4.9752    1.7971   16.9346 H   0  0  0  0  0  0  0  0  0  0  0  0
    3.8540    1.8682   19.1485 H   0  0  0  0  0  0  0  0  0  0  0  0
    4.9194    0.7250   21.1132 H   0  0  0  0  0  0  0  0  0  0  0  0
    8.3105   -1.1063   20.5643 H   0  0  0  0  0  0  0  0  0  0  0  0
    5.7227   -1.4989   22.0657 H   0  0  0  0  0  0  0  0  0  0  0  0
    8.3376   -3.0788   22.2914 H   0  0  0  0  0  0  0  0  0  0  0  0
    7.5855   -2.1293   23.5722 H   0  0  0  0  0  0  0  0  0  0  0  0
    6.8032   -3.5970   22.9840 H   0  0  0  0  0  0  0  0  0  0  0  0
  1  2  1  0
  2  3  1  0
  3  4  1  0
  3  5  1  0
  3  6  1  0
  2  7  1  0
  7  8  1  0
  8  9  1  0
  9 10  2  0
  9 11  1  0
 11 12  2  0
 12 13  1  0
 13 14  1  0
 14 15  2  0
 15 16  1  0
 16 17  2  0
 17 18  1  0
 18 19  2  0
 19 20  1  0
 17 21  1  0
 16 22  1  0
 15 23  1  0
 14 24  1  0
 12 25  1  0
  8 26  1  0
  7 27  1  0
 27 28  2  0
 28 29  1  0
 29 30  2  0
 30 31  1  0
 31 32  2  0
 32 33  1  0
 30 34  1  0
 29 35  1  0
 28 36  1  0
  7 37  1  0
  2 38  1  0
  1 39  1  0
  1 40  1  0
  1 41  1  0
 19 11  1  0
 32 27  1  0
 18 13  1  0
M  END
>  <plip>  (1) 
-0.14285714285714285

>  <filename>  (1) 
[H][c]1[n][c]([H])[c]([C]([H])([N]([H])[C](=[O])[c]2[c]([H])[c]3[c]([H])[c]([H])[c]([H])[c]([H])[n]3[c]2[H])[C]([H])([C]([H])([H])[H])[C]([H])([H])[H])[c]([H])[c]1[H]

$$$$
