
     RDKit          3D

 44 47  0  0  0  0  0  0  0  0999 V2000
    4.7998    1.3157   19.0914 C   0  0  0  0  0  0  0  0  0  0  0  0
    5.4023    1.3022   17.8306 C   0  0  0  0  0  0  0  0  0  0  0  0
    6.5732    0.6959   17.5848 N   0  0  0  0  0  0  0  0  0  0  0  0
    7.1792    0.0778   18.6040 C   0  0  0  0  0  0  0  0  0  0  0  0
    6.6457   -0.0006   19.8955 C   0  0  0  0  0  0  0  0  0  0  0  0
    7.3773   -0.7495   20.9694 C   0  0  0  0  0  0  0  0  0  0  0  0
    8.5577    0.0301   21.4541 N   0  0  0  0  0  4  0  0  0  0  0  0
    9.4381   -0.8068   22.3557 C   0  0  0  0  0  0  0  0  0  0  0  0
   10.6686   -0.0323   22.8189 C   0  0  0  0  0  0  0  0  0  0  0  0
   10.2863    1.2672   23.5414 C   0  0  0  0  0  0  0  0  0  0  0  0
    9.3721    2.1377   22.6448 C   0  0  0  0  0  0  0  0  0  0  0  0
    8.9517    3.4152   23.3236 C   0  0  0  0  0  0  0  0  0  0  0  0
    9.2535    4.6866   22.9358 C   0  0  0  0  0  0  0  0  0  0  0  0
    8.6934    5.6040   23.7918 N   0  0  0  0  0  0  0  0  0  0  0  0
    8.0203    4.9394   24.7811 C   0  0  0  0  0  0  0  0  0  0  0  0
    7.3079    5.4455   25.8842 C   0  0  0  0  0  0  0  0  0  0  0  0
    6.7249    4.5303   26.7492 C   0  0  0  0  0  0  0  0  0  0  0  0
    6.8477    3.1354   26.5236 C   0  0  0  0  0  0  0  0  0  0  0  0
    7.5530    2.6471   25.4318 C   0  0  0  0  0  0  0  0  0  0  0  0
    8.1585    3.5511   24.5309 C   0  0  0  0  0  0  0  0  0  0  0  0
    7.6455    1.5754   25.2646 H   0  0  0  0  0  0  0  0  0  0  0  0
    6.3836    2.4341   27.2114 H   0  0  0  0  0  0  0  0  0  0  0  0
    6.1620    4.8815   27.6123 H   0  0  0  0  0  0  0  0  0  0  0  0
    7.2202    6.5172   26.0434 H   0  0  0  0  0  0  0  0  0  0  0  0
    8.7514    6.6014   23.6885 H   0  0  0  0  0  0  0  0  0  0  0  0
    9.8732    5.0488   22.1348 H   0  0  0  0  0  0  0  0  0  0  0  0
    8.1441    1.3371   22.1760 C   0  0  0  0  0  0  0  0  0  0  0  0
    7.5131    1.0997   23.0425 H   0  0  0  0  0  0  0  0  0  0  0  0
    7.5445    1.9397   21.4901 H   0  0  0  0  0  0  0  0  0  0  0  0
    9.9412    2.3782   21.7311 H   0  0  0  0  0  0  0  0  0  0  0  0
   11.1757    1.8429   23.8283 H   0  0  0  0  0  0  0  0  0  0  0  0
    9.7533    1.0492   24.4793 H   0  0  0  0  0  0  0  0  0  0  0  0
   11.2670   -0.6792   23.4703 H   0  0  0  0  0  0  0  0  0  0  0  0
   11.2798    0.1994   21.9348 H   0  0  0  0  0  0  0  0  0  0  0  0
    8.8405   -1.1051   23.2314 H   0  0  0  0  0  0  0  0  0  0  0  0
    9.7297   -1.7273   21.8350 H   0  0  0  0  0  0  0  0  0  0  0  0
    9.0831    0.3210   20.5960 H   0  0  0  0  0  0  0  0  0  0  0  0
    7.7288   -1.7240   20.6095 H   0  0  0  0  0  0  0  0  0  0  0  0
    6.7134   -0.9417   21.8215 H   0  0  0  0  0  0  0  0  0  0  0  0
    5.4333    0.6529   20.1442 C   0  0  0  0  0  0  0  0  0  0  0  0
    5.0134    0.6502   21.1524 H   0  0  0  0  0  0  0  0  0  0  0  0
    8.1355   -0.3971   18.3782 H   0  0  0  0  0  0  0  0  0  0  0  0
    4.9357    1.7990   16.9795 H   0  0  0  0  0  0  0  0  0  0  0  0
    3.8687    1.8499   19.2306 H   0  0  0  0  0  0  0  0  0  0  0  0
  1  2  2  0
  2  3  1  0
  3  4  2  0
  4  5  1  0
  5  6  1  0
  6  7  1  0
  7  8  1  0
  8  9  1  0
  9 10  1  0
 10 11  1  0
 11 12  1  0
 12 13  2  0
 13 14  1  0
 14 15  1  0
 15 16  2  0
 16 17  1  0
 17 18  2  0
 18 19  1  0
 19 20  2  0
 19 21  1  0
 18 22  1  0
 17 23  1  0
 16 24  1  0
 14 25  1  0
 13 26  1  0
 11 27  1  0
 27 28  1  0
 27 29  1  0
 11 30  1  0
 10 31  1  0
 10 32  1  0
  9 33  1  0
  9 34  1  0
  8 35  1  0
  8 36  1  0
  7 37  1  0
  6 38  1  0
  6 39  1  0
  5 40  2  0
 40 41  1  0
  4 42  1  0
  2 43  1  0
  1 44  1  0
 40  1  1  0
 27  7  1  0
 20 12  1  0
 20 15  1  0
M  CHG  1   7   1
M  END
>  <plip>  (1) 
-0.07142857142857142

>  <filename>  (1) 
[H][c]1[n][c]([H])[c]([C]([H])([H])[N+]2([H])[C]([H])([H])[C]([H])([H])[C]([H])([H])[C]([H])([c]3[c]([H])[n]([H])[c]4[c]([H])[c]([H])[c]([H])[c]([H])[c]34)[C]2([H])[H])[c]([H])[c]1[H]

$$$$
