
     RDKit          3D

 48 51  0  0  0  0  0  0  0  0999 V2000
   10.6899   -1.8845   21.7829 C   0  0  0  0  0  0  0  0  0  0  0  0
    9.2599   -1.5612   22.0613 C   0  0  0  0  0  0  0  0  0  0  0  0
    8.6861   -1.7897   23.2818 C   0  0  0  0  0  0  0  0  0  0  0  0
    7.4592   -1.1683   23.4734 C   0  0  0  0  0  0  0  0  0  0  0  0
    6.9679   -1.1891   24.7217 N   0  0  0  0  0  0  0  0  0  0  0  0
    5.7457   -0.5487   25.1688 C   0  0  1  0  0  0  0  0  0  0  0  0
    4.8973   -1.5907   25.8783 C   0  0  0  0  0  0  0  0  0  0  0  0
    4.3786   -2.6524   25.1158 C   0  0  0  0  0  0  0  0  0  0  0  0
    3.6169   -3.6575   25.7011 C   0  0  0  0  0  0  0  0  0  0  0  0
    3.4203   -3.6500   27.0849 C   0  0  0  0  0  0  0  0  0  0  0  0
    3.9771   -2.6291   27.8612 C   0  0  0  0  0  0  0  0  0  0  0  0
    4.7185   -1.5823   27.2771 C   0  0  0  0  0  0  0  0  0  0  0  0
    5.2977   -0.4486   28.1278 C   0  0  0  0  0  0  0  0  0  0  0  0
    6.4274    0.3466   27.4359 C   0  0  0  0  0  0  0  0  0  0  0  0
    6.0004    0.7154   26.0070 C   0  0  1  0  0  0  0  0  0  0  0  0
    6.9523    1.6545   25.2595 C   0  0  0  0  0  0  0  0  0  0  0  0
    6.8783    2.9882   25.7272 O   0  0  0  0  0  0  0  0  0  0  0  0
    6.0399    3.3573   25.4218 H   0  0  0  0  0  0  0  0  0  0  0  0
    6.7520    1.6032   24.1750 H   0  0  0  0  0  0  0  0  0  0  0  0
    7.9879    1.3242   25.4007 H   0  0  0  0  0  0  0  0  0  0  0  0
    5.0323    1.2362   26.0779 H   0  0  0  0  0  0  0  0  0  0  0  0
    7.3440   -0.2644   27.3912 H   0  0  0  0  0  0  0  0  0  0  0  0
    6.6678    1.2513   28.0111 H   0  0  0  0  0  0  0  0  0  0  0  0
    4.4830    0.2452   28.3913 H   0  0  0  0  0  0  0  0  0  0  0  0
    5.6503   -0.8557   29.0837 H   0  0  0  0  0  0  0  0  0  0  0  0
    3.8583   -2.6528   28.9424 H   0  0  0  0  0  0  0  0  0  0  0  0
    2.8574   -4.4493   27.5606 H   0  0  0  0  0  0  0  0  0  0  0  0
    3.2251   -4.4665   25.0922 H   0  0  0  0  0  0  0  0  0  0  0  0
    4.6185   -2.7125   24.0589 H   0  0  0  0  0  0  0  0  0  0  0  0
    5.2584   -0.1675   24.2753 H   0  0  0  0  0  0  0  0  0  0  0  0
    7.2890   -1.9848   25.2414 H   0  0  0  0  0  0  0  0  0  0  0  0
    6.7887   -0.5396   22.5194 N   0  0  0  0  0  0  0  0  0  0  0  0
    7.3619   -0.5515   21.3180 C   0  0  0  0  0  0  0  0  0  0  0  0
    6.6349    0.0266   20.1761 C   0  0  0  0  0  0  0  0  0  0  0  0
    5.3977    0.6797   20.2719 C   0  0  0  0  0  0  0  0  0  0  0  0
    4.8702    1.2491   19.1149 C   0  0  0  0  0  0  0  0  0  0  0  0
    5.5824    1.1466   17.9150 C   0  0  0  0  0  0  0  0  0  0  0  0
    6.7513    0.5036   17.8092 N   0  0  0  0  0  0  0  0  0  0  0  0
    7.2543   -0.0414   18.9200 C   0  0  0  0  0  0  0  0  0  0  0  0
    8.2057   -0.5595   18.8256 H   0  0  0  0  0  0  0  0  0  0  0  0
    5.2012    1.5955   16.9993 H   0  0  0  0  0  0  0  0  0  0  0  0
    3.9360    1.7935   19.1338 H   0  0  0  0  0  0  0  0  0  0  0  0
    4.8712    0.7630   21.2253 H   0  0  0  0  0  0  0  0  0  0  0  0
    8.5844   -1.0052   21.0587 N   0  0  0  0  0  0  0  0  0  0  0  0
    9.1519   -2.3682   24.0663 H   0  0  0  0  0  0  0  0  0  0  0  0
   11.2833   -0.9692   21.8567 H   0  0  0  0  0  0  0  0  0  0  0  0
   11.0917   -2.6216   22.4764 H   0  0  0  0  0  0  0  0  0  0  0  0
   10.7830   -2.2591   20.7702 H   0  0  0  0  0  0  0  0  0  0  0  0
  1  2  1  0
  2  3  2  0
  3  4  1  0
  4  5  1  0
  5  6  1  0
  6  7  1  0
  7  8  2  0
  8  9  1  0
  9 10  2  0
 10 11  1  0
 11 12  2  0
 12 13  1  0
 13 14  1  0
 14 15  1  0
 15 16  1  0
 16 17  1  0
 17 18  1  0
 16 19  1  0
 16 20  1  0
 15 21  1  1
 14 22  1  0
 14 23  1  0
 13 24  1  0
 13 25  1  0
 11 26  1  0
 10 27  1  0
  9 28  1  0
  8 29  1  0
  6 30  1  6
  5 31  1  0
  4 32  2  0
 32 33  1  0
 33 34  1  0
 34 35  2  0
 35 36  1  0
 36 37  2  0
 37 38  1  0
 38 39  2  0
 39 40  1  0
 37 41  1  0
 36 42  1  0
 35 43  1  0
 33 44  2  0
  3 45  1  0
  1 46  1  0
  1 47  1  0
  1 48  1  0
 44  2  1  0
 15  6  1  0
 39 34  1  0
 12  7  1  0
M  END
>  <plip>  (1) 
-0.034482758620689655

>  <filename>  (1) 
[H][O][C]([H])([H])[C@]1([H])[C]([H])([H])[C]([H])([H])[c]2[c]([H])[c]([H])[c]([H])[c]([H])[c]2[C@]1([H])[N]([H])[c]1[n][c](-[c]2[c]([H])[n][c]([H])[c]([H])[c]2[H])[n][c]([C]([H])([H])[H])[c]1[H]

$$$$
