
     RDKit          3D

 37 40  0  0  0  0  0  0  0  0999 V2000
   12.1336   -1.3627   21.2204 C   0  0  0  0  0  0  0  0  0  0  0  0
   10.7763   -0.7348   21.2430 C   0  0  0  0  0  0  0  0  0  0  0  0
    9.6502   -1.3652   20.9596 N   0  0  0  0  0  0  0  0  0  0  0  0
    8.6980   -0.4327   21.1793 N   0  0  0  0  0  0  0  0  0  0  0  0
    7.2877   -0.7682   20.9601 C   0  0  0  0  0  0  0  0  0  0  0  0
    6.5995   -0.0300   19.8216 C   0  0  0  0  0  0  0  0  0  0  0  0
    5.3729    0.6174   20.0170 C   0  0  0  0  0  0  0  0  0  0  0  0
    4.7782    1.2926   18.9492 C   0  0  0  0  0  0  0  0  0  0  0  0
    5.4325    1.2861   17.7141 C   0  0  0  0  0  0  0  0  0  0  0  0
    6.5875    0.6401   17.4910 N   0  0  0  0  0  0  0  0  0  0  0  0
    7.1422   -0.0061   18.5243 C   0  0  0  0  0  0  0  0  0  0  0  0
    8.0639   -0.5422   18.3018 H   0  0  0  0  0  0  0  0  0  0  0  0
    5.0018    1.8148   16.8653 H   0  0  0  0  0  0  0  0  0  0  0  0
    3.8360    1.8195   19.0632 H   0  0  0  0  0  0  0  0  0  0  0  0
    4.9006    0.5956   21.0029 H   0  0  0  0  0  0  0  0  0  0  0  0
    6.7341   -0.5903   21.8906 H   0  0  0  0  0  0  0  0  0  0  0  0
    7.2921   -1.8426   20.7784 H   0  0  0  0  0  0  0  0  0  0  0  0
    9.2836    0.6985   21.6472 C   0  0  0  0  0  0  0  0  0  0  0  0
    8.5354    1.8944   22.1613 C   0  0  0  0  0  0  0  0  0  0  0  0
    9.2002    3.1679   22.1521 C   0  0  0  0  0  0  0  0  0  0  0  0
    8.5102    4.3185   22.4734 C   0  0  0  0  0  0  0  0  0  0  0  0
    7.1508    4.2127   22.9071 C   0  0  0  0  0  0  0  0  0  0  0  0
    6.4563    5.3427   23.2538 N   0  0  0  0  0  0  0  0  0  0  0  0
    5.2192    5.1817   23.6854 C   0  0  0  0  0  0  0  0  0  0  0  0
    4.5837    3.9130   23.8215 C   0  0  0  0  0  0  0  0  0  0  0  0
    5.2709    2.7675   23.4657 C   0  0  0  0  0  0  0  0  0  0  0  0
    6.6085    2.8797   22.9857 C   0  0  0  0  0  0  0  0  0  0  0  0
    7.2910    1.7506   22.6144 N   0  0  0  0  0  0  0  0  0  0  0  0
    4.8463    1.7676   23.5364 H   0  0  0  0  0  0  0  0  0  0  0  0
    3.5708    3.8702   24.2051 H   0  0  0  0  0  0  0  0  0  0  0  0
    4.6851    6.0912   23.9573 H   0  0  0  0  0  0  0  0  0  0  0  0
    8.9371    5.3203   22.4100 H   0  0  0  0  0  0  0  0  0  0  0  0
   10.2496    3.1971   21.8742 H   0  0  0  0  0  0  0  0  0  0  0  0
   10.6022    0.5417   21.6543 N   0  0  0  0  0  0  0  0  0  0  0  0
   12.6113   -1.3510   20.2312 H   0  0  0  0  0  0  0  0  0  0  0  0
   12.7689   -0.8216   21.9213 H   0  0  0  0  0  0  0  0  0  0  0  0
   12.0680   -2.3943   21.5580 H   0  0  0  0  0  0  0  0  0  0  0  0
  1  2  1  0
  2  3  2  0
  3  4  1  0
  4  5  1  0
  5  6  1  0
  6  7  2  0
  7  8  1  0
  8  9  2  0
  9 10  1  0
 10 11  2  0
 11 12  1  0
  9 13  1  0
  8 14  1  0
  7 15  1  0
  5 16  1  0
  5 17  1  0
  4 18  1  0
 18 19  1  0
 19 20  2  0
 20 21  1  0
 21 22  2  0
 22 23  1  0
 23 24  2  0
 24 25  1  0
 25 26  2  0
 26 27  1  0
 27 28  2  0
 26 29  1  0
 25 30  1  0
 24 31  1  0
 21 32  1  0
 20 33  1  0
 18 34  2  0
  1 35  1  0
  1 36  1  0
  1 37  1  0
 34  2  1  0
 11  6  1  0
 28 19  1  0
 27 22  1  0
M  END
>  <plip>  (1) 
-0.10714285714285714

>  <filename>  (1) 
[H][c]1[n][c]([H])[c]([C]([H])([H])[n]2[n][c]([C]([H])([H])[H])[n][c]2-[c]2[n][c]3[c]([H])[c]([H])[c]([H])[n][c]3[c]([H])[c]2[H])[c]([H])[c]1[H]

$$$$
