
     RDKit          3D

 28 29  0  0  0  0  0  0  0  0999 V2000
    9.3614    3.5671   21.4312 H   0  0  0  0  0  0  0  0  0  0  0  0
    9.6908    2.6009   21.5705 N   0  0  0  0  0  0  0  0  0  0  0  0
    8.7063    1.8174   21.4291 N   0  0  0  0  0  4  0  0  0  0  0  0
    8.9043    0.5564   21.3622 N   0  0  0  0  0  0  0  0  0  0  0  0
    7.6535   -0.2050   21.1768 C   0  0  0  0  0  0  0  0  0  0  0  0
    6.7914    0.4136   20.0725 C   0  0  0  0  0  0  0  0  0  0  0  0
    7.3393    0.5003   18.7809 C   0  0  0  0  0  0  0  0  0  0  0  0
    8.3681    0.1823   18.6015 H   0  0  0  0  0  0  0  0  0  0  0  0
    6.6823    0.9666   17.7143 N   0  0  0  0  0  0  0  0  0  0  0  0
    5.4337    1.4097   17.9107 C   0  0  0  0  0  0  0  0  0  0  0  0
    4.9041    1.7443   17.0210 H   0  0  0  0  0  0  0  0  0  0  0  0
    4.8121    1.4410   19.1618 C   0  0  0  0  0  0  0  0  0  0  0  0
    3.8097    1.8412   19.2592 H   0  0  0  0  0  0  0  0  0  0  0  0
    5.5118    0.9457   20.2662 C   0  0  0  0  0  0  0  0  0  0  0  0
    5.0673    0.9749   21.2644 H   0  0  0  0  0  0  0  0  0  0  0  0
    8.0111   -1.6533   20.7538 C   0  0  0  0  0  0  0  0  0  0  0  0
    7.0941   -2.0790   20.3308 H   0  0  0  0  0  0  0  0  0  0  0  0
    8.7682   -1.6357   19.9644 H   0  0  0  0  0  0  0  0  0  0  0  0
    8.4834   -2.5998   21.8641 C   0  0  0  0  0  0  0  0  0  0  0  0
    8.3319   -3.6310   21.5263 H   0  0  0  0  0  0  0  0  0  0  0  0
    9.5593   -2.4700   22.0819 H   0  0  0  0  0  0  0  0  0  0  0  0
    7.7176   -2.4803   23.0482 O   0  0  0  0  0  0  0  0  0  0  0  0
    7.6634   -1.1502   23.5339 C   0  0  0  0  0  0  0  0  0  0  0  0
    8.6794   -0.7586   23.7193 H   0  0  0  0  0  0  0  0  0  0  0  0
    7.1199   -1.1835   24.4865 H   0  0  0  0  0  0  0  0  0  0  0  0
    6.9183   -0.2837   22.5318 C   0  0  0  0  0  0  0  0  0  0  0  0
    5.9508   -0.7590   22.3446 H   0  0  0  0  0  0  0  0  0  0  0  0
    6.7716    0.7227   22.9345 H   0  0  0  0  0  0  0  0  0  0  0  0
  1  2  1  0
  2  3  2  0
  3  4  2  0
  4  5  1  0
  5  6  1  0
  6  7  2  0
  7  8  1  0
  7  9  1  0
  9 10  2  0
 10 11  1  0
 10 12  1  0
 12 13  1  0
 12 14  2  0
 14 15  1  0
  5 16  1  0
 16 17  1  0
 16 18  1  0
 16 19  1  0
 19 20  1  0
 19 21  1  0
 19 22  1  0
 22 23  1  0
 23 24  1  0
 23 25  1  0
 23 26  1  0
 26 27  1  0
 26 28  1  0
 26  5  1  0
 14  6  1  0
M  CHG  1   3   1
M  END
>  <plip>  (1) 
-0.07142857142857142

>  <filename>  (1) 
[H][N]=[N+]=[N][C]1([c]2[c]([H])[n][c]([H])[c]([H])[c]2[H])[C]([H])([H])[C]([H])([H])[O][C]([H])([H])[C]1([H])[H]

$$$$
