
     RDKit          3D

 37 39  0  0  0  0  0  0  0  0999 V2000
    5.6652   -1.7354   21.6443 H   0  0  0  0  0  0  0  0  0  0  0  0
    6.7253   -1.5346   21.7954 C   0  0  0  0  0  0  0  0  0  0  0  0
    7.2323   -2.0213   22.6261 H   0  0  0  0  0  0  0  0  0  0  0  0
    7.3945   -0.7130   20.9874 C   0  0  0  0  0  0  0  0  0  0  0  0
    6.6742    0.0162   19.9045 C   0  0  0  0  0  0  0  0  0  0  0  0
    7.1796    0.0789   18.5969 C   0  0  0  0  0  0  0  0  0  0  0  0
    8.1172   -0.4252   18.3745 H   0  0  0  0  0  0  0  0  0  0  0  0
    6.5653    0.6789   17.5691 N   0  0  0  0  0  0  0  0  0  0  0  0
    5.4032    1.2942   17.8373 C   0  0  0  0  0  0  0  0  0  0  0  0
    4.9125    1.7797   16.9972 H   0  0  0  0  0  0  0  0  0  0  0  0
    4.8071    1.3142   19.1064 C   0  0  0  0  0  0  0  0  0  0  0  0
    3.8696    1.8446   19.2599 H   0  0  0  0  0  0  0  0  0  0  0  0
    5.4440    0.6493   20.1542 C   0  0  0  0  0  0  0  0  0  0  0  0
    5.0153    0.6305   21.1626 H   0  0  0  0  0  0  0  0  0  0  0  0
    8.8606   -0.3779   21.1992 C   0  0  0  0  0  0  0  0  0  0  0  0
    9.2858   -1.1173   21.8852 H   0  0  0  0  0  0  0  0  0  0  0  0
    9.4169   -0.4535   20.2586 H   0  0  0  0  0  0  0  0  0  0  0  0
    9.0604    1.0300   21.7983 C   0  0  0  0  0  0  0  0  0  0  0  0
    8.6620    1.7781   21.1046 H   0  0  0  0  0  0  0  0  0  0  0  0
   10.1343    1.2315   21.9004 H   0  0  0  0  0  0  0  0  0  0  0  0
    8.3953    1.1850   23.1478 C   0  0  0  0  0  0  0  0  0  0  0  0
    7.1347    1.8481   23.2688 C   0  0  0  0  0  0  0  0  0  0  0  0
    6.6841    2.2837   22.3766 H   0  0  0  0  0  0  0  0  0  0  0  0
    6.4972    1.9446   24.4845 C   0  0  0  0  0  0  0  0  0  0  0  0
    5.5441    2.4634   24.5788 H   0  0  0  0  0  0  0  0  0  0  0  0
    7.0757    1.3669   25.6539 C   0  0  0  0  0  0  0  0  0  0  0  0
    6.4416    1.4474   26.9316 C   0  0  0  0  0  0  0  0  0  0  0  0
    5.4894    1.9725   27.0008 H   0  0  0  0  0  0  0  0  0  0  0  0
    7.0243    0.8749   28.0396 C   0  0  0  0  0  0  0  0  0  0  0  0
    6.5383    0.9398   29.0104 H   0  0  0  0  0  0  0  0  0  0  0  0
    8.2736    0.1937   27.9205 C   0  0  0  0  0  0  0  0  0  0  0  0
    8.7526   -0.2208   28.8011 H   0  0  0  0  0  0  0  0  0  0  0  0
    8.9089    0.0928   26.7064 C   0  0  0  0  0  0  0  0  0  0  0  0
    9.8656   -0.4242   26.6173 H   0  0  0  0  0  0  0  0  0  0  0  0
    8.3289    0.6798   25.5405 C   0  0  0  0  0  0  0  0  0  0  0  0
    8.9582    0.6039   24.2651 C   0  0  0  0  0  0  0  0  0  0  0  0
    9.9043    0.0669   24.1929 H   0  0  0  0  0  0  0  0  0  0  0  0
  1  2  1  0
  2  3  1  0
  2  4  2  3
  4  5  1  0
  5  6  2  0
  6  7  1  0
  6  8  1  0
  8  9  2  0
  9 10  1  0
  9 11  1  0
 11 12  1  0
 11 13  2  0
 13 14  1  0
  4 15  1  0
 15 16  1  0
 15 17  1  0
 15 18  1  0
 18 19  1  0
 18 20  1  0
 18 21  1  0
 21 22  2  0
 22 23  1  0
 22 24  1  0
 24 25  1  0
 24 26  2  0
 26 27  1  0
 27 28  1  0
 27 29  2  0
 29 30  1  0
 29 31  1  0
 31 32  1  0
 31 33  2  0
 33 34  1  0
 33 35  1  0
 35 36  2  0
 36 37  1  0
 13  5  1  0
 36 21  1  0
 35 26  1  0
M  END
>  <plip>  (1) 
-0.03571428571428571

>  <filename>  (1) 
[H][C]([H])=[C]([c]1[c]([H])[n][c]([H])[c]([H])[c]1[H])[C]([H])([H])[C]([H])([H])[c]1[c]([H])[c]([H])[c]2[c]([H])[c]([H])[c]([H])[c]([H])[c]2[c]1[H]

$$$$
