
     RDKit          3D

 33 35  0  0  0  0  0  0  0  0999 V2000
    9.8287    0.1359   21.2187 C   0  0  0  0  0  0  0  0  0  0  0  0
    8.3904    0.3351   21.4641 N   0  0  0  0  0  0  0  0  0  0  0  0
    7.4104   -0.6576   20.9937 C   0  0  0  0  0  0  0  0  0  0  0  0
    6.6492    0.0152   19.8958 C   0  0  0  0  0  0  0  0  0  0  0  0
    5.4362    0.6483   20.1626 C   0  0  0  0  0  0  0  0  0  0  0  0
    4.8204    1.2992   19.0981 C   0  0  0  0  0  0  0  0  0  0  0  0
    5.4061    1.2895   17.8248 C   0  0  0  0  0  0  0  0  0  0  0  0
    6.5741    0.6706   17.5762 N   0  0  0  0  0  0  0  0  0  0  0  0
    7.1880    0.0622   18.6040 C   0  0  0  0  0  0  0  0  0  0  0  0
    8.1363   -0.4305   18.4144 H   0  0  0  0  0  0  0  0  0  0  0  0
    4.8915    1.8022   17.0164 H   0  0  0  0  0  0  0  0  0  0  0  0
    3.8869    1.8259   19.2536 H   0  0  0  0  0  0  0  0  0  0  0  0
    5.0026    0.6469   21.1652 H   0  0  0  0  0  0  0  0  0  0  0  0
    6.7360   -0.9756   21.8019 H   0  0  0  0  0  0  0  0  0  0  0  0
    7.9138   -1.5571   20.6203 H   0  0  0  0  0  0  0  0  0  0  0  0
    7.9731    1.3510   22.3302 C   0  0  0  0  0  0  0  0  0  0  0  0
    8.0597    2.6444   21.8309 C   0  0  0  0  0  0  0  0  0  0  0  0
    7.6149    3.7293   22.5762 C   0  0  0  0  0  0  0  0  0  0  0  0
    7.1115    3.5764   23.8088 N   0  0  0  0  0  0  0  0  0  0  0  0
    7.0365    2.3270   24.3231 C   0  0  0  0  0  0  0  0  0  0  0  0
    6.5165    2.1747   25.6098 C   0  0  0  0  0  0  0  0  0  0  0  0
    6.4349    0.8938   26.1710 C   0  0  0  0  0  0  0  0  0  0  0  0
    5.7339    0.6293   27.9311 Br  0  0  0  0  0  0  0  0  0  0  0  0
    6.8756   -0.2125   25.4300 C   0  0  0  0  0  0  0  0  0  0  0  0
    7.3699   -0.0929   24.1895 N   0  0  0  0  0  0  0  0  0  0  0  0
    7.4532    1.1503   23.6313 C   0  0  0  0  0  0  0  0  0  0  0  0
    6.8220   -1.2068   25.8614 H   0  0  0  0  0  0  0  0  0  0  0  0
    6.1804    3.0464   26.1665 H   0  0  0  0  0  0  0  0  0  0  0  0
    7.6768    4.7259   22.1509 H   0  0  0  0  0  0  0  0  0  0  0  0
    8.4658    2.7962   20.8434 H   0  0  0  0  0  0  0  0  0  0  0  0
   10.2305    1.0076   20.6960 H   0  0  0  0  0  0  0  0  0  0  0  0
   10.3861    0.0022   22.1541 H   0  0  0  0  0  0  0  0  0  0  0  0
    9.9969   -0.7546   20.6066 H   0  0  0  0  0  0  0  0  0  0  0  0
  1  2  1  0
  2  3  1  0
  3  4  1  0
  4  5  2  0
  5  6  1  0
  6  7  2  0
  7  8  1  0
  8  9  2  0
  9 10  1  0
  7 11  1  0
  6 12  1  0
  5 13  1  0
  3 14  1  0
  3 15  1  0
  2 16  1  0
 16 17  2  0
 17 18  1  0
 18 19  2  0
 19 20  1  0
 20 21  2  0
 21 22  1  0
 22 23  1  0
 22 24  2  0
 24 25  1  0
 25 26  2  0
 24 27  1  0
 21 28  1  0
 18 29  1  0
 17 30  1  0
  1 31  1  0
  1 32  1  0
  1 33  1  0
  9  4  1  0
 26 16  1  0
 26 20  1  0
M  END
>  <plip>  (1) 
-0.0

>  <filename>  (1) 
[H][c]1[n][c]([H])[c]([C]([H])([H])[N]([c]2[c]([H])[c]([H])[n][c]3[c]([H])[c]([Br])[c]([H])[n][c]23)[C]([H])([H])[H])[c]([H])[c]1[H]

$$$$
