
     RDKit          3D

 32 35  0  0  0  0  0  0  0  0999 V2000
    4.9152    1.8125   16.9699 H   0  0  0  0  0  0  0  0  0  0  0  0
    5.3821    1.3082   17.8142 C   0  0  0  0  0  0  0  0  0  0  0  0
    6.5451    0.6866   17.5543 N   0  0  0  0  0  0  0  0  0  0  0  0
    7.1557    0.0709   18.5716 C   0  0  0  0  0  0  0  0  0  0  0  0
    8.1108   -0.3923   18.3232 H   0  0  0  0  0  0  0  0  0  0  0  0
    6.6568    0.0244   19.8930 C   0  0  0  0  0  0  0  0  0  0  0  0
    7.3741   -0.6423   20.9952 C   0  0  0  0  0  0  0  0  0  0  0  0
    7.5269   -0.3229   22.3394 C   0  0  0  0  0  0  0  0  0  0  0  0
    7.0150    0.8352   22.9581 N   0  0  0  0  0  0  0  0  0  0  0  0
    6.9913    1.7150   22.4607 H   0  0  0  0  0  0  0  0  0  0  0  0
    6.6697    1.0190   24.2660 C   0  0  0  0  0  0  0  0  0  0  0  0
    6.5359    2.2037   24.7659 N   0  0  0  0  0  0  0  0  0  0  0  0
    6.1827    2.0914   26.1102 C   0  0  0  0  0  0  0  0  0  0  0  0
    5.9526    3.1510   27.0028 C   0  0  0  0  0  0  0  0  0  0  0  0
    6.0738    4.1676   26.6439 H   0  0  0  0  0  0  0  0  0  0  0  0
    5.5664    2.8745   28.3146 C   0  0  0  0  0  0  0  0  0  0  0  0
    5.3747    3.6883   29.0072 H   0  0  0  0  0  0  0  0  0  0  0  0
    5.4123    1.5491   28.7580 C   0  0  0  0  0  0  0  0  0  0  0  0
    5.1083    1.3459   29.7796 H   0  0  0  0  0  0  0  0  0  0  0  0
    5.6456    0.4827   27.8971 C   0  0  0  0  0  0  0  0  0  0  0  0
    5.5276   -0.5433   28.2339 H   0  0  0  0  0  0  0  0  0  0  0  0
    6.0281    0.7677   26.5874 C   0  0  0  0  0  0  0  0  0  0  0  0
    6.3485   -0.3596   25.3032 S   0  0  0  0  0  0  0  0  0  0  0  0
    8.3170   -1.3791   22.8782 C   0  0  0  0  0  0  0  0  0  0  0  0
    8.6684   -1.5062   23.8948 H   0  0  0  0  0  0  0  0  0  0  0  0
    8.6185   -2.2790   21.9517 N   0  0  0  0  0  0  0  0  0  0  0  0
    8.0523   -1.8151   20.8282 N   0  0  0  0  0  0  0  0  0  0  0  0
    8.1154   -2.3537   19.9792 H   0  0  0  0  0  0  0  0  0  0  0  0
    5.4287    0.6658   20.1340 C   0  0  0  0  0  0  0  0  0  0  0  0
    5.0064    0.6321   21.1376 H   0  0  0  0  0  0  0  0  0  0  0  0
    4.7881    1.3194   19.0800 C   0  0  0  0  0  0  0  0  0  0  0  0
    3.8562    1.8522   19.2301 H   0  0  0  0  0  0  0  0  0  0  0  0
  1  2  1  0
  2  3  2  0
  3  4  1  0
  4  5  1  0
  4  6  2  0
  6  7  1  0
  7  8  2  0
  8  9  1  0
  9 10  1  0
  9 11  1  0
 11 12  2  0
 12 13  1  0
 13 14  2  0
 14 15  1  0
 14 16  1  0
 16 17  1  0
 16 18  2  0
 18 19  1  0
 18 20  1  0
 20 21  1  0
 20 22  2  0
 22 23  1  0
  8 24  1  0
 24 25  1  0
 24 26  2  0
 26 27  1  0
 27 28  1  0
  6 29  1  0
 29 30  1  0
 29 31  2  0
 31 32  1  0
 31  2  1  0
 27  7  1  0
 23 11  1  0
 22 13  1  0
M  END
>  <plip>  (1) 
-0.0

>  <filename>  (1) 
[H][c]1[n][c]([H])[c](-[c]2[c]([N]([H])[c]3[n][c]4[c]([H])[c]([H])[c]([H])[c]([H])[c]4[s]3)[c]([H])[n][n]2[H])[c]([H])[c]1[H]

$$$$
