
     RDKit          3D

 40 42  0  0  0  0  0  0  0  0999 V2000
   13.8551    0.4009   23.4541 C   0  0  0  0  0  0  0  0  0  0  0  0
   12.6375    1.2500   23.3133 C   0  0  0  0  0  0  0  0  0  0  0  0
   12.7058    2.5223   23.0440 N   0  0  0  0  0  0  0  0  0  0  0  0
   11.3893    2.9438   22.9941 C   0  0  0  0  0  0  0  0  0  0  0  0
   10.8648    4.2122   22.7298 C   0  0  0  0  0  0  0  0  0  0  0  0
    9.4831    4.3740   22.7211 C   0  0  0  0  0  0  0  0  0  0  0  0
    8.6255    3.2815   22.9886 C   0  0  0  0  0  0  0  0  0  0  0  0
    9.1293    2.0128   23.2574 C   0  0  0  0  0  0  0  0  0  0  0  0
   10.5203    1.8654   23.2486 C   0  0  0  0  0  0  0  0  0  0  0  0
   11.3420    0.7703   23.4648 N   0  0  0  0  0  0  0  0  0  0  0  0
   10.9036   -0.5081   24.0077 C   0  0  0  0  0  0  0  0  0  0  0  0
   10.9487   -1.6871   23.0284 C   0  0  0  0  0  0  0  0  0  0  0  0
   10.0933   -1.5209   21.8877 O   0  0  0  0  0  0  0  0  0  0  0  0
    8.7524   -1.5227   22.0598 C   0  0  0  0  0  0  0  0  0  0  0  0
    8.1963   -1.8977   23.0708 O   0  0  0  0  0  0  0  0  0  0  0  0
    8.1127   -0.9675   20.8482 C   0  0  0  0  0  0  0  0  0  0  0  0
    6.8239   -0.5931   20.7808 C   0  0  0  0  0  0  0  0  0  0  0  0
    6.2203    0.1258   19.6452 C   0  0  0  0  0  0  0  0  0  0  0  0
    4.9928    0.8083   19.7792 C   0  0  0  0  0  0  0  0  0  0  0  0
    4.5050    1.5408   18.6956 C   0  0  0  0  0  0  0  0  0  0  0  0
    5.2422    1.5567   17.5061 C   0  0  0  0  0  0  0  0  0  0  0  0
    6.3907    0.8832   17.3386 N   0  0  0  0  0  0  0  0  0  0  0  0
    6.8554    0.2007   18.3882 C   0  0  0  0  0  0  0  0  0  0  0  0
    7.7871   -0.3357   18.2196 H   0  0  0  0  0  0  0  0  0  0  0  0
    4.8981    2.1281   16.6468 H   0  0  0  0  0  0  0  0  0  0  0  0
    3.5804    2.1080   18.7557 H   0  0  0  0  0  0  0  0  0  0  0  0
    4.4405    0.7892   20.7214 H   0  0  0  0  0  0  0  0  0  0  0  0
    6.1692   -0.7831   21.6366 H   0  0  0  0  0  0  0  0  0  0  0  0
    8.8130   -0.8080   20.0373 H   0  0  0  0  0  0  0  0  0  0  0  0
   11.9431   -1.8153   22.5911 H   0  0  0  0  0  0  0  0  0  0  0  0
   10.6831   -2.5991   23.5746 H   0  0  0  0  0  0  0  0  0  0  0  0
    9.8692   -0.4116   24.3518 H   0  0  0  0  0  0  0  0  0  0  0  0
   11.4950   -0.7482   24.8953 H   0  0  0  0  0  0  0  0  0  0  0  0
    8.4790    1.1668   23.4619 H   0  0  0  0  0  0  0  0  0  0  0  0
    7.5524    3.4334   22.9765 H   0  0  0  0  0  0  0  0  0  0  0  0
    9.0698    5.3420   22.4551 H   0  0  0  0  0  0  0  0  0  0  0  0
   11.5542    5.0177   22.5050 H   0  0  0  0  0  0  0  0  0  0  0  0
   14.1093    0.2567   24.5087 H   0  0  0  0  0  0  0  0  0  0  0  0
   13.7101   -0.5790   22.9969 H   0  0  0  0  0  0  0  0  0  0  0  0
   14.6957    0.8998   22.9683 H   0  0  0  0  0  0  0  0  0  0  0  0
  1  2  1  0
  2  3  2  0
  3  4  1  0
  4  5  2  0
  5  6  1  0
  6  7  2  0
  7  8  1  0
  8  9  2  0
  9 10  1  0
 10 11  1  0
 11 12  1  0
 12 13  1  0
 13 14  1  0
 14 15  2  0
 14 16  1  0
 16 17  2  3
 17 18  1  0
 18 19  2  0
 19 20  1  0
 20 21  2  0
 21 22  1  0
 22 23  2  0
 23 24  1  0
 21 25  1  0
 20 26  1  0
 19 27  1  0
 17 28  1  0
 16 29  1  0
 12 30  1  0
 12 31  1  0
 11 32  1  0
 11 33  1  0
  8 34  1  0
  7 35  1  0
  6 36  1  0
  5 37  1  0
  1 38  1  0
  1 39  1  0
  1 40  1  0
 10  2  1  0
 23 18  1  0
  9  4  1  0
M  END
>  <plip>  (1) 
-0.0

>  <filename>  (1) 
[H][C]([C](=[O])[O][C]([H])([H])[C]([H])([H])[n]1[c]([C]([H])([H])[H])[n][c]2[c]([H])[c]([H])[c]([H])[c]([H])[c]21)=[C]([H])[c]1[c]([H])[n][c]([H])[c]([H])[c]1[H]

$$$$
