
     RDKit          3D

 45 47  0  0  0  0  0  0  0  0999 V2000
    8.4375    1.9746   20.7000 O   0  0  0  0  0  0  0  0  0  0  0  0
    8.4821    1.4457   22.0494 S   0  0  0  0  0  0  0  0  0  0  0  0
    9.7672    0.9415   22.5465 O   0  0  0  0  0  0  0  0  0  0  0  0
    7.8085    2.6715   23.2186 C   0  0  0  0  0  0  0  0  0  0  0  0
    8.5617    4.0367   23.1801 C   0  0  0  0  0  0  0  0  0  0  0  0
    7.8382    5.0648   22.2973 C   0  0  0  0  0  0  0  0  0  0  0  0
    6.4576    5.4062   22.8853 N   0  0  0  0  0  4  0  0  0  0  0  0
    5.8150    4.2338   23.6415 C   0  0  0  0  0  0  0  0  0  0  0  0
    6.2716    2.8960   23.0458 C   0  0  0  0  0  0  0  0  0  0  0  0
    6.0011    2.8955   21.9765 H   0  0  0  0  0  0  0  0  0  0  0  0
    5.7149    2.0897   23.5293 H   0  0  0  0  0  0  0  0  0  0  0  0
    6.0989    4.2929   24.6956 H   0  0  0  0  0  0  0  0  0  0  0  0
    4.7291    4.3241   23.5895 H   0  0  0  0  0  0  0  0  0  0  0  0
    6.5716    6.2374   23.5114 H   0  0  0  0  0  0  0  0  0  0  0  0
    5.8038    5.6682   22.1069 H   0  0  0  0  0  0  0  0  0  0  0  0
    7.7015    4.6488   21.2958 H   0  0  0  0  0  0  0  0  0  0  0  0
    8.4288    5.9755   22.2035 H   0  0  0  0  0  0  0  0  0  0  0  0
    8.5884    4.4248   24.2100 H   0  0  0  0  0  0  0  0  0  0  0  0
    9.5968    3.9336   22.8455 H   0  0  0  0  0  0  0  0  0  0  0  0
    8.0250    2.1599   24.1665 H   0  0  0  0  0  0  0  0  0  0  0  0
    7.3396    0.1652   22.2818 N   0  0  0  0  0  0  0  0  0  0  0  0
    7.6607   -0.6836   23.4852 C   0  0  0  0  0  0  0  0  0  0  0  0
    8.5110   -1.9618   23.1664 C   0  0  0  0  0  0  0  0  0  0  0  0
    9.4805   -1.6688   22.0397 N   0  0  0  0  0  4  0  0  0  0  0  0
    8.7105   -1.2727   20.7606 C   0  0  0  0  0  0  0  0  0  0  0  0
    7.2791   -0.6891   21.0512 C   0  0  0  0  0  0  0  0  0  0  0  0
    6.6253    0.0487   19.9146 C   0  0  0  0  0  0  0  0  0  0  0  0
    5.3889    0.6847   20.1126 C   0  0  0  0  0  0  0  0  0  0  0  0
    4.7756    1.3307   19.0392 C   0  0  0  0  0  0  0  0  0  0  0  0
    5.4218    1.3217   17.7997 C   0  0  0  0  0  0  0  0  0  0  0  0
    6.5915    0.7060   17.5864 N   0  0  0  0  0  0  0  0  0  0  0  0
    7.1663    0.0890   18.6270 C   0  0  0  0  0  0  0  0  0  0  0  0
    8.1101   -0.4142   18.4060 H   0  0  0  0  0  0  0  0  0  0  0  0
    4.9792    1.8231   16.9418 H   0  0  0  0  0  0  0  0  0  0  0  0
    3.8235    1.8399   19.1518 H   0  0  0  0  0  0  0  0  0  0  0  0
    4.9275    0.6817   21.1022 H   0  0  0  0  0  0  0  0  0  0  0  0
    6.5999   -1.5236   21.3099 H   0  0  0  0  0  0  0  0  0  0  0  0
    8.6341   -2.1179   20.0798 H   0  0  0  0  0  0  0  0  0  0  0  0
    9.2656   -0.4656   20.2724 H   0  0  0  0  0  0  0  0  0  0  0  0
   10.0382   -0.8218   22.3233 H   0  0  0  0  0  0  0  0  0  0  0  0
   10.1571   -2.4315   21.8671 H   0  0  0  0  0  0  0  0  0  0  0  0
    7.8292   -2.7664   22.8626 H   0  0  0  0  0  0  0  0  0  0  0  0
    9.0351   -2.3029   24.0621 H   0  0  0  0  0  0  0  0  0  0  0  0
    8.1883   -0.0860   24.2393 H   0  0  0  0  0  0  0  0  0  0  0  0
    6.7030   -0.9942   23.9207 H   0  0  0  0  0  0  0  0  0  0  0  0
  1  2  2  0
  2  3  2  0
  2  4  1  0
  4  5  1  0
  5  6  1  0
  6  7  1  0
  7  8  1  0
  8  9  1  0
  9 10  1  0
  9 11  1  0
  8 12  1  0
  8 13  1  0
  7 14  1  0
  7 15  1  0
  6 16  1  0
  6 17  1  0
  5 18  1  0
  5 19  1  0
  4 20  1  0
  2 21  1  0
 21 22  1  0
 22 23  1  0
 23 24  1  0
 24 25  1  0
 25 26  1  0
 26 27  1  0
 27 28  2  0
 28 29  1  0
 29 30  2  0
 30 31  1  0
 31 32  2  0
 32 33  1  0
 30 34  1  0
 29 35  1  0
 28 36  1  0
 26 37  1  0
 25 38  1  0
 25 39  1  0
 24 40  1  0
 24 41  1  0
 23 42  1  0
 23 43  1  0
 22 44  1  0
 22 45  1  0
  9  4  1  0
 26 21  1  0
 32 27  1  0
M  CHG  2   7   1  24   1
M  END
>  <plip>  (1) 
-0.13793103448275862

>  <filename>  (1) 
[H][c]1[n][c]([H])[c]([C]2([H])[N]([S](=[O])(=[O])[C]3([H])[C]([H])([H])[C]([H])([H])[N+]([H])([H])[C]([H])([H])[C]3([H])[H])[C]([H])([H])[C]([H])([H])[N+]([H])([H])[C]2([H])[H])[c]([H])[c]1[H]

$$$$
