
     RDKit          3D

 40 41  0  0  0  0  0  0  0  0999 V2000
    7.6272    3.6589   22.2071 C   0  0  0  0  0  0  0  0  0  0  0  0
    9.0988    3.2916   22.4632 C   0  0  0  0  0  0  0  0  0  0  0  0
    9.8513    4.4146   23.1966 C   0  0  0  0  0  0  0  0  0  0  0  0
    9.2445    5.0241   24.4666 C   0  0  0  0  0  0  0  0  0  0  0  0
    9.2063    4.0306   25.9922 S   0  0  0  0  0  0  0  0  0  0  0  0
    8.8503    2.3078   25.5263 C   0  0  0  0  0  0  0  0  0  0  0  0
    9.6911    1.6951   24.3984 C   0  0  0  0  0  0  0  0  0  0  0  0
    9.1984    1.9494   23.0528 N   0  0  0  0  0  0  0  0  0  0  0  0
    8.9871    0.9224   22.1264 C   0  0  0  0  0  0  0  0  0  0  0  0
    9.6003    0.8831   21.0650 O   0  0  0  0  0  0  0  0  0  0  0  0
    7.9884   -0.0089   22.4126 N   0  0  0  0  0  0  0  0  0  0  0  0
    7.0254    0.1968   23.4988 C   0  0  0  0  0  0  0  0  0  0  0  0
    7.4828    0.0088   24.4768 H   0  0  0  0  0  0  0  0  0  0  0  0
    6.1975   -0.5128   23.4097 H   0  0  0  0  0  0  0  0  0  0  0  0
    6.5974    1.2117   23.4881 H   0  0  0  0  0  0  0  0  0  0  0  0
    7.5359   -0.7792   21.2410 C   0  0  0  0  0  0  0  0  0  0  0  0
    6.8909    0.0577   20.1489 C   0  0  0  0  0  0  0  0  0  0  0  0
    5.6556    0.6961   20.3190 C   0  0  0  0  0  0  0  0  0  0  0  0
    5.0667    1.3320   19.2241 C   0  0  0  0  0  0  0  0  0  0  0  0
    5.7366    1.3221   17.9981 C   0  0  0  0  0  0  0  0  0  0  0  0
    6.9425    0.7648   17.8236 N   0  0  0  0  0  0  0  0  0  0  0  0
    7.5078    0.1765   18.8914 C   0  0  0  0  0  0  0  0  0  0  0  0
    8.5069   -0.2321   18.7354 H   0  0  0  0  0  0  0  0  0  0  0  0
    5.2852    1.7783   17.1149 H   0  0  0  0  0  0  0  0  0  0  0  0
    4.1023    1.8273   19.3076 H   0  0  0  0  0  0  0  0  0  0  0  0
    5.1496    0.6911   21.2897 H   0  0  0  0  0  0  0  0  0  0  0  0
    6.8286   -1.5422   21.5879 H   0  0  0  0  0  0  0  0  0  0  0  0
    8.4010   -1.3048   20.8254 H   0  0  0  0  0  0  0  0  0  0  0  0
   10.7217    2.0646   24.4933 H   0  0  0  0  0  0  0  0  0  0  0  0
    9.7620    0.6119   24.5555 H   0  0  0  0  0  0  0  0  0  0  0  0
    7.7824    2.2054   25.3239 H   0  0  0  0  0  0  0  0  0  0  0  0
    9.0418    1.7600   26.4554 H   0  0  0  0  0  0  0  0  0  0  0  0
    9.8627    5.8870   24.7499 H   0  0  0  0  0  0  0  0  0  0  0  0
    8.2376    5.4217   24.2760 H   0  0  0  0  0  0  0  0  0  0  0  0
    9.9227    5.2414   22.4719 H   0  0  0  0  0  0  0  0  0  0  0  0
   10.8807    4.0937   23.3856 H   0  0  0  0  0  0  0  0  0  0  0  0
    9.5890    3.1964   21.4831 H   0  0  0  0  0  0  0  0  0  0  0  0
    7.1529    2.9454   21.5243 H   0  0  0  0  0  0  0  0  0  0  0  0
    7.5817    4.6508   21.7413 H   0  0  0  0  0  0  0  0  0  0  0  0
    7.0424    3.6802   23.1383 H   0  0  0  0  0  0  0  0  0  0  0  0
  1  2  1  0
  2  3  1  0
  3  4  1  0
  4  5  1  0
  5  6  1  0
  6  7  1  0
  7  8  1  0
  8  9  1  0
  9 10  2  0
  9 11  1  0
 11 12  1  0
 12 13  1  0
 12 14  1  0
 12 15  1  0
 11 16  1  0
 16 17  1  0
 17 18  2  0
 18 19  1  0
 19 20  2  0
 20 21  1  0
 21 22  2  0
 22 23  1  0
 20 24  1  0
 19 25  1  0
 18 26  1  0
 16 27  1  0
 16 28  1  0
  7 29  1  0
  7 30  1  0
  6 31  1  0
  6 32  1  0
  4 33  1  0
  4 34  1  0
  3 35  1  0
  3 36  1  0
  2 37  1  0
  1 38  1  0
  1 39  1  0
  1 40  1  0
  8  2  1  0
 22 17  1  0
M  END
>  <plip>  (1) 
-0.03571428571428571

>  <filename>  (1) 
[H][c]1[n][c]([H])[c]([C]([H])([H])[N]([C](=[O])[N]2[C]([H])([H])[C]([H])([H])[S][C]([H])([H])[C]([H])([H])[C]2([H])[C]([H])([H])[H])[C]([H])([H])[H])[c]([H])[c]1[H]

$$$$
