
     RDKit          3D

 38 41  0  0  0  0  0  0  0  0999 V2000
    4.9745    1.7984   16.9581 H   0  0  0  0  0  0  0  0  0  0  0  0
    5.4181    1.2850   17.8083 C   0  0  0  0  0  0  0  0  0  0  0  0
    6.5792    0.6478   17.5803 N   0  0  0  0  0  0  0  0  0  0  0  0
    7.1736    0.0382   18.6089 C   0  0  0  0  0  0  0  0  0  0  0  0
    8.1100   -0.4805   18.4088 H   0  0  0  0  0  0  0  0  0  0  0  0
    6.6443    0.0563   19.9151 C   0  0  0  0  0  0  0  0  0  0  0  0
    7.3620   -0.5876   20.9796 N   0  0  0  0  0  0  0  0  0  0  0  0
    8.1605   -1.6727   20.7677 N   0  0  0  0  0  0  0  0  0  0  0  0
    8.5832   -2.0599   21.9083 N   0  0  0  0  0  0  0  0  0  0  0  0
    8.1116   -1.2808   22.9156 N   0  0  0  0  0  0  0  0  0  0  0  0
    7.3857   -0.3787   22.3122 C   0  0  0  0  0  0  0  0  0  0  0  0
    6.7010    0.6555   22.8266 O   0  0  0  0  0  0  0  0  0  0  0  0
    6.9485    0.8221   24.2310 N   0  0  0  0  0  0  0  0  0  0  0  0
    6.6046    2.2273   24.5325 C   0  0  0  0  0  0  0  0  0  0  0  0
    7.0910    2.4843   25.4842 H   0  0  0  0  0  0  0  0  0  0  0  0
    7.0362    2.8555   23.7495 H   0  0  0  0  0  0  0  0  0  0  0  0
    5.0724    2.2790   24.6361 C   0  0  0  0  0  0  0  0  0  0  0  0
    4.7372    3.1351   25.2278 H   0  0  0  0  0  0  0  0  0  0  0  0
    4.6432    2.3837   23.6341 H   0  0  0  0  0  0  0  0  0  0  0  0
    4.7037    0.9182   25.2592 C   0  0  2  0  0  0  0  0  0  0  0  0
    3.7893    0.4954   24.8338 H   0  0  0  0  0  0  0  0  0  0  0  0
    4.6108    0.8941   26.7986 C   0  0  0  0  0  0  0  0  0  0  0  0
    5.0917    1.7900   27.2469 H   0  0  0  0  0  0  0  0  0  0  0  0
    3.5702    0.8856   27.1475 H   0  0  0  0  0  0  0  0  0  0  0  0
    5.2610   -0.3519   27.1928 N   0  0  0  0  0  0  0  0  0  0  0  0
    5.6592   -0.4168   28.5887 C   0  0  0  0  0  0  0  0  0  0  0  0
    6.0570   -1.4149   28.8003 H   0  0  0  0  0  0  0  0  0  0  0  0
    4.7975   -0.2650   29.2494 H   0  0  0  0  0  0  0  0  0  0  0  0
    6.4373    0.3295   28.8599 H   0  0  0  0  0  0  0  0  0  0  0  0
    6.3788   -0.5788   26.2721 C   0  0  0  0  0  0  0  0  0  0  0  0
    6.5967   -1.6567   26.2178 H   0  0  0  0  0  0  0  0  0  0  0  0
    7.3053   -0.0747   26.5998 H   0  0  0  0  0  0  0  0  0  0  0  0
    5.9192   -0.0070   24.9239 C   0  0  2  0  0  0  0  0  0  0  0  0
    5.6594   -0.8308   24.2658 H   0  0  0  0  0  0  0  0  0  0  0  0
    5.4185    0.6926   20.1464 C   0  0  0  0  0  0  0  0  0  0  0  0
    4.9823    0.7133   21.1463 H   0  0  0  0  0  0  0  0  0  0  0  0
    4.7917    1.3108   19.0579 C   0  0  0  0  0  0  0  0  0  0  0  0
    3.8445    1.8245   19.1759 H   0  0  0  0  0  0  0  0  0  0  0  0
  1  2  1  0
  2  3  2  0
  3  4  1  0
  4  5  1  0
  4  6  2  0
  6  7  1  0
  7  8  1  0
  8  9  2  0
  9 10  1  0
 10 11  2  0
 11 12  1  0
 12 13  1  0
 13 14  1  0
 14 15  1  0
 14 16  1  0
 14 17  1  0
 17 18  1  0
 17 19  1  0
 17 20  1  0
 20 21  1  6
 20 22  1  0
 22 23  1  0
 22 24  1  0
 22 25  1  0
 25 26  1  0
 26 27  1  0
 26 28  1  0
 26 29  1  0
 25 30  1  0
 30 31  1  0
 30 32  1  0
 30 33  1  0
 33 34  1  6
  6 35  1  0
 35 36  1  0
 35 37  2  0
 37 38  1  0
 37  2  1  0
 11  7  1  0
 33 13  1  0
 33 20  1  0
M  END
>  <plip>  (1) 
-0.0

>  <filename>  (1) 
[H][c]1[n][c]([H])[c](-[n]2[n][n][n][c]2[O][N]2[C]([H])([H])[C]([H])([H])[C@]3([H])[C]([H])([H])[N]([C]([H])([H])[H])[C]([H])([H])[C@]23[H])[c]([H])[c]1[H]

$$$$
