
     RDKit          3D

 31 31  0  0  0  0  0  0  0  0999 V2000
   11.3405    5.9992   25.6629 C   0  0  0  0  0  0  0  0  0  0  0  0
   10.6878    5.7604   24.3330 C   0  0  0  0  0  0  0  0  0  0  0  0
   10.0192    4.6384   24.0434 C   0  0  0  0  0  0  0  0  0  0  0  0
    9.3716    4.4127   22.7550 C   0  0  0  0  0  0  0  0  0  0  0  0
    8.7229    3.2969   22.3853 C   0  0  0  0  0  0  0  0  0  0  0  0
    8.5321    2.1031   23.2839 C   0  0  0  0  0  0  0  0  0  0  0  0
    7.7585    1.0525   22.6718 O   0  0  0  0  0  0  0  0  0  0  0  0
    8.3609    0.3329   21.7027 C   0  0  0  0  0  0  0  0  0  0  0  0
    9.5102    0.4760   21.3686 O   0  0  0  0  0  0  0  0  0  0  0  0
    7.4037   -0.6596   21.0336 C   0  0  0  0  0  0  0  0  0  0  0  0
    6.6439    0.0005   19.8946 C   0  0  0  0  0  0  0  0  0  0  0  0
    5.4343    0.6515   20.1488 C   0  0  0  0  0  0  0  0  0  0  0  0
    4.7998    1.3167   19.0972 C   0  0  0  0  0  0  0  0  0  0  0  0
    5.3936    1.2985   17.8316 C   0  0  0  0  0  0  0  0  0  0  0  0
    6.5552    0.6819   17.5680 N   0  0  0  0  0  0  0  0  0  0  0  0
    7.1574    0.0569   18.5867 C   0  0  0  0  0  0  0  0  0  0  0  0
    8.1128   -0.4180   18.3667 H   0  0  0  0  0  0  0  0  0  0  0  0
    4.9131    1.7905   16.9887 H   0  0  0  0  0  0  0  0  0  0  0  0
    3.8694    1.8487   19.2497 H   0  0  0  0  0  0  0  0  0  0  0  0
    5.0196    0.6366   21.1604 H   0  0  0  0  0  0  0  0  0  0  0  0
    8.0242   -1.4723   20.6486 H   0  0  0  0  0  0  0  0  0  0  0  0
    6.7090   -1.0781   21.7733 H   0  0  0  0  0  0  0  0  0  0  0  0
    9.4958    1.7141   23.6373 H   0  0  0  0  0  0  0  0  0  0  0  0
    7.9552    2.3816   24.1682 H   0  0  0  0  0  0  0  0  0  0  0  0
    8.2827    3.2254   21.3934 H   0  0  0  0  0  0  0  0  0  0  0  0
    9.4541    5.2627   22.0761 H   0  0  0  0  0  0  0  0  0  0  0  0
    9.9377    3.8470   24.7901 H   0  0  0  0  0  0  0  0  0  0  0  0
   10.7568    6.5309   23.5624 H   0  0  0  0  0  0  0  0  0  0  0  0
   10.6019    5.9386   26.4722 H   0  0  0  0  0  0  0  0  0  0  0  0
   11.8370    6.9707   25.7220 H   0  0  0  0  0  0  0  0  0  0  0  0
   12.0872    5.2240   25.8719 H   0  0  0  0  0  0  0  0  0  0  0  0
  1  2  1  0
  2  3  2  3
  3  4  1  0
  4  5  2  3
  5  6  1  0
  6  7  1  0
  7  8  1  0
  8  9  2  0
  8 10  1  0
 10 11  1  0
 11 12  2  0
 12 13  1  0
 13 14  2  0
 14 15  1  0
 15 16  2  0
 16 17  1  0
 14 18  1  0
 13 19  1  0
 12 20  1  0
 10 21  1  0
 10 22  1  0
  6 23  1  0
  6 24  1  0
  5 25  1  0
  4 26  1  0
  3 27  1  0
  2 28  1  0
  1 29  1  0
  1 30  1  0
  1 31  1  0
 16 11  1  0
M  END
>  <plip>  (1) 
-0.10714285714285714

>  <filename>  (1) 
[H][C]([C]([H])=[C]([H])[C]([H])([H])[O][C](=[O])[C]([H])([H])[c]1[c]([H])[n][c]([H])[c]([H])[c]1[H])=[C]([H])[C]([H])([H])[H]

$$$$
