
     RDKit          3D

 35 37  0  0  0  0  0  0  0  0999 V2000
   10.0562   -6.0533   26.2369 Br  0  0  0  0  0  0  0  0  0  0  0  0
    9.5776   -4.9970   24.7227 C   0  0  0  0  0  0  0  0  0  0  0  0
   10.4485   -3.9949   24.2986 C   0  0  0  0  0  0  0  0  0  0  0  0
   10.0866   -3.1188   23.2722 C   0  0  0  0  0  0  0  0  0  0  0  0
    8.8523   -3.2658   22.6288 C   0  0  0  0  0  0  0  0  0  0  0  0
    8.4291   -2.2943   21.5595 C   0  0  0  0  0  0  0  0  0  0  0  0
    6.9012   -2.2582   21.5146 C   0  0  0  0  0  0  0  0  0  0  0  0
    6.4321   -1.3630   20.4270 N   0  0  0  0  0  4  0  0  0  0  0  0
    6.8056    0.0375   20.6283 C   0  0  0  0  0  0  0  0  0  0  0  0
    6.2765    0.6974   19.3999 C   0  0  0  0  0  0  0  0  0  0  0  0
    5.2020    1.5906   19.4500 C   0  0  0  0  0  0  0  0  0  0  0  0
    4.7702    2.1536   18.2504 C   0  0  0  0  0  0  0  0  0  0  0  0
    5.4026    1.8201   17.0528 C   0  0  0  0  0  0  0  0  0  0  0  0
    6.4400    0.9601   17.0101 N   0  0  0  0  0  0  0  0  0  0  0  0
    6.8707    0.4202   18.1617 C   0  0  0  0  0  0  0  0  0  0  0  0
    7.7326   -0.2426   18.1299 H   0  0  0  0  0  0  0  0  0  0  0  0
    5.0379    2.2819   16.1399 H   0  0  0  0  0  0  0  0  0  0  0  0
    3.9593    2.8707   18.2177 H   0  0  0  0  0  0  0  0  0  0  0  0
    4.7205    1.8569   20.3904 H   0  0  0  0  0  0  0  0  0  0  0  0
    7.8974    0.1493   20.7067 H   0  0  0  0  0  0  0  0  0  0  0  0
    6.3481    0.4566   21.5372 H   0  0  0  0  0  0  0  0  0  0  0  0
    5.4162   -1.4024   20.3589 H   0  0  0  0  0  0  0  0  0  0  0  0
    6.8235   -1.6693   19.5324 H   0  0  0  0  0  0  0  0  0  0  0  0
    6.4005   -3.6969   21.3115 C   0  0  0  0  0  0  0  0  0  0  0  0
    6.8050   -4.5909   22.3705 O   0  0  0  0  0  0  0  0  0  0  0  0
    8.0063   -4.3377   22.9895 C   0  0  0  0  0  0  0  0  0  0  0  0
    8.3658   -5.1739   24.0530 C   0  0  0  0  0  0  0  0  0  0  0  0
    7.6794   -5.9531   24.3631 H   0  0  0  0  0  0  0  0  0  0  0  0
    5.3117   -3.6825   21.2478 H   0  0  0  0  0  0  0  0  0  0  0  0
    6.7676   -4.0692   20.3529 H   0  0  0  0  0  0  0  0  0  0  0  0
    6.5316   -1.9137   22.4929 H   0  0  0  0  0  0  0  0  0  0  0  0
    8.8135   -1.2926   21.7841 H   0  0  0  0  0  0  0  0  0  0  0  0
    8.8449   -2.6059   20.6000 H   0  0  0  0  0  0  0  0  0  0  0  0
   10.7727   -2.3258   22.9840 H   0  0  0  0  0  0  0  0  0  0  0  0
   11.3986   -3.8850   24.8016 H   0  0  0  0  0  0  0  0  0  0  0  0
  1  2  1  0
  2  3  2  0
  3  4  1  0
  4  5  2  0
  5  6  1  0
  6  7  1  0
  7  8  1  0
  8  9  1  0
  9 10  1  0
 10 11  2  0
 11 12  1  0
 12 13  2  0
 13 14  1  0
 14 15  2  0
 15 16  1  0
 13 17  1  0
 12 18  1  0
 11 19  1  0
  9 20  1  0
  9 21  1  0
  8 22  1  0
  8 23  1  0
  7 24  1  0
 24 25  1  0
 25 26  1  0
 26 27  2  0
 27 28  1  0
 24 29  1  0
 24 30  1  0
  7 31  1  0
  6 32  1  0
  6 33  1  0
  4 34  1  0
  3 35  1  0
 27  2  1  0
 26  5  1  0
 15 10  1  0
M  CHG  1   8   1
M  END
>  <plip>  (1) 
-0.16129032258064516

>  <filename>  (1) 
[H][c]1[n][c]([H])[c]([C]([H])([H])[N+]([H])([H])[C]2([H])[C]([H])([H])[O][c]3[c]([H])[c]([Br])[c]([H])[c]([H])[c]3[C]2([H])[H])[c]([H])[c]1[H]

$$$$
