
     RDKit          3D

 52 55  0  0  0  0  0  0  0  0999 V2000
    6.5574   -3.0315   20.7598 C   0  0  0  0  0  0  0  0  0  0  0  0
    6.6606   -1.8204   21.6091 N   0  0  0  0  0  4  0  0  0  0  0  0
    7.2076   -2.0685   22.9911 C   0  0  0  0  0  0  0  0  0  0  0  0
    8.0080   -0.8000   23.3535 C   0  0  0  0  0  0  0  0  0  0  0  0
    7.8353    0.1832   22.1762 C   0  0  1  0  0  0  0  0  0  0  0  0
    9.0296    1.0635   21.8336 C   0  0  0  0  0  0  0  0  0  0  0  0
    9.3664    1.9571   22.9632 N   0  0  0  0  0  4  0  0  0  0  0  0
   10.4741    2.9647   22.7071 C   0  0  0  0  0  0  0  0  0  0  0  0
   11.8286    2.2233   22.4721 C   0  0  0  0  0  0  0  0  0  0  0  0
   13.0780    3.0519   22.8541 C   0  0  0  0  0  0  0  0  0  0  0  0
   12.8012    4.5635   22.7539 C   0  0  0  0  0  0  0  0  0  0  0  0
   11.7142    4.8840   23.7584 C   0  0  0  0  0  0  0  0  0  0  0  0
   11.8359    5.8609   24.7447 C   0  0  0  0  0  0  0  0  0  0  0  0
   10.8234    5.9836   25.7043 C   0  0  0  0  0  0  0  0  0  0  0  0
    9.7124    5.1376   25.6252 C   0  0  0  0  0  0  0  0  0  0  0  0
    9.5667    4.1956   24.6800 N   0  0  0  0  0  0  0  0  0  0  0  0
   10.5637    4.0530   23.7830 C   0  0  0  0  0  0  0  0  0  0  0  0
    8.9100    5.2146   26.3583 H   0  0  0  0  0  0  0  0  0  0  0  0
   10.8851    6.7206   26.4934 H   0  0  0  0  0  0  0  0  0  0  0  0
   12.7234    6.4971   24.7735 H   0  0  0  0  0  0  0  0  0  0  0  0
   13.6974    5.1683   22.9296 H   0  0  0  0  0  0  0  0  0  0  0  0
   12.4576    4.8234   21.7411 H   0  0  0  0  0  0  0  0  0  0  0  0
   13.3449    2.8223   23.8915 H   0  0  0  0  0  0  0  0  0  0  0  0
   13.9448    2.7548   22.2627 H   0  0  0  0  0  0  0  0  0  0  0  0
   11.8700    1.9289   21.4163 H   0  0  0  0  0  0  0  0  0  0  0  0
   11.8341    1.2928   23.0548 H   0  0  0  0  0  0  0  0  0  0  0  0
   10.2260    3.5029   21.7818 H   0  0  0  0  0  0  0  0  0  0  0  0
    9.6713    1.3857   23.7998 H   0  0  0  0  0  0  0  0  0  0  0  0
    8.5283    2.5109   23.2958 H   0  0  0  0  0  0  0  0  0  0  0  0
    8.8202    1.6403   20.9192 H   0  0  0  0  0  0  0  0  0  0  0  0
    9.8880    0.4174   21.5931 H   0  0  0  0  0  0  0  0  0  0  0  0
    7.4607   -0.6956   20.9789 C   0  0  2  0  0  0  0  0  0  0  0  0
    6.6645   -0.0072   19.8965 C   0  0  0  0  0  0  0  0  0  0  0  0
    5.4354    0.6361   20.1310 C   0  0  0  0  0  0  0  0  0  0  0  0
    4.8122    1.3020   19.0742 C   0  0  0  0  0  0  0  0  0  0  0  0
    5.4193    1.2971   17.8135 C   0  0  0  0  0  0  0  0  0  0  0  0
    6.5714    0.6618   17.5623 N   0  0  0  0  0  0  0  0  0  0  0  0
    7.1608    0.0295   18.5837 C   0  0  0  0  0  0  0  0  0  0  0  0
    8.0919   -0.4810   18.3409 H   0  0  0  0  0  0  0  0  0  0  0  0
    4.9622    1.8257   16.9751 H   0  0  0  0  0  0  0  0  0  0  0  0
    3.8765    1.8342   19.2090 H   0  0  0  0  0  0  0  0  0  0  0  0
    4.9738    0.6343   21.1230 H   0  0  0  0  0  0  0  0  0  0  0  0
    8.3690   -1.1343   20.5396 H   0  0  0  0  0  0  0  0  0  0  0  0
    6.9799    0.8357   22.4026 H   0  0  0  0  0  0  0  0  0  0  0  0
    7.6423   -0.3626   24.2883 H   0  0  0  0  0  0  0  0  0  0  0  0
    9.0606   -1.0666   23.5167 H   0  0  0  0  0  0  0  0  0  0  0  0
    6.3814   -2.2706   23.6810 H   0  0  0  0  0  0  0  0  0  0  0  0
    7.8518   -2.9543   22.9755 H   0  0  0  0  0  0  0  0  0  0  0  0
    5.7104   -1.3885   21.7161 H   0  0  0  0  0  0  0  0  0  0  0  0
    6.1698   -2.7693   19.7685 H   0  0  0  0  0  0  0  0  0  0  0  0
    7.5552   -3.4748   20.6148 H   0  0  0  0  0  0  0  0  0  0  0  0
    5.9223   -3.7957   21.2236 H   0  0  0  0  0  0  0  0  0  0  0  0
  1  2  1  0
  2  3  1  0
  3  4  1  0
  4  5  1  0
  5  6  1  0
  6  7  1  0
  7  8  1  0
  8  9  1  0
  9 10  1  0
 10 11  1  0
 11 12  1  0
 12 13  2  0
 13 14  1  0
 14 15  2  0
 15 16  1  0
 16 17  2  0
 15 18  1  0
 14 19  1  0
 13 20  1  0
 11 21  1  0
 11 22  1  0
 10 23  1  0
 10 24  1  0
  9 25  1  0
  9 26  1  0
  8 27  1  0
  7 28  1  0
  7 29  1  0
  6 30  1  0
  6 31  1  0
  5 32  1  0
 32 33  1  0
 33 34  2  0
 34 35  1  0
 35 36  2  0
 36 37  1  0
 37 38  2  0
 38 39  1  0
 36 40  1  0
 35 41  1  0
 34 42  1  0
 32 43  1  6
  5 44  1  1
  4 45  1  0
  4 46  1  0
  3 47  1  0
  3 48  1  0
  2 49  1  0
  1 50  1  0
  1 51  1  0
  1 52  1  0
 32  2  1  0
 38 33  1  0
 17  8  1  0
 17 12  1  0
M  CHG  2   2   1   7   1
M  END
>  <plip>  (1) 
-0.10714285714285714

>  <filename>  (1) 
[H][c]1[n][c]2[c]([c]([H])[c]1[H])[C]([H])([H])[C]([H])([H])[C]([H])([H])[C]2([H])[N+]([H])([H])[C]([H])([H])[C@]1([H])[C]([H])([H])[C]([H])([H])[N+]([H])([C]([H])([H])[H])[C@@]1([H])[c]1[c]([H])[n][c]([H])[c]([H])[c]1[H]

$$$$
