
     RDKit          3D

 34 35  0  0  0  0  0  0  0  0999 V2000
    4.9911    1.7478   17.0333 H   0  0  0  0  0  0  0  0  0  0  0  0
    5.4493    1.2604   17.8906 C   0  0  0  0  0  0  0  0  0  0  0  0
    6.6108    0.6364   17.6565 N   0  0  0  0  0  0  0  0  0  0  0  0
    7.2129    0.0340   18.6773 C   0  0  0  0  0  0  0  0  0  0  0  0
    8.1496   -0.4654   18.4352 H   0  0  0  0  0  0  0  0  0  0  0  0
    6.6661    0.0456   19.9549 C   0  0  0  0  0  0  0  0  0  0  0  0
    7.4995   -0.8869   21.1574 S   0  0  0  0  0  0  0  0  0  0  0  0
    6.4869   -1.6317   21.8631 O   0  0  0  0  0  0  0  0  0  0  0  0
    8.6484   -1.4880   20.5092 O   0  0  0  0  0  0  0  0  0  0  0  0
    8.1221    0.3104   22.2598 N   0  0  0  0  0  0  0  0  0  0  0  0
    8.8002   -0.4094   23.2967 O   0  0  0  0  0  0  0  0  0  0  0  0
    8.0775   -0.6476   24.4724 C   0  0  0  0  0  0  0  0  0  0  0  0
    6.7858   -0.1983   24.7486 C   0  0  0  0  0  0  0  0  0  0  0  0
    6.2597    0.3992   24.0128 H   0  0  0  0  0  0  0  0  0  0  0  0
    6.1699   -0.5520   25.9590 C   0  0  0  0  0  0  0  0  0  0  0  0
    5.1579   -0.2354   26.1828 H   0  0  0  0  0  0  0  0  0  0  0  0
    6.8461   -1.3389   26.8882 C   0  0  0  0  0  0  0  0  0  0  0  0
    6.3318   -1.7425   28.0745 O   0  0  0  0  0  0  0  0  0  0  0  0
    5.0335   -1.3788   28.4848 C   0  0  0  0  0  0  0  0  0  0  0  0
    4.9175   -1.8366   29.4693 H   0  0  0  0  0  0  0  0  0  0  0  0
    4.2630   -1.7693   27.8059 H   0  0  0  0  0  0  0  0  0  0  0  0
    4.9166   -0.2899   28.5727 H   0  0  0  0  0  0  0  0  0  0  0  0
    8.1577   -1.7747   26.6176 C   0  0  0  0  0  0  0  0  0  0  0  0
    8.6507   -2.3841   27.3720 H   0  0  0  0  0  0  0  0  0  0  0  0
    8.7712   -1.4284   25.4163 C   0  0  0  0  0  0  0  0  0  0  0  0
    9.7796   -1.7627   25.1838 H   0  0  0  0  0  0  0  0  0  0  0  0
    9.1466    1.1417   21.6089 C   0  0  0  0  0  0  0  0  0  0  0  0
    8.6833    1.7257   20.8105 H   0  0  0  0  0  0  0  0  0  0  0  0
    9.9795    0.5473   21.2209 H   0  0  0  0  0  0  0  0  0  0  0  0
    9.5122    1.8317   22.3667 H   0  0  0  0  0  0  0  0  0  0  0  0
    5.4382    0.6591   20.2183 C   0  0  0  0  0  0  0  0  0  0  0  0
    4.9538    0.6385   21.1981 H   0  0  0  0  0  0  0  0  0  0  0  0
    4.8322    1.2971   19.1444 C   0  0  0  0  0  0  0  0  0  0  0  0
    3.8947    1.8238   19.2598 H   0  0  0  0  0  0  0  0  0  0  0  0
  1  2  1  0
  2  3  2  0
  3  4  1  0
  4  5  1  0
  4  6  2  0
  6  7  1  0
  7  8  2  0
  7  9  2  0
  7 10  1  0
 10 11  1  0
 11 12  1  0
 12 13  2  0
 13 14  1  0
 13 15  1  0
 15 16  1  0
 15 17  2  0
 17 18  1  0
 18 19  1  0
 19 20  1  0
 19 21  1  0
 19 22  1  0
 17 23  1  0
 23 24  1  0
 23 25  2  0
 25 26  1  0
 10 27  1  0
 27 28  1  0
 27 29  1  0
 27 30  1  0
  6 31  1  0
 31 32  1  0
 31 33  2  0
 33 34  1  0
 33  2  1  0
 25 12  1  0
M  END
>  <plip>  (1) 
-0.034482758620689655

>  <filename>  (1) 
[H][c]1[n][c]([H])[c]([S](=[O])(=[O])[N]([O][c]2[c]([H])[c]([H])[c]([O][C]([H])([H])[H])[c]([H])[c]2[H])[C]([H])([H])[H])[c]([H])[c]1[H]

$$$$
