
     RDKit          3D

 27 29  0  0  0  0  0  0  0  0999 V2000
    9.2169   -0.7717   20.2797 H   0  0  0  0  0  0  0  0  0  0  0  0
    8.4487   -0.9864   21.0369 C   0  0  0  0  0  0  0  0  0  0  0  0
    7.2292   -0.6212   20.9595 N   0  0  0  0  0  0  0  0  0  0  0  0
    6.6728    0.0310   19.8345 C   0  0  0  0  0  0  0  0  0  0  0  0
    7.1764    0.0735   18.5119 C   0  0  0  0  0  0  0  0  0  0  0  0
    8.1085   -0.4331   18.2646 H   0  0  0  0  0  0  0  0  0  0  0  0
    6.5605    0.7037   17.5004 N   0  0  0  0  0  0  0  0  0  0  0  0
    5.4022    1.3261   17.7699 C   0  0  0  0  0  0  0  0  0  0  0  0
    4.9275    1.8419   16.9410 H   0  0  0  0  0  0  0  0  0  0  0  0
    4.8076    1.3337   19.0400 C   0  0  0  0  0  0  0  0  0  0  0  0
    3.8709    1.8562   19.2018 H   0  0  0  0  0  0  0  0  0  0  0  0
    5.4492    0.6754   20.0842 C   0  0  0  0  0  0  0  0  0  0  0  0
    5.0577    0.6343   21.1010 H   0  0  0  0  0  0  0  0  0  0  0  0
    8.9637   -1.7514   22.1842 C   0  0  0  0  0  0  0  0  0  0  0  0
   10.1449   -2.3191   22.2425 N   0  0  0  0  0  0  0  0  0  0  0  0
   10.1556   -2.9669   23.4609 C   0  0  0  0  0  0  0  0  0  0  0  0
   11.1569   -3.7455   24.0635 C   0  0  0  0  0  0  0  0  0  0  0  0
   12.1191   -3.8250   23.5735 H   0  0  0  0  0  0  0  0  0  0  0  0
   10.8962   -4.3353   25.2965 C   0  0  0  0  0  0  0  0  0  0  0  0
   11.6563   -4.9650   25.7484 H   0  0  0  0  0  0  0  0  0  0  0  0
    9.6792   -4.1078   25.9789 C   0  0  0  0  0  0  0  0  0  0  0  0
    9.5304   -4.5502   26.9629 H   0  0  0  0  0  0  0  0  0  0  0  0
    8.6913   -3.2949   25.4259 C   0  0  0  0  0  0  0  0  0  0  0  0
    7.7679   -3.0887   25.9607 H   0  0  0  0  0  0  0  0  0  0  0  0
    8.9368   -2.7613   24.1511 C   0  0  0  0  0  0  0  0  0  0  0  0
    8.1986   -1.9774   23.3053 N   0  0  0  0  0  0  0  0  0  0  0  0
    7.2201   -1.7481   23.3756 H   0  0  0  0  0  0  0  0  0  0  0  0
  1  2  1  0
  2  3  2  3
  3  4  1  0
  4  5  2  0
  5  6  1  0
  5  7  1  0
  7  8  2  0
  8  9  1  0
  8 10  1  0
 10 11  1  0
 10 12  2  0
 12 13  1  0
  2 14  1  0
 14 15  2  0
 15 16  1  0
 16 17  2  0
 17 18  1  0
 17 19  1  0
 19 20  1  0
 19 21  2  0
 21 22  1  0
 21 23  1  0
 23 24  1  0
 23 25  2  0
 25 26  1  0
 26 27  1  0
 12  4  1  0
 26 14  1  0
 25 16  1  0
M  END
>  <plip>  (1) 
-0.10714285714285714

>  <filename>  (1) 
[H][C](=[N][c]1[c]([H])[n][c]([H])[c]([H])[c]1[H])[c]1[n][c]2[c]([H])[c]([H])[c]([H])[c]([H])[c]2[n]1[H]

$$$$
