
     RDKit          3D

 27 28  0  0  0  0  0  0  0  0999 V2000
    4.9221    1.7801   16.9946 H   0  0  0  0  0  0  0  0  0  0  0  0
    5.4041    1.2919   17.8355 C   0  0  0  0  0  0  0  0  0  0  0  0
    6.5681    0.6776   17.5761 N   0  0  0  0  0  0  0  0  0  0  0  0
    7.1686    0.0583   18.5955 C   0  0  0  0  0  0  0  0  0  0  0  0
    8.1146   -0.4338   18.3768 H   0  0  0  0  0  0  0  0  0  0  0  0
    6.6429    0.0250   19.8976 C   0  0  0  0  0  0  0  0  0  0  0  0
    7.3903   -0.6816   20.9374 C   0  0  0  0  0  0  0  0  0  0  0  0
    8.1410   -1.7403   20.7360 N   0  0  0  0  0  0  0  0  0  0  0  0
    8.6508   -2.1422   21.9339 N   0  0  0  0  0  0  0  0  0  0  0  0
    8.2208   -1.3154   22.8492 C   0  0  0  0  0  0  0  0  0  0  0  0
    8.4731   -1.3475   23.8999 H   0  0  0  0  0  0  0  0  0  0  0  0
    7.4244   -0.3699   22.2679 N   0  0  0  0  0  0  0  0  0  0  0  0
    6.7596    0.7144   22.8120 O   0  0  0  0  0  0  0  0  0  0  0  0
    7.0202    1.0314   24.1863 C   0  0  0  0  0  0  0  0  0  0  0  0
    6.8886    0.1526   24.8272 H   0  0  0  0  0  0  0  0  0  0  0  0
    6.2070    1.7168   24.4146 H   0  0  0  0  0  0  0  0  0  0  0  0
    8.3544    1.7243   24.4107 C   0  0  0  0  0  0  0  0  0  0  0  0
    8.4046    2.6115   23.7695 H   0  0  0  0  0  0  0  0  0  0  0  0
    9.1606    1.0598   24.0855 H   0  0  0  0  0  0  0  0  0  0  0  0
    8.5647    2.1244   25.8710 C   0  0  0  0  0  0  0  0  0  0  0  0
    9.5372    2.6059   26.0134 H   0  0  0  0  0  0  0  0  0  0  0  0
    8.5332    1.2506   26.5320 H   0  0  0  0  0  0  0  0  0  0  0  0
    7.7979    2.8274   26.2182 H   0  0  0  0  0  0  0  0  0  0  0  0
    5.4206    0.6603   20.1566 C   0  0  0  0  0  0  0  0  0  0  0  0
    4.9972    0.6457   21.1651 H   0  0  0  0  0  0  0  0  0  0  0  0
    4.7968    1.3098   19.0981 C   0  0  0  0  0  0  0  0  0  0  0  0
    3.8677    1.8457   19.2544 H   0  0  0  0  0  0  0  0  0  0  0  0
  1  2  1  0
  2  3  2  0
  3  4  1  0
  4  5  1  0
  4  6  2  0
  6  7  1  0
  7  8  2  0
  8  9  1  0
  9 10  2  0
 10 11  1  0
 10 12  1  0
 12 13  1  0
 13 14  1  0
 14 15  1  0
 14 16  1  0
 14 17  1  0
 17 18  1  0
 17 19  1  0
 17 20  1  0
 20 21  1  0
 20 22  1  0
 20 23  1  0
  6 24  1  0
 24 25  1  0
 24 26  2  0
 26 27  1  0
 26  2  1  0
 12  7  1  0
M  END
>  <plip>  (1) 
-0.034482758620689655

>  <filename>  (1) 
[H][c]1[n][c]([H])[c](-[c]2[n][n][c]([H])[n]2[O][C]([H])([H])[C]([H])([H])[C]([H])([H])[H])[c]([H])[c]1[H]

$$$$
