
     RDKit          3D

 49 51  0  0  0  0  0  0  0  0999 V2000
    7.0276    2.9796   23.4071 C   0  0  0  0  0  0  0  0  0  0  0  0
    8.3984    2.2625   23.2932 C   0  0  0  0  0  0  0  0  0  0  0  0
    8.4591    1.2560   22.1196 C   0  0  0  0  0  0  0  0  0  0  0  0
    9.2316    1.3717   21.1824 O   0  0  0  0  0  0  0  0  0  0  0  0
    7.5649    0.2363   22.2049 N   0  0  0  0  0  0  0  0  0  0  0  0
    7.3305   -0.6782   21.1130 C   0  0  0  0  0  0  0  0  0  0  0  0
    6.5426   -1.9059   21.6196 C   0  0  0  0  0  0  0  0  0  0  0  0
    6.6288   -3.0758   20.6431 C   0  0  0  0  0  0  0  0  0  0  0  0
    5.8527   -4.3548   20.9333 C   0  0  0  0  0  0  0  0  0  0  0  0
    5.7800   -5.0557   19.6960 O   0  0  0  0  0  0  0  0  0  0  0  0
    5.6074   -5.9856   19.8751 H   0  0  0  0  0  0  0  0  0  0  0  0
    4.8462   -4.1392   21.3268 H   0  0  0  0  0  0  0  0  0  0  0  0
    6.3802   -4.9542   21.6958 H   0  0  0  0  0  0  0  0  0  0  0  0
    6.3195   -2.7115   19.6549 H   0  0  0  0  0  0  0  0  0  0  0  0
    7.6803   -3.3680   20.6020 H   0  0  0  0  0  0  0  0  0  0  0  0
    6.9292   -2.1897   22.6099 H   0  0  0  0  0  0  0  0  0  0  0  0
    5.4974   -1.6072   21.7402 H   0  0  0  0  0  0  0  0  0  0  0  0
    6.6192    0.0523   19.9815 C   0  0  0  0  0  0  0  0  0  0  0  0
    5.3959    0.7148   20.1693 C   0  0  0  0  0  0  0  0  0  0  0  0
    4.7939    1.3334   19.0738 C   0  0  0  0  0  0  0  0  0  0  0  0
    5.4357    1.2867   17.8311 C   0  0  0  0  0  0  0  0  0  0  0  0
    6.6122    0.6778   17.6318 N   0  0  0  0  0  0  0  0  0  0  0  0
    7.1782    0.0917   18.6988 C   0  0  0  0  0  0  0  0  0  0  0  0
    8.1385   -0.3938   18.5192 H   0  0  0  0  0  0  0  0  0  0  0  0
    4.9825    1.7591   16.9603 H   0  0  0  0  0  0  0  0  0  0  0  0
    3.8508    1.8565   19.1733 H   0  0  0  0  0  0  0  0  0  0  0  0
    4.9293    0.7600   21.1574 H   0  0  0  0  0  0  0  0  0  0  0  0
    8.3076   -1.0136   20.7293 H   0  0  0  0  0  0  0  0  0  0  0  0
    7.1194    0.0653   23.0942 H   0  0  0  0  0  0  0  0  0  0  0  0
    9.5265    3.3256   23.1818 C   0  0  0  0  0  0  0  0  0  0  0  0
   10.9112    2.7292   23.3434 C   0  0  0  0  0  0  0  0  0  0  0  0
   12.0453    3.2179   22.6869 C   0  0  0  0  0  0  0  0  0  0  0  0
   13.3019    2.6403   22.8948 C   0  0  0  0  0  0  0  0  0  0  0  0
   13.4248    1.5393   23.7535 C   0  0  0  0  0  0  0  0  0  0  0  0
   12.3140    1.0537   24.4429 C   0  0  0  0  0  0  0  0  0  0  0  0
   11.0654    1.6477   24.2257 C   0  0  0  0  0  0  0  0  0  0  0  0
    9.9262    1.1653   24.8801 N   0  0  0  0  0  0  0  0  0  0  0  0
    8.6416    1.3040   24.4526 C   0  0  0  0  0  0  0  0  0  0  0  0
    7.7688    0.6051   24.9410 O   0  0  0  0  0  0  0  0  0  0  0  0
   10.0070    0.4650   25.5959 H   0  0  0  0  0  0  0  0  0  0  0  0
   12.4059    0.2189   25.1352 H   0  0  0  0  0  0  0  0  0  0  0  0
   14.3868    1.0491   23.8651 H   0  0  0  0  0  0  0  0  0  0  0  0
   14.1751    3.0527   22.4000 H   0  0  0  0  0  0  0  0  0  0  0  0
   11.9408    4.0526   21.9945 H   0  0  0  0  0  0  0  0  0  0  0  0
    9.3649    4.0952   23.9536 H   0  0  0  0  0  0  0  0  0  0  0  0
    9.4362    3.8224   22.2114 H   0  0  0  0  0  0  0  0  0  0  0  0
    7.0198    3.6523   24.2750 H   0  0  0  0  0  0  0  0  0  0  0  0
    6.8386    3.5805   22.5080 H   0  0  0  0  0  0  0  0  0  0  0  0
    6.2037    2.2683   23.5351 H   0  0  0  0  0  0  0  0  0  0  0  0
  1  2  1  0
  2  3  1  0
  3  4  2  0
  3  5  1  0
  5  6  1  0
  6  7  1  0
  7  8  1  0
  8  9  1  0
  9 10  1  0
 10 11  1  0
  9 12  1  0
  9 13  1  0
  8 14  1  0
  8 15  1  0
  7 16  1  0
  7 17  1  0
  6 18  1  0
 18 19  2  0
 19 20  1  0
 20 21  2  0
 21 22  1  0
 22 23  2  0
 23 24  1  0
 21 25  1  0
 20 26  1  0
 19 27  1  0
  6 28  1  0
  5 29  1  0
  2 30  1  0
 30 31  1  0
 31 32  2  0
 32 33  1  0
 33 34  2  0
 34 35  1  0
 35 36  2  0
 36 37  1  0
 37 38  1  0
 38 39  2  0
 37 40  1  0
 35 41  1  0
 34 42  1  0
 33 43  1  0
 32 44  1  0
 30 45  1  0
 30 46  1  0
  1 47  1  0
  1 48  1  0
  1 49  1  0
 38  2  1  0
 23 18  1  0
 36 31  1  0
M  END
>  <plip>  (1) 
-0.2413793103448276

>  <filename>  (1) 
[H][O][C]([H])([H])[C]([H])([H])[C]([H])([H])[C]([H])([c]1[c]([H])[n][c]([H])[c]([H])[c]1[H])[N]([H])[C](=[O])[C]1([C]([H])([H])[H])[C](=[O])[N]([H])[c]2[c]([H])[c]([H])[c]([H])[c]([H])[c]2[C]1([H])[H]

$$$$
