
     RDKit          3D

 35 36  0  0  0  0  0  0  0  0999 V2000
    6.6839   -2.0321   21.2920 C   0  0  0  0  0  0  0  0  0  0  0  0
    7.4231   -0.7456   20.9595 C   0  0  0  0  0  0  0  0  0  0  0  0
    7.5198    0.0737   22.1599 N   0  0  0  0  0  0  0  0  0  0  0  0
    8.3157    1.2277   22.2367 C   0  0  0  0  0  0  0  0  0  0  0  0
    8.9925    1.4555   21.2259 O   0  0  0  0  0  0  0  0  0  0  0  0
    8.3697    2.1747   23.4435 C   0  0  0  0  0  0  0  0  0  0  0  0
    7.6416    1.9868   24.4270 O   0  0  0  0  0  0  0  0  0  0  0  0
    9.2182    3.2898   23.5239 N   0  0  0  0  0  0  0  0  0  0  0  0
    9.1675    4.2505   24.5300 C   0  0  0  0  0  0  0  0  0  0  0  0
   10.3511    4.8372   24.9850 C   0  0  0  0  0  0  0  0  0  0  0  0
   12.0290    4.3302   24.1934 Br  0  0  0  0  0  0  0  0  0  0  0  0
   10.2975    5.7731   26.0301 C   0  0  0  0  0  0  0  0  0  0  0  0
   11.4368    6.2841   26.5572 F   0  0  0  0  0  0  0  0  0  0  0  0
    9.0568    6.1850   26.5409 C   0  0  0  0  0  0  0  0  0  0  0  0
    7.8637    5.6477   26.0346 C   0  0  0  0  0  0  0  0  0  0  0  0
    7.9335    4.6553   25.0464 C   0  0  0  0  0  0  0  0  0  0  0  0
    7.0375    4.2064   24.6275 H   0  0  0  0  0  0  0  0  0  0  0  0
    6.8984    6.0003   26.4022 H   0  0  0  0  0  0  0  0  0  0  0  0
    9.0343    6.9309   27.3307 H   0  0  0  0  0  0  0  0  0  0  0  0
    9.9896    3.3778   22.8642 H   0  0  0  0  0  0  0  0  0  0  0  0
    6.8930   -0.1568   22.9312 H   0  0  0  0  0  0  0  0  0  0  0  0
    6.6645    0.0051   19.8979 C   0  0  0  0  0  0  0  0  0  0  0  0
    5.4463    0.6450   20.1528 C   0  0  0  0  0  0  0  0  0  0  0  0
    4.8176    1.2986   19.0953 C   0  0  0  0  0  0  0  0  0  0  0  0
    5.4053    1.2959   17.8280 C   0  0  0  0  0  0  0  0  0  0  0  0
    6.5708    0.6764   17.5762 N   0  0  0  0  0  0  0  0  0  0  0  0
    7.1843    0.0547   18.5993 C   0  0  0  0  0  0  0  0  0  0  0  0
    8.1327   -0.4403   18.4139 H   0  0  0  0  0  0  0  0  0  0  0  0
    4.9050    1.8183   17.0192 H   0  0  0  0  0  0  0  0  0  0  0  0
    3.8824    1.8271   19.2384 H   0  0  0  0  0  0  0  0  0  0  0  0
    5.0012    0.6433   21.1453 H   0  0  0  0  0  0  0  0  0  0  0  0
    8.4281   -0.9991   20.5917 H   0  0  0  0  0  0  0  0  0  0  0  0
    7.2130   -2.5830   22.0745 H   0  0  0  0  0  0  0  0  0  0  0  0
    6.6121   -2.6642   20.4005 H   0  0  0  0  0  0  0  0  0  0  0  0
    5.6750   -1.8024   21.6475 H   0  0  0  0  0  0  0  0  0  0  0  0
  1  2  1  0
  2  3  1  0
  3  4  1  0
  4  5  2  0
  4  6  1  0
  6  7  2  0
  6  8  1  0
  8  9  1  0
  9 10  2  0
 10 11  1  0
 10 12  1  0
 12 13  1  0
 12 14  2  0
 14 15  1  0
 15 16  2  0
 16 17  1  0
 15 18  1  0
 14 19  1  0
  8 20  1  0
  3 21  1  0
  2 22  1  0
 22 23  2  0
 23 24  1  0
 24 25  2  0
 25 26  1  0
 26 27  2  0
 27 28  1  0
 25 29  1  0
 24 30  1  0
 23 31  1  0
  2 32  1  0
  1 33  1  0
  1 34  1  0
  1 35  1  0
 16  9  1  0
 27 22  1  0
M  END
>  <plip>  (1) 
-0.17857142857142858

>  <filename>  (1) 
[H][c]1[n][c]([H])[c]([C]([H])([N]([H])[C](=[O])[C](=[O])[N]([H])[c]2[c]([H])[c]([H])[c]([H])[c]([F])[c]2[Br])[C]([H])([H])[H])[c]([H])[c]1[H]

$$$$
