
     RDKit          3D

 40 42  0  0  0  0  0  0  0  0999 V2000
    4.9399    1.7957   16.9782 H   0  0  0  0  0  0  0  0  0  0  0  0
    5.4066    1.2977   17.8292 C   0  0  0  0  0  0  0  0  0  0  0  0
    6.5766    0.6838   17.5860 N   0  0  0  0  0  0  0  0  0  0  0  0
    7.1808    0.0719   18.6153 C   0  0  0  0  0  0  0  0  0  0  0  0
    8.1289   -0.4123   18.3704 H   0  0  0  0  0  0  0  0  0  0  0  0
    6.6589    0.0144   19.9150 C   0  0  0  0  0  0  0  0  0  0  0  0
    7.3884   -0.6914   21.0191 C   0  0  0  0  0  0  0  0  0  0  0  0
    8.4222    0.0872   21.6782 N   0  0  0  0  0  0  0  0  0  0  0  0
    9.0982    0.3727   20.9676 H   0  0  0  0  0  0  0  0  0  0  0  0
    7.8885    1.1976   22.3853 N   0  0  0  0  0  0  0  0  0  0  0  0
    8.1663    1.0998   23.8189 C   0  0  0  0  0  0  0  0  0  0  0  0
    8.1557    0.0344   24.0687 H   0  0  0  0  0  0  0  0  0  0  0  0
    9.1749    1.4838   24.0682 H   0  0  0  0  0  0  0  0  0  0  0  0
    7.0887    1.8341   24.6440 C   0  0  0  0  0  0  0  0  0  0  0  0
    6.1330    1.7144   24.1070 H   0  0  0  0  0  0  0  0  0  0  0  0
    6.9574    1.3463   25.6197 H   0  0  0  0  0  0  0  0  0  0  0  0
    7.3372    3.2611   24.9025 N   0  0  0  0  0  0  0  0  0  0  0  0
    8.0719    3.4940   26.1384 C   0  0  0  0  0  0  0  0  0  0  0  0
    8.1841    4.5711   26.3071 H   0  0  0  0  0  0  0  0  0  0  0  0
    9.0818    3.0386   26.1438 H   0  0  0  0  0  0  0  0  0  0  0  0
    7.5119    3.0821   26.9873 H   0  0  0  0  0  0  0  0  0  0  0  0
    7.8926    4.0410   23.7902 C   0  0  0  0  0  0  0  0  0  0  0  0
    7.6463    5.0924   24.0005 H   0  0  0  0  0  0  0  0  0  0  0  0
    9.0048    3.9855   23.7703 H   0  0  0  0  0  0  0  0  0  0  0  0
    7.3815    3.6563   22.3920 C   0  0  0  0  0  0  0  0  0  0  0  0
    7.5099    4.5295   21.7376 H   0  0  0  0  0  0  0  0  0  0  0  0
    6.3078    3.4218   22.4234 H   0  0  0  0  0  0  0  0  0  0  0  0
    8.1529    2.4890   21.7562 C   0  0  0  0  0  0  0  0  0  0  0  0
    9.2402    2.7171   21.7655 H   0  0  0  0  0  0  0  0  0  0  0  0
    7.8594    2.3797   20.7037 H   0  0  0  0  0  0  0  0  0  0  0  0
    6.6869   -1.6843   21.9051 C   0  0  0  0  0  0  0  0  0  0  0  0
    5.6442   -1.8918   21.6775 H   0  0  0  0  0  0  0  0  0  0  0  0
    6.9432   -1.6847   22.9633 H   0  0  0  0  0  0  0  0  0  0  0  0
    7.6770   -2.1433   20.8711 C   0  0  0  0  0  0  0  0  0  0  0  0
    8.6682   -2.5037   21.1248 H   0  0  0  0  0  0  0  0  0  0  0  0
    7.1925   -2.6075   20.0244 H   0  0  0  0  0  0  0  0  0  0  0  0
    5.4423    0.6719   20.1472 C   0  0  0  0  0  0  0  0  0  0  0  0
    5.0403    0.6714   21.1603 H   0  0  0  0  0  0  0  0  0  0  0  0
    4.8004    1.3172   19.0887 C   0  0  0  0  0  0  0  0  0  0  0  0
    3.8589    1.8427   19.2270 H   0  0  0  0  0  0  0  0  0  0  0  0
  1  2  1  0
  2  3  2  0
  3  4  1  0
  4  5  1  0
  4  6  2  0
  6  7  1  0
  7  8  1  0
  8  9  1  0
  8 10  1  0
 10 11  1  0
 11 12  1  0
 11 13  1  0
 11 14  1  0
 14 15  1  0
 14 16  1  0
 14 17  1  0
 17 18  1  0
 18 19  1  0
 18 20  1  0
 18 21  1  0
 17 22  1  0
 22 23  1  0
 22 24  1  0
 22 25  1  0
 25 26  1  0
 25 27  1  0
 25 28  1  0
 28 29  1  0
 28 30  1  0
  7 31  1  0
 31 32  1  0
 31 33  1  0
 31 34  1  0
 34 35  1  0
 34 36  1  0
  6 37  1  0
 37 38  1  0
 37 39  2  0
 39 40  1  0
 39  2  1  0
 34  7  1  0
 28 10  1  0
M  END
>  <plip>  (1) 
-0.0

>  <filename>  (1) 
[H][c]1[n][c]([H])[c]([C]2([N]([H])[N]3[C]([H])([H])[C]([H])([H])[N]([C]([H])([H])[H])[C]([H])([H])[C]([H])([H])[C]3([H])[H])[C]([H])([H])[C]2([H])[H])[c]([H])[c]1[H]

$$$$
