
     RDKit          3D

 41 42  0  0  0  0  0  0  0  0999 V2000
    3.7081   -0.9118   31.7822 C   0  0  0  0  0  0  0  0  0  0  0  0
    3.9278    0.3505   31.1825 O   0  0  0  0  0  0  0  0  0  0  0  0
    4.7899    0.4742   30.1426 C   0  0  0  0  0  0  0  0  0  0  0  0
    5.5233   -0.5727   29.5704 C   0  0  0  0  0  0  0  0  0  0  0  0
    6.3774   -0.3118   28.4920 C   0  0  0  0  0  0  0  0  0  0  0  0
    6.5251    0.9868   27.9867 C   0  0  0  0  0  0  0  0  0  0  0  0
    7.4709    1.3420   26.8730 C   0  0  0  0  0  0  0  0  0  0  0  0
    7.8122    2.4940   26.6950 O   0  0  0  0  0  0  0  0  0  0  0  0
    8.0203    0.2028   25.9549 C   0  0  0  0  0  0  0  0  0  0  0  0
    8.4530    0.5965   24.6155 N   0  0  0  0  0  0  0  0  0  0  0  0
    7.5783    1.0401   23.6714 C   0  0  0  0  0  0  0  0  0  0  0  0
    6.3695    1.0325   23.8319 O   0  0  0  0  0  0  0  0  0  0  0  0
    8.2050    1.5232   22.3718 C   0  0  0  0  0  0  0  0  0  0  0  0
    8.9542    0.1870   21.3734 S   0  0  0  0  0  0  0  0  0  0  0  0
    7.4174   -0.7185   20.9709 C   0  0  0  0  0  0  0  0  0  0  0  0
    6.6283   -0.0241   19.8917 C   0  0  0  0  0  0  0  0  0  0  0  0
    5.4231    0.6412   20.1433 C   0  0  0  0  0  0  0  0  0  0  0  0
    4.7873    1.3116   19.0921 C   0  0  0  0  0  0  0  0  0  0  0  0
    5.3875    1.3010   17.8303 C   0  0  0  0  0  0  0  0  0  0  0  0
    6.5529    0.6849   17.5728 N   0  0  0  0  0  0  0  0  0  0  0  0
    7.1513    0.0546   18.5879 C   0  0  0  0  0  0  0  0  0  0  0  0
    8.1123   -0.4111   18.3638 H   0  0  0  0  0  0  0  0  0  0  0  0
    4.9237    1.8043   16.9831 H   0  0  0  0  0  0  0  0  0  0  0  0
    3.8599    1.8533   19.2380 H   0  0  0  0  0  0  0  0  0  0  0  0
    5.0072    0.6544   21.1532 H   0  0  0  0  0  0  0  0  0  0  0  0
    6.8225   -0.8344   21.8822 H   0  0  0  0  0  0  0  0  0  0  0  0
    7.7414   -1.7188   20.6678 H   0  0  0  0  0  0  0  0  0  0  0  0
    8.9682    2.2905   22.5347 H   0  0  0  0  0  0  0  0  0  0  0  0
    7.3875    1.9765   21.8104 H   0  0  0  0  0  0  0  0  0  0  0  0
    9.4279    0.7332   24.4019 H   0  0  0  0  0  0  0  0  0  0  0  0
    7.2284   -0.5517   25.8593 H   0  0  0  0  0  0  0  0  0  0  0  0
    8.8678   -0.2568   26.4747 H   0  0  0  0  0  0  0  0  0  0  0  0
    5.7786    2.0314   28.5801 C   0  0  0  0  0  0  0  0  0  0  0  0
    4.9197    1.7807   29.6381 C   0  0  0  0  0  0  0  0  0  0  0  0
    4.3374    2.5675   30.1076 H   0  0  0  0  0  0  0  0  0  0  0  0
    5.8903    3.0421   28.1925 H   0  0  0  0  0  0  0  0  0  0  0  0
    6.9414   -1.1415   28.0660 H   0  0  0  0  0  0  0  0  0  0  0  0
    5.4301   -1.5747   29.9720 H   0  0  0  0  0  0  0  0  0  0  0  0
    2.9797   -0.7229   32.5750 H   0  0  0  0  0  0  0  0  0  0  0  0
    4.6323   -1.3227   32.2146 H   0  0  0  0  0  0  0  0  0  0  0  0
    3.2964   -1.6355   31.0635 H   0  0  0  0  0  0  0  0  0  0  0  0
  1  2  1  0
  2  3  1  0
  3  4  2  0
  4  5  1  0
  5  6  2  0
  6  7  1  0
  7  8  2  0
  7  9  1  0
  9 10  1  0
 10 11  1  0
 11 12  2  0
 11 13  1  0
 13 14  1  0
 14 15  1  0
 15 16  1  0
 16 17  2  0
 17 18  1  0
 18 19  2  0
 19 20  1  0
 20 21  2  0
 21 22  1  0
 19 23  1  0
 18 24  1  0
 17 25  1  0
 15 26  1  0
 15 27  1  0
 13 28  1  0
 13 29  1  0
 10 30  1  0
  9 31  1  0
  9 32  1  0
  6 33  1  0
 33 34  2  0
 34 35  1  0
 33 36  1  0
  5 37  1  0
  4 38  1  0
  1 39  1  0
  1 40  1  0
  1 41  1  0
 34  3  1  0
 21 16  1  0
M  END
>  <plip>  (1) 
-0.03571428571428571

>  <filename>  (1) 
[H][c]1[n][c]([H])[c]([C]([H])([H])[S][C]([H])([H])[C](=[O])[N]([H])[C]([H])([H])[C](=[O])[c]2[c]([H])[c]([H])[c]([O][C]([H])([H])[H])[c]([H])[c]2[H])[c]([H])[c]1[H]

$$$$
