
     RDKit          3D

 53 55  0  0  0  0  0  0  0  0999 V2000
    8.4310   -6.2162   26.5773 C   0  0  0  0  0  0  0  0  0  0  0  0
    8.3662   -4.8463   25.9897 N   0  0  0  0  0  4  0  0  0  0  0  0
    9.7342   -4.3810   25.5043 C   0  0  0  0  0  0  0  0  0  0  0  0
    9.4857   -3.7154   24.1506 C   0  0  0  0  0  0  0  0  0  0  0  0
    8.2274   -4.4259   23.6258 C   0  0  2  0  0  0  0  0  0  0  0  0
    7.4553   -3.8284   22.4714 C   0  0  0  0  0  0  0  0  0  0  0  0
    6.3569   -4.2659   22.1697 O   0  0  0  0  0  0  0  0  0  0  0  0
    8.0655   -2.8214   21.7941 N   0  0  0  0  0  0  0  0  0  0  0  0
    7.3912   -1.9248   20.8873 C   0  0  0  0  0  0  0  0  0  0  0  0
    7.4829   -0.4127   21.2534 C   0  0  0  0  0  0  0  0  0  0  0  0
    8.9620    0.0460   21.2187 C   0  0  0  0  0  0  0  0  0  0  0  0
    9.4695   -0.1906   20.2788 H   0  0  0  0  0  0  0  0  0  0  0  0
    9.0358    1.1253   21.3771 H   0  0  0  0  0  0  0  0  0  0  0  0
    9.5367   -0.4343   22.0164 H   0  0  0  0  0  0  0  0  0  0  0  0
    6.9521   -0.1826   22.6838 C   0  0  0  0  0  0  0  0  0  0  0  0
    6.6396    0.8549   22.8372 H   0  0  0  0  0  0  0  0  0  0  0  0
    7.7406   -0.4033   23.4169 H   0  0  0  0  0  0  0  0  0  0  0  0
    6.1249   -0.8586   22.9105 H   0  0  0  0  0  0  0  0  0  0  0  0
    6.6966    0.2886   20.1286 C   0  0  0  0  0  0  0  0  0  0  0  0
    5.4255    0.8573   20.2553 C   0  0  0  0  0  0  0  0  0  0  0  0
    4.7950    1.3799   19.1195 C   0  0  0  0  0  0  0  0  0  0  0  0
    5.4548    1.3208   17.8905 C   0  0  0  0  0  0  0  0  0  0  0  0
    6.6600    0.7575   17.7321 N   0  0  0  0  0  0  0  0  0  0  0  0
    7.2379    0.2483   18.8235 C   0  0  0  0  0  0  0  0  0  0  0  0
    8.1805   -0.2670   18.6382 H   0  0  0  0  0  0  0  0  0  0  0  0
    5.0031    1.7282   16.9903 H   0  0  0  0  0  0  0  0  0  0  0  0
    3.8128    1.8347   19.1764 H   0  0  0  0  0  0  0  0  0  0  0  0
    4.9267    0.8743   21.2253 H   0  0  0  0  0  0  0  0  0  0  0  0
    6.3417   -2.2273   20.7932 H   0  0  0  0  0  0  0  0  0  0  0  0
    7.8272   -2.0073   19.8971 H   0  0  0  0  0  0  0  0  0  0  0  0
    9.0499   -2.6843   21.9423 H   0  0  0  0  0  0  0  0  0  0  0  0
    7.3268   -4.6277   24.8652 C   0  0  2  0  0  0  0  0  0  0  0  0
    6.3990   -3.4692   25.2365 C   0  0  0  0  0  0  0  0  0  0  0  0
    5.0026   -3.5942   25.1022 C   0  0  0  0  0  0  0  0  0  0  0  0
    4.1509   -2.5244   25.4121 C   0  0  0  0  0  0  0  0  0  0  0  0
    4.6832   -1.2997   25.8306 C   0  0  0  0  0  0  0  0  0  0  0  0
    6.0694   -1.1599   25.9711 C   0  0  0  0  0  0  0  0  0  0  0  0
    6.9121   -2.2428   25.7021 C   0  0  0  0  0  0  0  0  0  0  0  0
    7.9793   -2.1247   25.8791 H   0  0  0  0  0  0  0  0  0  0  0  0
    6.4967   -0.2172   26.3091 H   0  0  0  0  0  0  0  0  0  0  0  0
    4.0251   -0.4610   26.0474 H   0  0  0  0  0  0  0  0  0  0  0  0
    3.0739   -2.6509   25.3251 H   0  0  0  0  0  0  0  0  0  0  0  0
    4.5767   -4.5314   24.7423 H   0  0  0  0  0  0  0  0  0  0  0  0
    6.7216   -5.5331   24.7736 H   0  0  0  0  0  0  0  0  0  0  0  0
    8.4936   -5.4375   23.3026 H   0  0  0  0  0  0  0  0  0  0  0  0
   10.3470   -3.8238   23.4834 H   0  0  0  0  0  0  0  0  0  0  0  0
    9.3140   -2.6361   24.2565 H   0  0  0  0  0  0  0  0  0  0  0  0
   10.3714   -5.2621   25.3753 H   0  0  0  0  0  0  0  0  0  0  0  0
   10.2044   -3.7251   26.2470 H   0  0  0  0  0  0  0  0  0  0  0  0
    8.0155   -4.1957   26.7242 H   0  0  0  0  0  0  0  0  0  0  0  0
    9.1323   -6.2501   27.4177 H   0  0  0  0  0  0  0  0  0  0  0  0
    7.4540   -6.5569   26.9336 H   0  0  0  0  0  0  0  0  0  0  0  0
    8.7835   -6.9463   25.8357 H   0  0  0  0  0  0  0  0  0  0  0  0
  1  2  1  0
  2  3  1  0
  3  4  1  0
  4  5  1  0
  5  6  1  0
  6  7  2  0
  6  8  1  0
  8  9  1  0
  9 10  1  0
 10 11  1  0
 11 12  1  0
 11 13  1  0
 11 14  1  0
 10 15  1  0
 15 16  1  0
 15 17  1  0
 15 18  1  0
 10 19  1  0
 19 20  2  0
 20 21  1  0
 21 22  2  0
 22 23  1  0
 23 24  2  0
 24 25  1  0
 22 26  1  0
 21 27  1  0
 20 28  1  0
  9 29  1  0
  9 30  1  0
  8 31  1  0
  5 32  1  0
 32 33  1  0
 33 34  2  0
 34 35  1  0
 35 36  2  0
 36 37  1  0
 37 38  2  0
 38 39  1  0
 37 40  1  0
 36 41  1  0
 35 42  1  0
 34 43  1  0
 32 44  1  6
  5 45  1  6
  4 46  1  0
  4 47  1  0
  3 48  1  0
  3 49  1  0
  2 50  1  0
  1 51  1  0
  1 52  1  0
  1 53  1  0
 32  2  1  0
 38 33  1  0
 24 19  1  0
M  CHG  1   2   1
M  END
>  <plip>  (1) 
-0.06666666666666667

>  <filename>  (1) 
[H][c]1[n][c]([H])[c]([C]([C]([H])([H])[H])([C]([H])([H])[H])[C]([H])([H])[N]([H])[C](=[O])[C@@]2([H])[C]([H])([H])[C]([H])([H])[N+]([H])([C]([H])([H])[H])[C@@]2([H])[c]2[c]([H])[c]([H])[c]([H])[c]([H])[c]2[H])[c]([H])[c]1[H]

$$$$
