
     RDKit          3D

 26 27  0  0  0  0  0  0  0  0999 V2000
    4.9194    1.7332   16.9682 H   0  0  0  0  0  0  0  0  0  0  0  0
    5.4359    1.2701   17.8056 C   0  0  0  0  0  0  0  0  0  0  0  0
    6.6107    0.6782   17.5337 N   0  0  0  0  0  0  0  0  0  0  0  0
    7.2775    0.1048   18.5480 C   0  0  0  0  0  0  0  0  0  0  0  0
    8.2120   -0.3876   18.2927 H   0  0  0  0  0  0  0  0  0  0  0  0
    6.7946    0.1026   19.8741 C   0  0  0  0  0  0  0  0  0  0  0  0
    7.5974   -0.4605   20.9114 O   0  0  0  0  0  0  0  0  0  0  0  0
    6.8489   -1.1067   22.2471 S   0  0  0  0  0  0  0  0  0  0  0  0
    5.9715   -2.1647   21.7802 O   0  0  0  0  0  0  0  0  0  0  0  0
    6.3167   -0.0140   23.0473 O   0  0  0  0  0  0  0  0  0  0  0  0
    8.3556   -1.8055   23.2806 C   0  0  0  0  0  0  0  0  0  0  0  0
    9.4049   -2.0960   22.7708 O   0  0  0  0  0  0  0  0  0  0  0  0
    8.0708   -1.9974   24.6100 N   0  0  0  0  0  0  0  0  0  0  0  0
    7.3488   -1.4732   25.0780 H   0  0  0  0  0  0  0  0  0  0  0  0
    8.9731   -2.7302   25.4447 C   0  0  0  0  0  0  0  0  0  0  0  0
    9.9062   -2.2151   25.6298 H   0  0  0  0  0  0  0  0  0  0  0  0
    8.4163   -3.5918   26.5316 C   0  0  0  0  0  0  0  0  0  0  0  0
    7.3455   -3.6303   26.7006 H   0  0  0  0  0  0  0  0  0  0  0  0
    8.9922   -3.6832   27.4443 H   0  0  0  0  0  0  0  0  0  0  0  0
    8.9719   -4.2217   25.2904 C   0  0  0  0  0  0  0  0  0  0  0  0
    9.9171   -4.7512   25.3364 H   0  0  0  0  0  0  0  0  0  0  0  0
    8.2513   -4.6372   24.5923 H   0  0  0  0  0  0  0  0  0  0  0  0
    5.5675    0.6986   20.1492 C   0  0  0  0  0  0  0  0  0  0  0  0
    5.1758    0.6963   21.1652 H   0  0  0  0  0  0  0  0  0  0  0  0
    4.8763    1.2926   19.0870 C   0  0  0  0  0  0  0  0  0  0  0  0
    3.9199    1.7733   19.2519 H   0  0  0  0  0  0  0  0  0  0  0  0
  1  2  1  0
  2  3  2  0
  3  4  1  0
  4  5  1  0
  4  6  2  0
  6  7  1  0
  7  8  1  0
  8  9  2  0
  8 10  2  0
  8 11  1  0
 11 12  2  0
 11 13  1  0
 13 14  1  0
 13 15  1  0
 15 16  1  0
 15 17  1  0
 17 18  1  0
 17 19  1  0
 17 20  1  0
 20 21  1  0
 20 22  1  0
  6 23  1  0
 23 24  1  0
 23 25  2  0
 25 26  1  0
 25  2  1  0
 20 15  1  0
M  END
>  <plip>  (1) 
-0.03571428571428571

>  <filename>  (1) 
[H][c]1[n][c]([H])[c]([O][S](=[O])(=[O])[C](=[O])[N]([H])[C]2([H])[C]([H])([H])[C]2([H])[H])[c]([H])[c]1[H]

$$$$
