
     RDKit          3D

 47 50  0  0  0  0  0  0  0  0999 V2000
    6.0780   -2.9089   19.7816 O   0  0  0  0  0  0  0  0  0  0  0  0
    6.0128   -2.8339   21.0069 C   0  0  0  0  0  0  0  0  0  0  0  0
    6.4499   -1.7402   21.6776 N   0  0  0  0  0  0  0  0  0  0  0  0
    7.3013   -0.7590   21.0263 C   0  0  0  0  0  0  0  0  0  0  0  0
    7.9130    0.2385   22.0246 C   0  0  0  0  0  0  0  0  0  0  0  0
    8.9676   -0.3270   22.9936 C   0  0  0  0  0  0  0  0  0  0  0  0
    9.6082    0.7536   23.8875 C   0  0  0  0  0  0  0  0  0  0  0  0
   10.1964    0.0048   25.1031 C   0  0  0  0  0  0  0  0  0  0  0  0
    9.4075   -1.3283   25.2023 C   0  0  0  0  0  0  0  0  0  0  0  0
    8.4176   -1.3342   24.0199 C   0  0  0  0  0  0  0  0  0  0  0  0
    8.2685   -2.3325   23.5925 H   0  0  0  0  0  0  0  0  0  0  0  0
    7.4365   -0.9839   24.3747 H   0  0  0  0  0  0  0  0  0  0  0  0
    8.8787   -1.4208   26.1577 H   0  0  0  0  0  0  0  0  0  0  0  0
   10.0849   -2.1855   25.1275 H   0  0  0  0  0  0  0  0  0  0  0  0
   10.1165    0.6062   26.0164 H   0  0  0  0  0  0  0  0  0  0  0  0
   11.2645   -0.1957   24.9578 H   0  0  0  0  0  0  0  0  0  0  0  0
    8.8288    1.4566   24.2195 H   0  0  0  0  0  0  0  0  0  0  0  0
   10.3626    1.3471   23.3542 H   0  0  0  0  0  0  0  0  0  0  0  0
    9.7687   -0.8169   22.4075 H   0  0  0  0  0  0  0  0  0  0  0  0
    8.3715    1.0513   21.4428 H   0  0  0  0  0  0  0  0  0  0  0  0
    7.0929    0.6990   22.5996 H   0  0  0  0  0  0  0  0  0  0  0  0
    6.5527   -0.0437   19.9147 C   0  0  0  0  0  0  0  0  0  0  0  0
    5.3490    0.6394   20.1177 C   0  0  0  0  0  0  0  0  0  0  0  0
    4.7736    1.3286   19.0462 C   0  0  0  0  0  0  0  0  0  0  0  0
    5.4204    1.3087   17.8063 C   0  0  0  0  0  0  0  0  0  0  0  0
    6.5669    0.6498   17.5858 N   0  0  0  0  0  0  0  0  0  0  0  0
    7.1009   -0.0049   18.6284 C   0  0  0  0  0  0  0  0  0  0  0  0
    8.0341   -0.5320   18.4226 H   0  0  0  0  0  0  0  0  0  0  0  0
    5.0001    1.8413   16.9525 H   0  0  0  0  0  0  0  0  0  0  0  0
    3.8477    1.8770   19.1580 H   0  0  0  0  0  0  0  0  0  0  0  0
    4.8630    0.6201   21.0953 H   0  0  0  0  0  0  0  0  0  0  0  0
    8.1300   -1.2968   20.5375 H   0  0  0  0  0  0  0  0  0  0  0  0
    6.2587   -1.6992   22.6652 H   0  0  0  0  0  0  0  0  0  0  0  0
    5.4716   -3.9892   21.7511 C   0  0  0  0  0  0  0  0  0  0  0  0
    5.0689   -5.1961   21.1977 C   0  0  0  0  0  0  0  0  0  0  0  0
    4.4548   -5.9603   22.1836 C   0  0  0  0  0  0  0  0  0  0  0  0
    4.5347   -5.2447   23.3790 C   0  0  0  0  0  0  0  0  0  0  0  0
    4.1494   -5.5061   24.7196 C   0  0  0  0  0  0  0  0  0  0  0  0
    4.5314   -4.6042   25.6814 C   0  0  0  0  0  0  0  0  0  0  0  0
    5.2671   -3.4422   25.2856 C   0  0  0  0  0  0  0  0  0  0  0  0
    5.5888   -3.1492   24.0394 N   0  0  0  0  0  0  0  0  0  0  0  0
    5.1910   -4.0397   23.1011 N   0  0  0  0  0  0  0  0  0  0  0  0
    5.5949   -2.7377   26.0372 H   0  0  0  0  0  0  0  0  0  0  0  0
    4.3087   -4.7625   26.7282 H   0  0  0  0  0  0  0  0  0  0  0  0
    3.5888   -6.4107   24.9365 H   0  0  0  0  0  0  0  0  0  0  0  0
    3.9768   -6.9254   22.0656 H   0  0  0  0  0  0  0  0  0  0  0  0
    5.2180   -5.4752   20.1591 H   0  0  0  0  0  0  0  0  0  0  0  0
  1  2  2  0
  2  3  1  0
  3  4  1  0
  4  5  1  0
  5  6  1  0
  6  7  1  0
  7  8  1  0
  8  9  1  0
  9 10  1  0
 10 11  1  0
 10 12  1  0
  9 13  1  0
  9 14  1  0
  8 15  1  0
  8 16  1  0
  7 17  1  0
  7 18  1  0
  6 19  1  0
  5 20  1  0
  5 21  1  0
  4 22  1  0
 22 23  2  0
 23 24  1  0
 24 25  2  0
 25 26  1  0
 26 27  2  0
 27 28  1  0
 25 29  1  0
 24 30  1  0
 23 31  1  0
  4 32  1  0
  3 33  1  0
  2 34  1  0
 34 35  2  0
 35 36  1  0
 36 37  2  0
 37 38  1  0
 38 39  2  0
 39 40  1  0
 40 41  2  0
 41 42  1  0
 40 43  1  0
 39 44  1  0
 38 45  1  0
 36 46  1  0
 35 47  1  0
 10  6  1  0
 27 22  1  0
 42 34  1  0
 42 37  1  0
M  END
>  <plip>  (1) 
-0.13793103448275862

>  <filename>  (1) 
[H][c]1[n][c]([H])[c]([C]([H])([N]([H])[C](=[O])[c]2[c]([H])[c]([H])[c]3[c]([H])[c]([H])[c]([H])[n][n]23)[C]([H])([H])[C]2([H])[C]([H])([H])[C]([H])([H])[C]([H])([H])[C]2([H])[H])[c]([H])[c]1[H]

$$$$
