
     RDKit          3D

 32 34  0  0  0  0  0  0  0  0999 V2000
    5.0760    1.7873   16.9253 H   0  0  0  0  0  0  0  0  0  0  0  0
    5.5342    1.3008   17.7832 C   0  0  0  0  0  0  0  0  0  0  0  0
    6.7037    0.6835   17.5588 N   0  0  0  0  0  0  0  0  0  0  0  0
    7.2946    0.0918   18.6042 C   0  0  0  0  0  0  0  0  0  0  0  0
    8.2463   -0.3979   18.4120 H   0  0  0  0  0  0  0  0  0  0  0  0
    6.7433    0.0529   19.9063 C   0  0  0  0  0  0  0  0  0  0  0  0
    7.3762   -0.6838   21.0141 C   0  0  0  0  0  0  0  0  0  0  0  0
    6.8524   -1.5910   21.9037 C   0  0  0  0  0  0  0  0  0  0  0  0
    5.8359   -1.9503   21.9401 H   0  0  0  0  0  0  0  0  0  0  0  0
    7.8273   -2.0468   22.7237 N   0  0  0  0  0  0  0  0  0  0  0  0
    8.9389   -1.4525   22.4039 N   0  0  0  0  0  0  0  0  0  0  0  0
    8.6842   -0.6275   21.3838 N   0  0  0  0  0  0  0  0  0  0  0  0
    9.6166    0.2592   20.8328 N   0  0  0  0  0  0  0  0  0  0  0  0
    9.2776    1.1826   21.0917 H   0  0  0  0  0  0  0  0  0  0  0  0
   11.0083    0.1503   21.2939 C   0  0  0  0  0  0  0  0  0  0  0  0
   11.5477    0.9157   20.7312 H   0  0  0  0  0  0  0  0  0  0  0  0
   11.6843   -1.2201   21.0694 C   0  0  0  0  0  0  0  0  0  0  0  0
   10.9341   -1.9727   20.8256 H   0  0  0  0  0  0  0  0  0  0  0  0
   12.4070   -1.1761   20.2481 H   0  0  0  0  0  0  0  0  0  0  0  0
   12.3845   -1.5570   22.3901 C   0  0  0  0  0  0  0  0  0  0  0  0
   13.3164   -2.1269   22.2592 H   0  0  0  0  0  0  0  0  0  0  0  0
   11.6771   -2.1734   22.9638 H   0  0  0  0  0  0  0  0  0  0  0  0
   12.5667   -0.1839   23.0709 C   0  0  0  0  0  0  0  0  0  0  0  0
   12.7843   -0.2302   24.1411 H   0  0  0  0  0  0  0  0  0  0  0  0
   13.4019    0.3493   22.5922 H   0  0  0  0  0  0  0  0  0  0  0  0
   11.2343    0.5114   22.7680 C   0  0  0  0  0  0  0  0  0  0  0  0
   10.4392    0.0679   23.3733 H   0  0  0  0  0  0  0  0  0  0  0  0
   11.2210    1.6015   22.9070 H   0  0  0  0  0  0  0  0  0  0  0  0
    5.5111    0.6904   20.1092 C   0  0  0  0  0  0  0  0  0  0  0  0
    5.0503    0.6855   21.0997 H   0  0  0  0  0  0  0  0  0  0  0  0
    4.9029    1.3364   19.0334 C   0  0  0  0  0  0  0  0  0  0  0  0
    3.9639    1.8642   19.1458 H   0  0  0  0  0  0  0  0  0  0  0  0
  1  2  1  0
  2  3  2  0
  3  4  1  0
  4  5  1  0
  4  6  2  0
  6  7  1  0
  7  8  2  0
  8  9  1  0
  8 10  1  0
 10 11  2  0
 11 12  1  0
 12 13  1  0
 13 14  1  0
 13 15  1  0
 15 16  1  0
 15 17  1  0
 17 18  1  0
 17 19  1  0
 17 20  1  0
 20 21  1  0
 20 22  1  0
 20 23  1  0
 23 24  1  0
 23 25  1  0
 23 26  1  0
 26 27  1  0
 26 28  1  0
  6 29  1  0
 29 30  1  0
 29 31  2  0
 31 32  1  0
 31  2  1  0
 12  7  1  0
 26 15  1  0
M  END
>  <plip>  (1) 
-0.10714285714285714

>  <filename>  (1) 
[H][c]1[n][c]([H])[c](-[c]2[c]([H])[n][n][n]2[N]([H])[C]2([H])[C]([H])([H])[C]([H])([H])[C]([H])([H])[C]2([H])[H])[c]([H])[c]1[H]

$$$$
