
     RDKit          3D

 34 37  0  0  0  0  0  0  0  0999 V2000
    4.9551    1.7904   17.0025 H   0  0  0  0  0  0  0  0  0  0  0  0
    5.4120    1.2784   17.8461 C   0  0  0  0  0  0  0  0  0  0  0  0
    6.5748    0.6569   17.5943 N   0  0  0  0  0  0  0  0  0  0  0  0
    7.1619    0.0131   18.6075 C   0  0  0  0  0  0  0  0  0  0  0  0
    8.1133   -0.4644   18.3686 H   0  0  0  0  0  0  0  0  0  0  0  0
    6.6381   -0.0280   19.9054 C   0  0  0  0  0  0  0  0  0  0  0  0
    7.3987   -0.7251   20.9696 C   0  0  0  0  0  0  0  0  0  0  0  0
    7.7808   -1.9752   20.6705 N   0  0  0  0  0  0  0  0  0  0  0  0
    8.3574   -2.7161   21.6179 C   0  0  0  0  0  0  0  0  0  0  0  0
    8.5989   -3.7422   21.3336 H   0  0  0  0  0  0  0  0  0  0  0  0
    8.6351   -2.2400   22.9041 C   0  0  0  0  0  0  0  0  0  0  0  0
    9.1250   -2.8922   23.6222 H   0  0  0  0  0  0  0  0  0  0  0  0
    8.2893   -0.9253   23.2079 C   0  0  0  0  0  0  0  0  0  0  0  0
    8.5058   -0.4861   24.1846 H   0  0  0  0  0  0  0  0  0  0  0  0
    7.6826   -0.1260   22.2242 C   0  0  0  0  0  0  0  0  0  0  0  0
    7.4018    1.3132   22.5213 C   0  0  0  0  0  0  0  0  0  0  0  0
    6.6492    1.6407   23.6761 C   0  0  0  0  0  0  0  0  0  0  0  0
    6.3033    0.8324   24.3175 H   0  0  0  0  0  0  0  0  0  0  0  0
    6.3484    2.9574   23.9918 C   0  0  0  0  0  0  0  0  0  0  0  0
    5.7797    3.1917   24.8849 H   0  0  0  0  0  0  0  0  0  0  0  0
    6.8241    3.9955   23.1596 C   0  0  0  0  0  0  0  0  0  0  0  0
    6.7025    5.4341   23.1595 C   0  0  0  0  0  0  0  0  0  0  0  0
    6.1709    6.0348   23.8874 H   0  0  0  0  0  0  0  0  0  0  0  0
    7.4058    5.8893   22.0814 C   0  0  0  0  0  0  0  0  0  0  0  0
    7.5262    6.8835   21.6771 H   0  0  0  0  0  0  0  0  0  0  0  0
    7.9833    4.8253   21.4236 N   0  0  0  0  0  0  0  0  0  0  0  0
    8.4474    4.8660   20.5315 H   0  0  0  0  0  0  0  0  0  0  0  0
    7.6186    3.6510   22.0345 C   0  0  0  0  0  0  0  0  0  0  0  0
    7.8863    2.3166   21.6842 C   0  0  0  0  0  0  0  0  0  0  0  0
    8.4114    2.0233   20.7814 H   0  0  0  0  0  0  0  0  0  0  0  0
    5.4261    0.6302   20.1604 C   0  0  0  0  0  0  0  0  0  0  0  0
    5.0171    0.6595   21.1732 H   0  0  0  0  0  0  0  0  0  0  0  0
    4.8022    1.2879   19.1033 C   0  0  0  0  0  0  0  0  0  0  0  0
    3.8777    1.8327   19.2404 H   0  0  0  0  0  0  0  0  0  0  0  0
  1  2  1  0
  2  3  2  0
  3  4  1  0
  4  5  1  0
  4  6  2  0
  6  7  1  0
  7  8  2  0
  8  9  1  0
  9 10  1  0
  9 11  2  0
 11 12  1  0
 11 13  1  0
 13 14  1  0
 13 15  2  0
 15 16  1  0
 16 17  2  0
 17 18  1  0
 17 19  1  0
 19 20  1  0
 19 21  2  0
 21 22  1  0
 22 23  1  0
 22 24  2  0
 24 25  1  0
 24 26  1  0
 26 27  1  0
 26 28  1  0
 28 29  2  0
 29 30  1  0
  6 31  1  0
 31 32  1  0
 31 33  2  0
 33 34  1  0
 33  2  1  0
 15  7  1  0
 29 16  1  0
 28 21  1  0
M  END
>  <plip>  (1) 
-0.13793103448275862

>  <filename>  (1) 
[H][c]1[n][c]([H])[c](-[c]2[n][c]([H])[c]([H])[c]([H])[c]2-[c]2[c]([H])[c]([H])[c]3[c]([H])[c]([H])[n]([H])[c]3[c]2[H])[c]([H])[c]1[H]

$$$$
