
     RDKit          3D

 21 22  0  0  0  0  0  0  0  0999 V2000
    4.1777   -4.1039   23.5155 H   0  0  0  0  0  0  0  0  0  0  0  0
    4.3581   -3.7075   22.6483 O   0  0  0  0  0  0  0  0  0  0  0  0
    5.6737   -3.2479   22.7909 N   0  0  0  0  0  0  0  0  0  0  0  0
    5.9271   -2.3326   21.9466 C   0  0  0  0  0  0  0  0  0  0  0  0
    5.2070   -2.0127   21.1938 H   0  0  0  0  0  0  0  0  0  0  0  0
    7.1646   -1.6643   21.8765 N   0  0  0  0  0  0  0  0  0  0  0  0
    8.2586   -1.9340   22.6482 N   0  0  0  0  0  0  0  0  0  0  0  0
    9.1883   -1.1940   22.0926 C   0  0  0  0  0  0  0  0  0  0  0  0
   10.1916   -1.1676   22.4953 H   0  0  0  0  0  0  0  0  0  0  0  0
    8.7936   -0.4753   21.0087 N   0  0  0  0  0  0  0  0  0  0  0  0
    7.5164   -0.7372   20.9285 C   0  0  0  0  0  0  0  0  0  0  0  0
    6.6585   -0.0752   19.9512 C   0  0  0  0  0  0  0  0  0  0  0  0
    7.2034    0.0010   18.6625 C   0  0  0  0  0  0  0  0  0  0  0  0
    8.1633   -0.4761   18.4640 H   0  0  0  0  0  0  0  0  0  0  0  0
    6.6073    0.6073   17.6377 N   0  0  0  0  0  0  0  0  0  0  0  0
    5.4436    1.2285   17.8893 C   0  0  0  0  0  0  0  0  0  0  0  0
    5.0024    1.7781   17.0593 H   0  0  0  0  0  0  0  0  0  0  0  0
    4.8258    1.2301   19.1419 C   0  0  0  0  0  0  0  0  0  0  0  0
    3.9061    1.7845   19.2763 H   0  0  0  0  0  0  0  0  0  0  0  0
    5.4337    0.5593   20.2059 C   0  0  0  0  0  0  0  0  0  0  0  0
    4.9761    0.5575   21.1971 H   0  0  0  0  0  0  0  0  0  0  0  0
  1  2  1  0
  2  3  1  0
  3  4  2  3
  4  5  1  0
  4  6  1  0
  6  7  1  0
  7  8  2  0
  8  9  1  0
  8 10  1  0
 10 11  2  0
 11 12  1  0
 12 13  2  0
 13 14  1  0
 13 15  1  0
 15 16  2  0
 16 17  1  0
 16 18  1  0
 18 19  1  0
 18 20  2  0
 20 21  1  0
 11  6  1  0
 20 12  1  0
M  END
>  <plip>  (1) 
-0.06896551724137931

>  <filename>  (1) 
[H][O][N]=[C]([H])[n]1[n][c]([H])[n][c]1-[c]1[c]([H])[n][c]([H])[c]([H])[c]1[H]

$$$$
