
     RDKit          3D

 31 33  0  0  0  0  0  0  0  0999 V2000
    5.2183    2.3772   16.2402 H   0  0  0  0  0  0  0  0  0  0  0  0
    5.4069    1.8690   17.1853 C   0  0  0  0  0  0  0  0  0  0  0  0
    6.4685    1.0478   17.2211 N   0  0  0  0  0  0  0  0  0  0  0  0
    6.7183    0.4164   18.3777 C   0  0  0  0  0  0  0  0  0  0  0  0
    7.5961   -0.2307   18.3759 H   0  0  0  0  0  0  0  0  0  0  0  0
    5.9524    0.5658   19.5547 C   0  0  0  0  0  0  0  0  0  0  0  0
    6.2665   -0.1993   20.7997 C   0  0  0  0  0  0  0  0  0  0  0  0
    6.3932    0.4623   22.0802 C   0  0  0  0  0  0  0  0  0  0  0  0
    6.3064    1.5414   22.1451 H   0  0  0  0  0  0  0  0  0  0  0  0
    6.6836   -0.1660   23.1828 N   0  0  0  0  0  0  0  0  0  0  0  0
    6.8806   -1.5067   23.1084 N   0  0  0  0  0  0  0  0  0  0  0  0
    7.2658   -2.0373   24.3397 N   0  0  0  0  0  0  0  0  0  0  0  0
    7.1767   -1.2366   24.9643 H   0  0  0  0  0  0  0  0  0  0  0  0
    8.5436   -2.6933   24.3699 C   0  0  0  0  0  0  0  0  0  0  0  0
    8.8128   -3.7394   25.2750 C   0  0  0  0  0  0  0  0  0  0  0  0
    8.0466   -4.0442   25.9854 H   0  0  0  0  0  0  0  0  0  0  0  0
    9.9679   -4.4140   25.3168 N   0  0  0  0  0  0  0  0  0  0  0  0
   10.9247   -4.0796   24.4419 C   0  0  0  0  0  0  0  0  0  0  0  0
   11.8316   -4.6747   24.4939 H   0  0  0  0  0  0  0  0  0  0  0  0
   10.7790   -3.0443   23.5168 C   0  0  0  0  0  0  0  0  0  0  0  0
   11.5840   -2.8040   22.8298 H   0  0  0  0  0  0  0  0  0  0  0  0
    9.5784   -2.3283   23.4925 C   0  0  0  0  0  0  0  0  0  0  0  0
    9.4123   -1.4914   22.8173 H   0  0  0  0  0  0  0  0  0  0  0  0
    6.6220   -2.3555   21.9647 C   0  0  0  0  0  0  0  0  0  0  0  0
    6.6224   -3.5674   22.0074 O   0  0  0  0  0  0  0  0  0  0  0  0
    6.4150   -1.5605   20.7727 C   0  0  0  0  0  0  0  0  0  0  0  0
    6.3712   -2.1486   19.8648 H   0  0  0  0  0  0  0  0  0  0  0  0
    4.8550    1.4416   19.4868 C   0  0  0  0  0  0  0  0  0  0  0  0
    4.2292    1.6011   20.3659 H   0  0  0  0  0  0  0  0  0  0  0  0
    4.5694    2.0880   18.2823 C   0  0  0  0  0  0  0  0  0  0  0  0
    3.7213    2.7572   18.1801 H   0  0  0  0  0  0  0  0  0  0  0  0
  1  2  1  0
  2  3  2  0
  3  4  1  0
  4  5  1  0
  4  6  2  0
  6  7  1  0
  7  8  1  0
  8  9  1  0
  8 10  2  0
 10 11  1  0
 11 12  1  0
 12 13  1  0
 12 14  1  0
 14 15  2  0
 15 16  1  0
 15 17  1  0
 17 18  2  0
 18 19  1  0
 18 20  1  0
 20 21  1  0
 20 22  2  0
 22 23  1  0
 11 24  1  0
 24 25  2  0
 24 26  1  0
 26 27  1  0
  6 28  1  0
 28 29  1  0
 28 30  2  0
 30 31  1  0
 30  2  1  0
 26  7  2  0
 22 14  1  0
M  END
>  <plip>  (1) 
-0.07142857142857142

>  <filename>  (1) 
[H][c]1[n][c]([H])[c](-[c]2[c]([H])[n][n]([N]([H])[c]3[c]([H])[n][c]([H])[c]([H])[c]3[H])[c](=[O])[c]2[H])[c]([H])[c]1[H]

$$$$
