
     RDKit          3D

 36 37  0  0  0  0  0  0  0  0999 V2000
    9.7222   -4.0281   26.7403 C   0  0  0  0  0  0  0  0  0  0  0  0
    8.2669   -4.0892   26.3514 C   0  0  0  0  0  0  0  0  0  0  0  0
    7.5585   -5.2636   26.5996 C   0  0  0  0  0  0  0  0  0  0  0  0
    6.2114   -5.3787   26.2393 C   0  0  0  0  0  0  0  0  0  0  0  0
    5.5002   -6.6546   26.4642 N   0  0  0  0  0  4  0  0  0  0  0  0
    5.8208   -7.3255   27.4306 O   0  0  0  0  0  0  0  0  0  0  0  0
    4.6242   -6.9657   25.6711 O   0  0  0  0  0  1  0  0  0  0  0  0
    5.5415   -4.3140   25.6260 C   0  0  0  0  0  0  0  0  0  0  0  0
    6.2363   -3.1343   25.3715 C   0  0  0  0  0  0  0  0  0  0  0  0
    7.5838   -2.9984   25.7475 C   0  0  0  0  0  0  0  0  0  0  0  0
    8.2401   -1.7617   25.6127 N   0  0  0  0  0  0  0  0  0  0  0  0
    8.0126   -0.9327   24.5202 N   0  0  0  0  0  0  0  0  0  0  0  0
    8.1823   -1.2543   23.1950 C   0  0  0  0  0  0  0  0  0  0  0  0
    8.8505   -2.1880   22.7769 O   0  0  0  0  0  0  0  0  0  0  0  0
    7.3831   -0.2544   22.2377 C   0  0  0  0  0  0  0  0  0  0  0  0
    6.8634    0.7636   22.6758 O   0  0  0  0  0  0  0  0  0  0  0  0
    7.3299   -0.6387   20.9235 N   0  0  0  0  0  0  0  0  0  0  0  0
    6.6760    0.0478   19.8573 C   0  0  0  0  0  0  0  0  0  0  0  0
    5.4980    0.7732   20.0848 C   0  0  0  0  0  0  0  0  0  0  0  0
    4.8705    1.3797   18.9916 C   0  0  0  0  0  0  0  0  0  0  0  0
    5.4473    1.2779   17.7235 C   0  0  0  0  0  0  0  0  0  0  0  0
    6.5945    0.6182   17.4943 N   0  0  0  0  0  0  0  0  0  0  0  0
    7.1905    0.0269   18.5380 C   0  0  0  0  0  0  0  0  0  0  0  0
    8.1427   -0.4611   18.3256 H   0  0  0  0  0  0  0  0  0  0  0  0
    4.9764    1.7442   16.8616 H   0  0  0  0  0  0  0  0  0  0  0  0
    3.9619    1.9557   19.1232 H   0  0  0  0  0  0  0  0  0  0  0  0
    5.1163    0.8806   21.0970 H   0  0  0  0  0  0  0  0  0  0  0  0
    7.9205   -1.4303   20.6992 H   0  0  0  0  0  0  0  0  0  0  0  0
    7.4837   -0.0879   24.7041 H   0  0  0  0  0  0  0  0  0  0  0  0
    9.2178   -1.7894   25.8892 H   0  0  0  0  0  0  0  0  0  0  0  0
    5.7467   -2.3047   24.8701 H   0  0  0  0  0  0  0  0  0  0  0  0
    4.4901   -4.4090   25.3727 H   0  0  0  0  0  0  0  0  0  0  0  0
    8.0678   -6.0853   27.0975 H   0  0  0  0  0  0  0  0  0  0  0  0
    9.9114   -3.2050   27.4300 H   0  0  0  0  0  0  0  0  0  0  0  0
   10.3811   -3.8785   25.8782 H   0  0  0  0  0  0  0  0  0  0  0  0
   10.0175   -4.9547   27.2402 H   0  0  0  0  0  0  0  0  0  0  0  0
  1  2  1  0
  2  3  2  0
  3  4  1  0
  4  5  1  0
  5  6  2  0
  5  7  1  0
  4  8  2  0
  8  9  1  0
  9 10  2  0
 10 11  1  0
 11 12  1  0
 12 13  1  0
 13 14  2  0
 13 15  1  0
 15 16  2  0
 15 17  1  0
 17 18  1  0
 18 19  2  0
 19 20  1  0
 20 21  2  0
 21 22  1  0
 22 23  2  0
 23 24  1  0
 21 25  1  0
 20 26  1  0
 19 27  1  0
 17 28  1  0
 12 29  1  0
 11 30  1  0
  9 31  1  0
  8 32  1  0
  3 33  1  0
  1 34  1  0
  1 35  1  0
  1 36  1  0
 10  2  1  0
 23 18  1  0
M  CHG  2   5   1   7  -1
M  END
>  <plip>  (1) 
-0.07142857142857142

>  <filename>  (1) 
[H][c]1[n][c]([H])[c]([N]([H])[C](=[O])[C](=[O])[N]([H])[N]([H])[c]2[c]([H])[c]([H])[c]([N+](=[O])[O-])[c]([H])[c]2[C]([H])([H])[H])[c]([H])[c]1[H]

$$$$
