
     RDKit          3D

 37 38  0  0  0  0  0  0  0  0999 V2000
    7.1017   -2.4640   20.4004 H   0  0  0  0  0  0  0  0  0  0  0  0
    7.8789   -1.9487   20.6473 O   0  0  0  0  0  0  0  0  0  0  0  0
    7.3936   -0.6810   21.0603 C   0  0  2  0  0  0  0  0  0  0  0  0
    6.7161   -0.8024   21.9244 H   0  0  0  0  0  0  0  0  0  0  0  0
    6.6287   -0.0005   19.9316 C   0  0  0  0  0  0  0  0  0  0  0  0
    7.1490    0.0218   18.6252 C   0  0  0  0  0  0  0  0  0  0  0  0
    8.0882   -0.4796   18.3918 H   0  0  0  0  0  0  0  0  0  0  0  0
    6.5611    0.6435   17.5938 N   0  0  0  0  0  0  0  0  0  0  0  0
    5.4093    1.2877   17.8302 C   0  0  0  0  0  0  0  0  0  0  0  0
    4.9586    1.8029   16.9830 H   0  0  0  0  0  0  0  0  0  0  0  0
    4.7915    1.3203   19.0831 C   0  0  0  0  0  0  0  0  0  0  0  0
    3.8598    1.8663   19.2129 H   0  0  0  0  0  0  0  0  0  0  0  0
    5.4123    0.6686   20.1527 C   0  0  0  0  0  0  0  0  0  0  0  0
    4.9561    0.6790   21.1415 H   0  0  0  0  0  0  0  0  0  0  0  0
    8.6224    0.1490   21.5571 C   0  0  2  0  0  0  0  0  0  0  0  0
    9.3270    0.2220   20.7179 H   0  0  0  0  0  0  0  0  0  0  0  0
    9.4257   -0.5038   22.6275 N   0  0  0  0  0  0  0  0  0  0  0  0
   10.2215   -1.0360   22.3055 H   0  0  0  0  0  0  0  0  0  0  0  0
    8.9328   -1.2499   23.6537 C   0  0  0  0  0  0  0  0  0  0  0  0
    9.7708   -2.5916   24.1429 S   0  0  0  0  0  0  0  0  0  0  0  0
    7.7832   -0.7542   24.1898 N   0  0  0  0  0  0  0  0  0  0  0  0
    7.8441    0.2106   24.4608 H   0  0  0  0  0  0  0  0  0  0  0  0
    6.7031   -1.5110   24.6701 C   0  0  0  0  0  0  0  0  0  0  0  0
    5.8930   -0.9680   25.6676 C   0  0  0  0  0  0  0  0  0  0  0  0
    6.1597   -0.0001   26.0826 H   0  0  0  0  0  0  0  0  0  0  0  0
    4.7775   -1.6843   26.1150 C   0  0  0  0  0  0  0  0  0  0  0  0
    4.1462   -1.2626   26.8974 H   0  0  0  0  0  0  0  0  0  0  0  0
    4.4715   -2.9332   25.5558 C   0  0  0  0  0  0  0  0  0  0  0  0
    3.5931   -3.4774   25.8914 H   0  0  0  0  0  0  0  0  0  0  0  0
    5.2903   -3.4732   24.5518 C   0  0  0  0  0  0  0  0  0  0  0  0
    5.0592   -4.4453   24.1166 H   0  0  0  0  0  0  0  0  0  0  0  0
    6.4073   -2.7577   24.1079 C   0  0  0  0  0  0  0  0  0  0  0  0
    7.0768   -3.1375   23.3415 H   0  0  0  0  0  0  0  0  0  0  0  0
    8.2240    1.5526   22.0211 C   0  0  0  0  0  0  0  0  0  0  0  0
    7.3775    1.5213   22.7138 H   0  0  0  0  0  0  0  0  0  0  0  0
    7.9096    2.1785   21.1804 H   0  0  0  0  0  0  0  0  0  0  0  0
    9.0584    2.0474   22.5268 H   0  0  0  0  0  0  0  0  0  0  0  0
  1  2  1  0
  2  3  1  0
  3  4  1  1
  3  5  1  0
  5  6  2  0
  6  7  1  0
  6  8  1  0
  8  9  2  0
  9 10  1  0
  9 11  1  0
 11 12  1  0
 11 13  2  0
 13 14  1  0
  3 15  1  0
 15 16  1  6
 15 17  1  0
 17 18  1  0
 17 19  1  0
 19 20  2  0
 19 21  1  0
 21 22  1  0
 21 23  1  0
 23 24  2  0
 24 25  1  0
 24 26  1  0
 26 27  1  0
 26 28  2  0
 28 29  1  0
 28 30  1  0
 30 31  1  0
 30 32  2  0
 32 33  1  0
 15 34  1  0
 34 35  1  0
 34 36  1  0
 34 37  1  0
 13  5  1  0
 32 23  1  0
M  END
>  <plip>  (1) 
-0.034482758620689655

>  <filename>  (1) 
[H][O][C@]([H])([c]1[c]([H])[n][c]([H])[c]([H])[c]1[H])[C@]([H])([N]([H])[C](=[S])[N]([H])[c]1[c]([H])[c]([H])[c]([H])[c]([H])[c]1[H])[C]([H])([H])[H]

$$$$
