
     RDKit          3D

 34 35  0  0  0  0  0  0  0  0999 V2000
   12.7950    3.5539   21.8246 H   0  0  0  0  0  0  0  0  0  0  0  0
   11.8760    3.7285   22.0823 O   0  0  0  0  0  0  0  0  0  0  0  0
   11.1499    2.6014   21.7993 C   0  0  0  0  0  0  0  0  0  0  0  0
    9.7776    2.7351   21.5813 C   0  0  0  0  0  0  0  0  0  0  0  0
    9.3240    3.7029   21.7574 H   0  0  0  0  0  0  0  0  0  0  0  0
    9.0055    1.6673   21.1218 C   0  0  0  0  0  0  0  0  0  0  0  0
    7.9625    1.8332   20.8731 H   0  0  0  0  0  0  0  0  0  0  0  0
    9.5628    0.3858   21.0409 C   0  0  0  0  0  0  0  0  0  0  0  0
    8.7998   -0.7379   20.7008 N   0  0  0  0  0  0  0  0  0  0  0  0
    9.2770   -1.5948   20.9570 H   0  0  0  0  0  0  0  0  0  0  0  0
    7.3597   -0.7750   20.9938 C   0  0  0  0  0  0  0  0  0  0  0  0
    6.6223    0.0430   19.9275 C   0  0  0  0  0  0  0  0  0  0  0  0
    7.1266    0.0572   18.6114 C   0  0  0  0  0  0  0  0  0  0  0  0
    8.0634   -0.4482   18.3872 H   0  0  0  0  0  0  0  0  0  0  0  0
    6.5292    0.6592   17.5732 N   0  0  0  0  0  0  0  0  0  0  0  0
    5.3758    1.2964   17.8133 C   0  0  0  0  0  0  0  0  0  0  0  0
    4.9168    1.7896   16.9581 H   0  0  0  0  0  0  0  0  0  0  0  0
    4.7748    1.3362   19.0732 C   0  0  0  0  0  0  0  0  0  0  0  0
    3.8450    1.8747   19.2018 H   0  0  0  0  0  0  0  0  0  0  0  0
    5.4005    0.6938   20.1461 C   0  0  0  0  0  0  0  0  0  0  0  0
    4.9434    0.7222   21.1357 H   0  0  0  0  0  0  0  0  0  0  0  0
    6.9016   -2.2302   20.8867 C   0  0  0  0  0  0  0  0  0  0  0  0
    5.8746   -2.3422   21.2442 H   0  0  0  0  0  0  0  0  0  0  0  0
    6.8949   -2.5674   19.8531 H   0  0  0  0  0  0  0  0  0  0  0  0
    7.5391   -2.8933   21.4804 H   0  0  0  0  0  0  0  0  0  0  0  0
    7.0923   -0.2935   22.4380 C   0  0  0  0  0  0  0  0  0  0  0  0
    6.0790   -0.5263   22.7575 H   0  0  0  0  0  0  0  0  0  0  0  0
    7.2409    0.7786   22.5740 H   0  0  0  0  0  0  0  0  0  0  0  0
    7.7742   -0.8117   23.1185 H   0  0  0  0  0  0  0  0  0  0  0  0
   10.9267    0.2227   21.3266 C   0  0  0  0  0  0  0  0  0  0  0  0
   11.3763   -0.7638   21.2608 H   0  0  0  0  0  0  0  0  0  0  0  0
   11.7134    1.3110   21.7008 C   0  0  0  0  0  0  0  0  0  0  0  0
   13.0488    1.1667   22.0241 O   0  0  0  0  0  0  0  0  0  0  0  0
   13.4445    0.5722   21.3792 H   0  0  0  0  0  0  0  0  0  0  0  0
  1  2  1  0
  2  3  1  0
  3  4  2  0
  4  5  1  0
  4  6  1  0
  6  7  1  0
  6  8  2  0
  8  9  1  0
  9 10  1  0
  9 11  1  0
 11 12  1  0
 12 13  2  0
 13 14  1  0
 13 15  1  0
 15 16  2  0
 16 17  1  0
 16 18  1  0
 18 19  1  0
 18 20  2  0
 20 21  1  0
 11 22  1  0
 22 23  1  0
 22 24  1  0
 22 25  1  0
 11 26  1  0
 26 27  1  0
 26 28  1  0
 26 29  1  0
  8 30  1  0
 30 31  1  0
 30 32  2  0
 32 33  1  0
 33 34  1  0
 32  3  1  0
 20 12  1  0
M  END
>  <plip>  (1) 
-0.10344827586206896

>  <filename>  (1) 
[H][O][c]1[c]([H])[c]([H])[c]([N]([H])[C]([c]2[c]([H])[n][c]([H])[c]([H])[c]2[H])([C]([H])([H])[H])[C]([H])([H])[H])[c]([H])[c]1[O][H]

$$$$
