
     RDKit          3D

 31 32  0  0  0  0  0  0  0  0999 V2000
    6.7182   -1.4313   21.5633 H   0  0  0  0  0  0  0  0  0  0  0  0
    7.3055   -0.6877   21.0189 C   0  0  0  0  0  0  0  0  0  0  0  0
    8.5631   -0.4693   21.4177 C   0  0  0  0  0  0  0  0  0  0  0  0
    9.1590   -1.3194   22.4750 C   0  0  0  0  0  0  0  0  0  0  0  0
    8.5383   -1.5114   23.7427 C   0  0  0  0  0  0  0  0  0  0  0  0
    7.3788   -0.8608   23.9397 O   0  0  0  0  0  0  0  0  0  0  0  0
    6.6784   -0.9536   25.1712 C   0  0  0  0  0  0  0  0  0  0  0  0
    5.8052   -0.3176   25.0077 H   0  0  0  0  0  0  0  0  0  0  0  0
    6.3775   -1.9882   25.3784 H   0  0  0  0  0  0  0  0  0  0  0  0
    7.2829   -0.5817   26.0082 H   0  0  0  0  0  0  0  0  0  0  0  0
    9.0443   -2.2551   24.7154 N   0  0  0  0  0  0  0  0  0  0  0  0
   10.2090   -2.8811   24.4810 C   0  0  0  0  0  0  0  0  0  0  0  0
   10.6030   -3.4866   25.3007 H   0  0  0  0  0  0  0  0  0  0  0  0
   10.9006   -2.7740   23.2803 C   0  0  0  0  0  0  0  0  0  0  0  0
   11.8455   -3.2908   23.1537 H   0  0  0  0  0  0  0  0  0  0  0  0
   10.3763   -1.9653   22.2686 C   0  0  0  0  0  0  0  0  0  0  0  0
   10.8937   -1.8347   21.3149 H   0  0  0  0  0  0  0  0  0  0  0  0
    9.4386    0.5509   20.7518 C   0  0  0  0  0  0  0  0  0  0  0  0
    8.8517    1.4335   20.4873 H   0  0  0  0  0  0  0  0  0  0  0  0
    9.7994    0.0997   19.8266 H   0  0  0  0  0  0  0  0  0  0  0  0
   10.2833    0.8410   21.3821 H   0  0  0  0  0  0  0  0  0  0  0  0
    6.6305   -0.0122   19.8921 C   0  0  0  0  0  0  0  0  0  0  0  0
    7.1498    0.0559   18.5819 C   0  0  0  0  0  0  0  0  0  0  0  0
    8.0975   -0.4261   18.3483 H   0  0  0  0  0  0  0  0  0  0  0  0
    6.5492    0.6850   17.5642 N   0  0  0  0  0  0  0  0  0  0  0  0
    5.3879    1.3063   17.8190 C   0  0  0  0  0  0  0  0  0  0  0  0
    4.9209    1.8140   16.9771 H   0  0  0  0  0  0  0  0  0  0  0  0
    4.7853    1.3137   19.0825 C   0  0  0  0  0  0  0  0  0  0  0  0
    3.8581    1.8555   19.2329 H   0  0  0  0  0  0  0  0  0  0  0  0
    5.4108    0.6377   20.1284 C   0  0  0  0  0  0  0  0  0  0  0  0
    4.9973    0.6236   21.1359 H   0  0  0  0  0  0  0  0  0  0  0  0
  1  2  1  0
  2  3  2  3
  3  4  1  0
  4  5  2  0
  5  6  1  0
  6  7  1  0
  7  8  1  0
  7  9  1  0
  7 10  1  0
  5 11  1  0
 11 12  2  0
 12 13  1  0
 12 14  1  0
 14 15  1  0
 14 16  2  0
 16 17  1  0
  3 18  1  0
 18 19  1  0
 18 20  1  0
 18 21  1  0
  2 22  1  0
 22 23  2  0
 23 24  1  0
 23 25  1  0
 25 26  2  0
 26 27  1  0
 26 28  1  0
 28 29  1  0
 28 30  2  0
 30 31  1  0
 16  4  1  0
 30 22  1  0
M  END
>  <plip>  (1) 
-0.03571428571428571

>  <filename>  (1) 
[H][C](=[C]([c]1[c]([O][C]([H])([H])[H])[n][c]([H])[c]([H])[c]1[H])[C]([H])([H])[H])[c]1[c]([H])[n][c]([H])[c]([H])[c]1[H]

$$$$
