
     RDKit          3D

 33 35  0  0  0  0  0  0  0  0999 V2000
   10.3817   -2.9302   23.5664 N   0  0  0  0  0  0  0  0  0  0  0  0
   10.3696   -1.6763   23.0148 C   0  0  0  0  0  0  0  0  0  0  0  0
    9.1814   -1.1975   22.4724 C   0  0  0  0  0  0  0  0  0  0  0  0
    9.2176   -0.0047   21.7946 C   0  0  0  0  0  0  0  0  0  0  0  0
    8.1578    0.3511   21.0250 N   0  0  0  0  0  0  0  0  0  0  0  0
    6.9946   -0.4902   20.7874 C   0  0  0  0  0  0  0  0  0  0  0  0
    6.2224    0.1060   19.6454 C   0  0  0  0  0  0  0  0  0  0  0  0
    4.9869    0.7439   19.7884 C   0  0  0  0  0  0  0  0  0  0  0  0
    4.4896    1.4736   18.7053 C   0  0  0  0  0  0  0  0  0  0  0  0
    5.2247    1.4999   17.5171 C   0  0  0  0  0  0  0  0  0  0  0  0
    6.3616    0.8086   17.3350 N   0  0  0  0  0  0  0  0  0  0  0  0
    6.8314    0.1274   18.3830 C   0  0  0  0  0  0  0  0  0  0  0  0
    7.7503   -0.4368   18.2118 H   0  0  0  0  0  0  0  0  0  0  0  0
    4.8815    2.0806   16.6642 H   0  0  0  0  0  0  0  0  0  0  0  0
    3.5753    2.0519   18.7834 H   0  0  0  0  0  0  0  0  0  0  0  0
    4.4331    0.6872   20.7285 H   0  0  0  0  0  0  0  0  0  0  0  0
    6.3692   -0.5916   21.6882 H   0  0  0  0  0  0  0  0  0  0  0  0
    7.3324   -1.4976   20.5086 H   0  0  0  0  0  0  0  0  0  0  0  0
    8.0536    1.3257   20.8150 H   0  0  0  0  0  0  0  0  0  0  0  0
   10.4014    0.8305   21.8863 C   0  0  0  0  0  0  0  0  0  0  0  0
   10.5681    2.1559   21.3813 C   0  0  0  0  0  0  0  0  0  0  0  0
   11.7421    2.8441   21.5966 C   0  0  0  0  0  0  0  0  0  0  0  0
   12.8143    2.2598   22.3187 C   0  0  0  0  0  0  0  0  0  0  0  0
   12.6920    0.9697   22.7748 C   0  0  0  0  0  0  0  0  0  0  0  0
   11.4986    0.2334   22.5659 C   0  0  0  0  0  0  0  0  0  0  0  0
   11.4996   -1.0365   23.0577 N   0  0  0  0  0  0  0  0  0  0  0  0
   13.4745    0.4327   23.2991 H   0  0  0  0  0  0  0  0  0  0  0  0
   13.7288    2.8253   22.4750 H   0  0  0  0  0  0  0  0  0  0  0  0
   11.8611    3.8498   21.2052 H   0  0  0  0  0  0  0  0  0  0  0  0
    9.7721    2.6397   20.8218 H   0  0  0  0  0  0  0  0  0  0  0  0
    8.2868   -1.7862   22.5912 H   0  0  0  0  0  0  0  0  0  0  0  0
    9.5858   -3.0324   24.1693 H   0  0  0  0  0  0  0  0  0  0  0  0
   11.2736   -2.9894   24.0432 H   0  0  0  0  0  0  0  0  0  0  0  0
  1  2  1  0
  2  3  2  0
  3  4  1  0
  4  5  1  0
  5  6  1  0
  6  7  1  0
  7  8  2  0
  8  9  1  0
  9 10  2  0
 10 11  1  0
 11 12  2  0
 12 13  1  0
 10 14  1  0
  9 15  1  0
  8 16  1  0
  6 17  1  0
  6 18  1  0
  5 19  1  0
  4 20  2  0
 20 21  1  0
 21 22  2  0
 22 23  1  0
 23 24  2  0
 24 25  1  0
 25 26  2  0
 24 27  1  0
 23 28  1  0
 22 29  1  0
 21 30  1  0
  3 31  1  0
  1 32  1  0
  1 33  1  0
 26  2  1  0
 12  7  1  0
 25 20  1  0
M  END
>  <plip>  (1) 
-0.10714285714285714

>  <filename>  (1) 
[H][c]1[n][c]([H])[c]([C]([H])([H])[N]([H])[c]2[c]([H])[c]([N]([H])[H])[n][c]3[c]([H])[c]([H])[c]([H])[c]([H])[c]23)[c]([H])[c]1[H]

$$$$
