
     RDKit          3D

 34 35  0  0  0  0  0  0  0  0999 V2000
    4.9236    1.7769   16.9979 H   0  0  0  0  0  0  0  0  0  0  0  0
    5.4056    1.2884   17.8416 C   0  0  0  0  0  0  0  0  0  0  0  0
    6.5707    0.6703   17.5905 N   0  0  0  0  0  0  0  0  0  0  0  0
    7.1718    0.0582   18.6124 C   0  0  0  0  0  0  0  0  0  0  0  0
    8.1201   -0.4260   18.3756 H   0  0  0  0  0  0  0  0  0  0  0  0
    6.6534    0.0126   19.9173 C   0  0  0  0  0  0  0  0  0  0  0  0
    7.3656   -0.6806   20.9916 C   0  0  0  0  0  0  0  0  0  0  0  0
    6.8957   -0.7803   22.1990 N   0  0  0  0  0  0  0  0  0  0  0  0
    7.7464   -1.5334   22.9559 N   0  0  0  0  0  0  0  0  0  0  0  0
    7.5818   -1.6613   24.3828 C   0  0  0  0  0  0  0  0  0  0  0  0
    7.7955   -2.7069   24.6364 H   0  0  0  0  0  0  0  0  0  0  0  0
    6.5293   -1.4838   24.6211 H   0  0  0  0  0  0  0  0  0  0  0  0
    8.4242   -0.8082   25.2110 N   0  0  0  0  0  0  0  0  0  0  0  0
    9.3840   -1.0728   25.0086 H   0  0  0  0  0  0  0  0  0  0  0  0
    8.2873    0.6263   24.9304 C   0  0  0  0  0  0  0  0  0  0  0  0
    8.3960    0.8278   23.8540 H   0  0  0  0  0  0  0  0  0  0  0  0
    6.9108    1.1179   25.3599 C   0  0  0  0  0  0  0  0  0  0  0  0
    6.8619    2.2103   25.2984 H   0  0  0  0  0  0  0  0  0  0  0  0
    6.1172    0.7224   24.7181 H   0  0  0  0  0  0  0  0  0  0  0  0
    6.7055    0.8299   26.3961 H   0  0  0  0  0  0  0  0  0  0  0  0
    9.3884    1.3841   25.6555 C   0  0  0  0  0  0  0  0  0  0  0  0
    9.3063    1.2249   26.7342 H   0  0  0  0  0  0  0  0  0  0  0  0
   10.3884    1.0736   25.3288 H   0  0  0  0  0  0  0  0  0  0  0  0
    9.3019    2.4606   25.4651 H   0  0  0  0  0  0  0  0  0  0  0  0
    8.9588   -1.9124   22.2591 C   0  0  0  0  0  0  0  0  0  0  0  0
    9.8762   -1.4750   22.6857 H   0  0  0  0  0  0  0  0  0  0  0  0
    9.0861   -3.0057   22.2648 H   0  0  0  0  0  0  0  0  0  0  0  0
    8.7017   -1.3568   20.8525 C   0  0  0  0  0  0  0  0  0  0  0  0
    8.6467   -2.1633   20.1359 H   0  0  0  0  0  0  0  0  0  0  0  0
    9.4815   -0.6805   20.4890 H   0  0  0  0  0  0  0  0  0  0  0  0
    5.4285    0.6578   20.1641 C   0  0  0  0  0  0  0  0  0  0  0  0
    5.0015    0.6340   21.1712 H   0  0  0  0  0  0  0  0  0  0  0  0
    4.8078    1.3091   19.1060 C   0  0  0  0  0  0  0  0  0  0  0  0
    3.8761    1.8421   19.2553 H   0  0  0  0  0  0  0  0  0  0  0  0
  1  2  1  0
  2  3  2  0
  3  4  1  0
  4  5  1  0
  4  6  2  0
  6  7  1  0
  7  8  2  0
  8  9  1  0
  9 10  1  0
 10 11  1  0
 10 12  1  0
 10 13  1  0
 13 14  1  0
 13 15  1  0
 15 16  1  0
 15 17  1  0
 17 18  1  0
 17 19  1  0
 17 20  1  0
 15 21  1  0
 21 22  1  0
 21 23  1  0
 21 24  1  0
  9 25  1  0
 25 26  1  0
 25 27  1  0
 25 28  1  0
 28 29  1  0
 28 30  1  0
  6 31  1  0
 31 32  1  0
 31 33  2  0
 33 34  1  0
 33  2  1  0
 28  7  1  0
M  END
>  <plip>  (1) 
-0.07142857142857142

>  <filename>  (1) 
[H][c]1[n][c]([H])[c]([C]2=[N][N]([C]([H])([H])[N]([H])[C]([H])([C]([H])([H])[H])[C]([H])([H])[H])[C]([H])([H])[C]2([H])[H])[c]([H])[c]1[H]

$$$$
