
     RDKit          3D

 38 39  0  0  0  0  0  0  0  0999 V2000
    6.7505   -1.9764   21.4107 C   0  0  0  0  0  0  0  0  0  0  0  0
    7.1845   -0.5076   21.3180 C   0  0  0  0  0  0  0  0  0  0  0  0
    6.6321    0.1778   20.0666 C   0  0  0  0  0  0  0  0  0  0  0  0
    5.3489    0.7504   20.0861 C   0  0  0  0  0  0  0  0  0  0  0  0
    4.8183    1.2667   18.9019 C   0  0  0  0  0  0  0  0  0  0  0  0
    5.5893    1.2096   17.7363 C   0  0  0  0  0  0  0  0  0  0  0  0
    6.8335    0.7092   17.6987 N   0  0  0  0  0  0  0  0  0  0  0  0
    7.3353    0.2364   18.8530 C   0  0  0  0  0  0  0  0  0  0  0  0
    8.3678   -0.1063   18.8062 H   0  0  0  0  0  0  0  0  0  0  0  0
    5.1931    1.6037   16.8018 H   0  0  0  0  0  0  0  0  0  0  0  0
    3.8444    1.7451   18.8788 H   0  0  0  0  0  0  0  0  0  0  0  0
    4.7813    0.8369   21.0154 H   0  0  0  0  0  0  0  0  0  0  0  0
    8.6463   -0.3484   21.4470 N   0  0  0  0  0  0  0  0  0  0  0  0
    9.5418   -1.4238   20.9704 C   0  0  0  0  0  0  0  0  0  0  0  0
    9.6441   -2.2348   21.7081 H   0  0  0  0  0  0  0  0  0  0  0  0
    9.1576   -1.8545   20.0400 H   0  0  0  0  0  0  0  0  0  0  0  0
   10.5391   -1.0180   20.7903 H   0  0  0  0  0  0  0  0  0  0  0  0
    9.2069    0.7774   22.0203 C   0  0  0  0  0  0  0  0  0  0  0  0
   10.4105    0.8487   22.2336 O   0  0  0  0  0  0  0  0  0  0  0  0
    8.2626    2.0356   22.4312 C   0  0  0  0  0  0  0  0  0  0  0  0
    7.1899    2.2621   21.9055 O   0  0  0  0  0  0  0  0  0  0  0  0
    8.7617    2.8228   23.4392 N   0  0  0  0  0  0  0  0  0  0  0  0
    8.1895    4.0139   23.9275 C   0  0  0  0  0  0  0  0  0  0  0  0
    6.8159    4.2683   23.8944 C   0  0  0  0  0  0  0  0  0  0  0  0
    6.3253    5.4768   24.3910 C   0  0  0  0  0  0  0  0  0  0  0  0
    7.1884    6.4452   24.9079 C   0  0  0  0  0  0  0  0  0  0  0  0
    8.5640    6.1903   24.9588 C   0  0  0  0  0  0  0  0  0  0  0  0
    9.6427    7.3845   25.6003 Cl  0  0  0  0  0  0  0  0  0  0  0  0
    9.0572    4.9716   24.4940 C   0  0  0  0  0  0  0  0  0  0  0  0
   10.3666    4.6763   24.5764 F   0  0  0  0  0  0  0  0  0  0  0  0
    6.8063    7.3906   25.2779 H   0  0  0  0  0  0  0  0  0  0  0  0
    5.2590    5.6717   24.3692 H   0  0  0  0  0  0  0  0  0  0  0  0
    6.1459    3.5295   23.4761 H   0  0  0  0  0  0  0  0  0  0  0  0
    9.7368    2.7026   23.6768 H   0  0  0  0  0  0  0  0  0  0  0  0
    6.7282    0.0001   22.1787 H   0  0  0  0  0  0  0  0  0  0  0  0
    7.2892   -2.4851   22.2170 H   0  0  0  0  0  0  0  0  0  0  0  0
    6.9228   -2.5226   20.4761 H   0  0  0  0  0  0  0  0  0  0  0  0
    5.6812   -2.0232   21.6396 H   0  0  0  0  0  0  0  0  0  0  0  0
  1  2  1  0
  2  3  1  0
  3  4  2  0
  4  5  1  0
  5  6  2  0
  6  7  1  0
  7  8  2  0
  8  9  1  0
  6 10  1  0
  5 11  1  0
  4 12  1  0
  2 13  1  0
 13 14  1  0
 14 15  1  0
 14 16  1  0
 14 17  1  0
 13 18  1  0
 18 19  2  0
 18 20  1  0
 20 21  2  0
 20 22  1  0
 22 23  1  0
 23 24  2  0
 24 25  1  0
 25 26  2  0
 26 27  1  0
 27 28  1  0
 27 29  2  0
 29 30  1  0
 26 31  1  0
 25 32  1  0
 24 33  1  0
 22 34  1  0
  2 35  1  0
  1 36  1  0
  1 37  1  0
  1 38  1  0
  8  3  1  0
 29 23  1  0
M  END
>  <plip>  (1) 
-0.03571428571428571

>  <filename>  (1) 
[H][c]1[n][c]([H])[c]([C]([H])([N]([C](=[O])[C](=[O])[N]([H])[c]2[c]([H])[c]([H])[c]([H])[c]([Cl])[c]2[F])[C]([H])([H])[H])[C]([H])([H])[H])[c]([H])[c]1[H]

$$$$
