
     RDKit          3D

 27 28  0  0  0  0  0  0  0  0999 V2000
    7.7275   -2.7923   26.5880 C   0  0  0  0  0  0  0  0  0  0  0  0
    7.8796   -2.7397   25.0834 C   0  0  0  0  0  0  0  0  0  0  0  0
    7.4868   -1.6624   24.3740 C   0  0  0  0  0  0  0  0  0  0  0  0
    7.7660   -1.4903   22.9613 C   0  0  0  0  0  0  0  0  0  0  0  0
    8.8334   -1.8680   22.1975 C   0  0  0  0  0  0  0  0  0  0  0  0
    8.6048   -1.3529   20.8965 C   0  0  0  0  0  0  0  0  0  0  0  0
    7.4036   -0.6973   20.9460 C   0  0  0  0  0  0  0  0  0  0  0  0
    6.6440    0.0132   19.9213 C   0  0  0  0  0  0  0  0  0  0  0  0
    5.4157    0.6615   20.1701 C   0  0  0  0  0  0  0  0  0  0  0  0
    4.7969    1.3138   19.1031 C   0  0  0  0  0  0  0  0  0  0  0  0
    5.4026    1.2915   17.8373 C   0  0  0  0  0  0  0  0  0  0  0  0
    6.5648    0.6731   17.5794 N   0  0  0  0  0  0  0  0  0  0  0  0
    7.1571    0.0645   18.6121 C   0  0  0  0  0  0  0  0  0  0  0  0
    8.1007   -0.4147   18.3703 H   0  0  0  0  0  0  0  0  0  0  0  0
    4.9294    1.7809   16.9900 H   0  0  0  0  0  0  0  0  0  0  0  0
    3.8643    1.8480   19.2487 H   0  0  0  0  0  0  0  0  0  0  0  0
    4.9860    0.6425   21.1757 H   0  0  0  0  0  0  0  0  0  0  0  0
    6.9003   -0.7544   22.2113 O   0  0  0  0  0  0  0  0  0  0  0  0
    9.2388   -1.4474   20.0236 H   0  0  0  0  0  0  0  0  0  0  0  0
    9.6841   -2.4283   22.5585 H   0  0  0  0  0  0  0  0  0  0  0  0
    6.9328   -0.8554   24.8681 H   0  0  0  0  0  0  0  0  0  0  0  0
    8.3982   -4.1125   24.3712 C   0  0  0  0  0  0  0  0  0  0  0  0
    7.9357   -4.4557   23.2639 O   0  0  0  0  0  0  0  0  0  0  0  0
    9.2137   -4.7328   25.0782 O   0  0  0  0  0  1  0  0  0  0  0  0
    7.8625   -1.7953   27.0274 H   0  0  0  0  0  0  0  0  0  0  0  0
    8.4449   -3.4786   27.0479 H   0  0  0  0  0  0  0  0  0  0  0  0
    6.7205   -3.1345   26.8676 H   0  0  0  0  0  0  0  0  0  0  0  0
  1  2  1  0
  2  3  2  3
  3  4  1  0
  4  5  2  0
  5  6  1  0
  6  7  2  0
  7  8  1  0
  8  9  2  0
  9 10  1  0
 10 11  2  0
 11 12  1  0
 12 13  2  0
 13 14  1  0
 11 15  1  0
 10 16  1  0
  9 17  1  0
  7 18  1  0
  6 19  1  0
  5 20  1  0
  3 21  1  0
  2 22  1  0
 22 23  2  0
 22 24  1  0
  1 25  1  0
  1 26  1  0
  1 27  1  0
 18  4  1  0
 13  8  1  0
M  CHG  1  24  -1
M  END
>  <plip>  (1) 
-0.0

>  <filename>  (1) 
[H][C](=[C]([C](=[O])[O-])[C]([H])([H])[H])[c]1[o][c](-[c]2[c]([H])[n][c]([H])[c]([H])[c]2[H])[c]([H])[c]1[H]

$$$$
