
     RDKit          3D

 40 42  0  0  0  0  0  0  0  0999 V2000
    6.4731   -3.5622   20.1269 O   0  0  0  0  0  0  0  0  0  0  0  0
    6.1720   -3.2365   21.2622 C   0  0  0  0  0  0  0  0  0  0  0  0
    6.4025   -1.9434   21.6724 N   0  0  0  0  0  0  0  0  0  0  0  0
    7.2815   -1.0072   20.9832 C   0  0  2  0  0  0  0  0  0  0  0  0
    7.8208   -0.0430   22.0367 C   0  0  0  0  0  0  0  0  0  0  0  0
    8.9256    0.8529   21.4829 C   0  0  0  0  0  0  0  0  0  0  0  0
    8.3826    1.7733   20.5399 O   0  0  0  0  0  0  0  0  0  0  0  0
    7.7876    2.4071   20.9792 H   0  0  0  0  0  0  0  0  0  0  0  0
    9.6948    0.2415   20.9997 H   0  0  0  0  0  0  0  0  0  0  0  0
    9.3980    1.4067   22.3009 H   0  0  0  0  0  0  0  0  0  0  0  0
    7.0029    0.5734   22.4222 H   0  0  0  0  0  0  0  0  0  0  0  0
    8.2298   -0.6199   22.8695 H   0  0  0  0  0  0  0  0  0  0  0  0
    6.5595   -0.2391   19.9068 C   0  0  0  0  0  0  0  0  0  0  0  0
    5.3906    0.4871   20.1600 C   0  0  0  0  0  0  0  0  0  0  0  0
    4.8490    1.2417   19.1184 C   0  0  0  0  0  0  0  0  0  0  0  0
    5.4748    1.2520   17.8663 C   0  0  0  0  0  0  0  0  0  0  0  0
    6.5966    0.5543   17.6170 N   0  0  0  0  0  0  0  0  0  0  0  0
    7.1227   -0.1667   18.6230 C   0  0  0  0  0  0  0  0  0  0  0  0
    8.0464   -0.7016   18.4274 H   0  0  0  0  0  0  0  0  0  0  0  0
    5.0419    1.8497   17.0693 H   0  0  0  0  0  0  0  0  0  0  0  0
    3.9564    1.8404   19.2660 H   0  0  0  0  0  0  0  0  0  0  0  0
    4.9320    0.4855   21.1479 H   0  0  0  0  0  0  0  0  0  0  0  0
    8.1265   -1.5524   20.5421 H   0  0  0  0  0  0  0  0  0  0  0  0
    6.0044   -1.6516   22.5613 H   0  0  0  0  0  0  0  0  0  0  0  0
    5.3624   -4.1650   22.0235 C   0  0  0  0  0  0  0  0  0  0  0  0
    4.6314   -3.7803   23.1514 C   0  0  0  0  0  0  0  0  0  0  0  0
    3.5327   -4.5607   23.4945 C   0  0  0  0  0  0  0  0  0  0  0  0
    2.5639   -4.0836   24.3890 C   0  0  0  0  0  0  0  0  0  0  0  0
    1.3766   -4.7972   24.5732 C   0  0  0  0  0  0  0  0  0  0  0  0
    1.1733   -6.0097   23.9230 C   0  0  0  0  0  0  0  0  0  0  0  0
   -0.4557   -6.9660   24.1815 Br  0  0  0  0  0  0  0  0  0  0  0  0
    2.1603   -6.4987   23.0641 C   0  0  0  0  0  0  0  0  0  0  0  0
    3.3314   -5.7847   22.8240 C   0  0  0  0  0  0  0  0  0  0  0  0
    4.1789   -6.2403   21.8887 N   0  0  0  0  0  0  0  0  0  0  0  0
    5.1664   -5.4381   21.4780 C   0  0  0  0  0  0  0  0  0  0  0  0
    5.7518   -5.7515   20.6161 H   0  0  0  0  0  0  0  0  0  0  0  0
    2.0263   -7.4267   22.5307 H   0  0  0  0  0  0  0  0  0  0  0  0
    0.5819   -4.4000   25.1915 H   0  0  0  0  0  0  0  0  0  0  0  0
    2.6888   -3.1240   24.8818 H   0  0  0  0  0  0  0  0  0  0  0  0
    4.8054   -2.8414   23.6698 H   0  0  0  0  0  0  0  0  0  0  0  0
  1  2  2  0
  2  3  1  0
  3  4  1  0
  4  5  1  0
  5  6  1  0
  6  7  1  0
  7  8  1  0
  6  9  1  0
  6 10  1  0
  5 11  1  0
  5 12  1  0
  4 13  1  0
 13 14  2  0
 14 15  1  0
 15 16  2  0
 16 17  1  0
 17 18  2  0
 18 19  1  0
 16 20  1  0
 15 21  1  0
 14 22  1  0
  4 23  1  6
  3 24  1  0
  2 25  1  0
 25 26  2  0
 26 27  1  0
 27 28  2  0
 28 29  1  0
 29 30  2  0
 30 31  1  0
 30 32  1  0
 32 33  2  0
 33 34  1  0
 34 35  2  0
 35 36  1  0
 32 37  1  0
 29 38  1  0
 28 39  1  0
 26 40  1  0
 18 13  1  0
 35 25  1  0
 33 27  1  0
M  END
>  <plip>  (1) 
-0.1724137931034483

>  <filename>  (1) 
[H][O][C]([H])([H])[C]([H])([H])[C@]([H])([c]1[c]([H])[n][c]([H])[c]([H])[c]1[H])[N]([H])[C](=[O])[c]1[c]([H])[n][c]2[c]([H])[c]([Br])[c]([H])[c]([H])[c]2[c]1[H]

$$$$
