
     RDKit          3D

 34 36  0  0  0  0  0  0  0  0999 V2000
    5.6176   -4.5257   27.2701 H   0  0  0  0  0  0  0  0  0  0  0  0
    6.3950   -4.0048   27.0437 O   0  0  0  0  0  0  0  0  0  0  0  0
    6.3173   -3.6745   25.7266 C   0  0  0  0  0  0  0  0  0  0  0  0
    7.2184   -2.7148   25.2531 C   0  0  0  0  0  0  0  0  0  0  0  0
    7.9496   -2.3303   25.9608 H   0  0  0  0  0  0  0  0  0  0  0  0
    7.1598   -2.2943   23.9204 C   0  0  0  0  0  0  0  0  0  0  0  0
    7.8656   -1.5517   23.5521 H   0  0  0  0  0  0  0  0  0  0  0  0
    6.2005   -2.8409   23.0544 C   0  0  0  0  0  0  0  0  0  0  0  0
    6.0043   -2.4586   21.7474 O   0  0  0  0  0  0  0  0  0  0  0  0
    7.0096   -1.8121   20.9694 C   0  0  2  0  0  0  0  0  0  0  0  0
    6.7426   -2.0833   19.9423 H   0  0  0  0  0  0  0  0  0  0  0  0
    8.4676   -2.2875   21.1572 C   0  0  0  0  0  0  0  0  0  0  0  0
    8.8893   -3.4037   21.3445 O   0  0  0  0  0  0  0  0  0  0  0  0
    9.2609   -1.1906   21.0221 N   0  0  0  0  0  0  0  0  0  0  0  0
   10.2197   -1.3829   21.2878 H   0  0  0  0  0  0  0  0  0  0  0  0
    8.5830    0.0748   21.2700 C   0  0  0  0  0  0  0  0  0  0  0  0
    8.9028    0.8393   20.5555 H   0  0  0  0  0  0  0  0  0  0  0  0
    8.8162    0.4731   22.2652 H   0  0  0  0  0  0  0  0  0  0  0  0
    7.0657   -0.2566   21.1252 C   0  0  1  0  0  0  0  0  0  0  0  0
    6.5262    0.0256   22.0402 H   0  0  0  0  0  0  0  0  0  0  0  0
    6.4207    0.4522   19.9455 C   0  0  0  0  0  0  0  0  0  0  0  0
    7.0333    0.4130   18.6778 C   0  0  0  0  0  0  0  0  0  0  0  0
    8.0213   -0.0341   18.5692 H   0  0  0  0  0  0  0  0  0  0  0  0
    6.4990    0.8946   17.5508 N   0  0  0  0  0  0  0  0  0  0  0  0
    5.2982    1.4843   17.6509 C   0  0  0  0  0  0  0  0  0  0  0  0
    4.8863    1.8767   16.7252 H   0  0  0  0  0  0  0  0  0  0  0  0
    4.6087    1.6097   18.8575 C   0  0  0  0  0  0  0  0  0  0  0  0
    3.6487    2.1096   18.8713 H   0  0  0  0  0  0  0  0  0  0  0  0
    5.1784    1.0953   20.0262 C   0  0  0  0  0  0  0  0  0  0  0  0
    4.6706    1.2067   20.9845 H   0  0  0  0  0  0  0  0  0  0  0  0
    5.3230   -3.8293   23.5249 C   0  0  0  0  0  0  0  0  0  0  0  0
    4.5969   -4.2201   22.8168 H   0  0  0  0  0  0  0  0  0  0  0  0
    5.3847   -4.2553   24.8553 C   0  0  0  0  0  0  0  0  0  0  0  0
    4.7178   -5.0397   25.2156 H   0  0  0  0  0  0  0  0  0  0  0  0
  1  2  1  0
  2  3  1  0
  3  4  2  0
  4  5  1  0
  4  6  1  0
  6  7  1  0
  6  8  2  0
  8  9  1  0
  9 10  1  0
 10 11  1  6
 10 12  1  0
 12 13  2  0
 12 14  1  0
 14 15  1  0
 14 16  1  0
 16 17  1  0
 16 18  1  0
 16 19  1  0
 19 20  1  1
 19 21  1  0
 21 22  2  0
 22 23  1  0
 22 24  1  0
 24 25  2  0
 25 26  1  0
 25 27  1  0
 27 28  1  0
 27 29  2  0
 29 30  1  0
  8 31  1  0
 31 32  1  0
 31 33  2  0
 33 34  1  0
 33  3  1  0
 19 10  1  0
 29 21  1  0
M  END
>  <plip>  (1) 
-0.03333333333333333

>  <filename>  (1) 
[H][O][c]1[c]([H])[c]([H])[c]([O][C@]2([H])[C](=[O])[N]([H])[C]([H])([H])[C@@]2([H])[c]2[c]([H])[n][c]([H])[c]([H])[c]2[H])[c]([H])[c]1[H]

$$$$
