
     RDKit          3D

 40 41  0  0  0  0  0  0  0  0999 V2000
   11.4679    0.9943   23.1539 C   0  0  0  0  0  0  0  0  0  0  0  0
   10.3315    2.0202   23.2137 C   0  0  0  0  0  0  0  0  0  0  0  0
    9.4081    1.5854   24.2084 O   0  0  0  0  0  0  0  0  0  0  0  0
    9.0234    2.3605   24.6526 H   0  0  0  0  0  0  0  0  0  0  0  0
    9.6276    2.2275   21.8520 C   0  0  0  0  0  0  0  0  0  0  0  0
    9.2219    1.0101   21.0768 N   0  0  0  0  0  4  0  0  0  0  0  0
    8.1198    0.2789   21.7970 C   0  0  0  0  0  0  0  0  0  0  0  0
    7.3086   -0.7696   20.9906 C   0  0  0  0  0  0  0  0  0  0  0  0
    8.1564   -1.7084   20.4932 F   0  0  0  0  0  0  0  0  0  0  0  0
    6.4341   -1.3905   21.8238 F   0  0  0  0  0  0  0  0  0  0  0  0
    6.5627   -0.0780   19.8820 C   0  0  0  0  0  0  0  0  0  0  0  0
    5.3689    0.6119   20.1172 C   0  0  0  0  0  0  0  0  0  0  0  0
    4.8127    1.3112   19.0524 C   0  0  0  0  0  0  0  0  0  0  0  0
    5.4386    1.2977   17.8035 C   0  0  0  0  0  0  0  0  0  0  0  0
    6.5750    0.6122   17.5791 N   0  0  0  0  0  0  0  0  0  0  0  0
    7.1195   -0.0626   18.5988 C   0  0  0  0  0  0  0  0  0  0  0  0
    8.0496   -0.5967   18.4211 H   0  0  0  0  0  0  0  0  0  0  0  0
    4.9926    1.8612   16.9894 H   0  0  0  0  0  0  0  0  0  0  0  0
    3.9029    1.8850   19.1834 H   0  0  0  0  0  0  0  0  0  0  0  0
    4.8962    0.6192   21.1008 H   0  0  0  0  0  0  0  0  0  0  0  0
    7.3895    1.0039   22.1749 H   0  0  0  0  0  0  0  0  0  0  0  0
    8.5335   -0.2308   22.6748 H   0  0  0  0  0  0  0  0  0  0  0  0
   10.0342    0.3899   20.9545 H   0  0  0  0  0  0  0  0  0  0  0  0
    8.8898    1.3021   20.1504 H   0  0  0  0  0  0  0  0  0  0  0  0
    8.7357    2.8245   22.0683 H   0  0  0  0  0  0  0  0  0  0  0  0
   10.2937    2.8550   21.2527 H   0  0  0  0  0  0  0  0  0  0  0  0
   10.8951    3.3597   23.6425 C   0  0  0  0  0  0  0  0  0  0  0  0
   12.1229    3.8032   23.1277 C   0  0  0  0  0  0  0  0  0  0  0  0
   12.6781    5.0141   23.5641 C   0  0  0  0  0  0  0  0  0  0  0  0
   12.0133    5.7939   24.5075 C   0  0  0  0  0  0  0  0  0  0  0  0
   12.8030    7.4090   25.1609 Br  0  0  0  0  0  0  0  0  0  0  0  0
   10.7679    5.3822   24.9883 C   0  0  0  0  0  0  0  0  0  0  0  0
   10.2010    4.1800   24.5469 C   0  0  0  0  0  0  0  0  0  0  0  0
    8.9837    3.8072   25.0018 F   0  0  0  0  0  0  0  0  0  0  0  0
   10.2409    5.9997   25.7043 H   0  0  0  0  0  0  0  0  0  0  0  0
   13.6409    5.3427   23.1873 H   0  0  0  0  0  0  0  0  0  0  0  0
   12.6455    3.2064   22.3849 H   0  0  0  0  0  0  0  0  0  0  0  0
   12.1936    1.2752   22.3892 H   0  0  0  0  0  0  0  0  0  0  0  0
   11.0949   -0.0039   22.9231 H   0  0  0  0  0  0  0  0  0  0  0  0
   11.9867    0.9539   24.1155 H   0  0  0  0  0  0  0  0  0  0  0  0
  1  2  1  0
  2  3  1  0
  3  4  1  0
  2  5  1  0
  5  6  1  0
  6  7  1  0
  7  8  1  0
  8  9  1  0
  8 10  1  0
  8 11  1  0
 11 12  2  0
 12 13  1  0
 13 14  2  0
 14 15  1  0
 15 16  2  0
 16 17  1  0
 14 18  1  0
 13 19  1  0
 12 20  1  0
  7 21  1  0
  7 22  1  0
  6 23  1  0
  6 24  1  0
  5 25  1  0
  5 26  1  0
  2 27  1  0
 27 28  2  0
 28 29  1  0
 29 30  2  0
 30 31  1  0
 30 32  1  0
 32 33  2  0
 33 34  1  0
 32 35  1  0
 29 36  1  0
 28 37  1  0
  1 38  1  0
  1 39  1  0
  1 40  1  0
 16 11  1  0
 33 27  1  0
M  CHG  1   6   1
M  END
>  <plip>  (1) 
-0.06666666666666667

>  <filename>  (1) 
[H][O][C]([c]1[c]([H])[c]([H])[c]([Br])[c]([H])[c]1[F])([C]([H])([H])[H])[C]([H])([H])[N+]([H])([H])[C]([H])([H])[C]([F])([F])[c]1[c]([H])[n][c]([H])[c]([H])[c]1[H]

$$$$
