
     RDKit          3D

 44 45  0  0  0  0  0  0  0  0999 V2000
    5.2948   -3.0861   21.7197 C   0  0  0  0  0  0  0  0  0  0  0  0
    6.1523   -2.7628   20.7598 C   0  0  0  0  0  0  0  0  0  0  0  0
    7.4310   -2.0288   21.0854 C   0  0  0  0  0  0  0  0  0  0  0  0
    7.2864   -0.4996   21.2618 C   0  0  1  0  0  0  0  0  0  0  0  0
    8.6418    0.0717   21.3992 N   0  0  0  0  0  0  0  0  0  0  0  0
    9.4464   -0.4329   22.7692 S   0  0  0  0  0  0  0  0  0  0  0  0
    8.5191   -0.4460   23.8714 O   0  0  0  0  0  0  0  0  0  0  0  0
   10.1558   -1.6329   22.3599 O   0  0  0  0  0  0  0  0  0  0  0  0
   10.5315    0.7826   22.8901 N   0  0  0  0  0  0  0  0  0  0  0  0
   11.8569    0.4980   22.2969 C   0  0  0  0  0  0  0  0  0  0  0  0
   12.8804    1.4953   22.8197 C   0  0  0  0  0  0  0  0  0  0  0  0
   12.4421    2.9253   22.4996 C   0  0  0  0  0  0  0  0  0  0  0  0
   11.0721    3.1689   23.1399 C   0  0  0  0  0  0  0  0  0  0  0  0
   10.0038    2.1591   22.6891 C   0  0  0  0  0  0  0  0  0  0  0  0
    8.7052    2.3916   23.4543 C   0  0  0  0  0  0  0  0  0  0  0  0
    8.4261    3.4500   23.4106 H   0  0  0  0  0  0  0  0  0  0  0  0
    7.8834    1.8088   23.0302 H   0  0  0  0  0  0  0  0  0  0  0  0
    8.8293    2.0937   24.5003 H   0  0  0  0  0  0  0  0  0  0  0  0
    9.8319    2.3052   21.6083 H   0  0  0  0  0  0  0  0  0  0  0  0
   11.1605    3.0871   24.2322 H   0  0  0  0  0  0  0  0  0  0  0  0
   10.7152    4.1830   22.9213 H   0  0  0  0  0  0  0  0  0  0  0  0
   13.1792    3.6528   22.8619 H   0  0  0  0  0  0  0  0  0  0  0  0
   12.3721    3.0560   21.4076 H   0  0  0  0  0  0  0  0  0  0  0  0
   13.8641    1.2565   22.4020 H   0  0  0  0  0  0  0  0  0  0  0  0
   12.9519    1.3637   23.9057 H   0  0  0  0  0  0  0  0  0  0  0  0
   11.8201    0.5532   21.1964 H   0  0  0  0  0  0  0  0  0  0  0  0
   12.1628   -0.5181   22.5620 H   0  0  0  0  0  0  0  0  0  0  0  0
    9.2540   -0.4226   20.7610 H   0  0  0  0  0  0  0  0  0  0  0  0
    6.6298    0.2079   20.1080 C   0  0  0  0  0  0  0  0  0  0  0  0
    5.3566    0.8025   20.1959 C   0  0  0  0  0  0  0  0  0  0  0  0
    4.7902    1.3525   19.0430 C   0  0  0  0  0  0  0  0  0  0  0  0
    5.5129    1.2944   17.8477 C   0  0  0  0  0  0  0  0  0  0  0  0
    6.7271    0.7376   17.7459 N   0  0  0  0  0  0  0  0  0  0  0  0
    7.2715    0.2375   18.8636 C   0  0  0  0  0  0  0  0  0  0  0  0
    8.2657   -0.1914   18.7256 H   0  0  0  0  0  0  0  0  0  0  0  0
    5.1002    1.6985   16.9243 H   0  0  0  0  0  0  0  0  0  0  0  0
    3.8170    1.8354   19.0526 H   0  0  0  0  0  0  0  0  0  0  0  0
    4.8216    0.8493   21.1487 H   0  0  0  0  0  0  0  0  0  0  0  0
    6.7207   -0.2854   22.1769 H   0  0  0  0  0  0  0  0  0  0  0  0
    7.8573   -2.4184   22.0221 H   0  0  0  0  0  0  0  0  0  0  0  0
    8.1992   -2.1785   20.3175 H   0  0  0  0  0  0  0  0  0  0  0  0
    5.9307   -2.9690   19.7094 H   0  0  0  0  0  0  0  0  0  0  0  0
    4.3614   -3.6092   21.5542 H   0  0  0  0  0  0  0  0  0  0  0  0
    5.5118   -2.8067   22.7495 H   0  0  0  0  0  0  0  0  0  0  0  0
  1  2  2  3
  2  3  1  0
  3  4  1  0
  4  5  1  0
  5  6  1  0
  6  7  2  0
  6  8  2  0
  6  9  1  0
  9 10  1  0
 10 11  1  0
 11 12  1  0
 12 13  1  0
 13 14  1  0
 14 15  1  0
 15 16  1  0
 15 17  1  0
 15 18  1  0
 14 19  1  0
 13 20  1  0
 13 21  1  0
 12 22  1  0
 12 23  1  0
 11 24  1  0
 11 25  1  0
 10 26  1  0
 10 27  1  0
  5 28  1  0
  4 29  1  0
 29 30  2  0
 30 31  1  0
 31 32  2  0
 32 33  1  0
 33 34  2  0
 34 35  1  0
 32 36  1  0
 31 37  1  0
 30 38  1  0
  4 39  1  1
  3 40  1  0
  3 41  1  0
  2 42  1  0
  1 43  1  0
  1 44  1  0
 14  9  1  0
 34 29  1  0
M  END
>  <plip>  (1) 
-0.06666666666666667

>  <filename>  (1) 
[H][C]([H])=[C]([H])[C]([H])([H])[C@]([H])([c]1[c]([H])[n][c]([H])[c]([H])[c]1[H])[N]([H])[S](=[O])(=[O])[N]1[C]([H])([H])[C]([H])([H])[C]([H])([H])[C]([H])([H])[C]1([H])[C]([H])([H])[H]

$$$$
