
     RDKit          3D

 32 35  0  0  0  0  0  0  0  0999 V2000
    4.9416    1.7966   16.9881 H   0  0  0  0  0  0  0  0  0  0  0  0
    5.3939    1.2926   17.8397 C   0  0  0  0  0  0  0  0  0  0  0  0
    6.5479    0.6582   17.5906 N   0  0  0  0  0  0  0  0  0  0  0  0
    7.1371    0.0303   18.6123 C   0  0  0  0  0  0  0  0  0  0  0  0
    8.1064   -0.4208   18.3987 H   0  0  0  0  0  0  0  0  0  0  0  0
    6.6043   -0.0295   19.9127 C   0  0  0  0  0  0  0  0  0  0  0  0
    7.3067   -0.7501   20.9935 C   0  0  0  0  0  0  0  0  0  0  0  0
    6.5877   -1.5202   21.7897 N   0  0  0  0  0  0  0  0  0  0  0  0
    7.2072   -2.2174   22.8120 C   0  0  0  0  0  0  0  0  0  0  0  0
    6.3847   -3.1056   23.6795 C   0  0  0  0  0  0  0  0  0  0  0  0
    6.8388   -3.7386   24.7228 N   0  0  0  0  0  0  0  0  0  0  0  0
    5.8249   -4.4517   25.3424 C   0  0  0  0  0  0  0  0  0  0  0  0
    5.9870   -5.2937   26.4586 C   0  0  0  0  0  0  0  0  0  0  0  0
    6.9881   -5.4251   26.8571 H   0  0  0  0  0  0  0  0  0  0  0  0
    4.8740   -5.9358   26.9939 C   0  0  0  0  0  0  0  0  0  0  0  0
    4.9928   -6.5945   27.8482 H   0  0  0  0  0  0  0  0  0  0  0  0
    3.5941   -5.7347   26.4378 C   0  0  0  0  0  0  0  0  0  0  0  0
    2.7366   -6.2394   26.8708 H   0  0  0  0  0  0  0  0  0  0  0  0
    3.4159   -4.9164   25.3264 C   0  0  0  0  0  0  0  0  0  0  0  0
    2.4256   -4.7581   24.9085 H   0  0  0  0  0  0  0  0  0  0  0  0
    4.5466   -4.3158   24.7492 C   0  0  0  0  0  0  0  0  0  0  0  0
    4.7012   -3.3791   23.2977 S   0  0  0  0  0  0  0  0  0  0  0  0
    8.5547   -2.1284   23.0593 C   0  0  0  0  0  0  0  0  0  0  0  0
    9.0470   -2.6648   23.8642 H   0  0  0  0  0  0  0  0  0  0  0  0
    9.2980   -1.3286   22.2477 N   0  0  0  0  0  0  0  0  0  0  0  0
   10.2929   -1.1481   22.3047 H   0  0  0  0  0  0  0  0  0  0  0  0
    8.8000   -0.5777   21.1902 C   0  0  0  0  0  0  0  0  0  0  0  0
    9.6095    0.1074   20.5851 O   0  0  0  0  0  0  0  0  0  0  0  0
    5.3906    0.6343   20.1539 C   0  0  0  0  0  0  0  0  0  0  0  0
    4.9521    0.6358   21.1532 H   0  0  0  0  0  0  0  0  0  0  0  0
    4.7860    1.3165   19.0996 C   0  0  0  0  0  0  0  0  0  0  0  0
    3.8619    1.8673   19.2354 H   0  0  0  0  0  0  0  0  0  0  0  0
  1  2  1  0
  2  3  2  0
  3  4  1  0
  4  5  1  0
  4  6  2  0
  6  7  1  0
  7  8  2  0
  8  9  1  0
  9 10  1  0
 10 11  2  0
 11 12  1  0
 12 13  2  0
 13 14  1  0
 13 15  1  0
 15 16  1  0
 15 17  2  0
 17 18  1  0
 17 19  1  0
 19 20  1  0
 19 21  2  0
 21 22  1  0
  9 23  2  0
 23 24  1  0
 23 25  1  0
 25 26  1  0
 25 27  1  0
 27 28  2  0
  6 29  1  0
 29 30  1  0
 29 31  2  0
 31 32  1  0
 31  2  1  0
 27  7  1  0
 22 10  1  0
 21 12  1  0
M  END
>  <plip>  (1) 
-0.03571428571428571

>  <filename>  (1) 
[H][c]1[n][c]([H])[c](-[c]2[n][c](-[c]3[n][c]4[c]([H])[c]([H])[c]([H])[c]([H])[c]4[s]3)[c]([H])[n]([H])[c]2=[O])[c]([H])[c]1[H]

$$$$
