
     RDKit          3D

 50 52  0  0  0  0  0  0  0  0999 V2000
    5.4988   -3.1220   19.8562 C   0  0  0  0  0  0  0  0  0  0  0  0
    6.7437   -2.9103   20.4765 O   0  0  0  0  0  0  0  0  0  0  0  0
    6.7439   -1.9780   21.5328 C   0  0  0  0  0  0  0  0  0  0  0  0
    7.3851   -2.5191   22.6433 O   0  0  0  0  0  0  0  0  0  0  0  0
    6.6213   -3.4762   23.3689 C   0  0  0  0  0  0  0  0  0  0  0  0
    7.2680   -3.8764   24.1543 H   0  0  0  0  0  0  0  0  0  0  0  0
    5.7498   -2.9990   23.8425 H   0  0  0  0  0  0  0  0  0  0  0  0
    6.2792   -4.3123   22.7376 H   0  0  0  0  0  0  0  0  0  0  0  0
    7.4828   -0.6946   21.0148 C   0  0  0  0  0  0  0  0  0  0  0  0
    7.8607    0.2519   22.0550 N   0  0  0  0  0  0  0  0  0  0  0  0
    9.0423    0.1246   22.7460 C   0  0  0  0  0  0  0  0  0  0  0  0
   10.0309   -0.3884   22.2663 O   0  0  0  0  0  0  0  0  0  0  0  0
    8.9743    0.6509   24.1708 C   0  0  0  0  0  0  0  0  0  0  0  0
    8.3441   -0.3907   25.0865 C   0  0  0  0  0  0  0  0  0  0  0  0
    9.1284   -1.4391   25.5910 C   0  0  0  0  0  0  0  0  0  0  0  0
    8.5748   -2.4346   26.3975 C   0  0  0  0  0  0  0  0  0  0  0  0
    7.2018   -2.4174   26.6674 C   0  0  0  0  0  0  0  0  0  0  0  0
    6.6228   -3.4658   27.3937 N   0  0  0  0  0  0  0  0  0  0  0  0
    5.2850   -3.6654   27.6106 C   0  0  0  0  0  0  0  0  0  0  0  0
    4.9143   -4.5410   28.3647 O   0  0  0  0  0  0  0  0  0  0  0  0
    4.3629   -2.7724   26.7994 C   0  0  0  0  0  0  0  0  0  0  0  0
    4.9091   -1.3478   26.5892 C   0  0  0  0  0  0  0  0  0  0  0  0
    6.3811   -1.3751   26.1855 C   0  0  0  0  0  0  0  0  0  0  0  0
    6.9731   -0.3868   25.3816 C   0  0  0  0  0  0  0  0  0  0  0  0
    6.3433    0.4062   24.9804 H   0  0  0  0  0  0  0  0  0  0  0  0
    4.7977   -0.7564   27.5123 H   0  0  0  0  0  0  0  0  0  0  0  0
    4.3160   -0.8355   25.8206 H   0  0  0  0  0  0  0  0  0  0  0  0
    4.2590   -3.2620   25.8213 H   0  0  0  0  0  0  0  0  0  0  0  0
    3.3875   -2.7942   27.2865 H   0  0  0  0  0  0  0  0  0  0  0  0
    7.1969   -4.0930   27.9344 H   0  0  0  0  0  0  0  0  0  0  0  0
    9.1871   -3.2376   26.8026 H   0  0  0  0  0  0  0  0  0  0  0  0
   10.1796   -1.4704   25.3225 H   0  0  0  0  0  0  0  0  0  0  0  0
    8.4125    1.5898   24.1798 H   0  0  0  0  0  0  0  0  0  0  0  0
    9.9974    0.8843   24.4745 H   0  0  0  0  0  0  0  0  0  0  0  0
    7.1115    0.6759   22.5736 H   0  0  0  0  0  0  0  0  0  0  0  0
    6.6904    0.0166   19.9275 C   0  0  0  0  0  0  0  0  0  0  0  0
    5.4584    0.6522   20.1546 C   0  0  0  0  0  0  0  0  0  0  0  0
    4.8208    1.2960   19.0894 C   0  0  0  0  0  0  0  0  0  0  0  0
    5.4264    1.2827   17.8281 C   0  0  0  0  0  0  0  0  0  0  0  0
    6.5928    0.6700   17.5826 N   0  0  0  0  0  0  0  0  0  0  0  0
    7.1939    0.0645   18.6171 C   0  0  0  0  0  0  0  0  0  0  0  0
    8.1402   -0.4257   18.3854 H   0  0  0  0  0  0  0  0  0  0  0  0
    4.9581    1.7897   16.9848 H   0  0  0  0  0  0  0  0  0  0  0  0
    3.8800    1.8186   19.2241 H   0  0  0  0  0  0  0  0  0  0  0  0
    4.9995    0.6581   21.1479 H   0  0  0  0  0  0  0  0  0  0  0  0
    8.4059   -1.0855   20.5803 H   0  0  0  0  0  0  0  0  0  0  0  0
    5.7141   -1.6857   21.8213 H   0  0  0  0  0  0  0  0  0  0  0  0
    5.6180   -3.9871   19.1923 H   0  0  0  0  0  0  0  0  0  0  0  0
    4.7594   -3.3390   20.6384 H   0  0  0  0  0  0  0  0  0  0  0  0
    5.1811   -2.2501   19.2645 H   0  0  0  0  0  0  0  0  0  0  0  0
  1  2  1  0
  2  3  1  0
  3  4  1  0
  4  5  1  0
  5  6  1  0
  5  7  1  0
  5  8  1  0
  3  9  1  0
  9 10  1  0
 10 11  1  0
 11 12  2  0
 11 13  1  0
 13 14  1  0
 14 15  2  0
 15 16  1  0
 16 17  2  0
 17 18  1  0
 18 19  1  0
 19 20  2  0
 19 21  1  0
 21 22  1  0
 22 23  1  0
 23 24  2  0
 24 25  1  0
 22 26  1  0
 22 27  1  0
 21 28  1  0
 21 29  1  0
 18 30  1  0
 16 31  1  0
 15 32  1  0
 13 33  1  0
 13 34  1  0
 10 35  1  0
  9 36  1  0
 36 37  2  0
 37 38  1  0
 38 39  2  0
 39 40  1  0
 40 41  2  0
 41 42  1  0
 39 43  1  0
 38 44  1  0
 37 45  1  0
  9 46  1  0
  3 47  1  0
  1 48  1  0
  1 49  1  0
  1 50  1  0
 24 14  1  0
 41 36  1  0
 23 17  1  0
M  END
>  <plip>  (1) 
-0.10344827586206896

>  <filename>  (1) 
[H][c]1[n][c]([H])[c]([C]([H])([N]([H])[C](=[O])[C]([H])([H])[c]2[c]([H])[c]([H])[c]3[c]([c]2[H])[C]([H])([H])[C]([H])([H])[C](=[O])[N]3[H])[C]([H])([O][C]([H])([H])[H])[O][C]([H])([H])[H])[c]([H])[c]1[H]

$$$$
