
     RDKit          3D

 34 37  0  0  0  0  0  0  0  0999 V2000
    4.5413   -6.1647   23.0620 H   0  0  0  0  0  0  0  0  0  0  0  0
    3.5990   -6.1349   22.8432 O   0  0  0  0  0  0  0  0  0  0  0  0
    3.1001   -5.0115   23.4155 C   0  0  0  0  0  0  0  0  0  0  0  0
    1.7117   -4.8711   23.4014 C   0  0  0  0  0  0  0  0  0  0  0  0
    1.1254   -5.6324   22.9013 H   0  0  0  0  0  0  0  0  0  0  0  0
    1.1143   -3.7849   24.0362 C   0  0  0  0  0  0  0  0  0  0  0  0
   -0.6210   -3.6962   24.1134 Cl  0  0  0  0  0  0  0  0  0  0  0  0
    1.8809   -2.7778   24.6247 C   0  0  0  0  0  0  0  0  0  0  0  0
    1.3913   -1.9387   25.1070 H   0  0  0  0  0  0  0  0  0  0  0  0
    3.2818   -2.8811   24.5803 C   0  0  0  0  0  0  0  0  0  0  0  0
    3.9290   -2.1022   24.9765 H   0  0  0  0  0  0  0  0  0  0  0  0
    3.8892   -3.9956   24.0006 C   0  0  0  0  0  0  0  0  0  0  0  0
    5.2747   -4.1437   24.0198 O   0  0  0  0  0  0  0  0  0  0  0  0
    6.0224   -3.3638   23.1976 C   0  0  0  0  0  0  0  0  0  0  0  0
    7.3176   -3.2651   23.4634 N   0  0  0  0  0  0  0  0  0  0  0  0
    7.7283   -2.4390   22.4784 N   0  0  0  0  0  0  0  0  0  0  0  0
    8.9331   -1.8440   22.1823 C   0  0  0  0  0  0  0  0  0  0  0  0
    9.7945   -2.0640   22.7911 H   0  0  0  0  0  0  0  0  0  0  0  0
    8.6919   -1.0323   21.1248 C   0  0  0  0  0  0  0  0  0  0  0  0
    9.3372   -0.3393   20.6075 H   0  0  0  0  0  0  0  0  0  0  0  0
    7.3436   -1.1220   20.7650 N   0  0  0  0  0  0  0  0  0  0  0  0
    6.6956   -0.2865   19.8183 C   0  0  0  0  0  0  0  0  0  0  0  0
    7.2466   -0.1334   18.5319 C   0  0  0  0  0  0  0  0  0  0  0  0
    8.1600   -0.6632   18.2657 H   0  0  0  0  0  0  0  0  0  0  0  0
    6.7058    0.6266   17.5744 N   0  0  0  0  0  0  0  0  0  0  0  0
    5.5847    1.3033   17.8725 C   0  0  0  0  0  0  0  0  0  0  0  0
    5.1625    1.9117   17.0744 H   0  0  0  0  0  0  0  0  0  0  0  0
    4.9744    1.2468   19.1310 C   0  0  0  0  0  0  0  0  0  0  0  0
    4.0880    1.8449   19.3186 H   0  0  0  0  0  0  0  0  0  0  0  0
    5.5274    0.4335   20.1259 C   0  0  0  0  0  0  0  0  0  0  0  0
    5.0869    0.3721   21.1226 H   0  0  0  0  0  0  0  0  0  0  0  0
    6.7564   -2.0406   21.6257 C   0  0  0  0  0  0  0  0  0  0  0  0
    5.5935   -2.6834   22.0394 C   0  0  0  0  0  0  0  0  0  0  0  0
    4.5833   -2.6971   21.6931 H   0  0  0  0  0  0  0  0  0  0  0  0
  1  2  1  0
  2  3  1  0
  3  4  2  0
  4  5  1  0
  4  6  1  0
  6  7  1  0
  6  8  2  0
  8  9  1  0
  8 10  1  0
 10 11  1  0
 10 12  2  0
 12 13  1  0
 13 14  1  0
 14 15  2  0
 15 16  1  0
 16 17  1  0
 17 18  1  0
 17 19  2  0
 19 20  1  0
 19 21  1  0
 21 22  1  0
 22 23  2  0
 23 24  1  0
 23 25  1  0
 25 26  2  0
 26 27  1  0
 26 28  1  0
 28 29  1  0
 28 30  2  0
 30 31  1  0
 21 32  1  0
 32 33  2  0
 33 34  1  0
 12  3  1  0
 33 14  1  0
 32 16  1  0
 30 22  1  0
M  END
>  <plip>  (1) 
-0.034482758620689655

>  <filename>  (1) 
[H][O][c]1[c]([H])[c]([Cl])[c]([H])[c]([H])[c]1[O][c]1[n][n]2[c]([H])[c]([H])[n](-[c]3[c]([H])[n][c]([H])[c]([H])[c]3[H])[c]2[c]1[H]

$$$$
