
     RDKit          3D

 36 38  0  0  0  0  0  0  0  0999 V2000
    5.0626    1.9109   16.9057 H   0  0  0  0  0  0  0  0  0  0  0  0
    5.4881    1.3742   17.7509 C   0  0  0  0  0  0  0  0  0  0  0  0
    6.6875    0.8132   17.5344 N   0  0  0  0  0  0  0  0  0  0  0  0
    7.2627    0.1675   18.5537 C   0  0  0  0  0  0  0  0  0  0  0  0
    8.2708   -0.2136   18.3854 H   0  0  0  0  0  0  0  0  0  0  0  0
    6.6377   -0.0310   19.8007 C   0  0  0  0  0  0  0  0  0  0  0  0
    7.3542   -0.8820   20.8151 C   0  0  0  0  0  0  0  0  0  0  0  0
    8.6427   -0.6666   20.8793 N   0  0  0  0  0  0  0  0  0  0  0  0
    9.3651   -1.2438   21.8993 N   0  0  0  0  0  0  0  0  0  0  0  0
   11.0708   -0.9688   21.9795 S   0  0  0  0  0  0  0  0  0  0  0  0
   11.5957   -2.1059   22.6900 O   0  0  0  0  0  0  0  0  0  0  0  0
   11.5726   -0.5768   20.6890 O   0  0  0  0  0  0  0  0  0  0  0  0
   11.2144    0.4109   22.9462 N   0  0  0  0  0  0  0  0  0  0  0  0
   10.7549    1.6625   22.2929 C   0  0  0  0  0  0  0  0  0  0  0  0
   11.2700    1.7603   21.3287 H   0  0  0  0  0  0  0  0  0  0  0  0
    9.6682    1.6432   22.1112 H   0  0  0  0  0  0  0  0  0  0  0  0
   11.1206    2.8721   23.1629 C   0  0  0  0  0  0  0  0  0  0  0  0
   12.2099    3.0095   23.1215 H   0  0  0  0  0  0  0  0  0  0  0  0
   10.6471    3.7745   22.7701 H   0  0  0  0  0  0  0  0  0  0  0  0
   10.6953    2.7436   24.5108 O   0  0  0  0  0  0  0  0  0  0  0  0
   11.2411    1.5787   25.1111 C   0  0  0  0  0  0  0  0  0  0  0  0
   12.3367    1.6489   25.1538 H   0  0  0  0  0  0  0  0  0  0  0  0
   10.8636    1.5447   26.1336 H   0  0  0  0  0  0  0  0  0  0  0  0
   10.8453    0.2940   24.3729 C   0  0  0  0  0  0  0  0  0  0  0  0
   11.3863   -0.5454   24.8239 H   0  0  0  0  0  0  0  0  0  0  0  0
    9.7623    0.1384   24.5167 H   0  0  0  0  0  0  0  0  0  0  0  0
    8.7813   -2.0284   22.8926 C   0  0  0  0  0  0  0  0  0  0  0  0
    9.4177   -2.3017   23.7353 H   0  0  0  0  0  0  0  0  0  0  0  0
    7.5088   -2.4096   22.7730 C   0  0  0  0  0  0  0  0  0  0  0  0
    7.0335   -3.0807   23.4728 H   0  0  0  0  0  0  0  0  0  0  0  0
    6.6902   -1.9572   21.6584 C   0  0  0  0  0  0  0  0  0  0  0  0
    5.5787   -2.4318   21.4491 O   0  0  0  0  0  0  0  0  0  0  0  0
    5.3977    0.5979   20.0203 C   0  0  0  0  0  0  0  0  0  0  0  0
    4.9060    0.5315   20.9908 H   0  0  0  0  0  0  0  0  0  0  0  0
    4.8157    1.3194   18.9743 C   0  0  0  0  0  0  0  0  0  0  0  0
    3.8694    1.8428   19.0845 H   0  0  0  0  0  0  0  0  0  0  0  0
  1  2  1  0
  2  3  2  0
  3  4  1  0
  4  5  1  0
  4  6  2  0
  6  7  1  0
  7  8  2  0
  8  9  1  0
  9 10  1  0
 10 11  2  0
 10 12  2  0
 10 13  1  0
 13 14  1  0
 14 15  1  0
 14 16  1  0
 14 17  1  0
 17 18  1  0
 17 19  1  0
 17 20  1  0
 20 21  1  0
 21 22  1  0
 21 23  1  0
 21 24  1  0
 24 25  1  0
 24 26  1  0
  9 27  1  0
 27 28  1  0
 27 29  2  0
 29 30  1  0
 29 31  1  0
 31 32  2  0
  6 33  1  0
 33 34  1  0
 33 35  2  0
 35 36  1  0
 35  2  1  0
 31  7  1  0
 24 13  1  0
M  END
>  <plip>  (1) 
-0.07142857142857142

>  <filename>  (1) 
[H][c]1[n][c]([H])[c](-[c]2[n][n]([S](=[O])(=[O])[N]3[C]([H])([H])[C]([H])([H])[O][C]([H])([H])[C]3([H])[H])[c]([H])[c]([H])[c]2=[O])[c]([H])[c]1[H]

$$$$
