
     RDKit          3D

 50 52  0  0  0  0  0  0  0  0999 V2000
    4.9487    1.7947   16.9521 H   0  0  0  0  0  0  0  0  0  0  0  0
    5.3865    1.3073   17.8203 C   0  0  0  0  0  0  0  0  0  0  0  0
    6.5525    0.6796   17.6159 N   0  0  0  0  0  0  0  0  0  0  0  0
    7.1294    0.1007   18.6813 C   0  0  0  0  0  0  0  0  0  0  0  0
    8.0746   -0.4072   18.4754 H   0  0  0  0  0  0  0  0  0  0  0  0
    6.6040    0.1080   19.9893 C   0  0  0  0  0  0  0  0  0  0  0  0
    7.3281   -0.5890   21.1519 C   0  0  1  0  0  0  0  0  0  0  0  0
    6.7953   -0.3550   22.0867 H   0  0  0  0  0  0  0  0  0  0  0  0
    7.3212   -2.1031   20.9089 C   0  0  0  0  0  0  0  0  0  0  0  0
    7.8783   -2.1633   19.9831 H   0  0  0  0  0  0  0  0  0  0  0  0
    6.3042   -2.4567   20.7202 H   0  0  0  0  0  0  0  0  0  0  0  0
    8.0632   -2.9592   21.9421 C   0  0  0  0  0  0  0  0  0  0  0  0
    7.5397   -2.9536   22.9124 H   0  0  0  0  0  0  0  0  0  0  0  0
    8.0780   -3.9976   21.5857 H   0  0  0  0  0  0  0  0  0  0  0  0
    9.5055   -2.4615   22.1281 C   0  0  0  0  0  0  0  0  0  0  0  0
   10.0813   -2.6378   21.2070 H   0  0  0  0  0  0  0  0  0  0  0  0
   10.0192   -3.0246   22.9175 H   0  0  0  0  0  0  0  0  0  0  0  0
    9.5380   -0.9606   22.4304 C   0  0  0  0  0  0  0  0  0  0  0  0
    9.0644   -0.7675   23.4031 H   0  0  0  0  0  0  0  0  0  0  0  0
   10.5721   -0.6048   22.5218 H   0  0  0  0  0  0  0  0  0  0  0  0
    8.8142   -0.1383   21.3324 C   0  0  2  0  0  0  0  0  0  0  0  0
    9.3235   -0.3722   20.3766 H   0  0  0  0  0  0  0  0  0  0  0  0
    8.9191    1.2944   21.5347 N   0  0  0  0  0  0  0  0  0  0  0  0
    8.0628    1.8643   22.5742 C   0  0  0  0  0  0  0  0  0  0  0  0
    7.0145    1.7884   22.2668 H   0  0  0  0  0  0  0  0  0  0  0  0
    8.1424    1.3228   23.5379 H   0  0  0  0  0  0  0  0  0  0  0  0
    8.4136    3.3173   22.7998 C   0  0  0  0  0  0  0  0  0  0  0  0
    7.6951    3.7721   23.4898 H   0  0  0  0  0  0  0  0  0  0  0  0
    8.3254    3.8384   21.8397 H   0  0  0  0  0  0  0  0  0  0  0  0
    9.8468    3.4552   23.3516 C   0  0  0  0  0  0  0  0  0  0  0  0
    9.7826    3.1478   24.4173 H   0  0  0  0  0  0  0  0  0  0  0  0
   10.3493    4.8279   23.2323 N   0  0  0  0  0  0  0  0  0  0  0  0
   11.5405    5.0467   24.0420 C   0  0  0  0  0  0  0  0  0  0  0  0
   12.3106    4.3016   23.8256 H   0  0  0  0  0  0  0  0  0  0  0  0
   11.9717    6.0259   23.8073 H   0  0  0  0  0  0  0  0  0  0  0  0
   11.3370    5.0092   25.1295 H   0  0  0  0  0  0  0  0  0  0  0  0
    9.3642    5.8759   23.4766 C   0  0  0  0  0  0  0  0  0  0  0  0
    8.5901    5.8706   22.7038 H   0  0  0  0  0  0  0  0  0  0  0  0
    8.8617    5.8013   24.4614 H   0  0  0  0  0  0  0  0  0  0  0  0
    9.8470    6.8554   23.4210 H   0  0  0  0  0  0  0  0  0  0  0  0
   10.8161    2.4622   22.6462 C   0  0  0  0  0  0  0  0  0  0  0  0
   11.0325    1.6260   23.3196 H   0  0  0  0  0  0  0  0  0  0  0  0
   11.7702    2.9367   22.4112 H   0  0  0  0  0  0  0  0  0  0  0  0
   10.2271    1.9118   21.3472 C   0  0  0  0  0  0  0  0  0  0  0  0
   10.1368    2.7355   20.6336 H   0  0  0  0  0  0  0  0  0  0  0  0
   10.9220    1.2064   20.8804 H   0  0  0  0  0  0  0  0  0  0  0  0
    5.3604    0.7371   20.1596 C   0  0  0  0  0  0  0  0  0  0  0  0
    4.8694    0.7479   21.1349 H   0  0  0  0  0  0  0  0  0  0  0  0
    4.7433    1.3513   19.0611 C   0  0  0  0  0  0  0  0  0  0  0  0
    3.7993    1.8715   19.1586 H   0  0  0  0  0  0  0  0  0  0  0  0
  1  2  1  0
  2  3  2  0
  3  4  1  0
  4  5  1  0
  4  6  2  0
  6  7  1  0
  7  8  1  1
  7  9  1  0
  9 10  1  0
  9 11  1  0
  9 12  1  0
 12 13  1  0
 12 14  1  0
 12 15  1  0
 15 16  1  0
 15 17  1  0
 15 18  1  0
 18 19  1  0
 18 20  1  0
 18 21  1  0
 21 22  1  6
 21 23  1  0
 23 24  1  0
 24 25  1  0
 24 26  1  0
 24 27  1  0
 27 28  1  0
 27 29  1  0
 27 30  1  0
 30 31  1  0
 30 32  1  0
 32 33  1  0
 33 34  1  0
 33 35  1  0
 33 36  1  0
 32 37  1  0
 37 38  1  0
 37 39  1  0
 37 40  1  0
 30 41  1  0
 41 42  1  0
 41 43  1  0
 41 44  1  0
 44 45  1  0
 44 46  1  0
  6 47  1  0
 47 48  1  0
 47 49  2  0
 49 50  1  0
 49  2  1  0
 21  7  1  0
 44 23  1  0
M  END
>  <plip>  (1) 
-0.03571428571428571

>  <filename>  (1) 
[H][c]1[n][c]([H])[c]([C@@]2([H])[C]([H])([H])[C]([H])([H])[C]([H])([H])[C]([H])([H])[C@]2([H])[N]2[C]([H])([H])[C]([H])([H])[C]([H])([N]([C]([H])([H])[H])[C]([H])([H])[H])[C]([H])([H])[C]2([H])[H])[c]([H])[c]1[H]

$$$$
