
     RDKit          3D

 31 33  0  0  0  0  0  0  0  0999 V2000
    4.9663    1.7875   17.0063 H   0  0  0  0  0  0  0  0  0  0  0  0
    5.4654    1.2911   17.8362 C   0  0  0  0  0  0  0  0  0  0  0  0
    6.6377    0.6968   17.5552 N   0  0  0  0  0  0  0  0  0  0  0  0
    7.2718    0.0686   18.5535 C   0  0  0  0  0  0  0  0  0  0  0  0
    8.2347   -0.3849   18.3350 H   0  0  0  0  0  0  0  0  0  0  0  0
    6.7478   -0.0256   19.8595 C   0  0  0  0  0  0  0  0  0  0  0  0
    7.3980   -0.7469   20.9150 N   0  0  0  0  0  0  0  0  0  0  0  0
    6.8434   -1.7903   21.6547 C   0  0  0  0  0  0  0  0  0  0  0  0
    5.8016   -2.3509   21.4359 O   0  0  0  0  0  0  0  0  0  0  0  0
    7.9100   -2.1013   22.7329 C   0  0  0  0  0  0  0  0  0  0  0  0
    7.8974   -2.9153   23.6172 O   0  0  0  0  0  0  0  0  0  0  0  0
    8.9347   -1.2204   22.4756 N   0  0  0  0  0  0  0  0  0  0  0  0
   10.2865   -1.5203   22.9204 C   0  0  1  0  0  0  0  0  0  0  0  0
   10.2239   -2.1014   23.8445 H   0  0  0  0  0  0  0  0  0  0  0  0
   10.8815   -2.3053   21.8646 N   0  0  0  0  0  0  0  0  0  0  0  0
   10.4420   -1.9621   21.0244 H   0  0  0  0  0  0  0  0  0  0  0  0
   12.2859   -1.9066   21.7492 C   0  0  0  0  0  0  0  0  0  0  0  0
   12.6462   -2.1169   20.7315 H   0  0  0  0  0  0  0  0  0  0  0  0
   12.9040   -2.4958   22.4299 H   0  0  0  0  0  0  0  0  0  0  0  0
   12.2843   -0.4124   22.0969 C   0  0  0  0  0  0  0  0  0  0  0  0
   11.9671    0.1325   21.2080 H   0  0  0  0  0  0  0  0  0  0  0  0
   13.2437   -0.0238   22.4517 H   0  0  0  0  0  0  0  0  0  0  0  0
   11.1446   -0.2600   23.1226 C   0  0  0  0  0  0  0  0  0  0  0  0
   10.5645    0.6467   22.9243 H   0  0  0  0  0  0  0  0  0  0  0  0
   11.4924   -0.2140   24.1597 H   0  0  0  0  0  0  0  0  0  0  0  0
    8.7381   -0.6766   21.2258 C   0  0  0  0  0  0  0  0  0  0  0  0
    9.6126   -0.2942   20.4828 O   0  0  0  0  0  0  0  0  0  0  0  0
    5.5402    0.6126   20.1446 C   0  0  0  0  0  0  0  0  0  0  0  0
    5.1450    0.5624   21.1577 H   0  0  0  0  0  0  0  0  0  0  0  0
    4.8856    1.2874   19.1103 C   0  0  0  0  0  0  0  0  0  0  0  0
    3.9461    1.8023   19.2820 H   0  0  0  0  0  0  0  0  0  0  0  0
  1  2  1  0
  2  3  2  0
  3  4  1  0
  4  5  1  0
  4  6  2  0
  6  7  1  0
  7  8  1  0
  8  9  2  0
  8 10  1  0
 10 11  2  0
 10 12  1  0
 12 13  1  0
 13 14  1  1
 13 15  1  0
 15 16  1  0
 15 17  1  0
 17 18  1  0
 17 19  1  0
 17 20  1  0
 20 21  1  0
 20 22  1  0
 20 23  1  0
 23 24  1  0
 23 25  1  0
 12 26  1  0
 26 27  2  0
  6 28  1  0
 28 29  1  0
 28 30  2  0
 30 31  1  0
 30  2  1  0
 26  7  1  0
 23 13  1  0
M  END
>  <plip>  (1) 
-0.10344827586206896

>  <filename>  (1) 
[H][c]1[n][c]([H])[c]([N]2[C](=[O])[C](=[O])[N]([C@@]3([H])[N]([H])[C]([H])([H])[C]([H])([H])[C]3([H])[H])[C]2=[O])[c]([H])[c]1[H]

$$$$
