
     RDKit          3D

 45 48  0  0  0  0  0  0  0  0999 V2000
    4.9280    1.8413   16.9922 H   0  0  0  0  0  0  0  0  0  0  0  0
    5.4217    1.3170   17.8084 C   0  0  0  0  0  0  0  0  0  0  0  0
    6.5871    0.7155   17.5166 N   0  0  0  0  0  0  0  0  0  0  0  0
    7.2330    0.0795   18.5099 C   0  0  0  0  0  0  0  0  0  0  0  0
    8.1806   -0.3907   18.2391 H   0  0  0  0  0  0  0  0  0  0  0  0
    6.7516   -0.0290   19.8391 C   0  0  0  0  0  0  0  0  0  0  0  0
    7.4519   -0.7598   20.8532 N   0  0  0  0  0  0  0  0  0  0  0  0
    6.6866   -1.6644   21.7056 C   0  0  0  0  0  0  0  0  0  0  0  0
    6.1450   -1.1409   22.5126 H   0  0  0  0  0  0  0  0  0  0  0  0
    5.9299   -2.1531   21.0844 H   0  0  0  0  0  0  0  0  0  0  0  0
    7.5922   -2.7171   22.3538 C   0  0  0  0  0  0  0  0  0  0  0  0
    6.9766   -3.4061   22.9454 H   0  0  0  0  0  0  0  0  0  0  0  0
    8.0818   -3.3164   21.5736 H   0  0  0  0  0  0  0  0  0  0  0  0
    8.6601   -2.0213   23.2033 C   0  0  0  0  0  0  0  0  0  0  0  0
    9.3161   -2.7409   23.7070 H   0  0  0  0  0  0  0  0  0  0  0  0
    8.1777   -1.4351   24.0016 H   0  0  0  0  0  0  0  0  0  0  0  0
    9.4886   -1.1200   22.2767 C   0  0  0  0  0  0  0  0  0  0  0  0
   10.0584   -1.7564   21.5888 H   0  0  0  0  0  0  0  0  0  0  0  0
   10.2240   -0.5362   22.8460 H   0  0  0  0  0  0  0  0  0  0  0  0
    8.6561   -0.1444   21.4057 C   0  0  2  0  0  0  0  0  0  0  0  0
    9.2528    0.0702   20.5105 H   0  0  0  0  0  0  0  0  0  0  0  0
    8.4591    1.1652   22.0249 N   0  0  0  0  0  0  0  0  0  0  0  0
    7.7171    1.2489   23.2938 C   0  0  0  0  0  0  0  0  0  0  0  0
    6.7531    0.7418   23.1943 H   0  0  0  0  0  0  0  0  0  0  0  0
    8.2274    0.7127   24.1186 H   0  0  0  0  0  0  0  0  0  0  0  0
    7.4510    2.6912   23.7403 C   0  0  0  0  0  0  0  0  0  0  0  0
    6.4628    3.0272   24.6909 C   0  0  0  0  0  0  0  0  0  0  0  0
    5.8138    2.2731   25.1299 H   0  0  0  0  0  0  0  0  0  0  0  0
    6.2643    4.3580   25.0788 C   0  0  0  0  0  0  0  0  0  0  0  0
    5.4807    4.6231   25.7834 H   0  0  0  0  0  0  0  0  0  0  0  0
    7.0413    5.3750   24.5170 C   0  0  0  0  0  0  0  0  0  0  0  0
    6.8745    6.4151   24.7802 H   0  0  0  0  0  0  0  0  0  0  0  0
    8.0212    5.0515   23.5847 C   0  0  0  0  0  0  0  0  0  0  0  0
    8.6294    5.8298   23.1279 H   0  0  0  0  0  0  0  0  0  0  0  0
    8.2410    3.7224   23.2080 C   0  0  0  0  0  0  0  0  0  0  0  0
    9.2484    3.4303   22.1282 C   0  0  0  0  0  0  0  0  0  0  0  0
   10.1183    4.0864   22.2415 H   0  0  0  0  0  0  0  0  0  0  0  0
    8.7441    3.6387   21.1802 H   0  0  0  0  0  0  0  0  0  0  0  0
    9.6721    1.9777   22.0269 C   0  0  0  0  0  0  0  0  0  0  0  0
   10.2017    1.8375   21.0705 H   0  0  0  0  0  0  0  0  0  0  0  0
   10.3860    1.7157   22.8346 H   0  0  0  0  0  0  0  0  0  0  0  0
    5.5245    0.6041   20.1078 C   0  0  0  0  0  0  0  0  0  0  0  0
    5.1264    0.5709   21.1202 H   0  0  0  0  0  0  0  0  0  0  0  0
    4.8551    1.2852   19.0847 C   0  0  0  0  0  0  0  0  0  0  0  0
    3.9143    1.7898   19.2648 H   0  0  0  0  0  0  0  0  0  0  0  0
  1  2  1  0
  2  3  2  0
  3  4  1  0
  4  5  1  0
  4  6  2  0
  6  7  1  0
  7  8  1  0
  8  9  1  0
  8 10  1  0
  8 11  1  0
 11 12  1  0
 11 13  1  0
 11 14  1  0
 14 15  1  0
 14 16  1  0
 14 17  1  0
 17 18  1  0
 17 19  1  0
 17 20  1  0
 20 21  1  6
 20 22  1  0
 22 23  1  0
 23 24  1  0
 23 25  1  0
 23 26  1  0
 26 27  2  0
 27 28  1  0
 27 29  1  0
 29 30  1  0
 29 31  2  0
 31 32  1  0
 31 33  1  0
 33 34  1  0
 33 35  2  0
 35 36  1  0
 36 37  1  0
 36 38  1  0
 36 39  1  0
 39 40  1  0
 39 41  1  0
  6 42  1  0
 42 43  1  0
 42 44  2  0
 44 45  1  0
 44  2  1  0
 20  7  1  0
 39 22  1  0
 35 26  1  0
M  END
>  <plip>  (1) 
-0.03571428571428571

>  <filename>  (1) 
[H][c]1[n][c]([H])[c]([N]2[C]([H])([H])[C]([H])([H])[C]([H])([H])[C]([H])([H])[C@]2([H])[N]2[C]([H])([H])[c]3[c]([H])[c]([H])[c]([H])[c]([H])[c]3[C]([H])([H])[C]2([H])[H])[c]([H])[c]1[H]

$$$$
