
     RDKit          3D

 16 16  0  0  0  0  0  0  0  0999 V2000
    4.9333    1.7966   16.9787 H   0  0  0  0  0  0  0  0  0  0  0  0
    5.3930    1.2933   17.8271 C   0  0  0  0  0  0  0  0  0  0  0  0
    6.5524    0.6694   17.5722 N   0  0  0  0  0  0  0  0  0  0  0  0
    7.1679    0.0731   18.5981 C   0  0  0  0  0  0  0  0  0  0  0  0
    8.1051   -0.4297   18.3602 H   0  0  0  0  0  0  0  0  0  0  0  0
    6.6809    0.0738   19.9110 C   0  0  0  0  0  0  0  0  0  0  0  0
    7.3928   -0.7143   20.9754 C   0  0  0  0  0  0  0  0  0  0  0  0
    7.1487   -0.3341   21.9788 H   0  0  0  0  0  0  0  0  0  0  0  0
    8.4862   -0.7042   20.8707 H   0  0  0  0  0  0  0  0  0  0  0  0
    6.9514   -2.0949   20.8574 N   0  0  0  0  0  0  0  0  0  0  0  0
    6.0447   -2.7364   21.3007 C   0  0  0  0  0  0  0  0  0  0  0  0
    4.9082   -3.6634   21.8856 S   0  0  0  0  0  0  0  0  0  0  0  0
    5.4440    0.6862   20.1536 C   0  0  0  0  0  0  0  0  0  0  0  0
    4.9956    0.6542   21.1500 H   0  0  0  0  0  0  0  0  0  0  0  0
    4.7970    1.3200   19.0894 C   0  0  0  0  0  0  0  0  0  0  0  0
    3.8600    1.8439   19.2276 H   0  0  0  0  0  0  0  0  0  0  0  0
  1  2  1  0
  2  3  2  0
  3  4  1  0
  4  5  1  0
  4  6  2  0
  6  7  1  0
  7  8  1  0
  7  9  1  0
  7 10  1  0
 10 11  2  0
 11 12  2  0
  6 13  1  0
 13 14  1  0
 13 15  2  0
 15 16  1  0
 15  2  1  0
M  END
>  <plip>  (1) 
-0.03571428571428571

>  <filename>  (1) 
[H][c]1[n][c]([H])[c]([C]([H])([H])[N]=[C]=[S])[c]([H])[c]1[H]

$$$$
