
     RDKit          3D

 43 45  0  0  0  0  0  0  0  0999 V2000
    8.3782    1.3241   22.0416 C   0  0  0  0  0  0  0  0  0  0  0  0
    8.5960   -0.0649   21.4341 C   0  0  0  0  0  0  0  0  0  0  0  0
    7.2951   -0.8226   21.1042 C   0  0  0  0  0  0  0  0  0  0  0  0
    7.6430   -2.2100   20.7999 N   0  0  0  0  0  0  0  0  0  0  0  0
    6.6792   -3.1774   20.7544 C   0  0  0  0  0  0  0  0  0  0  0  0
    5.4840   -2.9480   20.7394 O   0  0  0  0  0  0  0  0  0  0  0  0
    7.1631   -4.6209   20.7477 C   0  0  0  0  0  0  0  0  0  0  0  0
    7.0277   -5.3234   22.1239 C   0  0  0  0  0  0  0  0  0  0  0  0
    8.0694   -4.8017   22.9685 O   0  0  0  0  0  0  0  0  0  0  0  0
    7.7787   -3.6602   23.6766 C   0  0  0  0  0  0  0  0  0  0  0  0
    8.8267   -2.7991   24.0052 C   0  0  0  0  0  0  0  0  0  0  0  0
    8.5683   -1.6753   24.8001 C   0  0  0  0  0  0  0  0  0  0  0  0
    7.2610   -1.4017   25.2203 C   0  0  0  0  0  0  0  0  0  0  0  0
    6.2016   -2.2359   24.8381 C   0  0  0  0  0  0  0  0  0  0  0  0
    6.4488   -3.3721   24.0692 C   0  0  0  0  0  0  0  0  0  0  0  0
    5.4340   -4.2582   23.6735 N   0  0  0  0  0  0  0  0  0  0  0  0
    5.6141   -5.2722   22.7834 C   0  0  0  0  0  0  0  0  0  0  0  0
    4.7154   -6.0381   22.5142 O   0  0  0  0  0  0  0  0  0  0  0  0
    4.4747   -4.1926   23.9838 H   0  0  0  0  0  0  0  0  0  0  0  0
    5.1821   -2.0015   25.1198 H   0  0  0  0  0  0  0  0  0  0  0  0
    7.0621   -0.5337   25.8420 H   0  0  0  0  0  0  0  0  0  0  0  0
    9.3826   -1.0076   25.0696 H   0  0  0  0  0  0  0  0  0  0  0  0
    9.8174   -3.0287   23.6173 H   0  0  0  0  0  0  0  0  0  0  0  0
    7.2389   -6.3861   21.9953 H   0  0  0  0  0  0  0  0  0  0  0  0
    8.2209   -4.7035   20.4872 H   0  0  0  0  0  0  0  0  0  0  0  0
    6.5564   -5.1400   19.9982 H   0  0  0  0  0  0  0  0  0  0  0  0
    8.5390   -2.5229   21.1414 H   0  0  0  0  0  0  0  0  0  0  0  0
    6.5545   -0.1678   19.9496 C   0  0  0  0  0  0  0  0  0  0  0  0
    5.3702    0.5611   20.1386 C   0  0  0  0  0  0  0  0  0  0  0  0
    4.8317    1.2822   19.0693 C   0  0  0  0  0  0  0  0  0  0  0  0
    5.4992    1.2420   17.8421 C   0  0  0  0  0  0  0  0  0  0  0  0
    6.6138    0.5268   17.6264 N   0  0  0  0  0  0  0  0  0  0  0  0
    7.1128   -0.1666   18.6610 C   0  0  0  0  0  0  0  0  0  0  0  0
    8.0146   -0.7450   18.4475 H   0  0  0  0  0  0  0  0  0  0  0  0
    5.1209    1.7997   16.9881 H   0  0  0  0  0  0  0  0  0  0  0  0
    3.9264    1.8702   19.1754 H   0  0  0  0  0  0  0  0  0  0  0  0
    4.8849    0.5557   21.1165 H   0  0  0  0  0  0  0  0  0  0  0  0
    6.6359   -0.7930   21.9948 H   0  0  0  0  0  0  0  0  0  0  0  0
    9.1809   -0.6752   22.1323 H   0  0  0  0  0  0  0  0  0  0  0  0
    9.2024    0.0160   20.5205 H   0  0  0  0  0  0  0  0  0  0  0  0
    9.3328    1.8009   22.2917 H   0  0  0  0  0  0  0  0  0  0  0  0
    7.7887    1.2589   22.9641 H   0  0  0  0  0  0  0  0  0  0  0  0
    7.8402    1.9928   21.3588 H   0  0  0  0  0  0  0  0  0  0  0  0
  1  2  1  0
  2  3  1  0
  3  4  1  0
  4  5  1  0
  5  6  2  0
  5  7  1  0
  7  8  1  0
  8  9  1  0
  9 10  1  0
 10 11  2  0
 11 12  1  0
 12 13  2  0
 13 14  1  0
 14 15  2  0
 15 16  1  0
 16 17  1  0
 17 18  2  0
 16 19  1  0
 14 20  1  0
 13 21  1  0
 12 22  1  0
 11 23  1  0
  8 24  1  0
  7 25  1  0
  7 26  1  0
  4 27  1  0
  3 28  1  0
 28 29  2  0
 29 30  1  0
 30 31  2  0
 31 32  1  0
 32 33  2  0
 33 34  1  0
 31 35  1  0
 30 36  1  0
 29 37  1  0
  3 38  1  0
  2 39  1  0
  2 40  1  0
  1 41  1  0
  1 42  1  0
  1 43  1  0
 17  8  1  0
 33 28  1  0
 15 10  1  0
M  END
>  <plip>  (1) 
-0.1

>  <filename>  (1) 
[H][c]1[n][c]([H])[c]([C]([H])([N]([H])[C](=[O])[C]([H])([H])[C]2([H])[O][c]3[c]([H])[c]([H])[c]([H])[c]([H])[c]3[N]([H])[C]2=[O])[C]([H])([H])[C]([H])([H])[H])[c]([H])[c]1[H]

$$$$
