
     RDKit          3D

 33 35  0  0  0  0  0  0  0  0999 V2000
    5.7159   -1.7237   21.8007 H   0  0  0  0  0  0  0  0  0  0  0  0
    6.7741   -1.5175   21.8438 C   0  0  0  0  0  0  0  0  0  0  0  0
    7.4059   -0.7061   20.9684 C   0  0  0  0  0  0  0  0  0  0  0  0
    6.6676    0.0121   19.9079 C   0  0  0  0  0  0  0  0  0  0  0  0
    7.1715    0.0712   18.5929 C   0  0  0  0  0  0  0  0  0  0  0  0
    8.1208   -0.4113   18.3624 H   0  0  0  0  0  0  0  0  0  0  0  0
    6.5611    0.6790   17.5686 N   0  0  0  0  0  0  0  0  0  0  0  0
    5.3988    1.2958   17.8279 C   0  0  0  0  0  0  0  0  0  0  0  0
    4.9233    1.7951   16.9851 H   0  0  0  0  0  0  0  0  0  0  0  0
    4.8031    1.3141   19.0956 C   0  0  0  0  0  0  0  0  0  0  0  0
    3.8686    1.8446   19.2436 H   0  0  0  0  0  0  0  0  0  0  0  0
    5.4400    0.6530   20.1479 C   0  0  0  0  0  0  0  0  0  0  0  0
    5.0092    0.6469   21.1505 H   0  0  0  0  0  0  0  0  0  0  0  0
    8.9171   -0.5954   21.0266 C   0  0  0  0  0  0  0  0  0  0  0  0
    9.2539    0.3575   20.6063 H   0  0  0  0  0  0  0  0  0  0  0  0
    9.3638   -1.4032   20.4291 H   0  0  0  0  0  0  0  0  0  0  0  0
    9.3886   -0.7399   22.4732 C   0  0  0  0  0  0  0  0  0  0  0  0
   10.4831   -0.8015   22.5201 H   0  0  0  0  0  0  0  0  0  0  0  0
    9.0813    0.1415   23.0588 H   0  0  0  0  0  0  0  0  0  0  0  0
    8.8199   -1.9577   23.0455 N   0  0  0  0  0  0  0  0  0  0  0  0
    9.5773   -2.7932   23.9551 C   0  0  2  0  0  0  0  0  0  0  0  0
   10.6324   -2.4896   23.8765 H   0  0  0  0  0  0  0  0  0  0  0  0
    9.4702   -4.1877   23.5925 N   0  0  0  0  0  0  0  0  0  0  0  0
    9.0845   -4.7745   24.6512 C   0  0  0  0  0  0  0  0  0  0  0  0
    8.9151   -6.0831   24.7317 N   0  0  0  0  0  0  0  0  0  0  0  0
    9.0807   -6.5626   23.8741 H   0  0  0  0  0  0  0  0  0  0  0  0
    8.6128   -6.4545   25.6045 H   0  0  0  0  0  0  0  0  0  0  0  0
    8.8749   -4.1081   25.7885 O   0  0  0  0  0  0  0  0  0  0  0  0
    9.0658   -2.7236   25.4333 C   0  0  0  0  0  0  0  0  0  0  0  0
    8.1149   -2.1979   25.5226 H   0  0  0  0  0  0  0  0  0  0  0  0
    9.7630   -2.2956   26.1396 H   0  0  0  0  0  0  0  0  0  0  0  0
    7.4705   -2.2553   22.9037 C   0  0  0  0  0  0  0  0  0  0  0  0
    6.8976   -3.0661   23.6186 O   0  0  0  0  0  0  0  0  0  0  0  0
  1  2  1  0
  2  3  2  0
  3  4  1  0
  4  5  2  0
  5  6  1  0
  5  7  1  0
  7  8  2  0
  8  9  1  0
  8 10  1  0
 10 11  1  0
 10 12  2  0
 12 13  1  0
  3 14  1  0
 14 15  1  0
 14 16  1  0
 14 17  1  0
 17 18  1  0
 17 19  1  0
 17 20  1  0
 20 21  1  0
 21 22  1  1
 21 23  1  0
 23 24  2  0
 24 25  1  0
 25 26  1  0
 25 27  1  0
 24 28  1  0
 28 29  1  0
 29 30  1  0
 29 31  1  0
 20 32  1  0
 32 33  2  0
 32  2  1  0
 12  4  1  0
 29 21  1  0
M  END
>  <plip>  (1) 
-0.10714285714285714

>  <filename>  (1) 
[H][C]1=[C]([c]2[c]([H])[n][c]([H])[c]([H])[c]2[H])[C]([H])([H])[C]([H])([H])[N]([C@]2([H])[N]=[C]([N]([H])[H])[O][C]2([H])[H])[C]1=[O]

$$$$
