
     RDKit          3D

 42 44  0  0  0  0  0  0  0  0999 V2000
    5.9639   -2.4036   21.6154 C   0  0  0  0  0  0  0  0  0  0  0  0
    7.1721   -1.5525   22.0445 C   0  0  0  0  0  0  0  0  0  0  0  0
    6.8890   -0.8359   23.3756 C   0  0  0  0  0  0  0  0  0  0  0  0
    6.6180   -1.5963   24.1184 H   0  0  0  0  0  0  0  0  0  0  0  0
    7.7683   -0.3027   23.7576 H   0  0  0  0  0  0  0  0  0  0  0  0
    6.0589   -0.1201   23.3177 H   0  0  0  0  0  0  0  0  0  0  0  0
    7.7153   -0.6855   20.8558 C   0  0  0  0  0  0  0  0  0  0  0  0
    6.7506   -0.0438   19.8595 C   0  0  0  0  0  0  0  0  0  0  0  0
    5.5161    0.5697   20.1235 C   0  0  0  0  0  0  0  0  0  0  0  0
    4.8674    1.2561   19.0843 C   0  0  0  0  0  0  0  0  0  0  0  0
    5.4651    1.2963   17.8215 C   0  0  0  0  0  0  0  0  0  0  0  0
    6.6330    0.7012   17.5401 N   0  0  0  0  0  0  0  0  0  0  0  0
    7.2419    0.0668   18.5429 C   0  0  0  0  0  0  0  0  0  0  0  0
    8.2030   -0.3821   18.2951 H   0  0  0  0  0  0  0  0  0  0  0  0
    4.9876    1.8135   16.9927 H   0  0  0  0  0  0  0  0  0  0  0  0
    3.9249    1.7661   19.2366 H   0  0  0  0  0  0  0  0  0  0  0  0
    5.0646    0.5452   21.1200 H   0  0  0  0  0  0  0  0  0  0  0  0
    8.7168    0.3354   21.2520 N   0  0  0  0  0  0  0  0  0  0  0  0
    8.2460    1.6401   21.7211 C   0  0  0  0  0  0  0  0  0  0  0  0
    8.4008    2.4058   20.9513 H   0  0  0  0  0  0  0  0  0  0  0  0
    8.8089    1.9236   22.6166 H   0  0  0  0  0  0  0  0  0  0  0  0
    7.1815    1.6101   21.9746 H   0  0  0  0  0  0  0  0  0  0  0  0
   10.0559   -0.0131   21.2544 C   0  0  0  0  0  0  0  0  0  0  0  0
   10.4036   -1.1830   21.1530 O   0  0  0  0  0  0  0  0  0  0  0  0
   11.1090    1.1170   21.4186 C   0  0  0  0  0  0  0  0  0  0  0  0
   11.1092    2.2849   20.7320 N   0  0  0  0  0  0  0  0  0  0  0  0
   12.1130    2.9933   21.2795 N   0  0  0  0  0  0  0  0  0  0  0  0
   12.5130    4.2478   20.9070 C   0  0  0  0  0  0  0  0  0  0  0  0
   13.4905    4.8663   21.6387 C   0  0  0  0  0  0  0  0  0  0  0  0
   14.1072    4.1343   22.7121 C   0  0  0  0  0  0  0  0  0  0  0  0
   13.7542    2.9152   23.0421 N   0  0  0  0  0  0  0  0  0  0  0  0
   12.7636    2.3368   22.3208 C   0  0  0  0  0  0  0  0  0  0  0  0
   12.1647    1.0833   22.3409 C   0  0  0  0  0  0  0  0  0  0  0  0
   12.7580   -0.2637   23.1891 Cl  0  0  0  0  0  0  0  0  0  0  0  0
   14.9202    4.5769   23.2891 H   0  0  0  0  0  0  0  0  0  0  0  0
   13.7856    5.8826   21.4267 H   0  0  0  0  0  0  0  0  0  0  0  0
   12.0290    4.6383   20.0204 H   0  0  0  0  0  0  0  0  0  0  0  0
    8.2643   -1.4228   20.2582 H   0  0  0  0  0  0  0  0  0  0  0  0
    8.0029   -2.2466   22.2534 H   0  0  0  0  0  0  0  0  0  0  0  0
    6.1805   -3.0430   20.7501 H   0  0  0  0  0  0  0  0  0  0  0  0
    5.1141   -1.7655   21.3543 H   0  0  0  0  0  0  0  0  0  0  0  0
    5.6478   -3.0498   22.4440 H   0  0  0  0  0  0  0  0  0  0  0  0
  1  2  1  0
  2  3  1  0
  3  4  1  0
  3  5  1  0
  3  6  1  0
  2  7  1  0
  7  8  1  0
  8  9  2  0
  9 10  1  0
 10 11  2  0
 11 12  1  0
 12 13  2  0
 13 14  1  0
 11 15  1  0
 10 16  1  0
  9 17  1  0
  7 18  1  0
 18 19  1  0
 19 20  1  0
 19 21  1  0
 19 22  1  0
 18 23  1  0
 23 24  2  0
 23 25  1  0
 25 26  2  0
 26 27  1  0
 27 28  1  0
 28 29  2  0
 29 30  1  0
 30 31  2  0
 31 32  1  0
 32 33  2  0
 33 34  1  0
 30 35  1  0
 29 36  1  0
 28 37  1  0
  7 38  1  0
  2 39  1  0
  1 40  1  0
  1 41  1  0
  1 42  1  0
 13  8  1  0
 33 25  1  0
 32 27  1  0
M  END
>  <plip>  (1) 
-0.06060606060606061

>  <filename>  (1) 
[H][c]1[n][c]([H])[c]([C]([H])([N]([C](=[O])[c]2[n][n]3[c]([H])[c]([H])[c]([H])[n][c]3[c]2[Cl])[C]([H])([H])[H])[C]([H])([C]([H])([H])[H])[C]([H])([H])[H])[c]([H])[c]1[H]

$$$$
