
     RDKit          3D

 33 35  0  0  0  0  0  0  0  0999 V2000
    7.6368   -2.4850   26.7740 H   0  0  0  0  0  0  0  0  0  0  0  0
    7.5891   -2.2269   25.8449 O   0  0  0  0  0  0  0  0  0  0  0  0
    6.3842   -2.6931   25.4043 C   0  0  0  0  0  0  0  0  0  0  0  0
    5.5202   -3.2559   26.3521 C   0  0  0  0  0  0  0  0  0  0  0  0
    5.8436   -3.3104   27.3928 H   0  0  0  0  0  0  0  0  0  0  0  0
    4.2757   -3.7527   25.9797 C   0  0  0  0  0  0  0  0  0  0  0  0
    3.5846   -4.1081   26.7382 H   0  0  0  0  0  0  0  0  0  0  0  0
    3.9161   -3.7804   24.6304 C   0  0  0  0  0  0  0  0  0  0  0  0
    2.9531   -4.1733   24.3178 H   0  0  0  0  0  0  0  0  0  0  0  0
    4.7963   -3.2518   23.6841 C   0  0  0  0  0  0  0  0  0  0  0  0
    4.5039   -3.2574   22.6392 H   0  0  0  0  0  0  0  0  0  0  0  0
    6.0014   -2.5977   24.0385 C   0  0  0  0  0  0  0  0  0  0  0  0
    6.7182   -1.7490   23.0374 C   0  0  0  0  0  0  0  0  0  0  0  0
    6.5763   -1.7724   21.7035 C   0  0  0  0  0  0  0  0  0  0  0  0
    5.9355   -2.4377   21.1307 H   0  0  0  0  0  0  0  0  0  0  0  0
    7.4012   -0.7434   20.9620 C   0  0  1  0  0  0  0  0  0  0  0  0
    8.2659   -1.2519   20.5050 H   0  0  0  0  0  0  0  0  0  0  0  0
    6.6594   -0.0161   19.8350 C   0  0  0  0  0  0  0  0  0  0  0  0
    7.1581    0.0520   18.5183 C   0  0  0  0  0  0  0  0  0  0  0  0
    8.1017   -0.4268   18.2593 H   0  0  0  0  0  0  0  0  0  0  0  0
    6.5563    0.6929   17.5033 N   0  0  0  0  0  0  0  0  0  0  0  0
    5.4026    1.3194   17.7694 C   0  0  0  0  0  0  0  0  0  0  0  0
    4.9331    1.8493   16.9394 H   0  0  0  0  0  0  0  0  0  0  0  0
    4.8076    1.3171   19.0348 C   0  0  0  0  0  0  0  0  0  0  0  0
    3.8796    1.8487   19.1929 H   0  0  0  0  0  0  0  0  0  0  0  0
    5.4480    0.6434   20.0791 C   0  0  0  0  0  0  0  0  0  0  0  0
    5.0138    0.6248   21.0810 H   0  0  0  0  0  0  0  0  0  0  0  0
    7.9005    0.1741   22.1204 C   0  0  0  0  0  0  0  0  0  0  0  0
    8.9622    0.4168   22.0083 H   0  0  0  0  0  0  0  0  0  0  0  0
    7.3640    1.1286   22.1023 H   0  0  0  0  0  0  0  0  0  0  0  0
    7.6035   -0.5759   23.4429 C   0  0  0  0  0  0  0  0  0  0  0  0
    8.5092   -0.9130   23.9527 H   0  0  0  0  0  0  0  0  0  0  0  0
    7.0664    0.0635   24.1550 H   0  0  0  0  0  0  0  0  0  0  0  0
  1  2  1  0
  2  3  1  0
  3  4  2  0
  4  5  1  0
  4  6  1  0
  6  7  1  0
  6  8  2  0
  8  9  1  0
  8 10  1  0
 10 11  1  0
 10 12  2  0
 12 13  1  0
 13 14  2  0
 14 15  1  0
 14 16  1  0
 16 17  1  6
 16 18  1  0
 18 19  2  0
 19 20  1  0
 19 21  1  0
 21 22  2  0
 22 23  1  0
 22 24  1  0
 24 25  1  0
 24 26  2  0
 26 27  1  0
 16 28  1  0
 28 29  1  0
 28 30  1  0
 28 31  1  0
 31 32  1  0
 31 33  1  0
 12  3  1  0
 31 13  1  0
 26 18  1  0
M  END
>  <plip>  (1) 
-0.034482758620689655

>  <filename>  (1) 
[H][O][c]1[c]([H])[c]([H])[c]([H])[c]([H])[c]1[C]1=[C]([H])[C@@]([H])([c]2[c]([H])[n][c]([H])[c]([H])[c]2[H])[C]([H])([H])[C]1([H])[H]

$$$$
