
     RDKit          3D

 46 47  0  0  0  0  0  0  0  0999 V2000
    1.1878   -6.9484   27.9281 C   0  0  0  0  0  0  0  0  0  0  0  0
    2.0805   -7.9932   27.2332 C   0  0  0  0  0  0  0  0  0  0  0  0
    3.5482   -7.5654   27.2203 C   0  0  0  0  0  0  0  0  0  0  0  0
    4.2809   -7.8891   28.1348 O   0  0  0  0  0  0  0  0  0  0  0  0
    4.0576   -6.6904   26.0987 C   0  0  0  0  0  0  0  0  0  0  0  0
    3.2217   -6.1091   25.1285 C   0  0  0  0  0  0  0  0  0  0  0  0
    3.7435   -5.2729   24.1324 C   0  0  0  0  0  0  0  0  0  0  0  0
    5.1178   -5.0068   24.1027 C   0  0  0  0  0  0  0  0  0  0  0  0
    5.7638   -4.2047   23.2079 O   0  0  0  0  0  0  0  0  0  0  0  0
    5.0477   -3.5649   22.1539 C   0  0  0  0  0  0  0  0  0  0  0  0
    5.9979   -2.7428   21.2509 C   0  0  0  0  0  0  0  0  0  0  0  0
    6.2314   -3.1017   20.1113 O   0  0  0  0  0  0  0  0  0  0  0  0
    6.5463   -1.6131   21.8059 N   0  0  0  0  0  0  0  0  0  0  0  0
    7.4195   -0.7058   21.0310 C   0  0  0  0  0  0  0  0  0  0  0  0
    8.1224    0.3679   21.9436 C   0  0  0  0  0  0  0  0  0  0  0  0
    7.5452    1.1072   22.7105 O   0  0  0  0  0  0  0  0  0  0  0  0
    9.4587    0.3586   21.7872 O   0  0  0  0  0  0  0  0  0  0  0  0
   10.2024    1.2934   22.5965 C   0  0  0  0  0  0  0  0  0  0  0  0
    9.9267    2.3250   22.3471 H   0  0  0  0  0  0  0  0  0  0  0  0
    9.9987    1.1359   23.6621 H   0  0  0  0  0  0  0  0  0  0  0  0
   11.2482    1.0954   22.3624 H   0  0  0  0  0  0  0  0  0  0  0  0
    6.6399   -0.0286   19.8958 C   0  0  0  0  0  0  0  0  0  0  0  0
    5.4322    0.6353   20.1411 C   0  0  0  0  0  0  0  0  0  0  0  0
    4.8058    1.3040   19.0903 C   0  0  0  0  0  0  0  0  0  0  0  0
    5.4015    1.2924   17.8266 C   0  0  0  0  0  0  0  0  0  0  0  0
    6.5590    0.6669   17.5680 N   0  0  0  0  0  0  0  0  0  0  0  0
    7.1516    0.0282   18.5881 C   0  0  0  0  0  0  0  0  0  0  0  0
    8.1129   -0.4361   18.3506 H   0  0  0  0  0  0  0  0  0  0  0  0
    4.9340    1.8018   16.9837 H   0  0  0  0  0  0  0  0  0  0  0  0
    3.8814    1.8436   19.2423 H   0  0  0  0  0  0  0  0  0  0  0  0
    5.0037    0.6510   21.1435 H   0  0  0  0  0  0  0  0  0  0  0  0
    8.2224   -1.3135   20.5949 H   0  0  0  0  0  0  0  0  0  0  0  0
    6.1427   -1.2904   22.6739 H   0  0  0  0  0  0  0  0  0  0  0  0
    4.5871   -4.3061   21.4962 H   0  0  0  0  0  0  0  0  0  0  0  0
    4.2551   -2.9397   22.5790 H   0  0  0  0  0  0  0  0  0  0  0  0
    5.9629   -5.5828   25.0643 C   0  0  0  0  0  0  0  0  0  0  0  0
    5.4435   -6.4093   26.0476 C   0  0  0  0  0  0  0  0  0  0  0  0
    6.0998   -6.8400   26.8049 H   0  0  0  0  0  0  0  0  0  0  0  0
    7.0204   -5.3466   25.0063 H   0  0  0  0  0  0  0  0  0  0  0  0
    3.0870   -4.8393   23.3869 H   0  0  0  0  0  0  0  0  0  0  0  0
    2.1453   -6.2878   25.1438 H   0  0  0  0  0  0  0  0  0  0  0  0
    1.7364   -8.1945   26.2118 H   0  0  0  0  0  0  0  0  0  0  0  0
    2.0379   -8.9414   27.7768 H   0  0  0  0  0  0  0  0  0  0  0  0
    1.2188   -5.9795   27.4136 H   0  0  0  0  0  0  0  0  0  0  0  0
    0.1432   -7.2770   27.9632 H   0  0  0  0  0  0  0  0  0  0  0  0
    1.5197   -6.7863   28.9607 H   0  0  0  0  0  0  0  0  0  0  0  0
  1  2  1  0
  2  3  1  0
  3  4  2  0
  3  5  1  0
  5  6  2  0
  6  7  1  0
  7  8  2  0
  8  9  1  0
  9 10  1  0
 10 11  1  0
 11 12  2  0
 11 13  1  0
 13 14  1  0
 14 15  1  0
 15 16  2  0
 15 17  1  0
 17 18  1  0
 18 19  1  0
 18 20  1  0
 18 21  1  0
 14 22  1  0
 22 23  2  0
 23 24  1  0
 24 25  2  0
 25 26  1  0
 26 27  2  0
 27 28  1  0
 25 29  1  0
 24 30  1  0
 23 31  1  0
 14 32  1  0
 13 33  1  0
 10 34  1  0
 10 35  1  0
  8 36  1  0
 36 37  2  0
 37 38  1  0
 36 39  1  0
  7 40  1  0
  6 41  1  0
  2 42  1  0
  2 43  1  0
  1 44  1  0
  1 45  1  0
  1 46  1  0
 37  5  1  0
 27 22  1  0
M  END
>  <plip>  (1) 
-0.14285714285714285

>  <filename>  (1) 
[H][c]1[n][c]([H])[c]([C]([H])([C](=[O])[O][C]([H])([H])[H])[N]([H])[C](=[O])[C]([H])([H])[O][c]2[c]([H])[c]([H])[c]([C](=[O])[C]([H])([H])[C]([H])([H])[H])[c]([H])[c]2[H])[c]([H])[c]1[H]

$$$$
