
     RDKit          3D

 35 37  0  0  0  0  0  0  0  0999 V2000
    6.8493   -3.4789   24.1678 C   0  0  0  0  0  0  0  0  0  0  0  0
    6.0684   -4.3068   23.2670 N   0  0  0  0  0  0  0  0  0  0  0  0
    5.5726   -3.9314   22.0436 C   0  0  0  0  0  0  0  0  0  0  0  0
    5.8209   -2.7270   21.4118 N   0  0  0  0  0  0  0  0  0  0  0  0
    7.1419   -2.2129   21.0566 C   0  0  0  0  0  0  0  0  0  0  0  0
    7.3321   -0.6755   21.0732 C   0  0  0  0  0  0  0  0  0  0  0  0
    8.6896   -0.4798   20.9323 F   0  0  0  0  0  0  0  0  0  0  0  0
    7.0046   -0.1900   22.3050 F   0  0  0  0  0  0  0  0  0  0  0  0
    6.6209    0.1017   19.9830 C   0  0  0  0  0  0  0  0  0  0  0  0
    5.3948    0.7555   20.1749 C   0  0  0  0  0  0  0  0  0  0  0  0
    4.7876    1.3579   19.0718 C   0  0  0  0  0  0  0  0  0  0  0  0
    5.4201    1.3015   17.8284 C   0  0  0  0  0  0  0  0  0  0  0  0
    6.6031    0.7021   17.6391 N   0  0  0  0  0  0  0  0  0  0  0  0
    7.1898    0.1399   18.6988 C   0  0  0  0  0  0  0  0  0  0  0  0
    8.1677   -0.2968   18.5034 H   0  0  0  0  0  0  0  0  0  0  0  0
    4.9687    1.7639   16.9507 H   0  0  0  0  0  0  0  0  0  0  0  0
    3.8522    1.8929   19.1641 H   0  0  0  0  0  0  0  0  0  0  0  0
    4.9336    0.8025   21.1626 H   0  0  0  0  0  0  0  0  0  0  0  0
    7.3866   -2.4701   20.0325 H   0  0  0  0  0  0  0  0  0  0  0  0
    7.9253   -2.6242   21.6996 H   0  0  0  0  0  0  0  0  0  0  0  0
    5.1340   -2.7290   20.6671 H   0  0  0  0  0  0  0  0  0  0  0  0
    4.6973   -4.7424   21.5332 N   0  0  0  0  0  0  0  0  0  0  0  0
    4.5263   -5.7190   22.4860 C   0  0  0  0  0  0  0  0  0  0  0  0
    3.6377   -6.8001   22.4853 C   0  0  0  0  0  0  0  0  0  0  0  0
    3.5868   -7.5783   23.6312 C   0  0  0  0  0  0  0  0  0  0  0  0
    2.7559   -8.6329   23.6759 F   0  0  0  0  0  0  0  0  0  0  0  0
    4.3934   -7.3216   24.7566 C   0  0  0  0  0  0  0  0  0  0  0  0
    5.3109   -6.2700   24.7432 C   0  0  0  0  0  0  0  0  0  0  0  0
    5.3591   -5.4672   23.5972 C   0  0  0  0  0  0  0  0  0  0  0  0
    5.9758   -6.0839   25.5841 H   0  0  0  0  0  0  0  0  0  0  0  0
    4.2657   -7.9461   25.6307 H   0  0  0  0  0  0  0  0  0  0  0  0
    3.0384   -7.0339   21.6171 H   0  0  0  0  0  0  0  0  0  0  0  0
    6.6967   -2.4206   23.9286 H   0  0  0  0  0  0  0  0  0  0  0  0
    6.4997   -3.6526   25.1859 H   0  0  0  0  0  0  0  0  0  0  0  0
    7.9211   -3.7162   24.1425 H   0  0  0  0  0  0  0  0  0  0  0  0
  1  2  1  0
  2  3  1  0
  3  4  1  0
  4  5  1  0
  5  6  1  0
  6  7  1  0
  6  8  1  0
  6  9  1  0
  9 10  2  0
 10 11  1  0
 11 12  2  0
 12 13  1  0
 13 14  2  0
 14 15  1  0
 12 16  1  0
 11 17  1  0
 10 18  1  0
  5 19  1  0
  5 20  1  0
  4 21  1  0
  3 22  2  0
 22 23  1  0
 23 24  2  0
 24 25  1  0
 25 26  1  0
 25 27  2  0
 27 28  1  0
 28 29  2  0
 28 30  1  0
 27 31  1  0
 24 32  1  0
  1 33  1  0
  1 34  1  0
  1 35  1  0
 29  2  1  0
 14  9  1  0
 29 23  1  0
M  END
>  <plip>  (1) 
-0.10714285714285714

>  <filename>  (1) 
[H][c]1[n][c]([H])[c]([C]([F])([F])[C]([H])([H])[N]([H])[c]2[n][c]3[c]([H])[c]([F])[c]([H])[c]([H])[c]3[n]2[C]([H])([H])[H])[c]([H])[c]1[H]

$$$$
