
     RDKit          3D

 34 36  0  0  0  0  0  0  0  0999 V2000
   10.0207   -1.4271   22.8533 H   0  0  0  0  0  0  0  0  0  0  0  0
    9.0451   -1.3233   22.3978 C   0  0  0  0  0  0  0  0  0  0  0  0
    7.8948   -1.8853   22.8195 C   0  0  0  0  0  0  0  0  0  0  0  0
    7.6680   -2.5837   24.0891 C   0  0  0  0  0  0  0  0  0  0  0  0
    6.6016   -3.4730   24.2965 C   0  0  0  0  0  0  0  0  0  0  0  0
    5.8746   -3.6094   23.5086 H   0  0  0  0  0  0  0  0  0  0  0  0
    6.4691   -4.1701   25.5012 C   0  0  0  0  0  0  0  0  0  0  0  0
    5.6617   -4.8817   25.6312 H   0  0  0  0  0  0  0  0  0  0  0  0
    7.3925   -3.9898   26.5399 C   0  0  0  0  0  0  0  0  0  0  0  0
    7.3659   -4.5956   27.7505 O   0  0  0  0  0  0  0  0  0  0  0  0
    6.3548   -5.5456   28.0355 C   0  0  0  0  0  0  0  0  0  0  0  0
    5.3501   -5.1016   27.9927 H   0  0  0  0  0  0  0  0  0  0  0  0
    6.4050   -6.4067   27.3549 H   0  0  0  0  0  0  0  0  0  0  0  0
    6.5507   -5.8819   29.0528 H   0  0  0  0  0  0  0  0  0  0  0  0
    8.4579   -3.0897   26.3098 C   0  0  0  0  0  0  0  0  0  0  0  0
    9.4091   -2.9649   27.2354 F   0  0  0  0  0  0  0  0  0  0  0  0
    8.5738   -2.3700   25.1429 C   0  0  0  0  0  0  0  0  0  0  0  0
    9.3665   -1.6275   25.0841 H   0  0  0  0  0  0  0  0  0  0  0  0
    6.8581   -1.6463   21.7666 C   0  0  0  0  0  0  0  0  0  0  0  0
    5.7746   -2.1712   21.6073 O   0  0  0  0  0  0  0  0  0  0  0  0
    7.4257   -0.6890   20.9112 N   0  0  0  0  0  0  0  0  0  0  0  0
    6.7248   -0.0145   19.8855 C   0  0  0  0  0  0  0  0  0  0  0  0
    7.2320    0.0656   18.5691 C   0  0  0  0  0  0  0  0  0  0  0  0
    8.1813   -0.4188   18.3396 H   0  0  0  0  0  0  0  0  0  0  0  0
    6.6046    0.6884   17.5661 N   0  0  0  0  0  0  0  0  0  0  0  0
    5.4348    1.2898   17.8405 C   0  0  0  0  0  0  0  0  0  0  0  0
    4.9453    1.7891   17.0080 H   0  0  0  0  0  0  0  0  0  0  0  0
    4.8524    1.2810   19.1139 C   0  0  0  0  0  0  0  0  0  0  0  0
    3.9096    1.7907   19.2732 H   0  0  0  0  0  0  0  0  0  0  0  0
    5.4952    0.6078   20.1560 C   0  0  0  0  0  0  0  0  0  0  0  0
    5.0791    0.5516   21.1604 H   0  0  0  0  0  0  0  0  0  0  0  0
    8.8662   -0.6094   21.1059 C   0  0  0  0  0  0  0  0  0  0  0  0
    9.4081   -1.1403   20.3048 H   0  0  0  0  0  0  0  0  0  0  0  0
    9.2395    0.4238   21.1422 H   0  0  0  0  0  0  0  0  0  0  0  0
  1  2  1  0
  2  3  2  0
  3  4  1  0
  4  5  2  0
  5  6  1  0
  5  7  1  0
  7  8  1  0
  7  9  2  0
  9 10  1  0
 10 11  1  0
 11 12  1  0
 11 13  1  0
 11 14  1  0
  9 15  1  0
 15 16  1  0
 15 17  2  0
 17 18  1  0
  3 19  1  0
 19 20  2  0
 19 21  1  0
 21 22  1  0
 22 23  2  0
 23 24  1  0
 23 25  1  0
 25 26  2  0
 26 27  1  0
 26 28  1  0
 28 29  1  0
 28 30  2  0
 30 31  1  0
 21 32  1  0
 32 33  1  0
 32 34  1  0
 32  2  1  0
 17  4  1  0
 30 22  1  0
M  END
>  <plip>  (1) 
-0.07142857142857142

>  <filename>  (1) 
[H][C]1=[C]([c]2[c]([H])[c]([H])[c]([O][C]([H])([H])[H])[c]([F])[c]2[H])[C](=[O])[N]([c]2[c]([H])[n][c]([H])[c]([H])[c]2[H])[C]1([H])[H]

$$$$
