
     RDKit          3D

 30 31  0  0  0  0  0  0  0  0999 V2000
    4.9208    1.8823   16.9551 H   0  0  0  0  0  0  0  0  0  0  0  0
    5.3898    1.3549   17.7834 C   0  0  0  0  0  0  0  0  0  0  0  0
    6.5658    0.7655   17.5198 N   0  0  0  0  0  0  0  0  0  0  0  0
    7.1872    0.1421   18.5282 C   0  0  0  0  0  0  0  0  0  0  0  0
    8.1475   -0.3150   18.2890 H   0  0  0  0  0  0  0  0  0  0  0  0
    6.6642    0.0416   19.8310 C   0  0  0  0  0  0  0  0  0  0  0  0
    7.4466   -0.6445   20.9486 C   0  0  1  0  0  0  0  0  0  0  0  0
    6.9656   -0.3930   21.9076 H   0  0  0  0  0  0  0  0  0  0  0  0
    7.5479   -2.1819   20.9336 C   0  0  0  0  0  0  0  0  0  0  0  0
    6.6764   -3.0049   20.8440 O   0  0  0  0  0  0  0  0  0  0  0  0
    8.8709   -2.4786   21.0813 N   0  0  0  0  0  0  0  0  0  0  0  0
    9.2574   -3.4005   21.1522 H   0  0  0  0  0  0  0  0  0  0  0  0
    9.6854   -1.3790   21.2076 C   0  0  0  0  0  0  0  0  0  0  0  0
   10.8561   -1.4749   21.4896 O   0  0  0  0  0  0  0  0  0  0  0  0
    8.8654   -0.2669   20.9953 N   0  0  0  0  0  0  0  0  0  0  0  0
    9.2400    1.0791   21.1572 N   0  0  0  0  0  0  0  0  0  0  0  0
    8.4504    1.6845   20.8958 H   0  0  0  0  0  0  0  0  0  0  0  0
    9.7650    1.3892   22.5014 C   0  0  0  0  0  0  0  0  0  0  0  0
   10.1322    2.4230   22.4632 H   0  0  0  0  0  0  0  0  0  0  0  0
   10.6334    0.7378   22.6666 H   0  0  0  0  0  0  0  0  0  0  0  0
    8.8452    1.1909   23.7265 C   0  0  0  0  0  0  0  0  0  0  0  0
    9.4929    1.2964   24.6075 H   0  0  0  0  0  0  0  0  0  0  0  0
    8.5000    0.1471   23.7431 H   0  0  0  0  0  0  0  0  0  0  0  0
    7.6967    2.0675   23.9501 N   0  0  0  0  0  0  0  0  0  0  0  0
    7.9495    3.0520   23.9435 H   0  0  0  0  0  0  0  0  0  0  0  0
    6.9559    1.9448   23.2654 H   0  0  0  0  0  0  0  0  0  0  0  0
    5.4232    0.6465   20.0797 C   0  0  0  0  0  0  0  0  0  0  0  0
    4.9700    0.6096   21.0719 H   0  0  0  0  0  0  0  0  0  0  0  0
    4.7769    1.3165   19.0374 C   0  0  0  0  0  0  0  0  0  0  0  0
    3.8347    1.8304   19.1896 H   0  0  0  0  0  0  0  0  0  0  0  0
  1  2  1  0
  2  3  2  0
  3  4  1  0
  4  5  1  0
  4  6  2  0
  6  7  1  0
  7  8  1  1
  7  9  1  0
  9 10  2  0
  9 11  1  0
 11 12  1  0
 11 13  1  0
 13 14  2  0
 13 15  1  0
 15 16  1  0
 16 17  1  0
 16 18  1  0
 18 19  1  0
 18 20  1  0
 18 21  1  0
 21 22  1  0
 21 23  1  0
 21 24  1  0
 24 25  1  0
 24 26  1  0
  6 27  1  0
 27 28  1  0
 27 29  2  0
 29 30  1  0
 29  2  1  0
 15  7  1  0
M  END
>  <plip>  (1) 
-0.06896551724137931

>  <filename>  (1) 
[H][c]1[n][c]([H])[c]([C@@]2([H])[C](=[O])[N]([H])[C](=[O])[N]2[N]([H])[C]([H])([H])[C]([H])([H])[N]([H])[H])[c]([H])[c]1[H]

$$$$
