
     RDKit          3D

 33 36  0  0  0  0  0  0  0  0999 V2000
    4.9815    1.8081   16.9827 H   0  0  0  0  0  0  0  0  0  0  0  0
    5.4472    1.3036   17.8306 C   0  0  0  0  0  0  0  0  0  0  0  0
    6.6110    0.6808   17.5935 N   0  0  0  0  0  0  0  0  0  0  0  0
    7.2000    0.0623   18.6274 C   0  0  0  0  0  0  0  0  0  0  0  0
    8.1407   -0.4322   18.3923 H   0  0  0  0  0  0  0  0  0  0  0  0
    6.6931    0.0204   19.9598 C   0  0  0  0  0  0  0  0  0  0  0  0
    7.3101   -0.6750   20.9982 N   0  0  0  0  0  0  0  0  0  0  0  0
    7.3133   -0.2784   22.4276 C   0  0  0  0  0  0  0  0  0  0  0  0
    7.5056    0.8003   22.5589 H   0  0  0  0  0  0  0  0  0  0  0  0
    6.3635   -0.5524   22.8998 H   0  0  0  0  0  0  0  0  0  0  0  0
    8.4861   -1.1438   22.9926 C   0  0  2  0  0  0  0  0  0  0  0  0
    8.4308   -1.3367   24.0694 H   0  0  0  0  0  0  0  0  0  0  0  0
    9.8184   -0.5917   22.5647 N   0  0  0  0  0  0  0  0  0  0  0  0
   10.2339    0.6437   23.0825 N   0  0  0  0  0  0  0  0  0  0  0  0
   11.2414    1.4595   22.6158 C   0  0  0  0  0  0  0  0  0  0  0  0
   11.8409    1.1986   21.7500 H   0  0  0  0  0  0  0  0  0  0  0  0
   11.3624    2.5510   23.3250 N   0  0  0  0  0  0  0  0  0  0  0  0
   10.4051    2.4409   24.3054 C   0  0  0  0  0  0  0  0  0  0  0  0
   10.2729    3.2248   25.0406 H   0  0  0  0  0  0  0  0  0  0  0  0
    9.7079    1.2770   24.1898 C   0  0  0  0  0  0  0  0  0  0  0  0
    8.9252    0.8263   24.7741 H   0  0  0  0  0  0  0  0  0  0  0  0
    9.7525   -0.6207   21.0706 C   0  0  0  0  0  0  0  0  0  0  0  0
    9.5812    0.3828   20.6529 H   0  0  0  0  0  0  0  0  0  0  0  0
   10.6646   -1.0451   20.6451 H   0  0  0  0  0  0  0  0  0  0  0  0
    8.5105   -1.4888   20.8276 C   0  0  1  0  0  0  0  0  0  0  0  0
    8.5182   -1.9681   19.8676 H   0  0  0  0  0  0  0  0  0  0  0  0
    8.4430   -2.3642   22.0773 C   0  0  0  0  0  0  0  0  0  0  0  0
    9.2950   -3.0354   22.2128 H   0  0  0  0  0  0  0  0  0  0  0  0
    7.5089   -2.9253   22.1454 H   0  0  0  0  0  0  0  0  0  0  0  0
    5.4624    0.6755   20.1663 C   0  0  0  0  0  0  0  0  0  0  0  0
    5.0153    0.6628   21.1589 H   0  0  0  0  0  0  0  0  0  0  0  0
    4.8397    1.3182   19.0896 C   0  0  0  0  0  0  0  0  0  0  0  0
    3.8957    1.8369   19.2237 H   0  0  0  0  0  0  0  0  0  0  0  0
  1  2  1  0
  2  3  2  0
  3  4  1  0
  4  5  1  0
  4  6  2  0
  6  7  1  0
  7  8  1  0
  8  9  1  0
  8 10  1  0
  8 11  1  0
 11 12  1  1
 11 13  1  0
 13 14  1  0
 14 15  1  0
 15 16  1  0
 15 17  2  0
 17 18  1  0
 18 19  1  0
 18 20  2  0
 20 21  1  0
 13 22  1  0
 22 23  1  0
 22 24  1  0
 22 25  1  0
 25 26  1  6
 25 27  1  0
 27 28  1  0
 27 29  1  0
  6 30  1  0
 30 31  1  0
 30 32  2  0
 32 33  1  0
 32  2  1  0
 25  7  1  0
 27 11  1  0
 20 14  1  0
M  END
>  <plip>  (1) 
-0.03571428571428571

>  <filename>  (1) 
[H][c]1[n][c]([H])[c]([N]2[C]([H])([H])[C@]3([H])[N]([n]4[c]([H])[n][c]([H])[c]4[H])[C]([H])([H])[C@@]2([H])[C]3([H])[H])[c]([H])[c]1[H]

$$$$
