
     RDKit          3D

 36 39  0  0  0  0  0  0  0  0999 V2000
    5.0534    1.8931   17.1404 H   0  0  0  0  0  0  0  0  0  0  0  0
    5.4896    1.2353   17.8925 C   0  0  0  0  0  0  0  0  0  0  0  0
    6.6051    0.5811   17.5333 N   0  0  0  0  0  0  0  0  0  0  0  0
    7.1785   -0.2034   18.4542 C   0  0  0  0  0  0  0  0  0  0  0  0
    8.0610   -0.7603   18.1342 H   0  0  0  0  0  0  0  0  0  0  0  0
    6.6995   -0.3590   19.7681 C   0  0  0  0  0  0  0  0  0  0  0  0
    7.5570   -1.0291   20.7694 C   0  0  0  0  0  0  0  0  0  0  0  0
    8.8671   -0.7848   21.0005 C   0  0  0  0  0  0  0  0  0  0  0  0
    9.5114   -0.0896   20.4774 H   0  0  0  0  0  0  0  0  0  0  0  0
    9.4664   -1.5715   22.4354 S   0  0  0  0  0  0  0  0  0  0  0  0
    7.8691   -2.1966   22.7628 C   0  0  0  0  0  0  0  0  0  0  0  0
    7.2484   -2.8529   23.7143 N   0  0  0  0  0  0  0  0  0  0  0  0
    5.9929   -2.9025   23.2050 C   0  0  0  0  0  0  0  0  0  0  0  0
    4.9144   -3.4105   23.8544 N   0  0  0  0  0  0  0  0  0  0  0  0
    4.0996   -3.4773   23.2798 H   0  0  0  0  0  0  0  0  0  0  0  0
    5.0233   -4.1981   24.9736 C   0  0  0  0  0  0  0  0  0  0  0  0
    6.0635   -4.5123   25.4784 O   0  0  0  0  0  0  0  0  0  0  0  0
    3.7615   -4.5823   25.3987 N   0  0  0  0  0  0  0  0  0  0  0  0
    3.0661   -3.8762   25.2430 H   0  0  0  0  0  0  0  0  0  0  0  0
    3.5404   -5.4441   26.4962 C   0  0  0  0  0  0  0  0  0  0  0  0
    2.4501   -5.2265   27.3467 C   0  0  0  0  0  0  0  0  0  0  0  0
    1.8026   -4.3712   27.1818 H   0  0  0  0  0  0  0  0  0  0  0  0
    2.1977   -6.0983   28.4141 C   0  0  0  0  0  0  0  0  0  0  0  0
    1.3538   -5.9407   29.0817 H   0  0  0  0  0  0  0  0  0  0  0  0
    3.0461   -7.1901   28.6215 C   0  0  0  0  0  0  0  0  0  0  0  0
    2.7457   -8.2846   29.9385 Cl  0  0  0  0  0  0  0  0  0  0  0  0
    4.1351   -7.4200   27.7752 C   0  0  0  0  0  0  0  0  0  0  0  0
    4.7922   -8.2692   27.9444 H   0  0  0  0  0  0  0  0  0  0  0  0
    4.3845   -6.5428   26.7208 C   0  0  0  0  0  0  0  0  0  0  0  0
    5.2419   -6.6866   26.0761 H   0  0  0  0  0  0  0  0  0  0  0  0
    5.7933   -2.3613   22.0146 N   0  0  0  0  0  0  0  0  0  0  0  0
    7.0421   -1.8724   21.7456 N   0  0  0  0  0  0  0  0  0  0  0  0
    5.4776    0.2587   20.0938 C   0  0  0  0  0  0  0  0  0  0  0  0
    5.0220    0.0963   21.0722 H   0  0  0  0  0  0  0  0  0  0  0  0
    4.8841    1.0912   19.1464 C   0  0  0  0  0  0  0  0  0  0  0  0
    3.9877    1.6571   19.3724 H   0  0  0  0  0  0  0  0  0  0  0  0
  1  2  1  0
  2  3  2  0
  3  4  1  0
  4  5  1  0
  4  6  2  0
  6  7  1  0
  7  8  2  0
  8  9  1  0
  8 10  1  0
 10 11  1  0
 11 12  2  0
 12 13  1  0
 13 14  1  0
 14 15  1  0
 14 16  1  0
 16 17  2  0
 16 18  1  0
 18 19  1  0
 18 20  1  0
 20 21  2  0
 21 22  1  0
 21 23  1  0
 23 24  1  0
 23 25  2  0
 25 26  1  0
 25 27  1  0
 27 28  1  0
 27 29  2  0
 29 30  1  0
 13 31  2  0
 31 32  1  0
  6 33  1  0
 33 34  1  0
 33 35  2  0
 35 36  1  0
 35  2  1  0
 32  7  1  0
 32 11  1  0
 29 20  1  0
M  END
>  <plip>  (1) 
-0.07142857142857142

>  <filename>  (1) 
[H][c]1[n][c]([H])[c](-[c]2[c]([H])[s][c]3[n][c]([N]([H])[C](=[O])[N]([H])[c]4[c]([H])[c]([H])[c]([Cl])[c]([H])[c]4[H])[n][n]23)[c]([H])[c]1[H]

$$$$
