
     RDKit          3D

 31 32  0  0  0  0  0  0  0  0999 V2000
   11.7423    3.6824   20.9175 H   0  0  0  0  0  0  0  0  0  0  0  0
   11.5857    2.8459   20.4376 O   0  0  0  0  0  0  0  0  0  0  0  0
   11.9594    1.7985   21.2810 N   0  0  0  0  0  0  0  0  0  0  0  0
   12.4272    1.0871   20.7424 H   0  0  0  0  0  0  0  0  0  0  0  0
   11.1184    1.2768   22.2552 C   0  0  0  0  0  0  0  0  0  0  0  0
   10.2269    1.8865   22.7956 O   0  0  0  0  0  0  0  0  0  0  0  0
   11.5602   -0.1415   22.6271 C   0  0  0  0  0  0  0  0  0  0  0  0
   12.6553   -0.1726   22.5839 H   0  0  0  0  0  0  0  0  0  0  0  0
   11.2661   -0.2721   23.6704 H   0  0  0  0  0  0  0  0  0  0  0  0
   10.9809   -1.2972   21.7655 C   0  0  0  0  0  0  0  0  0  0  0  0
   11.4090   -2.2382   22.1367 H   0  0  0  0  0  0  0  0  0  0  0  0
   11.2879   -1.1919   20.7237 H   0  0  0  0  0  0  0  0  0  0  0  0
    9.4827   -1.3587   21.7926 C   0  0  0  0  0  0  0  0  0  0  0  0
    8.7872   -0.7800   20.8379 N   0  0  0  0  0  0  0  0  0  0  0  0
    7.4057   -0.7479   20.9464 C   0  0  0  0  0  0  0  0  0  0  0  0
    6.6719    0.0019   19.8906 C   0  0  0  0  0  0  0  0  0  0  0  0
    7.1908    0.0642   18.5848 C   0  0  0  0  0  0  0  0  0  0  0  0
    8.1453   -0.4099   18.3627 H   0  0  0  0  0  0  0  0  0  0  0  0
    6.5752    0.6734   17.5630 N   0  0  0  0  0  0  0  0  0  0  0  0
    5.4119    1.2925   17.8191 C   0  0  0  0  0  0  0  0  0  0  0  0
    4.9386    1.7947   16.9789 H   0  0  0  0  0  0  0  0  0  0  0  0
    4.8122    1.3154   19.0819 C   0  0  0  0  0  0  0  0  0  0  0  0
    3.8739    1.8428   19.2278 H   0  0  0  0  0  0  0  0  0  0  0  0
    5.4509    0.6599   20.1345 C   0  0  0  0  0  0  0  0  0  0  0  0
    5.0120    0.6867   21.1321 H   0  0  0  0  0  0  0  0  0  0  0  0
    6.7407   -1.3854   21.9611 C   0  0  0  0  0  0  0  0  0  0  0  0
    5.6590   -1.4464   21.9958 H   0  0  0  0  0  0  0  0  0  0  0  0
    7.4711   -2.0181   22.9505 N   0  0  0  0  0  0  0  0  0  0  0  0
    7.0900   -2.4741   23.7744 H   0  0  0  0  0  0  0  0  0  0  0  0
    8.8554   -2.0345   22.9767 C   0  0  0  0  0  0  0  0  0  0  0  0
    9.4133   -2.5928   23.9123 O   0  0  0  0  0  0  0  0  0  0  0  0
  1  2  1  0
  2  3  1  0
  3  4  1  0
  3  5  1  0
  5  6  2  0
  5  7  1  0
  7  8  1  0
  7  9  1  0
  7 10  1  0
 10 11  1  0
 10 12  1  0
 10 13  1  0
 13 14  2  0
 14 15  1  0
 15 16  1  0
 16 17  2  0
 17 18  1  0
 17 19  1  0
 19 20  2  0
 20 21  1  0
 20 22  1  0
 22 23  1  0
 22 24  2  0
 24 25  1  0
 15 26  2  0
 26 27  1  0
 26 28  1  0
 28 29  1  0
 28 30  1  0
 30 31  2  0
 30 13  1  0
 24 16  1  0
M  END
>  <plip>  (1) 
-0.10714285714285714

>  <filename>  (1) 
[H][O][N]([H])[C](=[O])[C]([H])([H])[C]([H])([H])[c]1[n][c](-[c]2[c]([H])[n][c]([H])[c]([H])[c]2[H])[c]([H])[n]([H])[c]1=[O]

$$$$
