
     RDKit          3D

 43 45  0  0  0  0  0  0  0  0999 V2000
    7.9299    0.3580   25.7810 C   0  0  0  0  0  0  0  0  0  0  0  0
    8.4323    0.1103   24.3545 C   0  0  0  0  0  0  0  0  0  0  0  0
    7.4548    0.6013   23.2812 C   0  0  0  0  0  0  0  0  0  0  0  0
    7.9678    0.3143   21.9382 N   0  0  0  0  0  0  0  0  0  0  0  0
    7.3445   -0.6801   21.0504 C   0  0  0  0  0  0  0  0  0  0  0  0
    6.6302   -0.0051   19.9021 C   0  0  0  0  0  0  0  0  0  0  0  0
    5.3943    0.6274   20.0858 C   0  0  0  0  0  0  0  0  0  0  0  0
    4.8067    1.2834   19.0031 C   0  0  0  0  0  0  0  0  0  0  0  0
    5.4818    1.2904   17.7780 C   0  0  0  0  0  0  0  0  0  0  0  0
    6.6699    0.7012   17.5827 N   0  0  0  0  0  0  0  0  0  0  0  0
    7.2323    0.0924   18.6368 C   0  0  0  0  0  0  0  0  0  0  0  0
    8.2130   -0.3526   18.4630 H   0  0  0  0  0  0  0  0  0  0  0  0
    5.0470    1.7776   16.9072 H   0  0  0  0  0  0  0  0  0  0  0  0
    3.8542    1.7910   19.0960 H   0  0  0  0  0  0  0  0  0  0  0  0
    4.9071    0.6131   21.0643 H   0  0  0  0  0  0  0  0  0  0  0  0
    6.6496   -1.2924   21.6367 H   0  0  0  0  0  0  0  0  0  0  0  0
    8.1261   -1.3491   20.6718 H   0  0  0  0  0  0  0  0  0  0  0  0
    9.0587    0.9710   21.4308 C   0  0  0  0  0  0  0  0  0  0  0  0
    9.7175    0.4742   20.5105 O   0  0  0  0  0  0  0  0  0  0  0  0
    9.4908    2.2820   22.0347 C   0  0  0  0  0  0  0  0  0  0  0  0
   10.8647    2.4417   22.2924 C   0  0  0  0  0  0  0  0  0  0  0  0
   11.7191    1.3998   22.0545 N   0  0  0  0  0  0  0  0  0  0  0  0
   11.4478    0.8266   21.2588 H   0  0  0  0  0  0  0  0  0  0  0  0
   12.7068    1.5553   22.1789 H   0  0  0  0  0  0  0  0  0  0  0  0
   11.2881    3.6918   22.8530 C   0  0  0  0  0  0  0  0  0  0  0  0
   12.6254    4.0511   23.2378 C   0  0  0  0  0  0  0  0  0  0  0  0
   12.8893    5.3289   23.6955 C   0  0  0  0  0  0  0  0  0  0  0  0
   11.8588    6.3080   23.7927 C   0  0  0  0  0  0  0  0  0  0  0  0
   10.5690    5.9811   23.4516 C   0  0  0  0  0  0  0  0  0  0  0  0
   10.2544    4.6694   22.9881 C   0  0  0  0  0  0  0  0  0  0  0  0
    8.9246    4.4275   22.7012 N   0  0  0  0  0  0  0  0  0  0  0  0
    8.5646    3.2711   22.2512 N   0  0  0  0  0  0  0  0  0  0  0  0
    9.7311    6.6672   23.5139 H   0  0  0  0  0  0  0  0  0  0  0  0
   12.1171    7.3080   24.1415 H   0  0  0  0  0  0  0  0  0  0  0  0
   13.9035    5.6096   23.9606 H   0  0  0  0  0  0  0  0  0  0  0  0
   13.4384    3.3263   23.1544 H   0  0  0  0  0  0  0  0  0  0  0  0
    6.4689    0.1235   23.3966 H   0  0  0  0  0  0  0  0  0  0  0  0
    7.3040    1.6866   23.3640 H   0  0  0  0  0  0  0  0  0  0  0  0
    8.6187   -0.9622   24.1994 H   0  0  0  0  0  0  0  0  0  0  0  0
    9.3937    0.6242   24.2057 H   0  0  0  0  0  0  0  0  0  0  0  0
    6.9710   -0.1486   25.9600 H   0  0  0  0  0  0  0  0  0  0  0  0
    8.6482   -0.0184   26.5194 H   0  0  0  0  0  0  0  0  0  0  0  0
    7.7902    1.4307   25.9766 H   0  0  0  0  0  0  0  0  0  0  0  0
  1  2  1  0
  2  3  1  0
  3  4  1  0
  4  5  1  0
  5  6  1  0
  6  7  2  0
  7  8  1  0
  8  9  2  0
  9 10  1  0
 10 11  2  0
 11 12  1  0
  9 13  1  0
  8 14  1  0
  7 15  1  0
  5 16  1  0
  5 17  1  0
  4 18  1  0
 18 19  2  0
 18 20  1  0
 20 21  2  0
 21 22  1  0
 22 23  1  0
 22 24  1  0
 21 25  1  0
 25 26  2  0
 26 27  1  0
 27 28  2  0
 28 29  1  0
 29 30  2  0
 30 31  1  0
 31 32  2  0
 29 33  1  0
 28 34  1  0
 27 35  1  0
 26 36  1  0
  3 37  1  0
  3 38  1  0
  2 39  1  0
  2 40  1  0
  1 41  1  0
  1 42  1  0
  1 43  1  0
 11  6  1  0
 32 20  1  0
 30 25  1  0
M  END
>  <plip>  (1) 
-0.07142857142857142

>  <filename>  (1) 
[H][c]1[n][c]([H])[c]([C]([H])([H])[N]([C](=[O])[c]2[n][n][c]3[c]([H])[c]([H])[c]([H])[c]([H])[c]3[c]2[N]([H])[H])[C]([H])([H])[C]([H])([H])[C]([H])([H])[H])[c]([H])[c]1[H]

$$$$
