
     RDKit          3D

 39 41  0  0  0  0  0  0  0  0999 V2000
    7.2784    1.1517   22.7892 C   0  0  0  0  0  0  0  0  0  0  0  0
    8.1991    0.2640   21.9442 C   0  0  0  0  0  0  0  0  0  0  0  0
    9.2080    1.1219   21.1692 C   0  0  0  0  0  0  0  0  0  0  0  0
    9.8861    0.5031   20.5718 H   0  0  0  0  0  0  0  0  0  0  0  0
    9.8193    1.7124   21.8604 H   0  0  0  0  0  0  0  0  0  0  0  0
    8.7032    1.8251   20.4944 H   0  0  0  0  0  0  0  0  0  0  0  0
    7.4356   -0.7258   21.0023 C   0  0  0  0  0  0  0  0  0  0  0  0
    6.5847   -1.6572   21.7503 N   0  0  0  0  0  0  0  0  0  0  0  0
    7.1058   -2.6610   22.5064 C   0  0  0  0  0  0  0  0  0  0  0  0
    8.3117   -2.8826   22.5051 O   0  0  0  0  0  0  0  0  0  0  0  0
    6.1732   -3.5133   23.3461 C   0  0  0  0  0  0  0  0  0  0  0  0
    6.6082   -4.5624   24.1341 C   0  0  0  0  0  0  0  0  0  0  0  0
    5.4817   -5.0649   24.7299 N   0  0  0  0  0  0  0  0  0  0  0  0
    5.2926   -6.1075   25.6094 C   0  0  0  0  0  0  0  0  0  0  0  0
    4.0211   -6.3529   26.0204 C   0  0  0  0  0  0  0  0  0  0  0  0
    3.6667   -7.6345   27.1287 Cl  0  0  0  0  0  0  0  0  0  0  0  0
    2.9463   -5.5200   25.5230 C   0  0  0  0  0  0  0  0  0  0  0  0
    3.1159   -4.5326   24.6862 N   0  0  0  0  0  0  0  0  0  0  0  0
    4.3881   -4.2787   24.2685 C   0  0  0  0  0  0  0  0  0  0  0  0
    4.8118   -3.3577   23.4317 N   0  0  0  0  0  0  0  0  0  0  0  0
    1.9272   -5.7199   25.8557 H   0  0  0  0  0  0  0  0  0  0  0  0
    6.1578   -6.6831   25.9387 H   0  0  0  0  0  0  0  0  0  0  0  0
    7.5978   -4.9775   24.3132 H   0  0  0  0  0  0  0  0  0  0  0  0
    5.5832   -1.5571   21.7112 H   0  0  0  0  0  0  0  0  0  0  0  0
    6.6444   -0.0306   19.9189 C   0  0  0  0  0  0  0  0  0  0  0  0
    5.4324    0.6347   20.1600 C   0  0  0  0  0  0  0  0  0  0  0  0
    4.8071    1.3078   19.1075 C   0  0  0  0  0  0  0  0  0  0  0  0
    5.4036    1.2905   17.8432 C   0  0  0  0  0  0  0  0  0  0  0  0
    6.5682    0.6752   17.5892 N   0  0  0  0  0  0  0  0  0  0  0  0
    7.1615    0.0501   18.6149 C   0  0  0  0  0  0  0  0  0  0  0  0
    8.1117   -0.4290   18.3759 H   0  0  0  0  0  0  0  0  0  0  0  0
    4.9165    1.7783   17.0004 H   0  0  0  0  0  0  0  0  0  0  0  0
    3.8758    1.8423   19.2587 H   0  0  0  0  0  0  0  0  0  0  0  0
    4.9989    0.6397   21.1651 H   0  0  0  0  0  0  0  0  0  0  0  0
    8.2078   -1.3320   20.5080 H   0  0  0  0  0  0  0  0  0  0  0  0
    8.7633   -0.3835   22.6251 H   0  0  0  0  0  0  0  0  0  0  0  0
    7.8601    1.6684   23.5594 H   0  0  0  0  0  0  0  0  0  0  0  0
    6.7836    1.9216   22.1832 H   0  0  0  0  0  0  0  0  0  0  0  0
    6.5054    0.5629   23.2939 H   0  0  0  0  0  0  0  0  0  0  0  0
  1  2  1  0
  2  3  1  0
  3  4  1  0
  3  5  1  0
  3  6  1  0
  2  7  1  0
  7  8  1  0
  8  9  1  0
  9 10  2  0
  9 11  1  0
 11 12  2  0
 12 13  1  0
 13 14  1  0
 14 15  2  0
 15 16  1  0
 15 17  1  0
 17 18  2  0
 18 19  1  0
 19 20  2  0
 17 21  1  0
 14 22  1  0
 12 23  1  0
  8 24  1  0
  7 25  1  0
 25 26  2  0
 26 27  1  0
 27 28  2  0
 28 29  1  0
 29 30  2  0
 30 31  1  0
 28 32  1  0
 27 33  1  0
 26 34  1  0
  7 35  1  0
  2 36  1  0
  1 37  1  0
  1 38  1  0
  1 39  1  0
 20 11  1  0
 30 25  1  0
 19 13  1  0
M  END
>  <plip>  (1) 
-0.0967741935483871

>  <filename>  (1) 
[H][c]1[n][c]([H])[c]([C]([H])([N]([H])[C](=[O])[c]2[n][c]3[n][c]([H])[c]([Cl])[c]([H])[n]3[c]2[H])[C]([H])([C]([H])([H])[H])[C]([H])([H])[H])[c]([H])[c]1[H]

$$$$
