
     RDKit          3D

 30 31  0  0  0  0  0  0  0  0999 V2000
    5.0035    1.8396   16.9581 H   0  0  0  0  0  0  0  0  0  0  0  0
    5.4231    1.3070   17.8075 C   0  0  0  0  0  0  0  0  0  0  0  0
    6.5652    0.6433   17.5723 N   0  0  0  0  0  0  0  0  0  0  0  0
    7.1249   -0.0028   18.5996 C   0  0  0  0  0  0  0  0  0  0  0  0
    8.0533   -0.5338   18.3888 H   0  0  0  0  0  0  0  0  0  0  0  0
    6.5788   -0.0307   19.9052 C   0  0  0  0  0  0  0  0  0  0  0  0
    7.2921   -0.7430   20.9358 C   0  0  0  0  0  0  0  0  0  0  0  0
    8.0999   -1.3834   21.5761 C   0  0  0  0  0  0  0  0  0  0  0  0
    8.6007   -2.2960   22.3701 O   0  0  0  0  0  0  0  0  0  0  0  0
    7.6816   -2.7962   23.3766 C   0  0  0  0  0  0  0  0  0  0  0  0
    7.1511   -3.6608   22.9566 H   0  0  0  0  0  0  0  0  0  0  0  0
    6.9574   -2.0188   23.6549 H   0  0  0  0  0  0  0  0  0  0  0  0
    8.5378   -3.2147   24.5615 C   0  0  0  0  0  0  0  0  0  0  0  0
    9.3092   -3.8823   24.1636 H   0  0  0  0  0  0  0  0  0  0  0  0
    7.9371   -3.8121   25.2574 H   0  0  0  0  0  0  0  0  0  0  0  0
    9.2005   -2.0585   25.2819 C   0  0  0  0  0  0  0  0  0  0  0  0
   10.2088   -1.3056   24.6511 C   0  0  0  0  0  0  0  0  0  0  0  0
   10.4656   -1.5026   23.6171 H   0  0  0  0  0  0  0  0  0  0  0  0
   10.9054   -0.3297   25.3660 C   0  0  0  0  0  0  0  0  0  0  0  0
   11.6894    0.2592   24.8978 H   0  0  0  0  0  0  0  0  0  0  0  0
   10.6030   -0.1154   26.7112 C   0  0  0  0  0  0  0  0  0  0  0  0
   11.2290    0.5398   27.2922 H   0  0  0  0  0  0  0  0  0  0  0  0
    9.5588   -0.7962   27.3318 C   0  0  0  0  0  0  0  0  0  0  0  0
    9.3405   -0.6062   28.3827 H   0  0  0  0  0  0  0  0  0  0  0  0
    8.8509   -1.7625   26.6110 C   0  0  0  0  0  0  0  0  0  0  0  0
    8.0436   -2.3097   27.0955 H   0  0  0  0  0  0  0  0  0  0  0  0
    5.3641    0.6425   20.1197 C   0  0  0  0  0  0  0  0  0  0  0  0
    4.8963    0.6129   21.1022 H   0  0  0  0  0  0  0  0  0  0  0  0
    4.7845    1.3300   19.0519 C   0  0  0  0  0  0  0  0  0  0  0  0
    3.8626    1.8872   19.1669 H   0  0  0  0  0  0  0  0  0  0  0  0
  1  2  1  0
  2  3  2  0
  3  4  1  0
  4  5  1  0
  4  6  2  0
  6  7  1  0
  7  8  3  0
  8  9  1  0
  9 10  1  0
 10 11  1  0
 10 12  1  0
 10 13  1  0
 13 14  1  0
 13 15  1  0
 13 16  1  0
 16 17  2  0
 17 18  1  0
 17 19  1  0
 19 20  1  0
 19 21  2  0
 21 22  1  0
 21 23  1  0
 23 24  1  0
 23 25  2  0
 25 26  1  0
  6 27  1  0
 27 28  1  0
 27 29  2  0
 29 30  1  0
 29  2  1  0
 25 16  1  0
M  END
>  <plip>  (1) 
-0.06666666666666667

>  <filename>  (1) 
[H][c]1[n][c]([H])[c]([C]#[C][O][C]([H])([H])[C]([H])([H])[c]2[c]([H])[c]([H])[c]([H])[c]([H])[c]2[H])[c]([H])[c]1[H]

$$$$
