
     RDKit          3D

 41 44  0  0  0  0  0  0  0  0999 V2000
    4.9296    1.8405   16.9129 H   0  0  0  0  0  0  0  0  0  0  0  0
    5.3948    1.3229   17.7470 C   0  0  0  0  0  0  0  0  0  0  0  0
    6.5460    0.6898   17.4718 N   0  0  0  0  0  0  0  0  0  0  0  0
    7.1605    0.0748   18.4829 C   0  0  0  0  0  0  0  0  0  0  0  0
    8.0954   -0.4365   18.2529 H   0  0  0  0  0  0  0  0  0  0  0  0
    6.6643    0.0644   19.7926 C   0  0  0  0  0  0  0  0  0  0  0  0
    7.5050   -0.5335   20.8193 C   0  0  0  0  0  0  0  0  0  0  0  0
    8.7377   -0.9187   20.7168 N   0  0  0  0  0  0  0  0  0  0  0  0
    9.1097   -1.3580   21.9758 N   0  0  0  0  0  0  0  0  0  0  0  0
    8.0782   -1.2365   22.7417 C   0  0  0  0  0  0  0  0  0  0  0  0
    7.8958   -1.7187   24.1667 C   0  0  0  0  0  0  0  0  0  0  0  0
    6.9937   -2.8464   24.4719 N   0  0  0  0  0  0  0  0  0  0  0  0
    6.0970   -2.7397   23.9984 H   0  0  0  0  0  0  0  0  0  0  0  0
    7.3877   -4.3115   23.7080 S   0  0  0  0  0  0  0  0  0  0  0  0
    8.7786   -4.6191   23.9551 O   0  0  0  0  0  0  0  0  0  0  0  0
    6.8504   -4.1461   22.3673 O   0  0  0  0  0  0  0  0  0  0  0  0
    6.3355   -5.4277   24.5673 C   0  0  0  0  0  0  0  0  0  0  0  0
    5.0581   -5.7052   24.0459 C   0  0  0  0  0  0  0  0  0  0  0  0
    4.7309   -5.3094   23.0868 H   0  0  0  0  0  0  0  0  0  0  0  0
    4.1800   -6.4668   24.8057 C   0  0  0  0  0  0  0  0  0  0  0  0
    3.1741   -6.6619   24.4456 H   0  0  0  0  0  0  0  0  0  0  0  0
    4.5433   -6.9600   26.0705 C   0  0  0  0  0  0  0  0  0  0  0  0
    3.5384   -7.7381   26.8862 C   0  0  0  0  0  0  0  0  0  0  0  0
    3.9128   -8.0231   27.8785 H   0  0  0  0  0  0  0  0  0  0  0  0
    2.6238   -7.1491   27.0236 H   0  0  0  0  0  0  0  0  0  0  0  0
    3.2418   -8.6497   26.3532 H   0  0  0  0  0  0  0  0  0  0  0  0
    5.8327   -6.6843   26.5493 C   0  0  0  0  0  0  0  0  0  0  0  0
    6.1303   -7.0407   27.5301 H   0  0  0  0  0  0  0  0  0  0  0  0
    6.7363   -5.9204   25.8113 C   0  0  0  0  0  0  0  0  0  0  0  0
    7.7134   -5.6837   26.2373 H   0  0  0  0  0  0  0  0  0  0  0  0
    9.0530   -1.6702   25.1119 C   0  0  0  0  0  0  0  0  0  0  0  0
   10.0097   -1.3383   24.7171 H   0  0  0  0  0  0  0  0  0  0  0  0
    9.0903   -2.5031   25.8077 H   0  0  0  0  0  0  0  0  0  0  0  0
    7.9244   -0.7038   25.2858 C   0  0  0  0  0  0  0  0  0  0  0  0
    8.0687    0.3432   25.0343 H   0  0  0  0  0  0  0  0  0  0  0  0
    7.2172   -0.8915   26.0894 H   0  0  0  0  0  0  0  0  0  0  0  0
    7.0186   -0.6971   22.0690 O   0  0  0  0  0  0  0  0  0  0  0  0
    5.4343    0.6825   20.0640 C   0  0  0  0  0  0  0  0  0  0  0  0
    5.0021    0.6568   21.0658 H   0  0  0  0  0  0  0  0  0  0  0  0
    4.7944    1.3334   19.0130 C   0  0  0  0  0  0  0  0  0  0  0  0
    3.8558    1.8578   19.1620 H   0  0  0  0  0  0  0  0  0  0  0  0
  1  2  1  0
  2  3  2  0
  3  4  1  0
  4  5  1  0
  4  6  2  0
  6  7  1  0
  7  8  2  0
  8  9  1  0
  9 10  2  0
 10 11  1  0
 11 12  1  0
 12 13  1  0
 12 14  1  0
 14 15  2  0
 14 16  2  0
 14 17  1  0
 17 18  2  0
 18 19  1  0
 18 20  1  0
 20 21  1  0
 20 22  2  0
 22 23  1  0
 23 24  1  0
 23 25  1  0
 23 26  1  0
 22 27  1  0
 27 28  1  0
 27 29  2  0
 29 30  1  0
 11 31  1  0
 31 32  1  0
 31 33  1  0
 31 34  1  0
 34 35  1  0
 34 36  1  0
 10 37  1  0
  6 38  1  0
 38 39  1  0
 38 40  2  0
 40 41  1  0
 40  2  1  0
 37  7  1  0
 34 11  1  0
 29 17  1  0
M  END
>  <plip>  (1) 
-0.10344827586206896

>  <filename>  (1) 
[H][c]1[n][c]([H])[c](-[c]2[n][n][c]([C]3([N]([H])[S](=[O])(=[O])[c]4[c]([H])[c]([H])[c]([C]([H])([H])[H])[c]([H])[c]4[H])[C]([H])([H])[C]3([H])[H])[o]2)[c]([H])[c]1[H]

$$$$
