
     RDKit          3D

 46 47  0  0  0  0  0  0  0  0999 V2000
    9.8455   -0.9813   20.9989 C   0  0  0  0  0  0  0  0  0  0  0  0
    8.6841   -0.1559   21.3442 N   0  0  0  0  0  0  0  0  0  0  0  0
    7.3351   -0.6570   21.0745 C   0  0  0  0  0  0  0  0  0  0  0  0
    6.6098    0.0533   19.9442 C   0  0  0  0  0  0  0  0  0  0  0  0
    5.3763    0.6906   20.1381 C   0  0  0  0  0  0  0  0  0  0  0  0
    4.7701    1.3302   19.0548 C   0  0  0  0  0  0  0  0  0  0  0  0
    5.4122    1.3096   17.8153 C   0  0  0  0  0  0  0  0  0  0  0  0
    6.5840    0.6931   17.5997 N   0  0  0  0  0  0  0  0  0  0  0  0
    7.1617    0.0945   18.6515 C   0  0  0  0  0  0  0  0  0  0  0  0
    8.1093   -0.4063   18.4401 H   0  0  0  0  0  0  0  0  0  0  0  0
    4.9615    1.8078   16.9591 H   0  0  0  0  0  0  0  0  0  0  0  0
    3.8281    1.8542   19.1679 H   0  0  0  0  0  0  0  0  0  0  0  0
    4.8954    0.6964   21.1201 H   0  0  0  0  0  0  0  0  0  0  0  0
    6.7286   -0.6278   21.9902 H   0  0  0  0  0  0  0  0  0  0  0  0
    7.4217   -1.7245   20.8286 H   0  0  0  0  0  0  0  0  0  0  0  0
    8.9513    1.1958   21.5609 C   0  0  0  0  0  0  0  0  0  0  0  0
   10.0537    1.6849   21.3434 O   0  0  0  0  0  0  0  0  0  0  0  0
    7.9136    1.9214   22.0627 N   0  0  0  0  0  0  0  0  0  0  0  0
    8.0484    3.3383   22.3639 C   0  0  0  0  0  0  0  0  0  0  0  0
    6.7658    3.9216   22.9510 C   0  0  0  0  0  0  0  0  0  0  0  0
    6.4764    3.5562   24.4152 C   0  0  0  0  0  0  0  0  0  0  0  0
    5.2029    4.2162   24.9687 C   0  0  0  0  0  0  0  0  0  0  0  0
    4.9704    3.9872   26.3735 N   0  0  0  0  0  0  0  0  0  0  0  0
    5.7341    4.4660   27.3877 C   0  0  0  0  0  0  0  0  0  0  0  0
    6.6973    5.4882   27.2919 C   0  0  0  0  0  0  0  0  0  0  0  0
    7.3495    5.8926   28.4549 C   0  0  0  0  0  0  0  0  0  0  0  0
    7.0324    5.2583   29.6557 C   0  0  0  0  0  0  0  0  0  0  0  0
    6.0739    4.2446   29.6313 C   0  0  0  0  0  0  0  0  0  0  0  0
    5.4335    3.8431   28.5355 N   0  0  0  0  0  0  0  0  0  0  0  0
    5.8009    3.7261   30.5467 H   0  0  0  0  0  0  0  0  0  0  0  0
    7.5055    5.5328   30.5895 H   0  0  0  0  0  0  0  0  0  0  0  0
    8.0952    6.6880   28.4273 H   0  0  0  0  0  0  0  0  0  0  0  0
    6.9183    5.9265   26.3317 H   0  0  0  0  0  0  0  0  0  0  0  0
    4.5332    3.1555   26.7475 H   0  0  0  0  0  0  0  0  0  0  0  0
    5.2407    5.3045   24.8153 H   0  0  0  0  0  0  0  0  0  0  0  0
    4.3156    3.8771   24.4150 H   0  0  0  0  0  0  0  0  0  0  0  0
    6.3930    2.4659   24.5357 H   0  0  0  0  0  0  0  0  0  0  0  0
    7.3279    3.8763   25.0326 H   0  0  0  0  0  0  0  0  0  0  0  0
    6.8554    5.0143   22.8722 H   0  0  0  0  0  0  0  0  0  0  0  0
    5.9180    3.6389   22.3070 H   0  0  0  0  0  0  0  0  0  0  0  0
    8.3069    3.8781   21.4451 H   0  0  0  0  0  0  0  0  0  0  0  0
    8.9036    3.4852   23.0400 H   0  0  0  0  0  0  0  0  0  0  0  0
    7.0548    1.4330   22.2082 H   0  0  0  0  0  0  0  0  0  0  0  0
    9.5431   -1.9967   20.7271 H   0  0  0  0  0  0  0  0  0  0  0  0
   10.5505   -1.0622   21.8344 H   0  0  0  0  0  0  0  0  0  0  0  0
   10.3854   -0.5435   20.1593 H   0  0  0  0  0  0  0  0  0  0  0  0
  1  2  1  0
  2  3  1  0
  3  4  1  0
  4  5  2  0
  5  6  1  0
  6  7  2  0
  7  8  1  0
  8  9  2  0
  9 10  1  0
  7 11  1  0
  6 12  1  0
  5 13  1  0
  3 14  1  0
  3 15  1  0
  2 16  1  0
 16 17  2  0
 16 18  1  0
 18 19  1  0
 19 20  1  0
 20 21  1  0
 21 22  1  0
 22 23  1  0
 23 24  1  0
 24 25  2  0
 25 26  1  0
 26 27  2  0
 27 28  1  0
 28 29  2  0
 28 30  1  0
 27 31  1  0
 26 32  1  0
 25 33  1  0
 23 34  1  0
 22 35  1  0
 22 36  1  0
 21 37  1  0
 21 38  1  0
 20 39  1  0
 20 40  1  0
 19 41  1  0
 19 42  1  0
 18 43  1  0
  1 44  1  0
  1 45  1  0
  1 46  1  0
  9  4  1  0
 29 24  1  0
M  END
>  <plip>  (1) 
-0.03571428571428571

>  <filename>  (1) 
[H][c]1[n][c]([N]([H])[C]([H])([H])[C]([H])([H])[C]([H])([H])[C]([H])([H])[N]([H])[C](=[O])[N]([C]([H])([H])[H])[C]([H])([H])[c]2[c]([H])[n][c]([H])[c]([H])[c]2[H])[c]([H])[c]([H])[c]1[H]

$$$$
