
     RDKit          3D

 25 26  0  0  0  0  0  0  0  0999 V2000
    7.1960    3.8398   25.9624 H   0  0  0  0  0  0  0  0  0  0  0  0
    7.4135    2.8921   25.9038 O   0  0  0  0  0  0  0  0  0  0  0  0
    7.2464    2.7902   24.5759 C   0  0  0  0  0  0  0  0  0  0  0  0
    6.9186    3.7836   23.9664 O   0  0  0  0  0  0  0  0  0  0  0  0
    7.4996    1.4537   24.0504 C   0  0  0  0  0  0  0  0  0  0  0  0
    7.7614    0.7188   24.8003 H   0  0  0  0  0  0  0  0  0  0  0  0
    7.4066    1.1413   22.7470 C   0  0  0  0  0  0  0  0  0  0  0  0
    7.0685    1.8833   22.0137 H   0  0  0  0  0  0  0  0  0  0  0  0
    7.7223   -0.1874   22.2462 C   0  0  0  0  0  0  0  0  0  0  0  0
    8.3159   -1.2767   22.8488 C   0  0  0  0  0  0  0  0  0  0  0  0
    8.7307   -1.3487   23.8425 H   0  0  0  0  0  0  0  0  0  0  0  0
    8.3088   -2.3719   22.0314 N   0  0  0  0  0  0  0  0  0  0  0  0
    7.7085   -1.9668   20.9417 C   0  0  0  0  0  0  0  0  0  0  0  0
    7.4027   -2.5818   20.1175 H   0  0  0  0  0  0  0  0  0  0  0  0
    7.3528   -0.6429   20.9798 N   0  0  0  0  0  0  0  0  0  0  0  0
    6.6715    0.0614   19.9369 C   0  0  0  0  0  0  0  0  0  0  0  0
    7.1904    0.0879   18.6250 C   0  0  0  0  0  0  0  0  0  0  0  0
    8.1378   -0.4004   18.3949 H   0  0  0  0  0  0  0  0  0  0  0  0
    6.5713    0.6777   17.5976 N   0  0  0  0  0  0  0  0  0  0  0  0
    5.4020    1.2921   17.8367 C   0  0  0  0  0  0  0  0  0  0  0  0
    4.9470    1.7955   16.9895 H   0  0  0  0  0  0  0  0  0  0  0  0
    4.7881    1.3118   19.0915 C   0  0  0  0  0  0  0  0  0  0  0  0
    3.8464    1.8356   19.2287 H   0  0  0  0  0  0  0  0  0  0  0  0
    5.4292    0.6786   20.1610 C   0  0  0  0  0  0  0  0  0  0  0  0
    4.9661    0.6382   21.1472 H   0  0  0  0  0  0  0  0  0  0  0  0
  1  2  1  0
  2  3  1  0
  3  4  2  0
  3  5  1  0
  5  6  1  0
  5  7  2  3
  7  8  1  0
  7  9  1  0
  9 10  2  0
 10 11  1  0
 10 12  1  0
 12 13  2  0
 13 14  1  0
 13 15  1  0
 15 16  1  0
 16 17  2  0
 17 18  1  0
 17 19  1  0
 19 20  2  0
 20 21  1  0
 20 22  1  0
 22 23  1  0
 22 24  2  0
 24 25  1  0
 15  9  1  0
 24 16  1  0
M  END
>  <plip>  (1) 
-0.0

>  <filename>  (1) 
[H][O][C](=[O])[C]([H])=[C]([H])[c]1[c]([H])[n][c]([H])[n]1-[c]1[c]([H])[n][c]([H])[c]([H])[c]1[H]

$$$$
