
     RDKit          3D

 40 41  0  0  0  0  0  0  0  0999 V2000
    9.6763   -0.9758   20.8703 C   0  0  0  0  0  0  0  0  0  0  0  0
    8.2553   -1.5600   20.9733 C   0  0  0  0  0  0  0  0  0  0  0  0
    8.2044   -2.6241   22.0740 C   0  0  0  0  0  0  0  0  0  0  0  0
    8.9360   -3.4151   21.8718 H   0  0  0  0  0  0  0  0  0  0  0  0
    8.4351   -2.1879   23.0515 H   0  0  0  0  0  0  0  0  0  0  0  0
    7.2110   -3.0885   22.1122 H   0  0  0  0  0  0  0  0  0  0  0  0
    7.1299   -0.4987   21.1623 C   0  0  0  0  0  0  0  0  0  0  0  0
    7.6314    0.5724   22.1641 C   0  0  0  0  0  0  0  0  0  0  0  0
    7.8782    0.2648   23.3146 O   0  0  0  0  0  0  0  0  0  0  0  0
    7.8924    1.8007   21.6402 N   0  0  0  0  0  0  0  0  0  0  0  0
    8.8143    2.7994   22.2017 C   0  0  0  0  0  0  0  0  0  0  0  0
   10.0410    2.2785   22.9289 C   0  0  0  0  0  0  0  0  0  0  0  0
   11.1880    2.0626   22.3484 N   0  0  0  0  0  0  0  0  0  0  0  0
   11.9956    1.4439   23.2702 C   0  0  0  0  0  0  0  0  0  0  0  0
   11.3301    1.2956   24.4477 C   0  0  0  0  0  0  0  0  0  0  0  0
   10.0642    1.8645   24.2434 N   0  0  0  0  0  0  0  0  0  0  0  0
    9.1675    2.4113   25.2250 C   0  0  0  0  0  0  0  0  0  0  0  0
    7.8847    2.3547   24.8466 F   0  0  0  0  0  0  0  0  0  0  0  0
    9.3023    1.7499   26.3814 F   0  0  0  0  0  0  0  0  0  0  0  0
    9.4393    3.7149   25.4524 F   0  0  0  0  0  0  0  0  0  0  0  0
   11.5925    0.7982   25.3742 H   0  0  0  0  0  0  0  0  0  0  0  0
   13.0048    1.1694   22.9958 H   0  0  0  0  0  0  0  0  0  0  0  0
    8.2597    3.5049   22.8284 H   0  0  0  0  0  0  0  0  0  0  0  0
    9.1926    3.3509   21.3490 H   0  0  0  0  0  0  0  0  0  0  0  0
    7.6623    1.8757   20.6650 H   0  0  0  0  0  0  0  0  0  0  0  0
    6.4840    0.0040   19.8643 C   0  0  0  0  0  0  0  0  0  0  0  0
    5.2587    0.6805   19.9876 C   0  0  0  0  0  0  0  0  0  0  0  0
    4.7289    1.3381   18.8780 C   0  0  0  0  0  0  0  0  0  0  0  0
    5.4146    1.2637   17.6628 C   0  0  0  0  0  0  0  0  0  0  0  0
    6.5545    0.5772   17.4971 N   0  0  0  0  0  0  0  0  0  0  0  0
    7.0579   -0.0463   18.5746 C   0  0  0  0  0  0  0  0  0  0  0  0
    7.9794   -0.6063   18.4044 H   0  0  0  0  0  0  0  0  0  0  0  0
    5.0406    1.7819   16.7843 H   0  0  0  0  0  0  0  0  0  0  0  0
    3.8144    1.9170   18.9461 H   0  0  0  0  0  0  0  0  0  0  0  0
    4.7552    0.7221   20.9547 H   0  0  0  0  0  0  0  0  0  0  0  0
    6.3176   -0.9634   21.7365 H   0  0  0  0  0  0  0  0  0  0  0  0
    7.9995   -2.0447   20.0357 H   0  0  0  0  0  0  0  0  0  0  0  0
   10.4201   -1.7813   20.8521 H   0  0  0  0  0  0  0  0  0  0  0  0
    9.8130   -0.3552   19.9771 H   0  0  0  0  0  0  0  0  0  0  0  0
    9.9007   -0.3447   21.7385 H   0  0  0  0  0  0  0  0  0  0  0  0
  1  2  1  0
  2  3  1  0
  3  4  1  0
  3  5  1  0
  3  6  1  0
  2  7  1  0
  7  8  1  0
  8  9  2  0
  8 10  1  0
 10 11  1  0
 11 12  1  0
 12 13  2  0
 13 14  1  0
 14 15  2  0
 15 16  1  0
 16 17  1  0
 17 18  1  0
 17 19  1  0
 17 20  1  0
 15 21  1  0
 14 22  1  0
 11 23  1  0
 11 24  1  0
 10 25  1  0
  7 26  1  0
 26 27  2  0
 27 28  1  0
 28 29  2  0
 29 30  1  0
 30 31  2  0
 31 32  1  0
 29 33  1  0
 28 34  1  0
 27 35  1  0
  7 36  1  0
  2 37  1  0
  1 38  1  0
  1 39  1  0
  1 40  1  0
 16 12  1  0
 31 26  1  0
M  END
>  <plip>  (1) 
-0.07142857142857142

>  <filename>  (1) 
[H][c]1[n][c]([H])[c]([C]([H])([C](=[O])[N]([H])[C]([H])([H])[c]2[n][c]([H])[c]([H])[n]2[C]([F])([F])[F])[C]([H])([C]([H])([H])[H])[C]([H])([H])[H])[c]([H])[c]1[H]

$$$$
