
     RDKit          3D

 46 49  0  0  0  0  0  0  0  0999 V2000
    5.3481    4.8714   25.9745 C   0  0  0  0  0  0  0  0  0  0  0  0
    5.8487    3.8502   25.0686 N   0  0  0  0  0  0  0  0  0  0  0  0
    5.1525    2.8980   24.3736 C   0  0  0  0  0  0  0  0  0  0  0  0
    5.8809    2.1473   23.5891 N   0  0  0  0  0  0  0  0  0  0  0  0
    7.1620    2.6530   23.7361 C   0  0  0  0  0  0  0  0  0  0  0  0
    8.3880    2.3102   23.1209 C   0  0  0  0  0  0  0  0  0  0  0  0
    8.4771    1.2360   22.0501 C   0  0  0  0  0  0  0  0  0  0  0  0
    9.3226    1.2623   21.1651 O   0  0  0  0  0  0  0  0  0  0  0  0
    7.5879    0.2051   22.1992 N   0  0  0  0  0  0  0  0  0  0  0  0
    7.3234   -0.6777   21.0820 C   0  0  0  0  0  0  0  0  0  0  0  0
    6.5955    0.0721   19.9746 C   0  0  0  0  0  0  0  0  0  0  0  0
    5.3789    0.7466   20.1689 C   0  0  0  0  0  0  0  0  0  0  0  0
    4.7733    1.3563   19.0670 C   0  0  0  0  0  0  0  0  0  0  0  0
    5.4148    1.2958   17.8241 C   0  0  0  0  0  0  0  0  0  0  0  0
    6.5880    0.6789   17.6217 N   0  0  0  0  0  0  0  0  0  0  0  0
    7.1515    0.0950   18.6899 C   0  0  0  0  0  0  0  0  0  0  0  0
    8.1086   -0.4047   18.5152 H   0  0  0  0  0  0  0  0  0  0  0  0
    4.9659    1.7639   16.9513 H   0  0  0  0  0  0  0  0  0  0  0  0
    3.8335    1.8916   19.1620 H   0  0  0  0  0  0  0  0  0  0  0  0
    4.9262    0.8156   21.1640 H   0  0  0  0  0  0  0  0  0  0  0  0
    6.5682   -1.9387   21.5593 C   0  0  0  0  0  0  0  0  0  0  0  0
    7.3649   -2.8445   22.5181 C   0  0  0  0  0  0  0  0  0  0  0  0
    6.8531   -4.2777   22.2860 C   0  0  0  0  0  0  0  0  0  0  0  0
    6.1828   -4.3026   20.8922 C   0  0  0  0  0  0  0  0  0  0  0  0
    6.1174   -2.8473   20.4039 C   0  0  0  0  0  0  0  0  0  0  0  0
    6.7523   -2.6733   19.5428 H   0  0  0  0  0  0  0  0  0  0  0  0
    5.1334   -2.5720   20.0256 H   0  0  0  0  0  0  0  0  0  0  0  0
    6.7503   -4.9196   20.1857 H   0  0  0  0  0  0  0  0  0  0  0  0
    5.1887   -4.7510   20.9571 H   0  0  0  0  0  0  0  0  0  0  0  0
    6.1406   -4.5722   23.0652 H   0  0  0  0  0  0  0  0  0  0  0  0
    7.6746   -4.9951   22.3429 H   0  0  0  0  0  0  0  0  0  0  0  0
    8.4358   -2.7811   22.2948 H   0  0  0  0  0  0  0  0  0  0  0  0
    7.2454   -2.5312   23.5626 H   0  0  0  0  0  0  0  0  0  0  0  0
    5.6766   -1.6002   22.0788 H   0  0  0  0  0  0  0  0  0  0  0  0
    8.2874   -1.0158   20.6795 H   0  0  0  0  0  0  0  0  0  0  0  0
    6.7659    0.4562   22.7396 H   0  0  0  0  0  0  0  0  0  0  0  0
    9.5092    3.0544   23.5456 C   0  0  0  0  0  0  0  0  0  0  0  0
    9.3712    4.0634   24.5215 C   0  0  0  0  0  0  0  0  0  0  0  0
    8.2108    4.4193   25.0994 N   0  0  0  0  0  0  0  0  0  0  0  0
    7.1626    3.7128   24.6777 C   0  0  0  0  0  0  0  0  0  0  0  0
   10.2531    4.6135   24.8379 H   0  0  0  0  0  0  0  0  0  0  0  0
   10.4842    2.8637   23.1108 H   0  0  0  0  0  0  0  0  0  0  0  0
    4.0808    2.8000   24.4893 H   0  0  0  0  0  0  0  0  0  0  0  0
    4.3958    4.5452   26.4029 H   0  0  0  0  0  0  0  0  0  0  0  0
    5.2028    5.8252   25.4523 H   0  0  0  0  0  0  0  0  0  0  0  0
    6.0705    5.0250   26.7830 H   0  0  0  0  0  0  0  0  0  0  0  0
  1  2  1  0
  2  3  1  0
  3  4  2  0
  4  5  1  0
  5  6  2  0
  6  7  1  0
  7  8  2  0
  7  9  1  0
  9 10  1  0
 10 11  1  0
 11 12  2  0
 12 13  1  0
 13 14  2  0
 14 15  1  0
 15 16  2  0
 16 17  1  0
 14 18  1  0
 13 19  1  0
 12 20  1  0
 10 21  1  0
 21 22  1  0
 22 23  1  0
 23 24  1  0
 24 25  1  0
 25 26  1  0
 25 27  1  0
 24 28  1  0
 24 29  1  0
 23 30  1  0
 23 31  1  0
 22 32  1  0
 22 33  1  0
 21 34  1  0
 10 35  1  0
  9 36  1  0
  6 37  1  0
 37 38  2  0
 38 39  1  0
 39 40  2  0
 38 41  1  0
 37 42  1  0
  3 43  1  0
  1 44  1  0
  1 45  1  0
  1 46  1  0
 40  2  1  0
 40  5  1  0
 16 11  1  0
 25 21  1  0
M  END
>  <plip>  (1) 
-0.14285714285714285

>  <filename>  (1) 
[H][c]1[n][c]([H])[c]([C]([H])([N]([H])[C](=[O])[c]2[c]([H])[c]([H])[n][c]3[c]2[n][c]([H])[n]3[C]([H])([H])[H])[C]2([H])[C]([H])([H])[C]([H])([H])[C]([H])([H])[C]2([H])[H])[c]([H])[c]1[H]

$$$$
