
     RDKit          3D

 31 32  0  0  0  0  0  0  0  0999 V2000
    4.9609    1.8063   16.9472 H   0  0  0  0  0  0  0  0  0  0  0  0
    5.4182    1.3113   17.8056 C   0  0  0  0  0  0  0  0  0  0  0  0
    6.5751    0.6684   17.5849 N   0  0  0  0  0  0  0  0  0  0  0  0
    7.1517    0.0492   18.6263 C   0  0  0  0  0  0  0  0  0  0  0  0
    8.0836   -0.4637   18.3908 H   0  0  0  0  0  0  0  0  0  0  0  0
    6.6353    0.0456   19.9404 C   0  0  0  0  0  0  0  0  0  0  0  0
    7.3138   -0.6652   21.0540 C   0  0  0  0  0  0  0  0  0  0  0  0
    7.5495   -2.0123   21.0024 C   0  0  0  0  0  0  0  0  0  0  0  0
    7.1858   -2.6910   20.2444 H   0  0  0  0  0  0  0  0  0  0  0  0
    8.4017   -2.5900   22.3733 S   0  0  0  0  0  0  0  0  0  0  0  0
    8.4166   -1.0234   23.0725 C   0  0  0  0  0  0  0  0  0  0  0  0
    8.8936   -0.8671   24.0322 H   0  0  0  0  0  0  0  0  0  0  0  0
    7.8027   -0.0858   22.2959 C   0  0  0  0  0  0  0  0  0  0  0  0
    7.6650    1.3446   22.7993 C   0  0  0  0  0  0  0  0  0  0  0  0
    6.9258    1.3780   23.6001 H   0  0  0  0  0  0  0  0  0  0  0  0
    7.2973    2.0062   22.0105 H   0  0  0  0  0  0  0  0  0  0  0  0
    8.9684    1.9283   23.3871 C   0  0  0  0  0  0  0  0  0  0  0  0
    9.1217    2.0996   24.5860 O   0  0  0  0  0  0  0  0  0  0  0  0
    9.9444    2.2517   22.4772 N   0  0  0  0  0  0  0  0  0  0  0  0
    9.7529    1.9895   21.0605 C   0  0  0  0  0  0  0  0  0  0  0  0
    9.4886    0.9419   20.8760 H   0  0  0  0  0  0  0  0  0  0  0  0
   10.6694    2.2124   20.5176 H   0  0  0  0  0  0  0  0  0  0  0  0
    8.9505    2.6103   20.6419 H   0  0  0  0  0  0  0  0  0  0  0  0
   11.1499    2.9380   22.9548 C   0  0  0  0  0  0  0  0  0  0  0  0
   11.7516    2.2963   23.6095 H   0  0  0  0  0  0  0  0  0  0  0  0
   11.7807    3.2286   22.1081 H   0  0  0  0  0  0  0  0  0  0  0  0
   10.8894    3.8467   23.5101 H   0  0  0  0  0  0  0  0  0  0  0  0
    5.4217    0.7178   20.1378 C   0  0  0  0  0  0  0  0  0  0  0  0
    4.9721    0.7128   21.1315 H   0  0  0  0  0  0  0  0  0  0  0  0
    4.8016    1.3494   19.0594 C   0  0  0  0  0  0  0  0  0  0  0  0
    3.8544    1.8598   19.1733 H   0  0  0  0  0  0  0  0  0  0  0  0
  1  2  1  0
  2  3  2  0
  3  4  1  0
  4  5  1  0
  4  6  2  0
  6  7  1  0
  7  8  2  0
  8  9  1  0
  8 10  1  0
 10 11  1  0
 11 12  1  0
 11 13  2  0
 13 14  1  0
 14 15  1  0
 14 16  1  0
 14 17  1  0
 17 18  2  0
 17 19  1  0
 19 20  1  0
 20 21  1  0
 20 22  1  0
 20 23  1  0
 19 24  1  0
 24 25  1  0
 24 26  1  0
 24 27  1  0
  6 28  1  0
 28 29  1  0
 28 30  2  0
 30 31  1  0
 30  2  1  0
 13  7  1  0
M  END
>  <plip>  (1) 
-0.03571428571428571

>  <filename>  (1) 
[H][c]1[n][c]([H])[c](-[c]2[c]([H])[s][c]([H])[c]2[C]([H])([H])[C](=[O])[N]([C]([H])([H])[H])[C]([H])([H])[H])[c]([H])[c]1[H]

$$$$
