
     RDKit          3D

 30 31  0  0  0  0  0  0  0  0999 V2000
    4.9097    1.8141   16.9222 H   0  0  0  0  0  0  0  0  0  0  0  0
    5.3934    1.3419   17.7755 C   0  0  0  0  0  0  0  0  0  0  0  0
    6.5668    0.7411   17.5345 N   0  0  0  0  0  0  0  0  0  0  0  0
    7.1797    0.1502   18.5703 C   0  0  0  0  0  0  0  0  0  0  0  0
    8.1309   -0.3323   18.3380 H   0  0  0  0  0  0  0  0  0  0  0  0
    6.6698    0.1082   19.8840 C   0  0  0  0  0  0  0  0  0  0  0  0
    7.3271   -0.6767   21.0049 C   0  0  0  0  0  0  0  0  0  0  0  0
    8.3553   -0.9718   20.7574 H   0  0  0  0  0  0  0  0  0  0  0  0
    7.3889   -0.0550   21.9077 H   0  0  0  0  0  0  0  0  0  0  0  0
    6.5528   -1.9538   21.3960 C   0  0  2  0  0  0  0  0  0  0  0  0
    5.5308   -1.6661   21.7021 H   0  0  0  0  0  0  0  0  0  0  0  0
    7.2452   -2.5220   22.4777 O   0  0  0  0  0  0  0  0  0  0  0  0
    6.4813   -3.3859   23.3121 C   0  0  0  0  0  0  0  0  0  0  0  0
    5.5746   -2.8764   23.6871 H   0  0  0  0  0  0  0  0  0  0  0  0
    7.1139   -3.5731   24.1911 H   0  0  0  0  0  0  0  0  0  0  0  0
    6.0865   -4.7022   22.6738 C   0  0  0  0  0  0  0  0  0  0  0  0
    5.4660   -4.5922   21.7880 H   0  0  0  0  0  0  0  0  0  0  0  0
    7.0288   -5.8733   22.6983 C   0  0  0  0  0  0  0  0  0  0  0  0
    7.0247   -6.5453   21.8412 H   0  0  0  0  0  0  0  0  0  0  0  0
    8.0031   -5.7385   23.1650 H   0  0  0  0  0  0  0  0  0  0  0  0
    5.8017   -5.8676   23.5726 C   0  0  0  0  0  0  0  0  0  0  0  0
    5.9393   -5.7249   24.6438 H   0  0  0  0  0  0  0  0  0  0  0  0
    4.9800   -6.5306   23.3088 H   0  0  0  0  0  0  0  0  0  0  0  0
    6.4724   -2.9671   20.3662 N   0  0  0  0  0  0  0  0  0  0  0  0
    7.3715   -3.4404   20.3861 H   0  0  0  0  0  0  0  0  0  0  0  0
    6.3967   -2.5091   19.4638 H   0  0  0  0  0  0  0  0  0  0  0  0
    5.4365    0.7433   20.1053 C   0  0  0  0  0  0  0  0  0  0  0  0
    4.9903    0.7426   21.1033 H   0  0  0  0  0  0  0  0  0  0  0  0
    4.7908    1.3676   19.0388 C   0  0  0  0  0  0  0  0  0  0  0  0
    3.8356    1.8656   19.1665 H   0  0  0  0  0  0  0  0  0  0  0  0
  1  2  1  0
  2  3  2  0
  3  4  1  0
  4  5  1  0
  4  6  2  0
  6  7  1  0
  7  8  1  0
  7  9  1  0
  7 10  1  0
 10 11  1  1
 10 12  1  0
 12 13  1  0
 13 14  1  0
 13 15  1  0
 13 16  1  0
 16 17  1  0
 16 18  1  0
 18 19  1  0
 18 20  1  0
 18 21  1  0
 21 22  1  0
 21 23  1  0
 10 24  1  0
 24 25  1  0
 24 26  1  0
  6 27  1  0
 27 28  1  0
 27 29  2  0
 29 30  1  0
 29  2  1  0
 21 16  1  0
M  END
>  <plip>  (1) 
-0.10714285714285714

>  <filename>  (1) 
[H][c]1[n][c]([H])[c]([C]([H])([H])[C@]([H])([O][C]([H])([H])[C]2([H])[C]([H])([H])[C]2([H])[H])[N]([H])[H])[c]([H])[c]1[H]

$$$$
