
     RDKit          3D

 35 38  0  0  0  0  0  0  0  0999 V2000
    4.9395    1.8489   16.9389 H   0  0  0  0  0  0  0  0  0  0  0  0
    5.3999    1.3215   17.7734 C   0  0  0  0  0  0  0  0  0  0  0  0
    6.5664    0.7047   17.5193 N   0  0  0  0  0  0  0  0  0  0  0  0
    7.1637    0.0670   18.5354 C   0  0  0  0  0  0  0  0  0  0  0  0
    8.1268   -0.3884   18.2929 H   0  0  0  0  0  0  0  0  0  0  0  0
    6.6415   -0.0113   19.8465 C   0  0  0  0  0  0  0  0  0  0  0  0
    7.3743   -0.6794   21.0168 C   0  0  2  0  0  0  0  0  0  0  0  0
    8.1912   -1.2827   20.5993 H   0  0  0  0  0  0  0  0  0  0  0  0
    6.5278   -1.6763   21.8308 C   0  0  0  0  0  0  0  0  0  0  0  0
    5.8230   -2.5788   21.4285 O   0  0  0  0  0  0  0  0  0  0  0  0
    6.7111   -1.4149   23.1539 N   0  0  0  0  0  0  0  0  0  0  0  0
    6.0088   -1.8436   23.7405 H   0  0  0  0  0  0  0  0  0  0  0  0
    7.4867   -0.2319   23.4721 C   0  0  0  0  0  0  0  0  0  0  0  0
    8.3599   -0.4891   24.0933 H   0  0  0  0  0  0  0  0  0  0  0  0
    6.8960    0.4977   24.0452 H   0  0  0  0  0  0  0  0  0  0  0  0
    7.9181    0.3396   22.0833 C   0  0  1  0  0  0  0  0  0  0  0  0
    7.4083    1.3013   21.9358 H   0  0  0  0  0  0  0  0  0  0  0  0
    9.4042    0.6056   21.9691 C   0  0  0  0  0  0  0  0  0  0  0  0
    9.9879    1.7986   21.6962 C   0  0  0  0  0  0  0  0  0  0  0  0
    9.5130    2.7464   21.4747 H   0  0  0  0  0  0  0  0  0  0  0  0
   11.7199    1.7543   21.6289 S   0  0  0  0  0  0  0  0  0  0  0  0
   11.7139    0.0366   21.9122 C   0  0  0  0  0  0  0  0  0  0  0  0
   12.8229   -0.8344   21.9428 C   0  0  0  0  0  0  0  0  0  0  0  0
   13.8311   -0.4767   21.7545 H   0  0  0  0  0  0  0  0  0  0  0  0
   12.6096   -2.1746   22.2182 C   0  0  0  0  0  0  0  0  0  0  0  0
   13.4596   -2.8535   22.1904 H   0  0  0  0  0  0  0  0  0  0  0  0
   11.3218   -2.6395   22.5682 C   0  0  0  0  0  0  0  0  0  0  0  0
   11.1758   -3.6561   22.9153 H   0  0  0  0  0  0  0  0  0  0  0  0
   10.2268   -1.7986   22.4969 C   0  0  0  0  0  0  0  0  0  0  0  0
    9.2350   -2.1752   22.7448 H   0  0  0  0  0  0  0  0  0  0  0  0
   10.4016   -0.4436   22.1182 C   0  0  0  0  0  0  0  0  0  0  0  0
    5.4205    0.6376   20.0774 C   0  0  0  0  0  0  0  0  0  0  0  0
    4.9924    0.6404   21.0805 H   0  0  0  0  0  0  0  0  0  0  0  0
    4.7896    1.3118   19.0290 C   0  0  0  0  0  0  0  0  0  0  0  0
    3.8612    1.8518   19.1784 H   0  0  0  0  0  0  0  0  0  0  0  0
  1  2  1  0
  2  3  2  0
  3  4  1  0
  4  5  1  0
  4  6  2  0
  6  7  1  0
  7  8  1  6
  7  9  1  0
  9 10  2  0
  9 11  1  0
 11 12  1  0
 11 13  1  0
 13 14  1  0
 13 15  1  0
 13 16  1  0
 16 17  1  6
 16 18  1  0
 18 19  2  0
 19 20  1  0
 19 21  1  0
 21 22  1  0
 22 23  2  0
 23 24  1  0
 23 25  1  0
 25 26  1  0
 25 27  2  0
 27 28  1  0
 27 29  1  0
 29 30  1  0
 29 31  2  0
  6 32  1  0
 32 33  1  0
 32 34  2  0
 34 35  1  0
 34  2  1  0
 16  7  1  0
 31 18  1  0
 31 22  1  0
M  END
>  <plip>  (1) 
-0.10714285714285714

>  <filename>  (1) 
[H][c]1[n][c]([H])[c]([C@]2([H])[C](=[O])[N]([H])[C]([H])([H])[C@@]2([H])[c]2[c]([H])[s][c]3[c]([H])[c]([H])[c]([H])[c]([H])[c]23)[c]([H])[c]1[H]

$$$$
