
     RDKit          3D

 43 44  0  0  0  0  0  0  0  0999 V2000
    9.9932   -3.0980   24.8495 C   0  0  0  0  0  0  0  0  0  0  0  0
   10.3148   -2.4550   23.6374 O   0  0  0  0  0  0  0  0  0  0  0  0
    9.2895   -1.6012   23.1853 C   0  0  0  0  0  0  0  0  0  0  0  0
    9.7159   -0.9147   21.8801 C   0  0  0  0  0  0  0  0  0  0  0  0
    8.7007   -0.0090   21.2664 N   0  0  0  0  0  0  0  0  0  0  0  0
    7.3976   -0.6563   20.9827 C   0  0  0  0  0  0  0  0  0  0  0  0
    6.6239    0.0735   19.9283 C   0  0  0  0  0  0  0  0  0  0  0  0
    5.3741    0.6742   20.1245 C   0  0  0  0  0  0  0  0  0  0  0  0
    4.7688    1.3056   19.0346 C   0  0  0  0  0  0  0  0  0  0  0  0
    5.4239    1.3075   17.7983 C   0  0  0  0  0  0  0  0  0  0  0  0
    6.6147    0.7261   17.5936 N   0  0  0  0  0  0  0  0  0  0  0  0
    7.1943    0.1467   18.6525 C   0  0  0  0  0  0  0  0  0  0  0  0
    8.1662   -0.3137   18.4815 H   0  0  0  0  0  0  0  0  0  0  0  0
    4.9730    1.7920   16.9336 H   0  0  0  0  0  0  0  0  0  0  0  0
    3.8177    1.8139   19.1304 H   0  0  0  0  0  0  0  0  0  0  0  0
    4.8943    0.6861   21.1076 H   0  0  0  0  0  0  0  0  0  0  0  0
    6.8078   -0.7824   21.9023 H   0  0  0  0  0  0  0  0  0  0  0  0
    7.6179   -1.6645   20.6019 H   0  0  0  0  0  0  0  0  0  0  0  0
    8.3771    1.4542   22.1185 S   0  0  0  0  0  0  0  0  0  0  0  0
    7.6314    1.1296   23.3293 O   0  0  0  0  0  0  0  0  0  0  0  0
    7.8346    2.4052   21.1722 O   0  0  0  0  0  0  0  0  0  0  0  0
    9.9972    2.0071   22.5812 C   0  0  0  0  0  0  0  0  0  0  0  0
   10.7926    2.5014   21.6348 C   0  0  0  0  0  0  0  0  0  0  0  0
   12.1159    3.1376   21.9520 C   0  0  0  0  0  0  0  0  0  0  0  0
   12.6982    2.7062   23.3060 C   0  0  0  0  0  0  0  0  0  0  0  0
   11.6185    2.7480   24.3946 C   0  0  0  0  0  0  0  0  0  0  0  0
   10.3653    1.9210   24.0478 C   0  0  0  0  0  0  0  0  0  0  0  0
    9.5111    2.2504   24.6523 H   0  0  0  0  0  0  0  0  0  0  0  0
   10.5279    0.8617   24.3097 H   0  0  0  0  0  0  0  0  0  0  0  0
   11.3199    3.7912   24.5623 H   0  0  0  0  0  0  0  0  0  0  0  0
   12.0195    2.3689   25.3347 H   0  0  0  0  0  0  0  0  0  0  0  0
   13.5424    3.3552   23.5711 H   0  0  0  0  0  0  0  0  0  0  0  0
   13.1110    1.6914   23.2225 H   0  0  0  0  0  0  0  0  0  0  0  0
   11.9886    4.2284   21.9069 H   0  0  0  0  0  0  0  0  0  0  0  0
   12.7975    2.9138   21.1356 H   0  0  0  0  0  0  0  0  0  0  0  0
   10.4877    2.5415   20.5905 H   0  0  0  0  0  0  0  0  0  0  0  0
   10.6641   -0.3783   22.0186 H   0  0  0  0  0  0  0  0  0  0  0  0
    9.9422   -1.6876   21.1362 H   0  0  0  0  0  0  0  0  0  0  0  0
    9.0525   -0.8219   23.9247 H   0  0  0  0  0  0  0  0  0  0  0  0
    8.3559   -2.1636   23.0053 H   0  0  0  0  0  0  0  0  0  0  0  0
    9.7194   -2.3778   25.6370 H   0  0  0  0  0  0  0  0  0  0  0  0
    9.1474   -3.7921   24.7386 H   0  0  0  0  0  0  0  0  0  0  0  0
   10.8730   -3.6618   25.1703 H   0  0  0  0  0  0  0  0  0  0  0  0
  1  2  1  0
  2  3  1  0
  3  4  1  0
  4  5  1  0
  5  6  1  0
  6  7  1  0
  7  8  2  0
  8  9  1  0
  9 10  2  0
 10 11  1  0
 11 12  2  0
 12 13  1  0
 10 14  1  0
  9 15  1  0
  8 16  1  0
  6 17  1  0
  6 18  1  0
  5 19  1  0
 19 20  2  0
 19 21  2  0
 19 22  1  0
 22 23  2  0
 23 24  1  0
 24 25  1  0
 25 26  1  0
 26 27  1  0
 27 28  1  0
 27 29  1  0
 26 30  1  0
 26 31  1  0
 25 32  1  0
 25 33  1  0
 24 34  1  0
 24 35  1  0
 23 36  1  0
  4 37  1  0
  4 38  1  0
  3 39  1  0
  3 40  1  0
  1 41  1  0
  1 42  1  0
  1 43  1  0
 12  7  1  0
 27 22  1  0
M  END
>  <plip>  (1) 
-0.07142857142857142

>  <filename>  (1) 
[H][C]1=[C]([S](=[O])(=[O])[N]([C]([H])([H])[c]2[c]([H])[n][c]([H])[c]([H])[c]2[H])[C]([H])([H])[C]([H])([H])[O][C]([H])([H])[H])[C]([H])([H])[C]([H])([H])[C]([H])([H])[C]1([H])[H]

$$$$
