
     RDKit          3D

 42 44  0  0  0  0  0  0  0  0999 V2000
    8.6452    1.0171   21.3717 H   0  0  0  0  0  0  0  0  0  0  0  0
    8.0665    0.2041   21.7561 C   0  0  0  0  0  0  0  0  0  0  0  0
    7.7442    0.1556   23.0618 C   0  0  0  0  0  0  0  0  0  0  0  0
    8.0270    1.1063   24.0231 N   0  0  0  0  0  0  0  0  0  0  0  0
    7.2888    1.2983   24.6823 H   0  0  0  0  0  0  0  0  0  0  0  0
    9.0111    2.0567   23.8553 C   0  0  0  0  0  0  0  0  0  0  0  0
    9.8758    1.9651   23.0046 O   0  0  0  0  0  0  0  0  0  0  0  0
    8.9865    3.2680   24.7954 C   0  0  0  0  0  0  0  0  0  0  0  0
   10.0567    3.4918   24.8839 H   0  0  0  0  0  0  0  0  0  0  0  0
    8.3434    4.5001   24.0943 C   0  0  0  0  0  0  0  0  0  0  0  0
    7.3131    4.2550   23.7987 H   0  0  0  0  0  0  0  0  0  0  0  0
    8.8808    4.7516   23.1735 H   0  0  0  0  0  0  0  0  0  0  0  0
    8.2892    5.6947   25.0607 C   0  0  0  0  0  0  0  0  0  0  0  0
    7.9570    6.5929   24.5314 H   0  0  0  0  0  0  0  0  0  0  0  0
    9.3002    5.9334   25.4200 H   0  0  0  0  0  0  0  0  0  0  0  0
    7.3517    5.4036   26.2649 C   0  0  0  0  0  0  0  0  0  0  0  0
    6.3897    5.9073   26.1172 H   0  0  0  0  0  0  0  0  0  0  0  0
    7.7646    5.8492   27.1805 H   0  0  0  0  0  0  0  0  0  0  0  0
    7.1111    3.8856   26.4791 C   0  0  0  0  0  0  0  0  0  0  0  0
    6.7689    3.7024   27.5016 H   0  0  0  0  0  0  0  0  0  0  0  0
    6.3018    3.5375   25.8197 H   0  0  0  0  0  0  0  0  0  0  0  0
    8.4001    3.0781   26.2277 C   0  0  0  0  0  0  0  0  0  0  0  0
    9.1357    3.4889   26.9263 H   0  0  0  0  0  0  0  0  0  0  0  0
    8.2847    2.0163   26.4962 H   0  0  0  0  0  0  0  0  0  0  0  0
    7.0319   -0.8977   23.5680 N   0  0  0  0  0  0  0  0  0  0  0  0
    7.0110   -1.0912   24.5521 H   0  0  0  0  0  0  0  0  0  0  0  0
    6.7030   -1.9900   22.8259 C   0  0  0  0  0  0  0  0  0  0  0  0
    6.1757   -3.3787   23.5521 S   0  0  0  0  0  0  0  0  0  0  0  0
    6.8289   -1.8691   21.4934 N   0  0  0  0  0  0  0  0  0  0  0  0
    6.6480   -2.7332   21.0203 H   0  0  0  0  0  0  0  0  0  0  0  0
    7.5555   -0.8049   20.8016 C   0  0  1  0  0  0  0  0  0  0  0  0
    8.4036   -1.2785   20.2663 H   0  0  0  0  0  0  0  0  0  0  0  0
    6.6827   -0.1596   19.7084 C   0  0  0  0  0  0  0  0  0  0  0  0
    7.1672   -0.0688   18.3989 C   0  0  0  0  0  0  0  0  0  0  0  0
    8.0975   -0.5669   18.1274 H   0  0  0  0  0  0  0  0  0  0  0  0
    6.5662    0.6021   17.4058 N   0  0  0  0  0  0  0  0  0  0  0  0
    5.4200    1.2294   17.7055 C   0  0  0  0  0  0  0  0  0  0  0  0
    4.9566    1.7908   16.8949 H   0  0  0  0  0  0  0  0  0  0  0  0
    4.8234    1.1798   18.9724 C   0  0  0  0  0  0  0  0  0  0  0  0
    3.8990    1.7215   19.1484 H   0  0  0  0  0  0  0  0  0  0  0  0
    5.4574    0.4618   19.9904 C   0  0  0  0  0  0  0  0  0  0  0  0
    5.0196    0.3943   20.9885 H   0  0  0  0  0  0  0  0  0  0  0  0
  1  2  1  0
  2  3  2  0
  3  4  1  0
  4  5  1  0
  4  6  1  0
  6  7  2  0
  6  8  1  0
  8  9  1  0
  8 10  1  0
 10 11  1  0
 10 12  1  0
 10 13  1  0
 13 14  1  0
 13 15  1  0
 13 16  1  0
 16 17  1  0
 16 18  1  0
 16 19  1  0
 19 20  1  0
 19 21  1  0
 19 22  1  0
 22 23  1  0
 22 24  1  0
  3 25  1  0
 25 26  1  0
 25 27  1  0
 27 28  2  0
 27 29  1  0
 29 30  1  0
 29 31  1  0
 31 32  1  6
 31 33  1  0
 33 34  2  0
 34 35  1  0
 34 36  1  0
 36 37  2  0
 37 38  1  0
 37 39  1  0
 39 40  1  0
 39 41  2  0
 41 42  1  0
 31  2  1  0
 41 33  1  0
 22  8  1  0
M  END
>  <plip>  (1) 
-0.07142857142857142

>  <filename>  (1) 
[H][C]1=[C]([N]([H])[C](=[O])[C]2([H])[C]([H])([H])[C]([H])([H])[C]([H])([H])[C]([H])([H])[C]2([H])[H])[N]([H])[C](=[S])[N]([H])[C@@]1([H])[c]1[c]([H])[n][c]([H])[c]([H])[c]1[H]

$$$$
