
     RDKit          3D

 29 31  0  0  0  0  0  0  0  0999 V2000
    5.8743   -2.2130   21.5309 O   0  0  0  0  0  0  0  0  0  0  0  0
    6.8722   -1.5609   21.7907 C   0  0  0  0  0  0  0  0  0  0  0  0
    7.4410   -0.6834   20.8885 N   0  0  0  0  0  0  0  0  0  0  0  0
    6.7168   -0.0481   19.8281 C   0  0  0  0  0  0  0  0  0  0  0  0
    5.4997    0.5887   20.0952 C   0  0  0  0  0  0  0  0  0  0  0  0
    4.8581    1.2825   19.0597 C   0  0  0  0  0  0  0  0  0  0  0  0
    5.4464    1.3070   17.7900 C   0  0  0  0  0  0  0  0  0  0  0  0
    6.6092    0.6979   17.5122 N   0  0  0  0  0  0  0  0  0  0  0  0
    7.2256    0.0477   18.5119 C   0  0  0  0  0  0  0  0  0  0  0  0
    8.1768   -0.4174   18.2701 H   0  0  0  0  0  0  0  0  0  0  0  0
    4.9627    1.8289   16.9653 H   0  0  0  0  0  0  0  0  0  0  0  0
    3.9249    1.8058   19.2282 H   0  0  0  0  0  0  0  0  0  0  0  0
    5.0910    0.5432   21.1062 H   0  0  0  0  0  0  0  0  0  0  0  0
    8.1661   -0.1316   21.3304 H   0  0  0  0  0  0  0  0  0  0  0  0
    7.5981   -1.7644   23.1113 C   0  0  0  0  0  0  0  0  0  0  0  0
    8.5686   -0.8398   23.6417 C   0  0  0  0  0  0  0  0  0  0  0  0
    8.8684    0.3426   22.9923 N   0  0  0  0  0  0  0  0  0  0  0  0
    9.7085    1.1709   23.5903 C   0  0  0  0  0  0  0  0  0  0  0  0
   10.3810    0.8289   24.8126 C   0  0  0  0  0  0  0  0  0  0  0  0
   10.1738   -0.3053   25.4477 N   0  0  0  0  0  0  0  0  0  0  0  0
    9.2417   -1.1515   24.8908 C   0  0  0  0  0  0  0  0  0  0  0  0
    8.9429   -2.3440   25.5801 C   0  0  0  0  0  0  0  0  0  0  0  0
    7.9777   -3.1717   25.0682 C   0  0  0  0  0  0  0  0  0  0  0  0
    7.6760   -4.3002   25.7251 F   0  0  0  0  0  0  0  0  0  0  0  0
    7.2850   -2.8915   23.8724 C   0  0  0  0  0  0  0  0  0  0  0  0
    6.5010   -3.5840   23.5757 H   0  0  0  0  0  0  0  0  0  0  0  0
    9.4711   -2.5526   26.5025 H   0  0  0  0  0  0  0  0  0  0  0  0
   11.1053    1.5183   25.2453 H   0  0  0  0  0  0  0  0  0  0  0  0
    9.9002    2.1403   23.1361 H   0  0  0  0  0  0  0  0  0  0  0  0
  1  2  2  0
  2  3  1  0
  3  4  1  0
  4  5  2  0
  5  6  1  0
  6  7  2  0
  7  8  1  0
  8  9  2  0
  9 10  1  0
  7 11  1  0
  6 12  1  0
  5 13  1  0
  3 14  1  0
  2 15  1  0
 15 16  1  0
 16 17  2  0
 17 18  1  0
 18 19  2  0
 19 20  1  0
 20 21  2  0
 21 22  1  0
 22 23  2  0
 23 24  1  0
 23 25  1  0
 25 26  1  0
 22 27  1  0
 19 28  1  0
 18 29  1  0
  9  4  1  0
 25 15  2  0
 21 16  1  0
M  END
>  <plip>  (1) 
-0.07142857142857142

>  <filename>  (1) 
[H][c]1[n][c]2[c]([H])[c]([F])[c]([H])[c]([C](=[O])[N]([H])[c]3[c]([H])[n][c]([H])[c]([H])[c]3[H])[c]2[n][c]1[H]

$$$$
