
     RDKit          3D

 34 35  0  0  0  0  0  0  0  0999 V2000
    4.9693    1.7623   17.0189 H   0  0  0  0  0  0  0  0  0  0  0  0
    5.4325    1.2714   17.8734 C   0  0  0  0  0  0  0  0  0  0  0  0
    6.5918    0.6450   17.6357 N   0  0  0  0  0  0  0  0  0  0  0  0
    7.1893    0.0264   18.6504 C   0  0  0  0  0  0  0  0  0  0  0  0
    8.1309   -0.4700   18.4106 H   0  0  0  0  0  0  0  0  0  0  0  0
    6.6426    0.0258   19.9268 C   0  0  0  0  0  0  0  0  0  0  0  0
    7.4945   -0.8569   21.1617 S   0  0  0  0  0  0  0  0  0  0  0  0
    8.3885   -1.7842   20.4753 O   0  0  0  0  0  0  0  0  0  0  0  0
    6.4792   -1.3562   22.0790 O   0  0  0  0  0  0  0  0  0  0  0  0
    8.5877    0.3840   22.0662 C   0  0  0  0  0  0  0  0  0  0  0  0
    7.7018    1.5727   22.4810 C   0  0  0  0  0  0  0  0  0  0  0  0
    7.8328    2.8444   21.8984 C   0  0  0  0  0  0  0  0  0  0  0  0
    8.5944    3.0125   21.1439 H   0  0  0  0  0  0  0  0  0  0  0  0
    7.0160    3.9131   22.2898 C   0  0  0  0  0  0  0  0  0  0  0  0
    7.1449    4.8839   21.8176 H   0  0  0  0  0  0  0  0  0  0  0  0
    6.0415    3.7360   23.2733 C   0  0  0  0  0  0  0  0  0  0  0  0
    5.4018    4.5637   23.5731 H   0  0  0  0  0  0  0  0  0  0  0  0
    5.8886    2.4671   23.8629 C   0  0  0  0  0  0  0  0  0  0  0  0
    4.8777    2.2596   24.8724 C   0  0  0  0  0  0  0  0  0  0  0  0
    4.0470    2.1092   25.6673 N   0  0  0  0  0  0  0  0  0  0  0  0
    6.7089    1.3993   23.4595 C   0  0  0  0  0  0  0  0  0  0  0  0
    6.5623    0.4178   23.8980 H   0  0  0  0  0  0  0  0  0  0  0  0
    9.7449    0.7623   21.1254 C   0  0  0  0  0  0  0  0  0  0  0  0
   10.3770    1.5223   21.5961 H   0  0  0  0  0  0  0  0  0  0  0  0
    9.3590    1.1545   20.1852 H   0  0  0  0  0  0  0  0  0  0  0  0
   10.3584   -0.1137   20.8984 H   0  0  0  0  0  0  0  0  0  0  0  0
    9.1861   -0.3409   23.2984 C   0  0  0  0  0  0  0  0  0  0  0  0
    9.7723    0.3757   23.8856 H   0  0  0  0  0  0  0  0  0  0  0  0
    8.4188   -0.7683   23.9515 H   0  0  0  0  0  0  0  0  0  0  0  0
    9.8555   -1.1490   22.9805 H   0  0  0  0  0  0  0  0  0  0  0  0
    5.4277    0.6535   20.1934 C   0  0  0  0  0  0  0  0  0  0  0  0
    4.9802    0.6417   21.1911 H   0  0  0  0  0  0  0  0  0  0  0  0
    4.8195    1.3029   19.1293 C   0  0  0  0  0  0  0  0  0  0  0  0
    3.8866    1.8350   19.2546 H   0  0  0  0  0  0  0  0  0  0  0  0
  1  2  1  0
  2  3  2  0
  3  4  1  0
  4  5  1  0
  4  6  2  0
  6  7  1  0
  7  8  2  0
  7  9  2  0
  7 10  1  0
 10 11  1  0
 11 12  2  0
 12 13  1  0
 12 14  1  0
 14 15  1  0
 14 16  2  0
 16 17  1  0
 16 18  1  0
 18 19  1  0
 19 20  3  0
 18 21  2  0
 21 22  1  0
 10 23  1  0
 23 24  1  0
 23 25  1  0
 23 26  1  0
 10 27  1  0
 27 28  1  0
 27 29  1  0
 27 30  1  0
  6 31  1  0
 31 32  1  0
 31 33  2  0
 33 34  1  0
 33  2  1  0
 21 11  1  0
M  END
>  <plip>  (1) 
-0.07142857142857142

>  <filename>  (1) 
[H][c]1[n][c]([H])[c]([S](=[O])(=[O])[C]([c]2[c]([H])[c]([H])[c]([H])[c]([C]#[N])[c]2[H])([C]([H])([H])[H])[C]([H])([H])[H])[c]([H])[c]1[H]

$$$$
