
     RDKit          3D

 28 29  0  0  0  0  0  0  0  0999 V2000
    6.9210   -2.3345   20.8360 O   0  0  0  0  0  0  0  0  0  0  0  0
    7.1198   -0.9122   21.1081 S   0  0  0  0  0  0  0  0  0  0  0  0
    6.8157   -0.5161   22.4798 O   0  0  0  0  0  0  0  0  0  0  0  0
    8.7283   -0.6364   20.8254 N   0  0  0  0  0  0  0  0  0  0  0  0
    9.0835    0.5549   21.3350 C   0  0  0  0  0  0  0  0  0  0  0  0
    8.1393    1.4670   21.4807 N   0  0  0  0  0  0  0  0  0  0  0  0
    8.4945    2.6334   22.0224 C   0  0  0  0  0  0  0  0  0  0  0  0
    9.8018    2.9256   22.4279 C   0  0  0  0  0  0  0  0  0  0  0  0
   10.1396    4.6210   23.2379 Br  0  0  0  0  0  0  0  0  0  0  0  0
   10.8338    1.9901   22.2555 C   0  0  0  0  0  0  0  0  0  0  0  0
   12.2834    2.3683   22.6378 C   0  0  0  0  0  0  0  0  0  0  0  0
   13.1344    1.3038   22.5590 F   0  0  0  0  0  0  0  0  0  0  0  0
   12.3078    2.8550   23.9112 F   0  0  0  0  0  0  0  0  0  0  0  0
   12.7269    3.3573   21.8095 F   0  0  0  0  0  0  0  0  0  0  0  0
   10.4159    0.7548   21.6949 C   0  0  0  0  0  0  0  0  0  0  0  0
   11.0925   -0.0697   21.5090 H   0  0  0  0  0  0  0  0  0  0  0  0
    7.7390    3.3999   22.1464 H   0  0  0  0  0  0  0  0  0  0  0  0
    9.2609   -1.4046   21.1757 H   0  0  0  0  0  0  0  0  0  0  0  0
    6.3547    0.0880   19.8876 C   0  0  0  0  0  0  0  0  0  0  0  0
    5.2059    0.8466   20.0839 C   0  0  0  0  0  0  0  0  0  0  0  0
    4.7269    1.4944   18.9616 C   0  0  0  0  0  0  0  0  0  0  0  0
    5.3928    1.3750   17.7445 C   0  0  0  0  0  0  0  0  0  0  0  0
    6.5044    0.6335   17.6094 N   0  0  0  0  0  0  0  0  0  0  0  0
    6.9835   -0.0039   18.6728 C   0  0  0  0  0  0  0  0  0  0  0  0
    7.8784   -0.6103   18.5503 H   0  0  0  0  0  0  0  0  0  0  0  0
    4.9990    1.8884   16.8719 H   0  0  0  0  0  0  0  0  0  0  0  0
    3.8405    2.1079   19.0132 H   0  0  0  0  0  0  0  0  0  0  0  0
    4.6863    0.9438   21.0409 H   0  0  0  0  0  0  0  0  0  0  0  0
  1  2  2  0
  2  3  2  0
  2  4  1  0
  4  5  1  0
  5  6  2  0
  6  7  1  0
  7  8  2  0
  8  9  1  0
  8 10  1  0
 10 11  1  0
 11 12  1  0
 11 13  1  0
 11 14  1  0
 10 15  2  0
 15 16  1  0
  7 17  1  0
  4 18  1  0
  2 19  1  0
 19 20  2  0
 20 21  1  0
 21 22  2  0
 22 23  1  0
 23 24  2  0
 24 25  1  0
 22 26  1  0
 21 27  1  0
 20 28  1  0
 15  5  1  0
 24 19  1  0
M  END
>  <plip>  (1) 
-0.06896551724137931

>  <filename>  (1) 
[H][c]1[n][c]([H])[c]([S](=[O])(=[O])[N]([H])[c]2[n][c]([H])[c]([Br])[c]([C]([F])([F])[F])[c]2[H])[c]([H])[c]1[H]

$$$$
