
     RDKit          3D

 36 38  0  0  0  0  0  0  0  0999 V2000
    8.8655   -0.3989   21.1507 C   0  0  0  0  0  0  0  0  0  0  0  0
    7.4010   -0.7094   20.9736 C   0  0  0  0  0  0  0  0  0  0  0  0
    6.7375   -1.5951   21.7337 C   0  0  0  0  0  0  0  0  0  0  0  0
    7.2496   -2.4144   22.8059 C   0  0  0  0  0  0  0  0  0  0  0  0
    6.5652   -3.2428   23.5356 N   0  0  0  0  0  0  0  0  0  0  0  0
    7.5311   -3.7356   24.3837 C   0  0  0  0  0  0  0  0  0  0  0  0
    7.2579   -4.7340   25.4368 C   0  0  0  0  0  0  0  0  0  0  0  0
    8.2944   -5.2002   26.2682 C   0  0  0  0  0  0  0  0  0  0  0  0
    8.0132   -6.1200   27.2728 C   0  0  0  0  0  0  0  0  0  0  0  0
    6.7218   -6.6097   27.4657 C   0  0  0  0  0  0  0  0  0  0  0  0
    5.6931   -6.1693   26.6215 C   0  0  0  0  0  0  0  0  0  0  0  0
    4.2788   -6.6638   26.8544 C   0  0  0  0  0  0  0  0  0  0  0  0
    3.6050   -5.8603   27.7015 F   0  0  0  0  0  0  0  0  0  0  0  0
    4.2506   -7.8944   27.3947 F   0  0  0  0  0  0  0  0  0  0  0  0
    3.5611   -6.7162   25.7155 F   0  0  0  0  0  0  0  0  0  0  0  0
    5.9531   -5.2221   25.6220 C   0  0  0  0  0  0  0  0  0  0  0  0
    5.1473   -4.8515   24.9880 H   0  0  0  0  0  0  0  0  0  0  0  0
    6.5342   -7.3475   28.2478 H   0  0  0  0  0  0  0  0  0  0  0  0
    8.8001   -6.4565   27.9289 H   0  0  0  0  0  0  0  0  0  0  0  0
    9.3123   -4.8393   26.1357 H   0  0  0  0  0  0  0  0  0  0  0  0
    8.7253   -3.2517   24.1789 N   0  0  0  0  0  0  0  0  0  0  0  0
    8.5470   -2.3734   23.1321 O   0  0  0  0  0  0  0  0  0  0  0  0
    5.6849   -1.7777   21.5638 H   0  0  0  0  0  0  0  0  0  0  0  0
    6.6507    0.0041   19.9070 C   0  0  0  0  0  0  0  0  0  0  0  0
    5.4248    0.6445   20.1528 C   0  0  0  0  0  0  0  0  0  0  0  0
    4.8036    1.3154   19.1001 C   0  0  0  0  0  0  0  0  0  0  0  0
    5.3998    1.2955   17.8327 C   0  0  0  0  0  0  0  0  0  0  0  0
    6.5605    0.6739   17.5714 N   0  0  0  0  0  0  0  0  0  0  0  0
    7.1642    0.0701   18.6004 C   0  0  0  0  0  0  0  0  0  0  0  0
    8.1106   -0.4179   18.3803 H   0  0  0  0  0  0  0  0  0  0  0  0
    4.9191    1.7858   16.9894 H   0  0  0  0  0  0  0  0  0  0  0  0
    3.8717    1.8462   19.2515 H   0  0  0  0  0  0  0  0  0  0  0  0
    5.0037    0.6373   21.1611 H   0  0  0  0  0  0  0  0  0  0  0  0
    9.1692    0.4198   20.4893 H   0  0  0  0  0  0  0  0  0  0  0  0
    9.0830   -0.1172   22.1878 H   0  0  0  0  0  0  0  0  0  0  0  0
    9.4785   -1.2833   20.9470 H   0  0  0  0  0  0  0  0  0  0  0  0
  1  2  1  0
  2  3  2  3
  3  4  1  0
  4  5  2  0
  5  6  1  0
  6  7  1  0
  7  8  2  0
  8  9  1  0
  9 10  2  0
 10 11  1  0
 11 12  1  0
 12 13  1  0
 12 14  1  0
 12 15  1  0
 11 16  2  0
 16 17  1  0
 10 18  1  0
  9 19  1  0
  8 20  1  0
  6 21  2  0
 21 22  1  0
  3 23  1  0
  2 24  1  0
 24 25  2  0
 25 26  1  0
 26 27  2  0
 27 28  1  0
 28 29  2  0
 29 30  1  0
 27 31  1  0
 26 32  1  0
 25 33  1  0
  1 34  1  0
  1 35  1  0
  1 36  1  0
 22  4  1  0
 29 24  1  0
 16  7  1  0
M  END
>  <plip>  (1) 
-0.06666666666666667

>  <filename>  (1) 
[H][C](=[C]([c]1[c]([H])[n][c]([H])[c]([H])[c]1[H])[C]([H])([H])[H])[c]1[n][c](-[c]2[c]([H])[c]([H])[c]([H])[c]([C]([F])([F])[F])[c]2[H])[n][o]1

$$$$
