
     RDKit          3D

 48 52  0  0  0  0  0  0  0  0999 V2000
    9.1795    1.4207   21.2328 O   0  0  0  0  0  0  0  0  0  0  0  0
    8.4900    1.1825   22.2218 C   0  0  0  0  0  0  0  0  0  0  0  0
    7.5971    0.1700   22.2359 N   0  0  0  0  0  0  0  0  0  0  0  0
    7.3310   -0.6561   21.0796 C   0  0  0  0  0  0  0  0  0  0  0  0
    6.6141    0.1089   19.9796 C   0  0  0  0  0  0  0  0  0  0  0  0
    5.3837    0.7572   20.1611 C   0  0  0  0  0  0  0  0  0  0  0  0
    4.7806    1.3624   19.0557 C   0  0  0  0  0  0  0  0  0  0  0  0
    5.4270    1.3063   17.8158 C   0  0  0  0  0  0  0  0  0  0  0  0
    6.6033    0.6938   17.6197 N   0  0  0  0  0  0  0  0  0  0  0  0
    7.1683    0.1234   18.6934 C   0  0  0  0  0  0  0  0  0  0  0  0
    8.1186   -0.3842   18.5130 H   0  0  0  0  0  0  0  0  0  0  0  0
    4.9791    1.7693   16.9387 H   0  0  0  0  0  0  0  0  0  0  0  0
    3.8334    1.8837   19.1426 H   0  0  0  0  0  0  0  0  0  0  0  0
    4.9042    0.7908   21.1435 H   0  0  0  0  0  0  0  0  0  0  0  0
    6.5643   -1.9051   21.5396 C   0  0  0  0  0  0  0  0  0  0  0  0
    6.1213   -2.8430   20.4103 C   0  0  0  0  0  0  0  0  0  0  0  0
    6.3443   -4.2590   20.9518 C   0  0  0  0  0  0  0  0  0  0  0  0
    6.9637   -4.1449   22.2207 O   0  0  0  0  0  0  0  0  0  0  0  0
    7.3534   -2.8141   22.4956 C   0  0  0  0  0  0  0  0  0  0  0  0
    8.4418   -2.6967   22.3709 H   0  0  0  0  0  0  0  0  0  0  0  0
    7.1239   -2.6166   23.5518 H   0  0  0  0  0  0  0  0  0  0  0  0
    6.9677   -4.8585   20.2731 H   0  0  0  0  0  0  0  0  0  0  0  0
    5.4022   -4.8025   21.0914 H   0  0  0  0  0  0  0  0  0  0  0  0
    6.6815   -2.6398   19.5031 H   0  0  0  0  0  0  0  0  0  0  0  0
    5.0917   -2.6868   20.1120 H   0  0  0  0  0  0  0  0  0  0  0  0
    5.6777   -1.5641   22.0661 H   0  0  0  0  0  0  0  0  0  0  0  0
    8.2984   -0.9796   20.6703 H   0  0  0  0  0  0  0  0  0  0  0  0
    6.9991    0.1218   23.0446 H   0  0  0  0  0  0  0  0  0  0  0  0
    8.5670    1.9850   23.5169 C   0  0  0  0  0  0  0  0  0  0  0  0
    9.4246    3.0409   23.7072 C   0  0  0  0  0  0  0  0  0  0  0  0
   10.2525    3.8239   22.7418 C   0  0  0  0  0  0  0  0  0  0  0  0
   11.1694    4.7118   23.3777 O   0  0  0  0  0  0  0  0  0  0  0  0
   10.7498    5.3362   24.5223 C   0  0  0  0  0  0  0  0  0  0  0  0
   11.4222    6.5033   24.8821 C   0  0  0  0  0  0  0  0  0  0  0  0
   11.1190    7.1404   26.0872 C   0  0  0  0  0  0  0  0  0  0  0  0
   10.1266    6.6127   26.9228 C   0  0  0  0  0  0  0  0  0  0  0  0
    9.4293    5.4568   26.5591 C   0  0  0  0  0  0  0  0  0  0  0  0
    9.7344    4.8044   25.3591 C   0  0  0  0  0  0  0  0  0  0  0  0
    9.1024    3.6077   24.9172 N   0  0  0  0  0  0  0  0  0  0  0  0
    8.0537    2.8686   25.4095 C   0  0  0  0  0  0  0  0  0  0  0  0
    7.7160    1.8918   24.6125 N   0  0  0  0  0  0  0  0  0  0  0  0
    7.5532    3.1200   26.3329 H   0  0  0  0  0  0  0  0  0  0  0  0
    8.6502    5.0646   27.2067 H   0  0  0  0  0  0  0  0  0  0  0  0
    9.8809    7.1064   27.8590 H   0  0  0  0  0  0  0  0  0  0  0  0
   11.6514    8.0442   26.3736 H   0  0  0  0  0  0  0  0  0  0  0  0
   12.1700    6.8852   24.1940 H   0  0  0  0  0  0  0  0  0  0  0  0
   10.8283    3.1670   22.0860 H   0  0  0  0  0  0  0  0  0  0  0  0
    9.5416    4.3940   22.1287 H   0  0  0  0  0  0  0  0  0  0  0  0
  1  2  2  0
  2  3  1  0
  3  4  1  0
  4  5  1  0
  5  6  2  0
  6  7  1  0
  7  8  2  0
  8  9  1  0
  9 10  2  0
 10 11  1  0
  8 12  1  0
  7 13  1  0
  6 14  1  0
  4 15  1  0
 15 16  1  0
 16 17  1  0
 17 18  1  0
 18 19  1  0
 19 20  1  0
 19 21  1  0
 17 22  1  0
 17 23  1  0
 16 24  1  0
 16 25  1  0
 15 26  1  0
  4 27  1  0
  3 28  1  0
  2 29  1  0
 29 30  2  0
 30 31  1  0
 31 32  1  0
 32 33  1  0
 33 34  2  0
 34 35  1  0
 35 36  2  0
 36 37  1  0
 37 38  2  0
 38 39  1  0
 39 40  1  0
 40 41  2  0
 40 42  1  0
 37 43  1  0
 36 44  1  0
 35 45  1  0
 34 46  1  0
 31 47  1  0
 31 48  1  0
 10  5  1  0
 19 15  1  0
 41 29  1  0
 39 30  1  0
 38 33  1  0
M  END
>  <plip>  (1) 
-0.1724137931034483

>  <filename>  (1) 
[H][c]1[n][c]([H])[c]([C]([H])([N]([H])[C](=[O])[c]2[n][c]([H])[n]3[c]2[C]([H])([H])[O][c]2[c]([H])[c]([H])[c]([H])[c]([H])[c]2-3)[C]2([H])[C]([H])([H])[O][C]([H])([H])[C]2([H])[H])[c]([H])[c]1[H]

$$$$
