
     RDKit          3D

 29 30  0  0  0  0  0  0  0  0999 V2000
    7.8036   -0.6658   24.7421 C   0  0  0  0  0  0  0  0  0  0  0  0
    7.8013   -1.1458   23.3502 N   0  0  0  0  0  0  0  0  0  0  0  0
    7.8623   -2.5914   23.0772 C   0  0  0  0  0  0  0  0  0  0  0  0
    6.5499   -3.2470   22.7212 C   0  0  0  0  0  0  0  0  0  0  0  0
    5.3729   -3.3027   23.4198 C   0  0  0  0  0  0  0  0  0  0  0  0
    4.5363   -3.9672   22.5912 N   0  0  0  0  0  0  0  0  0  0  0  0
    5.1433   -4.3205   21.4601 N   0  0  0  0  0  0  0  0  0  0  0  0
    6.3621   -3.8898   21.5339 N   0  0  0  0  0  0  0  0  0  0  0  0
    3.5533   -4.1766   22.7008 H   0  0  0  0  0  0  0  0  0  0  0  0
    5.0958   -2.9523   24.4028 H   0  0  0  0  0  0  0  0  0  0  0  0
    8.3007   -3.1063   23.9412 H   0  0  0  0  0  0  0  0  0  0  0  0
    8.5540   -2.7750   22.2471 H   0  0  0  0  0  0  0  0  0  0  0  0
    7.3285   -0.2316   22.4069 C   0  0  0  0  0  0  0  0  0  0  0  0
    6.9357    0.8788   22.7176 O   0  0  0  0  0  0  0  0  0  0  0  0
    7.3720   -0.6584   21.0920 N   0  0  0  0  0  0  0  0  0  0  0  0
    6.6991   -0.0069   20.0156 C   0  0  0  0  0  0  0  0  0  0  0  0
    5.4939    0.6808   20.2178 C   0  0  0  0  0  0  0  0  0  0  0  0
    4.8848    1.2949   19.1198 C   0  0  0  0  0  0  0  0  0  0  0  0
    5.5066    1.2175   17.8709 C   0  0  0  0  0  0  0  0  0  0  0  0
    6.6517    0.5478   17.6557 N   0  0  0  0  0  0  0  0  0  0  0  0
    7.2214   -0.0609   18.7059 C   0  0  0  0  0  0  0  0  0  0  0  0
    8.1494   -0.6040   18.5142 H   0  0  0  0  0  0  0  0  0  0  0  0
    5.0628    1.7000   17.0051 H   0  0  0  0  0  0  0  0  0  0  0  0
    3.9509    1.8389   19.2318 H   0  0  0  0  0  0  0  0  0  0  0  0
    5.0747    0.7364   21.2194 H   0  0  0  0  0  0  0  0  0  0  0  0
    7.5563   -1.6395   20.9606 H   0  0  0  0  0  0  0  0  0  0  0  0
    7.9660   -1.4911   25.4397 H   0  0  0  0  0  0  0  0  0  0  0  0
    8.5815    0.0904   24.8903 H   0  0  0  0  0  0  0  0  0  0  0  0
    6.8553   -0.1827   24.9984 H   0  0  0  0  0  0  0  0  0  0  0  0
  1  2  1  0
  2  3  1  0
  3  4  1  0
  4  5  2  0
  5  6  1  0
  6  7  1  0
  7  8  2  0
  6  9  1  0
  5 10  1  0
  3 11  1  0
  3 12  1  0
  2 13  1  0
 13 14  2  0
 13 15  1  0
 15 16  1  0
 16 17  2  0
 17 18  1  0
 18 19  2  0
 19 20  1  0
 20 21  2  0
 21 22  1  0
 19 23  1  0
 18 24  1  0
 17 25  1  0
 15 26  1  0
  1 27  1  0
  1 28  1  0
  1 29  1  0
  8  4  1  0
 21 16  1  0
M  END
>  <plip>  (1) 
-0.07142857142857142

>  <filename>  (1) 
[H][c]1[n][c]([H])[c]([N]([H])[C](=[O])[N]([C]([H])([H])[H])[C]([H])([H])[c]2[n][n][n]([H])[c]2[H])[c]([H])[c]1[H]

$$$$
