
     RDKit          3D

 37 37  0  0  0  0  0  0  0  0999 V2000
    6.9298   -2.7228   20.9093 C   0  0  0  0  0  0  0  0  0  0  0  0
    7.8591   -1.6578   20.9102 O   0  0  0  0  0  0  0  0  0  0  0  0
    7.2641   -0.3873   21.1116 C   0  0  0  0  0  0  0  0  0  0  0  0
    8.3754    0.5455   21.6673 C   0  0  0  0  0  0  0  0  0  0  0  0
    8.4635    0.8046   22.8475 O   0  0  0  0  0  0  0  0  0  0  0  0
    9.2237    0.9929   20.7175 O   0  0  0  0  0  0  0  0  0  0  0  0
   10.4832    1.5395   21.1578 C   0  0  0  0  0  0  0  0  0  0  0  0
   11.5094    0.4652   21.5170 C   0  0  0  0  0  0  0  0  0  0  0  0
   11.2701   -0.3694   22.7830 C   0  0  0  0  0  0  0  0  0  0  0  0
   11.3293    0.4587   24.0852 C   0  0  0  0  0  0  0  0  0  0  0  0
   12.7238    0.9873   24.3551 C   0  0  0  0  0  0  0  0  0  0  0  0
   13.5634    0.3556   24.9635 O   0  0  0  0  0  0  0  0  0  0  0  0
   13.0716    2.1916   23.8213 N   0  0  0  0  0  0  0  0  0  0  0  0
   13.9771    2.4805   24.1580 H   0  0  0  0  0  0  0  0  0  0  0  0
   12.3912    2.8918   23.5864 H   0  0  0  0  0  0  0  0  0  0  0  0
   10.5761    1.2560   24.0630 H   0  0  0  0  0  0  0  0  0  0  0  0
   11.0773   -0.1822   24.9362 H   0  0  0  0  0  0  0  0  0  0  0  0
   12.0340   -1.1658   22.8029 H   0  0  0  0  0  0  0  0  0  0  0  0
   10.3042   -0.8873   22.7243 H   0  0  0  0  0  0  0  0  0  0  0  0
   11.5841   -0.2330   20.6789 H   0  0  0  0  0  0  0  0  0  0  0  0
   12.4777    0.9743   21.6025 H   0  0  0  0  0  0  0  0  0  0  0  0
   10.8468    2.1140   20.3035 H   0  0  0  0  0  0  0  0  0  0  0  0
   10.2875    2.2466   21.9679 H   0  0  0  0  0  0  0  0  0  0  0  0
    6.5307    0.1240   19.8759 C   0  0  0  0  0  0  0  0  0  0  0  0
    5.3638    0.8913   20.0204 C   0  0  0  0  0  0  0  0  0  0  0  0
    4.7892    1.4538   18.8795 C   0  0  0  0  0  0  0  0  0  0  0  0
    5.3887    1.2104   17.6385 C   0  0  0  0  0  0  0  0  0  0  0  0
    6.4771    0.4424   17.4725 N   0  0  0  0  0  0  0  0  0  0  0  0
    7.0224   -0.0934   18.5758 C   0  0  0  0  0  0  0  0  0  0  0  0
    7.9061   -0.7095   18.4112 H   0  0  0  0  0  0  0  0  0  0  0  0
    4.9728    1.6470   16.7340 H   0  0  0  0  0  0  0  0  0  0  0  0
    3.9074    2.0891   18.9390 H   0  0  0  0  0  0  0  0  0  0  0  0
    4.9150    1.0453   21.0054 H   0  0  0  0  0  0  0  0  0  0  0  0
    6.5483   -0.4512   21.9493 H   0  0  0  0  0  0  0  0  0  0  0  0
    7.5016   -3.6511   20.8287 H   0  0  0  0  0  0  0  0  0  0  0  0
    6.3364   -2.7549   21.8350 H   0  0  0  0  0  0  0  0  0  0  0  0
    6.2390   -2.6516   20.0606 H   0  0  0  0  0  0  0  0  0  0  0  0
  1  2  1  0
  2  3  1  0
  3  4  1  0
  4  5  2  0
  4  6  1  0
  6  7  1  0
  7  8  1  0
  8  9  1  0
  9 10  1  0
 10 11  1  0
 11 12  2  0
 11 13  1  0
 13 14  1  0
 13 15  1  0
 10 16  1  0
 10 17  1  0
  9 18  1  0
  9 19  1  0
  8 20  1  0
  8 21  1  0
  7 22  1  0
  7 23  1  0
  3 24  1  0
 24 25  2  0
 25 26  1  0
 26 27  2  0
 27 28  1  0
 28 29  2  0
 29 30  1  0
 27 31  1  0
 26 32  1  0
 25 33  1  0
  3 34  1  0
  1 35  1  0
  1 36  1  0
  1 37  1  0
 29 24  1  0
M  END
>  <plip>  (1) 
-0.10344827586206896

>  <filename>  (1) 
[H][c]1[n][c]([H])[c]([C]([H])([O][C]([H])([H])[H])[C](=[O])[O][C]([H])([H])[C]([H])([H])[C]([H])([H])[C]([H])([H])[C](=[O])[N]([H])[H])[c]([H])[c]1[H]

$$$$
