
     RDKit          3D

 48 51  0  0  0  0  0  0  0  0999 V2000
   12.8249    7.4175   25.6519 F   0  0  0  0  0  0  0  0  0  0  0  0
   12.7052    6.5993   24.5977 C   0  0  0  0  0  0  0  0  0  0  0  0
   13.3453    6.9238   23.4014 C   0  0  0  0  0  0  0  0  0  0  0  0
   13.2612    6.0314   22.3256 C   0  0  0  0  0  0  0  0  0  0  0  0
   12.4764    4.8814   22.4327 C   0  0  0  0  0  0  0  0  0  0  0  0
   11.7870    4.6009   23.6283 C   0  0  0  0  0  0  0  0  0  0  0  0
   10.8236    3.4852   23.6943 C   0  0  0  0  0  0  0  0  0  0  0  0
   10.7573    2.4013   24.5257 C   0  0  0  0  0  0  0  0  0  0  0  0
    9.6213    1.5843   24.2828 C   0  0  0  0  0  0  0  0  0  0  0  0
    8.8406    2.0588   23.2638 C   0  0  0  0  0  0  0  0  0  0  0  0
    7.7095    1.3858   22.5833 C   0  0  0  0  0  0  0  0  0  0  0  0
    8.4548    0.4007   21.6448 N   0  0  0  0  0  4  0  0  0  0  0  0
    7.6748   -0.7071   21.0140 C   0  0  0  0  0  0  0  0  0  0  0  0
    6.8078   -0.0769   19.9478 C   0  0  0  0  0  0  0  0  0  0  0  0
    5.5687    0.5285   20.1944 C   0  0  0  0  0  0  0  0  0  0  0  0
    4.9391    1.2065   19.1469 C   0  0  0  0  0  0  0  0  0  0  0  0
    5.5574    1.2400   17.8941 C   0  0  0  0  0  0  0  0  0  0  0  0
    6.7298    0.6419   17.6326 N   0  0  0  0  0  0  0  0  0  0  0  0
    7.3257    0.0076   18.6469 C   0  0  0  0  0  0  0  0  0  0  0  0
    8.2785   -0.4687   18.4111 H   0  0  0  0  0  0  0  0  0  0  0  0
    5.0936    1.7691   17.0629 H   0  0  0  0  0  0  0  0  0  0  0  0
    3.9974    1.7211   19.2948 H   0  0  0  0  0  0  0  0  0  0  0  0
    5.1186    0.4934   21.1904 H   0  0  0  0  0  0  0  0  0  0  0  0
    6.9360   -1.5517   22.0563 C   0  0  0  0  0  0  0  0  0  0  0  0
    5.9948   -2.6197   21.5004 C   0  0  0  0  0  0  0  0  0  0  0  0
    5.9110   -3.6514   22.6350 C   0  0  0  0  0  0  0  0  0  0  0  0
    6.9705   -3.3547   23.5361 O   0  0  0  0  0  0  0  0  0  0  0  0
    7.8366   -2.4012   22.9497 C   0  0  0  0  0  0  0  0  0  0  0  0
    8.6202   -2.9018   22.3522 H   0  0  0  0  0  0  0  0  0  0  0  0
    8.3199   -1.8497   23.7627 H   0  0  0  0  0  0  0  0  0  0  0  0
    6.0082   -4.6773   22.2521 H   0  0  0  0  0  0  0  0  0  0  0  0
    4.9659   -3.5886   23.1898 H   0  0  0  0  0  0  0  0  0  0  0  0
    5.0317   -2.1807   21.2695 H   0  0  0  0  0  0  0  0  0  0  0  0
    6.3926   -3.0736   20.5842 H   0  0  0  0  0  0  0  0  0  0  0  0
    6.3542   -0.8937   22.7093 H   0  0  0  0  0  0  0  0  0  0  0  0
    8.3708   -1.3805   20.5055 H   0  0  0  0  0  0  0  0  0  0  0  0
    8.8084    1.0478   20.9091 H   0  0  0  0  0  0  0  0  0  0  0  0
    9.2696    0.1074   22.2128 H   0  0  0  0  0  0  0  0  0  0  0  0
    7.0803    0.8492   23.2978 H   0  0  0  0  0  0  0  0  0  0  0  0
    7.0726    2.0669   22.0133 H   0  0  0  0  0  0  0  0  0  0  0  0
    9.4680    3.5279   22.6217 S   0  0  0  0  0  0  0  0  0  0  0  0
    9.4009    0.6690   24.8289 H   0  0  0  0  0  0  0  0  0  0  0  0
   11.5309    2.1625   25.2448 H   0  0  0  0  0  0  0  0  0  0  0  0
   11.9397    5.4441   24.7352 C   0  0  0  0  0  0  0  0  0  0  0  0
   11.4603    5.2400   25.6864 H   0  0  0  0  0  0  0  0  0  0  0  0
   12.3988    4.1910   21.5989 H   0  0  0  0  0  0  0  0  0  0  0  0
   13.7845    6.2451   21.3966 H   0  0  0  0  0  0  0  0  0  0  0  0
   13.9446    7.8244   23.3464 H   0  0  0  0  0  0  0  0  0  0  0  0
  1  2  1  0
  2  3  2  0
  3  4  1  0
  4  5  2  0
  5  6  1  0
  6  7  1  0
  7  8  2  0
  8  9  1  0
  9 10  2  0
 10 11  1  0
 11 12  1  0
 12 13  1  0
 13 14  1  0
 14 15  2  0
 15 16  1  0
 16 17  2  0
 17 18  1  0
 18 19  2  0
 19 20  1  0
 17 21  1  0
 16 22  1  0
 15 23  1  0
 13 24  1  0
 24 25  1  0
 25 26  1  0
 26 27  1  0
 27 28  1  0
 28 29  1  0
 28 30  1  0
 26 31  1  0
 26 32  1  0
 25 33  1  0
 25 34  1  0
 24 35  1  0
 13 36  1  0
 12 37  1  0
 12 38  1  0
 11 39  1  0
 11 40  1  0
 10 41  1  0
  9 42  1  0
  8 43  1  0
  6 44  2  0
 44 45  1  0
  5 46  1  0
  4 47  1  0
  3 48  1  0
 44  2  1  0
 41  7  1  0
 19 14  1  0
 28 24  1  0
M  CHG  1  12   1
M  END
>  <plip>  (1) 
-0.13333333333333333

>  <filename>  (1) 
[H][c]1[n][c]([H])[c]([C]([H])([C]2([H])[C]([H])([H])[O][C]([H])([H])[C]2([H])[H])[N+]([H])([H])[C]([H])([H])[c]2[s][c](-[c]3[c]([H])[c]([H])[c]([H])[c]([F])[c]3[H])[c]([H])[c]2[H])[c]([H])[c]1[H]

$$$$
