
     RDKit          3D

 37 39  0  0  0  0  0  0  0  0999 V2000
    8.3725   -0.5207   23.1914 C   0  0  0  0  0  0  0  0  0  0  0  0
    7.9475    0.1090   21.8936 N   0  0  0  0  0  4  0  0  0  0  0  0
    7.3061   -0.8576   20.9281 C   0  0  0  0  0  0  0  0  0  0  0  0
    6.5835   -0.0640   19.8721 C   0  0  0  0  0  0  0  0  0  0  0  0
    5.4028    0.6487   20.1305 C   0  0  0  0  0  0  0  0  0  0  0  0
    4.7949    1.3331   19.0738 C   0  0  0  0  0  0  0  0  0  0  0  0
    5.4087    1.3276   17.8170 C   0  0  0  0  0  0  0  0  0  0  0  0
    6.5641    0.6943   17.5673 N   0  0  0  0  0  0  0  0  0  0  0  0
    7.1295    0.0355   18.5845 C   0  0  0  0  0  0  0  0  0  0  0  0
    8.0874   -0.4416   18.3719 H   0  0  0  0  0  0  0  0  0  0  0  0
    4.9582    1.8583   16.9779 H   0  0  0  0  0  0  0  0  0  0  0  0
    3.8741    1.8916   19.2105 H   0  0  0  0  0  0  0  0  0  0  0  0
    4.9636    0.6827   21.1325 H   0  0  0  0  0  0  0  0  0  0  0  0
    6.6282   -1.5114   21.4865 H   0  0  0  0  0  0  0  0  0  0  0  0
    8.0813   -1.4933   20.4810 H   0  0  0  0  0  0  0  0  0  0  0  0
    9.1400    0.8758   21.2526 C   0  0  0  0  0  0  0  0  0  0  0  0
    9.6345    2.0279   22.0798 C   0  0  0  0  0  0  0  0  0  0  0  0
   10.7808    2.1336   22.6547 N   0  0  0  0  0  0  0  0  0  0  0  0
   10.7006    3.3654   23.3132 C   0  0  0  0  0  0  0  0  0  0  0  0
   11.6378    4.0737   24.0720 C   0  0  0  0  0  0  0  0  0  0  0  0
   11.2513    5.3127   24.6014 C   0  0  0  0  0  0  0  0  0  0  0  0
   12.2197    6.0883   25.4153 N   0  0  0  0  0  4  0  0  0  0  0  0
   13.3989    5.9880   25.1337 O   0  0  0  0  0  0  0  0  0  0  0  0
   11.7877    6.7862   26.3173 O   0  0  0  0  0  1  0  0  0  0  0  0
    9.9763    5.8664   24.3552 C   0  0  0  0  0  0  0  0  0  0  0  0
    9.0691    5.1846   23.5401 C   0  0  0  0  0  0  0  0  0  0  0  0
    9.4535    3.9347   23.0594 C   0  0  0  0  0  0  0  0  0  0  0  0
    8.7636    3.0631   22.2681 O   0  0  0  0  0  0  0  0  0  0  0  0
    8.1207    5.6199   23.2619 H   0  0  0  0  0  0  0  0  0  0  0  0
    9.6953    6.8225   24.7933 H   0  0  0  0  0  0  0  0  0  0  0  0
   12.6308    3.6638   24.1765 H   0  0  0  0  0  0  0  0  0  0  0  0
    8.8300    1.2390   20.2704 H   0  0  0  0  0  0  0  0  0  0  0  0
    9.9853    0.1984   21.1261 H   0  0  0  0  0  0  0  0  0  0  0  0
    7.2006    0.8269   22.0702 H   0  0  0  0  0  0  0  0  0  0  0  0
    9.1548   -1.2751   23.0269 H   0  0  0  0  0  0  0  0  0  0  0  0
    8.7780    0.2415   23.8637 H   0  0  0  0  0  0  0  0  0  0  0  0
    7.5265   -1.0061   23.6897 H   0  0  0  0  0  0  0  0  0  0  0  0
  1  2  1  0
  2  3  1  0
  3  4  1  0
  4  5  2  0
  5  6  1  0
  6  7  2  0
  7  8  1  0
  8  9  2  0
  9 10  1  0
  7 11  1  0
  6 12  1  0
  5 13  1  0
  3 14  1  0
  3 15  1  0
  2 16  1  0
 16 17  1  0
 17 18  2  0
 18 19  1  0
 19 20  2  0
 20 21  1  0
 21 22  1  0
 22 23  2  0
 22 24  1  0
 21 25  2  0
 25 26  1  0
 26 27  2  0
 27 28  1  0
 26 29  1  0
 25 30  1  0
 20 31  1  0
 16 32  1  0
 16 33  1  0
  2 34  1  0
  1 35  1  0
  1 36  1  0
  1 37  1  0
  9  4  1  0
 28 17  1  0
 27 19  1  0
M  CHG  3   2   1  22   1  24  -1
M  END
>  <plip>  (1) 
-0.07142857142857142

>  <filename>  (1) 
[H][c]1[n][c]([H])[c]([C]([H])([H])[N+]([H])([C]([H])([H])[H])[C]([H])([H])[c]2[n][c]3[c]([H])[c]([N+](=[O])[O-])[c]([H])[c]([H])[c]3[o]2)[c]([H])[c]1[H]

$$$$
