
     RDKit          3D

 44 47  0  0  0  0  0  0  0  0999 V2000
    9.8936    2.3888   23.1366 C   0  0  0  0  0  0  0  0  0  0  0  0
    9.7711    1.2447   24.0043 N   0  0  0  0  0  0  0  0  0  0  0  0
    8.8829    1.2147   25.1619 C   0  0  0  0  0  0  0  0  0  0  0  0
    8.8078   -0.2882   25.5745 C   0  0  0  0  0  0  0  0  0  0  0  0
    7.3511   -0.8366   25.5240 C   0  0  0  0  0  0  0  0  0  0  0  0
    6.7210   -0.6404   24.1521 C   0  0  0  0  0  0  0  0  0  0  0  0
    6.0635    0.3415   23.8510 O   0  0  0  0  0  0  0  0  0  0  0  0
    6.9720   -1.6533   23.2776 N   0  0  0  0  0  0  0  0  0  0  0  0
    6.5635   -1.6102   21.9161 C   0  0  2  0  0  0  0  0  0  0  0  0
    7.5359   -2.1639   20.9297 C   0  0  0  0  0  0  0  0  0  0  0  0
    7.3170   -0.6730   21.0138 C   0  0  1  0  0  0  0  0  0  0  0  0
    6.6195    0.0654   19.9214 C   0  0  0  0  0  0  0  0  0  0  0  0
    5.4232    0.7548   20.1531 C   0  0  0  0  0  0  0  0  0  0  0  0
    4.7956    1.3866   19.0795 C   0  0  0  0  0  0  0  0  0  0  0  0
    5.4053    1.3406   17.8209 C   0  0  0  0  0  0  0  0  0  0  0  0
    6.5658    0.7075   17.5842 N   0  0  0  0  0  0  0  0  0  0  0  0
    7.1483    0.0963   18.6232 C   0  0  0  0  0  0  0  0  0  0  0  0
    8.1015   -0.3983   18.4329 H   0  0  0  0  0  0  0  0  0  0  0  0
    4.9414    1.8161   16.9592 H   0  0  0  0  0  0  0  0  0  0  0  0
    3.8591    1.9177   19.2051 H   0  0  0  0  0  0  0  0  0  0  0  0
    5.0365    0.7917   21.1742 H   0  0  0  0  0  0  0  0  0  0  0  0
    8.0915   -0.0967   21.5247 H   0  0  0  0  0  0  0  0  0  0  0  0
    8.4751   -2.5609   21.3128 H   0  0  0  0  0  0  0  0  0  0  0  0
    7.0825   -2.6981   20.1043 H   0  0  0  0  0  0  0  0  0  0  0  0
    5.5023   -1.7838   21.7361 H   0  0  0  0  0  0  0  0  0  0  0  0
    7.7289   -2.2748   23.4977 H   0  0  0  0  0  0  0  0  0  0  0  0
    7.3269   -1.9031   25.7742 H   0  0  0  0  0  0  0  0  0  0  0  0
    6.7234   -0.3181   26.2518 H   0  0  0  0  0  0  0  0  0  0  0  0
    9.7327   -0.9677   24.5893 C   0  0  0  0  0  0  0  0  0  0  0  0
   10.0624   -2.3172   24.4281 C   0  0  0  0  0  0  0  0  0  0  0  0
   10.8196   -2.7076   23.3144 C   0  0  0  0  0  0  0  0  0  0  0  0
   11.2718   -1.7506   22.3847 C   0  0  0  0  0  0  0  0  0  0  0  0
   10.9585   -0.3974   22.5473 C   0  0  0  0  0  0  0  0  0  0  0  0
   10.1928   -0.0184   23.6615 C   0  0  0  0  0  0  0  0  0  0  0  0
   11.2933    0.3600   21.8446 H   0  0  0  0  0  0  0  0  0  0  0  0
   11.8907   -2.0589   21.5442 H   0  0  0  0  0  0  0  0  0  0  0  0
   11.1205   -3.7426   23.2053 H   0  0  0  0  0  0  0  0  0  0  0  0
    9.7552   -3.0672   25.1556 H   0  0  0  0  0  0  0  0  0  0  0  0
    9.1842   -0.4113   26.5988 H   0  0  0  0  0  0  0  0  0  0  0  0
    7.8821    1.5978   24.9007 H   0  0  0  0  0  0  0  0  0  0  0  0
    9.2577    1.8559   25.9731 H   0  0  0  0  0  0  0  0  0  0  0  0
    9.3466    3.2333   23.5664 H   0  0  0  0  0  0  0  0  0  0  0  0
   10.9442    2.6862   23.0242 H   0  0  0  0  0  0  0  0  0  0  0  0
    9.4875    2.2102   22.1274 H   0  0  0  0  0  0  0  0  0  0  0  0
  1  2  1  0
  2  3  1  0
  3  4  1  0
  4  5  1  0
  5  6  1  0
  6  7  2  0
  6  8  1  0
  8  9  1  0
  9 10  1  0
 10 11  1  0
 11 12  1  0
 12 13  2  0
 13 14  1  0
 14 15  2  0
 15 16  1  0
 16 17  2  0
 17 18  1  0
 15 19  1  0
 14 20  1  0
 13 21  1  0
 11 22  1  1
 10 23  1  0
 10 24  1  0
  9 25  1  1
  8 26  1  0
  5 27  1  0
  5 28  1  0
  4 29  1  0
 29 30  2  0
 30 31  1  0
 31 32  2  0
 32 33  1  0
 33 34  2  0
 33 35  1  0
 32 36  1  0
 31 37  1  0
 30 38  1  0
  4 39  1  0
  3 40  1  0
  3 41  1  0
  1 42  1  0
  1 43  1  0
  1 44  1  0
 34  2  1  0
 11  9  1  0
 17 12  1  0
 34 29  1  0
M  END
>  <plip>  (1) 
-0.10714285714285714

>  <filename>  (1) 
[H][c]1[n][c]([H])[c]([C@]2([H])[C]([H])([H])[C@@]2([H])[N]([H])[C](=[O])[C]([H])([H])[C]2([H])[c]3[c]([H])[c]([H])[c]([H])[c]([H])[c]3[N]([C]([H])([H])[H])[C]2([H])[H])[c]([H])[c]1[H]

$$$$
