
     RDKit          3D

 38 40  0  0  0  0  0  0  0  0999 V2000
    4.9408    1.7955   16.7273 H   0  0  0  0  0  0  0  0  0  0  0  0
    5.3364    1.3956   17.6581 C   0  0  0  0  0  0  0  0  0  0  0  0
    6.5098    0.7526   17.5678 N   0  0  0  0  0  0  0  0  0  0  0  0
    7.0273    0.2687   18.7051 C   0  0  0  0  0  0  0  0  0  0  0  0
    7.9701   -0.2676   18.6048 H   0  0  0  0  0  0  0  0  0  0  0  0
    6.4318    0.4027   19.9689 C   0  0  0  0  0  0  0  0  0  0  0  0
    7.1156   -0.1831   21.1941 C   0  0  1  0  0  0  0  0  0  0  0  0
    6.3995   -0.1792   22.0258 H   0  0  0  0  0  0  0  0  0  0  0  0
    7.5553   -1.5594   21.0042 N   0  0  0  0  0  0  0  0  0  0  0  0
    6.6220   -2.4891   20.5449 N   0  0  0  0  0  0  0  0  0  0  0  0
    6.1549   -2.3172   19.6591 H   0  0  0  0  0  0  0  0  0  0  0  0
    6.3642   -3.7948   20.9202 C   0  0  0  0  0  0  0  0  0  0  0  0
    5.5556   -4.4001   20.2386 O   0  0  0  0  0  0  0  0  0  0  0  0
    7.1409   -4.4497   22.0237 C   0  0  0  0  0  0  0  0  0  0  0  0
    7.7731   -5.6653   21.6926 C   0  0  0  0  0  0  0  0  0  0  0  0
    7.6050   -6.1099   20.7130 H   0  0  0  0  0  0  0  0  0  0  0  0
    8.5730   -6.3129   22.6151 C   0  0  0  0  0  0  0  0  0  0  0  0
    9.1146   -7.2244   22.3879 H   0  0  0  0  0  0  0  0  0  0  0  0
    8.7329   -5.7850   23.9064 C   0  0  0  0  0  0  0  0  0  0  0  0
    9.5773   -6.5116   24.6810 O   0  0  0  0  0  0  0  0  0  0  0  0
    9.9235   -6.0864   25.9786 C   0  0  0  0  0  0  0  0  0  0  0  0
   10.3592   -5.0798   25.9845 H   0  0  0  0  0  0  0  0  0  0  0  0
   10.6767   -6.7982   26.3108 H   0  0  0  0  0  0  0  0  0  0  0  0
    9.0660   -6.1164   26.6627 H   0  0  0  0  0  0  0  0  0  0  0  0
    8.0576   -4.6104   24.2762 C   0  0  0  0  0  0  0  0  0  0  0  0
    8.1301   -4.2314   25.2929 H   0  0  0  0  0  0  0  0  0  0  0  0
    7.2684   -3.9419   23.3270 C   0  0  0  0  0  0  0  0  0  0  0  0
    6.7498   -3.0220   23.6117 H   0  0  0  0  0  0  0  0  0  0  0  0
    8.9557   -1.6732   20.9731 C   0  0  0  0  0  0  0  0  0  0  0  0
    9.6086   -2.6498   20.7510 O   0  0  0  0  0  0  0  0  0  0  0  0
    9.4782   -0.4588   21.2676 O   0  0  0  0  0  0  0  0  0  0  0  0
    8.4533    0.4844   21.5747 C   0  0  0  0  0  0  0  0  0  0  0  0
    8.6575    1.3974   21.0080 H   0  0  0  0  0  0  0  0  0  0  0  0
    8.5152    0.7255   22.6394 H   0  0  0  0  0  0  0  0  0  0  0  0
    5.1888    1.0467   20.0355 C   0  0  0  0  0  0  0  0  0  0  0  0
    4.6588    1.1432   20.9847 H   0  0  0  0  0  0  0  0  0  0  0  0
    4.6327    1.5510   18.8560 C   0  0  0  0  0  0  0  0  0  0  0  0
    3.6782    2.0668   18.8514 H   0  0  0  0  0  0  0  0  0  0  0  0
  1  2  1  0
  2  3  2  0
  3  4  1  0
  4  5  1  0
  4  6  2  0
  6  7  1  0
  7  8  1  1
  7  9  1  0
  9 10  1  0
 10 11  1  0
 10 12  1  0
 12 13  2  0
 12 14  1  0
 14 15  2  0
 15 16  1  0
 15 17  1  0
 17 18  1  0
 17 19  2  0
 19 20  1  0
 20 21  1  0
 21 22  1  0
 21 23  1  0
 21 24  1  0
 19 25  1  0
 25 26  1  0
 25 27  2  0
 27 28  1  0
  9 29  1  0
 29 30  2  0
 29 31  1  0
 31 32  1  0
 32 33  1  0
 32 34  1  0
  6 35  1  0
 35 36  1  0
 35 37  2  0
 37 38  1  0
 37  2  1  0
 32  7  1  0
 27 14  1  0
M  END
>  <plip>  (1) 
-0.2413793103448276

>  <filename>  (1) 
[H][c]1[n][c]([H])[c]([C@@]2([H])[N]([N]([H])[C](=[O])[c]3[c]([H])[c]([H])[c]([O][C]([H])([H])[H])[c]([H])[c]3[H])[C](=[O])[O][C]2([H])[H])[c]([H])[c]1[H]

$$$$
