
     RDKit          3D

 27 29  0  0  0  0  0  0  0  0999 V2000
    9.5297    0.0255   20.4753 O   0  0  0  0  0  0  0  0  0  0  0  0
    8.7544   -0.6849   21.0995 C   0  0  0  0  0  0  0  0  0  0  0  0
    7.3922   -0.6345   20.9528 N   0  0  0  0  0  0  0  0  0  0  0  0
    6.6846    0.0133   19.9042 C   0  0  0  0  0  0  0  0  0  0  0  0
    5.4573    0.6297   20.1635 C   0  0  0  0  0  0  0  0  0  0  0  0
    4.8152    1.2954   19.1101 C   0  0  0  0  0  0  0  0  0  0  0  0
    5.3907    1.2941   17.8358 C   0  0  0  0  0  0  0  0  0  0  0  0
    6.5491    0.6728   17.5605 N   0  0  0  0  0  0  0  0  0  0  0  0
    7.1769    0.0677   18.5748 C   0  0  0  0  0  0  0  0  0  0  0  0
    8.1273   -0.4086   18.3503 H   0  0  0  0  0  0  0  0  0  0  0  0
    4.9192    1.8035   16.9973 H   0  0  0  0  0  0  0  0  0  0  0  0
    3.8868    1.8272   19.2675 H   0  0  0  0  0  0  0  0  0  0  0  0
    5.0418    0.6143   21.1718 H   0  0  0  0  0  0  0  0  0  0  0  0
    6.8867   -1.1769   21.6448 H   0  0  0  0  0  0  0  0  0  0  0  0
    9.2766   -1.7164   22.0794 C   0  0  0  0  0  0  0  0  0  0  0  0
   10.6961   -1.7566   22.2317 C   0  0  0  0  0  0  0  0  0  0  0  0
   11.3243   -2.6575   23.0015 N   0  0  0  0  0  0  0  0  0  0  0  0
   10.4902   -3.4596   23.6629 C   0  0  0  0  0  0  0  0  0  0  0  0
   10.8147   -4.4179   24.5745 N   0  0  0  0  0  0  0  0  0  0  0  0
    9.6624   -5.0709   24.9740 C   0  0  0  0  0  0  0  0  0  0  0  0
    8.5784   -4.5296   24.3408 C   0  0  0  0  0  0  0  0  0  0  0  0
    9.0667   -3.4714   23.5109 C   0  0  0  0  0  0  0  0  0  0  0  0
    8.4483   -2.5838   22.7077 N   0  0  0  0  0  0  0  0  0  0  0  0
    7.5410   -4.8100   24.4240 H   0  0  0  0  0  0  0  0  0  0  0  0
    9.7064   -5.8904   25.6842 H   0  0  0  0  0  0  0  0  0  0  0  0
   11.7606   -4.5713   24.8754 H   0  0  0  0  0  0  0  0  0  0  0  0
   11.3086   -1.0182   21.7229 H   0  0  0  0  0  0  0  0  0  0  0  0
  1  2  2  0
  2  3  1  0
  3  4  1  0
  4  5  2  0
  5  6  1  0
  6  7  2  0
  7  8  1  0
  8  9  2  0
  9 10  1  0
  7 11  1  0
  6 12  1  0
  5 13  1  0
  3 14  1  0
  2 15  1  0
 15 16  2  0
 16 17  1  0
 17 18  2  0
 18 19  1  0
 19 20  1  0
 20 21  2  0
 21 22  1  0
 22 23  2  0
 21 24  1  0
 20 25  1  0
 19 26  1  0
 16 27  1  0
  9  4  1  0
 23 15  1  0
 22 18  1  0
M  END
>  <plip>  (1) 
-0.10344827586206896

>  <filename>  (1) 
[H][c]1[n][c]2[c]([n][c]1[C](=[O])[N]([H])[c]1[c]([H])[n][c]([H])[c]([H])[c]1[H])[c]([H])[c]([H])[n]2[H]

$$$$
