
     RDKit          3D

 32 33  0  0  0  0  0  0  0  0999 V2000
    5.9936    5.1004   21.9904 H   0  0  0  0  0  0  0  0  0  0  0  0
    6.8027    5.1702   22.5377 O   0  0  0  0  0  0  0  0  0  0  0  0
    7.0755    3.8645   22.6178 C   0  0  0  0  0  0  0  0  0  0  0  0
    6.3126    3.0910   22.0720 O   0  0  0  0  0  0  0  0  0  0  0  0
    8.3906    3.4369   23.4482 C   0  0  0  0  0  0  0  0  0  0  0  0
    8.7412    4.0686   24.4253 O   0  0  0  0  0  0  0  0  0  0  0  0
    9.1145    2.2165   23.0407 C   0  0  0  0  0  0  0  0  0  0  0  0
    9.7065    1.7347   23.8141 H   0  0  0  0  0  0  0  0  0  0  0  0
    9.0778    1.7918   21.7712 C   0  0  0  0  0  0  0  0  0  0  0  0
    8.6779    2.6650   20.8095 O   0  0  0  0  0  0  0  0  0  0  0  0
    7.8732    2.3166   20.3979 H   0  0  0  0  0  0  0  0  0  0  0  0
    9.5546    0.4480   21.2717 C   0  0  0  0  0  0  0  0  0  0  0  0
    9.6932    0.5064   20.1883 H   0  0  0  0  0  0  0  0  0  0  0  0
   10.5334    0.2562   21.7195 H   0  0  0  0  0  0  0  0  0  0  0  0
    8.6412   -0.6942   21.6144 C   0  0  0  0  0  0  0  0  0  0  0  0
    8.7532   -1.6487   22.5884 C   0  0  0  0  0  0  0  0  0  0  0  0
    9.6422   -1.8297   23.1762 H   0  0  0  0  0  0  0  0  0  0  0  0
    7.5119   -2.3403   22.6763 C   0  0  0  0  0  0  0  0  0  0  0  0
    7.2588   -3.1328   23.3666 H   0  0  0  0  0  0  0  0  0  0  0  0
    6.6847   -1.7990   21.7286 C   0  0  0  0  0  0  0  0  0  0  0  0
    5.6501   -1.9856   21.4741 H   0  0  0  0  0  0  0  0  0  0  0  0
    7.3801   -0.8213   21.0511 N   0  0  0  0  0  0  0  0  0  0  0  0
    6.8025   -0.0682   19.9939 C   0  0  0  0  0  0  0  0  0  0  0  0
    7.3030   -0.0921   18.6807 C   0  0  0  0  0  0  0  0  0  0  0  0
    8.2019   -0.6576   18.4332 H   0  0  0  0  0  0  0  0  0  0  0  0
    6.7216    0.5598   17.6649 N   0  0  0  0  0  0  0  0  0  0  0  0
    5.6110    1.2683   17.9202 C   0  0  0  0  0  0  0  0  0  0  0  0
    5.1507    1.7723   17.0721 H   0  0  0  0  0  0  0  0  0  0  0  0
    5.0455    1.3595   19.1965 C   0  0  0  0  0  0  0  0  0  0  0  0
    4.1430    1.9413   19.3511 H   0  0  0  0  0  0  0  0  0  0  0  0
    5.6525    0.6839   20.2539 C   0  0  0  0  0  0  0  0  0  0  0  0
    5.2799    0.7557   21.2761 H   0  0  0  0  0  0  0  0  0  0  0  0
  1  2  1  0
  2  3  1  0
  3  4  2  0
  3  5  1  0
  5  6  2  0
  5  7  1  0
  7  8  1  0
  7  9  2  3
  9 10  1  0
 10 11  1  0
  9 12  1  0
 12 13  1  0
 12 14  1  0
 12 15  1  0
 15 16  2  0
 16 17  1  0
 16 18  1  0
 18 19  1  0
 18 20  2  0
 20 21  1  0
 20 22  1  0
 22 23  1  0
 23 24  2  0
 24 25  1  0
 24 26  1  0
 26 27  2  0
 27 28  1  0
 27 29  1  0
 29 30  1  0
 29 31  2  0
 31 32  1  0
 22 15  1  0
 31 23  1  0
M  END
>  <plip>  (1) 
-0.14285714285714285

>  <filename>  (1) 
[H][O][C](=[O])[C](=[O])[C]([H])=[C]([O][H])[C]([H])([H])[c]1[c]([H])[c]([H])[c]([H])[n]1-[c]1[c]([H])[n][c]([H])[c]([H])[c]1[H]

$$$$
