
     RDKit          3D

 27 29  0  0  0  0  0  0  0  0999 V2000
    4.9185    1.7877   16.9953 H   0  0  0  0  0  0  0  0  0  0  0  0
    5.3988    1.2944   17.8396 C   0  0  0  0  0  0  0  0  0  0  0  0
    6.5627    0.6791   17.5755 N   0  0  0  0  0  0  0  0  0  0  0  0
    7.1814    0.0647   18.5911 C   0  0  0  0  0  0  0  0  0  0  0  0
    8.1260   -0.4287   18.3720 H   0  0  0  0  0  0  0  0  0  0  0  0
    6.6678    0.0125   19.8988 C   0  0  0  0  0  0  0  0  0  0  0  0
    7.3515   -0.6935   20.9412 N   0  0  0  0  0  0  0  0  0  0  0  0
    8.3058   -0.2131   21.8308 C   0  0  0  0  0  0  0  0  0  0  0  0
    8.7919    1.2091   21.8074 C   0  0  0  0  0  0  0  0  0  0  0  0
    8.3634    2.0048   20.9821 O   0  0  0  0  0  0  0  0  0  0  0  0
    9.8123    1.6482   22.7832 C   0  0  0  0  0  0  0  0  0  0  0  0
   10.3581    0.8075   23.7178 O   0  0  0  0  0  0  0  0  0  0  0  0
   11.2465    1.5311   24.4327 C   0  0  0  0  0  0  0  0  0  0  0  0
   11.7618    0.9954   25.2168 H   0  0  0  0  0  0  0  0  0  0  0  0
   11.2923    2.8148   23.9864 C   0  0  0  0  0  0  0  0  0  0  0  0
   11.9114    3.6116   24.3672 H   0  0  0  0  0  0  0  0  0  0  0  0
   10.3598    2.8927   22.9120 C   0  0  0  0  0  0  0  0  0  0  0  0
   10.0960    3.7390   22.2880 H   0  0  0  0  0  0  0  0  0  0  0  0
    8.7185   -1.1486   22.6444 N   0  0  0  0  0  0  0  0  0  0  0  0
    8.0011   -2.2338   22.2670 N   0  0  0  0  0  0  0  0  0  0  0  0
    8.0858   -3.1257   22.7201 H   0  0  0  0  0  0  0  0  0  0  0  0
    7.1287   -2.0474   21.2388 C   0  0  0  0  0  0  0  0  0  0  0  0
    6.3871   -2.8616   20.7329 O   0  0  0  0  0  0  0  0  0  0  0  0
    5.4523    0.6415   20.1638 C   0  0  0  0  0  0  0  0  0  0  0  0
    5.0360    0.6114   21.1726 H   0  0  0  0  0  0  0  0  0  0  0  0
    4.8124    1.3055   19.1096 C   0  0  0  0  0  0  0  0  0  0  0  0
    3.8808    1.8365   19.2602 H   0  0  0  0  0  0  0  0  0  0  0  0
  1  2  1  0
  2  3  2  0
  3  4  1  0
  4  5  1  0
  4  6  2  0
  6  7  1  0
  7  8  1  0
  8  9  1  0
  9 10  2  0
  9 11  1  0
 11 12  1  0
 12 13  1  0
 13 14  1  0
 13 15  2  0
 15 16  1  0
 15 17  1  0
 17 18  1  0
  8 19  2  0
 19 20  1  0
 20 21  1  0
 20 22  1  0
 22 23  2  0
  6 24  1  0
 24 25  1  0
 24 26  2  0
 26 27  1  0
 26  2  1  0
 22  7  1  0
 17 11  2  0
M  END
>  <plip>  (1) 
-0.13793103448275862

>  <filename>  (1) 
[H][c]1[n][c]([H])[c](-[n]2[c]([C](=[O])[c]3[o][c]([H])[c]([H])[c]3[H])[n][n]([H])[c]2=[O])[c]([H])[c]1[H]

$$$$
