
     RDKit          3D

 20 21  0  0  0  0  0  0  0  0999 V2000
    4.9113   -4.6581   23.1516 H   0  0  0  0  0  0  0  0  0  0  0  0
    4.4278   -4.1806   22.3748 N   0  0  0  0  0  0  0  0  0  0  0  0
    5.0836   -3.2750   21.9339 N   0  0  0  0  0  4  0  0  0  0  0  0
    5.5596   -2.3391   21.3390 N   0  0  0  0  0  0  0  0  0  0  0  0
    6.7856   -1.7904   21.6261 C   0  0  0  0  0  0  0  0  0  0  0  0
    7.7005   -2.5818   22.8701 S   0  0  0  0  0  0  0  0  0  0  0  0
    9.2945   -1.3171   22.6547 S   0  0  0  0  0  0  0  0  0  0  0  0
    8.6577   -0.3191   21.3743 C   0  0  0  0  0  0  0  0  0  0  0  0
    9.5442    0.9434   20.8235 S   0  0  0  0  0  0  0  0  0  0  0  0
    7.3408   -0.7274   20.9516 C   0  0  0  0  0  0  0  0  0  0  0  0
    6.6325    0.0003   19.8913 C   0  0  0  0  0  0  0  0  0  0  0  0
    7.1649    0.0682   18.5886 C   0  0  0  0  0  0  0  0  0  0  0  0
    8.1163   -0.4169   18.3682 H   0  0  0  0  0  0  0  0  0  0  0  0
    6.5582    0.6892   17.5741 N   0  0  0  0  0  0  0  0  0  0  0  0
    5.3959    1.3058   17.8313 C   0  0  0  0  0  0  0  0  0  0  0  0
    4.9191    1.7954   16.9828 H   0  0  0  0  0  0  0  0  0  0  0  0
    4.8016    1.3263   19.0968 C   0  0  0  0  0  0  0  0  0  0  0  0
    3.8711    1.8569   19.2416 H   0  0  0  0  0  0  0  0  0  0  0  0
    5.4196    0.6519   20.1499 C   0  0  0  0  0  0  0  0  0  0  0  0
    4.9918    0.6344   21.1582 H   0  0  0  0  0  0  0  0  0  0  0  0
  1  2  1  0
  2  3  2  0
  3  4  2  0
  4  5  1  0
  5  6  1  0
  6  7  1  0
  7  8  1  0
  8  9  2  0
  8 10  1  0
 10 11  1  0
 11 12  2  0
 12 13  1  0
 12 14  1  0
 14 15  2  0
 15 16  1  0
 15 17  1  0
 17 18  1  0
 17 19  2  0
 19 20  1  0
 10  5  2  0
 19 11  1  0
M  CHG  1   3   1
M  END
>  <plip>  (1) 
-0.10714285714285714

>  <filename>  (1) 
[H][N]=[N+]=[N][c]1[s][s][c](=[S])[c]1-[c]1[c]([H])[n][c]([H])[c]([H])[c]1[H]

$$$$
