
     RDKit          3D

 28 30  0  0  0  0  0  0  0  0999 V2000
    8.8654   -1.6578   20.4086 H   0  0  0  0  0  0  0  0  0  0  0  0
    7.9353   -1.8689   20.6062 O   0  0  0  0  0  0  0  0  0  0  0  0
    7.3445   -0.6667   20.9404 N   0  0  0  0  0  0  0  0  0  0  0  0
    6.6593   -0.0018   19.9130 C   0  0  0  0  0  0  0  0  0  0  0  0
    7.1736    0.0457   18.5961 C   0  0  0  0  0  0  0  0  0  0  0  0
    8.1234   -0.4341   18.3679 H   0  0  0  0  0  0  0  0  0  0  0  0
    6.5729    0.6742   17.5801 N   0  0  0  0  0  0  0  0  0  0  0  0
    5.4048    1.2919   17.8372 C   0  0  0  0  0  0  0  0  0  0  0  0
    4.9158    1.7798   16.9957 H   0  0  0  0  0  0  0  0  0  0  0  0
    4.8053    1.3056   19.1043 C   0  0  0  0  0  0  0  0  0  0  0  0
    3.8728    1.8432   19.2611 H   0  0  0  0  0  0  0  0  0  0  0  0
    5.4385    0.6498   20.1638 C   0  0  0  0  0  0  0  0  0  0  0  0
    5.0097    0.6342   21.1697 H   0  0  0  0  0  0  0  0  0  0  0  0
    7.4120   -0.2337   22.2773 C   0  0  0  0  0  0  0  0  0  0  0  0
    7.4409   -1.1842   23.3449 C   0  0  0  0  0  0  0  0  0  0  0  0
    7.4070   -2.2399   23.1005 H   0  0  0  0  0  0  0  0  0  0  0  0
    7.5049   -0.7750   24.6708 C   0  0  0  0  0  0  0  0  0  0  0  0
    7.5323   -1.4788   25.5005 H   0  0  0  0  0  0  0  0  0  0  0  0
    7.5470    0.6114   24.9208 C   0  0  0  0  0  0  0  0  0  0  0  0
    7.5253    1.5650   23.8821 C   0  0  0  0  0  0  0  0  0  0  0  0
    7.4579    1.1381   22.5468 C   0  0  0  0  0  0  0  0  0  0  0  0
    7.4442    1.8708   21.7457 H   0  0  0  0  0  0  0  0  0  0  0  0
    7.5844    2.8571   24.4930 C   0  0  0  0  0  0  0  0  0  0  0  0
    7.5856    3.7978   23.9580 H   0  0  0  0  0  0  0  0  0  0  0  0
    7.6440    2.6655   25.8415 C   0  0  0  0  0  0  0  0  0  0  0  0
    7.7027    3.3965   26.6481 H   0  0  0  0  0  0  0  0  0  0  0  0
    7.6199    1.3069   26.1009 N   0  0  0  0  0  0  0  0  0  0  0  0
    7.6583    0.8661   27.0014 H   0  0  0  0  0  0  0  0  0  0  0  0
  1  2  1  0
  2  3  1  0
  3  4  1  0
  4  5  2  0
  5  6  1  0
  5  7  1  0
  7  8  2  0
  8  9  1  0
  8 10  1  0
 10 11  1  0
 10 12  2  0
 12 13  1  0
  3 14  1  0
 14 15  2  0
 15 16  1  0
 15 17  1  0
 17 18  1  0
 17 19  2  0
 19 20  1  0
 20 21  2  0
 21 22  1  0
 20 23  1  0
 23 24  1  0
 23 25  2  0
 25 26  1  0
 25 27  1  0
 27 28  1  0
 12  4  1  0
 21 14  1  0
 27 19  1  0
M  END
>  <plip>  (1) 
-0.03333333333333333

>  <filename>  (1) 
[H][O][N]([c]1[c]([H])[n][c]([H])[c]([H])[c]1[H])[c]1[c]([H])[c]([H])[c]2[c]([c]1[H])[c]([H])[c]([H])[n]2[H]

$$$$
