
     RDKit          3D

 30 32  0  0  0  0  0  0  0  0999 V2000
   10.0554   -1.4878   22.8220 H   0  0  0  0  0  0  0  0  0  0  0  0
    9.0649   -1.3127   22.4165 C   0  0  0  0  0  0  0  0  0  0  0  0
    7.9174   -1.8258   22.8952 C   0  0  0  0  0  0  0  0  0  0  0  0
    7.7124   -2.5338   24.1829 C   0  0  0  0  0  0  0  0  0  0  0  0
    8.6012   -2.3311   25.2619 C   0  0  0  0  0  0  0  0  0  0  0  0
    9.4086   -1.6090   25.1670 H   0  0  0  0  0  0  0  0  0  0  0  0
    8.4564   -3.0420   26.4584 C   0  0  0  0  0  0  0  0  0  0  0  0
    9.1350   -2.9155   27.2962 H   0  0  0  0  0  0  0  0  0  0  0  0
    7.4183   -3.9565   26.5897 C   0  0  0  0  0  0  0  0  0  0  0  0
    7.2663   -4.6437   27.7298 F   0  0  0  0  0  0  0  0  0  0  0  0
    6.5237   -4.1582   25.5332 C   0  0  0  0  0  0  0  0  0  0  0  0
    5.5302   -5.0458   25.6748 F   0  0  0  0  0  0  0  0  0  0  0  0
    6.6553   -3.4501   24.3465 C   0  0  0  0  0  0  0  0  0  0  0  0
    5.9412   -3.6128   23.5475 H   0  0  0  0  0  0  0  0  0  0  0  0
    6.8453   -1.5534   21.8777 C   0  0  0  0  0  0  0  0  0  0  0  0
    5.7446   -2.0532   21.7553 O   0  0  0  0  0  0  0  0  0  0  0  0
    7.4174   -0.6479   20.9609 N   0  0  0  0  0  0  0  0  0  0  0  0
    6.7093    0.0100   19.9222 C   0  0  0  0  0  0  0  0  0  0  0  0
    7.2089    0.0630   18.5989 C   0  0  0  0  0  0  0  0  0  0  0  0
    8.1503   -0.4277   18.3527 H   0  0  0  0  0  0  0  0  0  0  0  0
    6.5778    0.6655   17.5844 N   0  0  0  0  0  0  0  0  0  0  0  0
    5.4147    1.2791   17.8494 C   0  0  0  0  0  0  0  0  0  0  0  0
    4.9378    1.7823   17.0133 H   0  0  0  0  0  0  0  0  0  0  0  0
    4.8297    1.2897   19.1197 C   0  0  0  0  0  0  0  0  0  0  0  0
    3.8924    1.8193   19.2704 H   0  0  0  0  0  0  0  0  0  0  0  0
    5.4747    0.6318   20.1718 C   0  0  0  0  0  0  0  0  0  0  0  0
    5.0375    0.5834   21.1668 H   0  0  0  0  0  0  0  0  0  0  0  0
    8.8671   -0.6063   21.1164 C   0  0  0  0  0  0  0  0  0  0  0  0
    9.2840    0.4097   21.1176 H   0  0  0  0  0  0  0  0  0  0  0  0
    9.3763   -1.1466   20.3025 H   0  0  0  0  0  0  0  0  0  0  0  0
  1  2  1  0
  2  3  2  0
  3  4  1  0
  4  5  2  0
  5  6  1  0
  5  7  1  0
  7  8  1  0
  7  9  2  0
  9 10  1  0
  9 11  1  0
 11 12  1  0
 11 13  2  0
 13 14  1  0
  3 15  1  0
 15 16  2  0
 15 17  1  0
 17 18  1  0
 18 19  2  0
 19 20  1  0
 19 21  1  0
 21 22  2  0
 22 23  1  0
 22 24  1  0
 24 25  1  0
 24 26  2  0
 26 27  1  0
 17 28  1  0
 28 29  1  0
 28 30  1  0
 28  2  1  0
 13  4  1  0
 26 18  1  0
M  END
>  <plip>  (1) 
-0.07142857142857142

>  <filename>  (1) 
[H][C]1=[C]([c]2[c]([H])[c]([H])[c]([F])[c]([F])[c]2[H])[C](=[O])[N]([c]2[c]([H])[n][c]([H])[c]([H])[c]2[H])[C]1([H])[H]

$$$$
