
     RDKit          3D

 39 42  0  0  0  0  0  0  0  0999 V2000
    4.9194    1.8042   17.0078 H   0  0  0  0  0  0  0  0  0  0  0  0
    5.4226    1.2671   17.8112 C   0  0  0  0  0  0  0  0  0  0  0  0
    6.5560    0.6328   17.4794 N   0  0  0  0  0  0  0  0  0  0  0  0
    7.2088    0.0118   18.4686 C   0  0  0  0  0  0  0  0  0  0  0  0
    8.1252   -0.4953   18.1674 H   0  0  0  0  0  0  0  0  0  0  0  0
    6.8158   -0.0252   19.8248 C   0  0  0  0  0  0  0  0  0  0  0  0
    7.7513   -0.7189   20.8264 C   0  0  2  0  0  0  0  0  0  0  0  0
    8.7119   -0.7691   20.2937 H   0  0  0  0  0  0  0  0  0  0  0  0
    7.3622   -2.1778   21.1612 C   0  0  0  0  0  0  0  0  0  0  0  0
    8.2488   -2.6614   21.5879 H   0  0  0  0  0  0  0  0  0  0  0  0
    7.0895   -2.7078   20.2476 H   0  0  0  0  0  0  0  0  0  0  0  0
    6.2030   -2.2812   22.1495 C   0  0  0  0  0  0  0  0  0  0  0  0
    5.9262   -3.3279   22.3242 H   0  0  0  0  0  0  0  0  0  0  0  0
    5.3275   -1.8193   21.6767 H   0  0  0  0  0  0  0  0  0  0  0  0
    6.5346   -1.5655   23.4893 C   0  0  1  0  0  0  0  0  0  0  0  0
    5.6538   -1.5315   24.1322 H   0  0  0  0  0  0  0  0  0  0  0  0
    7.3893   -2.4198   24.3977 C   0  0  0  0  0  0  0  0  0  0  0  0
    6.7975   -3.2246   25.2226 N   0  0  0  0  0  0  0  0  0  0  0  0
    7.7065   -3.9781   25.9305 C   0  0  0  0  0  0  0  0  0  0  0  0
    7.3644   -4.9368   26.9014 C   0  0  0  0  0  0  0  0  0  0  0  0
    6.3080   -5.0882   27.1038 H   0  0  0  0  0  0  0  0  0  0  0  0
    8.3772   -5.6189   27.5636 C   0  0  0  0  0  0  0  0  0  0  0  0
    8.1244   -6.3689   28.3103 H   0  0  0  0  0  0  0  0  0  0  0  0
    9.7252   -5.3360   27.2522 C   0  0  0  0  0  0  0  0  0  0  0  0
   10.5447   -5.7634   27.8079 H   0  0  0  0  0  0  0  0  0  0  0  0
   10.0728   -4.4430   26.2491 C   0  0  0  0  0  0  0  0  0  0  0  0
   11.1212   -4.3319   25.9937 H   0  0  0  0  0  0  0  0  0  0  0  0
    9.0553   -3.7313   25.6118 C   0  0  0  0  0  0  0  0  0  0  0  0
    9.1423   -2.4575   24.4267 S   0  0  0  0  0  0  0  0  0  0  0  0
    6.9646   -0.1082   23.2254 C   0  0  0  0  0  0  0  0  0  0  0  0
    7.2786    0.3761   24.1567 H   0  0  0  0  0  0  0  0  0  0  0  0
    6.0637    0.4381   22.9165 H   0  0  0  0  0  0  0  0  0  0  0  0
    8.0401    0.0499   22.1391 C   0  0  0  0  0  0  0  0  0  0  0  0
    8.9862   -0.3492   22.5342 H   0  0  0  0  0  0  0  0  0  0  0  0
    8.1838    1.1147   21.9108 H   0  0  0  0  0  0  0  0  0  0  0  0
    5.5901    0.5911   20.1240 C   0  0  0  0  0  0  0  0  0  0  0  0
    5.1659    0.5624   21.1287 H   0  0  0  0  0  0  0  0  0  0  0  0
    4.8942    1.2555   19.1051 C   0  0  0  0  0  0  0  0  0  0  0  0
    3.9646    1.7751   19.3078 H   0  0  0  0  0  0  0  0  0  0  0  0
  1  2  1  0
  2  3  2  0
  3  4  1  0
  4  5  1  0
  4  6  2  0
  6  7  1  0
  7  8  1  6
  7  9  1  0
  9 10  1  0
  9 11  1  0
  9 12  1  0
 12 13  1  0
 12 14  1  0
 12 15  1  0
 15 16  1  1
 15 17  1  0
 17 18  2  0
 18 19  1  0
 19 20  2  0
 20 21  1  0
 20 22  1  0
 22 23  1  0
 22 24  2  0
 24 25  1  0
 24 26  1  0
 26 27  1  0
 26 28  2  0
 28 29  1  0
 15 30  1  0
 30 31  1  0
 30 32  1  0
 30 33  1  0
 33 34  1  0
 33 35  1  0
  6 36  1  0
 36 37  1  0
 36 38  2  0
 38 39  1  0
 38  2  1  0
 33  7  1  0
 29 17  1  0
 28 19  1  0
M  END
>  <plip>  (1) 
-0.06896551724137931

>  <filename>  (1) 
[H][c]1[n][c]([H])[c]([C@]2([H])[C]([H])([H])[C]([H])([H])[C@@]([H])([c]3[n][c]4[c]([H])[c]([H])[c]([H])[c]([H])[c]4[s]3)[C]([H])([H])[C]2([H])[H])[c]([H])[c]1[H]

$$$$
