
     RDKit          3D

 37 39  0  0  0  0  0  0  0  0999 V2000
    4.9660    1.7846   16.9800 H   0  0  0  0  0  0  0  0  0  0  0  0
    5.4350    1.2876   17.8247 C   0  0  0  0  0  0  0  0  0  0  0  0
    6.6017    0.6657   17.5773 N   0  0  0  0  0  0  0  0  0  0  0  0
    7.2091    0.0536   18.6015 C   0  0  0  0  0  0  0  0  0  0  0  0
    8.1653   -0.4303   18.4077 H   0  0  0  0  0  0  0  0  0  0  0  0
    6.6679    0.0020   19.8991 C   0  0  0  0  0  0  0  0  0  0  0  0
    7.3633   -0.7007   20.9299 N   0  0  0  0  0  0  0  0  0  0  0  0
    8.7263   -0.5868   20.9254 N   0  0  0  0  0  0  0  0  0  0  0  0
    9.4029   -1.1455   21.8924 C   0  0  0  0  0  0  0  0  0  0  0  0
   10.9062   -0.8843   21.9235 C   0  0  0  0  0  0  0  0  0  0  0  0
   11.3991   -1.5707   22.6203 H   0  0  0  0  0  0  0  0  0  0  0  0
   11.2974   -1.1002   20.9246 H   0  0  0  0  0  0  0  0  0  0  0  0
   11.3011    0.4859   22.2512 N   0  0  0  0  0  0  0  0  0  0  0  0
   11.4130    1.1319   21.4897 H   0  0  0  0  0  0  0  0  0  0  0  0
   11.1551    1.0512   23.4879 C   0  0  0  0  0  0  0  0  0  0  0  0
   10.7689    0.4229   24.4575 O   0  0  0  0  0  0  0  0  0  0  0  0
   11.4816    2.5314   23.5436 C   0  0  0  0  0  0  0  0  0  0  0  0
   12.5761    3.1142   22.8727 C   0  0  0  0  0  0  0  0  0  0  0  0
   13.1526    2.5485   22.1396 H   0  0  0  0  0  0  0  0  0  0  0  0
   12.9367    4.4378   23.1428 C   0  0  0  0  0  0  0  0  0  0  0  0
   13.7959    4.8723   22.6414 H   0  0  0  0  0  0  0  0  0  0  0  0
   12.1889    5.2105   24.0408 C   0  0  0  0  0  0  0  0  0  0  0  0
   12.4953    6.2298   24.2634 H   0  0  0  0  0  0  0  0  0  0  0  0
   11.0475    4.6625   24.6356 C   0  0  0  0  0  0  0  0  0  0  0  0
   10.4218    5.2404   25.3100 H   0  0  0  0  0  0  0  0  0  0  0  0
   10.7052    3.3306   24.3993 C   0  0  0  0  0  0  0  0  0  0  0  0
    9.8429    2.8948   24.9081 H   0  0  0  0  0  0  0  0  0  0  0  0
    8.8076   -2.0559   22.9158 C   0  0  0  0  0  0  0  0  0  0  0  0
    9.4684   -2.6976   23.7253 O   0  0  0  0  0  0  0  0  0  0  0  0
    7.3662   -2.1384   22.8283 C   0  0  0  0  0  0  0  0  0  0  0  0
    6.8663   -2.7513   23.5609 H   0  0  0  0  0  0  0  0  0  0  0  0
    6.7085   -1.4732   21.8552 C   0  0  0  0  0  0  0  0  0  0  0  0
    5.6314   -1.5370   21.7453 H   0  0  0  0  0  0  0  0  0  0  0  0
    5.4531    0.6551   20.1499 C   0  0  0  0  0  0  0  0  0  0  0  0
    5.0445    0.6826   21.1608 H   0  0  0  0  0  0  0  0  0  0  0  0
    4.8315    1.3112   19.0855 C   0  0  0  0  0  0  0  0  0  0  0  0
    3.8943    1.8354   19.2265 H   0  0  0  0  0  0  0  0  0  0  0  0
  1  2  1  0
  2  3  2  0
  3  4  1  0
  4  5  1  0
  4  6  2  0
  6  7  1  0
  7  8  1  0
  8  9  2  0
  9 10  1  0
 10 11  1  0
 10 12  1  0
 10 13  1  0
 13 14  1  0
 13 15  1  0
 15 16  2  0
 15 17  1  0
 17 18  2  0
 18 19  1  0
 18 20  1  0
 20 21  1  0
 20 22  2  0
 22 23  1  0
 22 24  1  0
 24 25  1  0
 24 26  2  0
 26 27  1  0
  9 28  1  0
 28 29  2  0
 28 30  1  0
 30 31  1  0
 30 32  2  0
 32 33  1  0
  6 34  1  0
 34 35  1  0
 34 36  2  0
 36 37  1  0
 36  2  1  0
 32  7  1  0
 26 17  1  0
M  END
>  <plip>  (1) 
-0.10714285714285714

>  <filename>  (1) 
[H][c]1[n][c]([H])[c](-[n]2[n][c]([C]([H])([H])[N]([H])[C](=[O])[c]3[c]([H])[c]([H])[c]([H])[c]([H])[c]3[H])[c](=[O])[c]([H])[c]2[H])[c]([H])[c]1[H]

$$$$
