
     RDKit          3D

 40 43  0  0  0  0  0  0  0  0999 V2000
    5.3435    1.3032   17.5680 H   0  0  0  0  0  0  0  0  0  0  0  0
    5.8490    0.9203   18.4545 C   0  0  0  0  0  0  0  0  0  0  0  0
    7.1686    0.7175   18.3506 N   0  0  0  0  0  0  0  0  0  0  0  0
    7.7994    0.2481   19.4376 C   0  0  0  0  0  0  0  0  0  0  0  0
    8.8786    0.1513   19.3246 H   0  0  0  0  0  0  0  0  0  0  0  0
    7.1870   -0.1002   20.6566 C   0  0  0  0  0  0  0  0  0  0  0  0
    8.0653   -0.7329   21.7669 C   0  0  0  0  0  0  0  0  0  0  0  0
    9.2561    0.2286   22.1033 C   0  0  0  0  0  0  0  0  0  0  0  0
   10.5938   -0.1521   22.0321 C   0  0  0  0  0  0  0  0  0  0  0  0
   10.8806   -1.1098   21.6164 H   0  0  0  0  0  0  0  0  0  0  0  0
   11.6584    0.6660   22.4892 C   0  0  0  0  0  0  0  0  0  0  0  0
   12.6751    0.2779   22.4492 H   0  0  0  0  0  0  0  0  0  0  0  0
   11.4232    1.9250   22.9821 C   0  0  0  0  0  0  0  0  0  0  0  0
   12.2261    2.5676   23.3460 H   0  0  0  0  0  0  0  0  0  0  0  0
   10.0901    2.4253   22.9731 C   0  0  0  0  0  0  0  0  0  0  0  0
    9.7934    3.7739   23.3448 C   0  0  0  0  0  0  0  0  0  0  0  0
   10.6045    4.4282   23.6736 H   0  0  0  0  0  0  0  0  0  0  0  0
    8.5028    4.2215   23.2387 C   0  0  0  0  0  0  0  0  0  0  0  0
    8.2203    5.2453   23.4620 H   0  0  0  0  0  0  0  0  0  0  0  0
    7.4948    3.3191   22.8039 C   0  0  0  0  0  0  0  0  0  0  0  0
    6.4699    3.6632   22.6935 H   0  0  0  0  0  0  0  0  0  0  0  0
    7.7063    2.0559   22.5209 N   0  0  0  0  0  0  0  0  0  0  0  0
    9.0006    1.5828   22.5397 C   0  0  0  0  0  0  0  0  0  0  0  0
    7.2766   -1.0742   23.0904 C   0  0  0  0  0  0  0  0  0  0  0  0
    6.7289   -0.1995   23.4578 H   0  0  0  0  0  0  0  0  0  0  0  0
    8.0246   -1.3314   23.8532 H   0  0  0  0  0  0  0  0  0  0  0  0
    6.3389   -2.2885   22.9530 C   0  0  0  0  0  0  0  0  0  0  0  0
    5.5414   -2.0881   22.2166 H   0  0  0  0  0  0  0  0  0  0  0  0
    5.8916   -2.5610   23.9174 H   0  0  0  0  0  0  0  0  0  0  0  0
    7.0367   -3.4371   22.5120 O   0  0  0  0  0  0  0  0  0  0  0  0
    7.5495   -3.2211   21.2111 C   0  0  0  0  0  0  0  0  0  0  0  0
    7.9843   -4.1742   20.8935 H   0  0  0  0  0  0  0  0  0  0  0  0
    6.7242   -2.9773   20.5158 H   0  0  0  0  0  0  0  0  0  0  0  0
    8.6063   -2.1164   21.2446 C   0  0  0  0  0  0  0  0  0  0  0  0
    9.3619   -2.4554   21.9625 H   0  0  0  0  0  0  0  0  0  0  0  0
    9.0796   -1.9907   20.2630 H   0  0  0  0  0  0  0  0  0  0  0  0
    5.8148    0.1826   20.7474 C   0  0  0  0  0  0  0  0  0  0  0  0
    5.2771    0.0418   21.6824 H   0  0  0  0  0  0  0  0  0  0  0  0
    5.1344    0.6813   19.6294 C   0  0  0  0  0  0  0  0  0  0  0  0
    4.0737    0.9040   19.6768 H   0  0  0  0  0  0  0  0  0  0  0  0
  1  2  1  0
  2  3  2  0
  3  4  1  0
  4  5  1  0
  4  6  2  0
  6  7  1  0
  7  8  1  0
  8  9  2  0
  9 10  1  0
  9 11  1  0
 11 12  1  0
 11 13  2  0
 13 14  1  0
 13 15  1  0
 15 16  2  0
 16 17  1  0
 16 18  1  0
 18 19  1  0
 18 20  2  0
 20 21  1  0
 20 22  1  0
 22 23  2  0
  7 24  1  0
 24 25  1  0
 24 26  1  0
 24 27  1  0
 27 28  1  0
 27 29  1  0
 27 30  1  0
 30 31  1  0
 31 32  1  0
 31 33  1  0
 31 34  1  0
 34 35  1  0
 34 36  1  0
  6 37  1  0
 37 38  1  0
 37 39  2  0
 39 40  1  0
 39  2  1  0
 34  7  1  0
 23  8  1  0
 23 15  1  0
M  END
>  <plip>  (1) 
-0.0

>  <filename>  (1) 
[H][c]1[n][c]([H])[c]([C]2([c]3[c]([H])[c]([H])[c]([H])[c]4[c]([H])[c]([H])[c]([H])[n][c]34)[C]([H])([H])[C]([H])([H])[O][C]([H])([H])[C]2([H])[H])[c]([H])[c]1[H]

$$$$
