
     RDKit          3D

 47 49  0  0  0  0  0  0  0  0999 V2000
    8.0728   -0.0670   21.9132 C   0  0  0  0  0  0  0  0  0  0  0  0
    7.4845   -0.9798   20.8210 C   0  0  0  0  0  0  0  0  0  0  0  0
    6.8104   -0.1326   19.7332 C   0  0  0  0  0  0  0  0  0  0  0  0
    5.5894    0.5048   19.9960 C   0  0  0  0  0  0  0  0  0  0  0  0
    4.9733    1.2337   18.9762 C   0  0  0  0  0  0  0  0  0  0  0  0
    5.6089    1.3264   17.7327 C   0  0  0  0  0  0  0  0  0  0  0  0
    6.7965    0.7573   17.4698 N   0  0  0  0  0  0  0  0  0  0  0  0
    7.3780    0.0758   18.4648 C   0  0  0  0  0  0  0  0  0  0  0  0
    8.3638   -0.3316   18.2405 H   0  0  0  0  0  0  0  0  0  0  0  0
    5.1453    1.8737   16.9135 H   0  0  0  0  0  0  0  0  0  0  0  0
    4.0245    1.7339   19.1335 H   0  0  0  0  0  0  0  0  0  0  0  0
    5.1314    0.4134   20.9830 H   0  0  0  0  0  0  0  0  0  0  0  0
    6.5488   -2.0596   21.3683 C   0  0  0  0  0  0  0  0  0  0  0  0
    5.9260   -2.8625   20.5474 N   0  0  0  0  0  0  0  0  0  0  0  0
    5.1787   -3.6700   21.3844 O   0  0  0  0  0  0  0  0  0  0  0  0
    5.4325   -3.2852   22.6400 C   0  0  0  0  0  0  0  0  0  0  0  0
    4.5771   -3.9176   23.7043 C   0  0  0  0  0  0  0  0  0  0  0  0
    5.1613   -3.9580   25.1255 C   0  0  0  0  0  0  0  0  0  0  0  0
    6.2396   -5.0150   25.3732 C   0  0  0  0  0  0  0  0  0  0  0  0
    6.7487   -5.0650   26.8187 C   0  0  0  0  0  0  0  0  0  0  0  0
    5.7018   -5.3521   27.8414 N   0  0  0  0  0  4  0  0  0  0  0  0
    5.0518   -6.7127   27.7282 C   0  0  0  0  0  0  0  0  0  0  0  0
    4.4481   -7.0006   29.1118 C   0  0  0  0  0  0  0  0  0  0  0  0
    5.1207   -6.0072   30.0853 C   0  0  0  0  0  0  0  0  0  0  0  0
    6.2053   -5.3092   29.2632 C   0  0  0  0  0  0  0  0  0  0  0  0
    6.4028   -4.2833   29.5847 H   0  0  0  0  0  0  0  0  0  0  0  0
    7.1524   -5.8614   29.3141 H   0  0  0  0  0  0  0  0  0  0  0  0
    5.5493   -6.5001   30.9644 H   0  0  0  0  0  0  0  0  0  0  0  0
    4.3963   -5.2792   30.4688 H   0  0  0  0  0  0  0  0  0  0  0  0
    3.3613   -6.8699   29.1071 H   0  0  0  0  0  0  0  0  0  0  0  0
    4.6370   -8.0425   29.3869 H   0  0  0  0  0  0  0  0  0  0  0  0
    5.8325   -7.4420   27.4829 H   0  0  0  0  0  0  0  0  0  0  0  0
    4.3144   -6.7272   26.9226 H   0  0  0  0  0  0  0  0  0  0  0  0
    4.9610   -4.6193   27.7642 H   0  0  0  0  0  0  0  0  0  0  0  0
    7.2358   -4.1107   27.0623 H   0  0  0  0  0  0  0  0  0  0  0  0
    7.5191   -5.8500   26.8971 H   0  0  0  0  0  0  0  0  0  0  0  0
    5.8921   -6.0134   25.0791 H   0  0  0  0  0  0  0  0  0  0  0  0
    7.1006   -4.7958   24.7342 H   0  0  0  0  0  0  0  0  0  0  0  0
    4.3188   -4.1256   25.8080 H   0  0  0  0  0  0  0  0  0  0  0  0
    5.5696   -2.9653   25.3586 H   0  0  0  0  0  0  0  0  0  0  0  0
    4.2588   -4.9031   23.3433 H   0  0  0  0  0  0  0  0  0  0  0  0
    3.6720   -3.2912   23.7367 H   0  0  0  0  0  0  0  0  0  0  0  0
    6.2993   -2.3175   22.7022 N   0  0  0  0  0  0  0  0  0  0  0  0
    8.2970   -1.5573   20.3538 H   0  0  0  0  0  0  0  0  0  0  0  0
    8.6358   -0.6465   22.6481 H   0  0  0  0  0  0  0  0  0  0  0  0
    7.2797    0.4837   22.4386 H   0  0  0  0  0  0  0  0  0  0  0  0
    8.7555    0.6682   21.4724 H   0  0  0  0  0  0  0  0  0  0  0  0
  1  2  1  0
  2  3  1  0
  3  4  2  0
  4  5  1  0
  5  6  2  0
  6  7  1  0
  7  8  2  0
  8  9  1  0
  6 10  1  0
  5 11  1  0
  4 12  1  0
  2 13  1  0
 13 14  2  0
 14 15  1  0
 15 16  1  0
 16 17  1  0
 17 18  1  0
 18 19  1  0
 19 20  1  0
 20 21  1  0
 21 22  1  0
 22 23  1  0
 23 24  1  0
 24 25  1  0
 25 26  1  0
 25 27  1  0
 24 28  1  0
 24 29  1  0
 23 30  1  0
 23 31  1  0
 22 32  1  0
 22 33  1  0
 21 34  1  0
 20 35  1  0
 20 36  1  0
 19 37  1  0
 19 38  1  0
 18 39  1  0
 18 40  1  0
 17 41  1  0
 17 42  1  0
 16 43  2  0
  2 44  1  0
  1 45  1  0
  1 46  1  0
  1 47  1  0
  8  3  1  0
 43 13  1  0
 25 21  1  0
M  CHG  1  21   1
M  END
>  <plip>  (1) 
-0.06896551724137931

>  <filename>  (1) 
[H][c]1[n][c]([H])[c]([C]([H])([c]2[n][o][c]([C]([H])([H])[C]([H])([H])[C]([H])([H])[C]([H])([H])[N+]3([H])[C]([H])([H])[C]([H])([H])[C]([H])([H])[C]3([H])[H])[n]2)[C]([H])([H])[H])[c]([H])[c]1[H]

$$$$
