
     RDKit          3D

 41 43  0  0  0  0  0  0  0  0999 V2000
    8.8462   -0.4124   21.1657 C   0  0  0  0  0  0  0  0  0  0  0  0
    7.3782   -0.7317   20.9907 C   0  0  0  0  0  0  0  0  0  0  0  0
    6.7185   -1.6199   21.7580 C   0  0  0  0  0  0  0  0  0  0  0  0
    7.3342   -2.4461   22.8203 C   0  0  0  0  0  0  0  0  0  0  0  0
    8.5357   -2.4846   23.0537 O   0  0  0  0  0  0  0  0  0  0  0  0
    6.4584   -3.2017   23.5545 N   0  0  0  0  0  0  0  0  0  0  0  0
    6.8769   -3.8342   24.8058 C   0  0  0  0  0  0  0  0  0  0  0  0
    7.3214   -2.8582   25.9250 C   0  0  0  0  0  0  0  0  0  0  0  0
    6.2360   -1.9079   26.3257 C   0  0  0  0  0  0  0  0  0  0  0  0
    5.9973   -0.6622   25.8258 C   0  0  0  0  0  0  0  0  0  0  0  0
    4.8096   -0.1655   26.3331 N   0  0  0  0  0  0  0  0  0  0  0  0
    4.2524   -1.0936   27.1639 C   0  0  0  0  0  0  0  0  0  0  0  0
    3.0644   -1.0859   27.9147 C   0  0  0  0  0  0  0  0  0  0  0  0
    2.7921   -2.2310   28.6505 C   0  0  0  0  0  0  0  0  0  0  0  0
    3.5804   -3.3283   28.6772 N   0  0  0  0  0  0  0  0  0  0  0  0
    4.7101   -3.3142   27.9652 C   0  0  0  0  0  0  0  0  0  0  0  0
    5.1152   -2.2121   27.1837 C   0  0  0  0  0  0  0  0  0  0  0  0
    5.3142   -4.2237   28.0203 H   0  0  0  0  0  0  0  0  0  0  0  0
    1.8938   -2.3033   29.2644 H   0  0  0  0  0  0  0  0  0  0  0  0
    2.3868   -0.2438   27.9395 H   0  0  0  0  0  0  0  0  0  0  0  0
    4.4046    0.7297   26.1290 H   0  0  0  0  0  0  0  0  0  0  0  0
    6.5798   -0.1103   25.1008 H   0  0  0  0  0  0  0  0  0  0  0  0
    8.2104   -2.3176   25.5778 H   0  0  0  0  0  0  0  0  0  0  0  0
    7.6347   -3.4508   26.7971 H   0  0  0  0  0  0  0  0  0  0  0  0
    6.0437   -4.4517   25.1629 H   0  0  0  0  0  0  0  0  0  0  0  0
    7.7220   -4.4954   24.5854 H   0  0  0  0  0  0  0  0  0  0  0  0
    5.4821   -3.0031   23.4155 H   0  0  0  0  0  0  0  0  0  0  0  0
    5.6568   -1.7712   21.5888 H   0  0  0  0  0  0  0  0  0  0  0  0
    6.6320   -0.0147   19.9128 C   0  0  0  0  0  0  0  0  0  0  0  0
    5.4127    0.6416   20.1467 C   0  0  0  0  0  0  0  0  0  0  0  0
    4.7945    1.3152   19.0927 C   0  0  0  0  0  0  0  0  0  0  0  0
    5.3970    1.2957   17.8297 C   0  0  0  0  0  0  0  0  0  0  0  0
    6.5586    0.6728   17.5797 N   0  0  0  0  0  0  0  0  0  0  0  0
    7.1555    0.0570   18.6073 C   0  0  0  0  0  0  0  0  0  0  0  0
    8.1114   -0.4169   18.3846 H   0  0  0  0  0  0  0  0  0  0  0  0
    4.9323    1.7972   16.9824 H   0  0  0  0  0  0  0  0  0  0  0  0
    3.8654    1.8533   19.2353 H   0  0  0  0  0  0  0  0  0  0  0  0
    4.9908    0.6435   21.1515 H   0  0  0  0  0  0  0  0  0  0  0  0
    9.1239    0.4378   20.5383 H   0  0  0  0  0  0  0  0  0  0  0  0
    9.0817   -0.1736   22.2088 H   0  0  0  0  0  0  0  0  0  0  0  0
    9.4776   -1.2716   20.9177 H   0  0  0  0  0  0  0  0  0  0  0  0
  1  2  1  0
  2  3  2  3
  3  4  1  0
  4  5  2  0
  4  6  1  0
  6  7  1  0
  7  8  1  0
  8  9  1  0
  9 10  2  0
 10 11  1  0
 11 12  1  0
 12 13  2  0
 13 14  1  0
 14 15  2  0
 15 16  1  0
 16 17  2  0
 16 18  1  0
 14 19  1  0
 13 20  1  0
 11 21  1  0
 10 22  1  0
  8 23  1  0
  8 24  1  0
  7 25  1  0
  7 26  1  0
  6 27  1  0
  3 28  1  0
  2 29  1  0
 29 30  2  0
 30 31  1  0
 31 32  2  0
 32 33  1  0
 33 34  2  0
 34 35  1  0
 32 36  1  0
 31 37  1  0
 30 38  1  0
  1 39  1  0
  1 40  1  0
  1 41  1  0
 17  9  1  0
 34 29  1  0
 17 12  1  0
M  END
>  <plip>  (1) 
-0.03571428571428571

>  <filename>  (1) 
[H][C]([C](=[O])[N]([H])[C]([H])([H])[C]([H])([H])[c]1[c]([H])[n]([H])[c]2[c]([H])[c]([H])[n][c]([H])[c]12)=[C]([c]1[c]([H])[n][c]([H])[c]([H])[c]1[H])[C]([H])([H])[H]

$$$$
