
     RDKit          3D

 19 19  0  0  0  0  0  0  0  0999 V2000
    4.9674    1.7022   17.0513 H   0  0  0  0  0  0  0  0  0  0  0  0
    5.4705    1.2274   17.8927 C   0  0  0  0  0  0  0  0  0  0  0  0
    6.6403    0.6167   17.6298 N   0  0  0  0  0  0  0  0  0  0  0  0
    7.2961    0.0467   18.6487 C   0  0  0  0  0  0  0  0  0  0  0  0
    8.2366   -0.4578   18.4401 H   0  0  0  0  0  0  0  0  0  0  0  0
    6.8146    0.0664   19.9729 C   0  0  0  0  0  0  0  0  0  0  0  0
    7.6257   -0.4547   20.9822 O   0  0  0  0  0  0  0  0  0  0  0  0
    6.9420   -1.0630   22.3562 S   0  0  0  0  0  0  0  0  0  0  0  0
    6.5786    0.0509   23.1903 O   0  0  0  0  0  0  0  0  0  0  0  0
    6.0182   -2.1101   22.0142 O   0  0  0  0  0  0  0  0  0  0  0  0
    8.2566   -1.7928   22.8500 O   0  0  0  0  0  0  0  0  0  0  0  0
    9.3742   -0.9868   22.9885 C   0  0  0  0  0  0  0  0  0  0  0  0
    9.8229   -0.6934   22.0374 H   0  0  0  0  0  0  0  0  0  0  0  0
   10.2576   -1.7393   23.6565 F   0  0  0  0  0  0  0  0  0  0  0  0
    9.1070    0.0886   23.7358 F   0  0  0  0  0  0  0  0  0  0  0  0
    5.5832    0.6499   20.2390 C   0  0  0  0  0  0  0  0  0  0  0  0
    5.1900    0.6502   21.2529 H   0  0  0  0  0  0  0  0  0  0  0  0
    4.9034    1.2465   19.1716 C   0  0  0  0  0  0  0  0  0  0  0  0
    3.9534    1.7371   19.3315 H   0  0  0  0  0  0  0  0  0  0  0  0
  1  2  1  0
  2  3  2  0
  3  4  1  0
  4  5  1  0
  4  6  2  0
  6  7  1  0
  7  8  1  0
  8  9  2  0
  8 10  2  0
  8 11  1  0
 11 12  1  0
 12 13  1  0
 12 14  1  0
 12 15  1  0
  6 16  1  0
 16 17  1  0
 16 18  2  0
 18 19  1  0
 18  2  1  0
M  END
>  <plip>  (1) 
-0.07142857142857142

>  <filename>  (1) 
[H][c]1[n][c]([H])[c]([O][S](=[O])(=[O])[O][C]([H])([F])[F])[c]([H])[c]1[H]

$$$$
