
     RDKit          3D

 44 46  0  0  0  0  0  0  0  0999 V2000
    8.9176    4.5005   23.1115 C   0  0  0  0  0  0  0  0  0  0  0  0
    8.6419    3.2850   22.6164 C   0  0  0  0  0  0  0  0  0  0  0  0
    9.5613    2.0889   22.7474 C   0  0  0  0  0  0  0  0  0  0  0  0
   11.0181    2.3680   22.3488 C   0  0  0  0  0  0  0  0  0  0  0  0
   11.5648    1.0649   21.7430 C   0  0  0  0  0  0  0  0  0  0  0  0
   10.3640    0.1261   21.5719 C   0  0  0  0  0  0  0  0  0  0  0  0
    9.1532    1.0020   21.7688 N   0  0  0  0  0  4  0  0  0  0  0  0
    7.9006    0.2734   22.1099 C   0  0  0  0  0  0  0  0  0  0  0  0
    7.3852   -0.6258   20.9741 C   0  0  0  0  0  0  0  0  0  0  0  0
    6.6684    0.0821   19.8387 C   0  0  0  0  0  0  0  0  0  0  0  0
    5.4507    0.7470   20.0536 C   0  0  0  0  0  0  0  0  0  0  0  0
    4.8361    1.4015   18.9808 C   0  0  0  0  0  0  0  0  0  0  0  0
    5.4580    1.3664   17.7250 C   0  0  0  0  0  0  0  0  0  0  0  0
    6.6044    0.7116   17.4890 N   0  0  0  0  0  0  0  0  0  0  0  0
    7.1706    0.0834   18.5259 C   0  0  0  0  0  0  0  0  0  0  0  0
    8.0721   -0.4891   18.3030 H   0  0  0  0  0  0  0  0  0  0  0  0
    5.0109    1.8695   16.8690 H   0  0  0  0  0  0  0  0  0  0  0  0
    3.9002    1.9357   19.0988 H   0  0  0  0  0  0  0  0  0  0  0  0
    4.9886    0.7217   21.0448 H   0  0  0  0  0  0  0  0  0  0  0  0
    8.2286   -1.2015   20.5730 H   0  0  0  0  0  0  0  0  0  0  0  0
    6.6935   -1.3585   21.4110 H   0  0  0  0  0  0  0  0  0  0  0  0
    8.0734   -0.3558   22.9962 H   0  0  0  0  0  0  0  0  0  0  0  0
    7.1250    0.9954   22.3968 H   0  0  0  0  0  0  0  0  0  0  0  0
    8.9538    1.5499   20.8980 H   0  0  0  0  0  0  0  0  0  0  0  0
   10.3677   -0.6570   22.3423 H   0  0  0  0  0  0  0  0  0  0  0  0
   10.3436   -0.3725   20.5967 H   0  0  0  0  0  0  0  0  0  0  0  0
   12.3252    0.5815   22.3645 H   0  0  0  0  0  0  0  0  0  0  0  0
   12.0225    1.2952   20.7832 H   0  0  0  0  0  0  0  0  0  0  0  0
   11.6055    2.7154   23.1980 H   0  0  0  0  0  0  0  0  0  0  0  0
   11.0409    3.1764   21.6062 H   0  0  0  0  0  0  0  0  0  0  0  0
    9.5221    1.6723   23.7690 H   0  0  0  0  0  0  0  0  0  0  0  0
    7.7174    3.0896   22.0614 H   0  0  0  0  0  0  0  0  0  0  0  0
    8.0883    5.7281   23.1120 C   0  0  0  0  0  0  0  0  0  0  0  0
    8.6175    6.8754   23.7402 C   0  0  0  0  0  0  0  0  0  0  0  0
    7.8875    8.0601   23.8257 C   0  0  0  0  0  0  0  0  0  0  0  0
    6.6079    8.1274   23.2627 C   0  0  0  0  0  0  0  0  0  0  0  0
    6.0717    7.0052   22.6220 C   0  0  0  0  0  0  0  0  0  0  0  0
    6.8058    5.8161   22.5400 C   0  0  0  0  0  0  0  0  0  0  0  0
    6.3719    4.9558   22.0332 H   0  0  0  0  0  0  0  0  0  0  0  0
    5.0774    7.0521   22.1790 H   0  0  0  0  0  0  0  0  0  0  0  0
    6.0310    9.0485   23.3331 H   0  0  0  0  0  0  0  0  0  0  0  0
    8.3205    8.9281   24.3236 H   0  0  0  0  0  0  0  0  0  0  0  0
    9.6147    6.8202   24.1714 H   0  0  0  0  0  0  0  0  0  0  0  0
    9.8760    4.6712   23.6124 H   0  0  0  0  0  0  0  0  0  0  0  0
  1  2  2  3
  2  3  1  0
  3  4  1  0
  4  5  1  0
  5  6  1  0
  6  7  1  0
  7  8  1  0
  8  9  1  0
  9 10  1  0
 10 11  2  0
 11 12  1  0
 12 13  2  0
 13 14  1  0
 14 15  2  0
 15 16  1  0
 13 17  1  0
 12 18  1  0
 11 19  1  0
  9 20  1  0
  9 21  1  0
  8 22  1  0
  8 23  1  0
  7 24  1  0
  6 25  1  0
  6 26  1  0
  5 27  1  0
  5 28  1  0
  4 29  1  0
  4 30  1  0
  3 31  1  0
  2 32  1  0
  1 33  1  0
 33 34  2  0
 34 35  1  0
 35 36  2  0
 36 37  1  0
 37 38  2  0
 38 39  1  0
 37 40  1  0
 36 41  1  0
 35 42  1  0
 34 43  1  0
  1 44  1  0
  7  3  1  0
 15 10  1  0
 38 33  1  0
M  CHG  1   7   1
M  END
>  <plip>  (1) 
-0.1724137931034483

>  <filename>  (1) 
[H][C](=[C]([H])[C]1([H])[C]([H])([H])[C]([H])([H])[C]([H])([H])[N+]1([H])[C]([H])([H])[C]([H])([H])[c]1[c]([H])[n][c]([H])[c]([H])[c]1[H])[c]1[c]([H])[c]([H])[c]([H])[c]([H])[c]1[H]

$$$$
