
     RDKit          3D

 39 41  0  0  0  0  0  0  0  0999 V2000
    5.4398    5.8560   26.3869 H   0  0  0  0  0  0  0  0  0  0  0  0
    5.8265    6.0809   25.5315 O   0  0  0  0  0  0  0  0  0  0  0  0
    6.9210    5.1994   25.3301 C   0  0  0  0  0  0  0  0  0  0  0  0
    7.5632    5.1325   26.2176 H   0  0  0  0  0  0  0  0  0  0  0  0
    7.5312    5.6149   24.5227 H   0  0  0  0  0  0  0  0  0  0  0  0
    6.4614    3.7965   24.9463 C   0  0  0  0  0  0  0  0  0  0  0  0
    5.7986    3.4332   25.7422 H   0  0  0  0  0  0  0  0  0  0  0  0
    5.8291    3.8671   24.0446 H   0  0  0  0  0  0  0  0  0  0  0  0
    7.6079    2.8898   24.7982 N   0  0  0  0  0  0  0  0  0  0  0  0
    8.1692    2.8907   23.4302 C   0  0  0  0  0  0  0  0  0  0  0  0
    8.3004    3.9230   23.0837 H   0  0  0  0  0  0  0  0  0  0  0  0
    9.1690    2.4432   23.4660 H   0  0  0  0  0  0  0  0  0  0  0  0
    7.3171    2.1082   22.4051 C   0  0  0  0  0  0  0  0  0  0  0  0
    7.8617    2.0000   21.4617 H   0  0  0  0  0  0  0  0  0  0  0  0
    6.4002    2.6759   22.1783 H   0  0  0  0  0  0  0  0  0  0  0  0
    6.9890    0.7731   22.9257 N   0  0  0  0  0  0  0  0  0  0  0  0
    7.4294   -0.3486   22.2781 C   0  0  0  0  0  0  0  0  0  0  0  0
    7.3799   -0.7119   20.9440 C   0  0  0  0  0  0  0  0  0  0  0  0
    6.6557   -0.0059   19.8957 C   0  0  0  0  0  0  0  0  0  0  0  0
    7.1748    0.0459   18.5957 C   0  0  0  0  0  0  0  0  0  0  0  0
    8.1235   -0.4363   18.3749 H   0  0  0  0  0  0  0  0  0  0  0  0
    6.5723    0.6761   17.5844 N   0  0  0  0  0  0  0  0  0  0  0  0
    5.4069    1.2909   17.8442 C   0  0  0  0  0  0  0  0  0  0  0  0
    4.9192    1.7769   17.0022 H   0  0  0  0  0  0  0  0  0  0  0  0
    4.8060    1.3098   19.1084 C   0  0  0  0  0  0  0  0  0  0  0  0
    3.8734    1.8432   19.2608 H   0  0  0  0  0  0  0  0  0  0  0  0
    5.4402    0.6527   20.1568 C   0  0  0  0  0  0  0  0  0  0  0  0
    5.0080    0.6326   21.1597 H   0  0  0  0  0  0  0  0  0  0  0  0
    8.0839   -1.8737   20.7479 N   0  0  0  0  0  0  0  0  0  0  0  0
    8.5150   -2.2292   21.9258 C   0  0  0  0  0  0  0  0  0  0  0  0
    9.1076   -3.1132   22.1286 H   0  0  0  0  0  0  0  0  0  0  0  0
    8.1403   -1.3501   22.8950 N   0  0  0  0  0  0  0  0  0  0  0  0
    8.4038   -1.3650   23.8608 H   0  0  0  0  0  0  0  0  0  0  0  0
    6.4188    0.7446   24.2663 C   0  0  0  0  0  0  0  0  0  0  0  0
    6.2608   -0.2879   24.5863 H   0  0  0  0  0  0  0  0  0  0  0  0
    5.4293    1.2283   24.2537 H   0  0  0  0  0  0  0  0  0  0  0  0
    7.3318    1.5101   25.2332 C   0  0  0  0  0  0  0  0  0  0  0  0
    6.8920    1.5283   26.2366 H   0  0  0  0  0  0  0  0  0  0  0  0
    8.2847    0.9747   25.3176 H   0  0  0  0  0  0  0  0  0  0  0  0
  1  2  1  0
  2  3  1  0
  3  4  1  0
  3  5  1  0
  3  6  1  0
  6  7  1  0
  6  8  1  0
  6  9  1  0
  9 10  1  0
 10 11  1  0
 10 12  1  0
 10 13  1  0
 13 14  1  0
 13 15  1  0
 13 16  1  0
 16 17  1  0
 17 18  2  0
 18 19  1  0
 19 20  2  0
 20 21  1  0
 20 22  1  0
 22 23  2  0
 23 24  1  0
 23 25  1  0
 25 26  1  0
 25 27  2  0
 27 28  1  0
 18 29  1  0
 29 30  2  0
 30 31  1  0
 30 32  1  0
 32 33  1  0
 16 34  1  0
 34 35  1  0
 34 36  1  0
 34 37  1  0
 37 38  1  0
 37 39  1  0
 37  9  1  0
 32 17  1  0
 27 19  1  0
M  END
>  <plip>  (1) 
-0.034482758620689655

>  <filename>  (1) 
[H][O][C]([H])([H])[C]([H])([H])[N]1[C]([H])([H])[C]([H])([H])[N]([c]2[c](-[c]3[c]([H])[n][c]([H])[c]([H])[c]3[H])[n][c]([H])[n]2[H])[C]([H])([H])[C]1([H])[H]

$$$$
