
     RDKit          3D

 52 55  0  0  0  0  0  0  0  0999 V2000
    6.5993   -3.0274   20.7403 C   0  0  0  0  0  0  0  0  0  0  0  0
    6.6819   -1.8194   21.5907 N   0  0  0  0  0  4  0  0  0  0  0  0
    7.2219   -2.0786   22.9669 C   0  0  0  0  0  0  0  0  0  0  0  0
    7.9590   -0.7881   23.3702 C   0  0  0  0  0  0  0  0  0  0  0  0
    7.8443    0.1834   22.1758 C   0  0  1  0  0  0  0  0  0  0  0  0
    9.0766    1.0629   21.9004 C   0  0  0  0  0  0  0  0  0  0  0  0
    9.3698    2.0059   22.9631 N   0  0  0  0  0  0  0  0  0  0  0  0
    8.5684    3.0664   23.2544 C   0  0  0  0  0  0  0  0  0  0  0  0
    7.6615    3.4458   22.5334 O   0  0  0  0  0  0  0  0  0  0  0  0
    8.9015    3.6990   24.5688 C   0  0  2  0  0  0  0  0  0  0  0  0
    8.7427    2.9515   25.8721 C   0  0  0  0  0  0  0  0  0  0  0  0
    7.7629    3.9955   25.4826 C   0  0  1  0  0  0  0  0  0  0  0  0
    7.8870    5.1515   26.2511 O   0  0  0  0  0  0  0  0  0  0  0  0
    7.3185    6.3161   25.8303 C   0  0  0  0  0  0  0  0  0  0  0  0
    7.3952    7.3723   26.7522 C   0  0  0  0  0  0  0  0  0  0  0  0
    6.9023    8.6277   26.4073 C   0  0  0  0  0  0  0  0  0  0  0  0
    6.3083    8.8321   25.1547 C   0  0  0  0  0  0  0  0  0  0  0  0
    6.2074    7.7707   24.2547 C   0  0  0  0  0  0  0  0  0  0  0  0
    6.7144    6.5033   24.5793 C   0  0  0  0  0  0  0  0  0  0  0  0
    6.6612    5.6763   23.8721 H   0  0  0  0  0  0  0  0  0  0  0  0
    5.7394    7.9259   23.2832 H   0  0  0  0  0  0  0  0  0  0  0  0
    5.9368    9.8163   24.8799 H   0  0  0  0  0  0  0  0  0  0  0  0
    6.9936    9.4548   27.1076 H   0  0  0  0  0  0  0  0  0  0  0  0
    7.8528    7.1769   27.7174 H   0  0  0  0  0  0  0  0  0  0  0  0
    6.7475    3.7136   25.1941 H   0  0  0  0  0  0  0  0  0  0  0  0
    8.4388    1.9088   25.8747 H   0  0  0  0  0  0  0  0  0  0  0  0
    9.4054    3.2426   26.6709 H   0  0  0  0  0  0  0  0  0  0  0  0
    9.6771    4.4601   24.5189 H   0  0  0  0  0  0  0  0  0  0  0  0
   10.0416    1.7943   23.6777 H   0  0  0  0  0  0  0  0  0  0  0  0
    9.9660    0.4406   21.7312 H   0  0  0  0  0  0  0  0  0  0  0  0
    8.9098    1.6367   20.9849 H   0  0  0  0  0  0  0  0  0  0  0  0
    7.4815   -0.6877   20.9704 C   0  0  2  0  0  0  0  0  0  0  0  0
    6.6746   -0.0012   19.8909 C   0  0  0  0  0  0  0  0  0  0  0  0
    5.4408    0.6353   20.1327 C   0  0  0  0  0  0  0  0  0  0  0  0
    4.8017    1.2995   19.0848 C   0  0  0  0  0  0  0  0  0  0  0  0
    5.4030    1.2911   17.8224 C   0  0  0  0  0  0  0  0  0  0  0  0
    6.5556    0.6617   17.5590 N   0  0  0  0  0  0  0  0  0  0  0  0
    7.1640    0.0394   18.5770 C   0  0  0  0  0  0  0  0  0  0  0  0
    8.1121   -0.4441   18.3327 H   0  0  0  0  0  0  0  0  0  0  0  0
    4.9355    1.8153   16.9902 H   0  0  0  0  0  0  0  0  0  0  0  0
    3.8705    1.8389   19.2319 H   0  0  0  0  0  0  0  0  0  0  0  0
    4.9940    0.6529   21.1305 H   0  0  0  0  0  0  0  0  0  0  0  0
    8.3915   -1.1235   20.5371 H   0  0  0  0  0  0  0  0  0  0  0  0
    6.9989    0.8590   22.3586 H   0  0  0  0  0  0  0  0  0  0  0  0
    7.5429   -0.3488   24.2838 H   0  0  0  0  0  0  0  0  0  0  0  0
    9.0038   -1.0331   23.5877 H   0  0  0  0  0  0  0  0  0  0  0  0
    6.4072   -2.3597   23.6425 H   0  0  0  0  0  0  0  0  0  0  0  0
    7.9156   -2.9247   22.9270 H   0  0  0  0  0  0  0  0  0  0  0  0
    5.7324   -1.3891   21.6947 H   0  0  0  0  0  0  0  0  0  0  0  0
    5.9963   -3.8161   21.2033 H   0  0  0  0  0  0  0  0  0  0  0  0
    6.1739   -2.7825   19.7628 H   0  0  0  0  0  0  0  0  0  0  0  0
    7.6096   -3.4366   20.5775 H   0  0  0  0  0  0  0  0  0  0  0  0
  1  2  1  0
  2  3  1  0
  3  4  1  0
  4  5  1  0
  5  6  1  0
  6  7  1  0
  7  8  1  0
  8  9  2  0
  8 10  1  0
 10 11  1  0
 11 12  1  0
 12 13  1  0
 13 14  1  0
 14 15  2  0
 15 16  1  0
 16 17  2  0
 17 18  1  0
 18 19  2  0
 19 20  1  0
 18 21  1  0
 17 22  1  0
 16 23  1  0
 15 24  1  0
 12 25  1  6
 11 26  1  0
 11 27  1  0
 10 28  1  6
  7 29  1  0
  6 30  1  0
  6 31  1  0
  5 32  1  0
 32 33  1  0
 33 34  2  0
 34 35  1  0
 35 36  2  0
 36 37  1  0
 37 38  2  0
 38 39  1  0
 36 40  1  0
 35 41  1  0
 34 42  1  0
 32 43  1  6
  5 44  1  1
  4 45  1  0
  4 46  1  0
  3 47  1  0
  3 48  1  0
  2 49  1  0
  1 50  1  0
  1 51  1  0
  1 52  1  0
 32  2  1  0
 38 33  1  0
 12 10  1  0
 19 14  1  0
M  CHG  1   2   1
M  END
>  <plip>  (1) 
-0.07142857142857142

>  <filename>  (1) 
[H][c]1[n][c]([H])[c]([C@@]2([H])[C@]([H])([C]([H])([H])[N]([H])[C](=[O])[C@]3([H])[C]([H])([H])[C@@]3([H])[O][c]3[c]([H])[c]([H])[c]([H])[c]([H])[c]3[H])[C]([H])([H])[C]([H])([H])[N+]2([H])[C]([H])([H])[H])[c]([H])[c]1[H]

$$$$
