
     RDKit          3D

 29 31  0  0  0  0  0  0  0  0999 V2000
    4.8007    1.3047   19.1000 C   0  0  0  0  0  0  0  0  0  0  0  0
    5.4013    1.2835   17.8382 C   0  0  0  0  0  0  0  0  0  0  0  0
    6.5572    0.6527   17.5874 N   0  0  0  0  0  0  0  0  0  0  0  0
    7.1534    0.0220   18.6088 C   0  0  0  0  0  0  0  0  0  0  0  0
    6.6429   -0.0209   19.9132 C   0  0  0  0  0  0  0  0  0  0  0  0
    7.3852   -0.7663   20.9981 C   0  0  0  0  0  0  0  0  0  0  0  0
    6.9740   -2.1541   21.0148 N   0  0  0  0  0  0  0  0  0  0  0  0
    7.4209   -3.0811   21.9239 C   0  0  0  0  0  0  0  0  0  0  0  0
    6.8948   -4.4025   21.8574 C   0  0  0  0  0  0  0  0  0  0  0  0
    7.3228   -5.3902   22.7331 C   0  0  0  0  0  0  0  0  0  0  0  0
    8.2967   -5.0697   23.7049 C   0  0  0  0  0  0  0  0  0  0  0  0
    8.9828   -5.7708   24.7675 C   0  0  0  0  0  0  0  0  0  0  0  0
    9.8045   -4.8621   25.3304 C   0  0  0  0  0  0  0  0  0  0  0  0
    9.7165   -3.6319   24.7402 O   0  0  0  0  0  0  0  0  0  0  0  0
    8.7929   -3.7568   23.7474 C   0  0  0  0  0  0  0  0  0  0  0  0
    8.3803   -2.7443   22.8864 C   0  0  0  0  0  0  0  0  0  0  0  0
    8.7653   -1.7359   22.9356 H   0  0  0  0  0  0  0  0  0  0  0  0
   10.5078   -4.9179   26.1473 H   0  0  0  0  0  0  0  0  0  0  0  0
    8.8595   -6.7930   25.0784 H   0  0  0  0  0  0  0  0  0  0  0  0
    6.9147   -6.3971   22.6769 H   0  0  0  0  0  0  0  0  0  0  0  0
    6.1449   -4.6184   21.1025 H   0  0  0  0  0  0  0  0  0  0  0  0
    6.2609   -2.4558   20.3803 H   0  0  0  0  0  0  0  0  0  0  0  0
    7.1916   -0.2935   21.9766 H   0  0  0  0  0  0  0  0  0  0  0  0
    8.4734   -0.7067   20.8257 H   0  0  0  0  0  0  0  0  0  0  0  0
    5.4295    0.6367   20.1539 C   0  0  0  0  0  0  0  0  0  0  0  0
    4.9981    0.6430   21.1562 H   0  0  0  0  0  0  0  0  0  0  0  0
    8.1127   -0.4421   18.3739 H   0  0  0  0  0  0  0  0  0  0  0  0
    4.9419    1.7919   16.9912 H   0  0  0  0  0  0  0  0  0  0  0  0
    3.8740    1.8482   19.2419 H   0  0  0  0  0  0  0  0  0  0  0  0
  1  2  2  0
  2  3  1  0
  3  4  2  0
  4  5  1  0
  5  6  1  0
  6  7  1  0
  7  8  1  0
  8  9  2  0
  9 10  1  0
 10 11  2  0
 11 12  1  0
 12 13  2  0
 13 14  1  0
 14 15  1  0
 15 16  2  0
 16 17  1  0
 13 18  1  0
 12 19  1  0
 10 20  1  0
  9 21  1  0
  7 22  1  0
  6 23  1  0
  6 24  1  0
  5 25  2  0
 25 26  1  0
  4 27  1  0
  2 28  1  0
  1 29  1  0
 25  1  1  0
 16  8  1  0
 15 11  1  0
M  END
>  <plip>  (1) 
-0.03571428571428571

>  <filename>  (1) 
[H][c]1[n][c]([H])[c]([C]([H])([H])[N]([H])[c]2[c]([H])[c]([H])[c]3[c]([H])[c]([H])[o][c]3[c]2[H])[c]([H])[c]1[H]

$$$$
