
     RDKit          3D

 34 37  0  0  0  0  0  0  0  0999 V2000
    5.7423   -2.3067   21.4678 O   0  0  0  0  0  0  0  0  0  0  0  0
    6.7595   -1.6882   21.6473 C   0  0  0  0  0  0  0  0  0  0  0  0
    7.5858   -1.8450   22.7336 N   0  0  0  0  0  0  0  0  0  0  0  0
    8.9355   -1.4181   22.3781 C   0  0  2  0  0  0  0  0  0  0  0  0
    9.8402   -2.6077   21.9328 C   0  0  0  0  0  0  0  0  0  0  0  0
   11.0263   -2.4917   22.8990 C   0  0  2  0  0  0  0  0  0  0  0  0
   10.4975   -2.8903   24.3091 C   0  0  0  0  0  0  0  0  0  0  0  0
    9.7601   -1.5964   24.7729 C   0  0  0  0  0  0  0  0  0  0  0  0
    9.7614   -0.7283   23.5003 C   0  0  1  0  0  0  0  0  0  0  0  0
   11.1824   -0.9581   22.9724 C   0  0  0  0  0  0  0  0  0  0  0  0
   11.9614   -0.5795   23.6410 H   0  0  0  0  0  0  0  0  0  0  0  0
   11.3467   -0.4855   21.9997 H   0  0  0  0  0  0  0  0  0  0  0  0
    9.4972    0.3178   23.6870 H   0  0  0  0  0  0  0  0  0  0  0  0
    8.7577   -1.7706   25.1762 H   0  0  0  0  0  0  0  0  0  0  0  0
   10.3077   -1.0629   25.5551 H   0  0  0  0  0  0  0  0  0  0  0  0
   11.3032   -3.1980   24.9768 H   0  0  0  0  0  0  0  0  0  0  0  0
    9.8110   -3.7478   24.2693 H   0  0  0  0  0  0  0  0  0  0  0  0
   11.9097   -3.0364   22.5664 H   0  0  0  0  0  0  0  0  0  0  0  0
    9.2882   -3.5472   22.0286 H   0  0  0  0  0  0  0  0  0  0  0  0
   10.1276   -2.5061   20.8806 H   0  0  0  0  0  0  0  0  0  0  0  0
    8.6633   -0.5227   21.1710 C   0  0  0  0  0  0  0  0  0  0  0  0
    9.4598    0.1564   20.5605 O   0  0  0  0  0  0  0  0  0  0  0  0
    7.3419   -0.7292   20.8075 N   0  0  0  0  0  0  0  0  0  0  0  0
    6.6667   -0.0220   19.7596 C   0  0  0  0  0  0  0  0  0  0  0  0
    5.4507    0.5942   20.0603 C   0  0  0  0  0  0  0  0  0  0  0  0
    4.8044    1.2984   19.0411 C   0  0  0  0  0  0  0  0  0  0  0  0
    5.3880    1.3380   17.7696 C   0  0  0  0  0  0  0  0  0  0  0  0
    6.5569    0.7482   17.4672 N   0  0  0  0  0  0  0  0  0  0  0  0
    7.1915    0.0984   18.4503 C   0  0  0  0  0  0  0  0  0  0  0  0
    8.1510   -0.3523   18.2033 H   0  0  0  0  0  0  0  0  0  0  0  0
    4.8986    1.8634   16.9558 H   0  0  0  0  0  0  0  0  0  0  0  0
    3.8751    1.8223   19.2295 H   0  0  0  0  0  0  0  0  0  0  0  0
    5.0511    0.5256   21.0737 H   0  0  0  0  0  0  0  0  0  0  0  0
    7.4460   -2.7520   23.1561 H   0  0  0  0  0  0  0  0  0  0  0  0
  1  2  2  0
  2  3  1  0
  4  3  1  1
  4  5  1  0
  5  6  1  0
  6  7  1  0
  7  8  1  0
  8  9  1  0
  9 10  1  0
 10 11  1  0
 10 12  1  0
  9 13  1  1
  8 14  1  0
  8 15  1  0
  7 16  1  0
  7 17  1  0
  6 18  1  6
  5 19  1  0
  5 20  1  0
  4 21  1  0
 21 22  2  0
 21 23  1  0
 23 24  1  0
 24 25  2  0
 25 26  1  0
 26 27  2  0
 27 28  1  0
 28 29  2  0
 29 30  1  0
 27 31  1  0
 26 32  1  0
 25 33  1  0
  3 34  1  0
 23  2  1  0
 29 24  1  0
  9  4  1  0
 10  6  1  0
M  END
>  <plip>  (1) 
-0.07142857142857142

>  <filename>  (1) 
[H][c]1[n][c]([H])[c]([N]2[C](=[O])[N]([H])[C@]3([C]2=[O])[C]([H])([H])[C@]2([H])[C]([H])([H])[C]([H])([H])[C@@]3([H])[C]2([H])[H])[c]([H])[c]1[H]

$$$$
