
     RDKit          3D

 33 34  0  0  0  0  0  0  0  0999 V2000
    7.0156    0.8636   22.6330 O   0  0  0  0  0  0  0  0  0  0  0  0
    7.4144   -0.2259   22.2723 C   0  0  0  0  0  0  0  0  0  0  0  0
    7.9618   -1.2412   23.2571 C   0  0  0  0  0  0  0  0  0  0  0  0
    6.8939   -2.2686   23.6828 C   0  0  0  0  0  0  0  0  0  0  0  0
    7.3546   -3.1974   24.8148 C   0  0  0  0  0  0  0  0  0  0  0  0
    8.5291   -4.1137   24.4341 C   0  0  0  0  0  0  0  0  0  0  0  0
    8.2164   -4.9270   23.2657 N   0  0  0  0  0  0  0  0  0  0  0  0
    7.4453   -6.0274   23.2179 C   0  0  0  0  0  0  0  0  0  0  0  0
    7.4091   -6.3606   21.8893 C   0  0  0  0  0  0  0  0  0  0  0  0
    8.1047   -5.4213   21.1988 N   0  0  0  0  0  0  0  0  0  0  0  0
    8.5637   -4.5439   22.0388 N   0  0  0  0  0  0  0  0  0  0  0  0
    6.9627   -7.1956   21.3806 H   0  0  0  0  0  0  0  0  0  0  0  0
    6.9171   -6.3527   24.0990 H   0  0  0  0  0  0  0  0  0  0  0  0
    8.7720   -4.7973   25.2619 H   0  0  0  0  0  0  0  0  0  0  0  0
    9.4336   -3.5521   24.1797 H   0  0  0  0  0  0  0  0  0  0  0  0
    6.5066   -3.8322   25.1110 H   0  0  0  0  0  0  0  0  0  0  0  0
    7.6406   -2.6167   25.7018 H   0  0  0  0  0  0  0  0  0  0  0  0
    6.5988   -2.8792   22.8171 H   0  0  0  0  0  0  0  0  0  0  0  0
    5.9955   -1.7370   24.0172 H   0  0  0  0  0  0  0  0  0  0  0  0
    8.8410   -1.7480   22.8421 H   0  0  0  0  0  0  0  0  0  0  0  0
    8.2828   -0.6482   24.1182 H   0  0  0  0  0  0  0  0  0  0  0  0
    7.3703   -0.6565   20.9643 N   0  0  0  0  0  0  0  0  0  0  0  0
    6.6793   -0.0071   19.9001 C   0  0  0  0  0  0  0  0  0  0  0  0
    5.4626    0.6434   20.1510 C   0  0  0  0  0  0  0  0  0  0  0  0
    4.8130    1.2949   19.0977 C   0  0  0  0  0  0  0  0  0  0  0  0
    5.4035    1.2846   17.8298 C   0  0  0  0  0  0  0  0  0  0  0  0
    6.5669    0.6632   17.5630 N   0  0  0  0  0  0  0  0  0  0  0  0
    7.1813    0.0384   18.5777 C   0  0  0  0  0  0  0  0  0  0  0  0
    8.1343   -0.4411   18.3495 H   0  0  0  0  0  0  0  0  0  0  0  0
    4.9374    1.7988   16.9928 H   0  0  0  0  0  0  0  0  0  0  0  0
    3.8765    1.8301   19.2536 H   0  0  0  0  0  0  0  0  0  0  0  0
    5.0536    0.6436   21.1589 H   0  0  0  0  0  0  0  0  0  0  0  0
    7.8677   -1.5145   20.7843 H   0  0  0  0  0  0  0  0  0  0  0  0
  1  2  2  0
  2  3  1  0
  3  4  1  0
  4  5  1  0
  5  6  1  0
  6  7  1  0
  7  8  1  0
  8  9  2  0
  9 10  1  0
 10 11  2  0
  9 12  1  0
  8 13  1  0
  6 14  1  0
  6 15  1  0
  5 16  1  0
  5 17  1  0
  4 18  1  0
  4 19  1  0
  3 20  1  0
  3 21  1  0
  2 22  1  0
 22 23  1  0
 23 24  2  0
 24 25  1  0
 25 26  2  0
 26 27  1  0
 27 28  2  0
 28 29  1  0
 26 30  1  0
 25 31  1  0
 24 32  1  0
 22 33  1  0
 11  7  1  0
 28 23  1  0
M  END
>  <plip>  (1) 
-0.0

>  <filename>  (1) 
[H][c]1[n][c]([H])[c]([N]([H])[C](=[O])[C]([H])([H])[C]([H])([H])[C]([H])([H])[C]([H])([H])[n]2[n][n][c]([H])[c]2[H])[c]([H])[c]1[H]

$$$$
