
     RDKit          3D

 32 34  0  0  0  0  0  0  0  0999 V2000
    2.8489    2.4842   25.9626 H   0  0  0  0  0  0  0  0  0  0  0  0
    3.7751    2.7690   25.4619 C   0  0  0  0  0  0  0  0  0  0  0  0
    4.4085    1.7906   24.7999 N   0  0  0  0  0  0  0  0  0  0  0  0
    5.5533    2.1319   24.1978 C   0  0  0  0  0  0  0  0  0  0  0  0
    6.1580    1.0927   23.5803 N   0  0  0  0  0  0  0  0  0  0  0  0
    5.6342    0.2361   23.6834 H   0  0  0  0  0  0  0  0  0  0  0  0
    7.3315    1.1658   22.7689 C   0  0  0  0  0  0  0  0  0  0  0  0
    7.2205    1.8932   21.9533 H   0  0  0  0  0  0  0  0  0  0  0  0
    8.2046    1.4828   23.3599 H   0  0  0  0  0  0  0  0  0  0  0  0
    7.6138   -0.1463   22.2557 N   0  0  0  0  0  0  0  0  0  0  0  0
    8.1451   -1.1221   23.0324 C   0  0  0  0  0  0  0  0  0  0  0  0
    8.4999   -0.9150   24.0336 H   0  0  0  0  0  0  0  0  0  0  0  0
    8.1992   -2.2801   22.4238 N   0  0  0  0  0  0  0  0  0  0  0  0
    7.6620   -2.0432   21.1852 C   0  0  0  0  0  0  0  0  0  0  0  0
    7.5434   -2.8570   20.4909 H   0  0  0  0  0  0  0  0  0  0  0  0
    7.2800   -0.7234   21.0413 C   0  0  0  0  0  0  0  0  0  0  0  0
    6.6118    0.0483   19.9623 C   0  0  0  0  0  0  0  0  0  0  0  0
    7.1486    0.0962   18.6584 C   0  0  0  0  0  0  0  0  0  0  0  0
    8.1026   -0.3879   18.4637 H   0  0  0  0  0  0  0  0  0  0  0  0
    6.5747    0.7126   17.6172 N   0  0  0  0  0  0  0  0  0  0  0  0
    5.4033    1.3289   17.8373 C   0  0  0  0  0  0  0  0  0  0  0  0
    4.9433    1.8103   16.9751 H   0  0  0  0  0  0  0  0  0  0  0  0
    4.7810    1.3743   19.0887 C   0  0  0  0  0  0  0  0  0  0  0  0
    3.8412    1.9063   19.2056 H   0  0  0  0  0  0  0  0  0  0  0  0
    5.4100    0.7504   20.1700 C   0  0  0  0  0  0  0  0  0  0  0  0
    5.0017    0.8096   21.1779 H   0  0  0  0  0  0  0  0  0  0  0  0
    6.1041    3.4323   24.1960 C   0  0  0  0  0  0  0  0  0  0  0  0
    7.0316    3.6179   23.6629 H   0  0  0  0  0  0  0  0  0  0  0  0
    5.4210    4.4233   24.8833 C   0  0  0  0  0  0  0  0  0  0  0  0
    5.8129    5.4415   24.9031 H   0  0  0  0  0  0  0  0  0  0  0  0
    4.2285    4.0883   25.5401 C   0  0  0  0  0  0  0  0  0  0  0  0
    3.6683    4.8273   26.0978 H   0  0  0  0  0  0  0  0  0  0  0  0
  1  2  1  0
  2  3  2  0
  3  4  1  0
  4  5  1  0
  5  6  1  0
  5  7  1  0
  7  8  1  0
  7  9  1  0
  7 10  1  0
 10 11  1  0
 11 12  1  0
 11 13  2  0
 13 14  1  0
 14 15  1  0
 14 16  2  0
 16 17  1  0
 17 18  2  0
 18 19  1  0
 18 20  1  0
 20 21  2  0
 21 22  1  0
 21 23  1  0
 23 24  1  0
 23 25  2  0
 25 26  1  0
  4 27  2  0
 27 28  1  0
 27 29  1  0
 29 30  1  0
 29 31  2  0
 31 32  1  0
 31  2  1  0
 16 10  1  0
 25 17  1  0
M  END
>  <plip>  (1) 
-0.10344827586206896

>  <filename>  (1) 
[H][c]1[n][c]([N]([H])[C]([H])([H])[n]2[c]([H])[n][c]([H])[c]2-[c]2[c]([H])[n][c]([H])[c]([H])[c]2[H])[c]([H])[c]([H])[c]1[H]

$$$$
