
     RDKit          3D

 35 37  0  0  0  0  0  0  0  0999 V2000
    5.0288    0.8720   27.6599 F   0  0  0  0  0  0  0  0  0  0  0  0
    4.5758    2.1208   27.7884 C   0  0  0  0  0  0  0  0  0  0  0  0
    5.0490    2.6043   28.9579 F   0  0  0  0  0  0  0  0  0  0  0  0
    3.2351    2.0491   27.9422 F   0  0  0  0  0  0  0  0  0  0  0  0
    4.9440    3.0676   26.6128 C   0  0  0  0  0  0  0  0  0  0  0  0
    4.5090    4.4051   26.6648 C   0  0  0  0  0  0  0  0  0  0  0  0
    4.8402    5.2563   25.6065 C   0  0  0  0  0  0  0  0  0  0  0  0
    5.5873    4.7491   24.5415 C   0  0  0  0  0  0  0  0  0  0  0  0
    5.9788    3.3986   24.5676 C   0  0  0  0  0  0  0  0  0  0  0  0
    6.7698    2.7806   23.4736 C   0  0  0  0  0  0  0  0  0  0  0  0
    7.2163    1.4847   23.3892 C   0  0  0  0  0  0  0  0  0  0  0  0
    7.9076    1.4298   22.2274 N   0  0  0  0  0  0  0  0  0  0  0  0
    8.4756    0.2381   21.5972 C   0  0  0  0  0  0  0  0  0  0  0  0
    7.4092   -0.7007   20.9879 C   0  0  0  0  0  0  0  0  0  0  0  0
    6.6335   -0.0292   19.8846 C   0  0  0  0  0  0  0  0  0  0  0  0
    5.4273    0.6352   20.1419 C   0  0  0  0  0  0  0  0  0  0  0  0
    4.7972    1.3128   19.0961 C   0  0  0  0  0  0  0  0  0  0  0  0
    5.3965    1.2986   17.8314 C   0  0  0  0  0  0  0  0  0  0  0  0
    6.5598    0.6864   17.5650 N   0  0  0  0  0  0  0  0  0  0  0  0
    7.1582    0.0578   18.5842 C   0  0  0  0  0  0  0  0  0  0  0  0
    8.1134   -0.4189   18.3639 H   0  0  0  0  0  0  0  0  0  0  0  0
    4.9165    1.7893   16.9884 H   0  0  0  0  0  0  0  0  0  0  0  0
    3.8703    1.8511   19.2528 H   0  0  0  0  0  0  0  0  0  0  0  0
    5.0166    0.6361   21.1562 H   0  0  0  0  0  0  0  0  0  0  0  0
    6.7279   -1.0162   21.7877 H   0  0  0  0  0  0  0  0  0  0  0  0
    7.9028   -1.6070   20.6151 H   0  0  0  0  0  0  0  0  0  0  0  0
    9.0386   -0.2870   22.3725 H   0  0  0  0  0  0  0  0  0  0  0  0
    9.1830    0.5691   20.8328 H   0  0  0  0  0  0  0  0  0  0  0  0
    7.8758    2.6190   21.6143 N   0  0  0  0  0  0  0  0  0  0  0  0
    7.1991    3.4357   22.3498 N   0  0  0  0  0  0  0  0  0  0  0  0
    7.0815    0.6443   24.0580 H   0  0  0  0  0  0  0  0  0  0  0  0
    5.6587    2.5819   25.5884 N   0  0  0  0  0  0  0  0  0  0  0  0
    5.8754    5.3525   23.6901 H   0  0  0  0  0  0  0  0  0  0  0  0
    4.5202    6.2995   25.6095 H   0  0  0  0  0  0  0  0  0  0  0  0
    3.9285    4.7642   27.5095 H   0  0  0  0  0  0  0  0  0  0  0  0
  1  2  1  0
  2  3  1  0
  2  4  1  0
  2  5  1  0
  5  6  2  0
  6  7  1  0
  7  8  2  0
  8  9  1  0
  9 10  1  0
 10 11  2  0
 11 12  1  0
 12 13  1  0
 13 14  1  0
 14 15  1  0
 15 16  2  0
 16 17  1  0
 17 18  2  0
 18 19  1  0
 19 20  2  0
 20 21  1  0
 18 22  1  0
 17 23  1  0
 16 24  1  0
 14 25  1  0
 14 26  1  0
 13 27  1  0
 13 28  1  0
 12 29  1  0
 29 30  2  0
 11 31  1  0
  9 32  2  0
  8 33  1  0
  7 34  1  0
  6 35  1  0
 32  5  1  0
 30 10  1  0
 20 15  1  0
M  END
>  <plip>  (1) 
-0.07142857142857142

>  <filename>  (1) 
[H][c]1[n][c]([H])[c]([C]([H])([H])[C]([H])([H])[n]2[n][n][c](-[c]3[n][c]([C]([F])([F])[F])[c]([H])[c]([H])[c]3[H])[c]2[H])[c]([H])[c]1[H]

$$$$
