
     RDKit          3D

 21 21  0  0  0  0  0  0  0  0999 V2000
   11.1277   -2.1139   23.5046 H   0  0  0  0  0  0  0  0  0  0  0  0
   10.4997   -1.9781   22.7812 O   0  0  0  0  0  0  0  0  0  0  0  0
   10.9134   -0.4919   22.4021 P   0  0  0  0  0  0  0  0  0  0  0  0
   11.1148    0.1104   23.7360 O   0  0  0  0  0  0  0  0  0  0  0  0
   12.3892   -0.6527   21.8212 O   0  0  0  0  0  0  0  0  0  0  0  0
   12.8266   -1.0667   22.5752 H   0  0  0  0  0  0  0  0  0  0  0  0
    9.6890    0.4648   21.2512 C   0  0  0  0  0  0  0  0  0  0  0  0
    9.4622   -0.2047   20.0795 F   0  0  0  0  0  0  0  0  0  0  0  0
   10.1934    1.6940   20.9235 F   0  0  0  0  0  0  0  0  0  0  0  0
    8.0712    0.7646   22.1027 S   0  0  0  0  0  0  0  0  0  0  0  0
    6.8403   -0.7964   21.4561 S   0  0  0  0  0  0  0  0  0  0  0  0
    6.2631   -0.0005   20.0025 C   0  0  0  0  0  0  0  0  0  0  0  0
    7.0016   -0.0776   18.8181 C   0  0  0  0  0  0  0  0  0  0  0  0
    7.9142   -0.6646   18.8002 H   0  0  0  0  0  0  0  0  0  0  0  0
    6.6353    0.5550   17.6886 N   0  0  0  0  0  0  0  0  0  0  0  0
    5.5208    1.3042   17.7156 C   0  0  0  0  0  0  0  0  0  0  0  0
    5.2390    1.8493   16.8209 H   0  0  0  0  0  0  0  0  0  0  0  0
    4.7250    1.4164   18.8581 C   0  0  0  0  0  0  0  0  0  0  0  0
    3.8426    2.0439   18.8238 H   0  0  0  0  0  0  0  0  0  0  0  0
    5.0883    0.7489   20.0240 C   0  0  0  0  0  0  0  0  0  0  0  0
    4.4880    0.8221   20.9295 H   0  0  0  0  0  0  0  0  0  0  0  0
  1  2  1  0
  2  3  1  0
  3  4  2  0
  3  5  1  0
  5  6  1  0
  3  7  1  0
  7  8  1  0
  7  9  1  0
  7 10  1  0
 10 11  1  0
 11 12  1  0
 12 13  2  0
 13 14  1  0
 13 15  1  0
 15 16  2  0
 16 17  1  0
 16 18  1  0
 18 19  1  0
 18 20  2  0
 20 21  1  0
 20 12  1  0
M  END
>  <plip>  (1) 
-0.034482758620689655

>  <filename>  (1) 
[H][O][P](=[O])([O][H])[C]([F])([F])[S][S][c]1[c]([H])[n][c]([H])[c]([H])[c]1[H]

$$$$
