
     RDKit          3D

 31 33  0  0  0  0  0  0  0  0999 V2000
    4.9273    1.7949   16.9881 H   0  0  0  0  0  0  0  0  0  0  0  0
    5.4075    1.3033   17.8297 C   0  0  0  0  0  0  0  0  0  0  0  0
    6.5716    0.6847   17.5705 N   0  0  0  0  0  0  0  0  0  0  0  0
    7.1788    0.0738   18.5977 C   0  0  0  0  0  0  0  0  0  0  0  0
    8.1267   -0.4178   18.3579 H   0  0  0  0  0  0  0  0  0  0  0  0
    6.6787    0.0250   19.9109 C   0  0  0  0  0  0  0  0  0  0  0  0
    7.4337   -0.7176   20.9852 C   0  0  0  0  0  0  0  0  0  0  0  0
    8.6826   -0.0437   21.5624 C   0  0  0  0  0  0  0  0  0  0  0  0
    9.3775    0.1878   20.7452 H   0  0  0  0  0  0  0  0  0  0  0  0
    9.1907   -0.7634   22.2208 H   0  0  0  0  0  0  0  0  0  0  0  0
    8.4695    1.2527   22.3741 C   0  0  2  0  0  0  0  0  0  0  0  0
    9.4167    1.4374   22.8964 H   0  0  0  0  0  0  0  0  0  0  0  0
    7.4128    1.1517   23.3828 N   0  0  0  0  0  0  0  0  0  0  0  0
    6.5415    1.9999   23.0360 C   0  0  0  0  0  0  0  0  0  0  0  0
    5.2915    2.0999   23.5464 N   0  0  0  0  0  0  0  0  0  0  0  0
    5.0279    3.0699   23.5125 H   0  0  0  0  0  0  0  0  0  0  0  0
    5.3191    1.6943   24.4612 H   0  0  0  0  0  0  0  0  0  0  0  0
    6.8089    2.9065   22.0867 O   0  0  0  0  0  0  0  0  0  0  0  0
    8.0763    2.4978   21.5319 C   0  0  0  0  0  0  0  0  0  0  0  0
    7.9204    2.2847   20.4702 H   0  0  0  0  0  0  0  0  0  0  0  0
    8.7891    3.3202   21.6394 H   0  0  0  0  0  0  0  0  0  0  0  0
    7.4814   -2.2237   20.8326 C   0  0  0  0  0  0  0  0  0  0  0  0
    6.9045   -2.6458   20.0127 H   0  0  0  0  0  0  0  0  0  0  0  0
    8.4098   -2.7473   21.0578 H   0  0  0  0  0  0  0  0  0  0  0  0
    6.6595   -1.6007   21.9229 C   0  0  0  0  0  0  0  0  0  0  0  0
    5.5826   -1.6493   21.7867 H   0  0  0  0  0  0  0  0  0  0  0  0
    7.0130   -1.6640   22.9489 H   0  0  0  0  0  0  0  0  0  0  0  0
    5.4588    0.6809   20.1530 C   0  0  0  0  0  0  0  0  0  0  0  0
    5.0470    0.6916   21.1631 H   0  0  0  0  0  0  0  0  0  0  0  0
    4.8143    1.3236   19.0956 C   0  0  0  0  0  0  0  0  0  0  0  0
    3.8687    1.8378   19.2343 H   0  0  0  0  0  0  0  0  0  0  0  0
  1  2  1  0
  2  3  2  0
  3  4  1  0
  4  5  1  0
  4  6  2  0
  6  7  1  0
  7  8  1  0
  8  9  1  0
  8 10  1  0
  8 11  1  0
 11 12  1  1
 11 13  1  0
 13 14  2  0
 14 15  1  0
 15 16  1  0
 15 17  1  0
 14 18  1  0
 18 19  1  0
 19 20  1  0
 19 21  1  0
  7 22  1  0
 22 23  1  0
 22 24  1  0
 22 25  1  0
 25 26  1  0
 25 27  1  0
  6 28  1  0
 28 29  1  0
 28 30  2  0
 30 31  1  0
 30  2  1  0
 25  7  1  0
 19 11  1  0
M  END
>  <plip>  (1) 
-0.10714285714285714

>  <filename>  (1) 
[H][c]1[n][c]([H])[c]([C]2([C]([H])([H])[C@]3([H])[N]=[C]([N]([H])[H])[O][C]3([H])[H])[C]([H])([H])[C]2([H])[H])[c]([H])[c]1[H]

$$$$
