
     RDKit          3D

 33 34  0  0  0  0  0  0  0  0999 V2000
   10.5086   -2.9528   23.5883 C   0  0  0  0  0  0  0  0  0  0  0  0
    9.2251   -3.4456   24.2605 C   0  0  0  0  0  0  0  0  0  0  0  0
    8.6445   -4.6607   23.6377 C   0  0  0  0  0  0  0  0  0  0  0  0
    7.5868   -4.8333   22.7932 C   0  0  0  0  0  0  0  0  0  0  0  0
    6.9174   -3.8376   22.0054 C   0  0  0  0  0  0  0  0  0  0  0  0
    7.4349   -2.6757   21.8913 N   0  0  0  0  0  0  0  0  0  0  0  0
    6.7297   -1.9036   20.9915 O   0  0  0  0  0  0  0  0  0  0  0  0
    7.3327   -0.6050   20.9339 C   0  0  0  0  0  0  0  0  0  0  0  0
    6.6543    0.1358   19.8146 C   0  0  0  0  0  0  0  0  0  0  0  0
    5.4346    0.7853   20.0357 C   0  0  0  0  0  0  0  0  0  0  0  0
    4.8072    1.4114   18.9597 C   0  0  0  0  0  0  0  0  0  0  0  0
    5.4189    1.3612   17.7031 C   0  0  0  0  0  0  0  0  0  0  0  0
    6.5763    0.7241   17.4644 N   0  0  0  0  0  0  0  0  0  0  0  0
    7.1642    0.1223   18.5076 C   0  0  0  0  0  0  0  0  0  0  0  0
    8.0927   -0.4077   18.2889 H   0  0  0  0  0  0  0  0  0  0  0  0
    4.9561    1.8554   16.8520 H   0  0  0  0  0  0  0  0  0  0  0  0
    3.8658    1.9348   19.0840 H   0  0  0  0  0  0  0  0  0  0  0  0
    4.9808    0.7836   21.0300 H   0  0  0  0  0  0  0  0  0  0  0  0
    8.4143   -0.7176   20.7672 H   0  0  0  0  0  0  0  0  0  0  0  0
    7.1680   -0.1013   21.8980 H   0  0  0  0  0  0  0  0  0  0  0  0
    5.9797   -4.0951   21.5055 H   0  0  0  0  0  0  0  0  0  0  0  0
    7.4628   -6.2366   22.6623 C   0  0  0  0  0  0  0  0  0  0  0  0
    6.3462   -6.9633   21.9975 C   0  0  0  0  0  0  0  0  0  0  0  0
    6.5438   -8.0397   21.9468 H   0  0  0  0  0  0  0  0  0  0  0  0
    6.1558   -6.5652   20.9969 H   0  0  0  0  0  0  0  0  0  0  0  0
    5.4213   -6.8069   22.5625 H   0  0  0  0  0  0  0  0  0  0  0  0
    8.4559   -6.8411   23.2477 N   0  0  0  0  0  0  0  0  0  0  0  0
    9.1674   -5.8581   23.9113 O   0  0  0  0  0  0  0  0  0  0  0  0
    9.4159   -3.6435   25.3215 H   0  0  0  0  0  0  0  0  0  0  0  0
    8.4546   -2.6694   24.2064 H   0  0  0  0  0  0  0  0  0  0  0  0
   10.4049   -2.8326   22.5054 H   0  0  0  0  0  0  0  0  0  0  0  0
   10.7568   -1.9750   24.0077 H   0  0  0  0  0  0  0  0  0  0  0  0
   11.3523   -3.6308   23.7542 H   0  0  0  0  0  0  0  0  0  0  0  0
  1  2  1  0
  2  3  1  0
  3  4  2  0
  4  5  1  0
  5  6  2  3
  6  7  1  0
  7  8  1  0
  8  9  1  0
  9 10  2  0
 10 11  1  0
 11 12  2  0
 12 13  1  0
 13 14  2  0
 14 15  1  0
 12 16  1  0
 11 17  1  0
 10 18  1  0
  8 19  1  0
  8 20  1  0
  5 21  1  0
  4 22  1  0
 22 23  1  0
 23 24  1  0
 23 25  1  0
 23 26  1  0
 22 27  2  0
 27 28  1  0
  2 29  1  0
  2 30  1  0
  1 31  1  0
  1 32  1  0
  1 33  1  0
 28  3  1  0
 14  9  1  0
M  END
>  <plip>  (1) 
-0.06666666666666667

>  <filename>  (1) 
[H][C](=[N][O][C]([H])([H])[c]1[c]([H])[n][c]([H])[c]([H])[c]1[H])[c]1[c]([C]([H])([H])[H])[n][o][c]1[C]([H])([H])[C]([H])([H])[H]

$$$$
