
     RDKit          3D

 38 39  0  0  0  0  0  0  0  0999 V2000
    4.9767    1.8541   16.9235 H   0  0  0  0  0  0  0  0  0  0  0  0
    5.4365    1.3124   17.7484 C   0  0  0  0  0  0  0  0  0  0  0  0
    6.5763    0.6591   17.4750 N   0  0  0  0  0  0  0  0  0  0  0  0
    7.1786    0.0203   18.4837 C   0  0  0  0  0  0  0  0  0  0  0  0
    8.0860   -0.5185   18.2186 H   0  0  0  0  0  0  0  0  0  0  0  0
    6.6914   -0.0227   19.8063 C   0  0  0  0  0  0  0  0  0  0  0  0
    7.4610   -0.6669   20.8959 C   0  0  0  0  0  0  0  0  0  0  0  0
    6.7770   -1.3969   21.9305 C   0  0  0  0  0  0  0  0  0  0  0  0
    5.7209   -1.6046   21.8388 H   0  0  0  0  0  0  0  0  0  0  0  0
    7.3722   -1.8674   22.9877 N   0  0  0  0  0  0  0  0  0  0  0  0
    8.7113   -1.7324   23.0499 N   0  0  0  0  0  0  0  0  0  0  0  0
    9.2588   -2.0200   24.2780 O   0  0  0  0  0  0  0  0  0  0  0  0
    8.6232   -3.0815   25.0239 C   0  0  0  0  0  0  0  0  0  0  0  0
    9.2409   -3.1042   25.9247 H   0  0  0  0  0  0  0  0  0  0  0  0
    7.6172   -2.7669   25.3258 H   0  0  0  0  0  0  0  0  0  0  0  0
    8.6259   -4.4198   24.2825 C   0  0  0  0  0  0  0  0  0  0  0  0
    9.6485   -4.6492   23.9591 H   0  0  0  0  0  0  0  0  0  0  0  0
    8.0216   -4.3015   23.3749 H   0  0  0  0  0  0  0  0  0  0  0  0
    8.0750   -5.5764   25.1201 C   0  0  0  0  0  0  0  0  0  0  0  0
    8.6999   -5.6910   26.0222 H   0  0  0  0  0  0  0  0  0  0  0  0
    8.1731   -6.5242   24.5542 H   0  0  0  0  0  0  0  0  0  0  0  0
    6.6936   -5.3565   25.5514 N   0  0  0  0  0  0  0  0  0  0  0  0
    6.3379   -6.1962   26.6868 C   0  0  0  0  0  0  0  0  0  0  0  0
    5.3920   -5.8521   27.1237 H   0  0  0  0  0  0  0  0  0  0  0  0
    7.1111   -6.1191   27.4610 H   0  0  0  0  0  0  0  0  0  0  0  0
    6.2296   -7.2656   26.4150 H   0  0  0  0  0  0  0  0  0  0  0  0
    5.7075   -5.4957   24.4848 C   0  0  0  0  0  0  0  0  0  0  0  0
    4.7260   -5.1552   24.8420 H   0  0  0  0  0  0  0  0  0  0  0  0
    5.5967   -6.5403   24.1290 H   0  0  0  0  0  0  0  0  0  0  0  0
    5.9727   -4.8760   23.6198 H   0  0  0  0  0  0  0  0  0  0  0  0
    9.5916   -1.1426   22.0656 C   0  0  0  0  0  0  0  0  0  0  0  0
   10.8035   -1.1442   22.1405 O   0  0  0  0  0  0  0  0  0  0  0  0
    8.8246   -0.5652   20.9720 C   0  0  0  0  0  0  0  0  0  0  0  0
    9.4210   -0.0316   20.2402 H   0  0  0  0  0  0  0  0  0  0  0  0
    5.4684    0.6183   20.0517 C   0  0  0  0  0  0  0  0  0  0  0  0
    5.0332    0.5911   21.0528 H   0  0  0  0  0  0  0  0  0  0  0  0
    4.8441    1.3062   19.0153 C   0  0  0  0  0  0  0  0  0  0  0  0
    3.9213    1.8466   19.1767 H   0  0  0  0  0  0  0  0  0  0  0  0
  1  2  1  0
  2  3  2  0
  3  4  1  0
  4  5  1  0
  4  6  2  0
  6  7  1  0
  7  8  1  0
  8  9  1  0
  8 10  2  0
 10 11  1  0
 11 12  1  0
 12 13  1  0
 13 14  1  0
 13 15  1  0
 13 16  1  0
 16 17  1  0
 16 18  1  0
 16 19  1  0
 19 20  1  0
 19 21  1  0
 19 22  1  0
 22 23  1  0
 23 24  1  0
 23 25  1  0
 23 26  1  0
 22 27  1  0
 27 28  1  0
 27 29  1  0
 27 30  1  0
 11 31  1  0
 31 32  2  0
 31 33  1  0
 33 34  1  0
  6 35  1  0
 35 36  1  0
 35 37  2  0
 37 38  1  0
 37  2  1  0
 33  7  2  0
M  END
>  <plip>  (1) 
-0.07142857142857142

>  <filename>  (1) 
[H][c]1[n][c]([H])[c](-[c]2[c]([H])[n][n]([O][C]([H])([H])[C]([H])([H])[C]([H])([H])[N]([C]([H])([H])[H])[C]([H])([H])[H])[c](=[O])[c]2[H])[c]([H])[c]1[H]

$$$$
