
     RDKit          3D

 42 44  0  0  0  0  0  0  0  0999 V2000
    8.2751    1.3160   22.3623 C   0  0  0  0  0  0  0  0  0  0  0  0
    7.4842    0.0896   22.5592 N   0  0  0  0  0  0  0  0  0  0  0  0
    7.7382   -0.5927   23.8431 C   0  0  0  0  0  0  0  0  0  0  0  0
    6.4951   -1.3003   24.3765 C   0  0  0  0  0  0  0  0  0  0  0  0
    6.7688   -1.8911   25.7549 C   0  0  0  0  0  0  0  0  0  0  0  0
    7.9586   -2.7428   25.6974 N   0  0  0  0  0  0  0  0  0  0  0  0
    8.0645   -3.8372   26.4953 C   0  0  0  0  0  0  0  0  0  0  0  0
    6.9701   -4.2576   27.1450 N   0  0  0  0  0  0  0  0  0  0  0  0
    7.1048   -5.3575   27.8687 C   0  0  0  0  0  0  0  0  0  0  0  0
    8.2974   -6.0531   27.9858 C   0  0  0  0  0  0  0  0  0  0  0  0
    9.3677   -5.5068   27.2929 C   0  0  0  0  0  0  0  0  0  0  0  0
    9.2732   -4.4174   26.5616 N   0  0  0  0  0  0  0  0  0  0  0  0
   10.3634   -5.9434   27.3034 H   0  0  0  0  0  0  0  0  0  0  0  0
    8.3839   -6.9625   28.5594 H   0  0  0  0  0  0  0  0  0  0  0  0
    6.2049   -5.6985   28.3808 H   0  0  0  0  0  0  0  0  0  0  0  0
    9.1831   -2.1170   25.1932 C   0  0  0  0  0  0  0  0  0  0  0  0
    8.9321   -1.5465   23.8159 C   0  0  0  0  0  0  0  0  0  0  0  0
    8.7252   -2.3721   23.1271 H   0  0  0  0  0  0  0  0  0  0  0  0
    9.8312   -1.0426   23.4497 H   0  0  0  0  0  0  0  0  0  0  0  0
    9.9621   -2.8781   25.1452 H   0  0  0  0  0  0  0  0  0  0  0  0
    9.5315   -1.3497   25.9058 H   0  0  0  0  0  0  0  0  0  0  0  0
    6.9099   -1.0965   26.5082 H   0  0  0  0  0  0  0  0  0  0  0  0
    5.9179   -2.4831   26.0962 H   0  0  0  0  0  0  0  0  0  0  0  0
    6.1978   -2.0953   23.6926 H   0  0  0  0  0  0  0  0  0  0  0  0
    5.6670   -0.5902   24.4475 H   0  0  0  0  0  0  0  0  0  0  0  0
    7.9598    0.2092   24.5697 H   0  0  0  0  0  0  0  0  0  0  0  0
    7.5321   -0.9018   21.1952 S   0  0  0  0  0  0  0  0  0  0  0  0
    8.9120   -0.9851   20.7289 O   0  0  0  0  0  0  0  0  0  0  0  0
    6.7747   -2.1219   21.4193 O   0  0  0  0  0  0  0  0  0  0  0  0
    6.6583    0.0633   20.0437 C   0  0  0  0  0  0  0  0  0  0  0  0
    5.4327    0.6947   20.2773 C   0  0  0  0  0  0  0  0  0  0  0  0
    4.8323    1.3008   19.1740 C   0  0  0  0  0  0  0  0  0  0  0  0
    5.4688    1.2464   17.9292 C   0  0  0  0  0  0  0  0  0  0  0  0
    6.6348    0.6134   17.7300 N   0  0  0  0  0  0  0  0  0  0  0  0
    7.2174    0.0309   18.7749 C   0  0  0  0  0  0  0  0  0  0  0  0
    8.1605   -0.4802   18.5851 H   0  0  0  0  0  0  0  0  0  0  0  0
    5.0205    1.7173   17.0533 H   0  0  0  0  0  0  0  0  0  0  0  0
    3.8852    1.8194   19.2585 H   0  0  0  0  0  0  0  0  0  0  0  0
    4.9594    0.7216   21.2628 H   0  0  0  0  0  0  0  0  0  0  0  0
    8.1096    1.9747   23.2232 H   0  0  0  0  0  0  0  0  0  0  0  0
    9.3548    1.1337   22.2632 H   0  0  0  0  0  0  0  0  0  0  0  0
    7.9329    1.8663   21.4810 H   0  0  0  0  0  0  0  0  0  0  0  0
  1  2  1  0
  2  3  1  0
  3  4  1  0
  4  5  1  0
  5  6  1  0
  6  7  1  0
  7  8  2  0
  8  9  1  0
  9 10  2  0
 10 11  1  0
 11 12  2  0
 11 13  1  0
 10 14  1  0
  9 15  1  0
  6 16  1  0
 16 17  1  0
 17 18  1  0
 17 19  1  0
 16 20  1  0
 16 21  1  0
  5 22  1  0
  5 23  1  0
  4 24  1  0
  4 25  1  0
  3 26  1  0
  2 27  1  0
 27 28  2  0
 27 29  2  0
 27 30  1  0
 30 31  2  0
 31 32  1  0
 32 33  2  0
 33 34  1  0
 34 35  2  0
 35 36  1  0
 33 37  1  0
 32 38  1  0
 31 39  1  0
  1 40  1  0
  1 41  1  0
  1 42  1  0
 17  3  1  0
 35 30  1  0
 12  7  1  0
M  END
>  <plip>  (1) 
-0.03571428571428571

>  <filename>  (1) 
[H][c]1[n][c]([N]2[C]([H])([H])[C]([H])([H])[C]([H])([N]([C]([H])([H])[H])[S](=[O])(=[O])[c]3[c]([H])[n][c]([H])[c]([H])[c]3[H])[C]([H])([H])[C]2([H])[H])[n][c]([H])[c]1[H]

$$$$
