
     RDKit          3D

 36 37  0  0  0  0  0  0  0  0999 V2000
    4.9815    1.7821   16.9289 H   0  0  0  0  0  0  0  0  0  0  0  0
    5.4391    1.2853   17.7806 C   0  0  0  0  0  0  0  0  0  0  0  0
    6.5986    0.6457   17.5435 N   0  0  0  0  0  0  0  0  0  0  0  0
    7.1922    0.0415   18.5836 C   0  0  0  0  0  0  0  0  0  0  0  0
    8.1207   -0.4835   18.3582 H   0  0  0  0  0  0  0  0  0  0  0  0
    6.6884    0.0534   19.9107 C   0  0  0  0  0  0  0  0  0  0  0  0
    7.3683   -0.5881   20.9857 N   0  0  0  0  0  0  0  0  0  0  0  0
    7.9992   -1.3514   20.7832 H   0  0  0  0  0  0  0  0  0  0  0  0
    7.2275   -0.3372   22.3359 C   0  0  0  0  0  0  0  0  0  0  0  0
    6.6929    0.6578   22.7847 O   0  0  0  0  0  0  0  0  0  0  0  0
    7.7536   -1.4469   23.3283 C   0  0  1  0  0  0  0  0  0  0  0  0
    8.1667   -0.8323   24.1367 H   0  0  0  0  0  0  0  0  0  0  0  0
    6.5212   -2.1510   23.8667 C   0  0  0  0  0  0  0  0  0  0  0  0
    5.7450   -2.9642   23.0226 C   0  0  0  0  0  0  0  0  0  0  0  0
    6.0048   -3.0581   21.9674 H   0  0  0  0  0  0  0  0  0  0  0  0
    4.5963   -3.5760   23.5067 C   0  0  0  0  0  0  0  0  0  0  0  0
    3.9978   -4.2042   22.8563 H   0  0  0  0  0  0  0  0  0  0  0  0
    4.1907   -3.3810   24.8426 C   0  0  0  0  0  0  0  0  0  0  0  0
    2.9045   -4.0134   25.2783 C   0  0  0  0  0  0  0  0  0  0  0  0
    2.1423   -4.5772   24.5233 O   0  0  0  0  0  0  0  0  0  0  0  0
    2.6762   -3.8769   26.6019 O   0  0  0  0  0  0  0  0  0  0  0  0
    1.4975   -4.4910   27.1280 C   0  0  0  0  0  0  0  0  0  0  0  0
    1.5217   -5.5714   26.9576 H   0  0  0  0  0  0  0  0  0  0  0  0
    0.6035   -4.0752   26.6543 H   0  0  0  0  0  0  0  0  0  0  0  0
    1.5109   -4.2682   28.1949 H   0  0  0  0  0  0  0  0  0  0  0  0
    4.9785   -2.5824   25.6910 C   0  0  0  0  0  0  0  0  0  0  0  0
    4.6973   -2.4578   26.7314 H   0  0  0  0  0  0  0  0  0  0  0  0
    6.1265   -1.9665   25.2000 C   0  0  0  0  0  0  0  0  0  0  0  0
    6.7208   -1.3320   25.8581 H   0  0  0  0  0  0  0  0  0  0  0  0
    8.8072   -2.4180   22.8664 N   0  0  0  0  0  0  0  0  0  0  0  0
    9.3547   -2.6572   23.6965 H   0  0  0  0  0  0  0  0  0  0  0  0
    8.3416   -3.3005   22.6307 H   0  0  0  0  0  0  0  0  0  0  0  0
    5.4638    0.7045   20.1267 C   0  0  0  0  0  0  0  0  0  0  0  0
    5.0287    0.7263   21.1234 H   0  0  0  0  0  0  0  0  0  0  0  0
    4.8325    1.3212   19.0392 C   0  0  0  0  0  0  0  0  0  0  0  0
    3.8850    1.8394   19.1642 H   0  0  0  0  0  0  0  0  0  0  0  0
  1  2  1  0
  2  3  2  0
  3  4  1  0
  4  5  1  0
  4  6  2  0
  6  7  1  0
  7  8  1  0
  7  9  1  0
  9 10  2  0
  9 11  1  0
 11 12  1  1
 11 13  1  0
 13 14  2  0
 14 15  1  0
 14 16  1  0
 16 17  1  0
 16 18  2  0
 18 19  1  0
 19 20  2  0
 19 21  1  0
 21 22  1  0
 22 23  1  0
 22 24  1  0
 22 25  1  0
 18 26  1  0
 26 27  1  0
 26 28  2  0
 28 29  1  0
 11 30  1  0
 30 31  1  0
 30 32  1  0
  6 33  1  0
 33 34  1  0
 33 35  2  0
 35 36  1  0
 35  2  1  0
 28 13  1  0
M  END
>  <plip>  (1) 
-0.034482758620689655

>  <filename>  (1) 
[H][c]1[n][c]([H])[c]([N]([H])[C](=[O])[C@@]([H])([c]2[c]([H])[c]([H])[c]([C](=[O])[O][C]([H])([H])[H])[c]([H])[c]2[H])[N]([H])[H])[c]([H])[c]1[H]

$$$$
