
     RDKit          3D

 37 39  0  0  0  0  0  0  0  0999 V2000
    6.6486   -7.7394   22.2885 C   0  0  0  0  0  0  0  0  0  0  0  0
    6.9336   -6.3478   21.8938 C   0  0  0  0  0  0  0  0  0  0  0  0
    7.8309   -5.6847   22.5751 N   0  0  0  0  0  0  0  0  0  0  0  0
    7.8717   -4.3722   22.1787 C   0  0  0  0  0  0  0  0  0  0  0  0
    8.9521   -3.1240   23.1364 Br  0  0  0  0  0  0  0  0  0  0  0  0
    7.0356   -4.0736   21.1519 C   0  0  0  0  0  0  0  0  0  0  0  0
    6.7778   -2.7024   20.8231 C   0  0  0  0  0  0  0  0  0  0  0  0
    5.6010   -2.4358   20.6400 O   0  0  0  0  0  0  0  0  0  0  0  0
    7.7103   -1.7010   21.0579 N   0  0  0  0  0  0  0  0  0  0  0  0
    9.1100   -1.9366   20.6806 C   0  0  0  0  0  0  0  0  0  0  0  0
   10.0910   -1.0387   21.4154 C   0  0  0  0  0  0  0  0  0  0  0  0
    9.6580    0.4136   21.2475 C   0  0  0  0  0  0  0  0  0  0  0  0
    8.2809    0.5977   21.8960 C   0  0  0  0  0  0  0  0  0  0  0  0
    7.2080   -0.3460   21.3253 C   0  0  1  0  0  0  0  0  0  0  0  0
    6.5950    0.2258   20.0746 C   0  0  0  0  0  0  0  0  0  0  0  0
    5.3599    0.8834   20.1113 C   0  0  0  0  0  0  0  0  0  0  0  0
    4.8443    1.3675   18.9075 C   0  0  0  0  0  0  0  0  0  0  0  0
    5.5680    1.1898   17.7226 C   0  0  0  0  0  0  0  0  0  0  0  0
    6.7578    0.5625   17.6870 N   0  0  0  0  0  0  0  0  0  0  0  0
    7.2543    0.0966   18.8479 C   0  0  0  0  0  0  0  0  0  0  0  0
    8.2127   -0.4069   18.8326 H   0  0  0  0  0  0  0  0  0  0  0  0
    5.1501    1.5727   16.7958 H   0  0  0  0  0  0  0  0  0  0  0  0
    3.8915    1.8883   18.8772 H   0  0  0  0  0  0  0  0  0  0  0  0
    4.8130    1.0178   21.0452 H   0  0  0  0  0  0  0  0  0  0  0  0
    6.4169   -0.4147   22.0850 H   0  0  0  0  0  0  0  0  0  0  0  0
    7.9569    1.6389   21.7833 H   0  0  0  0  0  0  0  0  0  0  0  0
    8.3774    0.3936   22.9672 H   0  0  0  0  0  0  0  0  0  0  0  0
    9.6111    0.6788   20.1861 H   0  0  0  0  0  0  0  0  0  0  0  0
   10.3903    1.0673   21.7289 H   0  0  0  0  0  0  0  0  0  0  0  0
   10.1198   -1.2936   22.4800 H   0  0  0  0  0  0  0  0  0  0  0  0
   11.0946   -1.1908   20.9986 H   0  0  0  0  0  0  0  0  0  0  0  0
    9.3854   -2.9789   20.8594 H   0  0  0  0  0  0  0  0  0  0  0  0
    9.2192   -1.7468   19.6120 H   0  0  0  0  0  0  0  0  0  0  0  0
    6.1311   -5.4717   20.6134 S   0  0  0  0  0  0  0  0  0  0  0  0
    6.0139   -7.7399   23.1793 H   0  0  0  0  0  0  0  0  0  0  0  0
    6.1241   -8.3057   21.5376 H   0  0  0  0  0  0  0  0  0  0  0  0
    7.6155   -8.2006   22.4648 H   0  0  0  0  0  0  0  0  0  0  0  0
  1  2  1  0
  2  3  2  0
  3  4  1  0
  4  5  1  0
  4  6  2  0
  6  7  1  0
  7  8  2  0
  7  9  1  0
  9 10  1  0
 10 11  1  0
 11 12  1  0
 12 13  1  0
 13 14  1  0
 14 15  1  0
 15 16  2  0
 16 17  1  0
 17 18  2  0
 18 19  1  0
 19 20  2  0
 20 21  1  0
 18 22  1  0
 17 23  1  0
 16 24  1  0
 14 25  1  1
 13 26  1  0
 13 27  1  0
 12 28  1  0
 12 29  1  0
 11 30  1  0
 11 31  1  0
 10 32  1  0
 10 33  1  0
  6 34  1  0
  1 35  1  0
  1 36  1  0
  1 37  1  0
 34  2  1  0
 14  9  1  0
 20 15  1  0
M  END
>  <plip>  (1) 
-0.1

>  <filename>  (1) 
[H][c]1[n][c]([H])[c]([C@@]2([H])[N]([C](=[O])[c]3[s][c]([C]([H])([H])[H])[n][c]3[Br])[C]([H])([H])[C]([H])([H])[C]([H])([H])[C]2([H])[H])[c]([H])[c]1[H]

$$$$
