
     RDKit          3D

 30 32  0  0  0  0  0  0  0  0999 V2000
    4.9852    1.7762   17.0033 H   0  0  0  0  0  0  0  0  0  0  0  0
    5.4342    1.2714   17.8540 C   0  0  0  0  0  0  0  0  0  0  0  0
    6.5944    0.6410   17.6175 N   0  0  0  0  0  0  0  0  0  0  0  0
    7.1805    0.0268   18.6478 C   0  0  0  0  0  0  0  0  0  0  0  0
    8.1310   -0.4693   18.4577 H   0  0  0  0  0  0  0  0  0  0  0  0
    6.6339    0.0021   19.9338 C   0  0  0  0  0  0  0  0  0  0  0  0
    7.3729   -0.7042   20.9681 C   0  0  0  0  0  0  0  0  0  0  0  0
    8.5775   -1.3098   20.7655 N   0  0  0  0  0  0  0  0  0  0  0  0
    8.8552   -1.8016   21.9486 C   0  0  0  0  0  0  0  0  0  0  0  0
    9.7157   -2.3872   22.2464 H   0  0  0  0  0  0  0  0  0  0  0  0
    7.8663   -1.5073   22.8307 N   0  0  0  0  0  0  0  0  0  0  0  0
    7.7414   -1.7475   24.2238 C   0  0  0  0  0  0  0  0  0  0  0  0
    8.2314   -2.9380   24.8115 C   0  0  0  0  0  0  0  0  0  0  0  0
    8.7610   -3.8608   23.9905 O   0  0  0  0  0  0  0  0  0  0  0  0
    9.2061   -5.0918   24.5659 C   0  0  0  0  0  0  0  0  0  0  0  0
   10.1203   -4.9340   25.1509 H   0  0  0  0  0  0  0  0  0  0  0  0
    8.4426   -5.5097   25.2239 H   0  0  0  0  0  0  0  0  0  0  0  0
    9.3845   -5.7643   23.7291 H   0  0  0  0  0  0  0  0  0  0  0  0
    8.1992   -3.1710   26.1084 N   0  0  0  0  0  0  0  0  0  0  0  0
    7.6544   -2.2446   26.8980 C   0  0  0  0  0  0  0  0  0  0  0  0
    7.7047   -2.4719   27.9443 H   0  0  0  0  0  0  0  0  0  0  0  0
    7.0807   -1.0706   26.4346 C   0  0  0  0  0  0  0  0  0  0  0  0
    6.6180   -0.3791   27.1298 H   0  0  0  0  0  0  0  0  0  0  0  0
    7.1239   -0.8207   25.0594 C   0  0  0  0  0  0  0  0  0  0  0  0
    6.6881    0.0699   24.6103 H   0  0  0  0  0  0  0  0  0  0  0  0
    6.9164   -0.7930   22.2010 N   0  0  0  0  0  0  0  0  0  0  0  0
    5.4136    0.6562   20.1783 C   0  0  0  0  0  0  0  0  0  0  0  0
    4.9733    0.6596   21.1796 H   0  0  0  0  0  0  0  0  0  0  0  0
    4.8057    1.3025   19.1063 C   0  0  0  0  0  0  0  0  0  0  0  0
    3.8717    1.8417   19.2261 H   0  0  0  0  0  0  0  0  0  0  0  0
  1  2  1  0
  2  3  2  0
  3  4  1  0
  4  5  1  0
  4  6  2  0
  6  7  1  0
  7  8  1  0
  8  9  2  0
  9 10  1  0
  9 11  1  0
 11 12  1  0
 12 13  2  0
 13 14  1  0
 14 15  1  0
 15 16  1  0
 15 17  1  0
 15 18  1  0
 13 19  1  0
 19 20  2  0
 20 21  1  0
 20 22  1  0
 22 23  1  0
 22 24  2  0
 24 25  1  0
 11 26  1  0
  6 27  1  0
 27 28  1  0
 27 29  2  0
 29 30  1  0
 29  2  1  0
 26  7  2  0
 24 12  1  0
M  END
>  <plip>  (1) 
-0.03571428571428571

>  <filename>  (1) 
[H][c]1[n][c]([H])[c](-[c]2[n][c]([H])[n](-[c]3[c]([O][C]([H])([H])[H])[n][c]([H])[c]([H])[c]3[H])[n]2)[c]([H])[c]1[H]

$$$$
