
     RDKit          3D

 31 33  0  0  0  0  0  0  0  0999 V2000
    5.3851   -7.0426   20.3779 H   0  0  0  0  0  0  0  0  0  0  0  0
    5.5128   -6.4576   21.2830 C   0  0  0  0  0  0  0  0  0  0  0  0
    5.4255   -5.1338   21.1087 N   0  0  0  0  0  0  0  0  0  0  0  0
    5.5579   -4.3593   22.1917 C   0  0  0  0  0  0  0  0  0  0  0  0
    5.2947   -2.8854   22.0412 C   0  0  0  0  0  0  0  0  0  0  0  0
    5.5587   -2.3956   22.9882 H   0  0  0  0  0  0  0  0  0  0  0  0
    4.2282   -2.7747   21.8645 H   0  0  0  0  0  0  0  0  0  0  0  0
    5.9527   -2.2318   20.9591 O   0  0  0  0  0  0  0  0  0  0  0  0
    7.1646   -1.7305   21.2720 C   0  0  0  0  0  0  0  0  0  0  0  0
    8.0957   -2.0497   22.2242 C   0  0  0  0  0  0  0  0  0  0  0  0
    8.0216   -2.8225   22.9792 H   0  0  0  0  0  0  0  0  0  0  0  0
    9.1864   -1.2162   22.1055 N   0  0  0  0  0  0  0  0  0  0  0  0
    8.9039   -0.4078   21.1195 C   0  0  0  0  0  0  0  0  0  0  0  0
    9.5307    0.3998   20.7628 H   0  0  0  0  0  0  0  0  0  0  0  0
    7.6749   -0.6770   20.5472 N   0  0  0  0  0  0  0  0  0  0  0  0
    6.9649    0.0857   19.5592 C   0  0  0  0  0  0  0  0  0  0  0  0
    7.3739    0.1270   18.2126 C   0  0  0  0  0  0  0  0  0  0  0  0
    8.2848   -0.3813   17.8999 H   0  0  0  0  0  0  0  0  0  0  0  0
    6.6786    0.7550   17.2542 N   0  0  0  0  0  0  0  0  0  0  0  0
    5.5495    1.3870   17.6102 C   0  0  0  0  0  0  0  0  0  0  0  0
    5.0038    1.8792   16.8068 H   0  0  0  0  0  0  0  0  0  0  0  0
    5.0763    1.4247   18.9273 C   0  0  0  0  0  0  0  0  0  0  0  0
    4.1653    1.9659   19.1551 H   0  0  0  0  0  0  0  0  0  0  0  0
    5.7945    0.7599   19.9252 C   0  0  0  0  0  0  0  0  0  0  0  0
    5.4613    0.7399   20.9655 H   0  0  0  0  0  0  0  0  0  0  0  0
    5.7631   -4.8774   23.4778 C   0  0  0  0  0  0  0  0  0  0  0  0
    5.8071   -4.2030   24.3253 H   0  0  0  0  0  0  0  0  0  0  0  0
    5.8205   -6.2547   23.6511 C   0  0  0  0  0  0  0  0  0  0  0  0
    5.9044   -6.6603   24.6579 H   0  0  0  0  0  0  0  0  0  0  0  0
    5.7175   -7.0706   22.5247 C   0  0  0  0  0  0  0  0  0  0  0  0
    5.7408   -8.1505   22.6206 H   0  0  0  0  0  0  0  0  0  0  0  0
  1  2  1  0
  2  3  2  0
  3  4  1  0
  4  5  1  0
  5  6  1  0
  5  7  1  0
  5  8  1  0
  8  9  1  0
  9 10  2  0
 10 11  1  0
 10 12  1  0
 12 13  2  0
 13 14  1  0
 13 15  1  0
 15 16  1  0
 16 17  2  0
 17 18  1  0
 17 19  1  0
 19 20  2  0
 20 21  1  0
 20 22  1  0
 22 23  1  0
 22 24  2  0
 24 25  1  0
  4 26  2  0
 26 27  1  0
 26 28  1  0
 28 29  1  0
 28 30  2  0
 30 31  1  0
 30  2  1  0
 15  9  1  0
 24 16  1  0
M  END
>  <plip>  (1) 
-0.10344827586206896

>  <filename>  (1) 
[H][c]1[n][c]([C]([H])([H])[O][c]2[c]([H])[n][c]([H])[n]2-[c]2[c]([H])[n][c]([H])[c]([H])[c]2[H])[c]([H])[c]([H])[c]1[H]

$$$$
