
     RDKit          3D

 28 29  0  0  0  0  0  0  0  0999 V2000
    9.1404   -1.2105   20.9480 H   0  0  0  0  0  0  0  0  0  0  0  0
    8.8074   -0.3410   20.6858 O   0  0  0  0  0  0  0  0  0  0  0  0
    7.4391   -0.5708   20.8983 C   0  0  1  0  0  0  0  0  0  0  0  0
    7.1283   -0.3106   21.9240 H   0  0  0  0  0  0  0  0  0  0  0  0
    6.6181    0.1556   19.8776 C   0  0  0  0  0  0  0  0  0  0  0  0
    7.1382    0.1542   18.5821 C   0  0  0  0  0  0  0  0  0  0  0  0
    8.1077   -0.3074   18.3977 H   0  0  0  0  0  0  0  0  0  0  0  0
    6.5442    0.7239   17.5305 N   0  0  0  0  0  0  0  0  0  0  0  0
    5.3786    1.3471   17.7546 C   0  0  0  0  0  0  0  0  0  0  0  0
    4.9283    1.8265   16.8868 H   0  0  0  0  0  0  0  0  0  0  0  0
    4.7573    1.4012   19.0075 C   0  0  0  0  0  0  0  0  0  0  0  0
    3.8131    1.9290   19.1121 H   0  0  0  0  0  0  0  0  0  0  0  0
    5.3888    0.7926   20.0990 C   0  0  0  0  0  0  0  0  0  0  0  0
    4.9253    0.8233   21.0896 H   0  0  0  0  0  0  0  0  0  0  0  0
    7.4103   -2.0115   20.7061 N   0  0  0  0  0  0  0  0  0  0  0  0
    7.7834   -2.1883   19.7817 H   0  0  0  0  0  0  0  0  0  0  0  0
    5.9589   -2.8708   21.0011 S   0  0  0  0  0  0  0  0  0  0  0  0
    6.3330   -3.6048   22.6001 C   0  0  0  0  0  0  0  0  0  0  0  0
    6.1371   -2.8771   23.7840 C   0  0  0  0  0  0  0  0  0  0  0  0
    5.8516   -1.8313   23.7389 H   0  0  0  0  0  0  0  0  0  0  0  0
    6.3325   -3.4773   25.0321 C   0  0  0  0  0  0  0  0  0  0  0  0
    6.1612   -2.8915   25.9302 H   0  0  0  0  0  0  0  0  0  0  0  0
    6.7732   -4.8031   25.1128 C   0  0  0  0  0  0  0  0  0  0  0  0
    6.9262   -5.2764   26.0805 H   0  0  0  0  0  0  0  0  0  0  0  0
    7.0382   -5.5005   23.9295 C   0  0  0  0  0  0  0  0  0  0  0  0
    7.5101   -6.4709   23.9549 H   0  0  0  0  0  0  0  0  0  0  0  0
    6.7885   -4.9280   22.6801 C   0  0  0  0  0  0  0  0  0  0  0  0
    6.9691   -5.4963   21.7733 H   0  0  0  0  0  0  0  0  0  0  0  0
  1  2  1  0
  2  3  1  0
  3  4  1  1
  3  5  1  0
  5  6  2  0
  6  7  1  0
  6  8  1  0
  8  9  2  0
  9 10  1  0
  9 11  1  0
 11 12  1  0
 11 13  2  0
 13 14  1  0
  3 15  1  0
 15 16  1  0
 15 17  1  0
 17 18  1  0
 18 19  2  0
 19 20  1  0
 19 21  1  0
 21 22  1  0
 21 23  2  0
 23 24  1  0
 23 25  1  0
 25 26  1  0
 25 27  2  0
 27 28  1  0
 13  5  1  0
 27 18  1  0
M  END
>  <plip>  (1) 
-0.10344827586206896

>  <filename>  (1) 
[H][O][C@@]([H])([c]1[c]([H])[n][c]([H])[c]([H])[c]1[H])[N]([H])[S][c]1[c]([H])[c]([H])[c]([H])[c]([H])[c]1[H]

$$$$
