
     RDKit          3D

 24 25  0  0  0  0  0  0  0  0999 V2000
    6.9204   -0.6941   21.9525 H   0  0  0  0  0  0  0  0  0  0  0  0
    7.3951   -0.6930   20.9602 C   0  0  0  0  0  0  0  0  0  0  0  0
    8.5190   -1.2526   20.7480 N   0  0  0  0  0  0  0  0  0  0  0  0
    9.1519   -1.9855   21.7771 C   0  0  0  0  0  0  0  0  0  0  0  0
   10.5272   -1.7475   21.9156 C   0  0  0  0  0  0  0  0  0  0  0  0
   10.9962   -1.0239   21.2596 H   0  0  0  0  0  0  0  0  0  0  0  0
   11.2928   -2.4509   22.8288 C   0  0  0  0  0  0  0  0  0  0  0  0
   12.3601   -2.2712   22.7720 H   0  0  0  0  0  0  0  0  0  0  0  0
   10.6995   -3.3640   23.7119 C   0  0  0  0  0  0  0  0  0  0  0  0
   11.2803   -3.8814   24.4722 H   0  0  0  0  0  0  0  0  0  0  0  0
    9.3362   -3.6423   23.5823 C   0  0  0  0  0  0  0  0  0  0  0  0
    8.8483   -4.3863   24.2110 H   0  0  0  0  0  0  0  0  0  0  0  0
    8.5755   -2.9791   22.6089 C   0  0  0  0  0  0  0  0  0  0  0  0
    6.9123   -3.4700   22.4273 Cl  0  0  0  0  0  0  0  0  0  0  0  0
    6.6626    0.0093   19.9100 C   0  0  0  0  0  0  0  0  0  0  0  0
    7.1792    0.0562   18.6027 C   0  0  0  0  0  0  0  0  0  0  0  0
    8.1215   -0.4300   18.3795 H   0  0  0  0  0  0  0  0  0  0  0  0
    6.5679    0.6696   17.5921 N   0  0  0  0  0  0  0  0  0  0  0  0
    5.4063    1.2856   17.8506 C   0  0  0  0  0  0  0  0  0  0  0  0
    4.9296    1.7764   17.0046 H   0  0  0  0  0  0  0  0  0  0  0  0
    4.8103    1.3042   19.1156 C   0  0  0  0  0  0  0  0  0  0  0  0
    3.8794    1.8390   19.2554 H   0  0  0  0  0  0  0  0  0  0  0  0
    5.4406    0.6489   20.1700 C   0  0  0  0  0  0  0  0  0  0  0  0
    4.9957    0.6415   21.1684 H   0  0  0  0  0  0  0  0  0  0  0  0
  1  2  1  0
  2  3  2  3
  3  4  1  0
  4  5  2  0
  5  6  1  0
  5  7  1  0
  7  8  1  0
  7  9  2  0
  9 10  1  0
  9 11  1  0
 11 12  1  0
 11 13  2  0
 13 14  1  0
  2 15  1  0
 15 16  2  0
 16 17  1  0
 16 18  1  0
 18 19  2  0
 19 20  1  0
 19 21  1  0
 21 22  1  0
 21 23  2  0
 23 24  1  0
 13  4  1  0
 23 15  1  0
M  END
>  <plip>  (1) 
-0.03571428571428571

>  <filename>  (1) 
[H][C](=[N][c]1[c]([H])[c]([H])[c]([H])[c]([H])[c]1[Cl])[c]1[c]([H])[n][c]([H])[c]([H])[c]1[H]

$$$$
