
     RDKit          3D

 30 32  0  0  0  0  0  0  0  0999 V2000
    4.9205    1.8663   16.9888 H   0  0  0  0  0  0  0  0  0  0  0  0
    5.4071    1.3120   17.7843 C   0  0  0  0  0  0  0  0  0  0  0  0
    6.5581    0.6668   17.5202 N   0  0  0  0  0  0  0  0  0  0  0  0
    7.1534    0.0056   18.5289 C   0  0  0  0  0  0  0  0  0  0  0  0
    8.0998   -0.4838   18.3186 H   0  0  0  0  0  0  0  0  0  0  0  0
    6.6300   -0.0466   19.8341 C   0  0  0  0  0  0  0  0  0  0  0  0
    7.3663   -0.7644   20.9414 C   0  0  0  0  0  0  0  0  0  0  0  0
    7.6234   -0.0365   21.7274 H   0  0  0  0  0  0  0  0  0  0  0  0
    8.3011   -1.1898   20.5718 H   0  0  0  0  0  0  0  0  0  0  0  0
    6.5347   -1.9134   21.5123 C   0  0  1  0  0  0  0  0  0  0  0  0
    5.6217   -1.5128   21.9383 H   0  0  0  0  0  0  0  0  0  0  0  0
    5.9778   -3.2071   20.1059 Br  0  0  0  0  0  0  0  0  0  0  0  0
    7.2655   -2.6354   22.6081 C   0  0  0  0  0  0  0  0  0  0  0  0
    8.9816   -3.0678   22.6824 S   0  0  0  0  0  0  0  0  0  0  0  0
    8.7837   -3.7319   24.3024 C   0  0  0  0  0  0  0  0  0  0  0  0
    9.7383   -4.2842   25.1650 C   0  0  0  0  0  0  0  0  0  0  0  0
   10.7774   -4.3651   24.8531 H   0  0  0  0  0  0  0  0  0  0  0  0
    9.3318   -4.7097   26.4388 C   0  0  0  0  0  0  0  0  0  0  0  0
   10.0613   -5.1236   27.1231 H   0  0  0  0  0  0  0  0  0  0  0  0
    7.9936   -4.5904   26.8424 C   0  0  0  0  0  0  0  0  0  0  0  0
    7.6856   -4.9086   27.8315 H   0  0  0  0  0  0  0  0  0  0  0  0
    7.0497   -4.0476   25.9701 C   0  0  0  0  0  0  0  0  0  0  0  0
    6.0098   -3.9361   26.2574 H   0  0  0  0  0  0  0  0  0  0  0  0
    7.4593   -3.6293   24.7131 C   0  0  0  0  0  0  0  0  0  0  0  0
    6.5952   -3.0154   23.7367 C   0  0  0  0  0  0  0  0  0  0  0  0
    5.5393   -2.8388   23.9150 H   0  0  0  0  0  0  0  0  0  0  0  0
    5.4254    0.6039   20.0970 C   0  0  0  0  0  0  0  0  0  0  0  0
    4.9935    0.5911   21.0974 H   0  0  0  0  0  0  0  0  0  0  0  0
    4.8173    1.2947   19.0514 C   0  0  0  0  0  0  0  0  0  0  0  0
    3.9011    1.8460   19.2163 H   0  0  0  0  0  0  0  0  0  0  0  0
  1  2  1  0
  2  3  2  0
  3  4  1  0
  4  5  1  0
  4  6  2  0
  6  7  1  0
  7  8  1  0
  7  9  1  0
  7 10  1  0
 10 11  1  1
 10 12  1  0
 10 13  1  0
 13 14  1  0
 14 15  1  0
 15 16  2  0
 16 17  1  0
 16 18  1  0
 18 19  1  0
 18 20  2  0
 20 21  1  0
 20 22  1  0
 22 23  1  0
 22 24  2  0
 24 25  1  0
 25 26  1  0
  6 27  1  0
 27 28  1  0
 27 29  2  0
 29 30  1  0
 29  2  1  0
 25 13  2  0
 24 15  1  0
M  END
>  <plip>  (1) 
-0.03571428571428571

>  <filename>  (1) 
[H][c]1[n][c]([H])[c]([C]([H])([H])[C@@]([H])([Br])[c]2[s][c]3[c]([H])[c]([H])[c]([H])[c]([H])[c]3[c]2[H])[c]([H])[c]1[H]

$$$$
