
     RDKit          3D

 45 47  0  0  0  0  0  0  0  0999 V2000
    8.0001    2.5039   21.7942 O   0  0  0  0  0  0  0  0  0  0  0  0
    7.8902    1.4130   22.3220 C   0  0  0  0  0  0  0  0  0  0  0  0
    8.4550    0.1541   21.6959 C   0  0  0  0  0  0  0  0  0  0  0  0
    7.3996   -0.7325   20.9944 C   0  0  0  0  0  0  0  0  0  0  0  0
    6.6487   -0.0280   19.8870 C   0  0  0  0  0  0  0  0  0  0  0  0
    5.4420    0.6478   20.1191 C   0  0  0  0  0  0  0  0  0  0  0  0
    4.8189    1.3157   19.0628 C   0  0  0  0  0  0  0  0  0  0  0  0
    5.4309    1.2932   17.8064 C   0  0  0  0  0  0  0  0  0  0  0  0
    6.5753    0.6400   17.5488 N   0  0  0  0  0  0  0  0  0  0  0  0
    7.1546    0.0023   18.5746 C   0  0  0  0  0  0  0  0  0  0  0  0
    8.0736   -0.5368   18.3345 H   0  0  0  0  0  0  0  0  0  0  0  0
    4.9799    1.8177   16.9672 H   0  0  0  0  0  0  0  0  0  0  0  0
    3.8885    1.8569   19.2058 H   0  0  0  0  0  0  0  0  0  0  0  0
    5.0143    0.6518   21.1229 H   0  0  0  0  0  0  0  0  0  0  0  0
    7.9181   -1.6084   20.5843 H   0  0  0  0  0  0  0  0  0  0  0  0
    6.6883   -1.1159   21.7391 H   0  0  0  0  0  0  0  0  0  0  0  0
    9.2091    0.4880   20.9754 H   0  0  0  0  0  0  0  0  0  0  0  0
    8.9624   -0.4296   22.4710 H   0  0  0  0  0  0  0  0  0  0  0  0
    7.2168    1.2479   23.5033 N   0  0  0  0  0  0  0  0  0  0  0  0
    6.6788    2.4148   24.1978 C   0  0  0  0  0  0  0  0  0  0  0  0
    7.7504    3.3583   24.7813 C   0  0  0  0  0  0  0  0  0  0  0  0
    7.0839    4.5444   25.1749 O   0  0  0  0  0  0  0  0  0  0  0  0
    7.4854    4.8845   25.9934 H   0  0  0  0  0  0  0  0  0  0  0  0
    8.5824    2.7132   25.9156 C   0  0  0  0  0  0  0  0  0  0  0  0
    7.8214    2.2316   27.0666 N   0  0  0  0  0  0  0  0  0  0  0  0
    7.3415    3.0702   28.0615 C   0  0  0  0  0  0  0  0  0  0  0  0
    7.4957    4.2785   28.0663 O   0  0  0  0  0  0  0  0  0  0  0  0
    6.6182    2.2172   29.0412 C   0  0  0  0  0  0  0  0  0  0  0  0
    6.0086    2.5405   30.2538 C   0  0  0  0  0  0  0  0  0  0  0  0
    5.3443    1.5186   30.9400 C   0  0  0  0  0  0  0  0  0  0  0  0
    5.3096    0.2054   30.4183 C   0  0  0  0  0  0  0  0  0  0  0  0
    5.9357   -0.1056   29.2043 C   0  0  0  0  0  0  0  0  0  0  0  0
    6.5866    0.9237   28.5244 C   0  0  0  0  0  0  0  0  0  0  0  0
    7.2985    0.9508   27.2084 C   0  0  0  0  0  0  0  0  0  0  0  0
    7.3877    0.0849   26.3640 O   0  0  0  0  0  0  0  0  0  0  0  0
    5.9180   -1.1160   28.8018 H   0  0  0  0  0  0  0  0  0  0  0  0
    4.7778   -0.5725   30.9625 H   0  0  0  0  0  0  0  0  0  0  0  0
    4.8419    1.7369   31.8812 H   0  0  0  0  0  0  0  0  0  0  0  0
    6.0518    3.5576   30.6374 H   0  0  0  0  0  0  0  0  0  0  0  0
    9.2806    3.4753   26.2788 H   0  0  0  0  0  0  0  0  0  0  0  0
    9.1748    1.8753   25.5340 H   0  0  0  0  0  0  0  0  0  0  0  0
    8.4523    3.5906   23.9645 H   0  0  0  0  0  0  0  0  0  0  0  0
    5.9946    2.1016   24.9966 H   0  0  0  0  0  0  0  0  0  0  0  0
    6.0998    3.0098   23.4830 H   0  0  0  0  0  0  0  0  0  0  0  0
    7.4730    0.4493   24.0677 H   0  0  0  0  0  0  0  0  0  0  0  0
  1  2  2  0
  2  3  1  0
  3  4  1  0
  4  5  1  0
  5  6  2  0
  6  7  1  0
  7  8  2  0
  8  9  1  0
  9 10  2  0
 10 11  1  0
  8 12  1  0
  7 13  1  0
  6 14  1  0
  4 15  1  0
  4 16  1  0
  3 17  1  0
  3 18  1  0
  2 19  1  0
 19 20  1  0
 20 21  1  0
 21 22  1  0
 22 23  1  0
 21 24  1  0
 24 25  1  0
 25 26  1  0
 26 27  2  0
 26 28  1  0
 28 29  2  0
 29 30  1  0
 30 31  2  0
 31 32  1  0
 32 33  2  0
 33 34  1  0
 34 35  2  0
 32 36  1  0
 31 37  1  0
 30 38  1  0
 29 39  1  0
 24 40  1  0
 24 41  1  0
 21 42  1  0
 20 43  1  0
 20 44  1  0
 19 45  1  0
 10  5  1  0
 34 25  1  0
 33 28  1  0
M  END
>  <plip>  (1) 
-0.07142857142857142

>  <filename>  (1) 
[H][O][C]([H])([C]([H])([H])[N]([H])[C](=[O])[C]([H])([H])[C]([H])([H])[c]1[c]([H])[n][c]([H])[c]([H])[c]1[H])[C]([H])([H])[N]1[C](=[O])[c]2[c]([H])[c]([H])[c]([H])[c]([H])[c]2[C]1=[O]

$$$$
