
     RDKit          3D

 49 51  0  0  0  0  0  0  0  0999 V2000
    5.9845    0.1631   22.8676 O   0  0  0  0  0  0  0  0  0  0  0  0
    6.8405   -0.5777   22.4297 C   0  0  0  0  0  0  0  0  0  0  0  0
    7.6691   -1.4140   23.3852 C   0  0  0  0  0  0  0  0  0  0  0  0
    6.7294   -2.1725   24.3233 C   0  0  0  0  0  0  0  0  0  0  0  0
    5.7483   -2.8073   23.3852 N   0  0  0  0  0  4  0  0  0  0  0  0
    4.7380   -3.7523   23.9228 C   0  0  0  0  0  0  0  0  0  0  0  0
    5.3736   -4.9544   24.6512 C   0  0  0  0  0  0  0  0  0  0  0  0
    4.2998   -5.8943   25.2164 C   0  0  0  0  0  0  0  0  0  0  0  0
    3.3021   -5.1416   25.9794 N   0  0  0  0  0  0  0  0  0  0  0  0
    2.5969   -5.7550   27.0248 C   0  0  0  0  0  0  0  0  0  0  0  0
    1.1940   -5.8450   27.0027 C   0  0  0  0  0  0  0  0  0  0  0  0
    0.5299   -6.2304   28.1593 C   0  0  0  0  0  0  0  0  0  0  0  0
   -0.8128   -6.2375   28.1469 F   0  0  0  0  0  0  0  0  0  0  0  0
    1.2028   -6.5623   29.3291 C   0  0  0  0  0  0  0  0  0  0  0  0
    2.6021   -6.5590   29.3108 C   0  0  0  0  0  0  0  0  0  0  0  0
    3.2976   -6.1788   28.1625 C   0  0  0  0  0  0  0  0  0  0  0  0
    4.3816   -6.1297   28.1319 H   0  0  0  0  0  0  0  0  0  0  0  0
    3.1561   -6.8320   30.2032 H   0  0  0  0  0  0  0  0  0  0  0  0
    0.6367   -6.8008   30.2209 H   0  0  0  0  0  0  0  0  0  0  0  0
    0.6406   -5.5966   26.1081 H   0  0  0  0  0  0  0  0  0  0  0  0
    2.6658   -4.0531   25.2495 C   0  0  0  0  0  0  0  0  0  0  0  0
    3.7368   -3.0540   24.8477 C   0  0  0  0  0  0  0  0  0  0  0  0
    4.2484   -2.6967   25.7529 H   0  0  0  0  0  0  0  0  0  0  0  0
    3.2583   -2.2034   24.3606 H   0  0  0  0  0  0  0  0  0  0  0  0
    1.9285   -3.5538   25.8904 H   0  0  0  0  0  0  0  0  0  0  0  0
    2.1269   -4.4202   24.3487 H   0  0  0  0  0  0  0  0  0  0  0  0
    4.7887   -6.6246   25.8753 H   0  0  0  0  0  0  0  0  0  0  0  0
    3.8205   -6.4678   24.3942 H   0  0  0  0  0  0  0  0  0  0  0  0
    6.0268   -5.4968   23.9547 H   0  0  0  0  0  0  0  0  0  0  0  0
    5.9975   -4.5909   25.4794 H   0  0  0  0  0  0  0  0  0  0  0  0
    4.1629   -4.1472   23.0731 H   0  0  0  0  0  0  0  0  0  0  0  0
    6.3085   -3.2897   22.6501 H   0  0  0  0  0  0  0  0  0  0  0  0
    5.2550   -1.9953   22.9491 H   0  0  0  0  0  0  0  0  0  0  0  0
    6.2106   -1.4819   25.0002 H   0  0  0  0  0  0  0  0  0  0  0  0
    7.2663   -2.9074   24.9371 H   0  0  0  0  0  0  0  0  0  0  0  0
    8.3210   -0.7417   23.9551 H   0  0  0  0  0  0  0  0  0  0  0  0
    8.2969   -2.1146   22.8288 H   0  0  0  0  0  0  0  0  0  0  0  0
    7.0553   -0.7977   21.0883 N   0  0  0  0  0  0  0  0  0  0  0  0
    6.4992   -0.1124   19.9720 C   0  0  0  0  0  0  0  0  0  0  0  0
    5.3667    0.7082   20.0845 C   0  0  0  0  0  0  0  0  0  0  0  0
    4.9173    1.3762   18.9400 C   0  0  0  0  0  0  0  0  0  0  0  0
    5.5887    1.2030   17.7284 C   0  0  0  0  0  0  0  0  0  0  0  0
    6.6638    0.4077   17.5991 N   0  0  0  0  0  0  0  0  0  0  0  0
    7.0970   -0.2283   18.6917 C   0  0  0  0  0  0  0  0  0  0  0  0
    7.9770   -0.8589   18.5633 H   0  0  0  0  0  0  0  0  0  0  0  0
    5.2634    1.7223   16.8315 H   0  0  0  0  0  0  0  0  0  0  0  0
    4.0632    2.0432   18.9840 H   0  0  0  0  0  0  0  0  0  0  0  0
    4.8829    0.8317   21.0470 H   0  0  0  0  0  0  0  0  0  0  0  0
    7.8530   -1.3803   20.9078 H   0  0  0  0  0  0  0  0  0  0  0  0
  1  2  2  0
  2  3  1  0
  3  4  1  0
  4  5  1  0
  5  6  1  0
  6  7  1  0
  7  8  1  0
  8  9  1  0
  9 10  1  0
 10 11  2  0
 11 12  1  0
 12 13  1  0
 12 14  2  0
 14 15  1  0
 15 16  2  0
 16 17  1  0
 15 18  1  0
 14 19  1  0
 11 20  1  0
  9 21  1  0
 21 22  1  0
 22 23  1  0
 22 24  1  0
 21 25  1  0
 21 26  1  0
  8 27  1  0
  8 28  1  0
  7 29  1  0
  7 30  1  0
  6 31  1  0
  5 32  1  0
  5 33  1  0
  4 34  1  0
  4 35  1  0
  3 36  1  0
  3 37  1  0
  2 38  1  0
 38 39  1  0
 39 40  2  0
 40 41  1  0
 41 42  2  0
 42 43  1  0
 43 44  2  0
 44 45  1  0
 42 46  1  0
 41 47  1  0
 40 48  1  0
 38 49  1  0
 22  6  1  0
 44 39  1  0
 16 10  1  0
M  CHG  1   5   1
M  END
>  <plip>  (1) 
-0.10344827586206896

>  <filename>  (1) 
[H][c]1[n][c]([H])[c]([N]([H])[C](=[O])[C]([H])([H])[C]([H])([H])[N+]([H])([H])[C]2([H])[C]([H])([H])[C]([H])([H])[N]([c]3[c]([H])[c]([H])[c]([H])[c]([F])[c]3[H])[C]([H])([H])[C]2([H])[H])[c]([H])[c]1[H]

$$$$
