
     RDKit          3D

 53 55  0  0  0  0  0  0  0  0999 V2000
    8.0301    2.2198   23.0045 C   0  0  0  0  0  0  0  0  0  0  0  0
    7.3509    1.0546   22.5669 O   0  0  0  0  0  0  0  0  0  0  0  0
    8.1461    0.1689   21.8437 C   0  0  0  0  0  0  0  0  0  0  0  0
    9.0402   -0.4755   22.7237 O   0  0  0  0  0  0  0  0  0  0  0  0
   10.3553   -0.6441   22.2451 C   0  0  0  0  0  0  0  0  0  0  0  0
   10.9193   -1.1246   23.0473 H   0  0  0  0  0  0  0  0  0  0  0  0
   10.8335    0.3189   22.0099 H   0  0  0  0  0  0  0  0  0  0  0  0
   10.4042   -1.2843   21.3493 H   0  0  0  0  0  0  0  0  0  0  0  0
    7.2502   -0.8587   21.0672 C   0  0  0  0  0  0  0  0  0  0  0  0
    6.3536   -1.6103   21.9340 N   0  0  0  0  0  0  0  0  0  0  0  0
    5.8423   -2.8143   21.5455 C   0  0  0  0  0  0  0  0  0  0  0  0
    6.1498   -3.3517   20.4923 O   0  0  0  0  0  0  0  0  0  0  0  0
    4.9240   -3.4897   22.5559 C   0  0  0  0  0  0  0  0  0  0  0  0
    4.7641   -3.3289   23.8941 C   0  0  0  0  0  0  0  0  0  0  0  0
    3.8193   -4.3227   24.3914 C   0  0  0  0  0  0  0  0  0  0  0  0
    3.4333   -4.5464   25.5264 O   0  0  0  0  0  0  0  0  0  0  0  0
    3.4601   -5.0419   23.2396 N   0  0  0  0  0  0  0  0  0  0  0  0
    2.5241   -6.1039   23.1561 C   0  0  0  0  0  0  0  0  0  0  0  0
    2.3813   -6.9779   24.2419 C   0  0  0  0  0  0  0  0  0  0  0  0
    1.5699   -8.1042   24.1044 C   0  0  0  0  0  0  0  0  0  0  0  0
    0.8761   -8.3782   22.9182 C   0  0  0  0  0  0  0  0  0  0  0  0
    0.0467   -9.6311   22.7943 C   0  0  0  0  0  0  0  0  0  0  0  0
    0.5224  -10.3735   22.1391 H   0  0  0  0  0  0  0  0  0  0  0  0
   -0.9350   -9.4073   22.3641 H   0  0  0  0  0  0  0  0  0  0  0  0
   -0.1122  -10.0955   23.7712 H   0  0  0  0  0  0  0  0  0  0  0  0
    0.9796   -7.4661   21.8356 C   0  0  0  0  0  0  0  0  0  0  0  0
    0.2457   -7.7291   20.5376 C   0  0  0  0  0  0  0  0  0  0  0  0
    0.5294   -8.7007   20.1157 H   0  0  0  0  0  0  0  0  0  0  0  0
   -0.8403   -7.7460   20.6901 H   0  0  0  0  0  0  0  0  0  0  0  0
    0.4520   -6.9660   19.7844 H   0  0  0  0  0  0  0  0  0  0  0  0
    1.7700   -6.3259   21.9914 C   0  0  0  0  0  0  0  0  0  0  0  0
    1.8053   -5.5733   21.2133 H   0  0  0  0  0  0  0  0  0  0  0  0
    1.4550   -8.7778   24.9549 H   0  0  0  0  0  0  0  0  0  0  0  0
    2.8947   -6.7474   25.1670 H   0  0  0  0  0  0  0  0  0  0  0  0
    4.1009   -4.5388   22.1021 N   0  0  0  0  0  0  0  0  0  0  0  0
    4.5970   -5.2756   21.5862 H   0  0  0  0  0  0  0  0  0  0  0  0
    5.2763   -2.6770   24.5889 H   0  0  0  0  0  0  0  0  0  0  0  0
    5.8495   -1.0916   22.6389 H   0  0  0  0  0  0  0  0  0  0  0  0
    6.5088   -0.2092   19.9016 C   0  0  0  0  0  0  0  0  0  0  0  0
    5.3523    0.5660   20.0856 C   0  0  0  0  0  0  0  0  0  0  0  0
    4.8466    1.2780   18.9980 C   0  0  0  0  0  0  0  0  0  0  0  0
    5.4919    1.1813   17.7617 C   0  0  0  0  0  0  0  0  0  0  0  0
    6.5640    0.4043   17.5524 N   0  0  0  0  0  0  0  0  0  0  0  0
    7.0434   -0.2730   18.6048 C   0  0  0  0  0  0  0  0  0  0  0  0
    7.9171   -0.8970   18.4001 H   0  0  0  0  0  0  0  0  0  0  0  0
    5.1296    1.7427   16.9010 H   0  0  0  0  0  0  0  0  0  0  0  0
    3.9857    1.9282   19.1017 H   0  0  0  0  0  0  0  0  0  0  0  0
    4.8645    0.6360   21.0610 H   0  0  0  0  0  0  0  0  0  0  0  0
    7.9615   -1.5888   20.6611 H   0  0  0  0  0  0  0  0  0  0  0  0
    8.7122    0.7224   21.0696 H   0  0  0  0  0  0  0  0  0  0  0  0
    8.8447    1.9722   23.6969 H   0  0  0  0  0  0  0  0  0  0  0  0
    7.2884    2.8389   23.5149 H   0  0  0  0  0  0  0  0  0  0  0  0
    8.4432    2.7931   22.1578 H   0  0  0  0  0  0  0  0  0  0  0  0
  1  2  1  0
  2  3  1  0
  3  4  1  0
  4  5  1  0
  5  6  1  0
  5  7  1  0
  5  8  1  0
  3  9  1  0
  9 10  1  0
 10 11  1  0
 11 12  2  0
 11 13  1  0
 13 14  2  0
 14 15  1  0
 15 16  2  0
 15 17  1  0
 17 18  1  0
 18 19  2  0
 19 20  1  0
 20 21  2  0
 21 22  1  0
 22 23  1  0
 22 24  1  0
 22 25  1  0
 21 26  1  0
 26 27  1  0
 27 28  1  0
 27 29  1  0
 27 30  1  0
 26 31  2  0
 31 32  1  0
 20 33  1  0
 19 34  1  0
 17 35  1  0
 35 36  1  0
 14 37  1  0
 10 38  1  0
  9 39  1  0
 39 40  2  0
 40 41  1  0
 41 42  2  0
 42 43  1  0
 43 44  2  0
 44 45  1  0
 42 46  1  0
 41 47  1  0
 40 48  1  0
  9 49  1  0
  3 50  1  0
  1 51  1  0
  1 52  1  0
  1 53  1  0
 35 13  1  0
 44 39  1  0
 31 18  1  0
M  END
>  <plip>  (1) 
-0.13333333333333333

>  <filename>  (1) 
[H][c]1[n][c]([H])[c]([C]([H])([N]([H])[C](=[O])[c]2[c]([H])[c](=[O])[n](-[c]3[c]([H])[c]([H])[c]([C]([H])([H])[H])[c]([C]([H])([H])[H])[c]3[H])[n]2[H])[C]([H])([O][C]([H])([H])[H])[O][C]([H])([H])[H])[c]([H])[c]1[H]

$$$$
