
     RDKit          3D

 46 48  0  0  0  0  0  0  0  0999 V2000
    8.0543   -1.7108   22.9171 C   0  0  0  0  0  0  0  0  0  0  0  0
    7.1257   -0.7020   22.2576 C   0  0  0  0  0  0  0  0  0  0  0  0
    7.5070   -0.6327   20.8651 O   0  0  0  0  0  0  0  0  0  0  0  0
    6.7203    0.0182   19.9547 C   0  0  0  0  0  0  0  0  0  0  0  0
    5.5019    0.6597   20.2134 C   0  0  0  0  0  0  0  0  0  0  0  0
    4.8546    1.2927   19.1380 C   0  0  0  0  0  0  0  0  0  0  0  0
    5.4300    1.2773   17.8658 C   0  0  0  0  0  0  0  0  0  0  0  0
    6.5882    0.6471   17.6019 N   0  0  0  0  0  0  0  0  0  0  0  0
    7.2038    0.0393   18.6213 C   0  0  0  0  0  0  0  0  0  0  0  0
    8.1342   -0.4795   18.4044 H   0  0  0  0  0  0  0  0  0  0  0  0
    4.9604    1.7899   17.0273 H   0  0  0  0  0  0  0  0  0  0  0  0
    3.9114    1.8084   19.2761 H   0  0  0  0  0  0  0  0  0  0  0  0
    5.0732    0.6696   21.2168 H   0  0  0  0  0  0  0  0  0  0  0  0
    7.1462    0.6760   22.9666 C   0  0  0  0  0  0  0  0  0  0  0  0
    6.2175    1.0405   23.6701 O   0  0  0  0  0  0  0  0  0  0  0  0
    8.2743    1.4268   22.7666 N   0  0  0  0  0  0  0  0  0  0  0  0
    8.1983    2.8629   22.9869 C   0  0  0  0  0  0  0  0  0  0  0  0
    7.0915    3.4521   22.1078 C   0  0  0  0  0  0  0  0  0  0  0  0
    6.8806    4.9612   22.2087 C   0  0  0  0  0  0  0  0  0  0  0  0
    8.1375    5.7112   21.7426 C   0  0  0  0  0  0  0  0  0  0  0  0
    8.1547    7.1568   22.1911 C   0  0  0  0  0  0  0  0  0  0  0  0
    7.9562    7.3140   23.5945 O   0  0  0  0  0  0  0  0  0  0  0  0
    7.0251    6.5284   24.2146 C   0  0  0  0  0  0  0  0  0  0  0  0
    6.7132    6.8923   25.5326 C   0  0  0  0  0  0  0  0  0  0  0  0
    5.8541    6.1008   26.2879 C   0  0  0  0  0  0  0  0  0  0  0  0
    5.2855    4.9517   25.7260 C   0  0  0  0  0  0  0  0  0  0  0  0
    5.5935    4.6048   24.4117 C   0  0  0  0  0  0  0  0  0  0  0  0
    6.4729    5.3774   23.6244 C   0  0  0  0  0  0  0  0  0  0  0  0
    5.1787    3.6811   24.0130 H   0  0  0  0  0  0  0  0  0  0  0  0
    4.6275    4.3134   26.3095 H   0  0  0  0  0  0  0  0  0  0  0  0
    5.6305    6.3711   27.3146 H   0  0  0  0  0  0  0  0  0  0  0  0
    7.1828    7.7866   25.9286 H   0  0  0  0  0  0  0  0  0  0  0  0
    9.1625    7.5318   22.0192 H   0  0  0  0  0  0  0  0  0  0  0  0
    7.4345    7.7786   21.6359 H   0  0  0  0  0  0  0  0  0  0  0  0
    8.2271    5.6782   20.6525 H   0  0  0  0  0  0  0  0  0  0  0  0
    9.0272    5.2287   22.1660 H   0  0  0  0  0  0  0  0  0  0  0  0
    6.0426    5.2022   21.5314 H   0  0  0  0  0  0  0  0  0  0  0  0
    7.2595    3.1343   21.0756 H   0  0  0  0  0  0  0  0  0  0  0  0
    6.1714    2.9412   22.3877 H   0  0  0  0  0  0  0  0  0  0  0  0
    9.1919    3.2800   22.7893 H   0  0  0  0  0  0  0  0  0  0  0  0
    7.9851    3.0643   24.0428 H   0  0  0  0  0  0  0  0  0  0  0  0
    8.7408    1.1777   21.9070 H   0  0  0  0  0  0  0  0  0  0  0  0
    6.0956   -1.0518   22.3290 H   0  0  0  0  0  0  0  0  0  0  0  0
    9.0930   -1.3821   22.8116 H   0  0  0  0  0  0  0  0  0  0  0  0
    7.8198   -1.8055   23.9833 H   0  0  0  0  0  0  0  0  0  0  0  0
    7.9374   -2.6912   22.4457 H   0  0  0  0  0  0  0  0  0  0  0  0
  1  2  1  0
  2  3  1  0
  3  4  1  0
  4  5  2  0
  5  6  1  0
  6  7  2  0
  7  8  1  0
  8  9  2  0
  9 10  1  0
  7 11  1  0
  6 12  1  0
  5 13  1  0
  2 14  1  0
 14 15  2  0
 14 16  1  0
 16 17  1  0
 17 18  1  0
 18 19  1  0
 19 20  1  0
 20 21  1  0
 21 22  1  0
 22 23  1  0
 23 24  2  0
 24 25  1  0
 25 26  2  0
 26 27  1  0
 27 28  2  0
 27 29  1  0
 26 30  1  0
 25 31  1  0
 24 32  1  0
 21 33  1  0
 21 34  1  0
 20 35  1  0
 20 36  1  0
 19 37  1  0
 18 38  1  0
 18 39  1  0
 17 40  1  0
 17 41  1  0
 16 42  1  0
  2 43  1  0
  1 44  1  0
  1 45  1  0
  1 46  1  0
  9  4  1  0
 28 19  1  0
 28 23  1  0
M  END
>  <plip>  (1) 
-0.07142857142857142

>  <filename>  (1) 
[H][c]1[n][c]([H])[c]([O][C]([H])([C](=[O])[N]([H])[C]([H])([H])[C]([H])([H])[C]2([H])[c]3[c]([H])[c]([H])[c]([H])[c]([H])[c]3[O][C]([H])([H])[C]2([H])[H])[C]([H])([H])[H])[c]([H])[c]1[H]

$$$$
