
     RDKit          3D

 48 50  0  0  0  0  0  0  0  0999 V2000
    8.7443    2.3670   22.4592 C   0  0  0  0  0  0  0  0  0  0  0  0
    8.5900    1.2743   21.5649 O   0  0  0  0  0  0  0  0  0  0  0  0
    7.8416    0.2381   22.1148 C   0  0  0  0  0  0  0  0  0  0  0  0
    8.6142   -0.4456   23.0726 O   0  0  0  0  0  0  0  0  0  0  0  0
    7.9742   -0.6369   24.3171 C   0  0  0  0  0  0  0  0  0  0  0  0
    7.0204   -1.1760   24.2183 H   0  0  0  0  0  0  0  0  0  0  0  0
    8.6611   -1.2314   24.9212 H   0  0  0  0  0  0  0  0  0  0  0  0
    7.7754    0.3186   24.8277 H   0  0  0  0  0  0  0  0  0  0  0  0
    7.3961   -0.7425   20.9867 C   0  0  0  0  0  0  0  0  0  0  0  0
    6.6065   -1.8668   21.4878 N   0  0  0  0  0  0  0  0  0  0  0  0
    7.1295   -3.1101   21.6973 C   0  0  0  0  0  0  0  0  0  0  0  0
    8.2592   -3.4224   21.3374 O   0  0  0  0  0  0  0  0  0  0  0  0
    6.2349   -4.1117   22.3977 C   0  0  0  0  0  0  0  0  0  0  0  0
    6.6077   -5.4023   22.6709 C   0  0  0  0  0  0  0  0  0  0  0  0
    5.5385   -5.9763   23.3007 N   0  0  0  0  0  0  0  0  0  0  0  0
    4.5553   -5.0339   23.4085 C   0  0  0  0  0  0  0  0  0  0  0  0
    3.2561   -5.2772   24.0663 C   0  0  0  0  0  0  0  0  0  0  0  0
    2.4314   -4.1664   24.3309 C   0  0  0  0  0  0  0  0  0  0  0  0
    1.1515   -4.3227   24.8651 C   0  0  0  0  0  0  0  0  0  0  0  0
    0.6969   -5.5883   25.2387 C   0  0  0  0  0  0  0  0  0  0  0  0
    1.5436   -6.6863   25.0338 C   0  0  0  0  0  0  0  0  0  0  0  0
    1.0887   -8.0348   25.4631 N   0  0  0  0  0  4  0  0  0  0  0  0
    1.8351   -8.9820   25.2789 O   0  0  0  0  0  0  0  0  0  0  0  0
   -0.0133   -8.1298   25.9775 O   0  0  0  0  0  1  0  0  0  0  0  0
    2.8027   -6.5563   24.4448 C   0  0  0  0  0  0  0  0  0  0  0  0
    3.3831   -7.4672   24.3148 H   0  0  0  0  0  0  0  0  0  0  0  0
   -0.2739   -5.7339   25.7035 H   0  0  0  0  0  0  0  0  0  0  0  0
    0.5090   -3.4580   25.0018 H   0  0  0  0  0  0  0  0  0  0  0  0
    2.8405   -3.1803   24.1371 H   0  0  0  0  0  0  0  0  0  0  0  0
    4.9481   -3.8997   22.8637 N   0  0  0  0  0  0  0  0  0  0  0  0
    5.4767   -6.9111   23.6749 H   0  0  0  0  0  0  0  0  0  0  0  0
    7.5417   -5.9064   22.4588 H   0  0  0  0  0  0  0  0  0  0  0  0
    5.6545   -1.7275   21.8155 H   0  0  0  0  0  0  0  0  0  0  0  0
    6.6310   -0.0347   19.8919 C   0  0  0  0  0  0  0  0  0  0  0  0
    5.4266    0.6372   20.1435 C   0  0  0  0  0  0  0  0  0  0  0  0
    4.7968    1.3081   19.0928 C   0  0  0  0  0  0  0  0  0  0  0  0
    5.3966    1.2944   17.8273 C   0  0  0  0  0  0  0  0  0  0  0  0
    6.5545    0.6715   17.5671 N   0  0  0  0  0  0  0  0  0  0  0  0
    7.1472    0.0380   18.5899 C   0  0  0  0  0  0  0  0  0  0  0  0
    8.1074   -0.4263   18.3594 H   0  0  0  0  0  0  0  0  0  0  0  0
    4.9291    1.8017   16.9843 H   0  0  0  0  0  0  0  0  0  0  0  0
    3.8706    1.8508   19.2448 H   0  0  0  0  0  0  0  0  0  0  0  0
    4.9945    0.6642   21.1474 H   0  0  0  0  0  0  0  0  0  0  0  0
    8.3413   -1.1546   20.6124 H   0  0  0  0  0  0  0  0  0  0  0  0
    6.9346    0.6538   22.5898 H   0  0  0  0  0  0  0  0  0  0  0  0
    9.3631    3.1093   21.9541 H   0  0  0  0  0  0  0  0  0  0  0  0
    7.7718    2.8170   22.7126 H   0  0  0  0  0  0  0  0  0  0  0  0
    9.2286    2.0617   23.3958 H   0  0  0  0  0  0  0  0  0  0  0  0
  1  2  1  0
  2  3  1  0
  3  4  1  0
  4  5  1  0
  5  6  1  0
  5  7  1  0
  5  8  1  0
  3  9  1  0
  9 10  1  0
 10 11  1  0
 11 12  2  0
 11 13  1  0
 13 14  2  0
 14 15  1  0
 15 16  1  0
 16 17  1  0
 17 18  2  0
 18 19  1  0
 19 20  2  0
 20 21  1  0
 21 22  1  0
 22 23  2  0
 22 24  1  0
 21 25  2  0
 25 26  1  0
 20 27  1  0
 19 28  1  0
 18 29  1  0
 16 30  2  0
 15 31  1  0
 14 32  1  0
 10 33  1  0
  9 34  1  0
 34 35  2  0
 35 36  1  0
 36 37  2  0
 37 38  1  0
 38 39  2  0
 39 40  1  0
 37 41  1  0
 36 42  1  0
 35 43  1  0
  9 44  1  0
  3 45  1  0
  1 46  1  0
  1 47  1  0
  1 48  1  0
 30 13  1  0
 39 34  1  0
 25 17  1  0
M  CHG  2  22   1  24  -1
M  END
>  <plip>  (1) 
-0.0967741935483871

>  <filename>  (1) 
[H][c]1[n][c]([H])[c]([C]([H])([N]([H])[C](=[O])[c]2[n][c](-[c]3[c]([H])[c]([H])[c]([H])[c]([N+](=[O])[O-])[c]3[H])[n]([H])[c]2[H])[C]([H])([O][C]([H])([H])[H])[O][C]([H])([H])[H])[c]([H])[c]1[H]

$$$$
