
     RDKit          3D

 25 26  0  0  0  0  0  0  0  0999 V2000
    4.9750    1.7248   16.9658 H   0  0  0  0  0  0  0  0  0  0  0  0
    5.4330    1.2717   17.8424 C   0  0  0  0  0  0  0  0  0  0  0  0
    6.5889    0.6239   17.6273 N   0  0  0  0  0  0  0  0  0  0  0  0
    7.1567    0.0432   18.6850 C   0  0  0  0  0  0  0  0  0  0  0  0
    8.1004   -0.4709   18.5131 H   0  0  0  0  0  0  0  0  0  0  0  0
    6.6359    0.0733   19.9937 C   0  0  0  0  0  0  0  0  0  0  0  0
    7.3460   -0.6276   21.0593 C   0  0  0  0  0  0  0  0  0  0  0  0
    7.6513   -0.2066   22.2994 C   0  0  0  0  0  0  0  0  0  0  0  0
    7.3254    1.0713   22.7068 O   0  0  0  0  0  0  0  0  0  0  0  0
    7.1041    1.5680   24.2472 S   0  0  0  0  0  0  0  0  0  0  0  0
    6.4836    2.8380   24.0820 O   0  0  0  0  0  0  0  0  0  0  0  0
    6.6455    0.4711   25.0412 O   0  0  0  0  0  0  0  0  0  0  0  0
    8.6763    1.7969   24.5953 N   0  0  0  0  0  0  0  0  0  0  0  0
    8.9751    2.1602   23.7006 H   0  0  0  0  0  0  0  0  0  0  0  0
    8.9628    0.8249   24.7019 H   0  0  0  0  0  0  0  0  0  0  0  0
    8.5335   -1.2302   22.9469 C   0  0  0  0  0  0  0  0  0  0  0  0
    9.1425   -1.1745   23.9866 O   0  0  0  0  0  0  0  0  0  0  0  0
    8.5726   -2.3027   22.1252 O   0  0  0  0  0  0  0  0  0  0  0  0
    8.0028   -1.9614   20.8656 C   0  0  0  0  0  0  0  0  0  0  0  0
    8.8260   -1.9133   20.1388 H   0  0  0  0  0  0  0  0  0  0  0  0
    7.3055   -2.7485   20.5572 H   0  0  0  0  0  0  0  0  0  0  0  0
    5.4448    0.7872   20.2062 C   0  0  0  0  0  0  0  0  0  0  0  0
    5.0353    0.8843   21.2150 H   0  0  0  0  0  0  0  0  0  0  0  0
    4.8216    1.3699   19.0997 C   0  0  0  0  0  0  0  0  0  0  0  0
    3.8859    1.9101   19.1985 H   0  0  0  0  0  0  0  0  0  0  0  0
  1  2  1  0
  2  3  2  0
  3  4  1  0
  4  5  1  0
  4  6  2  0
  6  7  1  0
  7  8  2  0
  8  9  1  0
  9 10  1  0
 10 11  2  0
 10 12  2  0
 10 13  1  0
 13 14  1  0
 13 15  1  0
  8 16  1  0
 16 17  2  0
 16 18  1  0
 18 19  1  0
 19 20  1  0
 19 21  1  0
  6 22  1  0
 22 23  1  0
 22 24  2  0
 24 25  1  0
 24  2  1  0
 19  7  1  0
M  END
>  <plip>  (1) 
-0.07142857142857142

>  <filename>  (1) 
[H][c]1[n][c]([H])[c]([C]2=[C]([O][S](=[O])(=[O])[N]([H])[H])[C](=[O])[O][C]2([H])[H])[c]([H])[c]1[H]

$$$$
