
     RDKit          3D

 52 55  0  0  0  0  0  0  0  0999 V2000
    6.4950    0.6953   23.5163 O   0  0  0  0  0  0  0  0  0  0  0  0
    6.9339    1.6712   22.9081 C   0  0  0  0  0  0  0  0  0  0  0  0
    7.7970    1.5623   21.8686 N   0  0  0  0  0  0  0  0  0  0  0  0
    8.3432    0.3036   21.3759 C   0  0  0  0  0  0  0  0  0  0  0  0
    7.2407   -0.6489   20.8539 C   0  0  0  0  0  0  0  0  0  0  0  0
    6.4775   -0.0513   19.7092 C   0  0  0  0  0  0  0  0  0  0  0  0
    5.2664    0.6095   19.9333 C   0  0  0  0  0  0  0  0  0  0  0  0
    4.6987    1.3385   18.8892 C   0  0  0  0  0  0  0  0  0  0  0  0
    5.3612    1.3617   17.6576 C   0  0  0  0  0  0  0  0  0  0  0  0
    6.4930    0.6844   17.4043 N   0  0  0  0  0  0  0  0  0  0  0  0
    7.0241   -0.0124   18.4164 C   0  0  0  0  0  0  0  0  0  0  0  0
    7.9425   -0.5661   18.2002 H   0  0  0  0  0  0  0  0  0  0  0  0
    4.9582    1.9352   16.8272 H   0  0  0  0  0  0  0  0  0  0  0  0
    3.7771    1.8904   19.0263 H   0  0  0  0  0  0  0  0  0  0  0  0
    4.8172    0.5594   20.9281 H   0  0  0  0  0  0  0  0  0  0  0  0
    6.5699   -0.8794   21.6854 H   0  0  0  0  0  0  0  0  0  0  0  0
    7.6953   -1.5883   20.5196 H   0  0  0  0  0  0  0  0  0  0  0  0
    9.2131   -0.3683   22.4431 C   0  0  0  0  0  0  0  0  0  0  0  0
   10.3671    0.4820   22.9967 C   0  0  0  0  0  0  0  0  0  0  0  0
   11.2967   -0.5467   23.6534 C   0  0  0  0  0  0  0  0  0  0  0  0
   11.0725   -1.8876   22.8975 C   0  0  0  0  0  0  0  0  0  0  0  0
    9.9235   -1.6220   21.9199 C   0  0  0  0  0  0  0  0  0  0  0  0
    9.2375   -2.4692   21.8140 H   0  0  0  0  0  0  0  0  0  0  0  0
   10.3196   -1.3987   20.9211 H   0  0  0  0  0  0  0  0  0  0  0  0
   10.8071   -2.6828   23.6044 H   0  0  0  0  0  0  0  0  0  0  0  0
   11.9702   -2.2245   22.3674 H   0  0  0  0  0  0  0  0  0  0  0  0
   11.0207   -0.6761   24.7070 H   0  0  0  0  0  0  0  0  0  0  0  0
   12.3463   -0.2308   23.6363 H   0  0  0  0  0  0  0  0  0  0  0  0
   10.8809    0.9982   22.1739 H   0  0  0  0  0  0  0  0  0  0  0  0
   10.0350    1.2539   23.7019 H   0  0  0  0  0  0  0  0  0  0  0  0
    8.5495   -0.6340   23.2775 H   0  0  0  0  0  0  0  0  0  0  0  0
    8.9850    0.5825   20.5280 H   0  0  0  0  0  0  0  0  0  0  0  0
    8.0808    2.4325   21.4419 H   0  0  0  0  0  0  0  0  0  0  0  0
    6.5264    3.0854   23.2810 C   0  0  0  0  0  0  0  0  0  0  0  0
    6.9329    4.1784   22.6136 N   0  0  0  0  0  0  0  0  0  0  0  0
    6.2863    5.1949   23.1799 N   0  0  0  0  0  0  0  0  0  0  0  0
    5.4917    4.8189   24.2238 C   0  0  0  0  0  0  0  0  0  0  0  0
    4.6023    5.7213   24.9852 C   0  0  0  0  0  0  0  0  0  0  0  0
    3.9820    6.8381   24.3893 C   0  0  0  0  0  0  0  0  0  0  0  0
    3.1123    7.6558   25.1118 C   0  0  0  0  0  0  0  0  0  0  0  0
    2.8401    7.3818   26.4562 C   0  0  0  0  0  0  0  0  0  0  0  0
    3.4280    6.2752   27.0638 C   0  0  0  0  0  0  0  0  0  0  0  0
    4.2962    5.4489   26.3391 C   0  0  0  0  0  0  0  0  0  0  0  0
    4.8611    4.3724   26.9527 O   0  0  0  0  0  0  0  0  0  0  0  0
    4.5602    4.3744   27.8670 H   0  0  0  0  0  0  0  0  0  0  0  0
    3.2276    6.0503   28.1094 H   0  0  0  0  0  0  0  0  0  0  0  0
    2.1739    8.0277   27.0274 H   0  0  0  0  0  0  0  0  0  0  0  0
    2.6571    8.5108   24.6267 H   0  0  0  0  0  0  0  0  0  0  0  0
    4.1743    7.0531   23.3379 H   0  0  0  0  0  0  0  0  0  0  0  0
    5.6530    3.4531   24.3256 C   0  0  0  0  0  0  0  0  0  0  0  0
    5.2031    2.8320   25.0819 H   0  0  0  0  0  0  0  0  0  0  0  0
    6.4974    6.1305   22.8601 H   0  0  0  0  0  0  0  0  0  0  0  0
  1  2  2  0
  2  3  1  0
  3  4  1  0
  4  5  1  0
  5  6  1  0
  6  7  2  0
  7  8  1  0
  8  9  2  0
  9 10  1  0
 10 11  2  0
 11 12  1  0
  9 13  1  0
  8 14  1  0
  7 15  1  0
  5 16  1  0
  5 17  1  0
  4 18  1  0
 18 19  1  0
 19 20  1  0
 20 21  1  0
 21 22  1  0
 22 23  1  0
 22 24  1  0
 21 25  1  0
 21 26  1  0
 20 27  1  0
 20 28  1  0
 19 29  1  0
 19 30  1  0
 18 31  1  0
  4 32  1  0
  3 33  1  0
  2 34  1  0
 34 35  2  0
 35 36  1  0
 36 37  1  0
 37 38  1  0
 38 39  2  0
 39 40  1  0
 40 41  2  0
 41 42  1  0
 42 43  2  0
 43 44  1  0
 44 45  1  0
 42 46  1  0
 41 47  1  0
 40 48  1  0
 39 49  1  0
 37 50  2  0
 50 51  1  0
 36 52  1  0
 11  6  1  0
 22 18  1  0
 50 34  1  0
 43 38  1  0
M  END
>  <plip>  (1) 
-0.14285714285714285

>  <filename>  (1) 
[H][O][c]1[c]([H])[c]([H])[c]([H])[c]([H])[c]1-[c]1[c]([H])[c]([C](=[O])[N]([H])[C]([H])([C]([H])([H])[c]2[c]([H])[n][c]([H])[c]([H])[c]2[H])[C]2([H])[C]([H])([H])[C]([H])([H])[C]([H])([H])[C]2([H])[H])[n][n]1[H]

$$$$
