
     RDKit          3D

 33 35  0  0  0  0  0  0  0  0999 V2000
    4.9630    1.8052   16.9467 H   0  0  0  0  0  0  0  0  0  0  0  0
    5.3920    1.3076   17.8142 C   0  0  0  0  0  0  0  0  0  0  0  0
    6.5527    0.6687   17.6071 N   0  0  0  0  0  0  0  0  0  0  0  0
    7.1091    0.0625   18.6606 C   0  0  0  0  0  0  0  0  0  0  0  0
    8.0565   -0.4460   18.4687 H   0  0  0  0  0  0  0  0  0  0  0  0
    6.5607    0.0602   19.9492 C   0  0  0  0  0  0  0  0  0  0  0  0
    7.3918   -0.6366   21.0128 C   0  0  0  0  0  0  0  0  0  0  0  0
    8.6842    0.0905   21.3116 C   0  0  0  0  0  0  0  0  0  0  0  0
    8.5977    1.3345   21.9643 C   0  0  0  0  0  0  0  0  0  0  0  0
    7.3785    1.7576   22.3228 O   0  0  0  0  0  0  0  0  0  0  0  0
    7.2495    3.0066   22.9967 C   0  0  0  0  0  0  0  0  0  0  0  0
    7.6304    3.8231   22.3774 H   0  0  0  0  0  0  0  0  0  0  0  0
    6.1878    3.1469   23.1931 H   0  0  0  0  0  0  0  0  0  0  0  0
    7.8029    3.0039   23.9405 H   0  0  0  0  0  0  0  0  0  0  0  0
    9.6496    2.0992   22.2334 N   0  0  0  0  0  0  0  0  0  0  0  0
   10.8632    1.6161   21.9555 C   0  0  0  0  0  0  0  0  0  0  0  0
   11.6967    2.2719   22.2052 H   0  0  0  0  0  0  0  0  0  0  0  0
   11.0730    0.3634   21.3926 C   0  0  0  0  0  0  0  0  0  0  0  0
   12.0813   -0.0176   21.2937 H   0  0  0  0  0  0  0  0  0  0  0  0
    9.9585   -0.3934   21.0171 C   0  0  0  0  0  0  0  0  0  0  0  0
   10.0504   -1.3480   20.4932 H   0  0  0  0  0  0  0  0  0  0  0  0
    6.6865   -0.8232   22.2220 O   0  0  0  0  0  0  0  0  0  0  0  0
    6.3287   -2.1920   22.3327 C   0  0  0  0  0  0  0  0  0  0  0  0
    5.3323   -2.3592   21.9030 H   0  0  0  0  0  0  0  0  0  0  0  0
    6.3260   -2.4647   23.3925 H   0  0  0  0  0  0  0  0  0  0  0  0
    7.3977   -2.8942   21.5116 C   0  0  0  0  0  0  0  0  0  0  0  0
    8.2992   -3.1347   22.0935 H   0  0  0  0  0  0  0  0  0  0  0  0
    7.0307   -3.7909   21.0051 H   0  0  0  0  0  0  0  0  0  0  0  0
    7.6837   -1.9326   20.5139 O   0  0  0  0  0  0  0  0  0  0  0  0
    5.3310    0.7022   20.1410 C   0  0  0  0  0  0  0  0  0  0  0  0
    4.8595    0.7193   21.1248 H   0  0  0  0  0  0  0  0  0  0  0  0
    4.7412    1.3419   19.0510 C   0  0  0  0  0  0  0  0  0  0  0  0
    3.8031    1.8782   19.1450 H   0  0  0  0  0  0  0  0  0  0  0  0
  1  2  1  0
  2  3  2  0
  3  4  1  0
  4  5  1  0
  4  6  2  0
  6  7  1  0
  7  8  1  0
  8  9  2  0
  9 10  1  0
 10 11  1  0
 11 12  1  0
 11 13  1  0
 11 14  1  0
  9 15  1  0
 15 16  2  0
 16 17  1  0
 16 18  1  0
 18 19  1  0
 18 20  2  0
 20 21  1  0
  7 22  1  0
 22 23  1  0
 23 24  1  0
 23 25  1  0
 23 26  1  0
 26 27  1  0
 26 28  1  0
 26 29  1  0
  6 30  1  0
 30 31  1  0
 30 32  2  0
 32 33  1  0
 32  2  1  0
 29  7  1  0
 20  8  1  0
M  END
>  <plip>  (1) 
-0.07142857142857142

>  <filename>  (1) 
[H][c]1[n][c]([H])[c]([C]2([c]3[c]([O][C]([H])([H])[H])[n][c]([H])[c]([H])[c]3[H])[O][C]([H])([H])[C]([H])([H])[O]2)[c]([H])[c]1[H]

$$$$
