
     RDKit          3D

 43 44  0  0  0  0  0  0  0  0999 V2000
    8.4026   -2.6312   22.0896 C   0  0  0  0  0  0  0  0  0  0  0  0
    7.6309   -1.9571   20.9451 C   0  0  0  0  0  0  0  0  0  0  0  0
    6.3780   -2.7732   20.5995 C   0  0  0  0  0  0  0  0  0  0  0  0
    6.6088   -3.8398   20.5956 H   0  0  0  0  0  0  0  0  0  0  0  0
    5.5857   -2.5824   21.3367 H   0  0  0  0  0  0  0  0  0  0  0  0
    6.0124   -2.5022   19.6010 H   0  0  0  0  0  0  0  0  0  0  0  0
    7.2028   -0.5197   21.2750 C   0  0  0  0  0  0  0  0  0  0  0  0
    6.5754    0.1485   20.0990 C   0  0  0  0  0  0  0  0  0  0  0  0
    5.3354    0.7837   20.1997 C   0  0  0  0  0  0  0  0  0  0  0  0
    4.8259    1.3672   19.0421 C   0  0  0  0  0  0  0  0  0  0  0  0
    5.5468    1.2963   17.8435 C   0  0  0  0  0  0  0  0  0  0  0  0
    6.7453    0.6893   17.7623 N   0  0  0  0  0  0  0  0  0  0  0  0
    7.2507    0.1325   18.8746 C   0  0  0  0  0  0  0  0  0  0  0  0
    8.2166   -0.3655   18.8155 H   0  0  0  0  0  0  0  0  0  0  0  0
    5.1180    1.7427   16.9489 H   0  0  0  0  0  0  0  0  0  0  0  0
    3.8736    1.8819   19.0551 H   0  0  0  0  0  0  0  0  0  0  0  0
    4.7881    0.8280   21.1436 H   0  0  0  0  0  0  0  0  0  0  0  0
    8.3123    0.3628   21.6442 N   0  0  0  0  0  4  0  0  0  0  0  0
    9.5965    0.1369   20.9301 C   0  0  0  0  0  0  0  0  0  0  0  0
    9.4530    0.1534   19.8435 H   0  0  0  0  0  0  0  0  0  0  0  0
   10.0249   -0.8358   21.1983 H   0  0  0  0  0  0  0  0  0  0  0  0
   10.3306    0.9119   21.1913 H   0  0  0  0  0  0  0  0  0  0  0  0
    8.4811    0.2514   23.0981 C   0  0  0  0  0  0  0  0  0  0  0  0
    9.0240    1.5600   23.5738 C   0  0  0  0  0  0  0  0  0  0  0  0
    8.1338    2.6093   23.8229 C   0  0  0  0  0  0  0  0  0  0  0  0
    8.6052    3.8529   24.2458 C   0  0  0  0  0  0  0  0  0  0  0  0
    9.9768    4.0475   24.4326 C   0  0  0  0  0  0  0  0  0  0  0  0
   10.6191    5.7152   25.1048 Br  0  0  0  0  0  0  0  0  0  0  0  0
   10.8741    3.0040   24.1521 C   0  0  0  0  0  0  0  0  0  0  0  0
   10.4074    1.7543   23.7207 C   0  0  0  0  0  0  0  0  0  0  0  0
   11.3314    0.7018   23.4063 C   0  0  0  0  0  0  0  0  0  0  0  0
   12.0442   -0.1578   23.0674 N   0  0  0  0  0  0  0  0  0  0  0  0
   11.9396    3.1604   24.2893 H   0  0  0  0  0  0  0  0  0  0  0  0
    7.9046    4.6647   24.4227 H   0  0  0  0  0  0  0  0  0  0  0  0
    7.0729    2.4449   23.6644 H   0  0  0  0  0  0  0  0  0  0  0  0
    7.5273    0.0452   23.5970 H   0  0  0  0  0  0  0  0  0  0  0  0
    9.1676   -0.5616   23.3523 H   0  0  0  0  0  0  0  0  0  0  0  0
    7.9998    1.3176   21.4430 H   0  0  0  0  0  0  0  0  0  0  0  0
    6.4768   -0.5667   22.0972 H   0  0  0  0  0  0  0  0  0  0  0  0
    8.3018   -1.9127   20.0851 H   0  0  0  0  0  0  0  0  0  0  0  0
    7.8009   -2.6855   22.9995 H   0  0  0  0  0  0  0  0  0  0  0  0
    9.3172   -2.0748   22.3180 H   0  0  0  0  0  0  0  0  0  0  0  0
    8.6806   -3.6494   21.7963 H   0  0  0  0  0  0  0  0  0  0  0  0
  1  2  1  0
  2  3  1  0
  3  4  1  0
  3  5  1  0
  3  6  1  0
  2  7  1  0
  7  8  1  0
  8  9  2  0
  9 10  1  0
 10 11  2  0
 11 12  1  0
 12 13  2  0
 13 14  1  0
 11 15  1  0
 10 16  1  0
  9 17  1  0
  7 18  1  0
 18 19  1  0
 19 20  1  0
 19 21  1  0
 19 22  1  0
 18 23  1  0
 23 24  1  0
 24 25  2  0
 25 26  1  0
 26 27  2  0
 27 28  1  0
 27 29  1  0
 29 30  2  0
 30 31  1  0
 31 32  3  0
 29 33  1  0
 26 34  1  0
 25 35  1  0
 23 36  1  0
 23 37  1  0
 18 38  1  0
  7 39  1  0
  2 40  1  0
  1 41  1  0
  1 42  1  0
  1 43  1  0
 13  8  1  0
 30 24  1  0
M  CHG  1  18   1
M  END
>  <plip>  (1) 
-0.10714285714285714

>  <filename>  (1) 
[H][c]1[n][c]([H])[c]([C]([H])([C]([H])([C]([H])([H])[H])[C]([H])([H])[H])[N+]([H])([C]([H])([H])[H])[C]([H])([H])[c]2[c]([H])[c]([H])[c]([Br])[c]([H])[c]2[C]#[N])[c]([H])[c]1[H]

$$$$
