
     RDKit          3D

 32 34  0  0  0  0  0  0  0  0999 V2000
    4.9470    1.8673   16.9900 H   0  0  0  0  0  0  0  0  0  0  0  0
    5.4076    1.3160   17.8073 C   0  0  0  0  0  0  0  0  0  0  0  0
    6.5350    0.6549   17.4990 N   0  0  0  0  0  0  0  0  0  0  0  0
    7.1230   -0.0353   18.4816 C   0  0  0  0  0  0  0  0  0  0  0  0
    8.0377   -0.5715   18.2289 H   0  0  0  0  0  0  0  0  0  0  0  0
    6.6379   -0.1154   19.7966 C   0  0  0  0  0  0  0  0  0  0  0  0
    7.4390   -0.8660   20.8496 C   0  0  0  0  0  0  0  0  0  0  0  0
    7.7466   -1.8448   20.4693 H   0  0  0  0  0  0  0  0  0  0  0  0
    6.8281   -1.0139   21.7464 H   0  0  0  0  0  0  0  0  0  0  0  0
    8.6650   -0.1036   21.2609 C   0  0  0  0  0  0  0  0  0  0  0  0
    9.9202   -0.3429   20.9896 N   0  0  0  0  0  0  0  0  0  0  0  0
   10.6678    0.7203   21.4497 N   0  0  0  0  0  0  0  0  0  0  0  0
    9.8355    1.5735   21.9771 C   0  0  0  0  0  0  0  0  0  0  0  0
   10.0446    2.5190   22.4559 H   0  0  0  0  0  0  0  0  0  0  0  0
    8.5511    1.1057   21.9022 N   0  0  0  0  0  0  0  0  0  0  0  0
    7.3813    1.6886   22.4123 N   0  0  0  0  0  0  0  0  0  0  0  0
    6.9502    2.3398   21.7588 H   0  0  0  0  0  0  0  0  0  0  0  0
    7.3954    2.2651   23.7014 C   0  0  0  0  0  0  0  0  0  0  0  0
    8.3122    1.9587   24.7166 C   0  0  0  0  0  0  0  0  0  0  0  0
    9.0583    1.1841   24.5721 H   0  0  0  0  0  0  0  0  0  0  0  0
    8.2916    2.6689   25.9199 C   0  0  0  0  0  0  0  0  0  0  0  0
    9.0222    2.4468   26.6857 H   0  0  0  0  0  0  0  0  0  0  0  0
    7.3273    3.6582   26.1357 C   0  0  0  0  0  0  0  0  0  0  0  0
    7.3474    4.5716   27.6210 Cl  0  0  0  0  0  0  0  0  0  0  0  0
    6.3567    3.9130   25.1618 C   0  0  0  0  0  0  0  0  0  0  0  0
    5.5909    4.6573   25.3399 H   0  0  0  0  0  0  0  0  0  0  0  0
    6.3931    3.2066   23.9572 C   0  0  0  0  0  0  0  0  0  0  0  0
    5.6398    3.3782   23.1928 H   0  0  0  0  0  0  0  0  0  0  0  0
    5.4629    0.5808   20.0984 C   0  0  0  0  0  0  0  0  0  0  0  0
    5.0775    0.5534   21.1206 H   0  0  0  0  0  0  0  0  0  0  0  0
    4.8297    1.3089   19.0819 C   0  0  0  0  0  0  0  0  0  0  0  0
    3.9144    1.8652   19.2600 H   0  0  0  0  0  0  0  0  0  0  0  0
  1  2  1  0
  2  3  2  0
  3  4  1  0
  4  5  1  0
  4  6  2  0
  6  7  1  0
  7  8  1  0
  7  9  1  0
  7 10  1  0
 10 11  2  0
 11 12  1  0
 12 13  2  0
 13 14  1  0
 13 15  1  0
 15 16  1  0
 16 17  1  0
 16 18  1  0
 18 19  2  0
 19 20  1  0
 19 21  1  0
 21 22  1  0
 21 23  2  0
 23 24  1  0
 23 25  1  0
 25 26  1  0
 25 27  2  0
 27 28  1  0
  6 29  1  0
 29 30  1  0
 29 31  2  0
 31 32  1  0
 31  2  1  0
 15 10  1  0
 27 18  1  0
M  END
>  <plip>  (1) 
-0.14285714285714285

>  <filename>  (1) 
[H][c]1[n][c]([H])[c]([C]([H])([H])[c]2[n][n][c]([H])[n]2[N]([H])[c]2[c]([H])[c]([H])[c]([Cl])[c]([H])[c]2[H])[c]([H])[c]1[H]

$$$$
