
     RDKit          3D

 38 40  0  0  0  0  0  0  0  0999 V2000
    6.3944   -1.0101   24.1796 H   0  0  0  0  0  0  0  0  0  0  0  0
    6.9790   -0.9366   23.2622 C   0  0  0  0  0  0  0  0  0  0  0  0
    6.4012   -0.3334   22.2313 N   0  0  0  0  0  0  0  0  0  0  0  0
    7.0961   -0.2795   21.0934 C   0  0  0  0  0  0  0  0  0  0  0  0
    6.4318    0.3084   19.9219 C   0  0  0  0  0  0  0  0  0  0  0  0
    7.0504    0.2064   18.6700 C   0  0  0  0  0  0  0  0  0  0  0  0
    7.9955   -0.3197   18.5620 H   0  0  0  0  0  0  0  0  0  0  0  0
    6.5352    0.7158   17.5450 N   0  0  0  0  0  0  0  0  0  0  0  0
    5.3635    1.3574   17.6397 C   0  0  0  0  0  0  0  0  0  0  0  0
    4.9665    1.7667   16.7127 H   0  0  0  0  0  0  0  0  0  0  0  0
    4.6577    1.5080   18.8376 C   0  0  0  0  0  0  0  0  0  0  0  0
    3.7146    2.0450   18.8497 H   0  0  0  0  0  0  0  0  0  0  0  0
    5.1911    0.9659   20.0017 C   0  0  0  0  0  0  0  0  0  0  0  0
    4.6674    1.0387   20.9562 H   0  0  0  0  0  0  0  0  0  0  0  0
    8.3362   -0.7518   20.9259 N   0  0  0  0  0  0  0  0  0  0  0  0
    8.9084   -1.3563   21.9622 C   0  0  0  0  0  0  0  0  0  0  0  0
   10.2632   -1.9596   21.7349 C   0  0  0  0  0  0  0  0  0  0  0  0
   10.1660   -2.5754   20.8363 H   0  0  0  0  0  0  0  0  0  0  0  0
   10.4837   -2.6388   22.5684 H   0  0  0  0  0  0  0  0  0  0  0  0
   11.4583   -0.9948   21.5279 C   0  0  0  0  0  0  0  0  0  0  0  0
   11.2938   -0.4625   20.5793 H   0  0  0  0  0  0  0  0  0  0  0  0
   12.7223   -1.8641   21.4137 C   0  0  0  0  0  0  0  0  0  0  0  0
   12.6752   -2.4101   20.4659 H   0  0  0  0  0  0  0  0  0  0  0  0
   12.6975   -2.5938   22.2388 H   0  0  0  0  0  0  0  0  0  0  0  0
   14.0719   -1.1517   21.4702 C   0  0  0  0  0  0  0  0  0  0  0  0
   14.3615   -0.7874   20.4836 H   0  0  0  0  0  0  0  0  0  0  0  0
   14.8224   -1.9036   21.7015 H   0  0  0  0  0  0  0  0  0  0  0  0
   14.1294   -0.0232   22.5014 C   0  0  0  0  0  0  0  0  0  0  0  0
   15.0517    0.5490   22.3533 H   0  0  0  0  0  0  0  0  0  0  0  0
   14.1804   -0.4634   23.5055 H   0  0  0  0  0  0  0  0  0  0  0  0
   12.8963    0.8945   22.4618 C   0  0  0  0  0  0  0  0  0  0  0  0
   12.9855    1.6352   23.2639 H   0  0  0  0  0  0  0  0  0  0  0  0
   12.8494    1.4784   21.5318 H   0  0  0  0  0  0  0  0  0  0  0  0
   11.6076    0.0701   22.6260 C   0  0  0  0  0  0  0  0  0  0  0  0
   10.7211    0.7167   22.6232 H   0  0  0  0  0  0  0  0  0  0  0  0
   11.6548   -0.4218   23.6103 H   0  0  0  0  0  0  0  0  0  0  0  0
    8.2553   -1.4748   23.1866 C   0  0  0  0  0  0  0  0  0  0  0  0
    8.7245   -1.9734   24.0199 H   0  0  0  0  0  0  0  0  0  0  0  0
  1  2  1  0
  2  3  2  0
  3  4  1  0
  4  5  1  0
  5  6  2  0
  6  7  1  0
  6  8  1  0
  8  9  2  0
  9 10  1  0
  9 11  1  0
 11 12  1  0
 11 13  2  0
 13 14  1  0
  4 15  2  0
 15 16  1  0
 16 17  1  0
 17 18  1  0
 17 19  1  0
 17 20  1  0
 20 21  1  0
 20 22  1  0
 22 23  1  0
 22 24  1  0
 22 25  1  0
 25 26  1  0
 25 27  1  0
 25 28  1  0
 28 29  1  0
 28 30  1  0
 28 31  1  0
 31 32  1  0
 31 33  1  0
 31 34  1  0
 34 35  1  0
 34 36  1  0
 16 37  2  0
 37 38  1  0
 37  2  1  0
 13  5  1  0
 34 20  1  0
M  END
>  <plip>  (1) 
-0.07142857142857142

>  <filename>  (1) 
[H][c]1[n][c](-[c]2[c]([H])[n][c]([H])[c]([H])[c]2[H])[n][c]([C]([H])([H])[C]2([H])[C]([H])([H])[C]([H])([H])[C]([H])([H])[C]([H])([H])[C]2([H])[H])[c]1[H]

$$$$
