
     RDKit          3D

 37 38  0  0  0  0  0  0  0  0999 V2000
    7.8463   -4.6219   27.9381 C   0  0  0  0  0  0  0  0  0  0  0  0
    7.5871   -4.6851   26.4838 C   0  0  0  0  0  0  0  0  0  0  0  0
    7.0060   -3.7864   25.6474 C   0  0  0  0  0  0  0  0  0  0  0  0
    6.3482   -2.5103   26.0041 C   0  0  0  0  0  0  0  0  0  0  0  0
    6.1157   -1.7018   25.0676 O   0  0  0  0  0  0  0  0  0  0  0  0
    6.0617   -2.3413   27.2032 O   0  0  0  0  0  1  0  0  0  0  0  0
    7.0400   -4.3890   24.3685 C   0  0  0  0  0  0  0  0  0  0  0  0
    6.5129   -3.9067   23.0298 C   0  0  0  0  0  0  0  0  0  0  0  0
    6.7680   -2.4635   22.7332 N   0  0  0  0  0  4  0  0  0  0  0  0
    6.2300   -1.9182   21.4513 C   0  0  0  0  0  0  0  0  0  0  0  0
    6.1690   -2.9841   20.3525 C   0  0  0  0  0  0  0  0  0  0  0  0
    7.0663   -3.6109   20.4016 H   0  0  0  0  0  0  0  0  0  0  0  0
    5.2971   -3.6265   20.4940 H   0  0  0  0  0  0  0  0  0  0  0  0
    6.1147   -2.5341   19.3570 H   0  0  0  0  0  0  0  0  0  0  0  0
    7.1360   -0.7320   21.0552 C   0  0  0  0  0  0  0  0  0  0  0  0
    6.6055    0.0864   19.8961 C   0  0  0  0  0  0  0  0  0  0  0  0
    5.4060    0.7967   20.0532 C   0  0  0  0  0  0  0  0  0  0  0  0
    4.8518    1.4472   18.9510 C   0  0  0  0  0  0  0  0  0  0  0  0
    5.5189    1.3773   17.7234 C   0  0  0  0  0  0  0  0  0  0  0  0
    6.6808    0.7287   17.5523 N   0  0  0  0  0  0  0  0  0  0  0  0
    7.2043    0.1130   18.6244 C   0  0  0  0  0  0  0  0  0  0  0  0
    8.1473   -0.4123   18.4553 H   0  0  0  0  0  0  0  0  0  0  0  0
    5.0933    1.8504   16.8393 H   0  0  0  0  0  0  0  0  0  0  0  0
    3.9191    1.9930   19.0343 H   0  0  0  0  0  0  0  0  0  0  0  0
    4.9180    0.8263   21.0299 H   0  0  0  0  0  0  0  0  0  0  0  0
    8.1291   -1.1408   20.8290 H   0  0  0  0  0  0  0  0  0  0  0  0
    7.2405   -0.0874   21.9375 H   0  0  0  0  0  0  0  0  0  0  0  0
    5.2149   -1.5384   21.6342 H   0  0  0  0  0  0  0  0  0  0  0  0
    7.7927   -2.3029   22.7036 H   0  0  0  0  0  0  0  0  0  0  0  0
    6.4047   -1.9299   23.6087 H   0  0  0  0  0  0  0  0  0  0  0  0
    5.4300   -4.0977   22.9989 H   0  0  0  0  0  0  0  0  0  0  0  0
    6.9836   -4.5376   22.2646 H   0  0  0  0  0  0  0  0  0  0  0  0
    7.5755   -5.5781   24.4414 N   0  0  0  0  0  0  0  0  0  0  0  0
    7.9324   -5.7565   25.7670 O   0  0  0  0  0  0  0  0  0  0  0  0
    8.3387   -3.6704   28.1412 H   0  0  0  0  0  0  0  0  0  0  0  0
    8.4599   -5.4506   28.2942 H   0  0  0  0  0  0  0  0  0  0  0  0
    6.8913   -4.5947   28.4698 H   0  0  0  0  0  0  0  0  0  0  0  0
  1  2  1  0
  2  3  2  0
  3  4  1  0
  4  5  2  0
  4  6  1  0
  3  7  1  0
  7  8  1  0
  8  9  1  0
  9 10  1  0
 10 11  1  0
 11 12  1  0
 11 13  1  0
 11 14  1  0
 10 15  1  0
 15 16  1  0
 16 17  2  0
 17 18  1  0
 18 19  2  0
 19 20  1  0
 20 21  2  0
 21 22  1  0
 19 23  1  0
 18 24  1  0
 17 25  1  0
 15 26  1  0
 15 27  1  0
 10 28  1  0
  9 29  1  0
  9 30  1  0
  8 31  1  0
  8 32  1  0
  7 33  2  0
 33 34  1  0
  1 35  1  0
  1 36  1  0
  1 37  1  0
 34  2  1  0
 21 16  1  0
M  CHG  2   6  -1   9   1
M  END
>  <plip>  (1) 
-0.07142857142857142

>  <filename>  (1) 
[H][c]1[n][c]([H])[c]([C]([H])([H])[C]([H])([C]([H])([H])[H])[N+]([H])([H])[C]([H])([H])[c]2[n][o][c]([C]([H])([H])[H])[c]2[C](=[O])[O-])[c]([H])[c]1[H]

$$$$
