
     RDKit          3D

 27 29  0  0  0  0  0  0  0  0999 V2000
    4.9126    1.8178   16.9655 H   0  0  0  0  0  0  0  0  0  0  0  0
    5.3822    1.3109   17.8075 C   0  0  0  0  0  0  0  0  0  0  0  0
    6.5416    0.6876   17.5454 N   0  0  0  0  0  0  0  0  0  0  0  0
    7.1533    0.0736   18.5685 C   0  0  0  0  0  0  0  0  0  0  0  0
    8.0920   -0.4272   18.3329 H   0  0  0  0  0  0  0  0  0  0  0  0
    6.6521    0.0223   19.8867 C   0  0  0  0  0  0  0  0  0  0  0  0
    7.3609   -0.7011   20.9634 C   0  0  0  0  0  0  0  0  0  0  0  0
    6.7790   -1.6740   21.7253 C   0  0  0  0  0  0  0  0  0  0  0  0
    5.7561   -2.0131   21.6574 H   0  0  0  0  0  0  0  0  0  0  0  0
    7.8475   -2.3962   22.8578 S   0  0  0  0  0  0  0  0  0  0  0  0
    9.1316   -1.3644   22.3484 C   0  0  0  0  0  0  0  0  0  0  0  0
   10.1201   -1.3980   22.7809 H   0  0  0  0  0  0  0  0  0  0  0  0
    8.7508   -0.5211   21.3448 C   0  0  0  0  0  0  0  0  0  0  0  0
    9.5745    0.4049   20.7598 N   0  0  0  0  0  0  0  0  0  0  0  0
    9.1140    1.0748   20.1660 H   0  0  0  0  0  0  0  0  0  0  0  0
   10.9361    0.5694   21.1328 C   0  0  0  0  0  0  0  0  0  0  0  0
   11.5845   -0.2639   20.8255 H   0  0  0  0  0  0  0  0  0  0  0  0
   11.2685    1.2936   22.4089 C   0  0  0  0  0  0  0  0  0  0  0  0
   10.4282    1.6016   23.0306 H   0  0  0  0  0  0  0  0  0  0  0  0
   12.1475    0.9644   22.9613 H   0  0  0  0  0  0  0  0  0  0  0  0
   11.4720    1.9657   21.0711 C   0  0  0  0  0  0  0  0  0  0  0  0
   12.4764    2.1170   20.6988 H   0  0  0  0  0  0  0  0  0  0  0  0
   10.8014    2.7642   20.7586 H   0  0  0  0  0  0  0  0  0  0  0  0
    5.4269    0.6614   20.1267 C   0  0  0  0  0  0  0  0  0  0  0  0
    5.0078    0.6515   21.1329 H   0  0  0  0  0  0  0  0  0  0  0  0
    4.7902    1.3238   19.0756 C   0  0  0  0  0  0  0  0  0  0  0  0
    3.8598    1.8576   19.2229 H   0  0  0  0  0  0  0  0  0  0  0  0
  1  2  1  0
  2  3  2  0
  3  4  1  0
  4  5  1  0
  4  6  2  0
  6  7  1  0
  7  8  2  0
  8  9  1  0
  8 10  1  0
 10 11  1  0
 11 12  1  0
 11 13  2  0
 13 14  1  0
 14 15  1  0
 14 16  1  0
 16 17  1  0
 16 18  1  0
 18 19  1  0
 18 20  1  0
 18 21  1  0
 21 22  1  0
 21 23  1  0
  6 24  1  0
 24 25  1  0
 24 26  2  0
 26 27  1  0
 26  2  1  0
 13  7  1  0
 21 16  1  0
M  END
>  <plip>  (1) 
-0.10714285714285714

>  <filename>  (1) 
[H][c]1[n][c]([H])[c](-[c]2[c]([H])[s][c]([H])[c]2[N]([H])[C]2([H])[C]([H])([H])[C]2([H])[H])[c]([H])[c]1[H]

$$$$
