
     RDKit          3D

 34 35  0  0  0  0  0  0  0  0999 V2000
    8.0630   -3.9331   21.6779 N   0  0  0  0  0  0  0  0  0  0  0  0
    8.8658   -3.0893   21.6560 C   0  0  0  0  0  0  0  0  0  0  0  0
    9.8995   -2.0553   21.6010 C   0  0  0  0  0  0  0  0  0  0  0  0
    9.4585   -0.8159   22.3556 C   0  0  0  0  0  0  0  0  0  0  0  0
    8.5520    0.0030   21.5195 N   0  0  0  0  0  4  0  0  0  0  0  0
    7.3509   -0.7417   21.0940 C   0  0  0  0  0  0  0  0  0  0  0  0
    6.7085    0.0135   19.9772 C   0  0  0  0  0  0  0  0  0  0  0  0
    5.4904    0.6502   20.1887 C   0  0  0  0  0  0  0  0  0  0  0  0
    4.9104    1.3109   19.1106 C   0  0  0  0  0  0  0  0  0  0  0  0
    5.5503    1.3098   17.8672 C   0  0  0  0  0  0  0  0  0  0  0  0
    6.7235    0.6872   17.6639 N   0  0  0  0  0  0  0  0  0  0  0  0
    7.2965    0.0549   18.7046 C   0  0  0  0  0  0  0  0  0  0  0  0
    8.2377   -0.4560   18.5299 H   0  0  0  0  0  0  0  0  0  0  0  0
    5.0746    1.8263   17.0368 H   0  0  0  0  0  0  0  0  0  0  0  0
    3.9678    1.8269   19.2267 H   0  0  0  0  0  0  0  0  0  0  0  0
    5.0078    0.6263   21.1656 H   0  0  0  0  0  0  0  0  0  0  0  0
    6.6420   -0.8803   21.9204 H   0  0  0  0  0  0  0  0  0  0  0  0
    7.6212   -1.7423   20.7350 H   0  0  0  0  0  0  0  0  0  0  0  0
    8.2521    1.2368   22.2767 C   0  0  0  0  0  0  0  0  0  0  0  0
    9.5275    2.0057   22.4210 C   0  0  0  0  0  0  0  0  0  0  0  0
    9.9467    2.5525   23.6065 C   0  0  0  0  0  0  0  0  0  0  0  0
   11.1766    3.3188   23.4568 C   0  0  0  0  0  0  0  0  0  0  0  0
   11.6606    3.2809   22.1715 C   0  0  0  0  0  0  0  0  0  0  0  0
   13.1812    4.2578   21.5290 Br  0  0  0  0  0  0  0  0  0  0  0  0
   10.6637    2.2913   21.1125 S   0  0  0  0  0  0  0  0  0  0  0  0
   11.6474    3.8701   24.2674 H   0  0  0  0  0  0  0  0  0  0  0  0
    9.3883    2.4739   24.5363 H   0  0  0  0  0  0  0  0  0  0  0  0
    7.8554    1.0185   23.2782 H   0  0  0  0  0  0  0  0  0  0  0  0
    7.5211    1.8589   21.7483 H   0  0  0  0  0  0  0  0  0  0  0  0
    9.0518    0.2817   20.6722 H   0  0  0  0  0  0  0  0  0  0  0  0
   10.3446   -0.2231   22.6135 H   0  0  0  0  0  0  0  0  0  0  0  0
    8.9874   -1.0958   23.3038 H   0  0  0  0  0  0  0  0  0  0  0  0
   10.0678   -1.7797   20.5618 H   0  0  0  0  0  0  0  0  0  0  0  0
   10.8313   -2.4445   22.0235 H   0  0  0  0  0  0  0  0  0  0  0  0
  1  2  3  0
  2  3  1  0
  3  4  1  0
  4  5  1  0
  5  6  1  0
  6  7  1  0
  7  8  2  0
  8  9  1  0
  9 10  2  0
 10 11  1  0
 11 12  2  0
 12 13  1  0
 10 14  1  0
  9 15  1  0
  8 16  1  0
  6 17  1  0
  6 18  1  0
  5 19  1  0
 19 20  1  0
 20 21  2  0
 21 22  1  0
 22 23  2  0
 23 24  1  0
 23 25  1  0
 22 26  1  0
 21 27  1  0
 19 28  1  0
 19 29  1  0
  5 30  1  0
  4 31  1  0
  4 32  1  0
  3 33  1  0
  3 34  1  0
 12  7  1  0
 25 20  1  0
M  CHG  1   5   1
M  END
>  <plip>  (1) 
-0.1

>  <filename>  (1) 
[H][c]1[n][c]([H])[c]([C]([H])([H])[N+]([H])([C]([H])([H])[c]2[s][c]([Br])[c]([H])[c]2[H])[C]([H])([H])[C]([H])([H])[C]#[N])[c]([H])[c]1[H]

$$$$
