
     RDKit          3D

 36 38  0  0  0  0  0  0  0  0999 V2000
    4.9163    1.8254   16.9730 H   0  0  0  0  0  0  0  0  0  0  0  0
    5.4069    1.3381   17.8110 C   0  0  0  0  0  0  0  0  0  0  0  0
    6.5754    0.7354   17.5442 N   0  0  0  0  0  0  0  0  0  0  0  0
    7.1829    0.1037   18.5565 C   0  0  0  0  0  0  0  0  0  0  0  0
    8.1305   -0.3822   18.3141 H   0  0  0  0  0  0  0  0  0  0  0  0
    6.6700    0.0267   19.8645 C   0  0  0  0  0  0  0  0  0  0  0  0
    7.3384   -0.7842   20.9620 C   0  0  0  0  0  0  0  0  0  0  0  0
    8.4083   -0.9185   20.7785 H   0  0  0  0  0  0  0  0  0  0  0  0
    7.2329   -0.2593   21.9167 H   0  0  0  0  0  0  0  0  0  0  0  0
    6.7645   -2.1874   21.1942 C   0  0  0  0  0  0  0  0  0  0  0  0
    6.5089   -2.7812   19.9980 F   0  0  0  0  0  0  0  0  0  0  0  0
    5.5099   -2.0662   21.7456 F   0  0  0  0  0  0  0  0  0  0  0  0
    7.5997   -3.0257   22.0140 N   0  0  0  0  0  0  0  0  0  0  0  0
    7.7529   -2.4996   23.3962 C   0  0  0  0  0  0  0  0  0  0  0  0
    8.3010   -1.5487   23.3580 H   0  0  0  0  0  0  0  0  0  0  0  0
    6.7700   -2.2742   23.8527 H   0  0  0  0  0  0  0  0  0  0  0  0
    8.5144   -3.4185   24.3262 C   0  0  0  0  0  0  0  0  0  0  0  0
    8.9641   -2.9204   25.5594 C   0  0  0  0  0  0  0  0  0  0  0  0
    8.8037   -1.8775   25.8208 H   0  0  0  0  0  0  0  0  0  0  0  0
    9.6228   -3.7498   26.4611 C   0  0  0  0  0  0  0  0  0  0  0  0
    9.9230   -3.3641   27.4265 H   0  0  0  0  0  0  0  0  0  0  0  0
    9.8879   -5.0769   26.1207 C   0  0  0  0  0  0  0  0  0  0  0  0
   10.4391   -5.7114   26.8095 H   0  0  0  0  0  0  0  0  0  0  0  0
    9.4431   -5.5791   24.8988 C   0  0  0  0  0  0  0  0  0  0  0  0
    9.6591   -6.6154   24.6462 H   0  0  0  0  0  0  0  0  0  0  0  0
    8.7185   -4.7709   24.0080 C   0  0  0  0  0  0  0  0  0  0  0  0
    8.1483   -5.3315   22.7191 C   0  0  0  0  0  0  0  0  0  0  0  0
    8.9592   -5.5271   22.0188 H   0  0  0  0  0  0  0  0  0  0  0  0
    7.6827   -6.3028   22.9127 H   0  0  0  0  0  0  0  0  0  0  0  0
    7.1309   -4.4312   22.0330 C   0  0  0  0  0  0  0  0  0  0  0  0
    6.1437   -4.5072   22.5149 H   0  0  0  0  0  0  0  0  0  0  0  0
    7.0100   -4.7695   20.9999 H   0  0  0  0  0  0  0  0  0  0  0  0
    5.4497    0.6731   20.1145 C   0  0  0  0  0  0  0  0  0  0  0  0
    5.0074    0.6506   21.1109 H   0  0  0  0  0  0  0  0  0  0  0  0
    4.8027    1.3395   19.0714 C   0  0  0  0  0  0  0  0  0  0  0  0
    3.8531    1.8432   19.2154 H   0  0  0  0  0  0  0  0  0  0  0  0
  1  2  1  0
  2  3  2  0
  3  4  1  0
  4  5  1  0
  4  6  2  0
  6  7  1  0
  7  8  1  0
  7  9  1  0
  7 10  1  0
 10 11  1  0
 10 12  1  0
 10 13  1  0
 13 14  1  0
 14 15  1  0
 14 16  1  0
 14 17  1  0
 17 18  2  0
 18 19  1  0
 18 20  1  0
 20 21  1  0
 20 22  2  0
 22 23  1  0
 22 24  1  0
 24 25  1  0
 24 26  2  0
 26 27  1  0
 27 28  1  0
 27 29  1  0
 27 30  1  0
 30 31  1  0
 30 32  1  0
  6 33  1  0
 33 34  1  0
 33 35  2  0
 35 36  1  0
 35  2  1  0
 30 13  1  0
 26 17  1  0
M  END
>  <plip>  (1) 
-0.03333333333333333

>  <filename>  (1) 
[H][c]1[n][c]([H])[c]([C]([H])([H])[C]([F])([F])[N]2[C]([H])([H])[c]3[c]([H])[c]([H])[c]([H])[c]([H])[c]3[C]([H])([H])[C]2([H])[H])[c]([H])[c]1[H]

$$$$
