
     RDKit          3D

 35 37  0  0  0  0  0  0  0  0999 V2000
    4.9690    1.8117   16.9811 H   0  0  0  0  0  0  0  0  0  0  0  0
    5.4117    1.2998   17.8343 C   0  0  0  0  0  0  0  0  0  0  0  0
    6.5643    0.6515   17.5987 N   0  0  0  0  0  0  0  0  0  0  0  0
    7.1446    0.0257   18.6247 C   0  0  0  0  0  0  0  0  0  0  0  0
    8.0804   -0.4862   18.4080 H   0  0  0  0  0  0  0  0  0  0  0  0
    6.6338    0.0247   19.9302 C   0  0  0  0  0  0  0  0  0  0  0  0
    7.3821   -0.6567   20.9827 C   0  0  0  0  0  0  0  0  0  0  0  0
    8.0341   -1.8442   20.7660 N   0  0  0  0  0  0  0  0  0  0  0  0
    8.4759   -2.1837   21.9430 C   0  0  0  0  0  0  0  0  0  0  0  0
    8.2479   -1.2559   22.8961 N   0  0  0  0  0  0  0  0  0  0  0  0
    7.5096   -0.2611   22.3055 C   0  0  0  0  0  0  0  0  0  0  0  0
    7.1423    0.9583   23.0035 C   0  0  0  0  0  0  0  0  0  0  0  0
    6.7480    0.8163   24.2253 N   0  0  0  0  0  0  0  0  0  0  0  0
    6.4149    1.9064   24.9736 N   0  0  0  0  0  0  0  0  0  0  0  0
    6.3501    2.8441   24.6078 H   0  0  0  0  0  0  0  0  0  0  0  0
    6.0235    1.8495   26.2847 C   0  0  0  0  0  0  0  0  0  0  0  0
    5.5792    3.2451   27.0700 S   0  0  0  0  0  0  0  0  0  0  0  0
    6.0334    0.6468   26.8583 N   0  0  0  0  0  0  0  0  0  0  0  0
    6.2020   -0.1528   26.2719 H   0  0  0  0  0  0  0  0  0  0  0  0
    5.7275    0.5646   27.8081 H   0  0  0  0  0  0  0  0  0  0  0  0
    7.3075    2.2780   22.2899 C   0  0  0  0  0  0  0  0  0  0  0  0
    6.3426    2.7659   22.1161 H   0  0  0  0  0  0  0  0  0  0  0  0
    7.7866    2.0965   21.3268 H   0  0  0  0  0  0  0  0  0  0  0  0
    7.9430    2.9603   22.8683 H   0  0  0  0  0  0  0  0  0  0  0  0
    8.8344   -1.4265   24.2092 C   0  0  0  0  0  0  0  0  0  0  0  0
    9.2724   -0.4835   24.5447 H   0  0  0  0  0  0  0  0  0  0  0  0
    8.0732   -1.7138   24.9356 H   0  0  0  0  0  0  0  0  0  0  0  0
    9.8730   -2.5438   24.0169 C   0  0  0  0  0  0  0  0  0  0  0  0
   10.8397   -2.1391   23.7096 H   0  0  0  0  0  0  0  0  0  0  0  0
   10.0074   -3.1696   24.9002 H   0  0  0  0  0  0  0  0  0  0  0  0
    9.2301   -3.5961   22.6626 S   0  0  0  0  0  0  0  0  0  0  0  0
    5.4137    0.6894   20.1591 C   0  0  0  0  0  0  0  0  0  0  0  0
    4.9614    0.6976   21.1511 H   0  0  0  0  0  0  0  0  0  0  0  0
    4.7928    1.3309   19.0869 C   0  0  0  0  0  0  0  0  0  0  0  0
    3.8542    1.8632   19.2063 H   0  0  0  0  0  0  0  0  0  0  0  0
  1  2  1  0
  2  3  2  0
  3  4  1  0
  4  5  1  0
  4  6  2  0
  6  7  1  0
  7  8  1  0
  8  9  2  0
  9 10  1  0
 10 11  1  0
 11 12  1  0
 12 13  2  3
 13 14  1  0
 14 15  1  0
 14 16  1  0
 16 17  2  0
 16 18  1  0
 18 19  1  0
 18 20  1  0
 12 21  1  0
 21 22  1  0
 21 23  1  0
 21 24  1  0
 10 25  1  0
 25 26  1  0
 25 27  1  0
 25 28  1  0
 28 29  1  0
 28 30  1  0
 28 31  1  0
  6 32  1  0
 32 33  1  0
 32 34  2  0
 34 35  1  0
 34  2  1  0
 11  7  2  0
 31  9  1  0
M  END
>  <plip>  (1) 
-0.034482758620689655

>  <filename>  (1) 
[H][c]1[n][c]([H])[c](-[c]2[n][c]3[n]([c]2[C](=[N][N]([H])[C](=[S])[N]([H])[H])[C]([H])([H])[H])[C]([H])([H])[C]([H])([H])[S]3)[c]([H])[c]1[H]

$$$$
