
     RDKit          3D

 21 22  0  0  0  0  0  0  0  0999 V2000
    4.6165   -3.9173   24.1976 H   0  0  0  0  0  0  0  0  0  0  0  0
    4.5939   -3.5277   23.2573 N   0  0  0  0  0  0  0  0  0  0  0  0
    5.7008   -3.0086   23.0189 N   0  0  0  0  0  4  0  0  0  0  0  0
    5.8806   -2.2877   21.9443 N   0  0  0  0  0  0  0  0  0  0  0  0
    7.1102   -1.7572   21.8506 C   0  0  0  0  0  0  0  0  0  0  0  0
    8.1650   -2.0477   22.6115 N   0  0  0  0  0  0  0  0  0  0  0  0
    9.1730   -1.3175   22.1101 C   0  0  0  0  0  0  0  0  0  0  0  0
   10.1640   -1.3541   22.5502 H   0  0  0  0  0  0  0  0  0  0  0  0
    8.7844   -0.5653   21.0406 C   0  0  0  0  0  0  0  0  0  0  0  0
    9.2960    0.1668   20.4356 H   0  0  0  0  0  0  0  0  0  0  0  0
    7.4551   -0.8433   20.8431 N   0  0  0  0  0  0  0  0  0  0  0  0
    6.6775   -0.1515   19.8632 C   0  0  0  0  0  0  0  0  0  0  0  0
    7.1787   -0.0197   18.5452 C   0  0  0  0  0  0  0  0  0  0  0  0
    8.1186   -0.4960   18.2759 H   0  0  0  0  0  0  0  0  0  0  0  0
    6.5726    0.6582   17.5742 N   0  0  0  0  0  0  0  0  0  0  0  0
    5.4251    1.2822   17.8809 C   0  0  0  0  0  0  0  0  0  0  0  0
    4.9611    1.8447   17.0716 H   0  0  0  0  0  0  0  0  0  0  0  0
    4.8486    1.2290   19.1534 C   0  0  0  0  0  0  0  0  0  0  0  0
    3.9317    1.7805   19.3359 H   0  0  0  0  0  0  0  0  0  0  0  0
    5.4727    0.4975   20.1735 C   0  0  0  0  0  0  0  0  0  0  0  0
    5.0440    0.4510   21.1767 H   0  0  0  0  0  0  0  0  0  0  0  0
  1  2  1  0
  2  3  2  0
  3  4  2  0
  4  5  1  0
  5  6  2  0
  6  7  1  0
  7  8  1  0
  7  9  2  0
  9 10  1  0
  9 11  1  0
 11 12  1  0
 12 13  2  0
 13 14  1  0
 13 15  1  0
 15 16  2  0
 16 17  1  0
 16 18  1  0
 18 19  1  0
 18 20  2  0
 20 21  1  0
 11  5  1  0
 20 12  1  0
M  CHG  1   3   1
M  END
>  <plip>  (1) 
-0.034482758620689655

>  <filename>  (1) 
[H][N]=[N+]=[N][c]1[n][c]([H])[c]([H])[n]1-[c]1[c]([H])[n][c]([H])[c]([H])[c]1[H]

$$$$
