
     RDKit          3D

 30 32  0  0  0  0  0  0  0  0999 V2000
   10.9807   -3.7401   24.0539 C   0  0  0  0  0  0  0  0  0  0  0  0
    9.9869   -2.6366   23.7600 C   0  0  0  0  0  0  0  0  0  0  0  0
    9.6411   -2.3180   22.5027 C   0  0  0  0  0  0  0  0  0  0  0  0
    8.4128   -1.6386   22.1206 C   0  0  0  0  0  0  0  0  0  0  0  0
    7.3218   -1.4929   22.8098 N   0  0  0  0  0  0  0  0  0  0  0  0
    6.4317   -0.8266   21.9998 N   0  0  0  0  0  0  0  0  0  0  0  0
    7.0327   -0.6101   20.8769 C   0  0  0  0  0  0  0  0  0  0  0  0
    6.4601    0.0846   19.7238 C   0  0  0  0  0  0  0  0  0  0  0  0
    5.2488    0.7896   19.8481 C   0  0  0  0  0  0  0  0  0  0  0  0
    4.7610    1.4554   18.7286 C   0  0  0  0  0  0  0  0  0  0  0  0
    5.4824    1.3812   17.5314 C   0  0  0  0  0  0  0  0  0  0  0  0
    6.6260    0.6934   17.3979 N   0  0  0  0  0  0  0  0  0  0  0  0
    7.1015    0.0670   18.4792 C   0  0  0  0  0  0  0  0  0  0  0  0
    8.0366   -0.4703   18.3377 H   0  0  0  0  0  0  0  0  0  0  0  0
    5.1253    1.8933   16.6403 H   0  0  0  0  0  0  0  0  0  0  0  0
    3.8540    2.0458   18.7746 H   0  0  0  0  0  0  0  0  0  0  0  0
    4.7264    0.8159   20.8077 H   0  0  0  0  0  0  0  0  0  0  0  0
    8.2965   -1.1085   20.8645 O   0  0  0  0  0  0  0  0  0  0  0  0
   10.2748   -2.6375   21.6795 H   0  0  0  0  0  0  0  0  0  0  0  0
    9.4685   -1.8929   24.9272 C   0  0  0  0  0  0  0  0  0  0  0  0
    9.6922   -0.5696   25.2132 C   0  0  0  0  0  0  0  0  0  0  0  0
    9.2962   -0.2235   26.5359 C   0  0  0  0  0  0  0  0  0  0  0  0
    8.7781   -1.2882   27.2066 C   0  0  0  0  0  0  0  0  0  0  0  0
    8.7426   -2.7169   26.2623 S   0  0  0  0  0  0  0  0  0  0  0  0
    8.4561   -1.3187   28.2256 H   0  0  0  0  0  0  0  0  0  0  0  0
    9.3950    0.7639   26.9680 H   0  0  0  0  0  0  0  0  0  0  0  0
   10.1725    0.1111   24.5175 H   0  0  0  0  0  0  0  0  0  0  0  0
   11.3810   -3.5974   25.0536 H   0  0  0  0  0  0  0  0  0  0  0  0
   11.7964   -3.7210   23.3304 H   0  0  0  0  0  0  0  0  0  0  0  0
   10.5037   -4.7262   24.0610 H   0  0  0  0  0  0  0  0  0  0  0  0
  1  2  1  0
  2  3  2  3
  3  4  1  0
  4  5  2  0
  5  6  1  0
  6  7  2  0
  7  8  1  0
  8  9  2  0
  9 10  1  0
 10 11  2  0
 11 12  1  0
 12 13  2  0
 13 14  1  0
 11 15  1  0
 10 16  1  0
  9 17  1  0
  7 18  1  0
  3 19  1  0
  2 20  1  0
 20 21  2  0
 21 22  1  0
 22 23  2  0
 23 24  1  0
 23 25  1  0
 22 26  1  0
 21 27  1  0
  1 28  1  0
  1 29  1  0
  1 30  1  0
 18  4  1  0
 24 20  1  0
 13  8  1  0
M  END
>  <plip>  (1) 
-0.06896551724137931

>  <filename>  (1) 
[H][C](=[C]([c]1[s][c]([H])[c]([H])[c]1[H])[C]([H])([H])[H])[c]1[n][n][c](-[c]2[c]([H])[n][c]([H])[c]([H])[c]2[H])[o]1

$$$$
