
     RDKit          3D

 25 26  0  0  0  0  0  0  0  0999 V2000
    4.9258    1.7867   16.9917 H   0  0  0  0  0  0  0  0  0  0  0  0
    5.4047    1.2910   17.8335 C   0  0  0  0  0  0  0  0  0  0  0  0
    6.5686    0.6708   17.5756 N   0  0  0  0  0  0  0  0  0  0  0  0
    7.1797    0.0547   18.5975 C   0  0  0  0  0  0  0  0  0  0  0  0
    8.1274   -0.4358   18.3960 H   0  0  0  0  0  0  0  0  0  0  0  0
    6.6628    0.0036   19.9161 C   0  0  0  0  0  0  0  0  0  0  0  0
    7.3005   -0.6517   20.9550 N   0  0  0  0  0  0  0  0  0  0  0  0
    6.8582   -0.6394   21.8717 H   0  0  0  0  0  0  0  0  0  0  0  0
    8.5190   -1.3114   20.7635 N   0  0  0  0  0  0  0  0  0  0  0  0
    8.4252   -2.7395   21.1288 C   0  0  0  0  0  0  0  0  0  0  0  0
    9.1799   -3.2842   20.5597 H   0  0  0  0  0  0  0  0  0  0  0  0
    7.4314   -3.1106   20.8522 H   0  0  0  0  0  0  0  0  0  0  0  0
    8.7816   -2.8805   22.6167 C   0  0  0  0  0  0  0  0  0  0  0  0
    7.8757   -2.9989   23.2174 H   0  0  0  0  0  0  0  0  0  0  0  0
    9.3779   -3.7838   22.7791 H   0  0  0  0  0  0  0  0  0  0  0  0
    9.5548   -1.5779   22.9512 C   0  0  0  0  0  0  0  0  0  0  0  0
    9.0422   -1.0151   23.7370 H   0  0  0  0  0  0  0  0  0  0  0  0
   10.5659   -1.7693   23.3188 H   0  0  0  0  0  0  0  0  0  0  0  0
    9.5856   -0.7631   21.6311 C   0  0  0  0  0  0  0  0  0  0  0  0
   10.5430   -0.8638   21.1040 H   0  0  0  0  0  0  0  0  0  0  0  0
    9.4147    0.3093   21.7723 H   0  0  0  0  0  0  0  0  0  0  0  0
    5.4371    0.6507   20.1665 C   0  0  0  0  0  0  0  0  0  0  0  0
    5.0115    0.6306   21.1744 H   0  0  0  0  0  0  0  0  0  0  0  0
    4.8135    1.3048   19.1028 C   0  0  0  0  0  0  0  0  0  0  0  0
    3.8822    1.8357   19.2548 H   0  0  0  0  0  0  0  0  0  0  0  0
  1  2  1  0
  2  3  2  0
  3  4  1  0
  4  5  1  0
  4  6  2  0
  6  7  1  0
  7  8  1  0
  7  9  1  0
  9 10  1  0
 10 11  1  0
 10 12  1  0
 10 13  1  0
 13 14  1  0
 13 15  1  0
 13 16  1  0
 16 17  1  0
 16 18  1  0
 16 19  1  0
 19 20  1  0
 19 21  1  0
  6 22  1  0
 22 23  1  0
 22 24  2  0
 24 25  1  0
 24  2  1  0
 19  9  1  0
M  END
>  <plip>  (1) 
-0.07142857142857142

>  <filename>  (1) 
[H][c]1[n][c]([H])[c]([N]([H])[N]2[C]([H])([H])[C]([H])([H])[C]([H])([H])[C]2([H])[H])[c]([H])[c]1[H]

$$$$
