
     RDKit          3D

 50 52  0  0  0  0  0  0  0  0999 V2000
    6.9004    0.5921   24.1112 C   0  0  0  0  0  0  0  0  0  0  0  0
    7.1046    1.0095   22.7703 O   0  0  0  0  0  0  0  0  0  0  0  0
    8.0622    0.2621   22.0408 C   0  0  0  0  0  0  0  0  0  0  0  0
    8.9121    1.1259   21.3566 O   0  0  0  0  0  0  0  0  0  0  0  0
    9.7357    1.9136   22.2015 C   0  0  0  0  0  0  0  0  0  0  0  0
   10.3094    2.5819   21.5567 H   0  0  0  0  0  0  0  0  0  0  0  0
    9.1420    2.5121   22.9047 H   0  0  0  0  0  0  0  0  0  0  0  0
   10.4389    1.2865   22.7717 H   0  0  0  0  0  0  0  0  0  0  0  0
    7.4393   -0.7073   20.9716 C   0  0  0  0  0  0  0  0  0  0  0  0
    6.6644   -1.7926   21.5766 N   0  0  0  0  0  0  0  0  0  0  0  0
    7.2510   -2.9092   22.1318 C   0  0  0  0  0  0  0  0  0  0  0  0
    8.4122   -3.2004   21.9138 O   0  0  0  0  0  0  0  0  0  0  0  0
    6.2931   -3.7614   23.0106 C   0  0  0  0  0  0  0  0  0  0  0  0
    5.1065   -4.2475   22.4665 C   0  0  0  0  0  0  0  0  0  0  0  0
    4.3104   -5.1706   23.1680 C   0  0  0  0  0  0  0  0  0  0  0  0
    3.0815   -5.7325   22.5336 C   0  0  0  0  0  0  0  0  0  0  0  0
    2.4892   -4.9463   22.0577 H   0  0  0  0  0  0  0  0  0  0  0  0
    3.3747   -6.4551   21.7667 H   0  0  0  0  0  0  0  0  0  0  0  0
    2.4656   -6.2482   23.2710 H   0  0  0  0  0  0  0  0  0  0  0  0
    4.6311   -5.6101   24.3805 N   0  0  0  0  0  0  0  0  0  0  0  0
    5.7331   -5.1358   24.9690 C   0  0  0  0  0  0  0  0  0  0  0  0
    6.5730   -4.1815   24.3548 C   0  0  0  0  0  0  0  0  0  0  0  0
    7.6347   -3.5660   25.2235 C   0  0  0  0  0  0  0  0  0  0  0  0
    8.1677   -2.5131   24.9343 O   0  0  0  0  0  0  0  0  0  0  0  0
    8.0232   -4.2976   26.4991 C   0  0  0  0  0  0  0  0  0  0  0  0
    6.8076   -4.8348   27.2581 C   0  0  0  0  0  0  0  0  0  0  0  0
    6.0048   -5.7448   26.3251 C   0  0  0  0  0  0  0  0  0  0  0  0
    5.0440   -6.0435   26.7535 H   0  0  0  0  0  0  0  0  0  0  0  0
    6.5554   -6.6756   26.1402 H   0  0  0  0  0  0  0  0  0  0  0  0
    6.1780   -3.9978   27.5866 H   0  0  0  0  0  0  0  0  0  0  0  0
    7.1025   -5.3783   28.1650 H   0  0  0  0  0  0  0  0  0  0  0  0
    8.6317   -3.6172   27.0977 H   0  0  0  0  0  0  0  0  0  0  0  0
    8.6658   -5.1322   26.1919 H   0  0  0  0  0  0  0  0  0  0  0  0
    4.7642   -3.9220   21.4900 H   0  0  0  0  0  0  0  0  0  0  0  0
    5.7154   -1.5914   21.8470 H   0  0  0  0  0  0  0  0  0  0  0  0
    6.6363   -0.0107   19.8851 C   0  0  0  0  0  0  0  0  0  0  0  0
    5.4265    0.6521   20.1307 C   0  0  0  0  0  0  0  0  0  0  0  0
    4.7919    1.3057   19.0713 C   0  0  0  0  0  0  0  0  0  0  0  0
    5.3884    1.2867   17.8067 C   0  0  0  0  0  0  0  0  0  0  0  0
    6.5393    0.6516   17.5479 N   0  0  0  0  0  0  0  0  0  0  0  0
    7.1373    0.0309   18.5741 C   0  0  0  0  0  0  0  0  0  0  0  0
    8.0815   -0.4605   18.3305 H   0  0  0  0  0  0  0  0  0  0  0  0
    4.9344    1.8211   16.9741 H   0  0  0  0  0  0  0  0  0  0  0  0
    3.8632    1.8428   19.2187 H   0  0  0  0  0  0  0  0  0  0  0  0
    5.0089    0.6886   21.1361 H   0  0  0  0  0  0  0  0  0  0  0  0
    8.3150   -1.1694   20.5084 H   0  0  0  0  0  0  0  0  0  0  0  0
    8.6501   -0.3816   22.7259 H   0  0  0  0  0  0  0  0  0  0  0  0
    6.0818    1.2054   24.4970 H   0  0  0  0  0  0  0  0  0  0  0  0
    6.6231   -0.4699   24.1817 H   0  0  0  0  0  0  0  0  0  0  0  0
    7.7894    0.7663   24.7387 H   0  0  0  0  0  0  0  0  0  0  0  0
  1  2  1  0
  2  3  1  0
  3  4  1  0
  4  5  1  0
  5  6  1  0
  5  7  1  0
  5  8  1  0
  3  9  1  0
  9 10  1  0
 10 11  1  0
 11 12  2  0
 11 13  1  0
 13 14  2  0
 14 15  1  0
 15 16  1  0
 16 17  1  0
 16 18  1  0
 16 19  1  0
 15 20  2  0
 20 21  1  0
 21 22  2  0
 22 23  1  0
 23 24  2  0
 23 25  1  0
 25 26  1  0
 26 27  1  0
 27 28  1  0
 27 29  1  0
 26 30  1  0
 26 31  1  0
 25 32  1  0
 25 33  1  0
 14 34  1  0
 10 35  1  0
  9 36  1  0
 36 37  2  0
 37 38  1  0
 38 39  2  0
 39 40  1  0
 40 41  2  0
 41 42  1  0
 39 43  1  0
 38 44  1  0
 37 45  1  0
  9 46  1  0
  3 47  1  0
  1 48  1  0
  1 49  1  0
  1 50  1  0
 22 13  1  0
 41 36  1  0
 27 21  1  0
M  END
>  <plip>  (1) 
-0.10344827586206896

>  <filename>  (1) 
[H][c]1[n][c]([H])[c]([C]([H])([N]([H])[C](=[O])[c]2[c]([H])[c]([C]([H])([H])[H])[n][c]3[c]2[C](=[O])[C]([H])([H])[C]([H])([H])[C]3([H])[H])[C]([H])([O][C]([H])([H])[H])[O][C]([H])([H])[H])[c]([H])[c]1[H]

$$$$
