
     RDKit          3D

 43 45  0  0  0  0  0  0  0  0999 V2000
   10.0742    4.9900   24.5703 C   0  0  0  0  0  0  0  0  0  0  0  0
   10.1640    3.6887   23.8109 C   0  0  0  0  0  0  0  0  0  0  0  0
   11.1701    2.7601   24.1346 C   0  0  0  0  0  0  0  0  0  0  0  0
   11.2678    1.5227   23.5069 C   0  0  0  0  0  0  0  0  0  0  0  0
   10.3196    1.1875   22.5325 C   0  0  0  0  0  0  0  0  0  0  0  0
   10.3442   -0.4617   21.8881 S   0  0  0  0  0  0  0  0  0  0  0  0
   11.6639   -1.0341   22.0441 O   0  0  0  0  0  0  0  0  0  0  0  0
    9.6914   -0.4387   20.5861 O   0  0  0  0  0  0  0  0  0  0  0  0
    9.3267   -1.2944   22.9479 N   0  0  0  0  0  0  0  0  0  0  0  0
    9.9505   -1.6889   24.2291 C   0  0  0  0  0  0  0  0  0  0  0  0
    8.9804   -1.2352   25.3367 C   0  0  0  0  0  0  0  0  0  0  0  0
    7.9097   -0.3949   24.6359 C   0  0  0  0  0  0  0  0  0  0  0  0
    7.8563   -0.9867   23.2272 C   0  0  1  0  0  0  0  0  0  0  0  0
    6.8529   -0.2264   22.2720 C   0  0  0  0  0  0  0  0  0  0  0  0
    5.9915    0.5101   22.7164 O   0  0  0  0  0  0  0  0  0  0  0  0
    7.0159   -0.5289   20.9359 N   0  0  0  0  0  0  0  0  0  0  0  0
    6.4163    0.1039   19.8302 C   0  0  0  0  0  0  0  0  0  0  0  0
    5.1860    0.7616   19.9218 C   0  0  0  0  0  0  0  0  0  0  0  0
    4.6907    1.3910   18.7734 C   0  0  0  0  0  0  0  0  0  0  0  0
    5.4120    1.3248   17.5770 C   0  0  0  0  0  0  0  0  0  0  0  0
    6.5699    0.6547   17.4574 N   0  0  0  0  0  0  0  0  0  0  0  0
    7.0499    0.0615   18.5591 C   0  0  0  0  0  0  0  0  0  0  0  0
    7.9856   -0.4907   18.4550 H   0  0  0  0  0  0  0  0  0  0  0  0
    5.0507    1.8241   16.6808 H   0  0  0  0  0  0  0  0  0  0  0  0
    3.7559    1.9388   18.8024 H   0  0  0  0  0  0  0  0  0  0  0  0
    4.6573    0.7709   20.8705 H   0  0  0  0  0  0  0  0  0  0  0  0
    7.9412   -0.8903   20.7298 H   0  0  0  0  0  0  0  0  0  0  0  0
    7.3892   -1.9867   23.2797 H   0  0  0  0  0  0  0  0  0  0  0  0
    8.2065    0.6600   24.5672 H   0  0  0  0  0  0  0  0  0  0  0  0
    6.9356   -0.4423   25.1320 H   0  0  0  0  0  0  0  0  0  0  0  0
    8.5293   -2.1099   25.8148 H   0  0  0  0  0  0  0  0  0  0  0  0
    9.5070   -0.6811   26.1175 H   0  0  0  0  0  0  0  0  0  0  0  0
   10.0902   -2.7747   24.2479 H   0  0  0  0  0  0  0  0  0  0  0  0
   10.9334   -1.2307   24.3622 H   0  0  0  0  0  0  0  0  0  0  0  0
    9.3371    2.1123   22.1437 C   0  0  0  0  0  0  0  0  0  0  0  0
    9.2606    3.3496   22.7888 C   0  0  0  0  0  0  0  0  0  0  0  0
    8.4842    4.0509   22.4805 H   0  0  0  0  0  0  0  0  0  0  0  0
    8.6349    1.8854   21.3407 H   0  0  0  0  0  0  0  0  0  0  0  0
   12.0862    0.8474   23.7721 H   0  0  0  0  0  0  0  0  0  0  0  0
   11.8916    3.0225   24.8970 H   0  0  0  0  0  0  0  0  0  0  0  0
    9.7172    4.7925   25.5876 H   0  0  0  0  0  0  0  0  0  0  0  0
   11.0551    5.4753   24.6436 H   0  0  0  0  0  0  0  0  0  0  0  0
    9.3817    5.6991   24.1067 H   0  0  0  0  0  0  0  0  0  0  0  0
  1  2  1  0
  2  3  2  0
  3  4  1  0
  4  5  2  0
  5  6  1  0
  6  7  2  0
  6  8  2  0
  6  9  1  0
  9 10  1  0
 10 11  1  0
 11 12  1  0
 12 13  1  0
 13 14  1  0
 14 15  2  0
 14 16  1  0
 16 17  1  0
 17 18  2  0
 18 19  1  0
 19 20  2  0
 20 21  1  0
 21 22  2  0
 22 23  1  0
 20 24  1  0
 19 25  1  0
 18 26  1  0
 16 27  1  0
 13 28  1  1
 12 29  1  0
 12 30  1  0
 11 31  1  0
 11 32  1  0
 10 33  1  0
 10 34  1  0
  5 35  1  0
 35 36  2  0
 36 37  1  0
 35 38  1  0
  4 39  1  0
  3 40  1  0
  1 41  1  0
  1 42  1  0
  1 43  1  0
 36  2  1  0
 13  9  1  0
 22 17  1  0
M  END
>  <plip>  (1) 
-0.13793103448275862

>  <filename>  (1) 
[H][c]1[n][c]([H])[c]([N]([H])[C](=[O])[C@@]2([H])[N]([S](=[O])(=[O])[c]3[c]([H])[c]([H])[c]([C]([H])([H])[H])[c]([H])[c]3[H])[C]([H])([H])[C]([H])([H])[C]2([H])[H])[c]([H])[c]1[H]

$$$$
