
     RDKit          3D

 38 39  0  0  0  0  0  0  0  0999 V2000
    7.5832   -2.3015   27.2768 C   0  0  0  0  0  0  0  0  0  0  0  0
    7.8822   -2.2070   25.8003 C   0  0  0  0  0  0  0  0  0  0  0  0
    9.0067   -2.0614   25.3855 O   0  0  0  0  0  0  0  0  0  0  0  0
    6.4503   -2.4298   24.6992 S   0  0  0  0  0  0  0  0  0  0  0  0
    6.4762   -4.2516   24.5173 C   0  0  0  0  0  0  0  0  0  0  0  0
    7.6567   -4.7046   23.6346 C   0  0  0  0  0  0  0  0  0  0  0  0
    7.3745   -4.2334   22.2216 C   0  0  0  0  0  0  0  0  0  0  0  0
    6.6202   -4.8550   21.4991 O   0  0  0  0  0  0  0  0  0  0  0  0
    7.8636   -2.9785   21.8754 N   0  0  0  0  0  0  0  0  0  0  0  0
    9.2711   -2.5834   21.9828 C   0  0  0  0  0  0  0  0  0  0  0  0
    9.3948   -1.0637   22.1017 C   0  0  0  0  0  0  0  0  0  0  0  0
    8.7114   -0.4261   21.0258 O   0  0  0  0  0  0  0  0  0  0  0  0
    7.3090   -0.6572   21.0835 C   0  0  0  0  0  0  0  0  0  0  0  0
    6.6250    0.0871   19.9537 C   0  0  0  0  0  0  0  0  0  0  0  0
    5.3891    0.7197   20.1426 C   0  0  0  0  0  0  0  0  0  0  0  0
    4.7701    1.3406   19.0563 C   0  0  0  0  0  0  0  0  0  0  0  0
    5.4119    1.3020   17.8156 C   0  0  0  0  0  0  0  0  0  0  0  0
    6.5841    0.6841   17.6090 N   0  0  0  0  0  0  0  0  0  0  0  0
    7.1761    0.1030   18.6614 C   0  0  0  0  0  0  0  0  0  0  0  0
    8.1341   -0.3745   18.4525 H   0  0  0  0  0  0  0  0  0  0  0  0
    4.9759    1.7956   16.9501 H   0  0  0  0  0  0  0  0  0  0  0  0
    3.8225    1.8603   19.1547 H   0  0  0  0  0  0  0  0  0  0  0  0
    4.9173    0.7364   21.1293 H   0  0  0  0  0  0  0  0  0  0  0  0
    6.9871   -2.1715   21.0164 C   0  0  0  0  0  0  0  0  0  0  0  0
    7.0309   -2.5210   19.9802 H   0  0  0  0  0  0  0  0  0  0  0  0
    5.9482   -2.3139   21.3347 H   0  0  0  0  0  0  0  0  0  0  0  0
    6.9355   -0.2779   22.0535 H   0  0  0  0  0  0  0  0  0  0  0  0
    9.0381   -0.7196   23.0862 H   0  0  0  0  0  0  0  0  0  0  0  0
   10.4436   -0.7726   21.9998 H   0  0  0  0  0  0  0  0  0  0  0  0
    9.7214   -3.0531   22.8592 H   0  0  0  0  0  0  0  0  0  0  0  0
    9.8418   -2.9025   21.0968 H   0  0  0  0  0  0  0  0  0  0  0  0
    8.5825   -4.2813   24.0303 H   0  0  0  0  0  0  0  0  0  0  0  0
    7.7427   -5.7912   23.6000 H   0  0  0  0  0  0  0  0  0  0  0  0
    5.5088   -4.4991   24.0620 H   0  0  0  0  0  0  0  0  0  0  0  0
    6.5014   -4.7291   25.5045 H   0  0  0  0  0  0  0  0  0  0  0  0
    8.1166   -3.1799   27.6606 H   0  0  0  0  0  0  0  0  0  0  0  0
    7.9625   -1.4152   27.7955 H   0  0  0  0  0  0  0  0  0  0  0  0
    6.5150   -2.4162   27.4653 H   0  0  0  0  0  0  0  0  0  0  0  0
  1  2  1  0
  2  3  2  0
  2  4  1  0
  4  5  1  0
  5  6  1  0
  6  7  1  0
  7  8  2  0
  7  9  1  0
  9 10  1  0
 10 11  1  0
 11 12  1  0
 12 13  1  0
 13 14  1  0
 14 15  2  0
 15 16  1  0
 16 17  2  0
 17 18  1  0
 18 19  2  0
 19 20  1  0
 17 21  1  0
 16 22  1  0
 15 23  1  0
 13 24  1  0
 24 25  1  0
 24 26  1  0
 13 27  1  0
 11 28  1  0
 11 29  1  0
 10 30  1  0
 10 31  1  0
  6 32  1  0
  6 33  1  0
  5 34  1  0
  5 35  1  0
  1 36  1  0
  1 37  1  0
  1 38  1  0
 24  9  1  0
 19 14  1  0
M  END
>  <plip>  (1) 
-0.10344827586206896

>  <filename>  (1) 
[H][c]1[n][c]([H])[c]([C]2([H])[O][C]([H])([H])[C]([H])([H])[N]([C](=[O])[C]([H])([H])[C]([H])([H])[S][C](=[O])[C]([H])([H])[H])[C]2([H])[H])[c]([H])[c]1[H]

$$$$
