
     RDKit          3D

 37 39  0  0  0  0  0  0  0  0999 V2000
    4.9537    1.7665   16.9138 H   0  0  0  0  0  0  0  0  0  0  0  0
    5.3996    1.3048   17.7930 C   0  0  0  0  0  0  0  0  0  0  0  0
    6.5522    0.6468   17.5837 N   0  0  0  0  0  0  0  0  0  0  0  0
    7.1157    0.0659   18.6483 C   0  0  0  0  0  0  0  0  0  0  0  0
    8.0525   -0.4602   18.4641 H   0  0  0  0  0  0  0  0  0  0  0  0
    6.5949    0.1078   19.9647 C   0  0  0  0  0  0  0  0  0  0  0  0
    7.2412   -0.6493   21.0669 C   0  0  0  0  0  0  0  0  0  0  0  0
    7.5328   -1.9933   20.9090 C   0  0  0  0  0  0  0  0  0  0  0  0
    7.1430   -2.4921   20.0276 H   0  0  0  0  0  0  0  0  0  0  0  0
    8.2781   -2.7452   21.8518 C   0  0  0  0  0  0  0  0  0  0  0  0
    8.4831   -3.7917   21.6709 H   0  0  0  0  0  0  0  0  0  0  0  0
    8.7308   -2.1244   22.9914 C   0  0  0  0  0  0  0  0  0  0  0  0
    9.5168   -2.7735   24.1311 C   0  0  0  0  0  0  0  0  0  0  0  0
    9.6836   -2.2203   25.1962 O   0  0  0  0  0  0  0  0  0  0  0  0
    9.9899   -4.0048   23.8367 O   0  0  0  0  0  0  0  0  0  0  0  0
   10.4526   -4.7848   24.9786 C   0  0  0  0  0  0  0  0  0  0  0  0
   11.1689   -4.2042   25.5695 H   0  0  0  0  0  0  0  0  0  0  0  0
   10.9880   -5.6292   24.5389 H   0  0  0  0  0  0  0  0  0  0  0  0
    9.2891   -5.2371   25.8463 C   0  0  0  0  0  0  0  0  0  0  0  0
    9.1032   -4.6916   27.1275 C   0  0  0  0  0  0  0  0  0  0  0  0
    9.8180   -3.9595   27.4972 H   0  0  0  0  0  0  0  0  0  0  0  0
    7.9902   -5.0368   27.9001 C   0  0  0  0  0  0  0  0  0  0  0  0
    7.8075   -4.6024   28.8763 H   0  0  0  0  0  0  0  0  0  0  0  0
    7.0557   -5.9407   27.4034 C   0  0  0  0  0  0  0  0  0  0  0  0
    6.1859   -6.2129   27.9979 H   0  0  0  0  0  0  0  0  0  0  0  0
    7.2301   -6.4962   26.1397 C   0  0  0  0  0  0  0  0  0  0  0  0
    6.4602   -7.1964   25.8327 H   0  0  0  0  0  0  0  0  0  0  0  0
    8.3347   -6.1416   25.3538 C   0  0  0  0  0  0  0  0  0  0  0  0
    8.4640   -6.5307   24.3468 H   0  0  0  0  0  0  0  0  0  0  0  0
    8.3884   -0.7990   23.1746 N   0  0  0  0  0  0  0  0  0  0  0  0
    8.5861   -0.2710   24.0170 H   0  0  0  0  0  0  0  0  0  0  0  0
    7.6066    0.0018   22.3422 C   0  0  0  0  0  0  0  0  0  0  0  0
    7.3491    1.1189   22.7582 O   0  0  0  0  0  0  0  0  0  0  0  0
    5.4182    0.8464   20.1591 C   0  0  0  0  0  0  0  0  0  0  0  0
    5.0139    0.9540   21.1668 H   0  0  0  0  0  0  0  0  0  0  0  0
    4.7919    1.4209   19.0478 C   0  0  0  0  0  0  0  0  0  0  0  0
    3.8606    1.9720   19.1399 H   0  0  0  0  0  0  0  0  0  0  0  0
  1  2  1  0
  2  3  2  0
  3  4  1  0
  4  5  1  0
  4  6  2  0
  6  7  1  0
  7  8  2  0
  8  9  1  0
  8 10  1  0
 10 11  1  0
 10 12  2  0
 12 13  1  0
 13 14  2  0
 13 15  1  0
 15 16  1  0
 16 17  1  0
 16 18  1  0
 16 19  1  0
 19 20  2  0
 20 21  1  0
 20 22  1  0
 22 23  1  0
 22 24  2  0
 24 25  1  0
 24 26  1  0
 26 27  1  0
 26 28  2  0
 28 29  1  0
 12 30  1  0
 30 31  1  0
 30 32  1  0
 32 33  2  0
  6 34  1  0
 34 35  1  0
 34 36  2  0
 36 37  1  0
 36  2  1  0
 32  7  1  0
 28 19  1  0
M  END
>  <plip>  (1) 
-0.07142857142857142

>  <filename>  (1) 
[H][c]1[n][c]([H])[c](-[c]2[c]([H])[c]([H])[c]([C](=[O])[O][C]([H])([H])[c]3[c]([H])[c]([H])[c]([H])[c]([H])[c]3[H])[n]([H])[c]2=[O])[c]([H])[c]1[H]

$$$$
