
     RDKit          3D

 30 31  0  0  0  0  0  0  0  0999 V2000
    4.9145    1.8393   17.0024 H   0  0  0  0  0  0  0  0  0  0  0  0
    5.3988    1.3110   17.8200 C   0  0  0  0  0  0  0  0  0  0  0  0
    6.5564    0.6968   17.5267 N   0  0  0  0  0  0  0  0  0  0  0  0
    7.1874    0.0530   18.5259 C   0  0  0  0  0  0  0  0  0  0  0  0
    8.1360   -0.4214   18.2798 H   0  0  0  0  0  0  0  0  0  0  0  0
    6.7136   -0.0341   19.8595 C   0  0  0  0  0  0  0  0  0  0  0  0
    7.3906   -0.7763   20.8763 N   0  0  0  0  0  0  0  0  0  0  0  0
    6.7156   -1.2432   21.4732 H   0  0  0  0  0  0  0  0  0  0  0  0
    8.4540   -0.1313   21.7138 C   0  0  0  0  0  0  0  0  0  0  0  0
    8.8017   -1.0948   22.8617 C   0  0  0  0  0  0  0  0  0  0  0  0
    8.0465   -1.3608   23.8744 N   0  0  0  0  0  0  0  0  0  0  0  0
    8.6804   -2.3570   24.6014 N   0  0  0  0  0  0  0  0  0  0  0  0
    9.7757   -2.6194   23.9806 C   0  0  0  0  0  0  0  0  0  0  0  0
   10.7754   -3.6731   24.2845 C   0  0  0  0  0  0  0  0  0  0  0  0
   10.3678   -4.6568   24.0318 H   0  0  0  0  0  0  0  0  0  0  0  0
   11.0087   -3.6966   25.3482 H   0  0  0  0  0  0  0  0  0  0  0  0
   11.6931   -3.5068   23.7280 H   0  0  0  0  0  0  0  0  0  0  0  0
    9.9455   -1.8460   22.8789 O   0  0  0  0  0  0  0  0  0  0  0  0
    9.6456    0.1312   20.7936 C   0  0  0  0  0  0  0  0  0  0  0  0
    9.3585    0.8818   20.0536 H   0  0  0  0  0  0  0  0  0  0  0  0
    9.9192   -0.7826   20.2618 H   0  0  0  0  0  0  0  0  0  0  0  0
   10.5124    0.5105   21.3429 H   0  0  0  0  0  0  0  0  0  0  0  0
    7.9636    1.1988   22.3186 C   0  0  0  0  0  0  0  0  0  0  0  0
    8.7528    1.6382   22.9359 H   0  0  0  0  0  0  0  0  0  0  0  0
    7.7209    1.9135   21.5255 H   0  0  0  0  0  0  0  0  0  0  0  0
    7.0748    1.0556   22.9406 H   0  0  0  0  0  0  0  0  0  0  0  0
    5.4952    0.6152   20.1263 C   0  0  0  0  0  0  0  0  0  0  0  0
    5.1073    0.6127   21.1475 H   0  0  0  0  0  0  0  0  0  0  0  0
    4.8250    1.2961   19.0984 C   0  0  0  0  0  0  0  0  0  0  0  0
    3.8866    1.8229   19.2638 H   0  0  0  0  0  0  0  0  0  0  0  0
  1  2  1  0
  2  3  2  0
  3  4  1  0
  4  5  1  0
  4  6  2  0
  6  7  1  0
  7  8  1  0
  7  9  1  0
  9 10  1  0
 10 11  2  0
 11 12  1  0
 12 13  2  0
 13 14  1  0
 14 15  1  0
 14 16  1  0
 14 17  1  0
 13 18  1  0
  9 19  1  0
 19 20  1  0
 19 21  1  0
 19 22  1  0
  9 23  1  0
 23 24  1  0
 23 25  1  0
 23 26  1  0
  6 27  1  0
 27 28  1  0
 27 29  2  0
 29 30  1  0
 29  2  1  0
 18 10  1  0
M  END
>  <plip>  (1) 
-0.10714285714285714

>  <filename>  (1) 
[H][c]1[n][c]([H])[c]([N]([H])[C]([c]2[n][n][c]([C]([H])([H])[H])[o]2)([C]([H])([H])[H])[C]([H])([H])[H])[c]([H])[c]1[H]

$$$$
