
     RDKit          3D

 39 41  0  0  0  0  0  0  0  0999 V2000
    4.7774    1.3536   19.0651 C   0  0  0  0  0  0  0  0  0  0  0  0
    5.3921    1.3170   17.8096 C   0  0  0  0  0  0  0  0  0  0  0  0
    6.5539    0.6884   17.5667 N   0  0  0  0  0  0  0  0  0  0  0  0
    7.1419    0.0742   18.6029 C   0  0  0  0  0  0  0  0  0  0  0  0
    6.6263    0.0591   19.9174 C   0  0  0  0  0  0  0  0  0  0  0  0
    7.3214   -0.6969   20.9922 C   0  0  0  0  0  0  0  0  0  0  0  0
    7.6688   -2.0313   21.0193 C   0  0  0  0  0  0  0  0  0  0  0  0
    8.4197   -2.1866   22.2027 C   0  0  0  0  0  0  0  0  0  0  0  0
    8.4958   -1.0509   22.8826 N   0  0  0  0  0  0  0  0  0  0  0  0
    7.8090   -0.1524   22.1519 N   0  0  0  0  0  0  0  0  0  0  0  0
    7.5308    1.1501   22.7457 C   0  0  0  0  0  0  0  0  0  0  0  0
    6.4749    1.0755   23.8519 C   0  0  0  0  0  0  0  0  0  0  0  0
    6.1215    2.7532   24.4378 S   0  0  0  0  0  0  0  0  0  0  0  0
    5.2798    2.4230   26.0149 C   0  0  0  0  0  0  0  0  0  0  0  0
    6.2582    1.9808   27.1154 C   0  0  0  0  0  0  0  0  0  0  0  0
    5.5037    1.6939   28.4152 C   0  0  0  0  0  0  0  0  0  0  0  0
    4.4588    0.7556   28.2198 O   0  0  0  0  0  0  0  0  0  0  0  0
    3.4890    1.1876   27.2794 C   0  0  0  0  0  0  0  0  0  0  0  0
    4.1138    1.4263   25.9036 C   0  0  0  0  0  0  0  0  0  0  0  0
    4.4862    0.4607   25.5391 H   0  0  0  0  0  0  0  0  0  0  0  0
    3.3687    1.7864   25.1873 H   0  0  0  0  0  0  0  0  0  0  0  0
    2.9866    2.1033   27.6382 H   0  0  0  0  0  0  0  0  0  0  0  0
    2.7380    0.3932   27.2384 H   0  0  0  0  0  0  0  0  0  0  0  0
    6.1682    1.2540   29.1647 H   0  0  0  0  0  0  0  0  0  0  0  0
    5.1021    2.6327   28.8360 H   0  0  0  0  0  0  0  0  0  0  0  0
    7.0256    2.7457   27.2768 H   0  0  0  0  0  0  0  0  0  0  0  0
    6.7696    1.0622   26.8008 H   0  0  0  0  0  0  0  0  0  0  0  0
    4.8747    3.4080   26.2849 H   0  0  0  0  0  0  0  0  0  0  0  0
    5.5525    0.6179   23.4837 H   0  0  0  0  0  0  0  0  0  0  0  0
    6.8467    0.4580   24.6785 H   0  0  0  0  0  0  0  0  0  0  0  0
    8.4639    1.5370   23.1615 H   0  0  0  0  0  0  0  0  0  0  0  0
    7.2093    1.8258   21.9544 H   0  0  0  0  0  0  0  0  0  0  0  0
    8.9192   -3.0637   22.5954 H   0  0  0  0  0  0  0  0  0  0  0  0
    7.3505   -2.7627   20.2948 H   0  0  0  0  0  0  0  0  0  0  0  0
    5.4090    0.7213   20.1377 C   0  0  0  0  0  0  0  0  0  0  0  0
    4.9552    0.7124   21.1318 H   0  0  0  0  0  0  0  0  0  0  0  0
    8.0899   -0.4163   18.3772 H   0  0  0  0  0  0  0  0  0  0  0  0
    4.9283    1.8089   16.9599 H   0  0  0  0  0  0  0  0  0  0  0  0
    3.8312    1.8682   19.1929 H   0  0  0  0  0  0  0  0  0  0  0  0
  1  2  2  0
  2  3  1  0
  3  4  2  0
  4  5  1  0
  5  6  1  0
  6  7  2  0
  7  8  1  0
  8  9  2  0
  9 10  1  0
 10 11  1  0
 11 12  1  0
 12 13  1  0
 13 14  1  0
 14 15  1  0
 15 16  1  0
 16 17  1  0
 17 18  1  0
 18 19  1  0
 19 20  1  0
 19 21  1  0
 18 22  1  0
 18 23  1  0
 16 24  1  0
 16 25  1  0
 15 26  1  0
 15 27  1  0
 14 28  1  0
 12 29  1  0
 12 30  1  0
 11 31  1  0
 11 32  1  0
  8 33  1  0
  7 34  1  0
  5 35  2  0
 35 36  1  0
  4 37  1  0
  2 38  1  0
  1 39  1  0
 35  1  1  0
 10  6  1  0
 19 14  1  0
M  END
>  <plip>  (1) 
-0.03571428571428571

>  <filename>  (1) 
[H][c]1[n][c]([H])[c](-[c]2[c]([H])[c]([H])[n][n]2[C]([H])([H])[C]([H])([H])[S][C]2([H])[C]([H])([H])[C]([H])([H])[O][C]([H])([H])[C]2([H])[H])[c]([H])[c]1[H]

$$$$
