
     RDKit          3D

 42 44  0  0  0  0  0  0  0  0999 V2000
    7.8508    0.7733   25.2669 C   0  0  0  0  0  0  0  0  0  0  0  0
    6.7465    1.2629   24.3144 C   0  0  0  0  0  0  0  0  0  0  0  0
    7.1216    1.0128   22.8233 C   0  0  0  0  0  0  0  0  0  0  0  0
    7.5723    1.8997   22.1172 O   0  0  0  0  0  0  0  0  0  0  0  0
    6.9542   -0.2642   22.3842 N   0  0  0  0  0  0  0  0  0  0  0  0
    7.3061   -0.7340   21.0528 C   0  0  0  0  0  0  0  0  0  0  0  0
    6.8054   -2.1745   20.9531 C   0  0  0  0  0  0  0  0  0  0  0  0
    6.9171   -2.5670   19.9411 H   0  0  0  0  0  0  0  0  0  0  0  0
    5.7326   -2.1894   21.1790 H   0  0  0  0  0  0  0  0  0  0  0  0
    7.3457   -2.8231   21.6487 H   0  0  0  0  0  0  0  0  0  0  0  0
    9.1935   -0.8264   20.8433 C   0  0  0  0  0  0  0  0  0  0  0  0
    9.6404    0.1353   20.2338 O   0  0  0  0  0  0  0  0  0  0  0  0
    9.7059   -1.8418   21.3070 O   0  0  0  0  0  1  0  0  0  0  0  0
    6.6344    0.0983   19.9596 C   0  0  0  0  0  0  0  0  0  0  0  0
    5.3793    0.7172   20.1380 C   0  0  0  0  0  0  0  0  0  0  0  0
    4.7639    1.3387   19.0508 C   0  0  0  0  0  0  0  0  0  0  0  0
    5.3933    1.2946   17.8043 C   0  0  0  0  0  0  0  0  0  0  0  0
    6.5577    0.6691   17.5891 N   0  0  0  0  0  0  0  0  0  0  0  0
    7.1489    0.1001   18.6513 C   0  0  0  0  0  0  0  0  0  0  0  0
    8.1085   -0.3794   18.4598 H   0  0  0  0  0  0  0  0  0  0  0  0
    4.9465    1.7712   16.9358 H   0  0  0  0  0  0  0  0  0  0  0  0
    3.8223    1.8619   19.1569 H   0  0  0  0  0  0  0  0  0  0  0  0
    4.9017    0.7286   21.1194 H   0  0  0  0  0  0  0  0  0  0  0  0
    6.3820   -0.8582   22.9673 H   0  0  0  0  0  0  0  0  0  0  0  0
    6.4979    2.7831   24.4763 C   0  0  0  0  0  0  0  0  0  0  0  0
    5.9748    3.0977   25.7630 O   0  0  0  0  0  0  0  0  0  0  0  0
    4.9530    2.2829   26.1786 C   0  0  0  0  0  0  0  0  0  0  0  0
    4.1414    2.7231   27.2228 C   0  0  0  0  0  0  0  0  0  0  0  0
    3.1015    1.9142   27.6937 C   0  0  0  0  0  0  0  0  0  0  0  0
    2.8630    0.6645   27.1087 C   0  0  0  0  0  0  0  0  0  0  0  0
    3.6741    0.2167   26.0600 C   0  0  0  0  0  0  0  0  0  0  0  0
    4.7272    1.0129   25.6060 C   0  0  0  0  0  0  0  0  0  0  0  0
    5.5133    0.5344   24.5849 O   0  0  0  0  0  0  0  0  0  0  0  0
    3.5232   -0.7428   25.5759 H   0  0  0  0  0  0  0  0  0  0  0  0
    2.0525    0.0365   27.4708 H   0  0  0  0  0  0  0  0  0  0  0  0
    2.4849    2.2630   28.5178 H   0  0  0  0  0  0  0  0  0  0  0  0
    4.3656    3.7002   27.6373 H   0  0  0  0  0  0  0  0  0  0  0  0
    7.4405    3.3207   24.3668 H   0  0  0  0  0  0  0  0  0  0  0  0
    5.8090    3.1255   23.6963 H   0  0  0  0  0  0  0  0  0  0  0  0
    8.7956    1.2723   25.0249 H   0  0  0  0  0  0  0  0  0  0  0  0
    7.5904    0.9991   26.3068 H   0  0  0  0  0  0  0  0  0  0  0  0
    7.9860   -0.3081   25.1771 H   0  0  0  0  0  0  0  0  0  0  0  0
  1  2  1  0
  2  3  1  0
  3  4  2  0
  3  5  1  0
  5  6  1  0
  6  7  1  0
  7  8  1  0
  7  9  1  0
  7 10  1  0
  6 11  1  0
 11 12  2  0
 11 13  1  0
  6 14  1  0
 14 15  2  0
 15 16  1  0
 16 17  2  0
 17 18  1  0
 18 19  2  0
 19 20  1  0
 17 21  1  0
 16 22  1  0
 15 23  1  0
  5 24  1  0
  2 25  1  0
 25 26  1  0
 26 27  1  0
 27 28  2  0
 28 29  1  0
 29 30  2  0
 30 31  1  0
 31 32  2  0
 32 33  1  0
 31 34  1  0
 30 35  1  0
 29 36  1  0
 28 37  1  0
 25 38  1  0
 25 39  1  0
  1 40  1  0
  1 41  1  0
  1 42  1  0
 33  2  1  0
 19 14  1  0
 32 27  1  0
M  CHG  1  13  -1
M  END
>  <plip>  (1) 
-0.10714285714285714

>  <filename>  (1) 
[H][c]1[n][c]([H])[c]([C]([C](=[O])[O-])([N]([H])[C](=[O])[C]2([C]([H])([H])[H])[O][c]3[c]([H])[c]([H])[c]([H])[c]([H])[c]3[O][C]2([H])[H])[C]([H])([H])[H])[c]([H])[c]1[H]

$$$$
