
     RDKit          3D

 34 35  0  0  0  0  0  0  0  0999 V2000
    8.6597   -0.2060   21.0551 O   0  0  0  0  0  0  0  0  0  0  0  0
    7.2781   -0.5231   21.1431 C   0  0  0  0  0  0  0  0  0  0  0  0
    7.0133   -2.0249   20.9553 C   0  0  0  0  0  0  0  0  0  0  0  0
    7.6005   -2.8908   21.9801 N   0  0  0  0  0  0  0  0  0  0  0  0
    6.8082   -2.7317   23.1530 O   0  0  0  0  0  0  0  0  0  0  0  0
    7.6150   -2.5822   24.3262 C   0  0  0  0  0  0  0  0  0  0  0  0
    8.2764   -3.8753   24.7716 C   0  0  0  0  0  0  0  0  0  0  0  0
    9.6321   -4.1345   24.5043 C   0  0  0  0  0  0  0  0  0  0  0  0
   10.2310   -5.3243   24.9369 C   0  0  0  0  0  0  0  0  0  0  0  0
    9.4678   -6.2846   25.6121 C   0  0  0  0  0  0  0  0  0  0  0  0
    8.1034   -6.0561   25.8442 C   0  0  0  0  0  0  0  0  0  0  0  0
    7.5166   -4.8608   25.4218 C   0  0  0  0  0  0  0  0  0  0  0  0
    6.4549   -4.6855   25.6001 H   0  0  0  0  0  0  0  0  0  0  0  0
    7.4975   -6.8012   26.3562 H   0  0  0  0  0  0  0  0  0  0  0  0
    9.9264   -7.2149   25.9371 H   0  0  0  0  0  0  0  0  0  0  0  0
   11.2880   -5.5019   24.7451 H   0  0  0  0  0  0  0  0  0  0  0  0
   10.2133   -3.4048   23.9421 H   0  0  0  0  0  0  0  0  0  0  0  0
    6.8747   -2.2529   25.0662 H   0  0  0  0  0  0  0  0  0  0  0  0
    8.3563   -1.7866   24.1679 H   0  0  0  0  0  0  0  0  0  0  0  0
    7.3796   -3.8548   21.7114 H   0  0  0  0  0  0  0  0  0  0  0  0
    7.4709   -2.2712   19.9992 H   0  0  0  0  0  0  0  0  0  0  0  0
    5.9336   -2.1777   20.8849 H   0  0  0  0  0  0  0  0  0  0  0  0
    6.5760    0.2105   20.0240 C   0  0  0  0  0  0  0  0  0  0  0  0
    5.3188    0.8067   20.1588 C   0  0  0  0  0  0  0  0  0  0  0  0
    4.7287    1.3796   19.0274 C   0  0  0  0  0  0  0  0  0  0  0  0
    5.4056    1.3194   17.8018 C   0  0  0  0  0  0  0  0  0  0  0  0
    6.5936    0.7130   17.6467 N   0  0  0  0  0  0  0  0  0  0  0  0
    7.1507    0.1853   18.7403 C   0  0  0  0  0  0  0  0  0  0  0  0
    8.1089   -0.3121   18.6010 H   0  0  0  0  0  0  0  0  0  0  0  0
    4.9801    1.7760   16.9101 H   0  0  0  0  0  0  0  0  0  0  0  0
    3.7743    1.8865   19.0793 H   0  0  0  0  0  0  0  0  0  0  0  0
    4.8096    0.8354   21.1269 H   0  0  0  0  0  0  0  0  0  0  0  0
    6.8679   -0.2178   22.1194 H   0  0  0  0  0  0  0  0  0  0  0  0
    9.1397   -0.9290   21.4834 H   0  0  0  0  0  0  0  0  0  0  0  0
  1  2  1  0
  2  3  1  0
  3  4  1  0
  4  5  1  0
  5  6  1  0
  6  7  1  0
  7  8  2  0
  8  9  1  0
  9 10  2  0
 10 11  1  0
 11 12  2  0
 12 13  1  0
 11 14  1  0
 10 15  1  0
  9 16  1  0
  8 17  1  0
  6 18  1  0
  6 19  1  0
  4 20  1  0
  3 21  1  0
  3 22  1  0
  2 23  1  0
 23 24  2  0
 24 25  1  0
 25 26  2  0
 26 27  1  0
 27 28  2  0
 28 29  1  0
 26 30  1  0
 25 31  1  0
 24 32  1  0
  2 33  1  0
  1 34  1  0
 12  7  1  0
 28 23  1  0
M  END
>  <plip>  (1) 
-0.1

>  <filename>  (1) 
[H][O][C]([H])([c]1[c]([H])[n][c]([H])[c]([H])[c]1[H])[C]([H])([H])[N]([H])[O][C]([H])([H])[c]1[c]([H])[c]([H])[c]([H])[c]([H])[c]1[H]

$$$$
