
     RDKit          3D

 28 30  0  0  0  0  0  0  0  0999 V2000
    4.9305    1.7934   16.8795 H   0  0  0  0  0  0  0  0  0  0  0  0
    5.3797    1.3994   17.7896 C   0  0  0  0  0  0  0  0  0  0  0  0
    6.5751    0.8141   17.6368 N   0  0  0  0  0  0  0  0  0  0  0  0
    7.1416    0.3058   18.7372 C   0  0  0  0  0  0  0  0  0  0  0  0
    8.0966   -0.1919   18.5794 H   0  0  0  0  0  0  0  0  0  0  0  0
    6.5801    0.3298   20.0299 C   0  0  0  0  0  0  0  0  0  0  0  0
    7.3414   -0.3171   21.1846 C   0  0  0  0  0  0  0  0  0  0  0  0
    8.2779    0.6492   21.8442 C   0  0  0  0  0  0  0  0  0  0  0  0
    9.0038    0.2159   22.9204 O   0  0  0  0  0  0  0  0  0  0  0  0
    9.8493    1.2122   23.2692 C   0  0  0  0  0  0  0  0  0  0  0  0
   10.4952    0.9945   24.1088 H   0  0  0  0  0  0  0  0  0  0  0  0
    9.6876    2.2827   22.4497 C   0  0  0  0  0  0  0  0  0  0  0  0
   10.2525    3.2036   22.4653 H   0  0  0  0  0  0  0  0  0  0  0  0
    8.6453    1.9229   21.5381 C   0  0  0  0  0  0  0  0  0  0  0  0
    8.1738    2.4985   20.7501 H   0  0  0  0  0  0  0  0  0  0  0  0
    8.0395   -1.6633   20.7729 C   0  0  0  0  0  0  0  0  0  0  0  0
    9.1260   -1.6340   20.6134 H   0  0  0  0  0  0  0  0  0  0  0  0
    7.5322   -2.0289   19.8814 H   0  0  0  0  0  0  0  0  0  0  0  0
    7.4783   -2.3532   22.0227 C   0  0  0  0  0  0  0  0  0  0  0  0
    7.0411   -3.3448   21.8699 H   0  0  0  0  0  0  0  0  0  0  0  0
    8.2047   -2.3956   22.8355 H   0  0  0  0  0  0  0  0  0  0  0  0
    6.4881   -1.1813   22.1699 C   0  0  0  0  0  0  0  0  0  0  0  0
    5.5219   -1.4113   21.7119 H   0  0  0  0  0  0  0  0  0  0  0  0
    6.3277   -0.7723   23.1690 H   0  0  0  0  0  0  0  0  0  0  0  0
    5.3374    0.9643   20.1653 C   0  0  0  0  0  0  0  0  0  0  0  0
    4.8389    1.0256   21.1350 H   0  0  0  0  0  0  0  0  0  0  0  0
    4.7271    1.5013   19.0223 C   0  0  0  0  0  0  0  0  0  0  0  0
    3.7576    1.9841   19.0671 H   0  0  0  0  0  0  0  0  0  0  0  0
  1  2  1  0
  2  3  2  0
  3  4  1  0
  4  5  1  0
  4  6  2  0
  6  7  1  0
  7  8  1  0
  8  9  1  0
  9 10  1  0
 10 11  1  0
 10 12  2  0
 12 13  1  0
 12 14  1  0
 14 15  1  0
  7 16  1  0
 16 17  1  0
 16 18  1  0
 16 19  1  0
 19 20  1  0
 19 21  1  0
 19 22  1  0
 22 23  1  0
 22 24  1  0
  6 25  1  0
 25 26  1  0
 25 27  2  0
 27 28  1  0
 27  2  1  0
 22  7  1  0
 14  8  2  0
M  END
>  <plip>  (1) 
-0.0

>  <filename>  (1) 
[H][c]1[n][c]([H])[c]([C]2([c]3[o][c]([H])[c]([H])[c]3[H])[C]([H])([H])[C]([H])([H])[C]2([H])[H])[c]([H])[c]1[H]

$$$$
