
     RDKit          3D

 47 49  0  0  0  0  0  0  0  0999 V2000
    9.9864    1.5730   22.2496 C   0  0  0  0  0  0  0  0  0  0  0  0
    9.2109    0.5799   21.5650 O   0  0  0  0  0  0  0  0  0  0  0  0
    7.9731    0.3093   22.0272 C   0  0  0  0  0  0  0  0  0  0  0  0
    7.4578    0.8719   22.9598 O   0  0  0  0  0  0  0  0  0  0  0  0
    7.3390   -0.7738   21.1071 C   0  0  0  0  0  0  0  0  0  0  0  0
    6.5215   -1.6357   21.9170 O   0  0  0  0  0  0  0  0  0  0  0  0
    5.9693   -2.7351   21.3498 C   0  0  0  0  0  0  0  0  0  0  0  0
    6.0517   -3.0166   20.1837 O   0  0  0  0  0  0  0  0  0  0  0  0
    5.2424   -3.5416   22.3446 C   0  0  0  0  0  0  0  0  0  0  0  0
    4.9253   -3.2133   23.6314 C   0  0  0  0  0  0  0  0  0  0  0  0
    4.0130   -4.0194   24.2386 N   0  0  0  0  0  0  0  0  0  0  0  0
    3.6230   -4.9965   23.4575 C   0  0  0  0  0  0  0  0  0  0  0  0
    2.5148   -5.9398   23.7512 C   0  0  0  0  0  0  0  0  0  0  0  0
    1.8379   -5.8859   24.9784 C   0  0  0  0  0  0  0  0  0  0  0  0
    0.8769   -6.8498   25.2994 C   0  0  0  0  0  0  0  0  0  0  0  0
    0.5480   -7.8901   24.4206 C   0  0  0  0  0  0  0  0  0  0  0  0
   -0.3453   -8.8770   24.6946 O   0  0  0  0  0  0  0  0  0  0  0  0
   -0.9715   -8.9273   25.9620 C   0  0  0  0  0  0  0  0  0  0  0  0
   -1.5911   -8.0400   26.1476 H   0  0  0  0  0  0  0  0  0  0  0  0
   -1.6085   -9.8117   25.9429 H   0  0  0  0  0  0  0  0  0  0  0  0
   -0.2407   -9.0273   26.7754 H   0  0  0  0  0  0  0  0  0  0  0  0
    1.1745   -7.9118   23.1307 C   0  0  0  0  0  0  0  0  0  0  0  0
    0.8354   -8.9204   22.2774 O   0  0  0  0  0  0  0  0  0  0  0  0
    1.4462   -8.9513   21.0016 C   0  0  0  0  0  0  0  0  0  0  0  0
    1.0707   -8.1554   20.3467 H   0  0  0  0  0  0  0  0  0  0  0  0
    2.5300   -8.8562   21.0683 H   0  0  0  0  0  0  0  0  0  0  0  0
    1.2278   -9.9193   20.5639 H   0  0  0  0  0  0  0  0  0  0  0  0
    2.1038   -6.9167   22.8121 C   0  0  0  0  0  0  0  0  0  0  0  0
    2.4858   -6.8940   21.7960 H   0  0  0  0  0  0  0  0  0  0  0  0
    0.3805   -6.7942   26.2611 H   0  0  0  0  0  0  0  0  0  0  0  0
    2.0634   -5.0907   25.6857 H   0  0  0  0  0  0  0  0  0  0  0  0
    4.4964   -5.0458   21.9443 S   0  0  0  0  0  0  0  0  0  0  0  0
    5.3185   -2.3573   24.1707 H   0  0  0  0  0  0  0  0  0  0  0  0
    6.5712   -0.1157   19.9672 C   0  0  0  0  0  0  0  0  0  0  0  0
    5.3812    0.5882   20.1857 C   0  0  0  0  0  0  0  0  0  0  0  0
    4.8067    1.2700   19.1103 C   0  0  0  0  0  0  0  0  0  0  0  0
    5.4454    1.2341   17.8658 C   0  0  0  0  0  0  0  0  0  0  0  0
    6.5821    0.5619   17.6372 N   0  0  0  0  0  0  0  0  0  0  0  0
    7.1138   -0.0984   18.6763 C   0  0  0  0  0  0  0  0  0  0  0  0
    8.0475   -0.6259   18.4733 H   0  0  0  0  0  0  0  0  0  0  0  0
    5.0252    1.7680   17.0139 H   0  0  0  0  0  0  0  0  0  0  0  0
    3.8937    1.8410   19.2255 H   0  0  0  0  0  0  0  0  0  0  0  0
    4.9383    0.6283   21.1819 H   0  0  0  0  0  0  0  0  0  0  0  0
    8.1658   -1.3574   20.6911 H   0  0  0  0  0  0  0  0  0  0  0  0
    9.4971    2.5516   22.2077 H   0  0  0  0  0  0  0  0  0  0  0  0
   10.1333    1.2953   23.2982 H   0  0  0  0  0  0  0  0  0  0  0  0
   10.9395    1.5969   21.7188 H   0  0  0  0  0  0  0  0  0  0  0  0
  1  2  1  0
  2  3  1  0
  3  4  2  0
  3  5  1  0
  5  6  1  0
  6  7  1  0
  7  8  2  0
  7  9  1  0
  9 10  2  0
 10 11  1  0
 11 12  2  0
 12 13  1  0
 13 14  2  0
 14 15  1  0
 15 16  2  0
 16 17  1  0
 17 18  1  0
 18 19  1  0
 18 20  1  0
 18 21  1  0
 16 22  1  0
 22 23  1  0
 23 24  1  0
 24 25  1  0
 24 26  1  0
 24 27  1  0
 22 28  2  0
 28 29  1  0
 15 30  1  0
 14 31  1  0
 12 32  1  0
 10 33  1  0
  5 34  1  0
 34 35  2  0
 35 36  1  0
 36 37  2  0
 37 38  1  0
 38 39  2  0
 39 40  1  0
 37 41  1  0
 36 42  1  0
 35 43  1  0
  5 44  1  0
  1 45  1  0
  1 46  1  0
  1 47  1  0
 32  9  1  0
 39 34  1  0
 28 13  1  0
M  END
>  <plip>  (1) 
-0.10344827586206896

>  <filename>  (1) 
[H][c]1[n][c](-[c]2[c]([H])[c]([H])[c]([O][C]([H])([H])[H])[c]([O][C]([H])([H])[H])[c]2[H])[s][c]1[C](=[O])[O][C]([H])([C](=[O])[O][C]([H])([H])[H])[c]1[c]([H])[n][c]([H])[c]([H])[c]1[H]

$$$$
