
     RDKit          3D

 29 30  0  0  0  0  0  0  0  0999 V2000
   10.8562   -7.3984   26.0873 H   0  0  0  0  0  0  0  0  0  0  0  0
    9.9149   -7.2642   25.8698 O   0  0  0  0  0  0  0  0  0  0  0  0
    9.8637   -6.3503   24.8082 N   0  0  0  0  0  0  0  0  0  0  0  0
    9.0280   -6.5724   24.2878 H   0  0  0  0  0  0  0  0  0  0  0  0
   10.0170   -4.9771   25.0404 C   0  0  0  0  0  0  0  0  0  0  0  0
   10.6289   -4.5090   25.9755 O   0  0  0  0  0  0  0  0  0  0  0  0
    9.4088   -4.1843   23.9306 C   0  0  0  0  0  0  0  0  0  0  0  0
    8.9377   -4.7278   23.1170 H   0  0  0  0  0  0  0  0  0  0  0  0
    9.3659   -2.8479   23.9193 C   0  0  0  0  0  0  0  0  0  0  0  0
    9.8020   -2.2889   24.7479 H   0  0  0  0  0  0  0  0  0  0  0  0
    8.6848   -2.0415   22.8882 C   0  0  0  0  0  0  0  0  0  0  0  0
    8.3576   -2.5774   21.5777 C   0  0  0  0  0  0  0  0  0  0  0  0
    8.6345   -3.5803   21.2664 H   0  0  0  0  0  0  0  0  0  0  0  0
    7.7354   -1.9044   20.6618 N   0  0  0  0  0  0  0  0  0  0  0  0
    7.3061   -0.6372   20.9553 N   0  0  0  0  0  0  0  0  0  0  0  0
    6.6268    0.0113   19.8763 C   0  0  0  0  0  0  0  0  0  0  0  0
    7.1298   -0.0509   18.5570 C   0  0  0  0  0  0  0  0  0  0  0  0
    8.0386   -0.6084   18.3400 H   0  0  0  0  0  0  0  0  0  0  0  0
    6.5568    0.5718   17.5220 N   0  0  0  0  0  0  0  0  0  0  0  0
    5.4274    1.2641   17.7566 C   0  0  0  0  0  0  0  0  0  0  0  0
    4.9933    1.7770   16.8993 H   0  0  0  0  0  0  0  0  0  0  0  0
    4.8329    1.3477   19.0187 C   0  0  0  0  0  0  0  0  0  0  0  0
    3.9312    1.9354   19.1485 H   0  0  0  0  0  0  0  0  0  0  0  0
    5.4544    0.7336   20.1109 C   0  0  0  0  0  0  0  0  0  0  0  0
    5.0779    0.8284   21.1259 H   0  0  0  0  0  0  0  0  0  0  0  0
    7.5441    0.0486   22.2063 C   0  0  0  0  0  0  0  0  0  0  0  0
    7.1520    1.1867   22.4118 O   0  0  0  0  0  0  0  0  0  0  0  0
    8.3008   -0.7568   23.1488 C   0  0  0  0  0  0  0  0  0  0  0  0
    8.5094   -0.2546   24.0851 H   0  0  0  0  0  0  0  0  0  0  0  0
  1  2  1  0
  2  3  1  0
  3  4  1  0
  3  5  1  0
  5  6  2  0
  5  7  1  0
  7  8  1  0
  7  9  2  3
  9 10  1  0
  9 11  1  0
 11 12  1  0
 12 13  1  0
 12 14  2  0
 14 15  1  0
 15 16  1  0
 16 17  2  0
 17 18  1  0
 17 19  1  0
 19 20  2  0
 20 21  1  0
 20 22  1  0
 22 23  1  0
 22 24  2  0
 24 25  1  0
 15 26  1  0
 26 27  2  0
 26 28  1  0
 28 29  1  0
 28 11  2  0
 24 16  1  0
M  END
>  <plip>  (1) 
-0.13793103448275862

>  <filename>  (1) 
[H][O][N]([H])[C](=[O])[C]([H])=[C]([H])[c]1[c]([H])[n][n](-[c]2[c]([H])[n][c]([H])[c]([H])[c]2[H])[c](=[O])[c]1[H]

$$$$
