
     RDKit          3D

 44 45  0  0  0  0  0  0  0  0999 V2000
    6.2385    0.8305   24.0959 C   0  0  0  0  0  0  0  0  0  0  0  0
    7.2269   -0.2031   24.2002 O   0  0  0  0  0  0  0  0  0  0  0  0
    7.1193   -1.0902   25.2078 C   0  0  0  0  0  0  0  0  0  0  0  0
    6.1708   -1.1572   25.9518 O   0  0  0  0  0  0  0  0  0  0  0  0
    8.2984   -2.0211   25.2464 C   0  0  0  0  0  0  0  0  0  0  0  0
    8.1159   -3.1868   24.2481 C   0  0  0  0  0  0  0  0  0  0  0  0
    7.8835   -2.6527   22.9181 N   0  0  0  0  0  0  0  0  0  0  0  0
    8.8453   -1.9196   22.2947 C   0  0  0  0  0  0  0  0  0  0  0  0
    9.9911   -1.8415   22.7068 O   0  0  0  0  0  0  0  0  0  0  0  0
    8.4261   -1.2755   20.9768 C   0  0  0  0  0  0  0  0  0  0  0  0
    7.1409   -0.6613   21.0674 O   0  0  0  0  0  0  0  0  0  0  0  0
    6.6292   -0.0141   19.9779 C   0  0  0  0  0  0  0  0  0  0  0  0
    5.4212    0.6673   20.1814 C   0  0  0  0  0  0  0  0  0  0  0  0
    4.8302    1.3123   19.0957 C   0  0  0  0  0  0  0  0  0  0  0  0
    5.4619    1.2737   17.8444 C   0  0  0  0  0  0  0  0  0  0  0  0
    6.6192    0.6320   17.6360 N   0  0  0  0  0  0  0  0  0  0  0  0
    7.1878    0.0081   18.6813 C   0  0  0  0  0  0  0  0  0  0  0  0
    8.1273   -0.5017   18.4800 H   0  0  0  0  0  0  0  0  0  0  0  0
    5.0216    1.7749   16.9843 H   0  0  0  0  0  0  0  0  0  0  0  0
    3.8947    1.8488   19.2055 H   0  0  0  0  0  0  0  0  0  0  0  0
    4.9878    0.6708   21.1824 H   0  0  0  0  0  0  0  0  0  0  0  0
    8.4061   -2.0524   20.2105 H   0  0  0  0  0  0  0  0  0  0  0  0
    9.2120   -0.5658   20.7037 H   0  0  0  0  0  0  0  0  0  0  0  0
    6.9306   -2.4496   22.6688 H   0  0  0  0  0  0  0  0  0  0  0  0
    7.0020   -4.1588   24.6438 C   0  0  0  0  0  0  0  0  0  0  0  0
    5.6550   -3.8112   24.4474 C   0  0  0  0  0  0  0  0  0  0  0  0
    4.6147   -4.6456   24.8610 C   0  0  0  0  0  0  0  0  0  0  0  0
    4.9034   -5.8493   25.5032 C   0  0  0  0  0  0  0  0  0  0  0  0
    6.2329   -6.2100   25.7334 C   0  0  0  0  0  0  0  0  0  0  0  0
    7.2837   -5.3822   25.3006 C   0  0  0  0  0  0  0  0  0  0  0  0
    8.7287   -5.8056   25.5359 C   0  0  0  0  0  0  0  0  0  0  0  0
    9.4211   -4.8665   26.2257 F   0  0  0  0  0  0  0  0  0  0  0  0
    8.8587   -6.9485   26.2192 F   0  0  0  0  0  0  0  0  0  0  0  0
    9.3875   -5.9793   24.3660 F   0  0  0  0  0  0  0  0  0  0  0  0
    6.4560   -7.1396   26.2566 H   0  0  0  0  0  0  0  0  0  0  0  0
    4.1018   -6.5057   25.8273 H   0  0  0  0  0  0  0  0  0  0  0  0
    3.5846   -4.3463   24.6881 H   0  0  0  0  0  0  0  0  0  0  0  0
    5.4035   -2.8501   24.0054 H   0  0  0  0  0  0  0  0  0  0  0  0
    9.0635   -3.7344   24.2086 H   0  0  0  0  0  0  0  0  0  0  0  0
    8.4241   -2.4181   26.2521 H   0  0  0  0  0  0  0  0  0  0  0  0
    9.2002   -1.4810   24.9523 H   0  0  0  0  0  0  0  0  0  0  0  0
    5.2347    0.4072   23.9824 H   0  0  0  0  0  0  0  0  0  0  0  0
    6.5216    1.3987   23.2078 H   0  0  0  0  0  0  0  0  0  0  0  0
    6.2653    1.4678   24.9881 H   0  0  0  0  0  0  0  0  0  0  0  0
  1  2  1  0
  2  3  1  0
  3  4  2  0
  3  5  1  0
  5  6  1  0
  6  7  1  0
  7  8  1  0
  8  9  2  0
  8 10  1  0
 10 11  1  0
 11 12  1  0
 12 13  2  0
 13 14  1  0
 14 15  2  0
 15 16  1  0
 16 17  2  0
 17 18  1  0
 15 19  1  0
 14 20  1  0
 13 21  1  0
 10 22  1  0
 10 23  1  0
  7 24  1  0
  6 25  1  0
 25 26  2  0
 26 27  1  0
 27 28  2  0
 28 29  1  0
 29 30  2  0
 30 31  1  0
 31 32  1  0
 31 33  1  0
 31 34  1  0
 29 35  1  0
 28 36  1  0
 27 37  1  0
 26 38  1  0
  6 39  1  0
  5 40  1  0
  5 41  1  0
  1 42  1  0
  1 43  1  0
  1 44  1  0
 17 12  1  0
 30 25  1  0
M  END
>  <plip>  (1) 
-0.1

>  <filename>  (1) 
[H][c]1[n][c]([H])[c]([O][C]([H])([H])[C](=[O])[N]([H])[C]([H])([c]2[c]([H])[c]([H])[c]([H])[c]([H])[c]2[C]([F])([F])[F])[C]([H])([H])[C](=[O])[O][C]([H])([H])[H])[c]([H])[c]1[H]

$$$$
