
     RDKit          3D

 24 24  0  0  0  0  0  0  0  0999 V2000
   11.3612    1.1974   24.2204 H   0  0  0  0  0  0  0  0  0  0  0  0
   10.4807    1.1352   24.8664 C   0  0  0  0  0  0  0  0  0  0  0  0
   10.4922    1.7534   25.7621 H   0  0  0  0  0  0  0  0  0  0  0  0
    9.4772    0.3162   24.5602 C   0  0  0  0  0  0  0  0  0  0  0  0
    8.5828    0.2223   25.1829 H   0  0  0  0  0  0  0  0  0  0  0  0
    9.5883   -0.5581   23.3342 C   0  0  0  0  0  0  0  0  0  0  0  0
   10.3684   -1.3141   23.4955 H   0  0  0  0  0  0  0  0  0  0  0  0
    9.9070    0.0332   22.4595 H   0  0  0  0  0  0  0  0  0  0  0  0
    8.4289   -1.3607   23.0710 O   0  0  0  0  0  0  0  0  0  0  0  0
    7.0569   -0.7472   22.5225 S   0  0  0  0  0  0  0  0  0  0  0  0
    6.2090   -1.8995   22.4063 O   0  0  0  0  0  0  0  0  0  0  0  0
    6.7138    0.4634   23.2108 O   0  0  0  0  0  0  0  0  0  0  0  0
    7.6278   -0.4511   20.9826 N   0  0  0  0  0  0  0  0  0  0  0  0
    7.9235   -1.4114   20.8472 H   0  0  0  0  0  0  0  0  0  0  0  0
    6.7717    0.0501   19.9309 C   0  0  0  0  0  0  0  0  0  0  0  0
    7.2276    0.0552   18.5833 C   0  0  0  0  0  0  0  0  0  0  0  0
    8.1738   -0.4253   18.3351 H   0  0  0  0  0  0  0  0  0  0  0  0
    6.5765    0.6418   17.5710 N   0  0  0  0  0  0  0  0  0  0  0  0
    5.4167    1.2603   17.8529 C   0  0  0  0  0  0  0  0  0  0  0  0
    4.9255    1.7663   17.0248 H   0  0  0  0  0  0  0  0  0  0  0  0
    4.8539    1.2662   19.1311 C   0  0  0  0  0  0  0  0  0  0  0  0
    3.9116    1.7736   19.2991 H   0  0  0  0  0  0  0  0  0  0  0  0
    5.5312    0.6422   20.1905 C   0  0  0  0  0  0  0  0  0  0  0  0
    5.1197    0.6349   21.1978 H   0  0  0  0  0  0  0  0  0  0  0  0
  1  2  1  0
  2  3  1  0
  2  4  2  3
  4  5  1  0
  4  6  1  0
  6  7  1  0
  6  8  1  0
  6  9  1  0
  9 10  1  0
 10 11  2  0
 10 12  2  0
 10 13  1  0
 13 14  1  0
 13 15  1  0
 15 16  2  0
 16 17  1  0
 16 18  1  0
 18 19  2  0
 19 20  1  0
 19 21  1  0
 21 22  1  0
 21 23  2  0
 23 24  1  0
 23 15  1  0
M  END
>  <plip>  (1) 
-0.10714285714285714

>  <filename>  (1) 
[H][C]([H])=[C]([H])[C]([H])([H])[O][S](=[O])(=[O])[N]([H])[c]1[c]([H])[n][c]([H])[c]([H])[c]1[H]

$$$$
