
     RDKit          3D

 47 49  0  0  0  0  0  0  0  0999 V2000
    7.9548    2.6692   25.5430 C   0  0  0  0  0  0  0  0  0  0  0  0
    7.7336    3.1264   24.1278 C   0  0  0  0  0  0  0  0  0  0  0  0
    7.8276    2.3694   22.9836 C   0  0  0  0  0  0  0  0  0  0  0  0
    8.0212    0.9027   22.9100 C   0  0  0  0  0  0  0  0  0  0  0  0
    7.7982    0.1930   23.8819 O   0  0  0  0  0  0  0  0  0  0  0  0
    8.3524    0.3371   21.6649 N   0  0  0  0  0  0  0  0  0  0  0  0
    9.5514    0.7180   20.9451 C   0  0  0  0  0  0  0  0  0  0  0  0
   10.4659    0.4417   21.4951 H   0  0  0  0  0  0  0  0  0  0  0  0
    9.6017    0.2278   19.9672 H   0  0  0  0  0  0  0  0  0  0  0  0
    9.5934    1.8030   20.7843 H   0  0  0  0  0  0  0  0  0  0  0  0
    7.3607   -0.6039   21.1298 C   0  0  0  0  0  0  0  0  0  0  0  0
    6.6337    0.0240   19.9475 C   0  0  0  0  0  0  0  0  0  0  0  0
    5.4088    0.6781   20.1502 C   0  0  0  0  0  0  0  0  0  0  0  0
    4.7900    1.3171   19.0757 C   0  0  0  0  0  0  0  0  0  0  0  0
    5.4188    1.2856   17.8277 C   0  0  0  0  0  0  0  0  0  0  0  0
    6.5765    0.6496   17.6015 N   0  0  0  0  0  0  0  0  0  0  0  0
    7.1595    0.0365   18.6465 C   0  0  0  0  0  0  0  0  0  0  0  0
    8.0994   -0.4693   18.4112 H   0  0  0  0  0  0  0  0  0  0  0  0
    4.9726    1.7947   16.9764 H   0  0  0  0  0  0  0  0  0  0  0  0
    3.8517    1.8434   19.1976 H   0  0  0  0  0  0  0  0  0  0  0  0
    4.9530    0.6902   21.1437 H   0  0  0  0  0  0  0  0  0  0  0  0
    7.9092   -2.0267   20.8717 C   0  0  0  0  0  0  0  0  0  0  0  0
    6.7298   -2.9522   20.5141 C   0  0  0  0  0  0  0  0  0  0  0  0
    6.3052   -2.7227   19.5266 H   0  0  0  0  0  0  0  0  0  0  0  0
    5.9506   -2.8402   21.2766 H   0  0  0  0  0  0  0  0  0  0  0  0
    7.0279   -4.0074   20.5374 H   0  0  0  0  0  0  0  0  0  0  0  0
    8.6924   -2.6050   22.0654 C   0  0  0  0  0  0  0  0  0  0  0  0
    9.5319   -1.9638   22.3531 H   0  0  0  0  0  0  0  0  0  0  0  0
    9.1001   -3.5836   21.7979 H   0  0  0  0  0  0  0  0  0  0  0  0
    8.0693   -2.7474   22.9593 H   0  0  0  0  0  0  0  0  0  0  0  0
    8.6225   -1.9325   20.0414 H   0  0  0  0  0  0  0  0  0  0  0  0
    6.6053   -0.7290   21.9203 H   0  0  0  0  0  0  0  0  0  0  0  0
    7.5348    3.1639   21.8726 N   0  0  0  0  0  0  0  0  0  0  0  0
    7.2042    4.4201   22.2968 C   0  0  0  0  0  0  0  0  0  0  0  0
    6.7926    5.5445   21.5718 C   0  0  0  0  0  0  0  0  0  0  0  0
    6.5410    6.7118   22.2801 C   0  0  0  0  0  0  0  0  0  0  0  0
    6.6841    6.7635   23.6910 C   0  0  0  0  0  0  0  0  0  0  0  0
    7.0761    5.6413   24.4065 C   0  0  0  0  0  0  0  0  0  0  0  0
    7.3428    4.4380   23.7079 C   0  0  0  0  0  0  0  0  0  0  0  0
    7.1782    5.6691   25.4887 H   0  0  0  0  0  0  0  0  0  0  0  0
    6.4845    7.6948   24.2106 H   0  0  0  0  0  0  0  0  0  0  0  0
    6.2269    7.5967   21.7371 H   0  0  0  0  0  0  0  0  0  0  0  0
    6.6632    5.5054   20.4940 H   0  0  0  0  0  0  0  0  0  0  0  0
    7.2885    2.8151   20.9562 H   0  0  0  0  0  0  0  0  0  0  0  0
    8.8496    2.0449   25.6216 H   0  0  0  0  0  0  0  0  0  0  0  0
    7.1191    2.0562   25.9003 H   0  0  0  0  0  0  0  0  0  0  0  0
    8.0707    3.5143   26.2284 H   0  0  0  0  0  0  0  0  0  0  0  0
  1  2  1  0
  2  3  2  0
  3  4  1  0
  4  5  2  0
  4  6  1  0
  6  7  1  0
  7  8  1  0
  7  9  1  0
  7 10  1  0
  6 11  1  0
 11 12  1  0
 12 13  2  0
 13 14  1  0
 14 15  2  0
 15 16  1  0
 16 17  2  0
 17 18  1  0
 15 19  1  0
 14 20  1  0
 13 21  1  0
 11 22  1  0
 22 23  1  0
 23 24  1  0
 23 25  1  0
 23 26  1  0
 22 27  1  0
 27 28  1  0
 27 29  1  0
 27 30  1  0
 22 31  1  0
 11 32  1  0
  3 33  1  0
 33 34  1  0
 34 35  2  0
 35 36  1  0
 36 37  2  0
 37 38  1  0
 38 39  2  0
 38 40  1  0
 37 41  1  0
 36 42  1  0
 35 43  1  0
 33 44  1  0
  1 45  1  0
  1 46  1  0
  1 47  1  0
 39  2  1  0
 17 12  1  0
 39 34  1  0
M  END
>  <plip>  (1) 
-0.14285714285714285

>  <filename>  (1) 
[H][c]1[n][c]([H])[c]([C]([H])([N]([C](=[O])[c]2[c]([C]([H])([H])[H])[c]3[c]([H])[c]([H])[c]([H])[c]([H])[c]3[n]2[H])[C]([H])([H])[H])[C]([H])([C]([H])([H])[H])[C]([H])([H])[H])[c]([H])[c]1[H]

$$$$
