
     RDKit          3D

 54 57  0  0  0  0  0  0  0  0999 V2000
    9.2019    2.2937   22.0332 C   0  0  0  0  0  0  0  0  0  0  0  0
    8.7507    1.1630   21.3102 O   0  0  0  0  0  0  0  0  0  0  0  0
    7.9415    0.2954   22.0457 C   0  0  0  0  0  0  0  0  0  0  0  0
    8.7243   -0.3710   23.0151 O   0  0  0  0  0  0  0  0  0  0  0  0
    8.3240   -0.2472   24.3652 C   0  0  0  0  0  0  0  0  0  0  0  0
    9.0443   -0.8063   24.9701 H   0  0  0  0  0  0  0  0  0  0  0  0
    7.3267   -0.6787   24.5431 H   0  0  0  0  0  0  0  0  0  0  0  0
    8.3226    0.7962   24.7196 H   0  0  0  0  0  0  0  0  0  0  0  0
    7.3268   -0.7153   21.0274 C   0  0  0  0  0  0  0  0  0  0  0  0
    6.4571   -1.6988   21.6762 N   0  0  0  0  0  0  0  0  0  0  0  0
    6.0142   -2.8130   21.0250 C   0  0  0  0  0  0  0  0  0  0  0  0
    6.2561   -3.0389   19.8480 O   0  0  0  0  0  0  0  0  0  0  0  0
    5.2186   -3.8079   21.8703 C   0  0  0  0  0  0  0  0  0  0  0  0
    5.0064   -5.0998   21.4742 C   0  0  0  0  0  0  0  0  0  0  0  0
    3.9378   -5.8973   22.5359 S   0  0  0  0  0  0  0  0  0  0  0  0
    3.8701   -4.4564   23.5210 C   0  0  0  0  0  0  0  0  0  0  0  0
    3.0325   -4.3430   24.7234 C   0  0  0  0  0  0  0  0  0  0  0  0
    3.1155   -3.1634   25.5008 C   0  0  0  0  0  0  0  0  0  0  0  0
    2.3876   -3.0182   26.6773 C   0  0  0  0  0  0  0  0  0  0  0  0
    1.5496   -4.0740   27.0611 C   0  0  0  0  0  0  0  0  0  0  0  0
    1.4324   -5.2446   26.2874 C   0  0  0  0  0  0  0  0  0  0  0  0
    2.1599   -5.3833   25.1223 C   0  0  0  0  0  0  0  0  0  0  0  0
    2.0578   -6.2923   24.5303 H   0  0  0  0  0  0  0  0  0  0  0  0
    0.4710   -6.1912   26.9604 C   0  0  0  0  0  0  0  0  0  0  0  0
    0.0381   -5.4225   28.2300 C   0  0  0  0  0  0  0  0  0  0  0  0
    0.7519   -4.1579   28.1682 N   0  0  0  0  0  0  0  0  0  0  0  0
    0.6605   -3.1361   29.1714 C   0  0  0  0  0  0  0  0  0  0  0  0
    1.6369   -2.9417   29.6369 H   0  0  0  0  0  0  0  0  0  0  0  0
   -0.0345   -3.4375   29.9624 H   0  0  0  0  0  0  0  0  0  0  0  0
    0.2944   -2.1927   28.7441 H   0  0  0  0  0  0  0  0  0  0  0  0
    0.2990   -5.9664   29.1490 H   0  0  0  0  0  0  0  0  0  0  0  0
   -1.0464   -5.2481   28.2558 H   0  0  0  0  0  0  0  0  0  0  0  0
    0.9481   -7.1423   27.2176 H   0  0  0  0  0  0  0  0  0  0  0  0
   -0.3881   -6.4218   26.3235 H   0  0  0  0  0  0  0  0  0  0  0  0
    2.4654   -2.1306   27.2989 H   0  0  0  0  0  0  0  0  0  0  0  0
    3.7696   -2.3590   25.1732 H   0  0  0  0  0  0  0  0  0  0  0  0
    4.6057   -3.4820   23.0637 N   0  0  0  0  0  0  0  0  0  0  0  0
    5.3924   -5.6128   20.6056 H   0  0  0  0  0  0  0  0  0  0  0  0
    5.9570   -1.4921   22.5316 H   0  0  0  0  0  0  0  0  0  0  0  0
    6.5802   -0.0397   19.8851 C   0  0  0  0  0  0  0  0  0  0  0  0
    5.3679    0.6297   20.1006 C   0  0  0  0  0  0  0  0  0  0  0  0
    4.7839    1.3125   19.0340 C   0  0  0  0  0  0  0  0  0  0  0  0
    5.4213    1.2973   17.7868 C   0  0  0  0  0  0  0  0  0  0  0  0
    6.5644    0.6401   17.5479 N   0  0  0  0  0  0  0  0  0  0  0  0
    7.1120   -0.0102   18.5886 C   0  0  0  0  0  0  0  0  0  0  0  0
    8.0494   -0.5264   18.3762 H   0  0  0  0  0  0  0  0  0  0  0  0
    4.9967    1.8424   16.9453 H   0  0  0  0  0  0  0  0  0  0  0  0
    3.8645    1.8714   19.1581 H   0  0  0  0  0  0  0  0  0  0  0  0
    4.8910    0.6348   21.0876 H   0  0  0  0  0  0  0  0  0  0  0  0
    8.2037   -1.2438   20.6309 H   0  0  0  0  0  0  0  0  0  0  0  0
    7.1212    0.8591   22.5335 H   0  0  0  0  0  0  0  0  0  0  0  0
    9.8062    2.0189   22.9068 H   0  0  0  0  0  0  0  0  0  0  0  0
    9.8237    2.8730   21.3531 H   0  0  0  0  0  0  0  0  0  0  0  0
    8.3615    2.9205   22.3646 H   0  0  0  0  0  0  0  0  0  0  0  0
  1  2  1  0
  2  3  1  0
  3  4  1  0
  4  5  1  0
  5  6  1  0
  5  7  1  0
  5  8  1  0
  3  9  1  0
  9 10  1  0
 10 11  1  0
 11 12  2  0
 11 13  1  0
 13 14  2  0
 14 15  1  0
 15 16  1  0
 16 17  1  0
 17 18  2  0
 18 19  1  0
 19 20  2  0
 20 21  1  0
 21 22  2  0
 22 23  1  0
 21 24  1  0
 24 25  1  0
 25 26  1  0
 26 27  1  0
 27 28  1  0
 27 29  1  0
 27 30  1  0
 25 31  1  0
 25 32  1  0
 24 33  1  0
 24 34  1  0
 19 35  1  0
 18 36  1  0
 16 37  2  0
 14 38  1  0
 10 39  1  0
  9 40  1  0
 40 41  2  0
 41 42  1  0
 42 43  2  0
 43 44  1  0
 44 45  2  0
 45 46  1  0
 43 47  1  0
 42 48  1  0
 41 49  1  0
  9 50  1  0
  3 51  1  0
  1 52  1  0
  1 53  1  0
  1 54  1  0
 37 13  1  0
 45 40  1  0
 22 17  1  0
 26 20  1  0
M  END
>  <plip>  (1) 
-0.1724137931034483

>  <filename>  (1) 
[H][c]1[n][c]([H])[c]([C]([H])([N]([H])[C](=[O])[c]2[n][c](-[c]3[c]([H])[c]([H])[c]4[c]([c]3[H])[C]([H])([H])[C]([H])([H])[N]4[C]([H])([H])[H])[s][c]2[H])[C]([H])([O][C]([H])([H])[H])[O][C]([H])([H])[H])[c]([H])[c]1[H]

$$$$
