
     RDKit          3D

 22 23  0  0  0  0  0  0  0  0999 V2000
    4.9073    1.8126   16.9802 H   0  0  0  0  0  0  0  0  0  0  0  0
    5.3793    1.3013   17.8200 C   0  0  0  0  0  0  0  0  0  0  0  0
    6.5330    0.6729   17.5443 N   0  0  0  0  0  0  0  0  0  0  0  0
    7.1410    0.0490   18.5605 C   0  0  0  0  0  0  0  0  0  0  0  0
    8.1034   -0.4109   18.3333 H   0  0  0  0  0  0  0  0  0  0  0  0
    6.6481   -0.0031   19.8864 C   0  0  0  0  0  0  0  0  0  0  0  0
    7.4214   -0.6653   21.0044 C   0  0  0  0  0  0  0  0  0  0  0  0
    6.8078   -0.9886   21.8473 H   0  0  0  0  0  0  0  0  0  0  0  0
    8.0352   -1.5097   20.6794 H   0  0  0  0  0  0  0  0  0  0  0  0
    8.6904    0.3788   21.7781 S   0  0  0  0  0  0  0  0  0  0  0  0
    9.2301   -0.3849   22.8933 O   0  0  0  0  0  0  0  0  0  0  0  0
    9.5303    0.8488   20.6798 O   0  0  0  0  0  0  0  0  0  0  0  0
    7.7987    1.8355   22.3764 C   0  0  0  0  0  0  0  0  0  0  0  0
    7.3085    2.0309   23.5775 N   0  0  0  0  0  0  0  0  0  0  0  0
    6.7210    3.2458   23.5447 N   0  0  0  0  0  0  0  0  0  0  0  0
    6.8292    3.7852   22.3869 N   0  0  0  0  0  0  0  0  0  0  0  0
    7.5038    2.9220   21.6302 N   0  0  0  0  0  0  0  0  0  0  0  0
    7.6638    3.1590   20.6618 H   0  0  0  0  0  0  0  0  0  0  0  0
    5.4405    0.6506   20.1447 C   0  0  0  0  0  0  0  0  0  0  0  0
    5.0235    0.6485   21.1545 H   0  0  0  0  0  0  0  0  0  0  0  0
    4.7971    1.3154   19.0912 C   0  0  0  0  0  0  0  0  0  0  0  0
    3.8659    1.8505   19.2388 H   0  0  0  0  0  0  0  0  0  0  0  0
  1  2  1  0
  2  3  2  0
  3  4  1  0
  4  5  1  0
  4  6  2  0
  6  7  1  0
  7  8  1  0
  7  9  1  0
  7 10  1  0
 10 11  2  0
 10 12  2  0
 10 13  1  0
 13 14  2  0
 14 15  1  0
 15 16  2  0
 16 17  1  0
 17 18  1  0
  6 19  1  0
 19 20  1  0
 19 21  2  0
 21 22  1  0
 21  2  1  0
 17 13  1  0
M  END
>  <plip>  (1) 
-0.14285714285714285

>  <filename>  (1) 
[H][c]1[n][c]([H])[c]([C]([H])([H])[S](=[O])(=[O])[c]2[n][n][n][n]2[H])[c]([H])[c]1[H]

$$$$
