
     RDKit          3D

 38 41  0  0  0  0  0  0  0  0999 V2000
    7.3730    1.9415   21.6706 O   0  0  0  0  0  0  0  0  0  0  0  0
    8.1792    1.0395   21.8484 C   0  0  0  0  0  0  0  0  0  0  0  0
    7.8101   -0.2483   21.5433 N   0  0  0  0  0  0  0  0  0  0  0  0
    6.4688   -0.6535   21.1989 C   0  0  0  0  0  0  0  0  0  0  0  0
    6.0321    0.0929   19.9622 C   0  0  0  0  0  0  0  0  0  0  0  0
    4.8787    0.8841   19.9521 C   0  0  0  0  0  0  0  0  0  0  0  0
    4.5549    1.5496   18.7704 C   0  0  0  0  0  0  0  0  0  0  0  0
    5.3698    1.4177   17.6442 C   0  0  0  0  0  0  0  0  0  0  0  0
    6.4674    0.6399   17.6434 N   0  0  0  0  0  0  0  0  0  0  0  0
    6.7921    0.0050   18.7853 C   0  0  0  0  0  0  0  0  0  0  0  0
    7.6897   -0.6057   18.7866 H   0  0  0  0  0  0  0  0  0  0  0  0
    5.0982    1.9514   16.7374 H   0  0  0  0  0  0  0  0  0  0  0  0
    3.6844    2.1918   18.7119 H   0  0  0  0  0  0  0  0  0  0  0  0
    4.2538    0.9913   20.8364 H   0  0  0  0  0  0  0  0  0  0  0  0
    6.5985   -2.1546   20.9307 C   0  0  0  0  0  0  0  0  0  0  0  0
    5.6851   -3.2031   21.5649 C   0  0  0  0  0  0  0  0  0  0  0  0
    7.1097   -3.0345   22.0701 C   0  0  0  0  0  0  0  0  0  0  0  0
    7.8479   -3.8014   21.8197 H   0  0  0  0  0  0  0  0  0  0  0  0
    7.2472   -2.5576   23.0461 H   0  0  0  0  0  0  0  0  0  0  0  0
    5.4781   -4.1153   20.9988 H   0  0  0  0  0  0  0  0  0  0  0  0
    4.8916   -2.8792   22.2405 H   0  0  0  0  0  0  0  0  0  0  0  0
    6.9673   -2.3794   19.9299 H   0  0  0  0  0  0  0  0  0  0  0  0
    5.7926   -0.4693   22.0404 H   0  0  0  0  0  0  0  0  0  0  0  0
    8.4727   -0.9766   21.7730 H   0  0  0  0  0  0  0  0  0  0  0  0
    9.5567    1.3025   22.2896 C   0  0  0  0  0  0  0  0  0  0  0  0
   10.0620    2.5529   22.5509 C   0  0  0  0  0  0  0  0  0  0  0  0
   11.4739    2.3795   22.7004 C   0  0  0  0  0  0  0  0  0  0  0  0
   11.7272    1.0199   22.5862 C   0  0  0  0  0  0  0  0  0  0  0  0
   10.5516    0.3428   22.4007 O   0  0  0  0  0  0  0  0  0  0  0  0
   13.0460    0.5485   22.5701 C   0  0  0  0  0  0  0  0  0  0  0  0
   13.3878   -1.2873   22.1603 Br  0  0  0  0  0  0  0  0  0  0  0  0
   14.0916    1.4667   22.7548 C   0  0  0  0  0  0  0  0  0  0  0  0
   13.8141    2.8410   22.8635 C   0  0  0  0  0  0  0  0  0  0  0  0
   12.5004    3.3077   22.8164 C   0  0  0  0  0  0  0  0  0  0  0  0
   12.2781    4.3703   22.8526 H   0  0  0  0  0  0  0  0  0  0  0  0
   14.6227    3.5583   22.9254 H   0  0  0  0  0  0  0  0  0  0  0  0
   15.1274    1.1443   22.7265 H   0  0  0  0  0  0  0  0  0  0  0  0
    9.5279    3.5004   22.5264 H   0  0  0  0  0  0  0  0  0  0  0  0
  1  2  2  0
  2  3  1  0
  3  4  1  0
  4  5  1  0
  5  6  2  0
  6  7  1  0
  7  8  2  0
  8  9  1  0
  9 10  2  0
 10 11  1  0
  8 12  1  0
  7 13  1  0
  6 14  1  0
  4 15  1  0
 15 16  1  0
 16 17  1  0
 17 18  1  0
 17 19  1  0
 16 20  1  0
 16 21  1  0
 15 22  1  0
  4 23  1  0
  3 24  1  0
  2 25  1  0
 25 26  2  0
 26 27  1  0
 27 28  2  0
 28 29  1  0
 28 30  1  0
 30 31  1  0
 30 32  2  0
 32 33  1  0
 33 34  2  0
 34 35  1  0
 33 36  1  0
 32 37  1  0
 26 38  1  0
 10  5  1  0
 17 15  1  0
 29 25  1  0
 34 27  1  0
M  END
>  <plip>  (1) 
-0.034482758620689655

>  <filename>  (1) 
[H][c]1[n][c]([H])[c]([C]([H])([N]([H])[C](=[O])[c]2[o][c]3[c]([Br])[c]([H])[c]([H])[c]([H])[c]3[c]2[H])[C]2([H])[C]([H])([H])[C]2([H])[H])[c]([H])[c]1[H]

$$$$
