
     RDKit          3D

 49 52  0  0  0  0  0  0  0  0999 V2000
    6.5524   -1.2866   21.6819 H   0  0  0  0  0  0  0  0  0  0  0  0
    7.2303   -0.7401   21.0201 C   0  0  0  0  0  0  0  0  0  0  0  0
    8.5169   -0.5657   21.3640 C   0  0  0  0  0  0  0  0  0  0  0  0
    9.2493   -1.1613   22.5001 C   0  0  0  0  0  0  0  0  0  0  0  0
    8.7128   -2.1858   23.2344 N   0  0  0  0  0  0  0  0  0  0  0  0
    9.0174   -2.1950   24.6676 C   0  0  0  0  0  0  0  0  0  0  0  0
   10.1062   -2.1856   24.8225 H   0  0  0  0  0  0  0  0  0  0  0  0
    8.6316   -1.2592   25.1118 H   0  0  0  0  0  0  0  0  0  0  0  0
    8.3661   -3.4081   25.3284 C   0  0  0  0  0  0  0  0  0  0  0  0
    8.3126   -3.2442   26.4105 H   0  0  0  0  0  0  0  0  0  0  0  0
    8.9944   -4.2958   25.1674 H   0  0  0  0  0  0  0  0  0  0  0  0
    6.9613   -3.6333   24.7200 C   0  0  0  0  0  0  0  0  0  0  0  0
    6.4367   -2.6710   24.8124 H   0  0  0  0  0  0  0  0  0  0  0  0
    6.1390   -4.6219   25.4090 N   0  0  0  0  0  0  0  0  0  0  0  0
    5.5605   -4.1777   26.6894 C   0  0  0  0  0  0  0  0  0  0  0  0
    4.4628   -4.1578   26.6214 H   0  0  0  0  0  0  0  0  0  0  0  0
    5.8807   -3.1534   26.9396 H   0  0  0  0  0  0  0  0  0  0  0  0
    6.0145   -5.1852   27.7677 C   0  0  0  0  0  0  0  0  0  0  0  0
    6.3052   -4.6958   28.7011 H   0  0  0  0  0  0  0  0  0  0  0  0
    5.1781   -5.8557   27.9940 H   0  0  0  0  0  0  0  0  0  0  0  0
    7.1568   -5.9624   27.1065 C   0  0  0  0  0  0  0  0  0  0  0  0
    7.2746   -6.9666   27.5185 H   0  0  0  0  0  0  0  0  0  0  0  0
    8.1143   -5.4391   27.2048 H   0  0  0  0  0  0  0  0  0  0  0  0
    6.7179   -5.9557   25.6441 C   0  0  0  0  0  0  0  0  0  0  0  0
    7.5281   -6.2017   24.9469 H   0  0  0  0  0  0  0  0  0  0  0  0
    5.9257   -6.7070   25.5022 H   0  0  0  0  0  0  0  0  0  0  0  0
    7.0293   -3.9491   23.2098 C   0  0  0  0  0  0  0  0  0  0  0  0
    6.1703   -3.4799   22.7198 H   0  0  0  0  0  0  0  0  0  0  0  0
    6.9450   -5.0259   23.0369 H   0  0  0  0  0  0  0  0  0  0  0  0
    8.3173   -3.4263   22.5715 C   0  0  0  0  0  0  0  0  0  0  0  0
    8.1687   -3.2450   21.5008 H   0  0  0  0  0  0  0  0  0  0  0  0
    9.1154   -4.1849   22.6594 H   0  0  0  0  0  0  0  0  0  0  0  0
   10.4010   -0.6509   22.7510 N   0  0  0  0  0  0  0  0  0  0  0  0
   10.6556    0.3979   21.7800 C   0  0  0  0  0  0  0  0  0  0  0  0
   10.7765    1.3464   22.3169 H   0  0  0  0  0  0  0  0  0  0  0  0
   11.5977    0.1883   21.2643 H   0  0  0  0  0  0  0  0  0  0  0  0
    9.4697    0.4443   20.7930 C   0  0  0  0  0  0  0  0  0  0  0  0
    9.0180    1.4368   20.7093 H   0  0  0  0  0  0  0  0  0  0  0  0
    9.7531    0.1189   19.7929 H   0  0  0  0  0  0  0  0  0  0  0  0
    6.5528   -0.0778   19.8898 C   0  0  0  0  0  0  0  0  0  0  0  0
    7.1041   -0.0092   18.5947 C   0  0  0  0  0  0  0  0  0  0  0  0
    8.0303   -0.5382   18.3867 H   0  0  0  0  0  0  0  0  0  0  0  0
    6.5568    0.6594   17.5689 N   0  0  0  0  0  0  0  0  0  0  0  0
    5.4117    1.3141   17.8059 C   0  0  0  0  0  0  0  0  0  0  0  0
    4.9957    1.8803   16.9720 H   0  0  0  0  0  0  0  0  0  0  0  0
    4.7536    1.2910   19.0439 C   0  0  0  0  0  0  0  0  0  0  0  0
    3.8336    1.8509   19.1733 H   0  0  0  0  0  0  0  0  0  0  0  0
    5.3247    0.5724   20.0942 C   0  0  0  0  0  0  0  0  0  0  0  0
    4.8510    0.5423   21.0775 H   0  0  0  0  0  0  0  0  0  0  0  0
  1  2  1  0
  2  3  2  3
  3  4  1  0
  4  5  1  0
  5  6  1  0
  6  7  1  0
  6  8  1  0
  6  9  1  0
  9 10  1  0
  9 11  1  0
  9 12  1  0
 12 13  1  0
 12 14  1  0
 14 15  1  0
 15 16  1  0
 15 17  1  0
 15 18  1  0
 18 19  1  0
 18 20  1  0
 18 21  1  0
 21 22  1  0
 21 23  1  0
 21 24  1  0
 24 25  1  0
 24 26  1  0
 12 27  1  0
 27 28  1  0
 27 29  1  0
 27 30  1  0
 30 31  1  0
 30 32  1  0
  4 33  2  0
 33 34  1  0
 34 35  1  0
 34 36  1  0
 34 37  1  0
 37 38  1  0
 37 39  1  0
  2 40  1  0
 40 41  2  0
 41 42  1  0
 41 43  1  0
 43 44  2  0
 44 45  1  0
 44 46  1  0
 46 47  1  0
 46 48  2  0
 48 49  1  0
 37  3  1  0
 48 40  1  0
 30  5  1  0
 24 14  1  0
M  END
>  <plip>  (1) 
-0.03571428571428571

>  <filename>  (1) 
[H][C](=[C]1[C]([N]2[C]([H])([H])[C]([H])([H])[C]([H])([N]3[C]([H])([H])[C]([H])([H])[C]([H])([H])[C]3([H])[H])[C]([H])([H])[C]2([H])[H])=[N][C]([H])([H])[C]1([H])[H])[c]1[c]([H])[n][c]([H])[c]([H])[c]1[H]

$$$$
