
     RDKit          3D

 36 38  0  0  0  0  0  0  0  0999 V2000
    4.9494    1.7775   17.0144 H   0  0  0  0  0  0  0  0  0  0  0  0
    5.4313    1.2685   17.8461 C   0  0  0  0  0  0  0  0  0  0  0  0
    6.5966    0.6506   17.5802 N   0  0  0  0  0  0  0  0  0  0  0  0
    7.2178    0.0450   18.6026 C   0  0  0  0  0  0  0  0  0  0  0  0
    8.1620   -0.4484   18.3626 H   0  0  0  0  0  0  0  0  0  0  0  0
    6.7177   -0.0040   19.9271 C   0  0  0  0  0  0  0  0  0  0  0  0
    7.4255   -0.6423   20.9569 N   0  0  0  0  0  0  0  0  0  0  0  0
    8.4193   -0.4926   21.0257 H   0  0  0  0  0  0  0  0  0  0  0  0
    6.9118   -1.5494   21.8876 C   0  0  0  0  0  0  0  0  0  0  0  0
    5.7969   -2.4161   21.8011 C   0  0  0  0  0  0  0  0  0  0  0  0
    5.1471   -2.5907   20.9584 H   0  0  0  0  0  0  0  0  0  0  0  0
    5.6327   -3.1223   22.9130 N   0  0  0  0  0  0  0  0  0  0  0  0
    6.6502   -2.7373   23.6968 N   0  0  0  0  0  0  0  0  0  0  0  0
    6.6742   -3.0944   24.6414 H   0  0  0  0  0  0  0  0  0  0  0  0
    7.4870   -1.8289   23.1186 C   0  0  0  0  0  0  0  0  0  0  0  0
    8.7687   -1.3056   23.7201 C   0  0  1  0  0  0  0  0  0  0  0  0
    9.5527   -1.4250   22.9534 H   0  0  0  0  0  0  0  0  0  0  0  0
    8.6770    0.1990   24.0230 C   0  0  0  0  0  0  0  0  0  0  0  0
    7.7423    0.7004   24.9476 C   0  0  0  0  0  0  0  0  0  0  0  0
    7.0385    0.0310   25.4418 H   0  0  0  0  0  0  0  0  0  0  0  0
    7.7153    2.0633   25.2661 C   0  0  0  0  0  0  0  0  0  0  0  0
    6.9995    2.4397   25.9903 H   0  0  0  0  0  0  0  0  0  0  0  0
    8.6053    2.9523   24.6554 C   0  0  0  0  0  0  0  0  0  0  0  0
    8.5697    4.0140   24.8890 H   0  0  0  0  0  0  0  0  0  0  0  0
    9.5286    2.4704   23.7255 C   0  0  0  0  0  0  0  0  0  0  0  0
   10.2079    3.1586   23.2296 H   0  0  0  0  0  0  0  0  0  0  0  0
    9.5655    1.1065   23.4179 C   0  0  0  0  0  0  0  0  0  0  0  0
   10.3110    0.7520   22.7084 H   0  0  0  0  0  0  0  0  0  0  0  0
    9.2422   -2.1287   24.9341 C   0  0  0  0  0  0  0  0  0  0  0  0
    8.6185   -1.9695   25.8223 H   0  0  0  0  0  0  0  0  0  0  0  0
    9.2594   -3.2002   24.6989 H   0  0  0  0  0  0  0  0  0  0  0  0
   10.2544   -1.8145   25.1797 H   0  0  0  0  0  0  0  0  0  0  0  0
    5.4888    0.6307   20.1754 C   0  0  0  0  0  0  0  0  0  0  0  0
    5.0794    0.6328   21.1868 H   0  0  0  0  0  0  0  0  0  0  0  0
    4.8451    1.2772   19.1152 C   0  0  0  0  0  0  0  0  0  0  0  0
    3.9071    1.7968   19.2704 H   0  0  0  0  0  0  0  0  0  0  0  0
  1  2  1  0
  2  3  2  0
  3  4  1  0
  4  5  1  0
  4  6  2  0
  6  7  1  0
  7  8  1  0
  7  9  1  0
  9 10  1  0
 10 11  1  0
 10 12  2  0
 12 13  1  0
 13 14  1  0
 13 15  1  0
 15 16  1  0
 16 17  1  6
 16 18  1  0
 18 19  2  0
 19 20  1  0
 19 21  1  0
 21 22  1  0
 21 23  2  0
 23 24  1  0
 23 25  1  0
 25 26  1  0
 25 27  2  0
 27 28  1  0
 16 29  1  0
 29 30  1  0
 29 31  1  0
 29 32  1  0
  6 33  1  0
 33 34  1  0
 33 35  2  0
 35 36  1  0
 35  2  1  0
 15  9  2  0
 27 18  1  0
M  END
>  <plip>  (1) 
-0.03571428571428571

>  <filename>  (1) 
[H][c]1[n][c]([H])[c]([N]([H])[c]2[c]([H])[n][n]([H])[c]2[C@@]([H])([c]2[c]([H])[c]([H])[c]([H])[c]([H])[c]2[H])[C]([H])([H])[H])[c]([H])[c]1[H]

$$$$
