
     RDKit          3D

 53 55  0  0  0  0  0  0  0  0999 V2000
   10.5375    8.0537   28.7702 C   0  0  0  0  0  0  0  0  0  0  0  0
    9.8125    7.1084   28.0081 O   0  0  0  0  0  0  0  0  0  0  0  0
   10.4482    6.4513   26.9994 C   0  0  0  0  0  0  0  0  0  0  0  0
    9.6384    5.6312   26.1979 C   0  0  0  0  0  0  0  0  0  0  0  0
   10.2057    4.9040   25.1364 C   0  0  0  0  0  0  0  0  0  0  0  0
    9.4839    3.8824   24.3662 C   0  0  0  0  0  0  0  0  0  0  0  0
    9.8981    3.0067   23.4136 C   0  0  0  0  0  0  0  0  0  0  0  0
    8.7413    2.2684   22.9913 C   0  0  0  0  0  0  0  0  0  0  0  0
    8.6895    1.2780   21.8864 C   0  0  0  0  0  0  0  0  0  0  0  0
    9.4444    1.2928   20.9262 O   0  0  0  0  0  0  0  0  0  0  0  0
    7.7528    0.3096   22.0615 N   0  0  0  0  0  0  0  0  0  0  0  0
    7.4118   -0.6429   21.0119 C   0  0  0  0  0  0  0  0  0  0  0  0
    6.6661    0.0830   19.8971 C   0  0  0  0  0  0  0  0  0  0  0  0
    5.4309    0.7130   20.0989 C   0  0  0  0  0  0  0  0  0  0  0  0
    4.8041    1.3368   19.0179 C   0  0  0  0  0  0  0  0  0  0  0  0
    5.4413    1.3187   17.7720 C   0  0  0  0  0  0  0  0  0  0  0  0
    6.6239    0.7289   17.5560 N   0  0  0  0  0  0  0  0  0  0  0  0
    7.2101    0.1340   18.6086 C   0  0  0  0  0  0  0  0  0  0  0  0
    8.1742   -0.3372   18.4109 H   0  0  0  0  0  0  0  0  0  0  0  0
    4.9827    1.8061   16.9119 H   0  0  0  0  0  0  0  0  0  0  0  0
    3.8505    1.8427   19.1259 H   0  0  0  0  0  0  0  0  0  0  0  0
    4.9473    0.7073   21.0789 H   0  0  0  0  0  0  0  0  0  0  0  0
    6.6636   -1.8967   21.5437 C   0  0  0  0  0  0  0  0  0  0  0  0
    6.4784   -2.7067   20.4216 O   0  0  0  0  0  0  0  0  0  0  0  0
    5.6909   -3.8618   20.6029 C   0  0  0  0  0  0  0  0  0  0  0  0
    6.2539   -4.6547   21.1129 H   0  0  0  0  0  0  0  0  0  0  0  0
    5.4249   -4.2006   19.5951 H   0  0  0  0  0  0  0  0  0  0  0  0
    4.7737   -3.6425   21.1765 H   0  0  0  0  0  0  0  0  0  0  0  0
    7.4131   -2.5642   22.5311 O   0  0  0  0  0  0  0  0  0  0  0  0
    6.7176   -2.9551   23.7004 C   0  0  0  0  0  0  0  0  0  0  0  0
    5.8156   -3.5492   23.4904 H   0  0  0  0  0  0  0  0  0  0  0  0
    7.4093   -3.5676   24.2812 H   0  0  0  0  0  0  0  0  0  0  0  0
    6.4238   -2.1007   24.3288 H   0  0  0  0  0  0  0  0  0  0  0  0
    5.6848   -1.5851   21.9556 H   0  0  0  0  0  0  0  0  0  0  0  0
    8.3430   -1.0494   20.6052 H   0  0  0  0  0  0  0  0  0  0  0  0
    7.1488    0.4275   22.8526 H   0  0  0  0  0  0  0  0  0  0  0  0
    7.7029    2.7321   23.7516 C   0  0  0  0  0  0  0  0  0  0  0  0
    6.2417    2.4601   23.8628 C   0  0  0  0  0  0  0  0  0  0  0  0
    5.7870    2.3259   22.8781 H   0  0  0  0  0  0  0  0  0  0  0  0
    6.0363    1.5580   24.4511 H   0  0  0  0  0  0  0  0  0  0  0  0
    5.7516    3.3003   24.3618 H   0  0  0  0  0  0  0  0  0  0  0  0
    8.1499    3.7018   24.5847 O   0  0  0  0  0  0  0  0  0  0  0  0
   10.9156    2.8550   23.0659 H   0  0  0  0  0  0  0  0  0  0  0  0
   11.5705    5.0866   24.8347 C   0  0  0  0  0  0  0  0  0  0  0  0
   12.3727    5.8829   25.6388 C   0  0  0  0  0  0  0  0  0  0  0  0
   11.8228    6.5532   26.7351 C   0  0  0  0  0  0  0  0  0  0  0  0
   12.4479    7.1730   27.3617 H   0  0  0  0  0  0  0  0  0  0  0  0
   13.4318    5.9851   25.4189 H   0  0  0  0  0  0  0  0  0  0  0  0
   12.0138    4.5946   23.9767 H   0  0  0  0  0  0  0  0  0  0  0  0
    8.5762    5.5819   26.4100 H   0  0  0  0  0  0  0  0  0  0  0  0
    9.8206    8.5312   29.4402 H   0  0  0  0  0  0  0  0  0  0  0  0
   11.3185    7.5590   29.3608 H   0  0  0  0  0  0  0  0  0  0  0  0
   11.0028    8.8186   28.1335 H   0  0  0  0  0  0  0  0  0  0  0  0
  1  2  1  0
  2  3  1  0
  3  4  2  0
  4  5  1  0
  5  6  1  0
  6  7  2  0
  7  8  1  0
  8  9  1  0
  9 10  2  0
  9 11  1  0
 11 12  1  0
 12 13  1  0
 13 14  2  0
 14 15  1  0
 15 16  2  0
 16 17  1  0
 17 18  2  0
 18 19  1  0
 16 20  1  0
 15 21  1  0
 14 22  1  0
 12 23  1  0
 23 24  1  0
 24 25  1  0
 25 26  1  0
 25 27  1  0
 25 28  1  0
 23 29  1  0
 29 30  1  0
 30 31  1  0
 30 32  1  0
 30 33  1  0
 23 34  1  0
 12 35  1  0
 11 36  1  0
  8 37  2  0
 37 38  1  0
 38 39  1  0
 38 40  1  0
 38 41  1  0
 37 42  1  0
  7 43  1  0
  5 44  2  0
 44 45  1  0
 45 46  2  0
 46 47  1  0
 45 48  1  0
 44 49  1  0
  4 50  1  0
  1 51  1  0
  1 52  1  0
  1 53  1  0
 46  3  1  0
 42  6  1  0
 18 13  1  0
M  END
>  <plip>  (1) 
-0.21428571428571427

>  <filename>  (1) 
[H][c]1[n][c]([H])[c]([C]([H])([N]([H])[C](=[O])[c]2[c]([C]([H])([H])[H])[o][c](-[c]3[c]([H])[c]([H])[c]([H])[c]([O][C]([H])([H])[H])[c]3[H])[c]2[H])[C]([H])([O][C]([H])([H])[H])[O][C]([H])([H])[H])[c]([H])[c]1[H]

$$$$
