
     RDKit          3D

 32 35  0  0  0  0  0  0  0  0999 V2000
    4.9136    2.3649   16.2539 H   0  0  0  0  0  0  0  0  0  0  0  0
    5.1683    1.7983   17.1442 C   0  0  0  0  0  0  0  0  0  0  0  0
    6.2507    1.0063   17.0613 N   0  0  0  0  0  0  0  0  0  0  0  0
    6.6002    0.3226   18.1507 C   0  0  0  0  0  0  0  0  0  0  0  0
    7.4876   -0.3018   18.0704 H   0  0  0  0  0  0  0  0  0  0  0  0
    5.8976    0.4101   19.3631 C   0  0  0  0  0  0  0  0  0  0  0  0
    6.4199   -0.2535   20.4996 N   0  0  0  0  0  0  0  0  0  0  0  0
    5.8527   -0.2150   21.6875 N   0  0  0  0  0  0  0  0  0  0  0  0
    6.6387   -0.8663   22.4925 N   0  0  0  0  0  0  0  0  0  0  0  0
    7.6938   -1.2788   21.7540 C   0  0  0  0  0  0  0  0  0  0  0  0
    8.9217   -1.9122   22.2597 C   0  0  0  0  0  0  0  0  0  0  0  0
   10.1118   -1.4591   21.6906 C   0  0  0  0  0  0  0  0  0  0  0  0
   10.0833   -0.7035   20.9041 H   0  0  0  0  0  0  0  0  0  0  0  0
   11.3593   -1.9827   22.0839 C   0  0  0  0  0  0  0  0  0  0  0  0
   12.2755   -1.5816   21.6534 H   0  0  0  0  0  0  0  0  0  0  0  0
   11.3986   -3.0151   22.9847 C   0  0  0  0  0  0  0  0  0  0  0  0
   12.3301   -3.5098   23.2312 H   0  0  0  0  0  0  0  0  0  0  0  0
   10.2180   -3.5241   23.5900 C   0  0  0  0  0  0  0  0  0  0  0  0
   10.3205   -4.6186   24.5000 C   0  0  0  0  0  0  0  0  0  0  0  0
   11.3093   -5.0586   24.6245 H   0  0  0  0  0  0  0  0  0  0  0  0
    9.2161   -5.0911   25.1649 C   0  0  0  0  0  0  0  0  0  0  0  0
    9.3112   -5.9036   25.8867 H   0  0  0  0  0  0  0  0  0  0  0  0
    7.9473   -4.4959   24.9183 C   0  0  0  0  0  0  0  0  0  0  0  0
    7.0858   -4.8632   25.4763 H   0  0  0  0  0  0  0  0  0  0  0  0
    7.8077   -3.4657   24.0020 C   0  0  0  0  0  0  0  0  0  0  0  0
    6.8452   -2.9850   23.8510 H   0  0  0  0  0  0  0  0  0  0  0  0
    8.9429   -2.9506   23.2767 C   0  0  0  0  0  0  0  0  0  0  0  0
    7.5700   -0.8994   20.4802 N   0  0  0  0  0  0  0  0  0  0  0  0
    4.7594    1.2184   19.4477 C   0  0  0  0  0  0  0  0  0  0  0  0
    4.2227    1.3390   20.3914 H   0  0  0  0  0  0  0  0  0  0  0  0
    4.3838    1.9085   18.2989 C   0  0  0  0  0  0  0  0  0  0  0  0
    3.5051    2.5429   18.2943 H   0  0  0  0  0  0  0  0  0  0  0  0
  1  2  1  0
  2  3  2  0
  3  4  1  0
  4  5  1  0
  4  6  2  0
  6  7  1  0
  7  8  1  0
  8  9  2  0
  9 10  1  0
 10 11  1  0
 11 12  2  0
 12 13  1  0
 12 14  1  0
 14 15  1  0
 14 16  2  0
 16 17  1  0
 16 18  1  0
 18 19  2  0
 19 20  1  0
 19 21  1  0
 21 22  1  0
 21 23  2  0
 23 24  1  0
 23 25  1  0
 25 26  1  0
 25 27  2  0
 10 28  2  0
  6 29  1  0
 29 30  1  0
 29 31  2  0
 31 32  1  0
 31  2  1  0
 28  7  1  0
 27 11  1  0
 27 18  1  0
M  END
>  <plip>  (1) 
-0.1

>  <filename>  (1) 
[H][c]1[n][c]([H])[c](-[n]2[n][n][c](-[c]3[c]([H])[c]([H])[c]([H])[c]4[c]([H])[c]([H])[c]([H])[c]([H])[c]34)[n]2)[c]([H])[c]1[H]

$$$$
