
     RDKit          3D

 32 34  0  0  0  0  0  0  0  0999 V2000
    8.4746   -5.9735   27.1792 C   0  0  0  0  0  0  0  0  0  0  0  0
    9.4865   -5.0102   27.2062 C   0  0  0  0  0  0  0  0  0  0  0  0
    9.7624   -4.2741   26.0554 C   0  0  0  0  0  0  0  0  0  0  0  0
    8.9943   -4.4268   24.8822 C   0  0  0  0  0  0  0  0  0  0  0  0
    9.1646   -3.4562   23.7704 C   0  0  0  0  0  0  0  0  0  0  0  0
    8.5684   -3.2507   22.5594 C   0  0  0  0  0  0  0  0  0  0  0  0
    9.0446   -1.9704   22.1303 C   0  0  0  0  0  0  0  0  0  0  0  0
    8.6496   -1.1224   20.9168 C   0  0  0  0  0  0  0  0  0  0  0  0
    7.2584   -0.6202   20.9396 N   0  0  0  0  0  0  0  0  0  0  0  0
    6.6617    0.0555   19.8648 C   0  0  0  0  0  0  0  0  0  0  0  0
    5.4294    0.7137   20.0705 C   0  0  0  0  0  0  0  0  0  0  0  0
    4.8032    1.3469   18.9929 C   0  0  0  0  0  0  0  0  0  0  0  0
    5.4107    1.3240   17.7296 C   0  0  0  0  0  0  0  0  0  0  0  0
    6.5805    0.7084   17.4973 N   0  0  0  0  0  0  0  0  0  0  0  0
    7.1793    0.1024   18.5377 C   0  0  0  0  0  0  0  0  0  0  0  0
    8.1278   -0.3795   18.3150 H   0  0  0  0  0  0  0  0  0  0  0  0
    4.9431    1.8188   16.8811 H   0  0  0  0  0  0  0  0  0  0  0  0
    3.8592    1.8699   19.1230 H   0  0  0  0  0  0  0  0  0  0  0  0
    4.9821    0.7129   21.0660 H   0  0  0  0  0  0  0  0  0  0  0  0
    6.8840   -0.3361   21.8404 H   0  0  0  0  0  0  0  0  0  0  0  0
    8.7550   -1.7423   20.0205 H   0  0  0  0  0  0  0  0  0  0  0  0
    9.3817   -0.3038   20.8137 H   0  0  0  0  0  0  0  0  0  0  0  0
    9.9395   -1.5166   22.9696 N   0  0  0  0  0  0  0  0  0  0  0  0
   10.0200   -2.4320   23.9908 O   0  0  0  0  0  0  0  0  0  0  0  0
    7.9101   -3.9099   22.0211 H   0  0  0  0  0  0  0  0  0  0  0  0
    8.0226   -5.4425   24.8505 C   0  0  0  0  0  0  0  0  0  0  0  0
    7.7584   -6.2028   26.0000 C   0  0  0  0  0  0  0  0  0  0  0  0
    6.9937   -6.9753   26.0008 H   0  0  0  0  0  0  0  0  0  0  0  0
    7.4837   -5.6594   23.9310 H   0  0  0  0  0  0  0  0  0  0  0  0
   10.5802   -3.5749   26.0385 H   0  0  0  0  0  0  0  0  0  0  0  0
   10.0419   -4.8153   28.1228 H   0  0  0  0  0  0  0  0  0  0  0  0
    8.2489   -6.5493   28.0748 H   0  0  0  0  0  0  0  0  0  0  0  0
  1  2  2  0
  2  3  1  0
  3  4  2  0
  4  5  1  0
  5  6  2  0
  6  7  1  0
  7  8  1  0
  8  9  1  0
  9 10  1  0
 10 11  2  0
 11 12  1  0
 12 13  2  0
 13 14  1  0
 14 15  2  0
 15 16  1  0
 13 17  1  0
 12 18  1  0
 11 19  1  0
  9 20  1  0
  8 21  1  0
  8 22  1  0
  7 23  2  0
 23 24  1  0
  6 25  1  0
  4 26  1  0
 26 27  2  0
 27 28  1  0
 26 29  1  0
  3 30  1  0
  2 31  1  0
  1 32  1  0
 27  1  1  0
 24  5  1  0
 15 10  1  0
M  END
>  <plip>  (1) 
-0.10714285714285714

>  <filename>  (1) 
[H][c]1[n][c]([H])[c]([N]([H])[C]([H])([H])[c]2[n][o][c](-[c]3[c]([H])[c]([H])[c]([H])[c]([H])[c]3[H])[c]2[H])[c]([H])[c]1[H]

$$$$
