
     RDKit          3D

 48 51  0  0  0  0  0  0  0  0999 V2000
    8.6027   -3.1659   22.2873 C   0  0  0  0  0  0  0  0  0  0  0  0
    7.2461   -2.7680   22.4464 O   0  0  0  0  0  0  0  0  0  0  0  0
    6.6907   -2.0353   21.3758 C   0  0  0  0  0  0  0  0  0  0  0  0
    6.7292   -2.7679   20.1932 O   0  0  0  0  0  0  0  0  0  0  0  0
    5.7876   -3.8144   20.1331 C   0  0  0  0  0  0  0  0  0  0  0  0
    4.8034   -3.3476   20.0384 H   0  0  0  0  0  0  0  0  0  0  0  0
    5.8303   -4.4666   21.0203 H   0  0  0  0  0  0  0  0  0  0  0  0
    6.0059   -4.3936   19.2313 H   0  0  0  0  0  0  0  0  0  0  0  0
    7.3862   -0.6845   21.0350 C   0  0  0  0  0  0  0  0  0  0  0  0
    7.5604    0.1362   22.2216 N   0  0  0  0  0  0  0  0  0  0  0  0
    8.3576    1.2368   22.2490 C   0  0  0  0  0  0  0  0  0  0  0  0
    9.0609    1.5565   21.2984 O   0  0  0  0  0  0  0  0  0  0  0  0
    8.3195    2.0220   23.5459 C   0  0  0  0  0  0  0  0  0  0  0  0
    9.0882    3.1318   23.7991 C   0  0  0  0  0  0  0  0  0  0  0  0
   10.0094    3.9323   22.9293 C   0  0  0  0  0  0  0  0  0  0  0  0
   10.7242    4.9573   23.6177 O   0  0  0  0  0  0  0  0  0  0  0  0
   10.2811    5.4101   24.8282 C   0  0  0  0  0  0  0  0  0  0  0  0
   10.9028    6.5562   25.3173 C   0  0  0  0  0  0  0  0  0  0  0  0
   10.5515    7.0643   26.5678 C   0  0  0  0  0  0  0  0  0  0  0  0
    9.5646    6.4202   27.3305 C   0  0  0  0  0  0  0  0  0  0  0  0
    8.9308    5.2725   26.8456 C   0  0  0  0  0  0  0  0  0  0  0  0
    9.2887    4.7545   25.5989 C   0  0  0  0  0  0  0  0  0  0  0  0
    8.7221    3.5805   25.0423 N   0  0  0  0  0  0  0  0  0  0  0  0
    7.7574    2.7151   25.4949 C   0  0  0  0  0  0  0  0  0  0  0  0
    7.4908    1.7763   24.6315 N   0  0  0  0  0  0  0  0  0  0  0  0
    7.2975    2.8138   26.4662 H   0  0  0  0  0  0  0  0  0  0  0  0
    8.1623    4.7752   27.4350 H   0  0  0  0  0  0  0  0  0  0  0  0
    9.2839    6.8107   28.3043 H   0  0  0  0  0  0  0  0  0  0  0  0
   11.0461    7.9565   26.9458 H   0  0  0  0  0  0  0  0  0  0  0  0
   11.6581    7.0088   24.6810 H   0  0  0  0  0  0  0  0  0  0  0  0
   10.7526    3.2789   22.4630 H   0  0  0  0  0  0  0  0  0  0  0  0
    9.4113    4.3799   22.1261 H   0  0  0  0  0  0  0  0  0  0  0  0
    7.0128   -0.0037   23.0590 H   0  0  0  0  0  0  0  0  0  0  0  0
    6.6535    0.0663   19.9203 C   0  0  0  0  0  0  0  0  0  0  0  0
    5.4251    0.7033   20.1350 C   0  0  0  0  0  0  0  0  0  0  0  0
    4.7887    1.3319   19.0629 C   0  0  0  0  0  0  0  0  0  0  0  0
    5.4042    1.3014   17.8069 C   0  0  0  0  0  0  0  0  0  0  0  0
    6.5659    0.6773   17.5675 N   0  0  0  0  0  0  0  0  0  0  0  0
    7.1649    0.0841   18.6128 C   0  0  0  0  0  0  0  0  0  0  0  0
    8.1113   -0.4071   18.3800 H   0  0  0  0  0  0  0  0  0  0  0  0
    4.9398    1.7968   16.9558 H   0  0  0  0  0  0  0  0  0  0  0  0
    3.8448    1.8490   19.1929 H   0  0  0  0  0  0  0  0  0  0  0  0
    4.9768    0.7209   21.1309 H   0  0  0  0  0  0  0  0  0  0  0  0
    8.3738   -0.9625   20.6522 H   0  0  0  0  0  0  0  0  0  0  0  0
    5.6527   -1.8383   21.6832 H   0  0  0  0  0  0  0  0  0  0  0  0
    8.7747   -3.6568   21.3206 H   0  0  0  0  0  0  0  0  0  0  0  0
    8.8078   -3.8801   23.0872 H   0  0  0  0  0  0  0  0  0  0  0  0
    9.2792   -2.3040   22.3873 H   0  0  0  0  0  0  0  0  0  0  0  0
  1  2  1  0
  2  3  1  0
  3  4  1  0
  4  5  1  0
  5  6  1  0
  5  7  1  0
  5  8  1  0
  3  9  1  0
  9 10  1  0
 10 11  1  0
 11 12  2  0
 11 13  1  0
 13 14  2  0
 14 15  1  0
 15 16  1  0
 16 17  1  0
 17 18  2  0
 18 19  1  0
 19 20  2  0
 20 21  1  0
 21 22  2  0
 22 23  1  0
 23 24  1  0
 24 25  2  0
 24 26  1  0
 21 27  1  0
 20 28  1  0
 19 29  1  0
 18 30  1  0
 15 31  1  0
 15 32  1  0
 10 33  1  0
  9 34  1  0
 34 35  2  0
 35 36  1  0
 36 37  2  0
 37 38  1  0
 38 39  2  0
 39 40  1  0
 37 41  1  0
 36 42  1  0
 35 43  1  0
  9 44  1  0
  3 45  1  0
  1 46  1  0
  1 47  1  0
  1 48  1  0
 25 13  1  0
 39 34  1  0
 23 14  1  0
 22 17  1  0
M  END
>  <plip>  (1) 
-0.21428571428571427

>  <filename>  (1) 
[H][c]1[n][c]([H])[c]([C]([H])([N]([H])[C](=[O])[c]2[n][c]([H])[n]3[c]2[C]([H])([H])[O][c]2[c]([H])[c]([H])[c]([H])[c]([H])[c]2-3)[C]([H])([O][C]([H])([H])[H])[O][C]([H])([H])[H])[c]([H])[c]1[H]

$$$$
