
     RDKit          3D

 38 40  0  0  0  0  0  0  0  0999 V2000
    6.4798    0.7586   23.6637 O   0  0  0  0  0  0  0  0  0  0  0  0
    6.8037    1.8088   23.1674 C   0  0  0  0  0  0  0  0  0  0  0  0
    6.1442    3.1291   23.5028 C   0  0  0  0  0  0  0  0  0  0  0  0
    6.9511    3.9851   24.4239 C   0  0  0  0  0  0  0  0  0  0  0  0
    7.0152    3.9540   25.7869 C   0  0  0  0  0  0  0  0  0  0  0  0
    8.0044    4.9003   26.2010 C   0  0  0  0  0  0  0  0  0  0  0  0
    8.5069    5.2931   27.4585 C   0  0  0  0  0  0  0  0  0  0  0  0
    9.5429    6.2159   27.4973 C   0  0  0  0  0  0  0  0  0  0  0  0
   10.2374    6.6725   29.0329 Cl  0  0  0  0  0  0  0  0  0  0  0  0
   10.0635    6.7973   26.3147 C   0  0  0  0  0  0  0  0  0  0  0  0
    9.5541    6.4434   25.0677 C   0  0  0  0  0  0  0  0  0  0  0  0
    8.5268    5.4828   25.0223 C   0  0  0  0  0  0  0  0  0  0  0  0
    7.8692    4.8990   23.9588 N   0  0  0  0  0  0  0  0  0  0  0  0
    7.9966    5.1659   22.9980 H   0  0  0  0  0  0  0  0  0  0  0  0
    9.9458    6.8885   24.1576 H   0  0  0  0  0  0  0  0  0  0  0  0
   10.8645    7.5288   26.3992 H   0  0  0  0  0  0  0  0  0  0  0  0
    8.1102    4.8775   28.3775 H   0  0  0  0  0  0  0  0  0  0  0  0
    6.4206    3.3245   26.4312 H   0  0  0  0  0  0  0  0  0  0  0  0
    5.9436    3.6502   22.5634 H   0  0  0  0  0  0  0  0  0  0  0  0
    5.1959    2.8505   23.9717 H   0  0  0  0  0  0  0  0  0  0  0  0
    7.7612    1.8561   22.2037 N   0  0  0  0  0  0  0  0  0  0  0  0
    8.6063    0.5120   21.8375 S   0  0  0  0  0  0  0  0  0  0  0  0
    9.0560   -0.1430   23.0409 O   0  0  0  0  0  0  0  0  0  0  0  0
    9.4979    1.0574   20.8282 O   0  0  0  0  0  0  0  0  0  0  0  0
    7.4124   -0.5766   21.0527 C   0  0  0  0  0  0  0  0  0  0  0  0
    6.6323    0.0047   19.8816 C   0  0  0  0  0  0  0  0  0  0  0  0
    5.4151    0.6526   20.1288 C   0  0  0  0  0  0  0  0  0  0  0  0
    4.7735    1.3150   19.0747 C   0  0  0  0  0  0  0  0  0  0  0  0
    5.3699    1.2925   17.8105 C   0  0  0  0  0  0  0  0  0  0  0  0
    6.5192    0.6573   17.5368 N   0  0  0  0  0  0  0  0  0  0  0  0
    7.1251    0.0340   18.5564 C   0  0  0  0  0  0  0  0  0  0  0  0
    8.0875   -0.4271   18.3324 H   0  0  0  0  0  0  0  0  0  0  0  0
    4.9097    1.8165   16.9759 H   0  0  0  0  0  0  0  0  0  0  0  0
    3.8475    1.8620   19.2215 H   0  0  0  0  0  0  0  0  0  0  0  0
    5.0027    0.6521   21.1428 H   0  0  0  0  0  0  0  0  0  0  0  0
    6.7704   -0.8896   21.8833 H   0  0  0  0  0  0  0  0  0  0  0  0
    8.0648   -1.4134   20.7857 H   0  0  0  0  0  0  0  0  0  0  0  0
    8.0602    2.6213   21.6308 H   0  0  0  0  0  0  0  0  0  0  0  0
  1  2  2  0
  2  3  1  0
  3  4  1  0
  4  5  2  0
  5  6  1  0
  6  7  2  0
  7  8  1  0
  8  9  1  0
  8 10  2  0
 10 11  1  0
 11 12  2  0
 12 13  1  0
 13 14  1  0
 11 15  1  0
 10 16  1  0
  7 17  1  0
  5 18  1  0
  3 19  1  0
  3 20  1  0
  2 21  1  0
 21 22  1  0
 22 23  2  0
 22 24  2  0
 22 25  1  0
 25 26  1  0
 26 27  2  0
 27 28  1  0
 28 29  2  0
 29 30  1  0
 30 31  2  0
 31 32  1  0
 29 33  1  0
 28 34  1  0
 27 35  1  0
 25 36  1  0
 25 37  1  0
 21 38  1  0
 13  4  1  0
 31 26  1  0
 12  6  1  0
M  END
>  <plip>  (1) 
-0.10714285714285714

>  <filename>  (1) 
[H][c]1[n][c]([H])[c]([C]([H])([H])[S](=[O])(=[O])[N]([H])[C](=[O])[C]([H])([H])[c]2[c]([H])[c]3[c]([H])[c]([Cl])[c]([H])[c]([H])[c]3[n]2[H])[c]([H])[c]1[H]

$$$$
