
     RDKit          3D

 41 45  0  0  0  0  0  0  0  0999 V2000
    4.8005    1.2924   19.0858 C   0  0  0  0  0  0  0  0  0  0  0  0
    5.4162    1.2867   17.8317 C   0  0  0  0  0  0  0  0  0  0  0  0
    6.5738    0.6596   17.5718 N   0  0  0  0  0  0  0  0  0  0  0  0
    7.1768    0.0497   18.6013 C   0  0  0  0  0  0  0  0  0  0  0  0
    6.6667    0.0180   19.9146 C   0  0  0  0  0  0  0  0  0  0  0  0
    7.3894   -0.6945   21.0350 C   0  0  0  0  0  0  0  0  0  0  0  0
    7.0221   -2.1394   21.2583 C   0  0  0  0  0  0  0  0  0  0  0  0
    7.8484   -3.1296   21.0443 N   0  0  0  0  0  0  0  0  0  0  0  0
    7.1337   -4.2455   21.4255 O   0  0  0  0  0  0  0  0  0  0  0  0
    5.9403   -3.8134   21.8719 C   0  0  0  0  0  0  0  0  0  0  0  0
    5.0912   -4.9222   22.4544 C   0  0  2  0  0  0  0  0  0  0  0  0
    3.8927   -4.4563   23.0321 O   0  0  0  0  0  0  0  0  0  0  0  0
    3.4767   -5.3444   24.0620 C   0  0  0  0  0  0  0  0  0  0  0  0
    4.7216   -6.1052   24.5585 C   0  0  2  0  0  0  0  0  0  0  0  0
    5.2496   -5.7141   25.9607 C   0  0  0  0  0  0  0  0  0  0  0  0
    6.7617   -5.4955   25.8009 C   0  0  0  0  0  0  0  0  0  0  0  0
    6.9095   -4.9787   24.3727 C   0  0  0  0  0  0  0  0  0  0  0  0
    5.8343   -5.7339   23.5560 C   0  0  2  0  0  0  0  0  0  0  0  0
    6.2905   -6.6104   23.0879 H   0  0  0  0  0  0  0  0  0  0  0  0
    6.6904   -3.9032   24.3426 H   0  0  0  0  0  0  0  0  0  0  0  0
    7.9099   -5.1159   23.9508 H   0  0  0  0  0  0  0  0  0  0  0  0
    7.1580   -4.7879   26.5393 H   0  0  0  0  0  0  0  0  0  0  0  0
    7.3145   -6.4342   25.9321 H   0  0  0  0  0  0  0  0  0  0  0  0
    4.7858   -4.7750   26.2837 H   0  0  0  0  0  0  0  0  0  0  0  0
    5.0198   -6.4697   26.7182 H   0  0  0  0  0  0  0  0  0  0  0  0
    4.5106   -7.1771   24.5305 H   0  0  0  0  0  0  0  0  0  0  0  0
    3.0201   -4.7269   24.8431 H   0  0  0  0  0  0  0  0  0  0  0  0
    2.7032   -6.0323   23.6828 H   0  0  0  0  0  0  0  0  0  0  0  0
    4.8609   -5.5901   21.6115 H   0  0  0  0  0  0  0  0  0  0  0  0
    5.7942   -2.5277   21.7454 N   0  0  0  0  0  0  0  0  0  0  0  0
    7.7621    0.1059   22.2838 C   0  0  0  0  0  0  0  0  0  0  0  0
    8.8205   -0.3029   21.3065 C   0  0  0  0  0  0  0  0  0  0  0  0
    9.2468    0.4608   20.6589 H   0  0  0  0  0  0  0  0  0  0  0  0
    9.5000   -1.1071   21.5804 H   0  0  0  0  0  0  0  0  0  0  0  0
    7.7021   -0.4006   23.2461 H   0  0  0  0  0  0  0  0  0  0  0  0
    7.4730    1.1562   22.3306 H   0  0  0  0  0  0  0  0  0  0  0  0
    5.4313    0.6378   20.1455 C   0  0  0  0  0  0  0  0  0  0  0  0
    4.9920    0.6104   21.1450 H   0  0  0  0  0  0  0  0  0  0  0  0
    8.1178   -0.4535   18.3704 H   0  0  0  0  0  0  0  0  0  0  0  0
    4.9615    1.8072   16.9941 H   0  0  0  0  0  0  0  0  0  0  0  0
    3.8661    1.8224   19.2238 H   0  0  0  0  0  0  0  0  0  0  0  0
  1  2  2  0
  2  3  1  0
  3  4  2  0
  4  5  1  0
  5  6  1  0
  6  7  1  0
  7  8  2  0
  8  9  1  0
  9 10  1  0
 10 11  1  0
 11 12  1  0
 12 13  1  0
 13 14  1  0
 14 15  1  0
 15 16  1  0
 16 17  1  0
 17 18  1  0
 18 19  1  6
 17 20  1  0
 17 21  1  0
 16 22  1  0
 16 23  1  0
 15 24  1  0
 15 25  1  0
 14 26  1  1
 13 27  1  0
 13 28  1  0
 11 29  1  6
 10 30  2  0
  6 31  1  0
 31 32  1  0
 32 33  1  0
 32 34  1  0
 31 35  1  0
 31 36  1  0
  5 37  2  0
 37 38  1  0
  4 39  1  0
  2 40  1  0
  1 41  1  0
 37  1  1  0
 32  6  1  0
 30  7  1  0
 18 11  1  0
 18 14  1  0
M  END
>  <plip>  (1) 
-0.06896551724137931

>  <filename>  (1) 
[H][c]1[n][c]([H])[c]([C]2([c]3[n][o][c]([C@]4([H])[O][C]([H])([H])[C@]5([H])[C]([H])([H])[C]([H])([H])[C]([H])([H])[C@@]54[H])[n]3)[C]([H])([H])[C]2([H])[H])[c]([H])[c]1[H]

$$$$
