
     RDKit          3D

 36 37  0  0  0  0  0  0  0  0999 V2000
   10.0427   -1.1306   22.8755 H   0  0  0  0  0  0  0  0  0  0  0  0
    9.0969   -1.1940   22.3532 C   0  0  0  0  0  0  0  0  0  0  0  0
    7.9626   -1.8360   22.7525 C   0  0  0  0  0  0  0  0  0  0  0  0
    7.7264   -2.7614   23.8730 C   0  0  0  0  0  0  0  0  0  0  0  0
    6.9513   -3.7002   23.8113 O   0  0  0  0  0  0  0  0  0  0  0  0
    8.5450   -2.5753   24.9819 N   0  0  0  0  0  0  0  0  0  0  0  0
    8.9702   -1.2716   25.4818 C   0  0  0  0  0  0  0  0  0  0  0  0
   10.0694   -1.2132   25.5055 H   0  0  0  0  0  0  0  0  0  0  0  0
    8.6264   -0.4956   24.7846 H   0  0  0  0  0  0  0  0  0  0  0  0
    8.4571   -0.9951   26.8911 C   0  0  0  0  0  0  0  0  0  0  0  0
    7.3682   -0.9077   26.9272 H   0  0  0  0  0  0  0  0  0  0  0  0
    8.7551   -1.7980   27.5683 H   0  0  0  0  0  0  0  0  0  0  0  0
    8.8763   -0.0737   27.3049 H   0  0  0  0  0  0  0  0  0  0  0  0
    9.0064   -3.7871   25.6757 C   0  0  0  0  0  0  0  0  0  0  0  0
    8.1474   -4.3013   26.1329 H   0  0  0  0  0  0  0  0  0  0  0  0
    9.6637   -3.4805   26.5008 H   0  0  0  0  0  0  0  0  0  0  0  0
    9.7606   -4.7306   24.7333 C   0  0  0  0  0  0  0  0  0  0  0  0
    9.1160   -5.0035   23.8907 H   0  0  0  0  0  0  0  0  0  0  0  0
   10.0474   -5.6526   25.2536 H   0  0  0  0  0  0  0  0  0  0  0  0
   10.6596   -4.2386   24.3393 H   0  0  0  0  0  0  0  0  0  0  0  0
    6.9199   -1.6992   21.7410 C   0  0  0  0  0  0  0  0  0  0  0  0
    5.8147   -2.1793   21.6809 O   0  0  0  0  0  0  0  0  0  0  0  0
    7.4967   -0.8564   20.7580 N   0  0  0  0  0  0  0  0  0  0  0  0
    6.7687   -0.1267   19.7825 C   0  0  0  0  0  0  0  0  0  0  0  0
    7.2724    0.0460   18.4720 C   0  0  0  0  0  0  0  0  0  0  0  0
    8.2347   -0.3903   18.2172 H   0  0  0  0  0  0  0  0  0  0  0  0
    6.6455    0.7234   17.5047 N   0  0  0  0  0  0  0  0  0  0  0  0
    5.4778    1.3053   17.8234 C   0  0  0  0  0  0  0  0  0  0  0  0
    4.9751    1.8432   17.0231 H   0  0  0  0  0  0  0  0  0  0  0  0
    4.9028    1.2204   19.0984 C   0  0  0  0  0  0  0  0  0  0  0  0
    3.9634    1.7227   19.2969 H   0  0  0  0  0  0  0  0  0  0  0  0
    5.5492    0.4904   20.1000 C   0  0  0  0  0  0  0  0  0  0  0  0
    5.1423    0.3960   21.1072 H   0  0  0  0  0  0  0  0  0  0  0  0
    8.9063   -0.5880   21.0178 C   0  0  0  0  0  0  0  0  0  0  0  0
    9.1267    0.4895   21.0337 H   0  0  0  0  0  0  0  0  0  0  0  0
    9.5643   -1.0360   20.2474 H   0  0  0  0  0  0  0  0  0  0  0  0
  1  2  1  0
  2  3  2  0
  3  4  1  0
  4  5  2  0
  4  6  1  0
  6  7  1  0
  7  8  1  0
  7  9  1  0
  7 10  1  0
 10 11  1  0
 10 12  1  0
 10 13  1  0
  6 14  1  0
 14 15  1  0
 14 16  1  0
 14 17  1  0
 17 18  1  0
 17 19  1  0
 17 20  1  0
  3 21  1  0
 21 22  2  0
 21 23  1  0
 23 24  1  0
 24 25  2  0
 25 26  1  0
 25 27  1  0
 27 28  2  0
 28 29  1  0
 28 30  1  0
 30 31  1  0
 30 32  2  0
 32 33  1  0
 23 34  1  0
 34 35  1  0
 34 36  1  0
 34  2  1  0
 32 24  1  0
M  END
>  <plip>  (1) 
-0.07142857142857142

>  <filename>  (1) 
[H][C]1=[C]([C](=[O])[N]([C]([H])([H])[C]([H])([H])[H])[C]([H])([H])[C]([H])([H])[H])[C](=[O])[N]([c]2[c]([H])[n][c]([H])[c]([H])[c]2[H])[C]1([H])[H]

$$$$
