
     RDKit          3D

 28 30  0  0  0  0  0  0  0  0999 V2000
    8.6806   -0.7524   20.7986 O   0  0  0  0  0  0  0  0  0  0  0  0
    7.4816   -0.6105   20.9610 C   0  0  0  0  0  0  0  0  0  0  0  0
    6.8220   -0.9797   22.0929 N   0  0  0  0  0  0  0  0  0  0  0  0
    7.3763   -1.4076   23.3069 C   0  0  0  0  0  0  0  0  0  0  0  0
    8.5465   -0.8100   23.8242 C   0  0  0  0  0  0  0  0  0  0  0  0
    9.0432   -1.2021   25.0638 C   0  0  0  0  0  0  0  0  0  0  0  0
    8.4034   -2.2500   25.7249 C   0  0  0  0  0  0  0  0  0  0  0  0
    8.7441   -2.9229   26.8951 N   0  0  0  0  0  0  0  0  0  0  0  0
    7.8372   -3.8263   26.9924 C   0  0  0  0  0  0  0  0  0  0  0  0
    7.6957   -5.0815   28.2055 S   0  0  0  0  0  0  0  0  0  0  0  0
    8.9882   -5.4151   28.0906 H   0  0  0  0  0  0  0  0  0  0  0  0
    6.8707   -3.8380   26.0309 O   0  0  0  0  0  0  0  0  0  0  0  0
    7.2524   -2.8329   25.1816 C   0  0  0  0  0  0  0  0  0  0  0  0
    6.6945   -2.4182   23.9868 C   0  0  0  0  0  0  0  0  0  0  0  0
    5.7969   -2.8519   23.5693 H   0  0  0  0  0  0  0  0  0  0  0  0
    9.9043   -0.7513   25.5459 H   0  0  0  0  0  0  0  0  0  0  0  0
    9.0395   -0.0605   23.2233 H   0  0  0  0  0  0  0  0  0  0  0  0
    5.8244   -1.0282   22.0111 H   0  0  0  0  0  0  0  0  0  0  0  0
    6.6059   -0.0087   19.9152 C   0  0  0  0  0  0  0  0  0  0  0  0
    5.3749    0.6345   20.1339 C   0  0  0  0  0  0  0  0  0  0  0  0
    4.7776    1.2919   19.0623 C   0  0  0  0  0  0  0  0  0  0  0  0
    5.4152    1.2640   17.8160 C   0  0  0  0  0  0  0  0  0  0  0  0
    6.5584    0.6053   17.5859 N   0  0  0  0  0  0  0  0  0  0  0  0
    7.1360   -0.0079   18.6202 C   0  0  0  0  0  0  0  0  0  0  0  0
    8.0705   -0.5263   18.4142 H   0  0  0  0  0  0  0  0  0  0  0  0
    4.9828    1.7715   16.9583 H   0  0  0  0  0  0  0  0  0  0  0  0
    3.8437    1.8309   19.1715 H   0  0  0  0  0  0  0  0  0  0  0  0
    4.8895    0.6598   21.1143 H   0  0  0  0  0  0  0  0  0  0  0  0
  1  2  2  0
  2  3  1  0
  3  4  1  0
  4  5  2  0
  5  6  1  0
  6  7  2  0
  7  8  1  0
  8  9  2  0
  9 10  1  0
 10 11  1  0
  9 12  1  0
 12 13  1  0
 13 14  2  0
 14 15  1  0
  6 16  1  0
  5 17  1  0
  3 18  1  0
  2 19  1  0
 19 20  2  0
 20 21  1  0
 21 22  2  0
 22 23  1  0
 23 24  2  0
 24 25  1  0
 22 26  1  0
 21 27  1  0
 20 28  1  0
 14  4  1  0
 24 19  1  0
 13  7  1  0
M  END
>  <plip>  (1) 
-0.07142857142857142

>  <filename>  (1) 
[H][S][c]1[n][c]2[c]([H])[c]([H])[c]([N]([H])[C](=[O])[c]3[c]([H])[n][c]([H])[c]([H])[c]3[H])[c]([H])[c]2[o]1

$$$$
