
     RDKit          3D

 32 35  0  0  0  0  0  0  0  0999 V2000
    4.9049    1.8246   16.9512 H   0  0  0  0  0  0  0  0  0  0  0  0
    5.3763    1.3180   17.7946 C   0  0  0  0  0  0  0  0  0  0  0  0
    6.5369    0.6985   17.5294 N   0  0  0  0  0  0  0  0  0  0  0  0
    7.1629    0.0890   18.5418 C   0  0  0  0  0  0  0  0  0  0  0  0
    8.0955   -0.4030   18.2744 H   0  0  0  0  0  0  0  0  0  0  0  0
    6.6839    0.0420   19.8632 C   0  0  0  0  0  0  0  0  0  0  0  0
    7.3892   -0.6814   20.9412 C   0  0  0  0  0  0  0  0  0  0  0  0
    6.8768   -1.2719   22.0719 C   0  0  0  0  0  0  0  0  0  0  0  0
    5.8444   -1.3772   22.3369 H   0  0  0  0  0  0  0  0  0  0  0  0
    7.9621   -1.8418   22.7654 C   0  0  0  0  0  0  0  0  0  0  0  0
    7.9197   -2.5756   24.0310 C   0  0  0  0  0  0  0  0  0  0  0  0
    8.8132   -3.5391   24.4196 C   0  0  0  0  0  0  0  0  0  0  0  0
    9.7107   -3.8750   23.9021 H   0  0  0  0  0  0  0  0  0  0  0  0
    8.4235   -4.0685   25.6223 N   0  0  0  0  0  0  0  0  0  0  0  0
    8.9280   -4.7631   26.1444 H   0  0  0  0  0  0  0  0  0  0  0  0
    7.2758   -3.4427   26.0604 C   0  0  0  0  0  0  0  0  0  0  0  0
    6.5266   -3.6268   27.2384 C   0  0  0  0  0  0  0  0  0  0  0  0
    6.8229   -4.3577   27.9835 H   0  0  0  0  0  0  0  0  0  0  0  0
    5.3985   -2.8339   27.4320 C   0  0  0  0  0  0  0  0  0  0  0  0
    4.8063   -2.9443   28.3379 H   0  0  0  0  0  0  0  0  0  0  0  0
    5.0216   -1.8680   26.4687 C   0  0  0  0  0  0  0  0  0  0  0  0
    4.1395   -1.2558   26.6377 H   0  0  0  0  0  0  0  0  0  0  0  0
    5.7746   -1.6812   25.3148 C   0  0  0  0  0  0  0  0  0  0  0  0
    5.5041   -0.9024   24.6088 H   0  0  0  0  0  0  0  0  0  0  0  0
    6.9177   -2.4852   25.0852 C   0  0  0  0  0  0  0  0  0  0  0  0
    9.0921   -1.6508   22.0769 N   0  0  0  0  0  0  0  0  0  0  0  0
    8.7252   -0.9494   20.9921 N   0  0  0  0  0  0  0  0  0  0  0  0
    9.4391   -0.6471   20.3453 H   0  0  0  0  0  0  0  0  0  0  0  0
    5.4526    0.6754   20.1132 C   0  0  0  0  0  0  0  0  0  0  0  0
    5.0332    0.6511   21.1205 H   0  0  0  0  0  0  0  0  0  0  0  0
    4.7945    1.3283   19.0681 C   0  0  0  0  0  0  0  0  0  0  0  0
    3.8568    1.8524   19.2200 H   0  0  0  0  0  0  0  0  0  0  0  0
  1  2  1  0
  2  3  2  0
  3  4  1  0
  4  5  1  0
  4  6  2  0
  6  7  1  0
  7  8  2  0
  8  9  1  0
  8 10  1  0
 10 11  1  0
 11 12  2  0
 12 13  1  0
 12 14  1  0
 14 15  1  0
 14 16  1  0
 16 17  2  0
 17 18  1  0
 17 19  1  0
 19 20  1  0
 19 21  2  0
 21 22  1  0
 21 23  1  0
 23 24  1  0
 23 25  2  0
 10 26  2  0
 26 27  1  0
 27 28  1  0
  6 29  1  0
 29 30  1  0
 29 31  2  0
 31 32  1  0
 31  2  1  0
 27  7  1  0
 25 11  1  0
 25 16  1  0
M  END
>  <plip>  (1) 
-0.034482758620689655

>  <filename>  (1) 
[H][c]1[n][c]([H])[c](-[c]2[c]([H])[c](-[c]3[c]([H])[n]([H])[c]4[c]([H])[c]([H])[c]([H])[c]([H])[c]34)[n][n]2[H])[c]([H])[c]1[H]

$$$$
