
     RDKit          3D

 28 29  0  0  0  0  0  0  0  0999 V2000
    4.8672    1.6905   17.0348 H   0  0  0  0  0  0  0  0  0  0  0  0
    5.4134    1.2261   17.8544 C   0  0  0  0  0  0  0  0  0  0  0  0
    6.5979    0.6647   17.5508 N   0  0  0  0  0  0  0  0  0  0  0  0
    7.2890    0.0852   18.5418 C   0  0  0  0  0  0  0  0  0  0  0  0
    8.2390   -0.3606   18.2436 H   0  0  0  0  0  0  0  0  0  0  0  0
    6.8464    0.0265   19.8996 C   0  0  0  0  0  0  0  0  0  0  0  0
    7.5463   -0.6463   20.9334 N   0  0  0  0  0  0  0  0  0  0  0  0
    8.4401   -1.0996   20.8116 H   0  0  0  0  0  0  0  0  0  0  0  0
    7.5937   -0.5424   22.5921 S   0  0  0  0  0  0  0  0  0  0  0  0
    8.9947   -0.8979   22.7563 O   0  0  0  0  0  0  0  0  0  0  0  0
    6.5350   -1.3268   23.1866 O   0  0  0  0  0  0  0  0  0  0  0  0
    7.3256    1.1693   22.9710 C   0  0  0  0  0  0  0  0  0  0  0  0
    8.1483    2.1597   22.4092 C   0  0  0  0  0  0  0  0  0  0  0  0
    8.9394    1.9418   21.6922 H   0  0  0  0  0  0  0  0  0  0  0  0
    7.9547    3.4898   22.7960 C   0  0  0  0  0  0  0  0  0  0  0  0
    8.5830    4.2704   22.3807 H   0  0  0  0  0  0  0  0  0  0  0  0
    6.9744    3.8410   23.7226 C   0  0  0  0  0  0  0  0  0  0  0  0
    6.8234    4.8706   24.0351 H   0  0  0  0  0  0  0  0  0  0  0  0
    6.1476    2.8358   24.2348 C   0  0  0  0  0  0  0  0  0  0  0  0
    5.0844    3.2036   25.2067 N   0  0  0  0  0  4  0  0  0  0  0  0
    4.3240    2.3299   25.5897 O   0  0  0  0  0  0  0  0  0  0  0  0
    5.0230    4.3641   25.5742 O   0  0  0  0  0  1  0  0  0  0  0  0
    6.2934    1.5005   23.8585 C   0  0  0  0  0  0  0  0  0  0  0  0
    5.6117    0.7595   24.2732 H   0  0  0  0  0  0  0  0  0  0  0  0
    5.6136    0.6212   20.1839 C   0  0  0  0  0  0  0  0  0  0  0  0
    5.2422    0.5888   21.2066 H   0  0  0  0  0  0  0  0  0  0  0  0
    4.8847    1.2213   19.1493 C   0  0  0  0  0  0  0  0  0  0  0  0
    3.9230    1.6868   19.3424 H   0  0  0  0  0  0  0  0  0  0  0  0
  1  2  1  0
  2  3  2  0
  3  4  1  0
  4  5  1  0
  4  6  2  0
  6  7  1  0
  7  8  1  0
  7  9  1  0
  9 10  2  0
  9 11  2  0
  9 12  1  0
 12 13  2  0
 13 14  1  0
 13 15  1  0
 15 16  1  0
 15 17  2  0
 17 18  1  0
 17 19  1  0
 19 20  1  0
 20 21  2  0
 20 22  1  0
 19 23  2  0
 23 24  1  0
  6 25  1  0
 25 26  1  0
 25 27  2  0
 27 28  1  0
 27  2  1  0
 23 12  1  0
M  CHG  2  20   1  22  -1
M  END
>  <plip>  (1) 
-0.0

>  <filename>  (1) 
[H][c]1[n][c]([H])[c]([N]([H])[S](=[O])(=[O])[c]2[c]([H])[c]([H])[c]([H])[c]([N+](=[O])[O-])[c]2[H])[c]([H])[c]1[H]

$$$$
