
     RDKit          3D

 31 33  0  0  0  0  0  0  0  0999 V2000
    5.0427    1.7659   16.9426 H   0  0  0  0  0  0  0  0  0  0  0  0
    5.5200    1.3154   17.8149 C   0  0  0  0  0  0  0  0  0  0  0  0
    6.7404    0.7917   17.6241 N   0  0  0  0  0  0  0  0  0  0  0  0
    7.3563    0.2322   18.6795 C   0  0  0  0  0  0  0  0  0  0  0  0
    8.3470   -0.1647   18.4769 H   0  0  0  0  0  0  0  0  0  0  0  0
    6.7810    0.1249   19.9598 C   0  0  0  0  0  0  0  0  0  0  0  0
    7.3864   -0.6439   21.1320 C   0  0  1  0  0  0  0  0  0  0  0  0
    6.7799   -0.4269   22.0293 H   0  0  0  0  0  0  0  0  0  0  0  0
    7.3815   -2.1918   21.0251 C   0  0  0  0  0  0  0  0  0  0  0  0
    6.4564   -2.9435   20.8549 O   0  0  0  0  0  0  0  0  0  0  0  0
    8.6666   -2.5993   21.2367 N   0  0  0  0  0  0  0  0  0  0  0  0
    8.9654   -3.5348   21.0617 H   0  0  0  0  0  0  0  0  0  0  0  0
    9.5706   -1.5642   21.3036 C   0  0  0  0  0  0  0  0  0  0  0  0
   10.7664   -1.6919   21.2937 O   0  0  0  0  0  0  0  0  0  0  0  0
    8.8228   -0.4070   21.4490 N   0  0  0  0  0  0  0  0  0  0  0  0
    9.4219    0.7885   21.1042 O   0  0  0  0  0  0  0  0  0  0  0  0
   10.4960    1.2634   21.8851 C   0  0  0  0  0  0  0  0  0  0  0  0
   11.1067    2.3644   21.2779 C   0  0  0  0  0  0  0  0  0  0  0  0
   10.7032    2.7609   20.3591 H   0  0  0  0  0  0  0  0  0  0  0  0
   12.2054    2.9828   21.8607 C   0  0  0  0  0  0  0  0  0  0  0  0
   12.7086    3.8220   21.3988 H   0  0  0  0  0  0  0  0  0  0  0  0
   12.6782    2.5146   23.0784 C   0  0  0  0  0  0  0  0  0  0  0  0
   13.7269    3.1461   23.6239 F   0  0  0  0  0  0  0  0  0  0  0  0
   12.0850    1.4305   23.7154 C   0  0  0  0  0  0  0  0  0  0  0  0
   12.5171    1.0909   24.6506 H   0  0  0  0  0  0  0  0  0  0  0  0
   10.9717    0.7980   23.1248 C   0  0  0  0  0  0  0  0  0  0  0  0
   10.5068   -0.0506   23.6225 H   0  0  0  0  0  0  0  0  0  0  0  0
    5.5164    0.7094   20.1355 C   0  0  0  0  0  0  0  0  0  0  0  0
    5.0499    0.7130   21.1226 H   0  0  0  0  0  0  0  0  0  0  0  0
    4.8686    1.3092   19.0522 C   0  0  0  0  0  0  0  0  0  0  0  0
    3.8911    1.7761   19.1541 H   0  0  0  0  0  0  0  0  0  0  0  0
  1  2  1  0
  2  3  2  0
  3  4  1  0
  4  5  1  0
  4  6  2  0
  6  7  1  0
  7  8  1  1
  7  9  1  0
  9 10  2  0
  9 11  1  0
 11 12  1  0
 11 13  1  0
 13 14  2  0
 13 15  1  0
 15 16  1  0
 16 17  1  0
 17 18  2  0
 18 19  1  0
 18 20  1  0
 20 21  1  0
 20 22  2  0
 22 23  1  0
 22 24  1  0
 24 25  1  0
 24 26  2  0
 26 27  1  0
  6 28  1  0
 28 29  1  0
 28 30  2  0
 30 31  1  0
 30  2  1  0
 15  7  1  0
 26 17  1  0
M  END
>  <plip>  (1) 
-0.16666666666666666

>  <filename>  (1) 
[H][c]1[n][c]([H])[c]([C@@]2([H])[C](=[O])[N]([H])[C](=[O])[N]2[O][c]2[c]([H])[c]([H])[c]([F])[c]([H])[c]2[H])[c]([H])[c]1[H]

$$$$
