
     RDKit          3D

 42 44  0  0  0  0  0  0  0  0999 V2000
    6.1341   -2.6002   21.0695 H   0  0  0  0  0  0  0  0  0  0  0  0
    6.6159   -1.8267   21.6566 C   0  0  0  0  0  0  0  0  0  0  0  0
    6.4715   -1.6480   22.9795 C   0  0  0  0  0  0  0  0  0  0  0  0
    5.8416   -2.5010   23.8719 N   0  0  0  0  0  0  0  0  0  0  0  0
    5.3613   -2.0352   25.1801 C   0  0  0  0  0  0  0  0  0  0  0  0
    4.9797   -1.0068   25.1092 H   0  0  0  0  0  0  0  0  0  0  0  0
    6.1760   -2.0005   25.9227 H   0  0  0  0  0  0  0  0  0  0  0  0
    4.2438   -3.0172   25.5753 C   0  0  0  0  0  0  0  0  0  0  0  0
    4.3303   -3.3265   26.6235 H   0  0  0  0  0  0  0  0  0  0  0  0
    3.2526   -2.5619   25.4456 H   0  0  0  0  0  0  0  0  0  0  0  0
    4.3758   -4.2216   24.6237 C   0  0  1  0  0  0  0  0  0  0  0  0
    5.1385   -4.9097   25.0426 H   0  0  0  0  0  0  0  0  0  0  0  0
    3.1064   -4.9438   24.4146 N   0  0  0  0  0  0  0  0  0  0  0  0
    2.5489   -5.4456   25.6722 C   0  0  0  0  0  0  0  0  0  0  0  0
    2.2871   -4.6209   26.3439 H   0  0  0  0  0  0  0  0  0  0  0  0
    1.6259   -6.0008   25.4708 H   0  0  0  0  0  0  0  0  0  0  0  0
    3.2402   -6.1219   26.2117 H   0  0  0  0  0  0  0  0  0  0  0  0
    3.2512   -6.0346   23.4533 C   0  0  0  0  0  0  0  0  0  0  0  0
    3.5389   -5.6458   22.4704 H   0  0  0  0  0  0  0  0  0  0  0  0
    4.0054   -6.7825   23.7664 H   0  0  0  0  0  0  0  0  0  0  0  0
    2.2924   -6.5508   23.3298 H   0  0  0  0  0  0  0  0  0  0  0  0
    5.0019   -3.5922   23.3599 C   0  0  0  0  0  0  0  0  0  0  0  0
    5.5971   -4.3303   22.8006 H   0  0  0  0  0  0  0  0  0  0  0  0
    4.2121   -3.2164   22.6884 H   0  0  0  0  0  0  0  0  0  0  0  0
    7.0601   -0.3269   23.4301 C   0  0  0  0  0  0  0  0  0  0  0  0
    6.2589    0.3661   23.7240 H   0  0  0  0  0  0  0  0  0  0  0  0
    7.6831   -0.4374   24.3266 H   0  0  0  0  0  0  0  0  0  0  0  0
    7.8258    0.1883   22.1815 C   0  0  0  0  0  0  0  0  0  0  0  0
    8.9070    0.1395   22.3459 H   0  0  0  0  0  0  0  0  0  0  0  0
    7.5997    1.2339   21.9402 H   0  0  0  0  0  0  0  0  0  0  0  0
    7.4125   -0.7407   20.9933 C   0  0  2  0  0  0  0  0  0  0  0  0
    8.3051   -1.1753   20.5131 H   0  0  0  0  0  0  0  0  0  0  0  0
    6.6541   -0.0184   19.8747 C   0  0  0  0  0  0  0  0  0  0  0  0
    7.1572    0.0515   18.5628 C   0  0  0  0  0  0  0  0  0  0  0  0
    8.1111   -0.4152   18.3169 H   0  0  0  0  0  0  0  0  0  0  0  0
    6.5537    0.6816   17.5451 N   0  0  0  0  0  0  0  0  0  0  0  0
    5.3950    1.3049   17.8086 C   0  0  0  0  0  0  0  0  0  0  0  0
    4.9243    1.8162   16.9694 H   0  0  0  0  0  0  0  0  0  0  0  0
    4.8024    1.3159   19.0768 C   0  0  0  0  0  0  0  0  0  0  0  0
    3.8712    1.8512   19.2335 H   0  0  0  0  0  0  0  0  0  0  0  0
    5.4445    0.6480   20.1205 C   0  0  0  0  0  0  0  0  0  0  0  0
    5.0181    0.6408   21.1260 H   0  0  0  0  0  0  0  0  0  0  0  0
  1  2  1  0
  2  3  2  0
  3  4  1  0
  4  5  1  0
  5  6  1  0
  5  7  1  0
  5  8  1  0
  8  9  1  0
  8 10  1  0
  8 11  1  0
 11 12  1  1
 11 13  1  0
 13 14  1  0
 14 15  1  0
 14 16  1  0
 14 17  1  0
 13 18  1  0
 18 19  1  0
 18 20  1  0
 18 21  1  0
 11 22  1  0
 22 23  1  0
 22 24  1  0
  3 25  1  0
 25 26  1  0
 25 27  1  0
 25 28  1  0
 28 29  1  0
 28 30  1  0
 28 31  1  0
 31 32  1  6
 31 33  1  0
 33 34  2  0
 34 35  1  0
 34 36  1  0
 36 37  2  0
 37 38  1  0
 37 39  1  0
 39 40  1  0
 39 41  2  0
 41 42  1  0
 31  2  1  0
 41 33  1  0
 22  4  1  0
M  END
>  <plip>  (1) 
-0.03571428571428571

>  <filename>  (1) 
[H][C]1=[C]([N]2[C]([H])([H])[C]([H])([H])[C@@]([H])([N]([C]([H])([H])[H])[C]([H])([H])[H])[C]2([H])[H])[C]([H])([H])[C]([H])([H])[C@]1([H])[c]1[c]([H])[n][c]([H])[c]([H])[c]1[H]

$$$$
