
     RDKit          3D

 26 27  0  0  0  0  0  0  0  0999 V2000
    6.7278    0.5840   25.3250 H   0  0  0  0  0  0  0  0  0  0  0  0
    6.9994    0.6215   24.2756 C   0  0  0  0  0  0  0  0  0  0  0  0
    7.5623    1.7143   23.6907 N   0  0  0  0  0  0  0  0  0  0  0  0
    7.7236    1.3190   22.4461 C   0  0  0  0  0  0  0  0  0  0  0  0
    8.1541    1.9099   21.6498 H   0  0  0  0  0  0  0  0  0  0  0  0
    7.2754    0.0537   22.2798 N   0  0  0  0  0  0  0  0  0  0  0  0
    7.3417   -0.7763   21.0284 C   0  0  0  0  0  0  0  0  0  0  0  0
    6.6688    0.0136   19.9086 C   0  0  0  0  0  0  0  0  0  0  0  0
    7.1781    0.0595   18.6069 C   0  0  0  0  0  0  0  0  0  0  0  0
    8.1289   -0.4337   18.3784 H   0  0  0  0  0  0  0  0  0  0  0  0
    6.5679    0.6822   17.5839 N   0  0  0  0  0  0  0  0  0  0  0  0
    5.4021    1.2896   17.8457 C   0  0  0  0  0  0  0  0  0  0  0  0
    4.9052    1.7704   17.0076 H   0  0  0  0  0  0  0  0  0  0  0  0
    4.8034    1.3132   19.1110 C   0  0  0  0  0  0  0  0  0  0  0  0
    3.8712    1.8458   19.2683 H   0  0  0  0  0  0  0  0  0  0  0  0
    5.4413    0.6506   20.1524 C   0  0  0  0  0  0  0  0  0  0  0  0
    5.0154    0.6296   21.1560 H   0  0  0  0  0  0  0  0  0  0  0  0
    6.5736   -2.0958   21.2085 C   0  0  0  0  0  0  0  0  0  0  0  0
    6.5930   -2.6656   20.2748 H   0  0  0  0  0  0  0  0  0  0  0  0
    5.5304   -1.9072   21.4785 H   0  0  0  0  0  0  0  0  0  0  0  0
    7.0362   -2.6907   21.9969 H   0  0  0  0  0  0  0  0  0  0  0  0
    8.8290   -1.0765   20.7644 C   0  0  0  0  0  0  0  0  0  0  0  0
    8.9413   -1.8156   19.9698 H   0  0  0  0  0  0  0  0  0  0  0  0
    9.2782   -1.4928   21.6687 H   0  0  0  0  0  0  0  0  0  0  0  0
    9.3774   -0.1704   20.4893 H   0  0  0  0  0  0  0  0  0  0  0  0
    6.8126   -0.4060   23.4719 N   0  0  0  0  0  0  0  0  0  0  0  0
  1  2  1  0
  2  3  1  0
  3  4  2  0
  4  5  1  0
  4  6  1  0
  6  7  1  0
  7  8  1  0
  8  9  2  0
  9 10  1  0
  9 11  1  0
 11 12  2  0
 12 13  1  0
 12 14  1  0
 14 15  1  0
 14 16  2  0
 16 17  1  0
  7 18  1  0
 18 19  1  0
 18 20  1  0
 18 21  1  0
  7 22  1  0
 22 23  1  0
 22 24  1  0
 22 25  1  0
  6 26  1  0
 26  2  2  0
 16  8  1  0
M  END
>  <plip>  (1) 
-0.07142857142857142

>  <filename>  (1) 
[H][c]1[n][c]([H])[n]([C]([c]2[c]([H])[n][c]([H])[c]([H])[c]2[H])([C]([H])([H])[H])[C]([H])([H])[H])[n]1

$$$$
