
     RDKit          3D

 33 35  0  0  0  0  0  0  0  0999 V2000
    8.6014    1.1032   21.6525 H   0  0  0  0  0  0  0  0  0  0  0  0
    7.9278    0.3380   22.0033 C   0  0  0  0  0  0  0  0  0  0  0  0
    7.4562    0.3022   23.2692 C   0  0  0  0  0  0  0  0  0  0  0  0
    7.6626    1.4113   24.2828 C   0  0  0  0  0  0  0  0  0  0  0  0
    7.4913    1.2128   25.4725 O   0  0  0  0  0  0  0  0  0  0  0  0
    8.0802    2.7791   23.7432 C   0  0  0  0  0  0  0  0  0  0  0  0
    7.5512    3.3360   22.5608 C   0  0  0  0  0  0  0  0  0  0  0  0
    6.8693    2.7845   21.9193 H   0  0  0  0  0  0  0  0  0  0  0  0
    7.8995    4.6450   22.1990 C   0  0  0  0  0  0  0  0  0  0  0  0
    7.4561    5.0966   21.3161 H   0  0  0  0  0  0  0  0  0  0  0  0
    8.7659    5.4035   22.8858 N   0  0  0  0  0  0  0  0  0  0  0  0
    9.3145    4.8518   23.9738 C   0  0  0  0  0  0  0  0  0  0  0  0
   10.0413    5.4611   24.5113 H   0  0  0  0  0  0  0  0  0  0  0  0
    8.9957    3.5781   24.4527 C   0  0  0  0  0  0  0  0  0  0  0  0
    9.4381    3.2263   25.3774 H   0  0  0  0  0  0  0  0  0  0  0  0
    6.7429   -0.8442   23.6527 N   0  0  0  0  0  0  0  0  0  0  0  0
    6.3824   -0.9905   24.5847 H   0  0  0  0  0  0  0  0  0  0  0  0
    6.4911   -1.9137   22.8448 C   0  0  0  0  0  0  0  0  0  0  0  0
    5.7634   -3.2788   23.4368 S   0  0  0  0  0  0  0  0  0  0  0  0
    6.8712   -1.8091   21.5592 N   0  0  0  0  0  0  0  0  0  0  0  0
    6.5014   -2.5318   20.9650 H   0  0  0  0  0  0  0  0  0  0  0  0
    7.5230   -0.6489   20.9634 C   0  0  1  0  0  0  0  0  0  0  0  0
    8.4294   -1.0142   20.4539 H   0  0  0  0  0  0  0  0  0  0  0  0
    6.6677   -0.0077   19.8632 C   0  0  0  0  0  0  0  0  0  0  0  0
    7.1551    0.0299   18.5494 C   0  0  0  0  0  0  0  0  0  0  0  0
    8.0909   -0.4732   18.3078 H   0  0  0  0  0  0  0  0  0  0  0  0
    6.5613    0.6610   17.5277 N   0  0  0  0  0  0  0  0  0  0  0  0
    5.4135    1.2977   17.8018 C   0  0  0  0  0  0  0  0  0  0  0  0
    4.9496    1.8310   16.9733 H   0  0  0  0  0  0  0  0  0  0  0  0
    4.8111    1.2919   19.0660 C   0  0  0  0  0  0  0  0  0  0  0  0
    3.8775    1.8248   19.2109 H   0  0  0  0  0  0  0  0  0  0  0  0
    5.4431    0.6241   20.1201 C   0  0  0  0  0  0  0  0  0  0  0  0
    4.9920    0.5991   21.1164 H   0  0  0  0  0  0  0  0  0  0  0  0
  1  2  1  0
  2  3  2  0
  3  4  1  0
  4  5  2  0
  4  6  1  0
  6  7  2  0
  7  8  1  0
  7  9  1  0
  9 10  1  0
  9 11  2  0
 11 12  1  0
 12 13  1  0
 12 14  2  0
 14 15  1  0
  3 16  1  0
 16 17  1  0
 16 18  1  0
 18 19  2  0
 18 20  1  0
 20 21  1  0
 20 22  1  0
 22 23  1  6
 22 24  1  0
 24 25  2  0
 25 26  1  0
 25 27  1  0
 27 28  2  0
 28 29  1  0
 28 30  1  0
 30 31  1  0
 30 32  2  0
 32 33  1  0
 22  2  1  0
 32 24  1  0
 14  6  1  0
M  END
>  <plip>  (1) 
-0.07142857142857142

>  <filename>  (1) 
[H][C]1=[C]([C](=[O])[c]2[c]([H])[c]([H])[n][c]([H])[c]2[H])[N]([H])[C](=[S])[N]([H])[C@@]1([H])[c]1[c]([H])[n][c]([H])[c]([H])[c]1[H]

$$$$
