
     RDKit          3D

 31 33  0  0  0  0  0  0  0  0999 V2000
    5.9398   -1.1559   22.3892 H   0  0  0  0  0  0  0  0  0  0  0  0
    6.9563   -1.2598   22.0528 C   0  0  0  0  0  0  0  0  0  0  0  0
    7.8288   -1.9660   22.8269 N   0  0  0  0  0  0  0  0  0  0  0  0
    9.0144   -1.8910   22.3053 C   0  0  0  0  0  0  0  0  0  0  0  0
   10.1178   -2.3799   22.8566 O   0  0  0  0  0  0  0  0  0  0  0  0
    9.9545   -2.9091   24.1929 C   0  0  0  0  0  0  0  0  0  0  0  0
   10.9443   -3.3073   24.4369 H   0  0  0  0  0  0  0  0  0  0  0  0
    9.2336   -3.7330   24.1605 H   0  0  0  0  0  0  0  0  0  0  0  0
    9.5180   -1.8737   25.2074 C   0  0  0  0  0  0  0  0  0  0  0  0
    8.3545   -2.0582   25.9659 C   0  0  0  0  0  0  0  0  0  0  0  0
    7.6583   -2.8536   25.7029 H   0  0  0  0  0  0  0  0  0  0  0  0
    8.0448   -1.1780   27.0072 C   0  0  0  0  0  0  0  0  0  0  0  0
    7.1120   -1.3223   27.5489 H   0  0  0  0  0  0  0  0  0  0  0  0
    8.9081   -0.1148   27.3012 C   0  0  0  0  0  0  0  0  0  0  0  0
    8.7129    0.5408   28.1453 H   0  0  0  0  0  0  0  0  0  0  0  0
   10.0234    0.1261   26.4827 C   0  0  0  0  0  0  0  0  0  0  0  0
   10.7134    0.9520   26.6511 H   0  0  0  0  0  0  0  0  0  0  0  0
   10.2863   -0.7196   25.4068 C   0  0  0  0  0  0  0  0  0  0  0  0
   11.1198   -0.5078   24.7425 H   0  0  0  0  0  0  0  0  0  0  0  0
    9.1488   -1.0541   20.7992 S   0  0  0  0  0  0  0  0  0  0  0  0
    7.4379   -0.7028   20.9016 C   0  0  0  0  0  0  0  0  0  0  0  0
    6.7136    0.0222   19.8486 C   0  0  0  0  0  0  0  0  0  0  0  0
    7.1955    0.0733   18.5198 C   0  0  0  0  0  0  0  0  0  0  0  0
    8.1263   -0.4331   18.2769 H   0  0  0  0  0  0  0  0  0  0  0  0
    6.5728    0.6902   17.5103 N   0  0  0  0  0  0  0  0  0  0  0  0
    5.4138    1.3091   17.7904 C   0  0  0  0  0  0  0  0  0  0  0  0
    4.9322    1.8159   16.9568 H   0  0  0  0  0  0  0  0  0  0  0  0
    4.8320    1.3179   19.0631 C   0  0  0  0  0  0  0  0  0  0  0  0
    3.8898    1.8313   19.2216 H   0  0  0  0  0  0  0  0  0  0  0  0
    5.4931    0.6687   20.1092 C   0  0  0  0  0  0  0  0  0  0  0  0
    5.0840    0.6682   21.1193 H   0  0  0  0  0  0  0  0  0  0  0  0
  1  2  1  0
  2  3  1  0
  3  4  2  0
  4  5  1  0
  5  6  1  0
  6  7  1  0
  6  8  1  0
  6  9  1  0
  9 10  2  0
 10 11  1  0
 10 12  1  0
 12 13  1  0
 12 14  2  0
 14 15  1  0
 14 16  1  0
 16 17  1  0
 16 18  2  0
 18 19  1  0
  4 20  1  0
 20 21  1  0
 21 22  1  0
 22 23  2  0
 23 24  1  0
 23 25  1  0
 25 26  2  0
 26 27  1  0
 26 28  1  0
 28 29  1  0
 28 30  2  0
 30 31  1  0
 21  2  2  0
 30 22  1  0
 18  9  1  0
M  END
>  <plip>  (1) 
-0.06896551724137931

>  <filename>  (1) 
[H][c]1[n][c]([O][C]([H])([H])[c]2[c]([H])[c]([H])[c]([H])[c]([H])[c]2[H])[s][c]1-[c]1[c]([H])[n][c]([H])[c]([H])[c]1[H]

$$$$
