
     RDKit          3D

 48 50  0  0  0  0  0  0  0  0999 V2000
   10.1804    1.2957   22.5134 C   0  0  0  0  0  0  0  0  0  0  0  0
    9.3343    0.4853   21.6805 O   0  0  0  0  0  0  0  0  0  0  0  0
    8.0457    0.3252   22.0273 C   0  0  0  0  0  0  0  0  0  0  0  0
    7.5082    0.8771   22.9590 O   0  0  0  0  0  0  0  0  0  0  0  0
    7.3562   -0.7030   21.0712 C   0  0  0  0  0  0  0  0  0  0  0  0
    6.4727   -1.6211   21.7949 N   0  0  0  0  0  0  0  0  0  0  0  0
    5.9394   -2.7225   21.1887 C   0  0  0  0  0  0  0  0  0  0  0  0
    6.1101   -2.9633   20.0076 O   0  0  0  0  0  0  0  0  0  0  0  0
    5.0736   -3.6275   22.0754 C   0  0  0  0  0  0  0  0  0  0  0  0
    5.8243   -4.2145   23.1354 O   0  0  0  0  0  0  0  0  0  0  0  0
    5.1688   -4.9575   24.0770 C   0  0  0  0  0  0  0  0  0  0  0  0
    3.7962   -5.2332   24.0591 C   0  0  0  0  0  0  0  0  0  0  0  0
    3.2329   -5.9892   25.0897 C   0  0  0  0  0  0  0  0  0  0  0  0
    3.9988   -6.4609   26.1622 C   0  0  0  0  0  0  0  0  0  0  0  0
    3.3701   -7.3607   27.2181 C   0  0  0  0  0  0  0  0  0  0  0  0
    4.1639   -7.4471   28.5352 C   0  0  0  0  0  0  0  0  0  0  0  0
    5.6646   -7.6210   28.2721 C   0  0  0  0  0  0  0  0  0  0  0  0
    6.2199   -6.4675   27.4213 C   0  0  0  0  0  0  0  0  0  0  0  0
    5.3729   -6.1364   26.2000 C   0  0  0  0  0  0  0  0  0  0  0  0
    5.9514   -5.4372   25.1339 C   0  0  0  0  0  0  0  0  0  0  0  0
    7.0207   -5.2547   25.1162 H   0  0  0  0  0  0  0  0  0  0  0  0
    7.2497   -6.6737   27.1057 H   0  0  0  0  0  0  0  0  0  0  0  0
    6.2748   -5.5579   28.0395 H   0  0  0  0  0  0  0  0  0  0  0  0
    5.8169   -8.5736   27.7499 H   0  0  0  0  0  0  0  0  0  0  0  0
    6.2162   -7.6944   29.2187 H   0  0  0  0  0  0  0  0  0  0  0  0
    3.9949   -6.5391   29.1333 H   0  0  0  0  0  0  0  0  0  0  0  0
    3.7912   -8.2878   29.1337 H   0  0  0  0  0  0  0  0  0  0  0  0
    3.2742   -8.3617   26.7723 H   0  0  0  0  0  0  0  0  0  0  0  0
    2.3410   -7.0399   27.4227 H   0  0  0  0  0  0  0  0  0  0  0  0
    2.1691   -6.2168   25.0637 H   0  0  0  0  0  0  0  0  0  0  0  0
    3.1723   -4.8518   23.2595 H   0  0  0  0  0  0  0  0  0  0  0  0
    4.2465   -3.0320   22.4836 H   0  0  0  0  0  0  0  0  0  0  0  0
    4.6807   -4.4041   21.4158 H   0  0  0  0  0  0  0  0  0  0  0  0
    6.1164   -1.3391   22.6963 H   0  0  0  0  0  0  0  0  0  0  0  0
    6.6100   -0.0215   19.9288 C   0  0  0  0  0  0  0  0  0  0  0  0
    5.4066    0.6680   20.1285 C   0  0  0  0  0  0  0  0  0  0  0  0
    4.8217    1.3150   19.0387 C   0  0  0  0  0  0  0  0  0  0  0  0
    5.4599    1.2502   17.7949 C   0  0  0  0  0  0  0  0  0  0  0  0
    6.5922    0.5634   17.5759 N   0  0  0  0  0  0  0  0  0  0  0  0
    7.1301   -0.0641   18.6297 C   0  0  0  0  0  0  0  0  0  0  0  0
    8.0413   -0.6366   18.4374 H   0  0  0  0  0  0  0  0  0  0  0  0
    5.0435    1.7669   16.9331 H   0  0  0  0  0  0  0  0  0  0  0  0
    3.8959    1.8718   19.1413 H   0  0  0  0  0  0  0  0  0  0  0  0
    4.9362    0.6903   21.1149 H   0  0  0  0  0  0  0  0  0  0  0  0
    8.1772   -1.2841   20.6335 H   0  0  0  0  0  0  0  0  0  0  0  0
   10.0277    1.0899   23.5774 H   0  0  0  0  0  0  0  0  0  0  0  0
    9.9952    2.3601   22.3392 H   0  0  0  0  0  0  0  0  0  0  0  0
   11.1986    1.0362   22.2174 H   0  0  0  0  0  0  0  0  0  0  0  0
  1  2  1  0
  2  3  1  0
  3  4  2  0
  3  5  1  0
  5  6  1  0
  6  7  1  0
  7  8  2  0
  7  9  1  0
  9 10  1  0
 10 11  1  0
 11 12  2  0
 12 13  1  0
 13 14  2  0
 14 15  1  0
 15 16  1  0
 16 17  1  0
 17 18  1  0
 18 19  1  0
 19 20  2  0
 20 21  1  0
 18 22  1  0
 18 23  1  0
 17 24  1  0
 17 25  1  0
 16 26  1  0
 16 27  1  0
 15 28  1  0
 15 29  1  0
 13 30  1  0
 12 31  1  0
  9 32  1  0
  9 33  1  0
  6 34  1  0
  5 35  1  0
 35 36  2  0
 36 37  1  0
 37 38  2  0
 38 39  1  0
 39 40  2  0
 40 41  1  0
 38 42  1  0
 37 43  1  0
 36 44  1  0
  5 45  1  0
  1 46  1  0
  1 47  1  0
  1 48  1  0
 20 11  1  0
 40 35  1  0
 19 14  1  0
M  END
>  <plip>  (1) 
-0.25

>  <filename>  (1) 
[H][c]1[n][c]([H])[c]([C]([H])([C](=[O])[O][C]([H])([H])[H])[N]([H])[C](=[O])[C]([H])([H])[O][c]2[c]([H])[c]([H])[c]3[c]([c]2[H])[C]([H])([H])[C]([H])([H])[C]([H])([H])[C]3([H])[H])[c]([H])[c]1[H]

$$$$
