
     RDKit          3D

 25 25  0  0  0  0  0  0  0  0999 V2000
    6.6774   -1.0123   21.8509 H   0  0  0  0  0  0  0  0  0  0  0  0
    7.3177   -0.7024   21.0204 C   0  0  0  0  0  0  0  0  0  0  0  0
    8.6333   -0.9474   21.0987 C   0  0  0  0  0  0  0  0  0  0  0  0
    9.3251   -0.5709   20.3357 H   0  0  0  0  0  0  0  0  0  0  0  0
    9.2019   -1.6540   22.1166 N   0  0  0  0  0  0  0  0  0  0  0  0
    8.5698   -1.9395   22.8459 H   0  0  0  0  0  0  0  0  0  0  0  0
   10.6351   -1.7994   22.2599 C   0  0  0  0  0  0  0  0  0  0  0  0
   11.0417   -2.2162   21.3282 H   0  0  0  0  0  0  0  0  0  0  0  0
   10.8242   -2.5378   23.0456 H   0  0  0  0  0  0  0  0  0  0  0  0
   11.4187   -0.5039   22.5703 C   0  0  0  0  0  0  0  0  0  0  0  0
   11.0272   -0.0707   23.4961 H   0  0  0  0  0  0  0  0  0  0  0  0
   11.2167    0.2323   21.7858 H   0  0  0  0  0  0  0  0  0  0  0  0
   12.8734   -0.6627   22.6930 N   0  0  0  0  0  0  0  0  0  0  0  0
   13.2242   -1.1138   21.8511 H   0  0  0  0  0  0  0  0  0  0  0  0
   13.0500   -1.3453   23.4214 H   0  0  0  0  0  0  0  0  0  0  0  0
    6.6596   -0.0012   19.9116 C   0  0  0  0  0  0  0  0  0  0  0  0
    7.1753    0.0708   18.5955 C   0  0  0  0  0  0  0  0  0  0  0  0
    8.1157   -0.4227   18.3566 H   0  0  0  0  0  0  0  0  0  0  0  0
    6.5648    0.6823   17.5725 N   0  0  0  0  0  0  0  0  0  0  0  0
    5.3984    1.2953   17.8373 C   0  0  0  0  0  0  0  0  0  0  0  0
    4.9172    1.7841   16.9933 H   0  0  0  0  0  0  0  0  0  0  0  0
    4.8022    1.3104   19.1034 C   0  0  0  0  0  0  0  0  0  0  0  0
    3.8712    1.8453   19.2538 H   0  0  0  0  0  0  0  0  0  0  0  0
    5.4319    0.6418   20.1528 C   0  0  0  0  0  0  0  0  0  0  0  0
    5.0069    0.6296   21.1579 H   0  0  0  0  0  0  0  0  0  0  0  0
  1  2  1  0
  2  3  2  3
  3  4  1  0
  3  5  1  0
  5  6  1  0
  5  7  1  0
  7  8  1  0
  7  9  1  0
  7 10  1  0
 10 11  1  0
 10 12  1  0
 10 13  1  0
 13 14  1  0
 13 15  1  0
  2 16  1  0
 16 17  2  0
 17 18  1  0
 17 19  1  0
 19 20  2  0
 20 21  1  0
 20 22  1  0
 22 23  1  0
 22 24  2  0
 24 25  1  0
 24 16  1  0
M  END
>  <plip>  (1) 
-0.0

>  <filename>  (1) 
[H][C](=[C]([H])[N]([H])[C]([H])([H])[C]([H])([H])[N]([H])[H])[c]1[c]([H])[n][c]([H])[c]([H])[c]1[H]

$$$$
