
     RDKit          3D

 33 35  0  0  0  0  0  0  0  0999 V2000
    6.9191   -2.0838   21.4229 O   0  0  0  0  0  0  0  0  0  0  0  0
    7.5411   -0.8066   21.1523 S   0  0  0  0  0  0  0  0  0  0  0  0
    8.9446   -0.6355   20.8299 O   0  0  0  0  0  0  0  0  0  0  0  0
    7.1769   -0.0080   22.5284 N   0  0  0  0  0  0  0  0  0  0  0  0
    7.6224    1.2306   22.9448 C   0  0  0  0  0  0  0  0  0  0  0  0
    7.4864    1.8897   24.1575 C   0  0  0  0  0  0  0  0  0  0  0  0
    6.9780    1.4101   25.4540 C   0  0  0  0  0  0  0  0  0  0  0  0
    6.2165    2.2632   26.2751 C   0  0  0  0  0  0  0  0  0  0  0  0
    5.7276    1.8207   27.5055 C   0  0  0  0  0  0  0  0  0  0  0  0
    6.0102    0.5209   27.9420 C   0  0  0  0  0  0  0  0  0  0  0  0
    6.7936   -0.3253   27.1498 C   0  0  0  0  0  0  0  0  0  0  0  0
    7.2798    0.1182   25.9161 C   0  0  0  0  0  0  0  0  0  0  0  0
    7.9208   -0.5152   25.3068 H   0  0  0  0  0  0  0  0  0  0  0  0
    7.0243   -1.3311   27.4881 H   0  0  0  0  0  0  0  0  0  0  0  0
    5.6233    0.1721   28.8964 H   0  0  0  0  0  0  0  0  0  0  0  0
    5.1265    2.4852   28.1213 H   0  0  0  0  0  0  0  0  0  0  0  0
    6.0059    3.2739   25.9323 H   0  0  0  0  0  0  0  0  0  0  0  0
    8.0238    3.1731   23.8760 C   0  0  0  0  0  0  0  0  0  0  0  0
    8.4703    3.2975   22.6398 N   0  0  0  0  0  0  0  0  0  0  0  0
    8.2099    2.0875   22.0856 N   0  0  0  0  0  0  0  0  0  0  0  0
    8.4509    1.8784   21.1285 H   0  0  0  0  0  0  0  0  0  0  0  0
    8.1180    4.0145   24.5570 H   0  0  0  0  0  0  0  0  0  0  0  0
    6.6741   -0.6786   23.0821 H   0  0  0  0  0  0  0  0  0  0  0  0
    6.6339    0.0475   19.9610 C   0  0  0  0  0  0  0  0  0  0  0  0
    5.4146    0.6766   20.2197 C   0  0  0  0  0  0  0  0  0  0  0  0
    4.8147    1.3043   19.1373 C   0  0  0  0  0  0  0  0  0  0  0  0
    5.4386    1.2580   17.8867 C   0  0  0  0  0  0  0  0  0  0  0  0
    6.6011    0.6300   17.6601 N   0  0  0  0  0  0  0  0  0  0  0  0
    7.1981    0.0349   18.6902 C   0  0  0  0  0  0  0  0  0  0  0  0
    8.1480   -0.4509   18.4608 H   0  0  0  0  0  0  0  0  0  0  0  0
    4.9863    1.7444   17.0275 H   0  0  0  0  0  0  0  0  0  0  0  0
    3.8795    1.8356   19.2522 H   0  0  0  0  0  0  0  0  0  0  0  0
    4.9361    0.6921   21.2040 H   0  0  0  0  0  0  0  0  0  0  0  0
  1  2  2  0
  2  3  2  0
  2  4  1  0
  4  5  1  0
  5  6  2  0
  6  7  1  0
  7  8  2  0
  8  9  1  0
  9 10  2  0
 10 11  1  0
 11 12  2  0
 12 13  1  0
 11 14  1  0
 10 15  1  0
  9 16  1  0
  8 17  1  0
  6 18  1  0
 18 19  2  0
 19 20  1  0
 20 21  1  0
 18 22  1  0
  4 23  1  0
  2 24  1  0
 24 25  2  0
 25 26  1  0
 26 27  2  0
 27 28  1  0
 28 29  2  0
 29 30  1  0
 27 31  1  0
 26 32  1  0
 25 33  1  0
 20  5  1  0
 29 24  1  0
 12  7  1  0
M  END
>  <plip>  (1) 
-0.10714285714285714

>  <filename>  (1) 
[H][c]1[n][c]([H])[c]([S](=[O])(=[O])[N]([H])[c]2[c](-[c]3[c]([H])[c]([H])[c]([H])[c]([H])[c]3[H])[c]([H])[n][n]2[H])[c]([H])[c]1[H]

$$$$
