
     RDKit          3D

 42 45  0  0  0  0  0  0  0  0999 V2000
    5.2182    1.8310   16.9453 H   0  0  0  0  0  0  0  0  0  0  0  0
    5.5832    1.3072   17.8256 C   0  0  0  0  0  0  0  0  0  0  0  0
    6.7377    0.6427   17.6715 N   0  0  0  0  0  0  0  0  0  0  0  0
    7.2073   -0.0051   18.7413 C   0  0  0  0  0  0  0  0  0  0  0  0
    8.1474   -0.5360   18.6013 H   0  0  0  0  0  0  0  0  0  0  0  0
    6.5766   -0.0466   20.0090 C   0  0  0  0  0  0  0  0  0  0  0  0
    7.2671   -0.6968   21.1387 C   0  0  0  0  0  0  0  0  0  0  0  0
    7.0017   -1.8045   21.9821 C   0  0  0  0  0  0  0  0  0  0  0  0
    5.8225   -2.7624   22.2080 C   0  0  0  0  0  0  0  0  0  0  0  0
    5.8201   -2.5816   22.0097 O   0  0  0  0  0  0  0  0  0  0  0  0
    5.3514   -3.8772   24.4000 N   0  0  0  0  0  0  0  0  0  0  0  0
    4.0738   -4.0367   23.8449 C   0  0  0  0  0  0  0  0  0  0  0  0
    3.8696   -3.4905   22.9133 H   0  0  0  0  0  0  0  0  0  0  0  0
    3.9504   -5.0978   23.5713 H   0  0  0  0  0  0  0  0  0  0  0  0
    2.8865   -3.6829   24.8499 C   0  0  0  0  0  0  0  0  0  0  0  0
    2.1735   -3.0072   24.3342 H   0  0  0  0  0  0  0  0  0  0  0  0
    2.3332   -4.6023   25.0863 H   0  0  0  0  0  0  0  0  0  0  0  0
    3.3511   -3.0960   26.1058 N   0  0  0  0  0  0  0  0  0  0  0  0
    2.2749   -2.6546   26.9693 C   0  0  0  0  0  0  0  0  0  0  0  0
    1.6348   -3.5045   27.2305 H   0  0  0  0  0  0  0  0  0  0  0  0
    2.6895   -2.2563   27.9027 H   0  0  0  0  0  0  0  0  0  0  0  0
    1.6426   -1.8698   26.5103 H   0  0  0  0  0  0  0  0  0  0  0  0
    4.3451   -2.0636   25.8493 C   0  0  0  0  0  0  0  0  0  0  0  0
    4.7338   -1.6951   26.8106 H   0  0  0  0  0  0  0  0  0  0  0  0
    3.9028   -1.1880   25.3290 H   0  0  0  0  0  0  0  0  0  0  0  0
    5.5571   -2.6143   24.9904 C   0  0  0  0  0  0  0  0  0  0  0  0
    6.4314   -2.6895   25.6570 H   0  0  0  0  0  0  0  0  0  0  0  0
    5.8309   -1.7781   24.3266 H   0  0  0  0  0  0  0  0  0  0  0  0
    8.1471   -1.9987   22.8023 N   0  0  0  0  0  0  0  0  0  0  0  0
    8.9944   -1.1102   22.4148 C   0  0  0  0  0  0  0  0  0  0  0  0
    8.5304   -0.2872   21.4559 N   0  0  0  0  0  0  0  0  0  0  0  0
    9.5017    0.5511   20.7910 C   0  0  0  0  0  0  0  0  0  0  0  0
    9.8619    0.0253   19.9030 H   0  0  0  0  0  0  0  0  0  0  0  0
    9.0340    1.4893   20.4919 H   0  0  0  0  0  0  0  0  0  0  0  0
   10.6133    0.7492   21.8274 C   0  0  0  0  0  0  0  0  0  0  0  0
   11.5824    0.9313   21.3674 H   0  0  0  0  0  0  0  0  0  0  0  0
   10.3818    1.5859   22.4877 H   0  0  0  0  0  0  0  0  0  0  0  0
   10.6717   -0.7934   22.8201 S   0  0  0  0  0  0  0  0  0  0  0  0
    5.3628    0.6480   20.1349 C   0  0  0  0  0  0  0  0  0  0  0  0
    4.8352    0.6631   21.0912 H   0  0  0  0  0  0  0  0  0  0  0  0
    4.8660    1.3377   19.0255 C   0  0  0  0  0  0  0  0  0  0  0  0
    3.9506    1.9154   19.0810 H   0  0  0  0  0  0  0  0  0  0  0  0
  1  2  1  0
  2  3  2  0
  3  4  1  0
  4  5  1  0
  4  6  2  0
  6  7  1  0
  7  8  2  0
  8  9  1  0
  9 10  2  0
  9 11  1  0
 11 12  1  0
 12 13  1  0
 12 14  1  0
 12 15  1  0
 15 16  1  0
 15 17  1  0
 15 18  1  0
 18 19  1  0
 19 20  1  0
 19 21  1  0
 19 22  1  0
 18 23  1  0
 23 24  1  0
 23 25  1  0
 23 26  1  0
 26 27  1  0
 26 28  1  0
  8 29  1  0
 29 30  2  0
 30 31  1  0
 31 32  1  0
 32 33  1  0
 32 34  1  0
 32 35  1  0
 35 36  1  0
 35 37  1  0
 35 38  1  0
  6 39  1  0
 39 40  1  0
 39 41  2  0
 41 42  1  0
 41  2  1  0
 31  7  1  0
 26 11  1  0
 38 30  1  0
M  END
>  <plip>  (1) 
-0.06896551724137931

>  <filename>  (1) 
[H][c]1[n][c]([H])[c](-[c]2[c]([C](=[O])[N]3[C]([H])([H])[C]([H])([H])[N]([C]([H])([H])[H])[C]([H])([H])[C]3([H])[H])[n][c]3[n]2[C]([H])([H])[C]([H])([H])[S]3)[c]([H])[c]1[H]

$$$$
