
     RDKit          3D

 41 43  0  0  0  0  0  0  0  0999 V2000
    6.7829   -4.0041   22.5510 C   0  0  0  0  0  0  0  0  0  0  0  0
    7.4009   -2.7894   22.2058 O   0  0  0  0  0  0  0  0  0  0  0  0
    6.6439   -2.0208   21.2981 C   0  0  0  0  0  0  0  0  0  0  0  0
    7.3508   -0.6915   21.0138 C   0  0  2  0  0  0  0  0  0  0  0  0
    7.4370    0.1574   22.1992 N   0  0  0  0  0  0  0  0  0  0  0  0
    8.3846    1.1150   22.3173 C   0  0  0  0  0  0  0  0  0  0  0  0
    9.3686    1.1319   21.5673 O   0  0  0  0  0  0  0  0  0  0  0  0
    8.2002    2.1241   23.3641 C   0  0  0  0  0  0  0  0  0  0  0  0
    9.2629    2.9556   23.7289 C   0  0  0  0  0  0  0  0  0  0  0  0
   10.4475    2.8315   23.1637 O   0  0  0  0  0  0  0  0  0  0  0  0
   10.3229    2.1667   22.4295 H   0  0  0  0  0  0  0  0  0  0  0  0
    9.0756    3.9415   24.7481 C   0  0  0  0  0  0  0  0  0  0  0  0
   10.1024    4.8305   25.1768 C   0  0  0  0  0  0  0  0  0  0  0  0
    9.8840    5.6582   26.2517 C   0  0  0  0  0  0  0  0  0  0  0  0
    8.6487    5.6347   26.9502 C   0  0  0  0  0  0  0  0  0  0  0  0
    8.4759    6.5826   28.3918 Cl  0  0  0  0  0  0  0  0  0  0  0  0
    7.6156    4.8304   26.5101 C   0  0  0  0  0  0  0  0  0  0  0  0
    6.4341    4.8515   27.1259 F   0  0  0  0  0  0  0  0  0  0  0  0
    7.7901    3.9832   25.3622 C   0  0  0  0  0  0  0  0  0  0  0  0
    6.7254    3.2516   24.9032 N   0  0  0  0  0  0  0  0  0  0  0  0
    6.9406    2.3912   23.9447 C   0  0  0  0  0  0  0  0  0  0  0  0
    6.0447    1.8765   23.5860 H   0  0  0  0  0  0  0  0  0  0  0  0
   10.6480    6.3628   26.5689 H   0  0  0  0  0  0  0  0  0  0  0  0
   11.0616    4.7967   24.6699 H   0  0  0  0  0  0  0  0  0  0  0  0
    6.8650   -0.0488   23.0036 H   0  0  0  0  0  0  0  0  0  0  0  0
    6.6599    0.0667   19.8909 C   0  0  0  0  0  0  0  0  0  0  0  0
    5.4178    0.6925   20.0746 C   0  0  0  0  0  0  0  0  0  0  0  0
    4.8099    1.3173   18.9869 C   0  0  0  0  0  0  0  0  0  0  0  0
    5.4584    1.2946   17.7476 C   0  0  0  0  0  0  0  0  0  0  0  0
    6.6454    0.7037   17.5485 N   0  0  0  0  0  0  0  0  0  0  0  0
    7.2219    0.1189   18.6084 C   0  0  0  0  0  0  0  0  0  0  0  0
    8.1931   -0.3423   18.4212 H   0  0  0  0  0  0  0  0  0  0  0  0
    5.0043    1.7695   16.8790 H   0  0  0  0  0  0  0  0  0  0  0  0
    3.8591    1.8270   19.0930 H   0  0  0  0  0  0  0  0  0  0  0  0
    4.9435    0.7078   21.0583 H   0  0  0  0  0  0  0  0  0  0  0  0
    8.3758   -0.9340   20.7039 H   0  0  0  0  0  0  0  0  0  0  0  0
    6.5139   -2.5688   20.3512 H   0  0  0  0  0  0  0  0  0  0  0  0
    5.6321   -1.8069   21.6882 H   0  0  0  0  0  0  0  0  0  0  0  0
    7.4317   -4.5026   23.2754 H   0  0  0  0  0  0  0  0  0  0  0  0
    6.6584   -4.6581   21.6726 H   0  0  0  0  0  0  0  0  0  0  0  0
    5.7943   -3.8438   23.0119 H   0  0  0  0  0  0  0  0  0  0  0  0
  1  2  1  0
  2  3  1  0
  3  4  1  0
  4  5  1  0
  5  6  1  0
  6  7  2  0
  6  8  1  0
  8  9  2  0
  9 10  1  0
 10 11  1  0
  9 12  1  0
 12 13  2  0
 13 14  1  0
 14 15  2  0
 15 16  1  0
 15 17  1  0
 17 18  1  0
 17 19  2  0
 19 20  1  0
 20 21  2  0
 21 22  1  0
 14 23  1  0
 13 24  1  0
  5 25  1  0
  4 26  1  0
 26 27  2  0
 27 28  1  0
 28 29  2  0
 29 30  1  0
 30 31  2  0
 31 32  1  0
 29 33  1  0
 28 34  1  0
 27 35  1  0
  4 36  1  6
  3 37  1  0
  3 38  1  0
  1 39  1  0
  1 40  1  0
  1 41  1  0
 21  8  1  0
 31 26  1  0
 19 12  1  0
M  END
>  <plip>  (1) 
-0.13793103448275862

>  <filename>  (1) 
[H][O][c]1[c]([C](=[O])[N]([H])[C@]([H])([c]2[c]([H])[n][c]([H])[c]([H])[c]2[H])[C]([H])([H])[O][C]([H])([H])[H])[c]([H])[n][c]2[c]([F])[c]([Cl])[c]([H])[c]([H])[c]12

$$$$
