
     RDKit          3D

 30 31  0  0  0  0  0  0  0  0999 V2000
    7.6182   -5.9364   20.4461 H   0  0  0  0  0  0  0  0  0  0  0  0
    6.7204   -5.5950   20.1832 O   0  0  0  0  0  0  0  0  0  0  0  0
    6.8620   -4.6769   21.4258 P   0  0  0  0  0  0  0  0  0  0  0  0
    6.7254   -5.2995   22.7563 O   0  0  0  0  0  0  0  0  0  0  0  0
    8.1447   -5.1551   20.6677 O   0  0  0  0  0  0  0  0  0  0  0  0
    7.5836   -5.3376   19.8709 H   0  0  0  0  0  0  0  0  0  0  0  0
    6.0268   -2.8570   21.5329 C   0  0  0  0  0  0  0  0  0  0  0  0
    5.5542   -2.5321   20.2990 F   0  0  0  0  0  0  0  0  0  0  0  0
    4.9217   -2.9779   22.3186 F   0  0  0  0  0  0  0  0  0  0  0  0
    6.7672   -1.6333   21.9643 N   0  0  0  0  0  0  0  0  0  0  0  0
    6.6669   -1.0836   23.2267 C   0  0  0  0  0  0  0  0  0  0  0  0
    6.2527   -1.6939   24.2011 O   0  0  0  0  0  0  0  0  0  0  0  0
    7.3535    0.2556   23.3295 C   0  0  0  0  0  0  0  0  0  0  0  0
    8.0694    0.2737   24.1576 H   0  0  0  0  0  0  0  0  0  0  0  0
    6.6057    1.0396   23.4758 H   0  0  0  0  0  0  0  0  0  0  0  0
    8.0554    0.3881   21.9731 C   0  0  0  0  0  0  0  0  0  0  0  0
    7.9023    1.3895   21.5485 H   0  0  0  0  0  0  0  0  0  0  0  0
    9.1336    0.2344   22.0921 H   0  0  0  0  0  0  0  0  0  0  0  0
    7.4808   -0.7232   21.0690 C   0  0  2  0  0  0  0  0  0  0  0  0
    8.3118   -1.2741   20.6141 H   0  0  0  0  0  0  0  0  0  0  0  0
    6.6437   -0.1003   19.9733 C   0  0  0  0  0  0  0  0  0  0  0  0
    7.1531   -0.1138   18.6657 C   0  0  0  0  0  0  0  0  0  0  0  0
    8.0870   -0.6365   18.4811 H   0  0  0  0  0  0  0  0  0  0  0  0
    6.5832    0.5168   17.6271 N   0  0  0  0  0  0  0  0  0  0  0  0
    5.4502    1.2051   17.8584 C   0  0  0  0  0  0  0  0  0  0  0  0
    4.9845    1.7454   17.0390 H   0  0  0  0  0  0  0  0  0  0  0  0
    4.8588    1.2526   19.1244 C   0  0  0  0  0  0  0  0  0  0  0  0
    3.9509    1.8317   19.2529 H   0  0  0  0  0  0  0  0  0  0  0  0
    5.4497    0.5956   20.2068 C   0  0  0  0  0  0  0  0  0  0  0  0
    5.0128    0.6527   21.2029 H   0  0  0  0  0  0  0  0  0  0  0  0
  1  2  1  0
  2  3  1  0
  3  4  2  0
  3  5  1  0
  5  6  1  0
  3  7  1  0
  7  8  1  0
  7  9  1  0
  7 10  1  0
 10 11  1  0
 11 12  2  0
 11 13  1  0
 13 14  1  0
 13 15  1  0
 13 16  1  0
 16 17  1  0
 16 18  1  0
 16 19  1  0
 19 20  1  6
 19 21  1  0
 21 22  2  0
 22 23  1  0
 22 24  1  0
 24 25  2  0
 25 26  1  0
 25 27  1  0
 27 28  1  0
 27 29  2  0
 29 30  1  0
 19 10  1  0
 29 21  1  0
M  END
>  <plip>  (1) 
-0.13333333333333333

>  <filename>  (1) 
[H][O][P](=[O])([O][H])[C]([F])([F])[N]1[C](=[O])[C]([H])([H])[C]([H])([H])[C@]1([H])[c]1[c]([H])[n][c]([H])[c]([H])[c]1[H]

$$$$
