
     RDKit          3D

 35 38  0  0  0  0  0  0  0  0999 V2000
    4.9361    1.7827   17.0086 H   0  0  0  0  0  0  0  0  0  0  0  0
    5.4074    1.2835   17.8522 C   0  0  0  0  0  0  0  0  0  0  0  0
    6.5612    0.6526   17.5870 N   0  0  0  0  0  0  0  0  0  0  0  0
    7.1783    0.0388   18.6031 C   0  0  0  0  0  0  0  0  0  0  0  0
    8.1324   -0.4262   18.3706 H   0  0  0  0  0  0  0  0  0  0  0  0
    6.6693   -0.0101   19.9164 C   0  0  0  0  0  0  0  0  0  0  0  0
    7.3643   -0.7010   20.9700 N   0  0  0  0  0  0  0  0  0  0  0  0
    6.5531   -1.5084   21.7683 N   0  0  0  0  0  0  0  0  0  0  0  0
    7.0471   -2.0511   22.8391 C   0  0  0  0  0  0  0  0  0  0  0  0
    6.1568   -2.8908   23.6892 C   0  0  0  0  0  0  0  0  0  0  0  0
    6.4392   -3.0924   25.0855 C   0  0  0  0  0  0  0  0  0  0  0  0
    7.3228   -2.6319   25.5220 H   0  0  0  0  0  0  0  0  0  0  0  0
    5.6214   -3.8506   25.9027 C   0  0  0  0  0  0  0  0  0  0  0  0
    5.8464   -3.9974   26.9556 H   0  0  0  0  0  0  0  0  0  0  0  0
    4.4806   -4.4328   25.3046 C   0  0  0  0  0  0  0  0  0  0  0  0
    4.1783   -4.2562   23.9324 C   0  0  0  0  0  0  0  0  0  0  0  0
    2.9590   -4.9818   23.7512 C   0  0  0  0  0  0  0  0  0  0  0  0
    2.3749   -5.0983   22.8435 H   0  0  0  0  0  0  0  0  0  0  0  0
    2.5593   -5.5423   24.8725 N   0  0  0  0  0  0  0  0  0  0  0  0
    3.4811   -5.2088   25.8047 N   0  0  0  0  0  0  0  0  0  0  0  0
    3.3802   -5.5392   26.7525 H   0  0  0  0  0  0  0  0  0  0  0  0
    5.0291   -3.4762   23.1183 C   0  0  0  0  0  0  0  0  0  0  0  0
    4.8217   -3.2962   22.0657 H   0  0  0  0  0  0  0  0  0  0  0  0
    8.4877   -1.8200   23.2683 C   0  0  0  0  0  0  0  0  0  0  0  0
    8.8567   -2.6792   23.8425 H   0  0  0  0  0  0  0  0  0  0  0  0
    8.4935   -0.9602   23.9556 H   0  0  0  0  0  0  0  0  0  0  0  0
    9.3968   -1.5394   22.0681 C   0  0  0  0  0  0  0  0  0  0  0  0
    9.6007   -2.4552   21.4958 H   0  0  0  0  0  0  0  0  0  0  0  0
   10.3660   -1.1337   22.3629 H   0  0  0  0  0  0  0  0  0  0  0  0
    8.7706   -0.5471   21.1069 C   0  0  0  0  0  0  0  0  0  0  0  0
    9.4098    0.2691   20.4773 O   0  0  0  0  0  0  0  0  0  0  0  0
    5.4535    0.6345   20.1763 C   0  0  0  0  0  0  0  0  0  0  0  0
    5.0336    0.5875   21.1805 H   0  0  0  0  0  0  0  0  0  0  0  0
    4.8223    1.3041   19.1236 C   0  0  0  0  0  0  0  0  0  0  0  0
    3.8886    1.8352   19.2697 H   0  0  0  0  0  0  0  0  0  0  0  0
  1  2  1  0
  2  3  2  0
  3  4  1  0
  4  5  1  0
  4  6  2  0
  6  7  1  0
  7  8  1  0
  8  9  2  0
  9 10  1  0
 10 11  2  0
 11 12  1  0
 11 13  1  0
 13 14  1  0
 13 15  2  0
 15 16  1  0
 16 17  1  0
 17 18  1  0
 17 19  2  0
 19 20  1  0
 20 21  1  0
 16 22  2  0
 22 23  1  0
  9 24  1  0
 24 25  1  0
 24 26  1  0
 24 27  1  0
 27 28  1  0
 27 29  1  0
 27 30  1  0
 30 31  2  0
  6 32  1  0
 32 33  1  0
 32 34  2  0
 34 35  1  0
 34  2  1  0
 30  7  1  0
 22 10  1  0
 20 15  1  0
M  END
>  <plip>  (1) 
-0.06896551724137931

>  <filename>  (1) 
[H][c]1[n][c]([H])[c]([N]2[N]=[C]([c]3[c]([H])[c]([H])[c]4[c]([c]([H])[n][n]4[H])[c]3[H])[C]([H])([H])[C]([H])([H])[C]2=[O])[c]([H])[c]1[H]

$$$$
