
     RDKit          3D

 31 33  0  0  0  0  0  0  0  0999 V2000
    4.9238    1.7870   16.9885 H   0  0  0  0  0  0  0  0  0  0  0  0
    5.3982    1.2947   17.8328 C   0  0  0  0  0  0  0  0  0  0  0  0
    6.5602    0.6747   17.5811 N   0  0  0  0  0  0  0  0  0  0  0  0
    7.1760    0.0623   18.5953 C   0  0  0  0  0  0  0  0  0  0  0  0
    8.1130   -0.4323   18.3562 H   0  0  0  0  0  0  0  0  0  0  0  0
    6.6655    0.0149   19.9048 C   0  0  0  0  0  0  0  0  0  0  0  0
    7.3736   -0.6669   20.9228 N   0  0  0  0  0  0  0  0  0  0  0  0
    8.7471   -0.7972   21.0487 C   0  0  0  0  0  0  0  0  0  0  0  0
    9.3962   -0.3242   20.3214 H   0  0  0  0  0  0  0  0  0  0  0  0
    9.0180   -1.5302   22.1700 C   0  0  0  0  0  0  0  0  0  0  0  0
   10.0036   -1.7827   22.5535 H   0  0  0  0  0  0  0  0  0  0  0  0
    7.7660   -1.8913   22.7673 C   0  0  0  0  0  0  0  0  0  0  0  0
    7.5530   -2.6693   24.0337 C   0  0  1  0  0  0  0  0  0  0  0  0
    6.4697   -2.7733   24.2124 H   0  0  0  0  0  0  0  0  0  0  0  0
    8.1246   -4.0200   23.9564 N   0  0  0  0  0  0  0  0  0  0  0  0
    9.0006   -3.9127   23.4571 H   0  0  0  0  0  0  0  0  0  0  0  0
    8.3679   -4.4589   25.3298 C   0  0  0  0  0  0  0  0  0  0  0  0
    9.2530   -5.1076   25.3567 H   0  0  0  0  0  0  0  0  0  0  0  0
    7.5212   -5.0723   25.6666 H   0  0  0  0  0  0  0  0  0  0  0  0
    8.5106   -3.1885   26.2143 C   0  0  0  0  0  0  0  0  0  0  0  0
    7.8073   -3.2257   27.0543 H   0  0  0  0  0  0  0  0  0  0  0  0
    9.5146   -3.1070   26.6418 H   0  0  0  0  0  0  0  0  0  0  0  0
    8.2025   -2.0123   25.2701 C   0  0  0  0  0  0  0  0  0  0  0  0
    9.1177   -1.4851   24.9685 H   0  0  0  0  0  0  0  0  0  0  0  0
    7.5442   -1.2529   25.7026 H   0  0  0  0  0  0  0  0  0  0  0  0
    6.7926   -1.3388   21.9786 C   0  0  0  0  0  0  0  0  0  0  0  0
    5.7207   -1.4012   22.0566 H   0  0  0  0  0  0  0  0  0  0  0  0
    5.4400    0.6502   20.1605 C   0  0  0  0  0  0  0  0  0  0  0  0
    5.0104    0.6490   21.1667 H   0  0  0  0  0  0  0  0  0  0  0  0
    4.8106    1.3087   19.1025 C   0  0  0  0  0  0  0  0  0  0  0  0
    3.8795    1.8380   19.2554 H   0  0  0  0  0  0  0  0  0  0  0  0
  1  2  1  0
  2  3  2  0
  3  4  1  0
  4  5  1  0
  4  6  2  0
  6  7  1  0
  7  8  1  0
  8  9  1  0
  8 10  2  0
 10 11  1  0
 10 12  1  0
 12 13  1  0
 13 14  1  1
 13 15  1  0
 15 16  1  0
 15 17  1  0
 17 18  1  0
 17 19  1  0
 17 20  1  0
 20 21  1  0
 20 22  1  0
 20 23  1  0
 23 24  1  0
 23 25  1  0
 12 26  2  0
 26 27  1  0
  6 28  1  0
 28 29  1  0
 28 30  2  0
 30 31  1  0
 30  2  1  0
 26  7  1  0
 23 13  1  0
M  END
>  <plip>  (1) 
-0.034482758620689655

>  <filename>  (1) 
[H][c]1[n][c]([H])[c](-[n]2[c]([H])[c]([H])[c]([C@@]3([H])[N]([H])[C]([H])([H])[C]([H])([H])[C]3([H])[H])[c]2[H])[c]([H])[c]1[H]

$$$$
