
     RDKit          3D

 27 28  0  0  0  0  0  0  0  0999 V2000
    8.8433   -0.4259   21.1676 C   0  0  0  0  0  0  0  0  0  0  0  0
    7.3756   -0.7500   20.9800 C   0  0  0  0  0  0  0  0  0  0  0  0
    6.7167   -1.6511   21.7243 C   0  0  0  0  0  0  0  0  0  0  0  0
    7.3249   -2.4368   22.8110 C   0  0  0  0  0  0  0  0  0  0  0  0
    8.5157   -2.4606   23.0731 O   0  0  0  0  0  0  0  0  0  0  0  0
    6.4406   -3.1442   23.5937 N   0  0  0  0  0  0  0  0  0  0  0  0
    6.8191   -3.7550   24.7753 C   0  0  0  0  0  0  0  0  0  0  0  0
    6.1598   -4.8057   25.1647 N   0  0  0  0  0  0  0  0  0  0  0  0
    6.8083   -5.2777   26.6166 S   0  0  0  0  0  0  0  0  0  0  0  0
    7.9396   -4.0794   26.7642 N   0  0  0  0  0  0  0  0  0  0  0  0
    7.8530   -3.3272   25.7024 C   0  0  0  0  0  0  0  0  0  0  0  0
    8.4830   -2.4608   25.5290 H   0  0  0  0  0  0  0  0  0  0  0  0
    5.5188   -3.4094   23.2829 H   0  0  0  0  0  0  0  0  0  0  0  0
    5.6491   -1.7883   21.5833 H   0  0  0  0  0  0  0  0  0  0  0  0
    6.6283   -0.0196   19.9139 C   0  0  0  0  0  0  0  0  0  0  0  0
    5.4099    0.6411   20.1496 C   0  0  0  0  0  0  0  0  0  0  0  0
    4.7954    1.3143   19.0946 C   0  0  0  0  0  0  0  0  0  0  0  0
    5.3973    1.2945   17.8326 C   0  0  0  0  0  0  0  0  0  0  0  0
    6.5592    0.6702   17.5866 N   0  0  0  0  0  0  0  0  0  0  0  0
    7.1528    0.0526   18.6119 C   0  0  0  0  0  0  0  0  0  0  0  0
    8.1112   -0.4182   18.3890 H   0  0  0  0  0  0  0  0  0  0  0  0
    4.9381    1.7976   16.9833 H   0  0  0  0  0  0  0  0  0  0  0  0
    3.8669    1.8538   19.2334 H   0  0  0  0  0  0  0  0  0  0  0  0
    4.9852    0.6485   21.1544 H   0  0  0  0  0  0  0  0  0  0  0  0
    9.1140    0.4233   20.5377 H   0  0  0  0  0  0  0  0  0  0  0  0
    9.0825   -0.1806   22.2094 H   0  0  0  0  0  0  0  0  0  0  0  0
    9.4801   -1.2826   20.9225 H   0  0  0  0  0  0  0  0  0  0  0  0
  1  2  1  0
  2  3  2  3
  3  4  1  0
  4  5  2  0
  4  6  1  0
  6  7  1  0
  7  8  2  0
  8  9  1  0
  9 10  1  0
 10 11  2  0
 11 12  1  0
  6 13  1  0
  3 14  1  0
  2 15  1  0
 15 16  2  0
 16 17  1  0
 17 18  2  0
 18 19  1  0
 19 20  2  0
 20 21  1  0
 18 22  1  0
 17 23  1  0
 16 24  1  0
  1 25  1  0
  1 26  1  0
  1 27  1  0
 11  7  1  0
 20 15  1  0
M  END
>  <plip>  (1) 
-0.03571428571428571

>  <filename>  (1) 
[H][C]([C](=[O])[N]([H])[c]1[n][s][n][c]1[H])=[C]([c]1[c]([H])[n][c]([H])[c]([H])[c]1[H])[C]([H])([H])[H]

$$$$
