
     RDKit          3D

 31 33  0  0  0  0  0  0  0  0999 V2000
    4.9345    1.8466   16.9010 H   0  0  0  0  0  0  0  0  0  0  0  0
    5.3806    1.3358   17.7520 C   0  0  0  0  0  0  0  0  0  0  0  0
    6.5403    0.7024   17.5155 N   0  0  0  0  0  0  0  0  0  0  0  0
    7.1244    0.0830   18.5471 C   0  0  0  0  0  0  0  0  0  0  0  0
    8.0608   -0.4253   18.3273 H   0  0  0  0  0  0  0  0  0  0  0  0
    6.5911    0.0488   19.8540 C   0  0  0  0  0  0  0  0  0  0  0  0
    7.2672   -0.6317   20.9234 C   0  0  0  0  0  0  0  0  0  0  0  0
    7.8410   -1.1341   21.8591 C   0  0  0  0  0  0  0  0  0  0  0  0
    8.5761   -1.7679   22.9651 C   0  0  1  0  0  0  0  0  0  0  0  0
    8.0272   -1.6312   23.9101 H   0  0  0  0  0  0  0  0  0  0  0  0
    8.8111   -3.2943   22.7863 C   0  0  0  0  0  0  0  0  0  0  0  0
    8.0990   -4.1832   22.4156 O   0  0  0  0  0  0  0  0  0  0  0  0
   10.1253   -3.4861   23.1331 N   0  0  0  0  0  0  0  0  0  0  0  0
   10.5486   -4.3165   22.7725 H   0  0  0  0  0  0  0  0  0  0  0  0
   10.8361   -2.3377   22.8549 C   0  0  0  0  0  0  0  0  0  0  0  0
   11.9760   -2.3417   22.4681 O   0  0  0  0  0  0  0  0  0  0  0  0
    9.9632   -1.2812   23.0729 N   0  0  0  0  0  0  0  0  0  0  0  0
   10.3325    0.0537   23.3608 C   0  0  0  0  0  0  0  0  0  0  0  0
    9.5441    0.9077   24.1749 C   0  0  0  0  0  0  0  0  0  0  0  0
    8.6152    0.5419   24.6183 H   0  0  0  0  0  0  0  0  0  0  0  0
    9.8834    2.1695   24.4676 N   0  0  0  0  0  0  0  0  0  0  0  0
   11.0215    2.6559   23.9552 C   0  0  0  0  0  0  0  0  0  0  0  0
   11.2679    3.6861   24.2112 H   0  0  0  0  0  0  0  0  0  0  0  0
   11.8619    1.8931   23.1413 C   0  0  0  0  0  0  0  0  0  0  0  0
   12.7692    2.3282   22.7481 H   0  0  0  0  0  0  0  0  0  0  0  0
   11.5293    0.5703   22.8434 C   0  0  0  0  0  0  0  0  0  0  0  0
   12.1633   -0.0717   22.2359 H   0  0  0  0  0  0  0  0  0  0  0  0
    5.3715    0.7169   20.0777 C   0  0  0  0  0  0  0  0  0  0  0  0
    4.9077    0.7175   21.0662 H   0  0  0  0  0  0  0  0  0  0  0  0
    4.7596    1.3649   19.0047 C   0  0  0  0  0  0  0  0  0  0  0  0
    3.8205    1.8942   19.1236 H   0  0  0  0  0  0  0  0  0  0  0  0
  1  2  1  0
  2  3  2  0
  3  4  1  0
  4  5  1  0
  4  6  2  0
  6  7  1  0
  7  8  3  0
  8  9  1  0
  9 10  1  1
  9 11  1  0
 11 12  2  0
 11 13  1  0
 13 14  1  0
 13 15  1  0
 15 16  2  0
 15 17  1  0
 17 18  1  0
 18 19  2  0
 19 20  1  0
 19 21  1  0
 21 22  2  0
 22 23  1  0
 22 24  1  0
 24 25  1  0
 24 26  2  0
 26 27  1  0
  6 28  1  0
 28 29  1  0
 28 30  2  0
 30 31  1  0
 30  2  1  0
 17  9  1  0
 26 18  1  0
M  END
>  <plip>  (1) 
-0.03333333333333333

>  <filename>  (1) 
[H][c]1[n][c]([H])[c]([C]#[C][C@@]2([H])[C](=[O])[N]([H])[C](=[O])[N]2[c]2[c]([H])[n][c]([H])[c]([H])[c]2[H])[c]([H])[c]1[H]

$$$$
