
     RDKit          3D

 43 46  0  0  0  0  0  0  0  0999 V2000
    4.8856    1.8674   16.9396 H   0  0  0  0  0  0  0  0  0  0  0  0
    5.3638    1.3483   17.7681 C   0  0  0  0  0  0  0  0  0  0  0  0
    6.5178    0.7246   17.4892 N   0  0  0  0  0  0  0  0  0  0  0  0
    7.1360    0.0981   18.5042 C   0  0  0  0  0  0  0  0  0  0  0  0
    8.0793   -0.3887   18.2549 H   0  0  0  0  0  0  0  0  0  0  0  0
    6.6515    0.0420   19.8289 C   0  0  0  0  0  0  0  0  0  0  0  0
    7.3858   -0.6879   20.9086 C   0  0  0  0  0  0  0  0  0  0  0  0
    8.6285   -0.4650   21.3823 C   0  0  0  0  0  0  0  0  0  0  0  0
    9.4958    0.5489   21.1563 O   0  0  0  0  0  0  0  0  0  0  0  0
    9.0040    1.8840   20.9959 C   0  0  0  0  0  0  0  0  0  0  0  0
    8.3544    1.9530   20.1193 H   0  0  0  0  0  0  0  0  0  0  0  0
    9.9109    2.4508   20.7816 H   0  0  0  0  0  0  0  0  0  0  0  0
    8.3023    2.4629   22.2339 C   0  0  0  0  0  0  0  0  0  0  0  0
    8.9708    2.3516   23.0953 H   0  0  0  0  0  0  0  0  0  0  0  0
    7.4278    1.8441   22.4595 H   0  0  0  0  0  0  0  0  0  0  0  0
    7.8900    3.9118   22.0541 C   0  0  0  0  0  0  0  0  0  0  0  0
    6.6147    4.2715   21.5850 C   0  0  0  0  0  0  0  0  0  0  0  0
    5.8948    3.5016   21.3110 H   0  0  0  0  0  0  0  0  0  0  0  0
    6.2714    5.6152   21.3819 C   0  0  0  0  0  0  0  0  0  0  0  0
    5.2634    5.8650   21.0613 H   0  0  0  0  0  0  0  0  0  0  0  0
    7.2197    6.6244   21.5742 C   0  0  0  0  0  0  0  0  0  0  0  0
    6.9885    7.6593   21.3276 H   0  0  0  0  0  0  0  0  0  0  0  0
    8.4911    6.2820   22.0422 C   0  0  0  0  0  0  0  0  0  0  0  0
    9.2452    7.0501   22.1790 H   0  0  0  0  0  0  0  0  0  0  0  0
    8.8090    4.9445   22.3038 C   0  0  0  0  0  0  0  0  0  0  0  0
    9.8060    4.6935   22.6592 H   0  0  0  0  0  0  0  0  0  0  0  0
    9.1263   -1.5144   22.3234 C   0  0  0  0  0  0  0  0  0  0  0  0
    9.4811   -1.0357   23.2462 H   0  0  0  0  0  0  0  0  0  0  0  0
   10.0001   -2.0222   21.8932 H   0  0  0  0  0  0  0  0  0  0  0  0
    7.9154   -2.4312   22.5286 C   0  0  0  0  0  0  0  0  0  0  0  0
    6.7930   -1.8836   21.6259 C   0  0  0  0  0  0  0  0  0  0  0  0
    6.4352   -2.6402   20.9158 H   0  0  0  0  0  0  0  0  0  0  0  0
    5.9231   -1.5796   22.2182 H   0  0  0  0  0  0  0  0  0  0  0  0
    8.0623   -3.9105   22.7571 C   0  0  0  0  0  0  0  0  0  0  0  0
    9.0640   -4.3302   22.8224 H   0  0  0  0  0  0  0  0  0  0  0  0
    7.3363   -4.5618   22.2757 H   0  0  0  0  0  0  0  0  0  0  0  0
    7.5905   -3.0240   23.8753 C   0  0  0  0  0  0  0  0  0  0  0  0
    6.5430   -3.0698   24.1656 H   0  0  0  0  0  0  0  0  0  0  0  0
    8.2688   -2.8342   24.7061 H   0  0  0  0  0  0  0  0  0  0  0  0
    5.4280    0.6898   20.0822 C   0  0  0  0  0  0  0  0  0  0  0  0
    5.0049    0.6707   21.0875 H   0  0  0  0  0  0  0  0  0  0  0  0
    4.7774    1.3532   19.0374 C   0  0  0  0  0  0  0  0  0  0  0  0
    3.8335    1.8689   19.1860 H   0  0  0  0  0  0  0  0  0  0  0  0
  1  2  1  0
  2  3  2  0
  3  4  1  0
  4  5  1  0
  4  6  2  0
  6  7  1  0
  7  8  2  0
  8  9  1  0
  9 10  1  0
 10 11  1  0
 10 12  1  0
 10 13  1  0
 13 14  1  0
 13 15  1  0
 13 16  1  0
 16 17  2  0
 17 18  1  0
 17 19  1  0
 19 20  1  0
 19 21  2  0
 21 22  1  0
 21 23  1  0
 23 24  1  0
 23 25  2  0
 25 26  1  0
  8 27  1  0
 27 28  1  0
 27 29  1  0
 27 30  1  0
 30 31  1  0
 31 32  1  0
 31 33  1  0
 30 34  1  0
 34 35  1  0
 34 36  1  0
 34 37  1  0
 37 38  1  0
 37 39  1  0
  6 40  1  0
 40 41  1  0
 40 42  2  0
 42 43  1  0
 42  2  1  0
 31  7  1  0
 25 16  1  0
 37 30  1  0
M  END
>  <plip>  (1) 
-0.06896551724137931

>  <filename>  (1) 
[H][c]1[n][c]([H])[c]([C]2=[C]([O][C]([H])([H])[C]([H])([H])[c]3[c]([H])[c]([H])[c]([H])[c]([H])[c]3[H])[C]([H])([H])[C]3([C]2([H])[H])[C]([H])([H])[C]3([H])[H])[c]([H])[c]1[H]

$$$$
