
     RDKit          3D

 37 39  0  0  0  0  0  0  0  0999 V2000
    7.4211   -4.4198   24.4136 C   0  0  0  0  0  0  0  0  0  0  0  0
    6.5571   -3.3604   23.7316 C   0  0  0  0  0  0  0  0  0  0  0  0
    5.3675   -4.0255   23.0679 C   0  0  0  0  0  0  0  0  0  0  0  0
    5.4622   -4.9128   22.1203 N   0  0  0  0  0  0  0  0  0  0  0  0
    4.1970   -5.3733   21.8485 N   0  0  0  0  0  0  0  0  0  0  0  0
    3.3693   -4.7466   22.6288 C   0  0  0  0  0  0  0  0  0  0  0  0
    4.0596   -3.8763   23.4271 N   0  0  0  0  0  0  0  0  0  0  0  0
    3.6769   -3.0977   23.9330 H   0  0  0  0  0  0  0  0  0  0  0  0
    2.2903   -4.8854   22.6686 H   0  0  0  0  0  0  0  0  0  0  0  0
    7.4090   -2.5693   22.7213 N   0  0  0  0  0  4  0  0  0  0  0  0
    8.6730   -1.9028   23.2638 C   0  0  0  0  0  0  0  0  0  0  0  0
    9.5330   -1.3668   22.1226 C   0  0  0  0  0  0  0  0  0  0  0  0
    8.7378   -0.5824   21.1028 C   0  0  0  0  0  0  0  0  0  0  0  0
    7.4065   -0.6774   20.9763 C   0  0  0  0  0  0  0  0  0  0  0  0
    6.6549    0.0256   19.8880 C   0  0  0  0  0  0  0  0  0  0  0  0
    5.4220    0.6694   20.1088 C   0  0  0  0  0  0  0  0  0  0  0  0
    4.7867    1.3317   19.0546 C   0  0  0  0  0  0  0  0  0  0  0  0
    5.3905    1.3168   17.7948 C   0  0  0  0  0  0  0  0  0  0  0  0
    6.5490    0.6865   17.5406 N   0  0  0  0  0  0  0  0  0  0  0  0
    7.1580    0.0790   18.5662 C   0  0  0  0  0  0  0  0  0  0  0  0
    8.0986   -0.4158   18.3216 H   0  0  0  0  0  0  0  0  0  0  0  0
    4.9277    1.8327   16.9561 H   0  0  0  0  0  0  0  0  0  0  0  0
    3.8500    1.8643   19.1942 H   0  0  0  0  0  0  0  0  0  0  0  0
    4.9767    0.6815   21.1035 H   0  0  0  0  0  0  0  0  0  0  0  0
    6.5835   -1.4954   21.9635 C   0  0  0  0  0  0  0  0  0  0  0  0
    5.7723   -1.9939   21.4307 H   0  0  0  0  0  0  0  0  0  0  0  0
    6.1385   -0.8273   22.7137 H   0  0  0  0  0  0  0  0  0  0  0  0
    9.2935    0.0922   20.4509 H   0  0  0  0  0  0  0  0  0  0  0  0
   10.3189   -0.7306   22.5464 H   0  0  0  0  0  0  0  0  0  0  0  0
   10.0639   -2.1888   21.6250 H   0  0  0  0  0  0  0  0  0  0  0  0
    9.2491   -2.6109   23.8611 H   0  0  0  0  0  0  0  0  0  0  0  0
    8.3744   -1.0741   23.9173 H   0  0  0  0  0  0  0  0  0  0  0  0
    7.6836   -3.2753   21.9923 H   0  0  0  0  0  0  0  0  0  0  0  0
    6.1599   -2.6470   24.4600 H   0  0  0  0  0  0  0  0  0  0  0  0
    8.1511   -3.9610   25.0823 H   0  0  0  0  0  0  0  0  0  0  0  0
    7.9451   -4.9995   23.6451 H   0  0  0  0  0  0  0  0  0  0  0  0
    6.8030   -5.1018   25.0022 H   0  0  0  0  0  0  0  0  0  0  0  0
  1  2  1  0
  2  3  1  0
  3  4  2  0
  4  5  1  0
  5  6  2  0
  6  7  1  0
  7  8  1  0
  6  9  1  0
  2 10  1  0
 10 11  1  0
 11 12  1  0
 12 13  1  0
 13 14  2  0
 14 15  1  0
 15 16  2  0
 16 17  1  0
 17 18  2  0
 18 19  1  0
 19 20  2  0
 20 21  1  0
 18 22  1  0
 17 23  1  0
 16 24  1  0
 14 25  1  0
 25 26  1  0
 25 27  1  0
 13 28  1  0
 12 29  1  0
 12 30  1  0
 11 31  1  0
 11 32  1  0
 10 33  1  0
  2 34  1  0
  1 35  1  0
  1 36  1  0
  1 37  1  0
  7  3  1  0
 25 10  1  0
 20 15  1  0
M  CHG  1  10   1
M  END
>  <plip>  (1) 
-0.10714285714285714

>  <filename>  (1) 
[H][C]1=[C]([c]2[c]([H])[n][c]([H])[c]([H])[c]2[H])[C]([H])([H])[N+]([H])([C]([H])([c]2[n][n][c]([H])[n]2[H])[C]([H])([H])[H])[C]([H])([H])[C]1([H])[H]

$$$$
