
     RDKit          3D

 25 26  0  0  0  0  0  0  0  0999 V2000
   12.5022    2.1872   22.0515 H   0  0  0  0  0  0  0  0  0  0  0  0
   12.0163    1.5228   21.5491 O   0  0  0  0  0  0  0  0  0  0  0  0
   10.7657    1.4274   22.0622 C   0  0  0  0  0  0  0  0  0  0  0  0
   10.3364    2.1828   23.1558 C   0  0  0  0  0  0  0  0  0  0  0  0
   11.0098    2.8900   23.6355 H   0  0  0  0  0  0  0  0  0  0  0  0
    9.0305    2.0137   23.6209 C   0  0  0  0  0  0  0  0  0  0  0  0
    8.6842    2.5892   24.4715 H   0  0  0  0  0  0  0  0  0  0  0  0
    8.1568    1.1103   23.0170 C   0  0  0  0  0  0  0  0  0  0  0  0
    7.1559    0.9806   23.4185 H   0  0  0  0  0  0  0  0  0  0  0  0
    8.5983    0.3618   21.9148 C   0  0  0  0  0  0  0  0  0  0  0  0
    7.5121   -0.8479   21.1545 S   0  0  0  0  0  0  0  0  0  0  0  0
    8.3583   -1.8197   20.4804 O   0  0  0  0  0  0  0  0  0  0  0  0
    6.5183   -1.2517   22.1411 O   0  0  0  0  0  0  0  0  0  0  0  0
    6.6495    0.0296   19.9261 C   0  0  0  0  0  0  0  0  0  0  0  0
    7.2006    0.0312   18.6561 C   0  0  0  0  0  0  0  0  0  0  0  0
    8.1399   -0.4693   18.4250 H   0  0  0  0  0  0  0  0  0  0  0  0
    6.6004    0.6453   17.6410 N   0  0  0  0  0  0  0  0  0  0  0  0
    5.4374    1.2680   17.8770 C   0  0  0  0  0  0  0  0  0  0  0  0
    4.9733    1.7555   17.0219 H   0  0  0  0  0  0  0  0  0  0  0  0
    4.8230    1.3023   19.1314 C   0  0  0  0  0  0  0  0  0  0  0  0
    3.8881    1.8332   19.2570 H   0  0  0  0  0  0  0  0  0  0  0  0
    5.4327    0.6584   20.1980 C   0  0  0  0  0  0  0  0  0  0  0  0
    4.9752    0.6369   21.1880 H   0  0  0  0  0  0  0  0  0  0  0  0
    9.9094    0.5094   21.4428 C   0  0  0  0  0  0  0  0  0  0  0  0
   10.3386   -0.0717   20.6335 H   0  0  0  0  0  0  0  0  0  0  0  0
  1  2  1  0
  2  3  1  0
  3  4  2  0
  4  5  1  0
  4  6  1  0
  6  7  1  0
  6  8  2  0
  8  9  1  0
  8 10  1  0
 10 11  1  0
 11 12  2  0
 11 13  2  0
 11 14  1  0
 14 15  2  0
 15 16  1  0
 15 17  1  0
 17 18  2  0
 18 19  1  0
 18 20  1  0
 20 21  1  0
 20 22  2  0
 22 23  1  0
 10 24  2  0
 24 25  1  0
 24  3  1  0
 22 14  1  0
M  END
>  <plip>  (1) 
-0.07142857142857142

>  <filename>  (1) 
[H][O][c]1[c]([H])[c]([H])[c]([H])[c]([S](=[O])(=[O])[c]2[c]([H])[n][c]([H])[c]([H])[c]2[H])[c]1[H]

$$$$
