
     RDKit          3D

 32 34  0  0  0  0  0  0  0  0999 V2000
    4.9066    1.7495   16.9616 H   0  0  0  0  0  0  0  0  0  0  0  0
    5.4131    1.3140   17.8192 C   0  0  0  0  0  0  0  0  0  0  0  0
    6.5952    0.7289   17.5751 N   0  0  0  0  0  0  0  0  0  0  0  0
    7.2247    0.1654   18.6149 C   0  0  0  0  0  0  0  0  0  0  0  0
    8.1731   -0.3223   18.3948 H   0  0  0  0  0  0  0  0  0  0  0  0
    6.7346    0.1589   19.9364 C   0  0  0  0  0  0  0  0  0  0  0  0
    7.4609   -0.5405   21.0147 C   0  0  0  0  0  0  0  0  0  0  0  0
    7.8469   -1.8470   21.1656 C   0  0  0  0  0  0  0  0  0  0  0  0
    7.6312   -2.6532   20.4894 H   0  0  0  0  0  0  0  0  0  0  0  0
    8.5011   -2.0560   22.3502 N   0  0  0  0  0  0  0  0  0  0  0  0
    8.5133   -0.8884   22.9313 C   0  0  0  0  0  0  0  0  0  0  0  0
    8.9073   -0.6451   23.9054 H   0  0  0  0  0  0  0  0  0  0  0  0
    7.8892    0.0792   22.1881 N   0  0  0  0  0  0  0  0  0  0  0  0
    7.4017    1.5800   22.8487 S   0  0  0  0  0  0  0  0  0  0  0  0
    5.9965    0.9762   23.8664 C   0  0  0  0  0  0  0  0  0  0  0  0
    5.3735    1.8467   24.0966 H   0  0  0  0  0  0  0  0  0  0  0  0
    5.4442    0.3347   23.1880 H   0  0  0  0  0  0  0  0  0  0  0  0
    6.3971    0.2265   25.1160 C   0  0  0  0  0  0  0  0  0  0  0  0
    6.3319   -1.1755   25.1967 C   0  0  0  0  0  0  0  0  0  0  0  0
    5.8102   -1.7496   24.4376 H   0  0  0  0  0  0  0  0  0  0  0  0
    6.9654   -1.8538   26.2400 C   0  0  0  0  0  0  0  0  0  0  0  0
    6.9900   -2.9380   26.2609 H   0  0  0  0  0  0  0  0  0  0  0  0
    7.6085   -1.1334   27.2454 C   0  0  0  0  0  0  0  0  0  0  0  0
    8.1525   -1.6778   28.0018 H   0  0  0  0  0  0  0  0  0  0  0  0
    7.5631    0.2601   27.2487 C   0  0  0  0  0  0  0  0  0  0  0  0
    8.0434    0.8224   28.0479 H   0  0  0  0  0  0  0  0  0  0  0  0
    6.9310    0.9333   26.2048 C   0  0  0  0  0  0  0  0  0  0  0  0
    6.8298    2.0133   26.2267 H   0  0  0  0  0  0  0  0  0  0  0  0
    5.5019    0.7895   20.1591 C   0  0  0  0  0  0  0  0  0  0  0  0
    5.0842    0.8117   21.1634 H   0  0  0  0  0  0  0  0  0  0  0  0
    4.8236    1.3623   19.0852 C   0  0  0  0  0  0  0  0  0  0  0  0
    3.8551    1.8280   19.2190 H   0  0  0  0  0  0  0  0  0  0  0  0
  1  2  1  0
  2  3  2  0
  3  4  1  0
  4  5  1  0
  4  6  2  0
  6  7  1  0
  7  8  2  0
  8  9  1  0
  8 10  1  0
 10 11  2  0
 11 12  1  0
 11 13  1  0
 13 14  1  0
 14 15  1  0
 15 16  1  0
 15 17  1  0
 15 18  1  0
 18 19  2  0
 19 20  1  0
 19 21  1  0
 21 22  1  0
 21 23  2  0
 23 24  1  0
 23 25  1  0
 25 26  1  0
 25 27  2  0
 27 28  1  0
  6 29  1  0
 29 30  1  0
 29 31  2  0
 31 32  1  0
 31  2  1  0
 13  7  1  0
 27 18  1  0
M  END
>  <plip>  (1) 
-0.034482758620689655

>  <filename>  (1) 
[H][c]1[n][c]([H])[c](-[c]2[c]([H])[n][c]([H])[n]2[S][C]([H])([H])[c]2[c]([H])[c]([H])[c]([H])[c]([H])[c]2[H])[c]([H])[c]1[H]

$$$$
