
     RDKit          3D

 38 40  0  0  0  0  0  0  0  0999 V2000
    5.0839    1.8217   16.9695 H   0  0  0  0  0  0  0  0  0  0  0  0
    5.5369    1.3212   17.8207 C   0  0  0  0  0  0  0  0  0  0  0  0
    6.7350    0.7519   17.6000 N   0  0  0  0  0  0  0  0  0  0  0  0
    7.3107    0.1124   18.6217 C   0  0  0  0  0  0  0  0  0  0  0  0
    8.2953   -0.3142   18.4544 H   0  0  0  0  0  0  0  0  0  0  0  0
    6.7025   -0.0434   19.8846 C   0  0  0  0  0  0  0  0  0  0  0  0
    7.3238   -0.8541   20.8888 N   0  0  0  0  0  0  0  0  0  0  0  0
    8.7008   -0.7557   20.9379 N   0  0  0  0  0  0  0  0  0  0  0  0
    9.3317   -1.4725   21.7897 C   0  0  0  0  0  0  0  0  0  0  0  0
   11.1274   -1.2330   21.8971 S   0  0  0  0  0  0  0  0  0  0  0  0
   11.6978   -0.8398   20.6311 O   0  0  0  0  0  0  0  0  0  0  0  0
   11.6492   -2.3835   22.6104 O   0  0  0  0  0  0  0  0  0  0  0  0
   11.3203    0.1412   22.8539 N   0  0  0  0  0  0  0  0  0  0  0  0
   12.6902    0.7092   22.7452 C   0  0  0  0  0  0  0  0  0  0  0  0
   13.4706    0.0155   23.1002 H   0  0  0  0  0  0  0  0  0  0  0  0
   12.8794    0.9469   21.6955 H   0  0  0  0  0  0  0  0  0  0  0  0
   12.7677    2.0072   23.5462 C   0  0  0  0  0  0  0  0  0  0  0  0
   12.1378    2.7725   23.0644 H   0  0  0  0  0  0  0  0  0  0  0  0
   13.8010    2.3633   23.5614 H   0  0  0  0  0  0  0  0  0  0  0  0
   12.3716    1.8102   24.8923 O   0  0  0  0  0  0  0  0  0  0  0  0
   11.0312    1.3615   24.9888 C   0  0  0  0  0  0  0  0  0  0  0  0
   10.8352    1.1977   26.0513 H   0  0  0  0  0  0  0  0  0  0  0  0
   10.3460    2.1454   24.6289 H   0  0  0  0  0  0  0  0  0  0  0  0
   10.7746    0.0545   24.2208 C   0  0  0  0  0  0  0  0  0  0  0  0
    9.6852   -0.0664   24.1585 H   0  0  0  0  0  0  0  0  0  0  0  0
   11.1963   -0.7916   24.7814 H   0  0  0  0  0  0  0  0  0  0  0  0
    8.7066   -2.5046   22.7186 C   0  0  0  0  0  0  0  0  0  0  0  0
    8.7898   -3.4945   22.2427 H   0  0  0  0  0  0  0  0  0  0  0  0
    9.2668   -2.5832   23.6590 H   0  0  0  0  0  0  0  0  0  0  0  0
    7.2323   -2.1595   22.9553 C   0  0  0  0  0  0  0  0  0  0  0  0
    6.6616   -2.9818   23.3884 H   0  0  0  0  0  0  0  0  0  0  0  0
    7.1224   -1.3011   23.6309 H   0  0  0  0  0  0  0  0  0  0  0  0
    6.5533   -1.7718   21.6550 C   0  0  0  0  0  0  0  0  0  0  0  0
    5.4701   -2.1870   21.3052 O   0  0  0  0  0  0  0  0  0  0  0  0
    5.4697    0.5801   20.1143 C   0  0  0  0  0  0  0  0  0  0  0  0
    4.9831    0.5176   21.0885 H   0  0  0  0  0  0  0  0  0  0  0  0
    4.8815    1.2795   19.0563 C   0  0  0  0  0  0  0  0  0  0  0  0
    3.9294    1.7899   19.1723 H   0  0  0  0  0  0  0  0  0  0  0  0
  1  2  1  0
  2  3  2  0
  3  4  1  0
  4  5  1  0
  4  6  2  0
  6  7  1  0
  7  8  1  0
  8  9  2  0
  9 10  1  0
 10 11  2  0
 10 12  2  0
 10 13  1  0
 13 14  1  0
 14 15  1  0
 14 16  1  0
 14 17  1  0
 17 18  1  0
 17 19  1  0
 17 20  1  0
 20 21  1  0
 21 22  1  0
 21 23  1  0
 21 24  1  0
 24 25  1  0
 24 26  1  0
  9 27  1  0
 27 28  1  0
 27 29  1  0
 27 30  1  0
 30 31  1  0
 30 32  1  0
 30 33  1  0
 33 34  2  0
  6 35  1  0
 35 36  1  0
 35 37  2  0
 37 38  1  0
 37  2  1  0
 33  7  1  0
 24 13  1  0
M  END
>  <plip>  (1) 
-0.07142857142857142

>  <filename>  (1) 
[H][c]1[n][c]([H])[c]([N]2[N]=[C]([S](=[O])(=[O])[N]3[C]([H])([H])[C]([H])([H])[O][C]([H])([H])[C]3([H])[H])[C]([H])([H])[C]([H])([H])[C]2=[O])[c]([H])[c]1[H]

$$$$
