
     RDKit          3D

 31 32  0  0  0  0  0  0  0  0999 V2000
    4.9192    1.8184   16.9672 H   0  0  0  0  0  0  0  0  0  0  0  0
    5.3775    1.3042   17.8133 C   0  0  0  0  0  0  0  0  0  0  0  0
    6.5358    0.6762   17.5579 N   0  0  0  0  0  0  0  0  0  0  0  0
    7.1436    0.0586   18.5760 C   0  0  0  0  0  0  0  0  0  0  0  0
    8.0959   -0.4145   18.3378 H   0  0  0  0  0  0  0  0  0  0  0  0
    6.6474    0.0181   19.8941 C   0  0  0  0  0  0  0  0  0  0  0  0
    7.4293   -0.6232   21.0098 C   0  0  0  0  0  0  0  0  0  0  0  0
    6.8066   -0.9108   21.8637 H   0  0  0  0  0  0  0  0  0  0  0  0
    7.9714   -1.5244   20.7055 H   0  0  0  0  0  0  0  0  0  0  0  0
    8.7789    0.4092   21.7237 S   0  0  0  0  0  4  0  0  0  0  0  0
    9.2372   -0.3807   22.9137 O   0  0  0  0  0  0  0  0  0  0  0  0
    7.7641    1.8084   22.3044 C   0  0  0  0  0  0  0  0  0  0  0  0
    7.9778    3.0723   21.7460 C   0  0  0  0  0  0  0  0  0  0  0  0
    8.7257    3.1980   20.9654 H   0  0  0  0  0  0  0  0  0  0  0  0
    7.2632    4.1699   22.2371 C   0  0  0  0  0  0  0  0  0  0  0  0
    7.4355    5.1628   21.8291 H   0  0  0  0  0  0  0  0  0  0  0  0
    6.3497    4.0024   23.2819 C   0  0  0  0  0  0  0  0  0  0  0  0
    5.8103    4.8648   23.6703 H   0  0  0  0  0  0  0  0  0  0  0  0
    6.1198    2.7338   23.8433 C   0  0  0  0  0  0  0  0  0  0  0  0
    5.1822    2.5608   25.0249 C   0  0  0  0  0  0  0  0  0  0  0  0
    4.7165    1.5655   24.9903 H   0  0  0  0  0  0  0  0  0  0  0  0
    4.3590    3.2860   24.9637 H   0  0  0  0  0  0  0  0  0  0  0  0
    5.8435    2.7152   26.3268 N   0  0  0  0  0  0  0  0  0  0  0  0
    6.2905    3.6310   26.3513 H   0  0  0  0  0  0  0  0  0  0  0  0
    6.6129    2.0464   26.3693 H   0  0  0  0  0  0  0  0  0  0  0  0
    6.8429    1.6387   23.3424 C   0  0  0  0  0  0  0  0  0  0  0  0
    6.7327    0.6550   23.7917 H   0  0  0  0  0  0  0  0  0  0  0  0
    5.4254    0.6607   20.1311 C   0  0  0  0  0  0  0  0  0  0  0  0
    5.0126    0.6664   21.1410 H   0  0  0  0  0  0  0  0  0  0  0  0
    4.7800    1.3177   19.0768 C   0  0  0  0  0  0  0  0  0  0  0  0
    3.8517    1.8622   19.2168 H   0  0  0  0  0  0  0  0  0  0  0  0
  1  2  1  0
  2  3  2  0
  3  4  1  0
  4  5  1  0
  4  6  2  0
  6  7  1  0
  7  8  1  0
  7  9  1  0
 10  7  1  1
 10 11  2  0
 10 12  1  0
 12 13  2  0
 13 14  1  0
 13 15  1  0
 15 16  1  0
 15 17  2  0
 17 18  1  0
 17 19  1  0
 19 20  1  0
 20 21  1  0
 20 22  1  0
 20 23  1  0
 23 24  1  0
 23 25  1  0
 19 26  2  0
 26 27  1  0
  6 28  1  0
 28 29  1  0
 28 30  2  0
 30 31  1  0
 30  2  1  0
 26 12  1  0
M  END
>  <plip>  (1) 
-0.03571428571428571

>  <filename>  (1) 
[H][c]1[n][c]([H])[c]([C]([H])([H])[S@@](=[O])[c]2[c]([H])[c]([H])[c]([H])[c]([C]([H])([H])[N]([H])[H])[c]2[H])[c]([H])[c]1[H]

$$$$
