
     RDKit          3D

 32 34  0  0  0  0  0  0  0  0999 V2000
    5.0043    1.7590   17.0349 H   0  0  0  0  0  0  0  0  0  0  0  0
    5.4632    1.2442   17.8767 C   0  0  0  0  0  0  0  0  0  0  0  0
    6.6194    0.6169   17.6248 N   0  0  0  0  0  0  0  0  0  0  0  0
    7.2184   -0.0171   18.6393 C   0  0  0  0  0  0  0  0  0  0  0  0
    8.1676   -0.4748   18.3707 H   0  0  0  0  0  0  0  0  0  0  0  0
    6.6910   -0.0738   19.9366 C   0  0  0  0  0  0  0  0  0  0  0  0
    7.4023   -0.7533   21.0426 C   0  0  0  0  0  0  0  0  0  0  0  0
    7.0145   -0.7359   22.1860 O   0  0  0  0  0  0  0  0  0  0  0  0
    8.5565   -1.3351   20.6458 O   0  0  0  0  0  0  0  0  0  0  0  0
    9.2649   -2.1015   21.5776 C   0  0  0  0  0  0  0  0  0  0  0  0
    8.8577   -3.4213   21.5347 O   0  0  0  0  0  0  0  0  0  0  0  0
    7.9883   -4.0021   22.4211 C   0  0  0  0  0  0  0  0  0  0  0  0
    7.4041   -3.3889   23.5364 C   0  0  0  0  0  0  0  0  0  0  0  0
    7.6251   -2.3579   23.7761 H   0  0  0  0  0  0  0  0  0  0  0  0
    6.4560   -4.1011   24.2879 C   0  0  0  0  0  0  0  0  0  0  0  0
    5.9526   -3.6119   25.1247 H   0  0  0  0  0  0  0  0  0  0  0  0
    6.1083   -5.4132   23.9532 C   0  0  0  0  0  0  0  0  0  0  0  0
    5.3536   -5.9691   24.4960 H   0  0  0  0  0  0  0  0  0  0  0  0
    6.7377   -6.0192   22.8600 C   0  0  0  0  0  0  0  0  0  0  0  0
    6.3170   -7.6404   22.3870 Cl  0  0  0  0  0  0  0  0  0  0  0  0
    7.6849   -5.3365   22.1104 C   0  0  0  0  0  0  0  0  0  0  0  0
    8.1956   -5.8149   21.2854 H   0  0  0  0  0  0  0  0  0  0  0  0
    9.8841   -1.4433   22.7717 C   0  0  0  0  0  0  0  0  0  0  0  0
    9.6527   -0.4006   22.9599 H   0  0  0  0  0  0  0  0  0  0  0  0
   10.0012   -2.0559   23.6598 H   0  0  0  0  0  0  0  0  0  0  0  0
   10.7214   -1.8142   21.5684 C   0  0  0  0  0  0  0  0  0  0  0  0
   11.4051   -2.6378   21.7053 H   0  0  0  0  0  0  0  0  0  0  0  0
   11.0358   -1.0462   20.8732 H   0  0  0  0  0  0  0  0  0  0  0  0
    5.4773    0.5993   20.1902 C   0  0  0  0  0  0  0  0  0  0  0  0
    5.0486    0.6087   21.1950 H   0  0  0  0  0  0  0  0  0  0  0  0
    4.8534    1.2624   19.1358 C   0  0  0  0  0  0  0  0  0  0  0  0
    3.9225    1.8056   19.2726 H   0  0  0  0  0  0  0  0  0  0  0  0
  1  2  1  0
  2  3  2  0
  3  4  1  0
  4  5  1  0
  4  6  2  0
  6  7  1  0
  7  8  2  0
  7  9  1  0
  9 10  1  0
 10 11  1  0
 11 12  1  0
 12 13  2  0
 13 14  1  0
 13 15  1  0
 15 16  1  0
 15 17  2  0
 17 18  1  0
 17 19  1  0
 19 20  1  0
 19 21  2  0
 21 22  1  0
 10 23  1  0
 23 24  1  0
 23 25  1  0
 23 26  1  0
 26 27  1  0
 26 28  1  0
  6 29  1  0
 29 30  1  0
 29 31  2  0
 31 32  1  0
 31  2  1  0
 26 10  1  0
 21 12  1  0
M  END
>  <plip>  (1) 
-0.06666666666666667

>  <filename>  (1) 
[H][c]1[n][c]([H])[c]([C](=[O])[O][C]2([O][c]3[c]([H])[c]([H])[c]([H])[c]([Cl])[c]3[H])[C]([H])([H])[C]2([H])[H])[c]([H])[c]1[H]

$$$$
