
     RDKit          3D

 26 27  0  0  0  0  0  0  0  0999 V2000
    7.6763   -2.4505   20.3245 H   0  0  0  0  0  0  0  0  0  0  0  0
    7.0805   -2.3239   21.1628 N   0  0  0  0  0  0  0  0  0  0  0  0
    7.5218   -0.7782   21.2136 S   0  0  2  0  0  6  0  0  0  0  0  0
    8.9227   -0.6928   20.9783 O   0  0  0  0  0  0  0  0  0  0  0  0
    7.0489   -0.1069   22.5598 O   0  0  0  0  0  0  0  0  0  0  0  0
    7.5095   -0.7043   23.8085 C   0  0  0  0  0  0  0  0  0  0  0  0
    6.9736   -0.0910   24.9377 C   0  0  0  0  0  0  0  0  0  0  0  0
    6.2303    0.6792   24.7750 H   0  0  0  0  0  0  0  0  0  0  0  0
    7.4119   -0.4869   26.2057 C   0  0  0  0  0  0  0  0  0  0  0  0
    7.0107    0.0012   27.0940 H   0  0  0  0  0  0  0  0  0  0  0  0
    8.3621   -1.5094   26.3299 C   0  0  0  0  0  0  0  0  0  0  0  0
    8.7278   -1.8176   27.3060 H   0  0  0  0  0  0  0  0  0  0  0  0
    8.8312   -2.1469   25.1743 C   0  0  0  0  0  0  0  0  0  0  0  0
    9.9281   -3.4908   25.3286 Cl  0  0  0  0  0  0  0  0  0  0  0  0
    8.4177   -1.7556   23.8924 C   0  0  0  0  0  0  0  0  0  0  0  0
    8.7756   -2.2811   23.0107 H   0  0  0  0  0  0  0  0  0  0  0  0
    6.5968    0.0148   20.0321 C   0  0  0  0  0  0  0  0  0  0  0  0
    7.1807   -0.0277   18.7703 C   0  0  0  0  0  0  0  0  0  0  0  0
    8.1447   -0.5118   18.6039 H   0  0  0  0  0  0  0  0  0  0  0  0
    6.6201    0.5650   17.7239 N   0  0  0  0  0  0  0  0  0  0  0  0
    5.4623    1.2201   17.9117 C   0  0  0  0  0  0  0  0  0  0  0  0
    5.0371    1.7207   17.0431 H   0  0  0  0  0  0  0  0  0  0  0  0
    4.8053    1.2786   19.1452 C   0  0  0  0  0  0  0  0  0  0  0  0
    3.8786    1.8302   19.2414 H   0  0  0  0  0  0  0  0  0  0  0  0
    5.3747    0.6590   20.2547 C   0  0  0  0  0  0  0  0  0  0  0  0
    4.8932    0.6989   21.2366 H   0  0  0  0  0  0  0  0  0  0  0  0
  1  2  1  0
  2  3  2  0
  3  4  2  0
  3  5  1  1
  5  6  1  0
  6  7  2  0
  7  8  1  0
  7  9  1  0
  9 10  1  0
  9 11  2  0
 11 12  1  0
 11 13  1  0
 13 14  1  0
 13 15  2  0
 15 16  1  0
  3 17  1  0
 17 18  2  0
 18 19  1  0
 18 20  1  0
 20 21  2  0
 21 22  1  0
 21 23  1  0
 23 24  1  0
 23 25  2  0
 25 26  1  0
 15  6  1  0
 25 17  1  0
M  END
>  <plip>  (1) 
-0.0

>  <filename>  (1) 
[H][N]=[S@](=[O])([O][c]1[c]([H])[c]([H])[c]([H])[c]([Cl])[c]1[H])[c]1[c]([H])[n][c]([H])[c]([H])[c]1[H]

$$$$
