
     RDKit          3D

 44 46  0  0  0  0  0  0  0  0999 V2000
    8.2772   -3.4835   25.2614 C   0  0  0  0  0  0  0  0  0  0  0  0
    7.2424   -4.5507   25.1321 C   0  0  0  0  0  0  0  0  0  0  0  0
    7.0413   -5.4961   26.1282 C   0  0  0  0  0  0  0  0  0  0  0  0
    6.0231   -6.4890   26.0347 C   0  0  0  0  0  0  0  0  0  0  0  0
    5.2168   -6.5166   24.9199 C   0  0  0  0  0  0  0  0  0  0  0  0
    5.4258   -5.5923   23.9250 N   0  0  0  0  0  0  0  0  0  0  0  0
    4.6943   -5.5259   22.7926 N   0  0  0  0  0  0  0  0  0  0  0  0
    5.2092   -4.5110   22.1200 C   0  0  0  0  0  0  0  0  0  0  0  0
    6.2896   -3.8970   22.7677 C   0  0  0  0  0  0  0  0  0  0  0  0
    7.2066   -2.8906   22.2107 C   0  0  0  0  0  0  0  0  0  0  0  0
    8.4242   -2.9554   22.3476 O   0  0  0  0  0  0  0  0  0  0  0  0
    6.6228   -1.8833   21.5017 N   0  0  0  0  0  0  0  0  0  0  0  0
    7.3998   -0.7452   21.0133 C   0  0  0  0  0  0  0  0  0  0  0  0
    7.8019    0.2303   22.1595 C   0  0  0  0  0  0  0  0  0  0  0  0
    8.6505    1.4417   21.7130 C   0  0  0  0  0  0  0  0  0  0  0  0
   10.0231    1.0433   21.1723 C   0  0  0  0  0  0  0  0  0  0  0  0
   10.8821    2.1411   20.9335 O   0  0  0  0  0  0  0  0  0  0  0  0
   10.5239    2.7116   20.2409 H   0  0  0  0  0  0  0  0  0  0  0  0
    9.8817    0.4226   20.2717 H   0  0  0  0  0  0  0  0  0  0  0  0
   10.5552    0.4334   21.9146 H   0  0  0  0  0  0  0  0  0  0  0  0
    8.1049    2.0064   20.9397 H   0  0  0  0  0  0  0  0  0  0  0  0
    8.8027    2.1226   22.5605 H   0  0  0  0  0  0  0  0  0  0  0  0
    8.3418   -0.3552   22.9157 H   0  0  0  0  0  0  0  0  0  0  0  0
    6.8841    0.5876   22.6448 H   0  0  0  0  0  0  0  0  0  0  0  0
    6.6293   -0.0407   19.9148 C   0  0  0  0  0  0  0  0  0  0  0  0
    5.4191    0.6294   20.1560 C   0  0  0  0  0  0  0  0  0  0  0  0
    4.8002    1.3022   19.1005 C   0  0  0  0  0  0  0  0  0  0  0  0
    5.4046    1.2897   17.8397 C   0  0  0  0  0  0  0  0  0  0  0  0
    6.5654    0.6709   17.5897 N   0  0  0  0  0  0  0  0  0  0  0  0
    7.1522    0.0355   18.6139 C   0  0  0  0  0  0  0  0  0  0  0  0
    8.1109   -0.4320   18.3766 H   0  0  0  0  0  0  0  0  0  0  0  0
    4.9407    1.7925   16.9932 H   0  0  0  0  0  0  0  0  0  0  0  0
    3.8744    1.8449   19.2448 H   0  0  0  0  0  0  0  0  0  0  0  0
    4.9799    0.6560   21.1570 H   0  0  0  0  0  0  0  0  0  0  0  0
    8.3260   -1.1687   20.5969 H   0  0  0  0  0  0  0  0  0  0  0  0
    5.6193   -1.8352   21.4881 H   0  0  0  0  0  0  0  0  0  0  0  0
    6.4171   -4.6163   23.9758 C   0  0  0  0  0  0  0  0  0  0  0  0
    4.8046   -4.3020   21.1409 H   0  0  0  0  0  0  0  0  0  0  0  0
    4.4016   -7.1971   24.7146 H   0  0  0  0  0  0  0  0  0  0  0  0
    5.8869   -7.2130   26.8321 H   0  0  0  0  0  0  0  0  0  0  0  0
    7.6808   -5.4600   27.0075 H   0  0  0  0  0  0  0  0  0  0  0  0
    8.5870   -3.3603   26.3029 H   0  0  0  0  0  0  0  0  0  0  0  0
    7.8942   -2.5266   24.8971 H   0  0  0  0  0  0  0  0  0  0  0  0
    9.1577   -3.7015   24.6501 H   0  0  0  0  0  0  0  0  0  0  0  0
  1  2  1  0
  2  3  2  0
  3  4  1  0
  4  5  2  0
  5  6  1  0
  6  7  1  0
  7  8  2  0
  8  9  1  0
  9 10  1  0
 10 11  2  0
 10 12  1  0
 12 13  1  0
 13 14  1  0
 14 15  1  0
 15 16  1  0
 16 17  1  0
 17 18  1  0
 16 19  1  0
 16 20  1  0
 15 21  1  0
 15 22  1  0
 14 23  1  0
 14 24  1  0
 13 25  1  0
 25 26  2  0
 26 27  1  0
 27 28  2  0
 28 29  1  0
 29 30  2  0
 30 31  1  0
 28 32  1  0
 27 33  1  0
 26 34  1  0
 13 35  1  0
 12 36  1  0
  9 37  2  0
  8 38  1  0
  5 39  1  0
  4 40  1  0
  3 41  1  0
  1 42  1  0
  1 43  1  0
  1 44  1  0
 37  2  1  0
 37  6  1  0
 30 25  1  0
M  END
>  <plip>  (1) 
-0.1724137931034483

>  <filename>  (1) 
[H][O][C]([H])([H])[C]([H])([H])[C]([H])([H])[C]([H])([c]1[c]([H])[n][c]([H])[c]([H])[c]1[H])[N]([H])[C](=[O])[c]1[c]([H])[n][n]2[c]([H])[c]([H])[c]([H])[c]([C]([H])([H])[H])[c]12

$$$$
