
     RDKit          3D

 21 22  0  0  0  0  0  0  0  0999 V2000
    7.2670    2.2570   25.6542 H   0  0  0  0  0  0  0  0  0  0  0  0
    7.0377    2.3194   24.7140 O   0  0  0  0  0  0  0  0  0  0  0  0
    7.4201    1.0778   24.2258 N   0  0  0  0  0  0  0  0  0  0  0  0
    7.2017    0.9432   22.9718 C   0  0  0  0  0  0  0  0  0  0  0  0
    6.7725    1.7477   22.3704 H   0  0  0  0  0  0  0  0  0  0  0  0
    7.5703   -0.3008   22.3043 C   0  0  0  0  0  0  0  0  0  0  0  0
    7.3835   -0.7112   20.9484 C   0  0  0  0  0  0  0  0  0  0  0  0
    6.6547    0.0088   19.9016 C   0  0  0  0  0  0  0  0  0  0  0  0
    7.1734    0.0555   18.5998 C   0  0  0  0  0  0  0  0  0  0  0  0
    8.1193   -0.4327   18.3739 H   0  0  0  0  0  0  0  0  0  0  0  0
    6.5708    0.6798   17.5857 N   0  0  0  0  0  0  0  0  0  0  0  0
    5.4048    1.2915   17.8442 C   0  0  0  0  0  0  0  0  0  0  0  0
    4.9182    1.7766   17.0016 H   0  0  0  0  0  0  0  0  0  0  0  0
    4.8047    1.3085   19.1088 C   0  0  0  0  0  0  0  0  0  0  0  0
    3.8723    1.8428   19.2625 H   0  0  0  0  0  0  0  0  0  0  0  0
    5.4393    0.6537   20.1597 C   0  0  0  0  0  0  0  0  0  0  0  0
    4.9953    0.6304   21.1587 H   0  0  0  0  0  0  0  0  0  0  0  0
    7.9472   -1.8700   20.7199 N   0  0  0  0  0  0  0  0  0  0  0  0
    8.4924   -2.2711   21.9174 O   0  0  0  0  0  0  0  0  0  0  0  0
    8.2654   -1.3350   22.8339 C   0  0  0  0  0  0  0  0  0  0  0  0
    8.6612   -1.5146   23.8230 H   0  0  0  0  0  0  0  0  0  0  0  0
  1  2  1  0
  2  3  1  0
  3  4  2  3
  4  5  1  0
  4  6  1  0
  6  7  1  0
  7  8  1  0
  8  9  2  0
  9 10  1  0
  9 11  1  0
 11 12  2  0
 12 13  1  0
 12 14  1  0
 14 15  1  0
 14 16  2  0
 16 17  1  0
  7 18  2  0
 18 19  1  0
 19 20  1  0
 20 21  1  0
 20  6  2  0
 16  8  1  0
M  END
>  <plip>  (1) 
-0.0

>  <filename>  (1) 
[H][O][N]=[C]([H])[c]1[c](-[c]2[c]([H])[n][c]([H])[c]([H])[c]2[H])[n][o][c]1[H]

$$$$
