
     RDKit          3D

 38 40  0  0  0  0  0  0  0  0999 V2000
    6.8175   -3.0525   23.4170 H   0  0  0  0  0  0  0  0  0  0  0  0
    7.3679   -2.3020   22.8766 C   0  0  0  0  0  0  0  0  0  0  0  0
    8.5238   -1.7868   23.3190 C   0  0  0  0  0  0  0  0  0  0  0  0
    9.2037   -2.2102   24.4163 O   0  0  0  0  0  0  0  0  0  0  0  0
    8.5943   -2.8140   25.4943 C   0  0  0  0  0  0  0  0  0  0  0  0
    9.3210   -3.8349   26.1148 C   0  0  0  0  0  0  0  0  0  0  0  0
   10.3037   -4.0925   25.7278 H   0  0  0  0  0  0  0  0  0  0  0  0
    8.7744   -4.4877   27.2124 C   0  0  0  0  0  0  0  0  0  0  0  0
    9.2982   -5.2810   27.7360 H   0  0  0  0  0  0  0  0  0  0  0  0
    7.5064   -4.1298   27.7026 C   0  0  0  0  0  0  0  0  0  0  0  0
    7.0908   -4.8978   28.7499 O   0  0  0  0  0  0  0  0  0  0  0  0
    5.8573   -4.6681   29.3948 C   0  0  0  0  0  0  0  0  0  0  0  0
    5.0121   -4.8559   28.7213 H   0  0  0  0  0  0  0  0  0  0  0  0
    5.8297   -5.3749   30.2284 H   0  0  0  0  0  0  0  0  0  0  0  0
    5.7717   -3.6504   29.7957 H   0  0  0  0  0  0  0  0  0  0  0  0
    6.8209   -3.0539   27.1250 C   0  0  0  0  0  0  0  0  0  0  0  0
    5.8791   -2.7126   27.5414 H   0  0  0  0  0  0  0  0  0  0  0  0
    7.3697   -2.3956   26.0146 C   0  0  0  0  0  0  0  0  0  0  0  0
    6.8622   -1.5580   25.5446 H   0  0  0  0  0  0  0  0  0  0  0  0
    9.1887   -0.6297   22.6565 C   0  0  0  0  0  0  0  0  0  0  0  0
    8.8594    0.2830   23.1792 H   0  0  0  0  0  0  0  0  0  0  0  0
   10.2734   -0.7121   22.7771 H   0  0  0  0  0  0  0  0  0  0  0  0
    8.8094   -0.5710   21.1716 C   0  0  0  0  0  0  0  0  0  0  0  0
    9.3538   -1.3534   20.6160 H   0  0  0  0  0  0  0  0  0  0  0  0
    9.1205    0.3910   20.7497 H   0  0  0  0  0  0  0  0  0  0  0  0
    7.3574   -0.7384   21.0034 N   0  0  0  0  0  0  0  0  0  0  0  0
    6.6934   -0.0475   19.9391 C   0  0  0  0  0  0  0  0  0  0  0  0
    7.2335    0.0376   18.6351 C   0  0  0  0  0  0  0  0  0  0  0  0
    8.1845   -0.4486   18.4211 H   0  0  0  0  0  0  0  0  0  0  0  0
    6.6464    0.6738   17.6115 N   0  0  0  0  0  0  0  0  0  0  0  0
    5.4785    1.2881   17.8564 C   0  0  0  0  0  0  0  0  0  0  0  0
    5.0162    1.8055   17.0171 H   0  0  0  0  0  0  0  0  0  0  0  0
    4.8582    1.2723   19.1103 C   0  0  0  0  0  0  0  0  0  0  0  0
    3.9208    1.7968   19.2477 H   0  0  0  0  0  0  0  0  0  0  0  0
    5.4633    0.5846   20.1676 C   0  0  0  0  0  0  0  0  0  0  0  0
    5.0099    0.5401   21.1567 H   0  0  0  0  0  0  0  0  0  0  0  0
    6.6954   -1.7934   21.6814 C   0  0  0  0  0  0  0  0  0  0  0  0
    5.6381   -2.2626   21.2996 O   0  0  0  0  0  0  0  0  0  0  0  0
  1  2  1  0
  2  3  2  0
  3  4  1  0
  4  5  1  0
  5  6  2  0
  6  7  1  0
  6  8  1  0
  8  9  1  0
  8 10  2  0
 10 11  1  0
 11 12  1  0
 12 13  1  0
 12 14  1  0
 12 15  1  0
 10 16  1  0
 16 17  1  0
 16 18  2  0
 18 19  1  0
  3 20  1  0
 20 21  1  0
 20 22  1  0
 20 23  1  0
 23 24  1  0
 23 25  1  0
 23 26  1  0
 26 27  1  0
 27 28  2  0
 28 29  1  0
 28 30  1  0
 30 31  2  0
 31 32  1  0
 31 33  1  0
 33 34  1  0
 33 35  2  0
 35 36  1  0
 26 37  1  0
 37 38  2  0
 37  2  1  0
 18  5  1  0
 35 27  1  0
M  END
>  <plip>  (1) 
-0.06896551724137931

>  <filename>  (1) 
[H][C]1=[C]([O][c]2[c]([H])[c]([H])[c]([O][C]([H])([H])[H])[c]([H])[c]2[H])[C]([H])([H])[C]([H])([H])[N]([c]2[c]([H])[n][c]([H])[c]([H])[c]2[H])[C]1=[O]

$$$$
