
     RDKit          3D

 29 31  0  0  0  0  0  0  0  0999 V2000
    5.3063    1.5018   17.0983 H   0  0  0  0  0  0  0  0  0  0  0  0
    5.7188    1.0567   17.9994 C   0  0  0  0  0  0  0  0  0  0  0  0
    6.8842    0.4103   17.8488 N   0  0  0  0  0  0  0  0  0  0  0  0
    7.4160   -0.1557   18.9317 C   0  0  0  0  0  0  0  0  0  0  0  0
    8.3751   -0.6549   18.7976 H   0  0  0  0  0  0  0  0  0  0  0  0
    6.8054   -0.1184   20.1916 C   0  0  0  0  0  0  0  0  0  0  0  0
    7.4774   -0.7829   21.2963 C   0  0  0  0  0  0  0  0  0  0  0  0
    7.0641   -0.9455   22.5018 N   0  0  0  0  0  0  0  0  0  0  0  0
    8.1027   -1.6699   23.1193 C   0  0  0  0  0  0  0  0  0  0  0  0
    8.1893   -2.2560   24.4865 C   0  0  0  0  0  0  0  0  0  0  0  0
    9.2978   -3.0017   24.6496 N   0  0  0  0  0  0  0  0  0  0  0  0
    9.5503   -3.5875   25.8139 C   0  0  0  0  0  0  0  0  0  0  0  0
   10.4457   -4.2028   25.8534 H   0  0  0  0  0  0  0  0  0  0  0  0
    8.7256   -3.4329   26.9280 C   0  0  0  0  0  0  0  0  0  0  0  0
    8.9558   -3.9482   27.8494 H   0  0  0  0  0  0  0  0  0  0  0  0
    7.5557   -2.7022   26.7859 C   0  0  0  0  0  0  0  0  0  0  0  0
    6.8557   -2.6338   27.6163 H   0  0  0  0  0  0  0  0  0  0  0  0
    7.2498   -2.1327   25.5422 C   0  0  0  0  0  0  0  0  0  0  0  0
    5.8573   -1.6205   25.2749 C   0  0  0  0  0  0  0  0  0  0  0  0
    5.1157   -1.5655   26.4025 F   0  0  0  0  0  0  0  0  0  0  0  0
    5.2181   -2.4481   24.4272 F   0  0  0  0  0  0  0  0  0  0  0  0
    5.8364   -0.3877   24.7568 F   0  0  0  0  0  0  0  0  0  0  0  0
    9.0840   -1.8681   22.2085 C   0  0  0  0  0  0  0  0  0  0  0  0
   10.0425   -2.3621   22.2607 H   0  0  0  0  0  0  0  0  0  0  0  0
    8.6986   -1.3100   21.0392 O   0  0  0  0  0  0  0  0  0  0  0  0
    5.5921    0.5659   20.3505 C   0  0  0  0  0  0  0  0  0  0  0  0
    5.1166    0.6331   21.3341 H   0  0  0  0  0  0  0  0  0  0  0  0
    5.0425    1.1655   19.2219 C   0  0  0  0  0  0  0  0  0  0  0  0
    4.1162    1.7251   19.2688 H   0  0  0  0  0  0  0  0  0  0  0  0
  1  2  1  0
  2  3  2  0
  3  4  1  0
  4  5  1  0
  4  6  2  0
  6  7  1  0
  7  8  2  0
  8  9  1  0
  9 10  1  0
 10 11  2  0
 11 12  1  0
 12 13  1  0
 12 14  2  0
 14 15  1  0
 14 16  1  0
 16 17  1  0
 16 18  2  0
 18 19  1  0
 19 20  1  0
 19 21  1  0
 19 22  1  0
  9 23  2  0
 23 24  1  0
 23 25  1  0
  6 26  1  0
 26 27  1  0
 26 28  2  0
 28 29  1  0
 28  2  1  0
 25  7  1  0
 18 10  1  0
M  END
>  <plip>  (1) 
-0.034482758620689655

>  <filename>  (1) 
[H][c]1[n][c]([H])[c](-[c]2[n][c](-[c]3[n][c]([H])[c]([H])[c]([H])[c]3[C]([F])([F])[F])[c]([H])[o]2)[c]([H])[c]1[H]

$$$$
