
     RDKit          3D

 41 42  0  0  0  0  0  0  0  0999 V2000
    4.7983    2.1184   32.8137 C   0  0  0  0  0  0  0  0  0  0  0  0
    6.2798    1.9835   32.4197 C   0  0  0  0  0  0  0  0  0  0  0  0
    6.5309    2.1758   30.9401 C   0  0  0  0  0  0  0  0  0  0  0  0
    6.4840    1.0949   30.0458 C   0  0  0  0  0  0  0  0  0  0  0  0
    6.6589    1.2788   28.6737 C   0  0  0  0  0  0  0  0  0  0  0  0
    6.8970    2.5696   28.1556 C   0  0  0  0  0  0  0  0  0  0  0  0
    7.0432    2.8827   26.6797 C   0  0  0  0  0  0  0  0  0  0  0  0
    6.8427    3.9919   26.2140 O   0  0  0  0  0  0  0  0  0  0  0  0
    7.4090    1.8029   25.9174 N   0  0  0  0  0  0  0  0  0  0  0  0
    7.8047    1.9432   24.5569 N   0  0  0  0  0  0  0  0  0  0  0  0
    8.0178    0.7825   23.8009 C   0  0  0  0  0  0  0  0  0  0  0  0
    8.3186   -0.3009   24.2327 O   0  0  0  0  0  0  0  0  0  0  0  0
    7.7691    1.0984   22.4519 N   0  0  0  0  0  0  0  0  0  0  0  0
    8.3713    0.2353   21.5297 O   0  0  0  0  0  0  0  0  0  0  0  0
    7.4050   -0.6738   20.9839 C   0  0  0  0  0  0  0  0  0  0  0  0
    6.6105   -0.0272   19.8779 C   0  0  0  0  0  0  0  0  0  0  0  0
    5.3958    0.6274   20.1115 C   0  0  0  0  0  0  0  0  0  0  0  0
    4.7833    1.3092   19.0564 C   0  0  0  0  0  0  0  0  0  0  0  0
    5.4093    1.3067   17.8071 C   0  0  0  0  0  0  0  0  0  0  0  0
    6.5720    0.6813   17.5616 N   0  0  0  0  0  0  0  0  0  0  0  0
    7.1477    0.0417   18.5846 C   0  0  0  0  0  0  0  0  0  0  0  0
    8.0969   -0.4505   18.3656 H   0  0  0  0  0  0  0  0  0  0  0  0
    4.9632    1.8220   16.9580 H   0  0  0  0  0  0  0  0  0  0  0  0
    3.8488    1.8423   19.1911 H   0  0  0  0  0  0  0  0  0  0  0  0
    4.9686    0.6147   21.1161 H   0  0  0  0  0  0  0  0  0  0  0  0
    8.0280   -1.4870   20.5983 H   0  0  0  0  0  0  0  0  0  0  0  0
    6.7703   -1.0705   21.7904 H   0  0  0  0  0  0  0  0  0  0  0  0
    8.0675    2.0413   22.2350 H   0  0  0  0  0  0  0  0  0  0  0  0
    7.1848    2.5698   24.0515 H   0  0  0  0  0  0  0  0  0  0  0  0
    7.8775    1.0640   26.4285 H   0  0  0  0  0  0  0  0  0  0  0  0
    6.9537    3.6523   29.0508 C   0  0  0  0  0  0  0  0  0  0  0  0
    6.7844    3.4515   30.4175 C   0  0  0  0  0  0  0  0  0  0  0  0
    6.8408    4.2913   31.1029 H   0  0  0  0  0  0  0  0  0  0  0  0
    7.1208    4.6543   28.6630 H   0  0  0  0  0  0  0  0  0  0  0  0
    6.5781    0.4058   28.0251 H   0  0  0  0  0  0  0  0  0  0  0  0
    6.3297    0.0947   30.4434 H   0  0  0  0  0  0  0  0  0  0  0  0
    6.8723    2.7146   32.9839 H   0  0  0  0  0  0  0  0  0  0  0  0
    6.6566    0.9995   32.7283 H   0  0  0  0  0  0  0  0  0  0  0  0
    4.4058    3.1097   32.5570 H   0  0  0  0  0  0  0  0  0  0  0  0
    4.6625    1.9686   33.8914 H   0  0  0  0  0  0  0  0  0  0  0  0
    4.1826    1.3794   32.2886 H   0  0  0  0  0  0  0  0  0  0  0  0
  1  2  1  0
  2  3  1  0
  3  4  2  0
  4  5  1  0
  5  6  2  0
  6  7  1  0
  7  8  2  0
  7  9  1  0
  9 10  1  0
 10 11  1  0
 11 12  2  0
 11 13  1  0
 13 14  1  0
 14 15  1  0
 15 16  1  0
 16 17  2  0
 17 18  1  0
 18 19  2  0
 19 20  1  0
 20 21  2  0
 21 22  1  0
 19 23  1  0
 18 24  1  0
 17 25  1  0
 15 26  1  0
 15 27  1  0
 13 28  1  0
 10 29  1  0
  9 30  1  0
  6 31  1  0
 31 32  2  0
 32 33  1  0
 31 34  1  0
  5 35  1  0
  4 36  1  0
  2 37  1  0
  2 38  1  0
  1 39  1  0
  1 40  1  0
  1 41  1  0
 32  3  1  0
 21 16  1  0
M  END
>  <plip>  (1) 
-0.07142857142857142

>  <filename>  (1) 
[H][c]1[n][c]([H])[c]([C]([H])([H])[O][N]([H])[C](=[O])[N]([H])[N]([H])[C](=[O])[c]2[c]([H])[c]([H])[c]([C]([H])([H])[C]([H])([H])[H])[c]([H])[c]2[H])[c]([H])[c]1[H]

$$$$
