
     RDKit          3D

 43 44  0  0  0  0  0  0  0  0999 V2000
    8.6438    0.5770   25.8474 O   0  0  0  0  0  0  0  0  0  0  0  0
    9.0620    1.0453   24.5716 C   0  0  0  0  0  0  0  0  0  0  0  0
    7.8437    1.1229   23.6349 C   0  0  0  0  0  0  0  0  0  0  0  0
    8.2080    1.3652   22.1755 N   0  0  0  0  0  4  0  0  0  0  0  0
    8.6233    0.0867   21.4699 C   0  0  0  0  0  0  0  0  0  0  0  0
    7.4102   -0.7253   20.9846 C   0  0  0  0  0  0  0  0  0  0  0  0
    6.6407   -0.0132   19.8934 C   0  0  0  0  0  0  0  0  0  0  0  0
    5.4336    0.6512   20.1420 C   0  0  0  0  0  0  0  0  0  0  0  0
    4.7951    1.3201   19.0923 C   0  0  0  0  0  0  0  0  0  0  0  0
    5.3887    1.3056   17.8271 C   0  0  0  0  0  0  0  0  0  0  0  0
    6.5532    0.6910   17.5656 N   0  0  0  0  0  0  0  0  0  0  0  0
    7.1533    0.0640   18.5844 C   0  0  0  0  0  0  0  0  0  0  0  0
    8.1077   -0.4137   18.3533 H   0  0  0  0  0  0  0  0  0  0  0  0
    4.9185    1.8014   16.9787 H   0  0  0  0  0  0  0  0  0  0  0  0
    3.8667    1.8535   19.2413 H   0  0  0  0  0  0  0  0  0  0  0  0
    5.0162    0.6362   21.1547 H   0  0  0  0  0  0  0  0  0  0  0  0
    7.7768   -1.6930   20.6249 H   0  0  0  0  0  0  0  0  0  0  0  0
    6.7487   -0.9469   21.8326 H   0  0  0  0  0  0  0  0  0  0  0  0
    9.2270   -0.5207   22.1495 H   0  0  0  0  0  0  0  0  0  0  0  0
    9.2468    0.3407   20.6132 H   0  0  0  0  0  0  0  0  0  0  0  0
    8.9869    2.0699   22.1499 H   0  0  0  0  0  0  0  0  0  0  0  0
    7.4066    1.7639   21.6131 H   0  0  0  0  0  0  0  0  0  0  0  0
    7.1812    1.9035   24.0099 H   0  0  0  0  0  0  0  0  0  0  0  0
    7.3083    0.1774   23.7349 H   0  0  0  0  0  0  0  0  0  0  0  0
    9.7608    2.3957   24.7853 C   0  0  0  0  0  0  0  0  0  0  0  0
    8.8621    3.5237   25.2491 C   0  0  0  0  0  0  0  0  0  0  0  0
    8.4931    3.6056   26.5983 C   0  0  0  0  0  0  0  0  0  0  0  0
    7.6512    4.6121   27.0619 C   0  0  0  0  0  0  0  0  0  0  0  0
    7.0967    5.5315   26.1548 C   0  0  0  0  0  0  0  0  0  0  0  0
    6.1906    6.6380   26.6510 C   0  0  0  0  0  0  0  0  0  0  0  0
    5.2947    7.0164   25.7192 F   0  0  0  0  0  0  0  0  0  0  0  0
    6.8974    7.7361   26.9849 F   0  0  0  0  0  0  0  0  0  0  0  0
    5.4959    6.2760   27.7479 F   0  0  0  0  0  0  0  0  0  0  0  0
    7.4356    5.4446   24.7912 C   0  0  0  0  0  0  0  0  0  0  0  0
    8.3153    4.4533   24.3489 C   0  0  0  0  0  0  0  0  0  0  0  0
    8.5600    4.3849   23.2892 H   0  0  0  0  0  0  0  0  0  0  0  0
    7.0185    6.1466   24.0737 H   0  0  0  0  0  0  0  0  0  0  0  0
    7.4139    4.6609   28.1241 H   0  0  0  0  0  0  0  0  0  0  0  0
    8.8165    2.8136   27.2600 H   0  0  0  0  0  0  0  0  0  0  0  0
   10.5533    2.1942   25.5122 H   0  0  0  0  0  0  0  0  0  0  0  0
   10.2654    2.6931   23.8594 H   0  0  0  0  0  0  0  0  0  0  0  0
    9.8106    0.3548   24.1476 H   0  0  0  0  0  0  0  0  0  0  0  0
    8.4787   -0.3731   25.8021 H   0  0  0  0  0  0  0  0  0  0  0  0
  1  2  1  0
  2  3  1  0
  3  4  1  0
  4  5  1  0
  5  6  1  0
  6  7  1  0
  7  8  2  0
  8  9  1  0
  9 10  2  0
 10 11  1  0
 11 12  2  0
 12 13  1  0
 10 14  1  0
  9 15  1  0
  8 16  1  0
  6 17  1  0
  6 18  1  0
  5 19  1  0
  5 20  1  0
  4 21  1  0
  4 22  1  0
  3 23  1  0
  3 24  1  0
  2 25  1  0
 25 26  1  0
 26 27  2  0
 27 28  1  0
 28 29  2  0
 29 30  1  0
 30 31  1  0
 30 32  1  0
 30 33  1  0
 29 34  1  0
 34 35  2  0
 35 36  1  0
 34 37  1  0
 28 38  1  0
 27 39  1  0
 25 40  1  0
 25 41  1  0
  2 42  1  0
  1 43  1  0
 12  7  1  0
 35 26  1  0
M  CHG  1   4   1
M  END
>  <plip>  (1) 
-0.10714285714285714

>  <filename>  (1) 
[H][O][C]([H])([C]([H])([H])[c]1[c]([H])[c]([H])[c]([C]([F])([F])[F])[c]([H])[c]1[H])[C]([H])([H])[N+]([H])([H])[C]([H])([H])[C]([H])([H])[c]1[c]([H])[n][c]([H])[c]([H])[c]1[H]

$$$$
