
     RDKit          3D

 42 42  0  0  0  0  0  0  0  0999 V2000
    5.7423    5.6947   23.6522 C   0  0  0  0  0  0  0  0  0  0  0  0
    5.7515    4.7244   24.8302 C   0  0  0  0  0  0  0  0  0  0  0  0
    6.0402    3.4029   24.4148 O   0  0  0  0  0  0  0  0  0  0  0  0
    7.4192    3.1226   24.3075 C   0  0  0  0  0  0  0  0  0  0  0  0
    7.5836    1.7881   23.6071 C   0  0  0  0  0  0  0  0  0  0  0  0
    9.0635    1.3902   23.5237 C   0  0  0  0  0  0  0  0  0  0  0  0
    9.4628   -0.1324   22.7116 S   0  0  0  0  0  0  0  0  0  0  0  0
    9.0473   -1.2125   23.5815 O   0  0  0  0  0  0  0  0  0  0  0  0
   10.7922    0.0296   22.1635 O   0  0  0  0  0  0  0  0  0  0  0  0
    8.5381   -0.1273   21.3912 N   0  0  0  0  0  0  0  0  0  0  0  0
    7.1640   -0.5910   21.3000 C   0  0  2  0  0  0  0  0  0  0  0  0
    7.2366   -2.1150   21.1468 C   0  0  0  0  0  0  0  0  0  0  0  0
    5.9358   -2.8320   20.8502 C   0  0  0  0  0  0  0  0  0  0  0  0
    5.5198   -2.4594   19.5538 O   0  0  0  0  0  0  0  0  0  0  0  0
    4.5774   -2.6189   19.4331 H   0  0  0  0  0  0  0  0  0  0  0  0
    5.1919   -2.5842   21.6243 H   0  0  0  0  0  0  0  0  0  0  0  0
    6.1213   -3.9169   20.9046 H   0  0  0  0  0  0  0  0  0  0  0  0
    7.9501   -2.3299   20.3545 H   0  0  0  0  0  0  0  0  0  0  0  0
    7.6899   -2.5028   22.0620 H   0  0  0  0  0  0  0  0  0  0  0  0
    6.5365    0.1628   20.1621 C   0  0  0  0  0  0  0  0  0  0  0  0
    5.3186    0.8483   20.2382 C   0  0  0  0  0  0  0  0  0  0  0  0
    4.8030    1.4311   19.0765 C   0  0  0  0  0  0  0  0  0  0  0  0
    5.5225    1.2991   17.8827 C   0  0  0  0  0  0  0  0  0  0  0  0
    6.6966    0.6614   17.7974 N   0  0  0  0  0  0  0  0  0  0  0  0
    7.1895    0.1307   18.9225 C   0  0  0  0  0  0  0  0  0  0  0  0
    8.1679   -0.3438   18.8317 H   0  0  0  0  0  0  0  0  0  0  0  0
    5.1394    1.7147   16.9536 H   0  0  0  0  0  0  0  0  0  0  0  0
    3.8675    1.9743   19.0837 H   0  0  0  0  0  0  0  0  0  0  0  0
    4.7795    0.9330   21.1863 H   0  0  0  0  0  0  0  0  0  0  0  0
    6.6079   -0.3759   22.2276 H   0  0  0  0  0  0  0  0  0  0  0  0
    8.9564    0.5311   20.7581 H   0  0  0  0  0  0  0  0  0  0  0  0
    9.5234    1.2291   24.5035 H   0  0  0  0  0  0  0  0  0  0  0  0
    9.6655    2.1141   22.9681 H   0  0  0  0  0  0  0  0  0  0  0  0
    7.1498    1.8929   22.6021 H   0  0  0  0  0  0  0  0  0  0  0  0
    6.9958    1.0277   24.1376 H   0  0  0  0  0  0  0  0  0  0  0  0
    7.8877    3.0843   25.3055 H   0  0  0  0  0  0  0  0  0  0  0  0
    7.9461    3.9025   23.7293 H   0  0  0  0  0  0  0  0  0  0  0  0
    6.4668    5.0593   25.6044 H   0  0  0  0  0  0  0  0  0  0  0  0
    4.7649    4.6816   25.3023 H   0  0  0  0  0  0  0  0  0  0  0  0
    6.7188    5.7235   23.1539 H   0  0  0  0  0  0  0  0  0  0  0  0
    4.9986    5.3847   22.9108 H   0  0  0  0  0  0  0  0  0  0  0  0
    5.5035    6.7112   23.9841 H   0  0  0  0  0  0  0  0  0  0  0  0
  1  2  1  0
  2  3  1  0
  3  4  1  0
  4  5  1  0
  5  6  1  0
  6  7  1  0
  7  8  2  0
  7  9  2  0
  7 10  1  0
 10 11  1  0
 11 12  1  0
 12 13  1  0
 13 14  1  0
 14 15  1  0
 13 16  1  0
 13 17  1  0
 12 18  1  0
 12 19  1  0
 11 20  1  0
 20 21  2  0
 21 22  1  0
 22 23  2  0
 23 24  1  0
 24 25  2  0
 25 26  1  0
 23 27  1  0
 22 28  1  0
 21 29  1  0
 11 30  1  1
 10 31  1  0
  6 32  1  0
  6 33  1  0
  5 34  1  0
  5 35  1  0
  4 36  1  0
  4 37  1  0
  2 38  1  0
  2 39  1  0
  1 40  1  0
  1 41  1  0
  1 42  1  0
 25 20  1  0
M  END
>  <plip>  (1) 
-0.1724137931034483

>  <filename>  (1) 
[H][O][C]([H])([H])[C]([H])([H])[C@]([H])([c]1[c]([H])[n][c]([H])[c]([H])[c]1[H])[N]([H])[S](=[O])(=[O])[C]([H])([H])[C]([H])([H])[C]([H])([H])[O][C]([H])([H])[C]([H])([H])[H]

$$$$
