
     RDKit          3D

 37 39  0  0  0  0  0  0  0  0999 V2000
    6.9451   -2.1325   21.0588 C   0  0  0  0  0  0  0  0  0  0  0  0
    7.2316   -0.6376   21.1820 C   0  0  0  0  0  0  0  0  0  0  0  0
    6.5813    0.1373   20.0460 C   0  0  0  0  0  0  0  0  0  0  0  0
    5.3321    0.7595   20.1854 C   0  0  0  0  0  0  0  0  0  0  0  0
    4.7508    1.3584   19.0624 C   0  0  0  0  0  0  0  0  0  0  0  0
    5.4305    1.3080   17.8396 C   0  0  0  0  0  0  0  0  0  0  0  0
    6.6168    0.7015   17.6822 N   0  0  0  0  0  0  0  0  0  0  0  0
    7.1668    0.1397   18.7679 C   0  0  0  0  0  0  0  0  0  0  0  0
    8.1126   -0.3728   18.5937 H   0  0  0  0  0  0  0  0  0  0  0  0
    5.0012    1.7718   16.9519 H   0  0  0  0  0  0  0  0  0  0  0  0
    3.7955    1.8686   19.1259 H   0  0  0  0  0  0  0  0  0  0  0  0
    4.8019    0.7536   21.1421 H   0  0  0  0  0  0  0  0  0  0  0  0
    8.6703   -0.3585   21.2567 N   0  0  0  0  0  0  0  0  0  0  0  0
    9.6984   -1.2486   20.7395 C   0  0  0  0  0  0  0  0  0  0  0  0
    9.2573   -2.1112   20.2336 H   0  0  0  0  0  0  0  0  0  0  0  0
   10.3135   -0.6848   20.0358 H   0  0  0  0  0  0  0  0  0  0  0  0
   10.3676   -1.6105   21.5333 H   0  0  0  0  0  0  0  0  0  0  0  0
    9.1205    0.8180   21.7835 C   0  0  0  0  0  0  0  0  0  0  0  0
   10.3755    1.1535   21.9221 N   0  0  0  0  0  0  0  0  0  0  0  0
   10.3345    2.4145   22.5127 C   0  0  0  0  0  0  0  0  0  0  0  0
   11.3764    3.2416   22.9568 C   0  0  0  0  0  0  0  0  0  0  0  0
   11.0383    4.4514   23.5783 C   0  0  0  0  0  0  0  0  0  0  0  0
   12.1122    5.3325   24.1047 N   0  0  0  0  0  4  0  0  0  0  0  0
   11.7887    6.3930   24.6132 O   0  0  0  0  0  0  0  0  0  0  0  0
   13.2673    4.9476   24.0073 O   0  0  0  0  0  1  0  0  0  0  0  0
    9.6879    4.8521   23.7339 C   0  0  0  0  0  0  0  0  0  0  0  0
    8.6568    4.0355   23.2793 C   0  0  0  0  0  0  0  0  0  0  0  0
    8.9960    2.8245   22.6874 C   0  0  0  0  0  0  0  0  0  0  0  0
    8.2272    1.7615   22.2492 N   0  0  0  0  0  0  0  0  0  0  0  0
    7.3470    1.8612   21.7736 H   0  0  0  0  0  0  0  0  0  0  0  0
    7.6182    4.3248   23.3980 H   0  0  0  0  0  0  0  0  0  0  0  0
    9.4622    5.7960   24.2193 H   0  0  0  0  0  0  0  0  0  0  0  0
   12.4067    2.9206   22.8322 H   0  0  0  0  0  0  0  0  0  0  0  0
    6.7726   -0.2894   22.1214 H   0  0  0  0  0  0  0  0  0  0  0  0
    7.6960   -2.7054   21.6107 H   0  0  0  0  0  0  0  0  0  0  0  0
    5.9590   -2.3463   21.4760 H   0  0  0  0  0  0  0  0  0  0  0  0
    6.9351   -2.4486   20.0086 H   0  0  0  0  0  0  0  0  0  0  0  0
  1  2  1  0
  2  3  1  0
  3  4  2  0
  4  5  1  0
  5  6  2  0
  6  7  1  0
  7  8  2  0
  8  9  1  0
  6 10  1  0
  5 11  1  0
  4 12  1  0
  2 13  1  0
 13 14  1  0
 14 15  1  0
 14 16  1  0
 14 17  1  0
 13 18  1  0
 18 19  2  0
 19 20  1  0
 20 21  2  0
 21 22  1  0
 22 23  1  0
 23 24  2  0
 23 25  1  0
 22 26  2  0
 26 27  1  0
 27 28  2  0
 28 29  1  0
 29 30  1  0
 27 31  1  0
 26 32  1  0
 21 33  1  0
  2 34  1  0
  1 35  1  0
  1 36  1  0
  1 37  1  0
  8  3  1  0
 29 18  1  0
 28 20  1  0
M  CHG  2  23   1  25  -1
M  END
>  <plip>  (1) 
-0.03571428571428571

>  <filename>  (1) 
[H][c]1[n][c]([H])[c]([C]([H])([N]([c]2[n][c]3[c]([H])[c]([N+](=[O])[O-])[c]([H])[c]([H])[c]3[n]2[H])[C]([H])([H])[H])[C]([H])([H])[H])[c]([H])[c]1[H]

$$$$
