
     RDKit          3D

 34 36  0  0  0  0  0  0  0  0999 V2000
    4.8036    1.3305   19.0515 C   0  0  0  0  0  0  0  0  0  0  0  0
    5.4119    1.3128   17.7922 C   0  0  0  0  0  0  0  0  0  0  0  0
    6.5709    0.6831   17.5452 N   0  0  0  0  0  0  0  0  0  0  0  0
    7.1590    0.0629   18.5767 C   0  0  0  0  0  0  0  0  0  0  0  0
    6.6398    0.0051   19.8857 C   0  0  0  0  0  0  0  0  0  0  0  0
    7.3675   -0.7340   20.9599 C   0  0  0  0  0  0  0  0  0  0  0  0
    8.7615   -0.6212   21.0915 C   0  0  0  0  0  0  0  0  0  0  0  0
    9.4724   -1.3159   22.0799 C   0  0  0  0  0  0  0  0  0  0  0  0
   10.9759   -1.1177   22.2226 C   0  0  0  0  0  0  0  0  0  0  0  0
   11.3817   -0.4708   23.4671 N   0  0  0  0  0  0  0  0  0  0  0  0
   10.7963    0.7052   23.8920 C   0  0  0  0  0  0  0  0  0  0  0  0
   10.4461    1.7427   23.0012 C   0  0  0  0  0  0  0  0  0  0  0  0
    9.9166    2.8942   23.5558 C   0  0  0  0  0  0  0  0  0  0  0  0
    9.7274    2.9386   24.9523 C   0  0  0  0  0  0  0  0  0  0  0  0
   10.0653    1.9204   25.7376 N   0  0  0  0  0  0  0  0  0  0  0  0
   10.6151    0.8113   25.2149 N   0  0  0  0  0  0  0  0  0  0  0  0
    9.3277    3.8092   25.4705 H   0  0  0  0  0  0  0  0  0  0  0  0
    9.6528    3.7479   22.9395 H   0  0  0  0  0  0  0  0  0  0  0  0
   10.5633    1.5944   21.9298 H   0  0  0  0  0  0  0  0  0  0  0  0
   11.3819   -1.0855   24.2669 H   0  0  0  0  0  0  0  0  0  0  0  0
   11.3643   -0.5607   21.3583 H   0  0  0  0  0  0  0  0  0  0  0  0
   11.4936   -2.0835   22.1861 H   0  0  0  0  0  0  0  0  0  0  0  0
    8.7546   -2.1236   22.9828 C   0  0  0  0  0  0  0  0  0  0  0  0
    7.3674   -2.2562   22.8628 C   0  0  0  0  0  0  0  0  0  0  0  0
    6.6834   -1.5765   21.8524 C   0  0  0  0  0  0  0  0  0  0  0  0
    5.6128   -1.7156   21.7345 H   0  0  0  0  0  0  0  0  0  0  0  0
    6.8173   -2.8843   23.5623 H   0  0  0  0  0  0  0  0  0  0  0  0
    9.2666   -2.6305   23.8017 H   0  0  0  0  0  0  0  0  0  0  0  0
    9.2920    0.0593   20.4275 H   0  0  0  0  0  0  0  0  0  0  0  0
    5.4199    0.6659   20.1135 C   0  0  0  0  0  0  0  0  0  0  0  0
    4.9795    0.6764   21.1125 H   0  0  0  0  0  0  0  0  0  0  0  0
    8.0976   -0.4401   18.3484 H   0  0  0  0  0  0  0  0  0  0  0  0
    4.9520    1.8230   16.9478 H   0  0  0  0  0  0  0  0  0  0  0  0
    3.8707    1.8636   19.1872 H   0  0  0  0  0  0  0  0  0  0  0  0
  1  2  2  0
  2  3  1  0
  3  4  2  0
  4  5  1  0
  5  6  1  0
  6  7  2  0
  7  8  1  0
  8  9  1  0
  9 10  1  0
 10 11  1  0
 11 12  2  0
 12 13  1  0
 13 14  2  0
 14 15  1  0
 15 16  2  0
 14 17  1  0
 13 18  1  0
 12 19  1  0
 10 20  1  0
  9 21  1  0
  9 22  1  0
  8 23  2  0
 23 24  1  0
 24 25  2  0
 25 26  1  0
 24 27  1  0
 23 28  1  0
  7 29  1  0
  5 30  2  0
 30 31  1  0
  4 32  1  0
  2 33  1  0
  1 34  1  0
 30  1  1  0
 25  6  1  0
 16 11  1  0
M  END
>  <plip>  (1) 
-0.03571428571428571

>  <filename>  (1) 
[H][c]1[n][n][c]([N]([H])[C]([H])([H])[c]2[c]([H])[c]([H])[c]([H])[c](-[c]3[c]([H])[n][c]([H])[c]([H])[c]3[H])[c]2[H])[c]([H])[c]1[H]

$$$$
