
     RDKit          3D

 39 41  0  0  0  0  0  0  0  0999 V2000
    4.9097    1.7933   16.9845 H   0  0  0  0  0  0  0  0  0  0  0  0
    5.3957    1.3012   17.8244 C   0  0  0  0  0  0  0  0  0  0  0  0
    6.5590    0.6859   17.5613 N   0  0  0  0  0  0  0  0  0  0  0  0
    7.1652    0.0612   18.5867 C   0  0  0  0  0  0  0  0  0  0  0  0
    8.1134   -0.4258   18.3585 H   0  0  0  0  0  0  0  0  0  0  0  0
    6.6564   -0.0101   19.9133 C   0  0  0  0  0  0  0  0  0  0  0  0
    7.2724   -0.7333   20.9654 N   0  0  0  0  0  0  0  0  0  0  0  0
    7.4730   -1.7125   20.8085 H   0  0  0  0  0  0  0  0  0  0  0  0
    8.1252   -0.0545   21.9486 C   0  0  0  0  0  0  0  0  0  0  0  0
    7.2385    0.7230   22.9563 C   0  0  0  0  0  0  0  0  0  0  0  0
    6.4139    0.0511   23.2471 H   0  0  0  0  0  0  0  0  0  0  0  0
    6.7603    1.5470   22.4018 H   0  0  0  0  0  0  0  0  0  0  0  0
    7.9502    1.2293   24.1435 N   0  0  0  0  0  0  0  0  0  0  0  0
    7.4895    0.6189   25.4015 C   0  0  0  0  0  0  0  0  0  0  0  0
    6.4248    0.8431   25.5921 H   0  0  0  0  0  0  0  0  0  0  0  0
    7.5840   -0.4734   25.3461 H   0  0  0  0  0  0  0  0  0  0  0  0
    8.3144    1.1300   26.5840 C   0  0  0  0  0  0  0  0  0  0  0  0
    9.3589    0.8012   26.4703 H   0  0  0  0  0  0  0  0  0  0  0  0
    7.9225    0.7261   27.5207 H   0  0  0  0  0  0  0  0  0  0  0  0
    8.2653    2.5495   26.6923 O   0  0  0  0  0  0  0  0  0  0  0  0
    8.7328    3.1441   25.4863 C   0  0  0  0  0  0  0  0  0  0  0  0
    8.6513    4.2261   25.6143 H   0  0  0  0  0  0  0  0  0  0  0  0
    9.7905    2.8845   25.3317 H   0  0  0  0  0  0  0  0  0  0  0  0
    7.9235    2.6939   24.2708 C   0  0  0  0  0  0  0  0  0  0  0  0
    6.8920    3.0737   24.3773 H   0  0  0  0  0  0  0  0  0  0  0  0
    8.3519    3.1571   23.3723 H   0  0  0  0  0  0  0  0  0  0  0  0
    9.3005    0.8016   21.3788 C   0  0  0  0  0  0  0  0  0  0  0  0
    9.3306    0.8180   20.2891 H   0  0  0  0  0  0  0  0  0  0  0  0
    9.3267    1.8408   21.7255 H   0  0  0  0  0  0  0  0  0  0  0  0
   10.3239   -0.1473   22.0470 C   0  0  0  0  0  0  0  0  0  0  0  0
   10.9415    0.3235   22.8169 H   0  0  0  0  0  0  0  0  0  0  0  0
   10.9858   -0.6685   21.3501 H   0  0  0  0  0  0  0  0  0  0  0  0
    9.1583   -1.0137   22.5881 C   0  0  0  0  0  0  0  0  0  0  0  0
    9.1026   -2.0396   22.2126 H   0  0  0  0  0  0  0  0  0  0  0  0
    9.1055   -1.0571   23.6781 H   0  0  0  0  0  0  0  0  0  0  0  0
    5.4426    0.6506   20.1517 C   0  0  0  0  0  0  0  0  0  0  0  0
    5.0223    0.6121   21.1586 H   0  0  0  0  0  0  0  0  0  0  0  0
    4.8068    1.3130   19.0934 C   0  0  0  0  0  0  0  0  0  0  0  0
    3.8765    1.8403   19.2571 H   0  0  0  0  0  0  0  0  0  0  0  0
  1  2  1  0
  2  3  2  0
  3  4  1  0
  4  5  1  0
  4  6  2  0
  6  7  1  0
  7  8  1  0
  7  9  1  0
  9 10  1  0
 10 11  1  0
 10 12  1  0
 10 13  1  0
 13 14  1  0
 14 15  1  0
 14 16  1  0
 14 17  1  0
 17 18  1  0
 17 19  1  0
 17 20  1  0
 20 21  1  0
 21 22  1  0
 21 23  1  0
 21 24  1  0
 24 25  1  0
 24 26  1  0
  9 27  1  0
 27 28  1  0
 27 29  1  0
 27 30  1  0
 30 31  1  0
 30 32  1  0
 30 33  1  0
 33 34  1  0
 33 35  1  0
  6 36  1  0
 36 37  1  0
 36 38  2  0
 38 39  1  0
 38  2  1  0
 33  9  1  0
 24 13  1  0
M  END
>  <plip>  (1) 
-0.03571428571428571

>  <filename>  (1) 
[H][c]1[n][c]([H])[c]([N]([H])[C]2([C]([H])([H])[N]3[C]([H])([H])[C]([H])([H])[O][C]([H])([H])[C]3([H])[H])[C]([H])([H])[C]([H])([H])[C]2([H])[H])[c]([H])[c]1[H]

$$$$
