
     RDKit          3D

 40 42  0  0  0  0  0  0  0  0999 V2000
    4.1045    4.3082   26.8947 H   0  0  0  0  0  0  0  0  0  0  0  0
    5.0431    4.4297   27.0880 O   0  0  0  0  0  0  0  0  0  0  0  0
    5.6917    3.1772   26.9464 C   0  0  0  0  0  0  0  0  0  0  0  0
    5.2591    2.4238   27.6266 H   0  0  0  0  0  0  0  0  0  0  0  0
    6.7294    3.3423   27.2661 H   0  0  0  0  0  0  0  0  0  0  0  0
    5.6881    2.6363   25.5098 C   0  0  0  0  0  0  0  0  0  0  0  0
    4.6313    2.5692   25.1869 H   0  0  0  0  0  0  0  0  0  0  0  0
    6.3093    1.2228   25.4469 C   0  0  0  0  0  0  0  0  0  0  0  0
    5.7452    0.5267   26.0810 H   0  0  0  0  0  0  0  0  0  0  0  0
    7.3370    1.2547   25.8396 H   0  0  0  0  0  0  0  0  0  0  0  0
    6.3547    0.6954   24.0051 C   0  0  0  0  0  0  0  0  0  0  0  0
    5.3173    0.5380   23.6585 H   0  0  0  0  0  0  0  0  0  0  0  0
    6.8860   -0.2602   23.9490 H   0  0  0  0  0  0  0  0  0  0  0  0
    7.0415    1.6481   23.1463 N   0  0  0  0  0  0  0  0  0  0  0  0
    8.1728    1.3059   22.4385 C   0  0  0  0  0  0  0  0  0  0  0  0
    8.4303    0.2505   21.5767 C   0  0  0  0  0  0  0  0  0  0  0  0
    7.4106   -0.7046   21.0041 C   0  0  0  0  0  0  0  0  0  0  0  0
    7.9260   -1.6016   20.6369 H   0  0  0  0  0  0  0  0  0  0  0  0
    6.7246   -1.0615   21.7862 H   0  0  0  0  0  0  0  0  0  0  0  0
    6.6199   -0.0362   19.8904 C   0  0  0  0  0  0  0  0  0  0  0  0
    7.1404    0.0477   18.5868 C   0  0  0  0  0  0  0  0  0  0  0  0
    8.0897   -0.4268   18.3418 H   0  0  0  0  0  0  0  0  0  0  0  0
    6.5473    0.6803   17.5668 N   0  0  0  0  0  0  0  0  0  0  0  0
    5.3891    1.3065   17.8235 C   0  0  0  0  0  0  0  0  0  0  0  0
    4.9275    1.8141   16.9770 H   0  0  0  0  0  0  0  0  0  0  0  0
    4.7868    1.3189   19.0855 C   0  0  0  0  0  0  0  0  0  0  0  0
    3.8580    1.8611   19.2306 H   0  0  0  0  0  0  0  0  0  0  0  0
    5.4171    0.6404   20.1346 C   0  0  0  0  0  0  0  0  0  0  0  0
    4.9828    0.6410   21.1368 H   0  0  0  0  0  0  0  0  0  0  0  0
    9.7767    0.4442   21.1912 C   0  0  0  0  0  0  0  0  0  0  0  0
   10.3768   -0.1586   20.5151 H   0  0  0  0  0  0  0  0  0  0  0  0
   10.3254    1.5130   21.7493 N   0  0  0  0  0  0  0  0  0  0  0  0
    9.3234    2.0305   22.4903 N   0  0  0  0  0  0  0  0  0  0  0  0
    9.4763    2.8141   23.1085 H   0  0  0  0  0  0  0  0  0  0  0  0
    6.4689    2.9898   23.1194 C   0  0  0  0  0  0  0  0  0  0  0  0
    7.0600    3.6037   22.4324 H   0  0  0  0  0  0  0  0  0  0  0  0
    5.4427    2.9460   22.7124 H   0  0  0  0  0  0  0  0  0  0  0  0
    6.4302    3.5779   24.5355 C   0  0  0  0  0  0  0  0  0  0  0  0
    7.4658    3.7077   24.8848 H   0  0  0  0  0  0  0  0  0  0  0  0
    5.9663    4.5709   24.5388 H   0  0  0  0  0  0  0  0  0  0  0  0
  1  2  1  0
  2  3  1  0
  3  4  1  0
  3  5  1  0
  3  6  1  0
  6  7  1  0
  6  8  1  0
  8  9  1  0
  8 10  1  0
  8 11  1  0
 11 12  1  0
 11 13  1  0
 11 14  1  0
 14 15  1  0
 15 16  2  0
 16 17  1  0
 17 18  1  0
 17 19  1  0
 17 20  1  0
 20 21  2  0
 21 22  1  0
 21 23  1  0
 23 24  2  0
 24 25  1  0
 24 26  1  0
 26 27  1  0
 26 28  2  0
 28 29  1  0
 16 30  1  0
 30 31  1  0
 30 32  2  0
 32 33  1  0
 33 34  1  0
 14 35  1  0
 35 36  1  0
 35 37  1  0
 35 38  1  0
 38 39  1  0
 38 40  1  0
 38  6  1  0
 33 15  1  0
 28 20  1  0
M  END
>  <plip>  (1) 
-0.03571428571428571

>  <filename>  (1) 
[H][O][C]([H])([H])[C]1([H])[C]([H])([H])[C]([H])([H])[N]([c]2[c]([C]([H])([H])[c]3[c]([H])[n][c]([H])[c]([H])[c]3[H])[c]([H])[n][n]2[H])[C]([H])([H])[C]1([H])[H]

$$$$
