
     RDKit          3D

 38 40  0  0  0  0  0  0  0  0999 V2000
    7.9489    6.1371   27.0939 H   0  0  0  0  0  0  0  0  0  0  0  0
    7.7293    5.3308   27.5769 O   0  0  0  0  0  0  0  0  0  0  0  0
    7.0776    4.4641   26.6575 C   0  0  0  0  0  0  0  0  0  0  0  0
    6.3052    4.9819   26.0720 H   0  0  0  0  0  0  0  0  0  0  0  0
    6.5677    3.6956   27.2452 H   0  0  0  0  0  0  0  0  0  0  0  0
    8.0674    3.8059   25.6967 C   0  0  0  0  0  0  0  0  0  0  0  0
    8.6273    4.6096   25.2020 H   0  0  0  0  0  0  0  0  0  0  0  0
    8.8143    3.2310   26.2753 H   0  0  0  0  0  0  0  0  0  0  0  0
    7.3901    2.9946   24.6885 N   0  0  0  0  0  0  0  0  0  0  0  0
    8.1629    2.8960   23.4392 C   0  0  0  0  0  0  0  0  0  0  0  0
    8.3632    3.9062   23.0630 H   0  0  0  0  0  0  0  0  0  0  0  0
    9.1436    2.4094   23.6045 H   0  0  0  0  0  0  0  0  0  0  0  0
    7.3898    2.1166   22.3661 C   0  0  0  0  0  0  0  0  0  0  0  0
    6.5134    2.7045   22.0644 H   0  0  0  0  0  0  0  0  0  0  0  0
    8.0117    1.9798   21.4768 H   0  0  0  0  0  0  0  0  0  0  0  0
    6.9486    0.8096   22.8501 N   0  0  0  0  0  0  0  0  0  0  0  0
    7.4769   -0.3610   22.3218 C   0  0  0  0  0  0  0  0  0  0  0  0
    8.1978   -1.3677   23.0564 C   0  0  0  0  0  0  0  0  0  0  0  0
    8.4085   -1.3119   24.1202 H   0  0  0  0  0  0  0  0  0  0  0  0
    8.6487   -2.3894   22.3822 N   0  0  0  0  0  0  0  0  0  0  0  0
    8.2242   -2.1875   20.7979 S   0  0  0  0  0  0  0  0  0  0  0  0
    7.3912   -0.7056   20.9867 C   0  0  0  0  0  0  0  0  0  0  0  0
    6.6718    0.0060   19.9095 C   0  0  0  0  0  0  0  0  0  0  0  0
    7.1711    0.0633   18.5916 C   0  0  0  0  0  0  0  0  0  0  0  0
    8.1166   -0.4249   18.3669 H   0  0  0  0  0  0  0  0  0  0  0  0
    6.5649    0.6817   17.5750 N   0  0  0  0  0  0  0  0  0  0  0  0
    5.3997    1.2970   17.8394 C   0  0  0  0  0  0  0  0  0  0  0  0
    4.9162    1.7848   16.9957 H   0  0  0  0  0  0  0  0  0  0  0  0
    4.8064    1.3099   19.1060 C   0  0  0  0  0  0  0  0  0  0  0  0
    3.8730    1.8419   19.2579 H   0  0  0  0  0  0  0  0  0  0  0  0
    5.4479    0.6554   20.1594 C   0  0  0  0  0  0  0  0  0  0  0  0
    5.0207    0.6292   21.1632 H   0  0  0  0  0  0  0  0  0  0  0  0
    6.2899    0.8466   24.1501 C   0  0  0  0  0  0  0  0  0  0  0  0
    5.3000    1.3051   24.0318 H   0  0  0  0  0  0  0  0  0  0  0  0
    6.1333   -0.1790   24.4934 H   0  0  0  0  0  0  0  0  0  0  0  0
    7.0866    1.6419   25.1852 C   0  0  0  0  0  0  0  0  0  0  0  0
    6.5072    1.7027   26.1114 H   0  0  0  0  0  0  0  0  0  0  0  0
    8.0145    1.0902   25.4309 H   0  0  0  0  0  0  0  0  0  0  0  0
  1  2  1  0
  2  3  1  0
  3  4  1  0
  3  5  1  0
  3  6  1  0
  6  7  1  0
  6  8  1  0
  6  9  1  0
  9 10  1  0
 10 11  1  0
 10 12  1  0
 10 13  1  0
 13 14  1  0
 13 15  1  0
 13 16  1  0
 16 17  1  0
 17 18  1  0
 18 19  1  0
 18 20  2  0
 20 21  1  0
 21 22  1  0
 22 23  1  0
 23 24  2  0
 24 25  1  0
 24 26  1  0
 26 27  2  0
 27 28  1  0
 27 29  1  0
 29 30  1  0
 29 31  2  0
 31 32  1  0
 16 33  1  0
 33 34  1  0
 33 35  1  0
 33 36  1  0
 36 37  1  0
 36 38  1  0
 36  9  1  0
 22 17  2  0
 31 23  1  0
M  END
>  <plip>  (1) 
-0.03571428571428571

>  <filename>  (1) 
[H][O][C]([H])([H])[C]([H])([H])[N]1[C]([H])([H])[C]([H])([H])[N]([c]2[c]([H])[n][s][c]2-[c]2[c]([H])[n][c]([H])[c]([H])[c]2[H])[C]([H])([H])[C]1([H])[H]

$$$$
