
     RDKit          3D

 46 47  0  0  0  0  0  0  0  0999 V2000
    6.8794   -5.1556   25.2310 C   0  0  0  0  0  0  0  0  0  0  0  0
    6.5089   -4.1711   24.1412 C   0  0  0  0  0  0  0  0  0  0  0  0
    7.0422   -4.6578   22.9184 O   0  0  0  0  0  0  0  0  0  0  0  0
    6.9076   -3.8088   21.7967 C   0  0  0  0  0  0  0  0  0  0  0  0
    8.1743   -2.9550   21.6175 C   0  0  0  0  0  0  0  0  0  0  0  0
    8.0140   -1.8657   20.6295 N   0  0  0  0  0  4  0  0  0  0  0  0
    7.2888   -0.6456   21.1318 C   0  0  0  0  0  0  0  0  0  0  0  0
    8.2834    0.2722   21.8634 C   0  0  0  0  0  0  0  0  0  0  0  0
    9.3251    0.9481   20.9650 C   0  0  0  0  0  0  0  0  0  0  0  0
   10.3230    1.7730   21.7370 C   0  0  0  0  0  0  0  0  0  0  0  0
   11.5640    1.2535   22.1408 C   0  0  0  0  0  0  0  0  0  0  0  0
   12.4368    2.0343   22.9074 C   0  0  0  0  0  0  0  0  0  0  0  0
   12.1026    3.3542   23.2262 C   0  0  0  0  0  0  0  0  0  0  0  0
   10.8721    3.8800   22.8232 C   0  0  0  0  0  0  0  0  0  0  0  0
    9.9770    3.0781   22.1158 C   0  0  0  0  0  0  0  0  0  0  0  0
    9.0104    3.4888   21.8219 H   0  0  0  0  0  0  0  0  0  0  0  0
   10.6077    4.9104   23.0479 H   0  0  0  0  0  0  0  0  0  0  0  0
   12.7930    3.9696   23.7899 H   0  0  0  0  0  0  0  0  0  0  0  0
   13.3880    1.6214   23.2314 H   0  0  0  0  0  0  0  0  0  0  0  0
   11.8587    0.2440   21.8583 H   0  0  0  0  0  0  0  0  0  0  0  0
    9.8398    0.1976   20.3521 H   0  0  0  0  0  0  0  0  0  0  0  0
    8.7799    1.5854   20.2672 H   0  0  0  0  0  0  0  0  0  0  0  0
    7.7356    1.0217   22.4359 H   0  0  0  0  0  0  0  0  0  0  0  0
    8.8023   -0.3303   22.6138 H   0  0  0  0  0  0  0  0  0  0  0  0
    6.5816   -0.0317   19.9493 C   0  0  0  0  0  0  0  0  0  0  0  0
    5.3749    0.6554   20.1377 C   0  0  0  0  0  0  0  0  0  0  0  0
    4.7962    1.3058   19.0507 C   0  0  0  0  0  0  0  0  0  0  0  0
    5.4355    1.2565   17.8085 C   0  0  0  0  0  0  0  0  0  0  0  0
    6.5746    0.5818   17.5991 N   0  0  0  0  0  0  0  0  0  0  0  0
    7.1209   -0.0481   18.6518 C   0  0  0  0  0  0  0  0  0  0  0  0
    8.0611   -0.5568   18.4268 H   0  0  0  0  0  0  0  0  0  0  0  0
    5.0186    1.7893   16.9557 H   0  0  0  0  0  0  0  0  0  0  0  0
    3.8784    1.8739   19.1660 H   0  0  0  0  0  0  0  0  0  0  0  0
    4.8961    0.6771   21.1212 H   0  0  0  0  0  0  0  0  0  0  0  0
    6.5395   -0.9718   21.8647 H   0  0  0  0  0  0  0  0  0  0  0  0
    7.5127   -2.1825   19.7686 H   0  0  0  0  0  0  0  0  0  0  0  0
    8.9491   -1.5109   20.3307 H   0  0  0  0  0  0  0  0  0  0  0  0
    8.4188   -2.5496   22.6082 H   0  0  0  0  0  0  0  0  0  0  0  0
    9.0122   -3.5981   21.3414 H   0  0  0  0  0  0  0  0  0  0  0  0
    6.0201   -3.1527   21.8559 H   0  0  0  0  0  0  0  0  0  0  0  0
    6.7651   -4.4580   20.9267 H   0  0  0  0  0  0  0  0  0  0  0  0
    5.4117   -4.0765   24.0715 H   0  0  0  0  0  0  0  0  0  0  0  0
    6.9069   -3.1704   24.3877 H   0  0  0  0  0  0  0  0  0  0  0  0
    6.4621   -6.1393   25.0053 H   0  0  0  0  0  0  0  0  0  0  0  0
    7.9662   -5.2487   25.3088 H   0  0  0  0  0  0  0  0  0  0  0  0
    6.4895   -4.8376   26.2035 H   0  0  0  0  0  0  0  0  0  0  0  0
  1  2  1  0
  2  3  1  0
  3  4  1  0
  4  5  1  0
  5  6  1  0
  6  7  1  0
  7  8  1  0
  8  9  1  0
  9 10  1  0
 10 11  2  0
 11 12  1  0
 12 13  2  0
 13 14  1  0
 14 15  2  0
 15 16  1  0
 14 17  1  0
 13 18  1  0
 12 19  1  0
 11 20  1  0
  9 21  1  0
  9 22  1  0
  8 23  1  0
  8 24  1  0
  7 25  1  0
 25 26  2  0
 26 27  1  0
 27 28  2  0
 28 29  1  0
 29 30  2  0
 30 31  1  0
 28 32  1  0
 27 33  1  0
 26 34  1  0
  7 35  1  0
  6 36  1  0
  6 37  1  0
  5 38  1  0
  5 39  1  0
  4 40  1  0
  4 41  1  0
  2 42  1  0
  2 43  1  0
  1 44  1  0
  1 45  1  0
  1 46  1  0
 15 10  1  0
 30 25  1  0
M  CHG  1   6   1
M  END
>  <plip>  (1) 
-0.1

>  <filename>  (1) 
[H][c]1[n][c]([H])[c]([C]([H])([C]([H])([H])[C]([H])([H])[c]2[c]([H])[c]([H])[c]([H])[c]([H])[c]2[H])[N+]([H])([H])[C]([H])([H])[C]([H])([H])[O][C]([H])([H])[C]([H])([H])[H])[c]([H])[c]1[H]

$$$$
