
     RDKit          3D

 36 38  0  0  0  0  0  0  0  0999 V2000
    9.3193    4.2458   22.3556 H   0  0  0  0  0  0  0  0  0  0  0  0
    9.8084    3.4712   22.6546 O   0  0  0  0  0  0  0  0  0  0  0  0
    9.2605    3.0303   23.8865 C   0  0  0  0  0  0  0  0  0  0  0  0
    9.4779    3.7609   24.6844 H   0  0  0  0  0  0  0  0  0  0  0  0
    7.7471    2.8227   23.7879 C   0  0  0  0  0  0  0  0  0  0  0  0
    7.3819    2.5426   24.7843 H   0  0  0  0  0  0  0  0  0  0  0  0
    7.2443    3.7557   23.5003 H   0  0  0  0  0  0  0  0  0  0  0  0
    7.3784    1.7240   22.7924 C   0  0  0  0  0  0  0  0  0  0  0  0
    6.3170    1.4877   22.9357 H   0  0  0  0  0  0  0  0  0  0  0  0
    7.5024    2.0797   21.7547 H   0  0  0  0  0  0  0  0  0  0  0  0
    8.1383    0.5045   23.0414 N   0  0  0  0  0  0  0  0  0  0  0  0
    7.6918   -0.6404   22.2704 C   0  0  0  0  0  0  0  0  0  0  0  0
    7.8358   -0.7400   20.7113 C   0  0  0  0  0  0  0  0  0  0  0  0
    8.6936   -1.4501   20.2192 O   0  0  0  0  0  0  0  0  0  0  0  0
    6.8852   -0.0126   19.7956 C   0  0  0  0  0  0  0  0  0  0  0  0
    7.2727    0.0565   18.4451 C   0  0  0  0  0  0  0  0  0  0  0  0
    8.1908   -0.4343   18.1266 H   0  0  0  0  0  0  0  0  0  0  0  0
    6.5817    0.6929   17.5024 N   0  0  0  0  0  0  0  0  0  0  0  0
    5.4325    1.2818   17.8675 C   0  0  0  0  0  0  0  0  0  0  0  0
    4.9060    1.8146   17.0790 H   0  0  0  0  0  0  0  0  0  0  0  0
    4.9236    1.2297   19.1675 C   0  0  0  0  0  0  0  0  0  0  0  0
    3.9836    1.7232   19.3894 H   0  0  0  0  0  0  0  0  0  0  0  0
    5.6558    0.5685   20.1573 C   0  0  0  0  0  0  0  0  0  0  0  0
    5.2623    0.5161   21.1758 H   0  0  0  0  0  0  0  0  0  0  0  0
    7.9093   -1.9190   23.0280 C   0  0  0  0  0  0  0  0  0  0  0  0
    8.2014   -2.7886   22.4582 H   0  0  0  0  0  0  0  0  0  0  0  0
    8.3737   -1.8002   24.0004 H   0  0  0  0  0  0  0  0  0  0  0  0
    6.5212   -1.3867   22.8940 C   0  0  0  0  0  0  0  0  0  0  0  0
    6.0721   -0.9407   23.7798 H   0  0  0  0  0  0  0  0  0  0  0  0
    5.8315   -1.9242   22.2476 H   0  0  0  0  0  0  0  0  0  0  0  0
    9.5974    0.6814   23.1068 C   0  0  0  0  0  0  0  0  0  0  0  0
   10.0168    1.0057   22.1397 H   0  0  0  0  0  0  0  0  0  0  0  0
   10.0467   -0.2909   23.3449 H   0  0  0  0  0  0  0  0  0  0  0  0
    9.9512    1.7037   24.1932 C   0  0  0  0  0  0  0  0  0  0  0  0
    9.6168    1.3364   25.1714 H   0  0  0  0  0  0  0  0  0  0  0  0
   11.0353    1.8606   24.2487 H   0  0  0  0  0  0  0  0  0  0  0  0
  1  2  1  0
  2  3  1  0
  3  4  1  0
  3  5  1  0
  5  6  1  0
  5  7  1  0
  5  8  1  0
  8  9  1  0
  8 10  1  0
  8 11  1  0
 11 12  1  0
 12 13  1  0
 13 14  2  0
 13 15  1  0
 15 16  2  0
 16 17  1  0
 16 18  1  0
 18 19  2  0
 19 20  1  0
 19 21  1  0
 21 22  1  0
 21 23  2  0
 23 24  1  0
 12 25  1  0
 25 26  1  0
 25 27  1  0
 25 28  1  0
 28 29  1  0
 28 30  1  0
 11 31  1  0
 31 32  1  0
 31 33  1  0
 31 34  1  0
 34 35  1  0
 34 36  1  0
 34  3  1  0
 28 12  1  0
 23 15  1  0
M  END
>  <plip>  (1) 
-0.06896551724137931

>  <filename>  (1) 
[H][O][C]1([H])[C]([H])([H])[C]([H])([H])[N]([C]2([C](=[O])[c]3[c]([H])[n][c]([H])[c]([H])[c]3[H])[C]([H])([H])[C]2([H])[H])[C]([H])([H])[C]1([H])[H]

$$$$
