
     RDKit          3D

 29 31  0  0  0  0  0  0  0  0999 V2000
    4.8174    1.3033   19.1084 C   0  0  0  0  0  0  0  0  0  0  0  0
    5.3989    1.2950   17.8356 C   0  0  0  0  0  0  0  0  0  0  0  0
    6.5660    0.6806   17.5689 N   0  0  0  0  0  0  0  0  0  0  0  0
    7.1786    0.0639   18.5844 C   0  0  0  0  0  0  0  0  0  0  0  0
    6.6790   -0.0047   19.9151 C   0  0  0  0  0  0  0  0  0  0  0  0
    7.3676   -0.6780   20.9081 N   0  0  0  0  0  0  0  0  0  0  0  0
    6.9187   -0.7810   22.2780 C   0  0  0  0  0  0  0  0  0  0  0  0
    7.8984   -1.5838   23.0967 C   0  0  0  0  0  0  0  0  0  0  0  0
    8.9726   -0.9442   23.7624 C   0  0  0  0  0  0  0  0  0  0  0  0
    9.9083   -1.6705   24.4947 C   0  0  0  0  0  0  0  0  0  0  0  0
    9.7667   -3.0713   24.5660 C   0  0  0  0  0  0  0  0  0  0  0  0
   10.7725   -4.2279   25.3921 S   0  0  0  0  0  0  0  0  0  0  0  0
    9.7734   -5.5393   24.8640 C   0  0  0  0  0  0  0  0  0  0  0  0
    8.7349   -5.1470   24.0991 C   0  0  0  0  0  0  0  0  0  0  0  0
    8.7006   -3.7233   23.9094 C   0  0  0  0  0  0  0  0  0  0  0  0
    7.7658   -2.9655   23.1749 C   0  0  0  0  0  0  0  0  0  0  0  0
    6.9545   -3.4870   22.6692 H   0  0  0  0  0  0  0  0  0  0  0  0
    7.9929   -5.8182   23.6674 H   0  0  0  0  0  0  0  0  0  0  0  0
   10.0431   -6.5441   25.1665 H   0  0  0  0  0  0  0  0  0  0  0  0
   10.7284   -1.1637   24.9936 H   0  0  0  0  0  0  0  0  0  0  0  0
    9.0715    0.1383   23.6897 H   0  0  0  0  0  0  0  0  0  0  0  0
    6.7908    0.2175   22.7179 H   0  0  0  0  0  0  0  0  0  0  0  0
    5.9421   -1.2751   22.2965 H   0  0  0  0  0  0  0  0  0  0  0  0
    8.2430   -1.1220   20.6751 H   0  0  0  0  0  0  0  0  0  0  0  0
    5.4528    0.6428   20.1656 C   0  0  0  0  0  0  0  0  0  0  0  0
    5.0150    0.6264   21.1656 H   0  0  0  0  0  0  0  0  0  0  0  0
    8.1255   -0.4262   18.3608 H   0  0  0  0  0  0  0  0  0  0  0  0
    4.9083    1.7828   16.9955 H   0  0  0  0  0  0  0  0  0  0  0  0
    3.8839    1.8353   19.2669 H   0  0  0  0  0  0  0  0  0  0  0  0
  1  2  2  0
  2  3  1  0
  3  4  2  0
  4  5  1  0
  5  6  1  0
  6  7  1  0
  7  8  1  0
  8  9  2  0
  9 10  1  0
 10 11  2  0
 11 12  1  0
 12 13  1  0
 13 14  2  0
 14 15  1  0
 15 16  2  0
 16 17  1  0
 14 18  1  0
 13 19  1  0
 10 20  1  0
  9 21  1  0
  7 22  1  0
  7 23  1  0
  6 24  1  0
  5 25  2  0
 25 26  1  0
  4 27  1  0
  2 28  1  0
  1 29  1  0
 25  1  1  0
 16  8  1  0
 15 11  1  0
M  END
>  <plip>  (1) 
-0.07142857142857142

>  <filename>  (1) 
[H][c]1[n][c]([H])[c]([N]([H])[C]([H])([H])[c]2[c]([H])[c]([H])[c]3[s][c]([H])[c]([H])[c]3[c]2[H])[c]([H])[c]1[H]

$$$$
