
     RDKit          3D

 29 31  0  0  0  0  0  0  0  0999 V2000
    4.9663    1.8222   16.9430 H   0  0  0  0  0  0  0  0  0  0  0  0
    5.4202    1.3079   17.7879 C   0  0  0  0  0  0  0  0  0  0  0  0
    6.5779    0.6782   17.5432 N   0  0  0  0  0  0  0  0  0  0  0  0
    7.1673    0.0461   18.5620 C   0  0  0  0  0  0  0  0  0  0  0  0
    8.1093   -0.4508   18.3380 H   0  0  0  0  0  0  0  0  0  0  0  0
    6.6379    0.0061   19.8622 C   0  0  0  0  0  0  0  0  0  0  0  0
    7.3776   -0.7062   20.9126 C   0  0  0  0  0  0  0  0  0  0  0  0
    6.9241   -0.8082   22.1925 N   0  0  0  0  0  0  0  0  0  0  0  0
    7.8618   -1.4910   22.8142 C   0  0  0  0  0  0  0  0  0  0  0  0
    7.8135   -1.9270   24.2445 C   0  0  1  0  0  0  0  0  0  0  0  0
    6.9235   -1.4408   24.6558 H   0  0  0  0  0  0  0  0  0  0  0  0
    7.6770   -3.4492   24.4398 C   0  0  0  0  0  0  0  0  0  0  0  0
    8.4407   -3.9809   23.8485 H   0  0  0  0  0  0  0  0  0  0  0  0
    6.6945   -3.8176   24.1287 H   0  0  0  0  0  0  0  0  0  0  0  0
    7.9202   -3.6794   25.8580 N   0  0  0  0  0  0  0  0  0  0  0  0
    7.0602   -3.5576   26.3829 H   0  0  0  0  0  0  0  0  0  0  0  0
    8.9103   -2.6806   26.2903 C   0  0  0  0  0  0  0  0  0  0  0  0
    9.8845   -3.1645   26.4269 H   0  0  0  0  0  0  0  0  0  0  0  0
    8.5999   -2.2513   27.2511 H   0  0  0  0  0  0  0  0  0  0  0  0
    9.0045   -1.6129   25.1732 C   0  0  0  0  0  0  0  0  0  0  0  0
    8.9707   -0.5954   25.5748 H   0  0  0  0  0  0  0  0  0  0  0  0
    9.9513   -1.7544   24.6391 H   0  0  0  0  0  0  0  0  0  0  0  0
    8.8333   -1.8083   21.9288 N   0  0  0  0  0  0  0  0  0  0  0  0
    9.6913   -2.3215   22.0836 H   0  0  0  0  0  0  0  0  0  0  0  0
    8.5400   -1.3025   20.7030 N   0  0  0  0  0  0  0  0  0  0  0  0
    5.4229    0.6649   20.1076 C   0  0  0  0  0  0  0  0  0  0  0  0
    4.9896    0.6699   21.1100 H   0  0  0  0  0  0  0  0  0  0  0  0
    4.8079    1.3209   19.0453 C   0  0  0  0  0  0  0  0  0  0  0  0
    3.8751    1.8523   19.1746 H   0  0  0  0  0  0  0  0  0  0  0  0
  1  2  1  0
  2  3  2  0
  3  4  1  0
  4  5  1  0
  4  6  2  0
  6  7  1  0
  7  8  1  0
  8  9  2  0
  9 10  1  0
 10 11  1  1
 10 12  1  0
 12 13  1  0
 12 14  1  0
 12 15  1  0
 15 16  1  0
 15 17  1  0
 17 18  1  0
 17 19  1  0
 17 20  1  0
 20 21  1  0
 20 22  1  0
  9 23  1  0
 23 24  1  0
 23 25  1  0
  6 26  1  0
 26 27  1  0
 26 28  2  0
 28 29  1  0
 28  2  1  0
 25  7  2  0
 20 10  1  0
M  END
>  <plip>  (1) 
-0.034482758620689655

>  <filename>  (1) 
[H][c]1[n][c]([H])[c](-[c]2[n][c]([C@@]3([H])[C]([H])([H])[N]([H])[C]([H])([H])[C]3([H])[H])[n]([H])[n]2)[c]([H])[c]1[H]

$$$$
