
     RDKit          3D

 46 46  0  0  0  0  0  0  0  0999 V2000
    3.0197    6.4983   22.6872 C   0  0  0  0  0  0  0  0  0  0  0  0
    4.1270    5.9418   21.7884 C   0  0  0  0  0  0  0  0  0  0  0  0
    4.9267    4.8326   22.4914 C   0  0  0  0  0  0  0  0  0  0  0  0
    5.9869    4.1545   21.6221 C   0  0  0  0  0  0  0  0  0  0  0  0
    6.8845    3.1476   22.3596 C   0  0  0  0  0  0  0  0  0  0  0  0
    7.9336    2.6592   21.3663 C   0  0  0  0  0  0  0  0  0  0  0  0
    8.9626    1.2927   21.7765 S   0  0  0  0  0  0  0  0  0  0  0  0
    9.6486    0.9424   20.5452 O   0  0  0  0  0  0  0  0  0  0  0  0
    9.7167    1.6370   22.9684 O   0  0  0  0  0  0  0  0  0  0  0  0
    7.8664    0.0791   22.1533 N   0  0  0  0  0  0  0  0  0  0  0  0
    8.2279   -0.6289   23.4060 C   0  0  0  0  0  0  0  0  0  0  0  0
    9.5294   -1.4164   23.3264 C   0  0  0  0  0  0  0  0  0  0  0  0
    9.4689   -2.2233   22.5885 H   0  0  0  0  0  0  0  0  0  0  0  0
    9.7651   -1.8598   24.2984 H   0  0  0  0  0  0  0  0  0  0  0  0
   10.3598   -0.7619   23.0465 H   0  0  0  0  0  0  0  0  0  0  0  0
    7.3813   -1.2792   23.6546 H   0  0  0  0  0  0  0  0  0  0  0  0
    8.2736    0.1189   24.2029 H   0  0  0  0  0  0  0  0  0  0  0  0
    7.4703   -0.7437   20.9804 C   0  0  0  0  0  0  0  0  0  0  0  0
    6.6482   -1.9568   21.4019 C   0  0  0  0  0  0  0  0  0  0  0  0
    6.3251   -2.5283   20.5316 H   0  0  0  0  0  0  0  0  0  0  0  0
    7.2240   -2.6271   22.0453 H   0  0  0  0  0  0  0  0  0  0  0  0
    5.7604   -1.6402   21.9501 H   0  0  0  0  0  0  0  0  0  0  0  0
    6.7284    0.0631   19.9337 C   0  0  0  0  0  0  0  0  0  0  0  0
    5.4908    0.6912   20.1651 C   0  0  0  0  0  0  0  0  0  0  0  0
    4.8568    1.3243   19.0931 C   0  0  0  0  0  0  0  0  0  0  0  0
    5.4482    1.2877   17.8289 C   0  0  0  0  0  0  0  0  0  0  0  0
    6.6166    0.6756   17.5813 N   0  0  0  0  0  0  0  0  0  0  0  0
    7.2275    0.0966   18.6261 C   0  0  0  0  0  0  0  0  0  0  0  0
    8.1875   -0.3730   18.3990 H   0  0  0  0  0  0  0  0  0  0  0  0
    4.9633    1.7598   16.9762 H   0  0  0  0  0  0  0  0  0  0  0  0
    3.9192    1.8590   19.2271 H   0  0  0  0  0  0  0  0  0  0  0  0
    5.0451    0.7089   21.1618 H   0  0  0  0  0  0  0  0  0  0  0  0
    8.3877   -1.1192   20.5113 H   0  0  0  0  0  0  0  0  0  0  0  0
    8.6725    3.4374   21.1552 H   0  0  0  0  0  0  0  0  0  0  0  0
    7.4875    2.3529   20.4210 H   0  0  0  0  0  0  0  0  0  0  0  0
    6.3020    2.3073   22.7748 H   0  0  0  0  0  0  0  0  0  0  0  0
    7.3750    3.6401   23.2119 H   0  0  0  0  0  0  0  0  0  0  0  0
    5.4913    3.6381   20.7817 H   0  0  0  0  0  0  0  0  0  0  0  0
    6.6323    4.9319   21.1738 H   0  0  0  0  0  0  0  0  0  0  0  0
    4.2219    4.0763   22.8723 H   0  0  0  0  0  0  0  0  0  0  0  0
    5.4128    5.2720   23.3778 H   0  0  0  0  0  0  0  0  0  0  0  0
    4.8014    6.7566   21.4843 H   0  0  0  0  0  0  0  0  0  0  0  0
    3.6825    5.5612   20.8561 H   0  0  0  0  0  0  0  0  0  0  0  0
    3.4355    6.9073   23.6178 H   0  0  0  0  0  0  0  0  0  0  0  0
    2.3189    5.7003   22.9638 H   0  0  0  0  0  0  0  0  0  0  0  0
    2.4499    7.2921   22.1902 H   0  0  0  0  0  0  0  0  0  0  0  0
  1  2  1  0
  2  3  1  0
  3  4  1  0
  4  5  1  0
  5  6  1  0
  6  7  1  0
  7  8  2  0
  7  9  2  0
  7 10  1  0
 10 11  1  0
 11 12  1  0
 12 13  1  0
 12 14  1  0
 12 15  1  0
 11 16  1  0
 11 17  1  0
 10 18  1  0
 18 19  1  0
 19 20  1  0
 19 21  1  0
 19 22  1  0
 18 23  1  0
 23 24  2  0
 24 25  1  0
 25 26  2  0
 26 27  1  0
 27 28  2  0
 28 29  1  0
 26 30  1  0
 25 31  1  0
 24 32  1  0
 18 33  1  0
  6 34  1  0
  6 35  1  0
  5 36  1  0
  5 37  1  0
  4 38  1  0
  4 39  1  0
  3 40  1  0
  3 41  1  0
  2 42  1  0
  2 43  1  0
  1 44  1  0
  1 45  1  0
  1 46  1  0
 28 23  1  0
M  END
>  <plip>  (1) 
-0.07142857142857142

>  <filename>  (1) 
[H][c]1[n][c]([H])[c]([C]([H])([N]([C]([H])([H])[C]([H])([H])[H])[S](=[O])(=[O])[C]([H])([H])[C]([H])([H])[C]([H])([H])[C]([H])([H])[C]([H])([H])[C]([H])([H])[H])[C]([H])([H])[H])[c]([H])[c]1[H]

$$$$
