
     RDKit          3D

 21 22  0  0  0  0  0  0  0  0999 V2000
   10.5472   -3.5425   24.9244 H   0  0  0  0  0  0  0  0  0  0  0  0
    9.5781   -3.4856   25.2617 N   0  0  0  0  0  0  0  0  0  0  0  0
    8.8785   -2.9002   24.4638 N   0  0  0  0  0  4  0  0  0  0  0  0
    7.9189   -2.3967   23.9287 N   0  0  0  0  0  0  0  0  0  0  0  0
    8.0403   -1.7639   22.6825 C   0  0  0  0  0  0  0  0  0  0  0  0
    9.1341   -1.5418   21.7935 C   0  0  0  0  0  0  0  0  0  0  0  0
   10.1751   -1.8246   21.8670 H   0  0  0  0  0  0  0  0  0  0  0  0
    8.7352   -0.8942   20.7263 N   0  0  0  0  0  0  0  0  0  0  0  0
    7.4065   -0.6767   20.8937 N   0  0  0  0  0  0  0  0  0  0  0  0
    6.6700    0.0044   19.8961 C   0  0  0  0  0  0  0  0  0  0  0  0
    7.1848    0.0290   18.5889 C   0  0  0  0  0  0  0  0  0  0  0  0
    8.1292   -0.4748   18.4005 H   0  0  0  0  0  0  0  0  0  0  0  0
    6.5827    0.6491   17.5784 N   0  0  0  0  0  0  0  0  0  0  0  0
    5.4297    1.2939   17.8280 C   0  0  0  0  0  0  0  0  0  0  0  0
    4.9754    1.8138   16.9853 H   0  0  0  0  0  0  0  0  0  0  0  0
    4.8366    1.3162   19.0932 C   0  0  0  0  0  0  0  0  0  0  0  0
    3.9044    1.8487   19.2343 H   0  0  0  0  0  0  0  0  0  0  0  0
    5.4655    0.6677   20.1594 C   0  0  0  0  0  0  0  0  0  0  0  0
    5.0529    0.7172   21.1706 H   0  0  0  0  0  0  0  0  0  0  0  0
    6.9617   -1.2002   22.0585 C   0  0  0  0  0  0  0  0  0  0  0  0
    5.9357   -1.2004   22.3753 H   0  0  0  0  0  0  0  0  0  0  0  0
  1  2  1  0
  2  3  2  0
  3  4  2  0
  4  5  1  0
  5  6  1  0
  6  7  1  0
  6  8  2  0
  8  9  1  0
  9 10  1  0
 10 11  2  0
 11 12  1  0
 11 13  1  0
 13 14  2  0
 14 15  1  0
 14 16  1  0
 16 17  1  0
 16 18  2  0
 18 19  1  0
  9 20  1  0
 20 21  1  0
 20  5  2  0
 18 10  1  0
M  CHG  1   3   1
M  END
>  <plip>  (1) 
-0.07142857142857142

>  <filename>  (1) 
[H][N]=[N+]=[N][c]1[c]([H])[n][n](-[c]2[c]([H])[n][c]([H])[c]([H])[c]2[H])[c]1[H]

$$$$
