
     RDKit          3D

 36 36  0  0  0  0  0  0  0  0999 V2000
    3.0939   -3.8458   25.7680 C   0  0  0  0  0  0  0  0  0  0  0  0
    4.4214   -4.8844   25.1204 S   0  0  0  0  0  0  0  0  0  0  0  0
    5.4629   -3.5353   24.4798 C   0  0  0  0  0  0  0  0  0  0  0  0
    6.8391   -3.9718   23.9704 C   0  0  0  0  0  0  0  0  0  0  0  0
    6.8654   -4.6162   22.5825 C   0  0  0  0  0  0  0  0  0  0  0  0
    6.3467   -3.6401   21.1979 S   0  0  0  0  0  0  0  0  0  0  0  0
    6.5062   -4.4902   20.0339 O   0  0  0  0  0  0  0  0  0  0  0  0
    5.0907   -2.9778   21.4809 O   0  0  0  0  0  0  0  0  0  0  0  0
    7.5527   -2.5198   20.9251 N   0  0  0  0  0  0  0  0  0  0  0  0
    7.3023   -1.0807   21.1808 C   0  0  0  0  0  0  0  0  0  0  0  0
    8.6426   -0.3538   21.4802 C   0  0  0  0  0  0  0  0  0  0  0  0
    8.4060    0.8876   22.1461 O   0  0  0  0  0  0  0  0  0  0  0  0
    9.0125    1.5649   21.8214 H   0  0  0  0  0  0  0  0  0  0  0  0
    9.2418   -1.0187   22.1130 H   0  0  0  0  0  0  0  0  0  0  0  0
    9.1778   -0.2038   20.5311 H   0  0  0  0  0  0  0  0  0  0  0  0
    6.6010   -0.4545   19.9939 C   0  0  0  0  0  0  0  0  0  0  0  0
    5.5443    0.4558   20.1624 C   0  0  0  0  0  0  0  0  0  0  0  0
    5.0718    1.1573   19.0489 C   0  0  0  0  0  0  0  0  0  0  0  0
    5.6742    0.9279   17.8073 C   0  0  0  0  0  0  0  0  0  0  0  0
    6.6782    0.0589   17.6208 N   0  0  0  0  0  0  0  0  0  0  0  0
    7.1166   -0.6095   18.6947 C   0  0  0  0  0  0  0  0  0  0  0  0
    7.9627   -1.2735   18.5005 H   0  0  0  0  0  0  0  0  0  0  0  0
    5.3402    1.4630   16.9207 H   0  0  0  0  0  0  0  0  0  0  0  0
    4.2759    1.8922   19.1304 H   0  0  0  0  0  0  0  0  0  0  0  0
    5.1034    0.6115   21.1511 H   0  0  0  0  0  0  0  0  0  0  0  0
    6.7010   -0.9639   22.0888 H   0  0  0  0  0  0  0  0  0  0  0  0
    7.5441   -2.7324   19.9301 H   0  0  0  0  0  0  0  0  0  0  0  0
    7.8650   -4.9641   22.3116 H   0  0  0  0  0  0  0  0  0  0  0  0
    6.1787   -5.4619   22.4938 H   0  0  0  0  0  0  0  0  0  0  0  0
    7.2815   -4.6815   24.6843 H   0  0  0  0  0  0  0  0  0  0  0  0
    7.4898   -3.0829   23.9655 H   0  0  0  0  0  0  0  0  0  0  0  0
    5.6008   -2.8205   25.2951 H   0  0  0  0  0  0  0  0  0  0  0  0
    4.9128   -3.0310   23.6823 H   0  0  0  0  0  0  0  0  0  0  0  0
    3.3879   -3.3327   26.6872 H   0  0  0  0  0  0  0  0  0  0  0  0
    2.7909   -3.0986   25.0292 H   0  0  0  0  0  0  0  0  0  0  0  0
    2.2279   -4.4708   25.9869 H   0  0  0  0  0  0  0  0  0  0  0  0
  1  2  1  0
  2  3  1  0
  3  4  1  0
  4  5  1  0
  5  6  1  0
  6  7  2  0
  6  8  2  0
  6  9  1  0
  9 10  1  0
 10 11  1  0
 11 12  1  0
 12 13  1  0
 11 14  1  0
 11 15  1  0
 10 16  1  0
 16 17  2  0
 17 18  1  0
 18 19  2  0
 19 20  1  0
 20 21  2  0
 21 22  1  0
 19 23  1  0
 18 24  1  0
 17 25  1  0
 10 26  1  0
  9 27  1  0
  5 28  1  0
  5 29  1  0
  4 30  1  0
  4 31  1  0
  3 32  1  0
  3 33  1  0
  1 34  1  0
  1 35  1  0
  1 36  1  0
 21 16  1  0
M  END
>  <plip>  (1) 
-0.10344827586206896

>  <filename>  (1) 
[H][O][C]([H])([H])[C]([H])([c]1[c]([H])[n][c]([H])[c]([H])[c]1[H])[N]([H])[S](=[O])(=[O])[C]([H])([H])[C]([H])([H])[C]([H])([H])[S][C]([H])([H])[H]

$$$$
