
     RDKit          3D

 37 39  0  0  0  0  0  0  0  0999 V2000
    4.9354    1.8116   16.9895 H   0  0  0  0  0  0  0  0  0  0  0  0
    5.4083    1.3050   17.8261 C   0  0  0  0  0  0  0  0  0  0  0  0
    6.5625    0.6747   17.5615 N   0  0  0  0  0  0  0  0  0  0  0  0
    7.1669    0.0506   18.5815 C   0  0  0  0  0  0  0  0  0  0  0  0
    8.1153   -0.4377   18.3422 H   0  0  0  0  0  0  0  0  0  0  0  0
    6.6689    0.0004   19.9012 C   0  0  0  0  0  0  0  0  0  0  0  0
    7.4075   -0.7220   21.0114 C   0  0  0  0  0  0  0  0  0  0  0  0
    7.9828   -1.5490   20.5776 H   0  0  0  0  0  0  0  0  0  0  0  0
    6.6721   -1.1570   21.6980 H   0  0  0  0  0  0  0  0  0  0  0  0
    8.4050    0.0964   21.8845 C   0  0  1  0  0  0  0  0  0  0  0  0
    8.9611   -0.7905   22.9299 N   0  0  0  0  0  0  0  0  0  0  0  0
    9.8342   -0.2648   23.8427 C   0  0  0  0  0  0  0  0  0  0  0  0
   10.3613    0.8355   23.7846 O   0  0  0  0  0  0  0  0  0  0  0  0
   10.0704   -1.2670   24.9297 C   0  0  0  0  0  0  0  0  0  0  0  0
   11.1448   -1.2555   25.0916 H   0  0  0  0  0  0  0  0  0  0  0  0
    9.5930   -0.8794   25.8308 H   0  0  0  0  0  0  0  0  0  0  0  0
    9.4468   -2.5747   24.4277 C   0  0  0  0  0  0  0  0  0  0  0  0
    8.8562   -3.0859   25.1938 H   0  0  0  0  0  0  0  0  0  0  0  0
   10.2258   -3.2629   24.0838 H   0  0  0  0  0  0  0  0  0  0  0  0
    8.5304   -2.1528   23.2582 C   0  0  0  0  0  0  0  0  0  0  0  0
    7.4685   -2.1783   23.5480 H   0  0  0  0  0  0  0  0  0  0  0  0
    8.6546   -2.8287   22.4044 H   0  0  0  0  0  0  0  0  0  0  0  0
    9.5376    0.7181   20.9886 C   0  0  0  0  0  0  0  0  0  0  0  0
   10.5300    0.3816   21.3055 H   0  0  0  0  0  0  0  0  0  0  0  0
    9.4357    0.3909   19.9469 H   0  0  0  0  0  0  0  0  0  0  0  0
    9.4383    2.1808   21.0666 N   0  0  0  0  0  0  0  0  0  0  0  0
   10.1030    2.4796   21.7773 H   0  0  0  0  0  0  0  0  0  0  0  0
    8.0959    2.4865   21.5727 C   0  0  0  0  0  0  0  0  0  0  0  0
    7.3832    2.5061   20.7411 H   0  0  0  0  0  0  0  0  0  0  0  0
    8.0953    3.4713   22.0560 H   0  0  0  0  0  0  0  0  0  0  0  0
    7.7300    1.3461   22.5247 C   0  0  0  0  0  0  0  0  0  0  0  0
    6.6504    1.2106   22.6556 H   0  0  0  0  0  0  0  0  0  0  0  0
    8.1491    1.5486   23.5143 H   0  0  0  0  0  0  0  0  0  0  0  0
    5.4425    0.6465   20.1360 C   0  0  0  0  0  0  0  0  0  0  0  0
    4.9988    0.6450   21.1340 H   0  0  0  0  0  0  0  0  0  0  0  0
    4.8062    1.3169   19.0875 C   0  0  0  0  0  0  0  0  0  0  0  0
    3.8703    1.8466   19.2371 H   0  0  0  0  0  0  0  0  0  0  0  0
  1  2  1  0
  2  3  2  0
  3  4  1  0
  4  5  1  0
  4  6  2  0
  6  7  1  0
  7  8  1  0
  7  9  1  0
 10  7  1  6
 10 11  1  0
 11 12  1  0
 12 13  2  0
 12 14  1  0
 14 15  1  0
 14 16  1  0
 14 17  1  0
 17 18  1  0
 17 19  1  0
 17 20  1  0
 20 21  1  0
 20 22  1  0
 10 23  1  0
 23 24  1  0
 23 25  1  0
 23 26  1  0
 26 27  1  0
 26 28  1  0
 28 29  1  0
 28 30  1  0
 28 31  1  0
 31 32  1  0
 31 33  1  0
  6 34  1  0
 34 35  1  0
 34 36  2  0
 36 37  1  0
 36  2  1  0
 31 10  1  0
 20 11  1  0
M  END
>  <plip>  (1) 
-0.06896551724137931

>  <filename>  (1) 
[H][c]1[n][c]([H])[c]([C]([H])([H])[C@@]2([N]3[C](=[O])[C]([H])([H])[C]([H])([H])[C]3([H])[H])[C]([H])([H])[N]([H])[C]([H])([H])[C]2([H])[H])[c]([H])[c]1[H]

$$$$
