
     RDKit          3D

 25 26  0  0  0  0  0  0  0  0999 V2000
    8.8268    3.0537   24.2889 H   0  0  0  0  0  0  0  0  0  0  0  0
    8.4593    2.2546   23.8851 O   0  0  0  0  0  0  0  0  0  0  0  0
    9.0138    2.2585   22.5869 N   0  0  0  0  0  0  0  0  0  0  0  0
    8.7090    1.2590   21.8371 C   0  0  0  0  0  0  0  0  0  0  0  0
    9.1568    1.3115   20.8461 H   0  0  0  0  0  0  0  0  0  0  0  0
    7.9602    0.1369   22.0666 N   0  0  0  0  0  0  0  0  0  0  0  0
    7.3966   -0.2153   23.3691 C   0  0  0  0  0  0  0  0  0  0  0  0
    8.1462   -0.1832   24.1625 H   0  0  0  0  0  0  0  0  0  0  0  0
    6.5919    0.4688   23.6608 H   0  0  0  0  0  0  0  0  0  0  0  0
    6.8931   -1.6180   23.0590 C   0  0  0  0  0  0  0  0  0  0  0  0
    7.6890   -2.3570   23.2510 H   0  0  0  0  0  0  0  0  0  0  0  0
    5.9955   -1.9165   23.6026 H   0  0  0  0  0  0  0  0  0  0  0  0
    6.5542   -1.5736   21.6814 O   0  0  0  0  0  0  0  0  0  0  0  0
    7.4174   -0.6947   21.0043 C   0  0  1  0  0  0  0  0  0  0  0  0
    8.2212   -1.2757   20.5148 H   0  0  0  0  0  0  0  0  0  0  0  0
    6.6530    0.0366   19.9187 C   0  0  0  0  0  0  0  0  0  0  0  0
    7.1814    0.0670   18.6275 C   0  0  0  0  0  0  0  0  0  0  0  0
    8.1243   -0.4276   18.3882 H   0  0  0  0  0  0  0  0  0  0  0  0
    6.5944    0.6747   17.5852 N   0  0  0  0  0  0  0  0  0  0  0  0
    5.4308    1.2981   17.8166 C   0  0  0  0  0  0  0  0  0  0  0  0
    4.9685    1.7932   16.9651 H   0  0  0  0  0  0  0  0  0  0  0  0
    4.8099    1.3272   19.0712 C   0  0  0  0  0  0  0  0  0  0  0  0
    3.8650    1.8459   19.1981 H   0  0  0  0  0  0  0  0  0  0  0  0
    5.4274    0.6816   20.1379 C   0  0  0  0  0  0  0  0  0  0  0  0
    4.9608    0.6580   21.1242 H   0  0  0  0  0  0  0  0  0  0  0  0
  1  2  1  0
  2  3  1  0
  3  4  2  3
  4  5  1  0
  4  6  1  0
  6  7  1  0
  7  8  1  0
  7  9  1  0
  7 10  1  0
 10 11  1  0
 10 12  1  0
 10 13  1  0
 13 14  1  0
 14 15  1  6
 14 16  1  0
 16 17  2  0
 17 18  1  0
 17 19  1  0
 19 20  2  0
 20 21  1  0
 20 22  1  0
 22 23  1  0
 22 24  2  0
 24 25  1  0
 14  6  1  0
 24 16  1  0
M  END
>  <plip>  (1) 
-0.07142857142857142

>  <filename>  (1) 
[H][O][N]=[C]([H])[N]1[C]([H])([H])[C]([H])([H])[O][C@@]1([H])[c]1[c]([H])[n][c]([H])[c]([H])[c]1[H]

$$$$
