
     RDKit          3D

 32 33  0  0  0  0  0  0  0  0999 V2000
    5.0338    1.7565   16.9391 H   0  0  0  0  0  0  0  0  0  0  0  0
    5.4778    1.2888   17.8177 C   0  0  0  0  0  0  0  0  0  0  0  0
    6.6561    0.6691   17.6312 N   0  0  0  0  0  0  0  0  0  0  0  0
    7.2250    0.0939   18.6970 C   0  0  0  0  0  0  0  0  0  0  0  0
    8.1888   -0.3833   18.5220 H   0  0  0  0  0  0  0  0  0  0  0  0
    6.6501    0.0784   19.9687 C   0  0  0  0  0  0  0  0  0  0  0  0
    7.4191   -0.6037   21.0680 C   0  0  0  0  0  0  0  0  0  0  0  0
    8.4849    0.2647   21.4625 N   0  0  0  0  0  0  0  0  0  0  0  0
    8.1306    1.1807   21.6866 H   0  0  0  0  0  0  0  0  0  0  0  0
    9.2354   -0.1612   22.5470 C   0  0  0  0  0  0  0  0  0  0  0  0
    9.3878   -1.3073   22.8963 O   0  0  0  0  0  0  0  0  0  0  0  0
    9.7774    0.9601   23.1561 N   0  0  0  0  0  0  0  0  0  0  0  0
   10.0376    1.6098   22.4265 H   0  0  0  0  0  0  0  0  0  0  0  0
   10.7929    0.8015   24.1961 C   0  0  0  0  0  0  0  0  0  0  0  0
   10.3822    0.1603   24.9850 H   0  0  0  0  0  0  0  0  0  0  0  0
   10.9621    1.7857   24.6504 H   0  0  0  0  0  0  0  0  0  0  0  0
   12.0791    0.2208   23.6183 C   0  0  0  0  0  0  0  0  0  0  0  0
   12.5190    0.9199   22.8972 H   0  0  0  0  0  0  0  0  0  0  0  0
   12.8186   -0.0028   24.3939 H   0  0  0  0  0  0  0  0  0  0  0  0
   11.8280   -0.7015   23.0833 H   0  0  0  0  0  0  0  0  0  0  0  0
    6.6097   -0.8826   22.1840 O   0  0  0  0  0  0  0  0  0  0  0  0
    6.2410   -2.2478   22.1100 C   0  0  0  0  0  0  0  0  0  0  0  0
    6.1555   -2.6228   23.1315 H   0  0  0  0  0  0  0  0  0  0  0  0
    5.2780   -2.3516   21.5904 H   0  0  0  0  0  0  0  0  0  0  0  0
    7.3859   -2.8938   21.3347 C   0  0  0  0  0  0  0  0  0  0  0  0
    8.1674   -3.2855   21.9923 H   0  0  0  0  0  0  0  0  0  0  0  0
    7.0414   -3.6785   20.6496 H   0  0  0  0  0  0  0  0  0  0  0  0
    7.9278   -1.8137   20.5904 O   0  0  0  0  0  0  0  0  0  0  0  0
    5.4308    0.7341   20.1593 C   0  0  0  0  0  0  0  0  0  0  0  0
    4.9744    0.7606   21.1501 H   0  0  0  0  0  0  0  0  0  0  0  0
    4.8352    1.3474   19.0597 C   0  0  0  0  0  0  0  0  0  0  0  0
    3.8896    1.8707   19.1502 H   0  0  0  0  0  0  0  0  0  0  0  0
  1  2  1  0
  2  3  2  0
  3  4  1  0
  4  5  1  0
  4  6  2  0
  6  7  1  0
  7  8  1  0
  8  9  1  0
  8 10  1  0
 10 11  2  0
 10 12  1  0
 12 13  1  0
 12 14  1  0
 14 15  1  0
 14 16  1  0
 14 17  1  0
 17 18  1  0
 17 19  1  0
 17 20  1  0
  7 21  1  0
 21 22  1  0
 22 23  1  0
 22 24  1  0
 22 25  1  0
 25 26  1  0
 25 27  1  0
 25 28  1  0
  6 29  1  0
 29 30  1  0
 29 31  2  0
 31 32  1  0
 31  2  1  0
 28  7  1  0
M  END
>  <plip>  (1) 
-0.07142857142857142

>  <filename>  (1) 
[H][c]1[n][c]([H])[c]([C]2([N]([H])[C](=[O])[N]([H])[C]([H])([H])[C]([H])([H])[H])[O][C]([H])([H])[C]([H])([H])[O]2)[c]([H])[c]1[H]

$$$$
