
     RDKit          3D

 37 39  0  0  0  0  0  0  0  0999 V2000
    4.9697    1.8016   16.9889 H   0  0  0  0  0  0  0  0  0  0  0  0
    5.4230    1.2851   17.8323 C   0  0  0  0  0  0  0  0  0  0  0  0
    6.5781    0.6436   17.5894 N   0  0  0  0  0  0  0  0  0  0  0  0
    7.1761    0.0252   18.6198 C   0  0  0  0  0  0  0  0  0  0  0  0
    8.1115   -0.4800   18.3741 H   0  0  0  0  0  0  0  0  0  0  0  0
    6.6731    0.0004   19.9573 C   0  0  0  0  0  0  0  0  0  0  0  0
    7.3299   -0.6496   21.0109 N   0  0  0  0  0  0  0  0  0  0  0  0
    8.3149   -1.6757   20.7790 C   0  0  0  0  0  0  0  0  0  0  0  0
    9.1974   -1.2991   20.2444 H   0  0  0  0  0  0  0  0  0  0  0  0
    7.8190   -2.4315   20.1946 H   0  0  0  0  0  0  0  0  0  0  0  0
    8.5974   -2.2429   22.1695 C   0  0  0  0  0  0  0  0  0  0  0  0
    9.6604   -2.3197   22.4060 H   0  0  0  0  0  0  0  0  0  0  0  0
    8.1320   -3.2335   22.2870 H   0  0  0  0  0  0  0  0  0  0  0  0
    8.0321   -1.3243   23.0784 O   0  0  0  0  0  0  0  0  0  0  0  0
    7.1247   -0.4545   22.4376 C   0  0  1  0  0  0  0  0  0  0  0  0
    6.1065   -0.7475   22.7326 H   0  0  0  0  0  0  0  0  0  0  0  0
    7.3796    0.9661   22.9042 C   0  0  0  0  0  0  0  0  0  0  0  0
    6.4008    1.6832   23.5896 C   0  0  0  0  0  0  0  0  0  0  0  0
    5.4393    1.2224   23.8070 H   0  0  0  0  0  0  0  0  0  0  0  0
    6.6358    3.0092   23.9654 C   0  0  0  0  0  0  0  0  0  0  0  0
    5.8513    3.5794   24.4621 H   0  0  0  0  0  0  0  0  0  0  0  0
    7.8643    3.6223   23.6860 C   0  0  0  0  0  0  0  0  0  0  0  0
    8.1067    5.0584   24.0583 C   0  0  0  0  0  0  0  0  0  0  0  0
    8.9508    5.1473   24.7529 H   0  0  0  0  0  0  0  0  0  0  0  0
    7.2302    5.5250   24.5144 H   0  0  0  0  0  0  0  0  0  0  0  0
    8.3643    5.6300   23.1596 H   0  0  0  0  0  0  0  0  0  0  0  0
    8.8823    2.8885   23.0262 C   0  0  0  0  0  0  0  0  0  0  0  0
   10.2542    3.4952   22.7960 C   0  0  0  0  0  0  0  0  0  0  0  0
   10.8177    2.9700   22.0160 H   0  0  0  0  0  0  0  0  0  0  0  0
   10.1936    4.5510   22.5063 H   0  0  0  0  0  0  0  0  0  0  0  0
   10.8370    3.4664   23.7273 H   0  0  0  0  0  0  0  0  0  0  0  0
    8.6047    1.5833   22.6206 C   0  0  0  0  0  0  0  0  0  0  0  0
    9.3511    1.0312   22.0537 H   0  0  0  0  0  0  0  0  0  0  0  0
    5.4441    0.6589   20.1641 C   0  0  0  0  0  0  0  0  0  0  0  0
    5.0025    0.6573   21.1559 H   0  0  0  0  0  0  0  0  0  0  0  0
    4.8191    1.3031   19.0919 C   0  0  0  0  0  0  0  0  0  0  0  0
    3.8809    1.8319   19.2328 H   0  0  0  0  0  0  0  0  0  0  0  0
  1  2  1  0
  2  3  2  0
  3  4  1  0
  4  5  1  0
  4  6  2  0
  6  7  1  0
  7  8  1  0
  8  9  1  0
  8 10  1  0
  8 11  1  0
 11 12  1  0
 11 13  1  0
 11 14  1  0
 14 15  1  0
 15 16  1  6
 15 17  1  0
 17 18  2  0
 18 19  1  0
 18 20  1  0
 20 21  1  0
 20 22  2  0
 22 23  1  0
 23 24  1  0
 23 25  1  0
 23 26  1  0
 22 27  1  0
 27 28  1  0
 28 29  1  0
 28 30  1  0
 28 31  1  0
 27 32  2  0
 32 33  1  0
  6 34  1  0
 34 35  1  0
 34 36  2  0
 36 37  1  0
 36  2  1  0
 15  7  1  0
 32 17  1  0
M  END
>  <plip>  (1) 
-0.03571428571428571

>  <filename>  (1) 
[H][c]1[n][c]([H])[c]([N]2[C]([H])([H])[C]([H])([H])[O][C@@]2([H])[c]2[c]([H])[c]([H])[c]([C]([H])([H])[H])[c]([C]([H])([H])[H])[c]2[H])[c]([H])[c]1[H]

$$$$
