
     RDKit          3D

 39 41  0  0  0  0  0  0  0  0999 V2000
    8.3272   -5.7207   20.9009 O   0  0  0  0  0  0  0  0  0  0  0  0
    8.0711   -5.7308   22.3267 S   0  0  0  0  0  0  0  0  0  0  0  0
    8.7659   -6.5936   23.2485 O   0  0  0  0  0  0  0  0  0  0  0  0
    8.3949   -4.2259   22.8858 N   0  0  0  0  0  0  0  0  0  0  0  0
    7.9626   -3.1071   22.0697 C   0  0  0  0  0  0  0  0  0  0  0  0
    6.9951   -2.2952   22.9053 C   0  0  0  0  0  0  0  0  0  0  0  0
    6.4259   -1.1314   22.0793 C   0  0  0  0  0  0  0  0  0  0  0  0
    7.2689   -0.7886   20.9277 N   0  0  0  0  0  0  0  0  0  0  0  0
    6.7191   -0.0456   19.8698 C   0  0  0  0  0  0  0  0  0  0  0  0
    5.4786    0.6371   19.9693 C   0  0  0  0  0  0  0  0  0  0  0  0
    4.9853    1.3451   18.8634 C   0  0  0  0  0  0  0  0  0  0  0  0
    5.7178    1.3556   17.6735 C   0  0  0  0  0  0  0  0  0  0  0  0
    6.8824    0.7022   17.5287 N   0  0  0  0  0  0  0  0  0  0  0  0
    7.3546    0.0405   18.5938 C   0  0  0  0  0  0  0  0  0  0  0  0
    8.2874   -0.4943   18.4349 H   0  0  0  0  0  0  0  0  0  0  0  0
    5.3627    1.9035   16.8034 H   0  0  0  0  0  0  0  0  0  0  0  0
    4.0448    1.8928   18.9123 H   0  0  0  0  0  0  0  0  0  0  0  0
    4.9210    0.6180   20.9037 H   0  0  0  0  0  0  0  0  0  0  0  0
    8.7143   -0.8497   21.1696 C   0  0  0  0  0  0  0  0  0  0  0  0
    9.1565   -2.2628   21.6185 C   0  0  0  0  0  0  0  0  0  0  0  0
    9.6583   -2.7979   20.8039 H   0  0  0  0  0  0  0  0  0  0  0  0
    9.8729   -2.1552   22.4430 H   0  0  0  0  0  0  0  0  0  0  0  0
    8.9988   -0.0998   21.9271 H   0  0  0  0  0  0  0  0  0  0  0  0
    9.2459   -0.5675   20.2572 H   0  0  0  0  0  0  0  0  0  0  0  0
    6.2546   -0.2566   22.7338 H   0  0  0  0  0  0  0  0  0  0  0  0
    5.4616   -1.4488   21.6667 H   0  0  0  0  0  0  0  0  0  0  0  0
    7.5161   -1.9426   23.8017 H   0  0  0  0  0  0  0  0  0  0  0  0
    6.1890   -2.9523   23.2478 H   0  0  0  0  0  0  0  0  0  0  0  0
    7.4253   -3.4393   21.1708 H   0  0  0  0  0  0  0  0  0  0  0  0
    9.3971   -4.3474   22.9861 H   0  0  0  0  0  0  0  0  0  0  0  0
    6.4162   -5.8362   22.5695 C   0  0  0  0  0  0  0  0  0  0  0  0
    5.5540   -5.6850   21.5150 C   0  0  0  0  0  0  0  0  0  0  0  0
    4.2543   -5.8695   21.7079 N   0  0  0  0  0  0  0  0  0  0  0  0
    3.8501   -6.2068   22.9299 C   0  0  0  0  0  0  0  0  0  0  0  0
    4.6411   -6.3142   23.9988 N   0  0  0  0  0  0  0  0  0  0  0  0
    5.9399   -6.0988   23.8283 C   0  0  0  0  0  0  0  0  0  0  0  0
    6.5812   -6.1710   24.7164 H   0  0  0  0  0  0  0  0  0  0  0  0
    2.7790   -6.4012   23.0743 H   0  0  0  0  0  0  0  0  0  0  0  0
    5.8754   -5.4312   20.4951 H   0  0  0  0  0  0  0  0  0  0  0  0
  1  2  2  0
  2  3  2  0
  2  4  1  0
  4  5  1  0
  5  6  1  0
  6  7  1  0
  7  8  1  0
  8  9  1  0
  9 10  2  0
 10 11  1  0
 11 12  2  0
 12 13  1  0
 13 14  2  0
 14 15  1  0
 12 16  1  0
 11 17  1  0
 10 18  1  0
  8 19  1  0
 19 20  1  0
 20 21  1  0
 20 22  1  0
 19 23  1  0
 19 24  1  0
  7 25  1  0
  7 26  1  0
  6 27  1  0
  6 28  1  0
  5 29  1  0
  4 30  1  0
  2 31  1  0
 31 32  2  0
 32 33  1  0
 33 34  2  0
 34 35  1  0
 35 36  2  0
 36 37  1  0
 34 38  1  0
 32 39  1  0
 20  5  1  0
 36 31  1  0
 14  9  1  0
M  END
>  <plip>  (1) 
-0.034482758620689655

>  <filename>  (1) 
[H][c]1[n][c]([H])[c]([S](=[O])(=[O])[N]([H])[C]2([H])[C]([H])([H])[C]([H])([H])[N]([c]3[c]([H])[n][c]([H])[c]([H])[c]3[H])[C]([H])([H])[C]2([H])[H])[c]([H])[n]1

$$$$
