
     RDKit          3D

 30 32  0  0  0  0  0  0  0  0999 V2000
    9.2149    3.5823   21.6954 H   0  0  0  0  0  0  0  0  0  0  0  0
    9.3425    2.5179   21.8297 C   0  0  0  0  0  0  0  0  0  0  0  0
    8.4340    1.7314   21.2425 N   0  0  0  0  0  0  0  0  0  0  0  0
    8.5343    0.3960   21.5031 C   0  0  0  0  0  0  0  0  0  0  0  0
    7.4750   -0.6027   21.0443 C   0  0  0  0  0  0  0  0  0  0  0  0
    6.5914   -0.0711   19.9249 C   0  0  0  0  0  0  0  0  0  0  0  0
    7.1101   -0.0752   18.6275 C   0  0  0  0  0  0  0  0  0  0  0  0
    8.0376   -0.6064   18.4191 H   0  0  0  0  0  0  0  0  0  0  0  0
    6.5444    0.5585   17.5936 N   0  0  0  0  0  0  0  0  0  0  0  0
    5.4133    1.2362   17.8335 C   0  0  0  0  0  0  0  0  0  0  0  0
    4.9855    1.7764   16.9877 H   0  0  0  0  0  0  0  0  0  0  0  0
    4.7895    1.2709   19.0853 C   0  0  0  0  0  0  0  0  0  0  0  0
    3.8733    1.8377   19.2093 H   0  0  0  0  0  0  0  0  0  0  0  0
    5.3894    0.6070   20.1567 C   0  0  0  0  0  0  0  0  0  0  0  0
    4.9561    0.6364   21.1580 H   0  0  0  0  0  0  0  0  0  0  0  0
    8.1053   -1.8045   20.6036 O   0  0  0  0  0  0  0  0  0  0  0  0
    7.4085   -2.9227   21.1474 C   0  0  0  0  0  0  0  0  0  0  0  0
    8.1042   -3.5138   21.7538 H   0  0  0  0  0  0  0  0  0  0  0  0
    7.0098   -3.5577   20.3505 H   0  0  0  0  0  0  0  0  0  0  0  0
    6.2829   -2.3025   21.9633 C   0  0  0  0  0  0  0  0  0  0  0  0
    6.1174   -2.7804   22.9321 H   0  0  0  0  0  0  0  0  0  0  0  0
    5.3462   -2.2962   21.3913 H   0  0  0  0  0  0  0  0  0  0  0  0
    6.7328   -0.9830   22.1865 O   0  0  0  0  0  0  0  0  0  0  0  0
    9.5871   -0.1101   22.2823 C   0  0  0  0  0  0  0  0  0  0  0  0
    9.6343   -1.1810   22.4718 H   0  0  0  0  0  0  0  0  0  0  0  0
   10.5444    0.6710   22.8249 N   0  0  0  0  0  0  0  0  0  0  0  0
   10.3989    1.9927   22.6404 C   0  0  0  0  0  0  0  0  0  0  0  0
   11.3378    2.6829   23.3621 N   0  0  0  0  0  0  0  0  0  0  0  0
   11.6702    3.5630   23.0037 H   0  0  0  0  0  0  0  0  0  0  0  0
   12.0453    1.9936   23.5807 H   0  0  0  0  0  0  0  0  0  0  0  0
  1  2  1  0
  2  3  2  0
  3  4  1  0
  4  5  1  0
  5  6  1  0
  6  7  2  0
  7  8  1  0
  7  9  1  0
  9 10  2  0
 10 11  1  0
 10 12  1  0
 12 13  1  0
 12 14  2  0
 14 15  1  0
  5 16  1  0
 16 17  1  0
 17 18  1  0
 17 19  1  0
 17 20  1  0
 20 21  1  0
 20 22  1  0
 20 23  1  0
  4 24  2  0
 24 25  1  0
 24 26  1  0
 26 27  2  0
 27 28  1  0
 28 29  1  0
 28 30  1  0
 27  2  1  0
 23  5  1  0
 14  6  1  0
M  END
>  <plip>  (1) 
-0.10344827586206896

>  <filename>  (1) 
[H][c]1[n][c]([C]2([c]3[c]([H])[n][c]([H])[c]([H])[c]3[H])[O][C]([H])([H])[C]([H])([H])[O]2)[c]([H])[n][c]1[N]([H])[H]

$$$$
