
     RDKit          3D

 32 33  0  0  0  0  0  0  0  0999 V2000
    5.0801    1.7383   17.0641 H   0  0  0  0  0  0  0  0  0  0  0  0
    5.5252    1.2503   17.9259 C   0  0  0  0  0  0  0  0  0  0  0  0
    6.6864    0.6212   17.7080 N   0  0  0  0  0  0  0  0  0  0  0  0
    7.2505    0.0016   18.7544 C   0  0  0  0  0  0  0  0  0  0  0  0
    8.1896   -0.4967   18.5345 H   0  0  0  0  0  0  0  0  0  0  0  0
    6.7215   -0.0483   20.0632 C   0  0  0  0  0  0  0  0  0  0  0  0
    7.3791   -0.8949   21.1742 C   0  0  0  0  0  0  0  0  0  0  0  0
    6.4942   -2.1503   21.3839 C   0  0  0  0  0  0  0  0  0  0  0  0
    6.8134   -2.7313   22.2578 H   0  0  0  0  0  0  0  0  0  0  0  0
    6.5291   -2.8117   20.5078 H   0  0  0  0  0  0  0  0  0  0  0  0
    5.4410   -1.8730   21.5347 H   0  0  0  0  0  0  0  0  0  0  0  0
    8.8224   -1.2893   20.7946 C   0  0  0  0  0  0  0  0  0  0  0  0
    8.8719   -1.9759   19.9556 H   0  0  0  0  0  0  0  0  0  0  0  0
    9.3300   -1.7536   21.6472 H   0  0  0  0  0  0  0  0  0  0  0  0
    9.3909   -0.3893   20.5270 H   0  0  0  0  0  0  0  0  0  0  0  0
    7.5073   -0.1362   22.5442 C   0  0  0  0  0  0  0  0  0  0  0  0
    6.5296    0.1389   22.9528 H   0  0  0  0  0  0  0  0  0  0  0  0
    7.9870   -0.8216   23.2526 H   0  0  0  0  0  0  0  0  0  0  0  0
    8.3927    1.0731   22.4776 C   0  0  0  0  0  0  0  0  0  0  0  0
    9.6602    1.0432   22.6372 N   0  0  0  0  0  0  0  0  0  0  0  0
   10.1764    2.3494   22.2109 C   0  0  0  0  0  0  0  0  0  0  0  0
   10.9527    2.2022   21.4470 H   0  0  0  0  0  0  0  0  0  0  0  0
   10.6438    2.8563   23.0591 H   0  0  0  0  0  0  0  0  0  0  0  0
    8.9567    3.1211   21.6557 C   0  0  0  0  0  0  0  0  0  0  0  0
    8.9548    3.1018   20.5576 H   0  0  0  0  0  0  0  0  0  0  0  0
    8.9096    4.1636   22.0032 H   0  0  0  0  0  0  0  0  0  0  0  0
    7.8498    2.3174   22.1802 N   0  0  0  0  0  0  0  0  0  0  0  0
    6.9893    2.2892   21.6566 H   0  0  0  0  0  0  0  0  0  0  0  0
    5.4898    0.6084   20.2525 C   0  0  0  0  0  0  0  0  0  0  0  0
    4.9878    0.5966   21.2250 H   0  0  0  0  0  0  0  0  0  0  0  0
    4.8903    1.2746   19.1743 C   0  0  0  0  0  0  0  0  0  0  0  0
    3.9455    1.7975   19.2794 H   0  0  0  0  0  0  0  0  0  0  0  0
  1  2  1  0
  2  3  2  0
  3  4  1  0
  4  5  1  0
  4  6  2  0
  6  7  1  0
  7  8  1  0
  8  9  1  0
  8 10  1  0
  8 11  1  0
  7 12  1  0
 12 13  1  0
 12 14  1  0
 12 15  1  0
  7 16  1  0
 16 17  1  0
 16 18  1  0
 16 19  1  0
 19 20  2  0
 20 21  1  0
 21 22  1  0
 21 23  1  0
 21 24  1  0
 24 25  1  0
 24 26  1  0
 24 27  1  0
 27 28  1  0
  6 29  1  0
 29 30  1  0
 29 31  2  0
 31 32  1  0
 31  2  1  0
 27 19  1  0
M  END
>  <plip>  (1) 
-0.07142857142857142

>  <filename>  (1) 
[H][c]1[n][c]([H])[c]([C]([C]([H])([H])[H])([C]([H])([H])[H])[C]([H])([H])[C]2=[N][C]([H])([H])[C]([H])([H])[N]2[H])[c]([H])[c]1[H]

$$$$
