
     RDKit          3D

 41 43  0  0  0  0  0  0  0  0999 V2000
    6.3129    4.8892   24.6357 C   0  0  0  0  0  0  0  0  0  0  0  0
    7.2959    3.8666   25.1535 C   0  0  0  0  0  0  0  0  0  0  0  0
    7.3267    3.5136   26.5157 C   0  0  0  0  0  0  0  0  0  0  0  0
    8.2212    2.5380   26.9825 C   0  0  0  0  0  0  0  0  0  0  0  0
    9.1482    1.9456   26.1207 C   0  0  0  0  0  0  0  0  0  0  0  0
    9.1636    2.3576   24.7896 C   0  0  0  0  0  0  0  0  0  0  0  0
    8.2150    3.2511   24.2911 C   0  0  0  0  0  0  0  0  0  0  0  0
    8.4178    3.3820   22.8001 C   0  0  0  0  0  0  0  0  0  0  0  0
    9.5389    2.3432   22.4638 C   0  0  0  0  0  0  0  0  0  0  0  0
    9.0406    1.1859   21.5281 C   0  0  0  0  0  0  0  0  0  0  0  0
    9.5570    0.9703   20.4432 O   0  0  0  0  0  0  0  0  0  0  0  0
    7.9773    0.4636   21.9818 N   0  0  0  0  0  0  0  0  0  0  0  0
    7.2855   -0.5740   21.2107 C   0  0  0  0  0  0  0  0  0  0  0  0
    8.1899   -1.7490   20.8165 C   0  0  0  0  0  0  0  0  0  0  0  0
    8.6445   -2.4757   21.9425 O   0  0  0  0  0  0  0  0  0  0  0  0
    9.4822   -2.8908   21.6980 H   0  0  0  0  0  0  0  0  0  0  0  0
    7.5738   -2.3938   20.1791 H   0  0  0  0  0  0  0  0  0  0  0  0
    9.0216   -1.3141   20.2516 H   0  0  0  0  0  0  0  0  0  0  0  0
    6.5885    0.0412   20.0018 C   0  0  0  0  0  0  0  0  0  0  0  0
    5.3527    0.6793   20.1630 C   0  0  0  0  0  0  0  0  0  0  0  0
    4.7603    1.3030   19.0621 C   0  0  0  0  0  0  0  0  0  0  0  0
    5.4264    1.2664   17.8303 C   0  0  0  0  0  0  0  0  0  0  0  0
    6.5987    0.6468   17.6437 N   0  0  0  0  0  0  0  0  0  0  0  0
    7.1578    0.0638   18.7160 C   0  0  0  0  0  0  0  0  0  0  0  0
    8.1229   -0.4048   18.5294 H   0  0  0  0  0  0  0  0  0  0  0  0
    4.9996    1.7609   16.9590 H   0  0  0  0  0  0  0  0  0  0  0  0
    3.8215    1.8411   19.1508 H   0  0  0  0  0  0  0  0  0  0  0  0
    4.8807    0.7157   21.1486 H   0  0  0  0  0  0  0  0  0  0  0  0
    6.5089   -0.9826   21.8699 H   0  0  0  0  0  0  0  0  0  0  0  0
    7.7627    0.5273   22.9608 H   0  0  0  0  0  0  0  0  0  0  0  0
   10.0710    1.9861   23.8065 N   0  0  0  0  0  0  0  0  0  0  0  0
   10.5196    1.0919   23.9458 H   0  0  0  0  0  0  0  0  0  0  0  0
   10.3289    2.8134   21.8702 H   0  0  0  0  0  0  0  0  0  0  0  0
    7.4931    3.1981   22.2372 H   0  0  0  0  0  0  0  0  0  0  0  0
    8.7596    4.3898   22.5357 H   0  0  0  0  0  0  0  0  0  0  0  0
    9.8470    1.1891   26.4641 H   0  0  0  0  0  0  0  0  0  0  0  0
    8.2059    2.2448   28.0298 H   0  0  0  0  0  0  0  0  0  0  0  0
    6.6607    4.0152   27.2166 H   0  0  0  0  0  0  0  0  0  0  0  0
    5.5735    4.4258   23.9684 H   0  0  0  0  0  0  0  0  0  0  0  0
    5.7685    5.3750   25.4530 H   0  0  0  0  0  0  0  0  0  0  0  0
    6.8376    5.6664   24.0659 H   0  0  0  0  0  0  0  0  0  0  0  0
  1  2  1  0
  2  3  2  0
  3  4  1  0
  4  5  2  0
  5  6  1  0
  6  7  2  0
  7  8  1  0
  8  9  1  0
  9 10  1  0
 10 11  2  0
 10 12  1  0
 12 13  1  0
 13 14  1  0
 14 15  1  0
 15 16  1  0
 14 17  1  0
 14 18  1  0
 13 19  1  0
 19 20  2  0
 20 21  1  0
 21 22  2  0
 22 23  1  0
 23 24  2  0
 24 25  1  0
 22 26  1  0
 21 27  1  0
 20 28  1  0
 13 29  1  0
 12 30  1  0
  9 31  1  0
 31 32  1  0
  9 33  1  0
  8 34  1  0
  8 35  1  0
  5 36  1  0
  4 37  1  0
  3 38  1  0
  1 39  1  0
  1 40  1  0
  1 41  1  0
  7  2  1  0
 24 19  1  0
 31  6  1  0
M  END
>  <plip>  (1) 
-0.06666666666666667

>  <filename>  (1) 
[H][O][C]([H])([H])[C]([H])([c]1[c]([H])[n][c]([H])[c]([H])[c]1[H])[N]([H])[C](=[O])[C]1([H])[N]([H])[c]2[c]([H])[c]([H])[c]([H])[c]([C]([H])([H])[H])[c]2[C]1([H])[H]

$$$$
