
     RDKit          3D

 34 36  0  0  0  0  0  0  0  0999 V2000
    4.9284    1.8091   16.9909 H   0  0  0  0  0  0  0  0  0  0  0  0
    5.4082    1.3144   17.8323 C   0  0  0  0  0  0  0  0  0  0  0  0
    6.5806    0.7078   17.5792 N   0  0  0  0  0  0  0  0  0  0  0  0
    7.1877    0.0673   18.5872 C   0  0  0  0  0  0  0  0  0  0  0  0
    8.1411   -0.4116   18.3646 H   0  0  0  0  0  0  0  0  0  0  0  0
    6.6561    0.0003   19.8943 C   0  0  0  0  0  0  0  0  0  0  0  0
    7.3192   -0.6811   20.9655 N   0  0  0  0  0  0  0  0  0  0  0  0
    7.9747   -0.1127   22.0815 C   0  0  0  0  0  0  0  0  0  0  0  0
    7.8631    1.3200   22.5277 C   0  0  0  0  0  0  0  0  0  0  0  0
    7.2050    1.8744   21.8517 H   0  0  0  0  0  0  0  0  0  0  0  0
    8.8418    1.8094   22.4560 H   0  0  0  0  0  0  0  0  0  0  0  0
    7.3606    1.4201   23.9653 C   0  0  0  0  0  0  0  0  0  0  0  0
    8.2669    1.4355   25.0352 C   0  0  0  0  0  0  0  0  0  0  0  0
    9.3354    1.4026   24.8350 H   0  0  0  0  0  0  0  0  0  0  0  0
    7.8235    1.5061   26.3576 C   0  0  0  0  0  0  0  0  0  0  0  0
    8.5509    1.5261   27.1646 H   0  0  0  0  0  0  0  0  0  0  0  0
    6.4490    1.5545   26.6390 C   0  0  0  0  0  0  0  0  0  0  0  0
    5.9637    1.6037   28.0763 C   0  0  0  0  0  0  0  0  0  0  0  0
    5.7932    0.3708   28.5927 F   0  0  0  0  0  0  0  0  0  0  0  0
    6.8315    2.2440   28.8854 F   0  0  0  0  0  0  0  0  0  0  0  0
    4.7794    2.2367   28.1931 F   0  0  0  0  0  0  0  0  0  0  0  0
    5.5329    1.4983   25.5753 C   0  0  0  0  0  0  0  0  0  0  0  0
    4.4640    1.5189   25.7708 H   0  0  0  0  0  0  0  0  0  0  0  0
    5.9898    1.4238   24.2563 C   0  0  0  0  0  0  0  0  0  0  0  0
    5.2595    1.3822   23.4497 H   0  0  0  0  0  0  0  0  0  0  0  0
    8.4897   -1.1463   22.7601 C   0  0  0  0  0  0  0  0  0  0  0  0
    9.0654   -1.1965   23.6758 H   0  0  0  0  0  0  0  0  0  0  0  0
    8.1189   -2.3350   22.1799 O   0  0  0  0  0  0  0  0  0  0  0  0
    7.2988   -2.0682   21.1118 C   0  0  0  0  0  0  0  0  0  0  0  0
    6.6958   -2.8904   20.4763 O   0  0  0  0  0  0  0  0  0  0  0  0
    5.4388    0.6387   20.1382 C   0  0  0  0  0  0  0  0  0  0  0  0
    5.0266    0.6083   21.1461 H   0  0  0  0  0  0  0  0  0  0  0  0
    4.8000    1.3098   19.0910 C   0  0  0  0  0  0  0  0  0  0  0  0
    3.8582    1.8238   19.2421 H   0  0  0  0  0  0  0  0  0  0  0  0
  1  2  1  0
  2  3  2  0
  3  4  1  0
  4  5  1  0
  4  6  2  0
  6  7  1  0
  7  8  1  0
  8  9  1  0
  9 10  1  0
  9 11  1  0
  9 12  1  0
 12 13  2  0
 13 14  1  0
 13 15  1  0
 15 16  1  0
 15 17  2  0
 17 18  1  0
 18 19  1  0
 18 20  1  0
 18 21  1  0
 17 22  1  0
 22 23  1  0
 22 24  2  0
 24 25  1  0
  8 26  2  0
 26 27  1  0
 26 28  1  0
 28 29  1  0
 29 30  2  0
  6 31  1  0
 31 32  1  0
 31 33  2  0
 33 34  1  0
 33  2  1  0
 29  7  1  0
 24 12  1  0
M  END
>  <plip>  (1) 
-0.034482758620689655

>  <filename>  (1) 
[H][c]1[n][c]([H])[c](-[n]2[c]([C]([H])([H])[c]3[c]([H])[c]([H])[c]([C]([F])([F])[F])[c]([H])[c]3[H])[c]([H])[o][c]2=[O])[c]([H])[c]1[H]

$$$$
