
     RDKit          3D

 41 43  0  0  0  0  0  0  0  0999 V2000
    4.2559    0.4365   28.6990 F   0  0  0  0  0  0  0  0  0  0  0  0
    3.6976   -0.6998   28.2486 C   0  0  0  0  0  0  0  0  0  0  0  0
    3.5412   -1.5145   29.3125 F   0  0  0  0  0  0  0  0  0  0  0  0
    2.4494   -0.3941   27.8334 F   0  0  0  0  0  0  0  0  0  0  0  0
    4.5071   -1.3590   27.1431 C   0  0  0  0  0  0  0  0  0  0  0  0
    4.0418   -2.4774   26.5746 C   0  0  0  0  0  0  0  0  0  0  0  0
    4.7767   -3.2193   25.5072 C   0  0  0  0  0  0  0  0  0  0  0  0
    5.7620   -2.3290   24.7853 N   0  0  0  0  0  4  0  0  0  0  0  0
    6.5748   -3.1115   23.8025 C   0  0  0  0  0  0  0  0  0  0  0  0
    7.3606   -2.2181   22.8756 C   0  0  0  0  0  0  0  0  0  0  0  0
    8.7464   -2.0407   23.0243 C   0  0  0  0  0  0  0  0  0  0  0  0
    9.4554   -1.2049   22.1536 C   0  0  0  0  0  0  0  0  0  0  0  0
    8.7789   -0.5431   21.1267 C   0  0  0  0  0  0  0  0  0  0  0  0
    7.3900   -0.6997   20.9708 C   0  0  0  0  0  0  0  0  0  0  0  0
    6.6578    0.0161   19.9004 C   0  0  0  0  0  0  0  0  0  0  0  0
    5.4305    0.6505   20.1501 C   0  0  0  0  0  0  0  0  0  0  0  0
    4.8022    1.3173   19.0977 C   0  0  0  0  0  0  0  0  0  0  0  0
    5.3973    1.2987   17.8291 C   0  0  0  0  0  0  0  0  0  0  0  0
    6.5563    0.6776   17.5645 N   0  0  0  0  0  0  0  0  0  0  0  0
    7.1657    0.0754   18.5893 C   0  0  0  0  0  0  0  0  0  0  0  0
    8.1060   -0.4213   18.3602 H   0  0  0  0  0  0  0  0  0  0  0  0
    4.9177    1.7897   16.9861 H   0  0  0  0  0  0  0  0  0  0  0  0
    3.8694    1.8487   19.2495 H   0  0  0  0  0  0  0  0  0  0  0  0
    5.0120    0.6370   21.1598 H   0  0  0  0  0  0  0  0  0  0  0  0
    6.6967   -1.5370   21.8537 C   0  0  0  0  0  0  0  0  0  0  0  0
    5.6243   -1.6686   21.7261 H   0  0  0  0  0  0  0  0  0  0  0  0
    9.3014    0.1227   20.4450 H   0  0  0  0  0  0  0  0  0  0  0  0
   10.5292   -1.0752   22.2677 H   0  0  0  0  0  0  0  0  0  0  0  0
    9.2600   -2.5539   23.8359 H   0  0  0  0  0  0  0  0  0  0  0  0
    5.9179   -3.7701   23.2196 H   0  0  0  0  0  0  0  0  0  0  0  0
    7.2718   -3.7554   24.3515 H   0  0  0  0  0  0  0  0  0  0  0  0
    6.6537   -1.5818   25.8062 C   0  0  0  0  0  0  0  0  0  0  0  0
    5.7843   -0.6824   26.6725 C   0  0  0  0  0  0  0  0  0  0  0  0
    6.3821   -0.3461   27.5253 H   0  0  0  0  0  0  0  0  0  0  0  0
    5.5288    0.2219   26.1074 H   0  0  0  0  0  0  0  0  0  0  0  0
    7.4069   -1.0060   25.2640 H   0  0  0  0  0  0  0  0  0  0  0  0
    7.1674   -2.3329   26.4169 H   0  0  0  0  0  0  0  0  0  0  0  0
    5.2395   -1.5950   24.2244 H   0  0  0  0  0  0  0  0  0  0  0  0
    4.0681   -3.6632   24.8001 H   0  0  0  0  0  0  0  0  0  0  0  0
    5.3327   -4.0524   25.9608 H   0  0  0  0  0  0  0  0  0  0  0  0
    3.1062   -2.9368   26.8812 H   0  0  0  0  0  0  0  0  0  0  0  0
  1  2  1  0
  2  3  1  0
  2  4  1  0
  2  5  1  0
  5  6  2  0
  6  7  1  0
  7  8  1  0
  8  9  1  0
  9 10  1  0
 10 11  2  0
 11 12  1  0
 12 13  2  0
 13 14  1  0
 14 15  1  0
 15 16  2  0
 16 17  1  0
 17 18  2  0
 18 19  1  0
 19 20  2  0
 20 21  1  0
 18 22  1  0
 17 23  1  0
 16 24  1  0
 14 25  2  0
 25 26  1  0
 13 27  1  0
 12 28  1  0
 11 29  1  0
  9 30  1  0
  9 31  1  0
  8 32  1  0
 32 33  1  0
 33 34  1  0
 33 35  1  0
 32 36  1  0
 32 37  1  0
  8 38  1  0
  7 39  1  0
  7 40  1  0
  6 41  1  0
 33  5  1  0
 25 10  1  0
 20 15  1  0
M  CHG  1   8   1
M  END
>  <plip>  (1) 
-0.07142857142857142

>  <filename>  (1) 
[H][C]1=[C]([C]([F])([F])[F])[C]([H])([H])[C]([H])([H])[N+]([H])([C]([H])([H])[c]2[c]([H])[c]([H])[c]([H])[c](-[c]3[c]([H])[n][c]([H])[c]([H])[c]3[H])[c]2[H])[C]1([H])[H]

$$$$
