
     RDKit          3D

 35 38  0  0  0  0  0  0  0  0999 V2000
    8.7467   -0.2836   23.1639 H   0  0  0  0  0  0  0  0  0  0  0  0
    8.1610   -0.7175   22.3669 C   0  0  0  0  0  0  0  0  0  0  0  0
    7.8693   -2.0222   22.3644 C   0  0  0  0  0  0  0  0  0  0  0  0
    8.3621   -3.0004   23.3389 C   0  0  0  0  0  0  0  0  0  0  0  0
    8.4721   -2.6030   24.6483 O   0  0  0  0  0  0  0  0  0  0  0  0
    8.9932   -3.6636   25.3191 C   0  0  0  0  0  0  0  0  0  0  0  0
    9.2047   -3.7275   26.6942 C   0  0  0  0  0  0  0  0  0  0  0  0
    8.8570   -2.9229   27.3340 H   0  0  0  0  0  0  0  0  0  0  0  0
    9.8620   -4.8646   27.1704 C   0  0  0  0  0  0  0  0  0  0  0  0
   10.0428   -4.9774   28.2376 H   0  0  0  0  0  0  0  0  0  0  0  0
   10.2621   -5.8888   26.2788 C   0  0  0  0  0  0  0  0  0  0  0  0
   10.8808   -6.7191   26.5962 H   0  0  0  0  0  0  0  0  0  0  0  0
    9.9150   -5.8668   24.9391 C   0  0  0  0  0  0  0  0  0  0  0  0
   10.1254   -6.7395   24.3285 H   0  0  0  0  0  0  0  0  0  0  0  0
    9.2775   -4.7175   24.4348 C   0  0  0  0  0  0  0  0  0  0  0  0
    8.8210   -4.2640   23.1571 C   0  0  0  0  0  0  0  0  0  0  0  0
    8.8646   -4.8106   22.2295 H   0  0  0  0  0  0  0  0  0  0  0  0
    7.1227   -2.5433   21.3176 N   0  0  0  0  0  0  0  0  0  0  0  0
    6.7206   -3.4580   21.3133 H   0  0  0  0  0  0  0  0  0  0  0  0
    6.5863   -1.8303   20.2740 C   0  0  0  0  0  0  0  0  0  0  0  0
    5.8821   -2.4151   19.4784 O   0  0  0  0  0  0  0  0  0  0  0  0
    6.9109   -0.4820   20.2424 N   0  0  0  0  0  0  0  0  0  0  0  0
    6.3358    0.3550   19.2286 C   0  0  0  0  0  0  0  0  0  0  0  0
    6.9497    0.5404   17.9735 C   0  0  0  0  0  0  0  0  0  0  0  0
    7.8834    0.0218   17.7589 H   0  0  0  0  0  0  0  0  0  0  0  0
    6.4521    1.3263   17.0081 N   0  0  0  0  0  0  0  0  0  0  0  0
    5.3016    1.9720   17.2655 C   0  0  0  0  0  0  0  0  0  0  0  0
    4.9184    2.6041   16.4645 H   0  0  0  0  0  0  0  0  0  0  0  0
    4.6112    1.8539   18.4796 C   0  0  0  0  0  0  0  0  0  0  0  0
    3.6884    2.4027   18.6265 H   0  0  0  0  0  0  0  0  0  0  0  0
    5.1432    1.0383   19.4869 C   0  0  0  0  0  0  0  0  0  0  0  0
    4.6676    0.9240   20.4644 H   0  0  0  0  0  0  0  0  0  0  0  0
    7.7094    0.1928   21.2737 C   0  0  0  0  0  0  0  0  0  0  0  0
    7.1254    1.0145   21.7238 H   0  0  0  0  0  0  0  0  0  0  0  0
    8.5794    0.6800   20.7987 H   0  0  0  0  0  0  0  0  0  0  0  0
  1  2  1  0
  2  3  2  0
  3  4  1  0
  4  5  1  0
  5  6  1  0
  6  7  2  0
  7  8  1  0
  7  9  1  0
  9 10  1  0
  9 11  2  0
 11 12  1  0
 11 13  1  0
 13 14  1  0
 13 15  2  0
 15 16  1  0
 16 17  1  0
  3 18  1  0
 18 19  1  0
 18 20  1  0
 20 21  2  0
 20 22  1  0
 22 23  1  0
 23 24  2  0
 24 25  1  0
 24 26  1  0
 26 27  2  0
 27 28  1  0
 27 29  1  0
 29 30  1  0
 29 31  2  0
 31 32  1  0
 22 33  1  0
 33 34  1  0
 33 35  1  0
 33  2  1  0
 16  4  2  0
 31 23  1  0
 15  6  1  0
M  END
>  <plip>  (1) 
-0.1724137931034483

>  <filename>  (1) 
[H][C]1=[C]([c]2[o][c]3[c]([H])[c]([H])[c]([H])[c]([H])[c]3[c]2[H])[N]([H])[C](=[O])[N]([c]2[c]([H])[n][c]([H])[c]([H])[c]2[H])[C]1([H])[H]

$$$$
