
     RDKit          3D

 20 20  0  0  0  0  0  0  0  0999 V2000
    4.9616    1.8518   16.9047 H   0  0  0  0  0  0  0  0  0  0  0  0
    5.3697    1.2890   17.7461 C   0  0  0  0  0  0  0  0  0  0  0  0
    6.5079    0.6186   17.5139 N   0  0  0  0  0  0  0  0  0  0  0  0
    7.0739   -0.0105   18.5584 C   0  0  0  0  0  0  0  0  0  0  0  0
    8.0117   -0.5322   18.3716 H   0  0  0  0  0  0  0  0  0  0  0  0
    6.5280   -0.0045   19.8556 C   0  0  0  0  0  0  0  0  0  0  0  0
    7.3735   -0.8184   21.2056 S   0  0  0  0  0  0  0  0  0  0  0  0
    8.4527    0.6856   22.0841 S   0  0  0  0  0  0  0  0  0  0  0  0
    9.8246    0.8277   21.1534 O   0  0  0  0  0  0  0  0  0  0  0  0
   11.0145    0.2332   21.6771 C   0  0  0  0  0  0  0  0  0  0  0  0
   11.2960    0.6874   22.6367 H   0  0  0  0  0  0  0  0  0  0  0  0
   11.7670    0.4941   20.9364 H   0  0  0  0  0  0  0  0  0  0  0  0
   10.9696   -1.2858   21.8200 C   0  0  0  0  0  0  0  0  0  0  0  0
   10.2294   -1.5962   22.5674 H   0  0  0  0  0  0  0  0  0  0  0  0
   10.7432   -1.7694   20.8645 H   0  0  0  0  0  0  0  0  0  0  0  0
   12.2361   -1.6663   22.2373 F   0  0  0  0  0  0  0  0  0  0  0  0
    5.3072    0.6419   20.0712 C   0  0  0  0  0  0  0  0  0  0  0  0
    4.8417    0.6336   21.0591 H   0  0  0  0  0  0  0  0  0  0  0  0
    4.7318    1.3131   18.9881 C   0  0  0  0  0  0  0  0  0  0  0  0
    3.8176    1.8818   19.1095 H   0  0  0  0  0  0  0  0  0  0  0  0
  1  2  1  0
  2  3  2  0
  3  4  1  0
  4  5  1  0
  4  6  2  0
  6  7  1  0
  7  8  1  0
  8  9  1  0
  9 10  1  0
 10 11  1  0
 10 12  1  0
 10 13  1  0
 13 14  1  0
 13 15  1  0
 13 16  1  0
  6 17  1  0
 17 18  1  0
 17 19  2  0
 19 20  1  0
 19  2  1  0
M  END
>  <plip>  (1) 
-0.07142857142857142

>  <filename>  (1) 
[H][c]1[n][c]([H])[c]([S][S][O][C]([H])([H])[C]([H])([H])[F])[c]([H])[c]1[H]

$$$$
