
     RDKit          3D

 37 39  0  0  0  0  0  0  0  0999 V2000
    8.9678   -3.1910   26.0850 C   0  0  0  0  0  0  0  0  0  0  0  0
    8.5466   -1.7503   26.2556 C   0  0  0  0  0  0  0  0  0  0  0  0
    8.8449   -1.0308   27.4112 C   0  0  0  0  0  0  0  0  0  0  0  0
    8.2694    0.2241   27.6380 C   0  0  0  0  0  0  0  0  0  0  0  0
    7.4473    0.7544   26.6409 C   0  0  0  0  0  0  0  0  0  0  0  0
    6.8060    2.0572   26.8198 C   0  0  0  0  0  0  0  0  0  0  0  0
    6.3169    3.0961   26.9764 N   0  0  0  0  0  0  0  0  0  0  0  0
    7.2188    0.1471   25.4734 N   0  0  0  0  0  0  0  0  0  0  0  0
    7.7545   -1.0595   25.2828 C   0  0  0  0  0  0  0  0  0  0  0  0
    7.4725   -1.6286   24.0831 N   0  0  0  0  0  0  0  0  0  0  0  0
    6.8268   -0.9088   23.0197 C   0  0  1  0  0  0  0  0  0  0  0  0
    7.7255    0.0813   22.2363 C   0  0  0  0  0  0  0  0  0  0  0  0
    7.4503   -0.7199   20.9392 C   0  0  2  0  0  0  0  0  0  0  0  0
    8.6059   -1.3649   20.4589 O   0  0  0  0  0  0  0  0  0  0  0  0
    9.2873   -0.6852   20.3971 H   0  0  0  0  0  0  0  0  0  0  0  0
    6.7050    0.0115   19.8564 C   0  0  0  0  0  0  0  0  0  0  0  0
    5.4929    0.6848   20.1002 C   0  0  0  0  0  0  0  0  0  0  0  0
    4.8694    1.3391   19.0384 C   0  0  0  0  0  0  0  0  0  0  0  0
    5.4747    1.3016   17.7749 C   0  0  0  0  0  0  0  0  0  0  0  0
    6.6171    0.6492   17.5173 N   0  0  0  0  0  0  0  0  0  0  0  0
    7.2005    0.0211   18.5435 C   0  0  0  0  0  0  0  0  0  0  0  0
    8.1149   -0.5191   18.3157 H   0  0  0  0  0  0  0  0  0  0  0  0
    5.0242    1.8137   16.9289 H   0  0  0  0  0  0  0  0  0  0  0  0
    3.9337    1.8738   19.1683 H   0  0  0  0  0  0  0  0  0  0  0  0
    5.0434    0.7094   21.0980 H   0  0  0  0  0  0  0  0  0  0  0  0
    6.6015   -1.7298   21.7447 C   0  0  0  0  0  0  0  0  0  0  0  0
    5.5705   -1.8913   21.4200 H   0  0  0  0  0  0  0  0  0  0  0  0
    7.0927   -2.7025   21.7912 H   0  0  0  0  0  0  0  0  0  0  0  0
    8.7666    0.0404   22.5624 H   0  0  0  0  0  0  0  0  0  0  0  0
    7.4191    1.1288   22.2444 H   0  0  0  0  0  0  0  0  0  0  0  0
    5.9526   -0.3921   23.4323 H   0  0  0  0  0  0  0  0  0  0  0  0
    7.8799   -2.5294   23.9134 H   0  0  0  0  0  0  0  0  0  0  0  0
    8.4580    0.7690   28.5553 H   0  0  0  0  0  0  0  0  0  0  0  0
    9.5324   -1.4238   28.1630 H   0  0  0  0  0  0  0  0  0  0  0  0
    8.0923   -3.8399   25.9451 H   0  0  0  0  0  0  0  0  0  0  0  0
    9.4906   -3.5399   26.9814 H   0  0  0  0  0  0  0  0  0  0  0  0
    9.6368   -3.3412   25.2278 H   0  0  0  0  0  0  0  0  0  0  0  0
  1  2  1  0
  2  3  2  0
  3  4  1  0
  4  5  2  0
  5  6  1  0
  6  7  3  0
  5  8  1  0
  8  9  2  0
  9 10  1  0
 10 11  1  0
 11 12  1  0
 12 13  1  0
 13 14  1  6
 14 15  1  0
 13 16  1  0
 16 17  2  0
 17 18  1  0
 18 19  2  0
 19 20  1  0
 20 21  2  0
 21 22  1  0
 19 23  1  0
 18 24  1  0
 17 25  1  0
 13 26  1  0
 26 27  1  0
 26 28  1  0
 12 29  1  0
 12 30  1  0
 11 31  1  1
 10 32  1  0
  4 33  1  0
  3 34  1  0
  1 35  1  0
  1 36  1  0
  1 37  1  0
  9  2  1  0
 26 11  1  0
 21 16  1  0
M  END
>  <plip>  (1) 
-0.03333333333333333

>  <filename>  (1) 
[H][O][C@]1([c]2[c]([H])[n][c]([H])[c]([H])[c]2[H])[C]([H])([H])[C@]([H])([N]([H])[c]2[n][c]([C]#[N])[c]([H])[c]([H])[c]2[C]([H])([H])[H])[C]1([H])[H]

$$$$
