
     RDKit          3D

 26 27  0  0  0  0  0  0  0  0999 V2000
    9.1724   -2.7972   23.6277 H   0  0  0  0  0  0  0  0  0  0  0  0
    8.6597   -2.1960   22.8874 C   0  0  0  0  0  0  0  0  0  0  0  0
    8.3610   -0.9392   23.2432 N   0  0  0  0  0  0  0  0  0  0  0  0
    7.6842   -0.2021   22.3391 C   0  0  0  0  0  0  0  0  0  0  0  0
    7.3635    1.4729   22.8730 S   0  0  0  0  0  0  0  0  0  0  0  0
    9.0445    2.1364   22.5747 C   0  0  0  0  0  0  0  0  0  0  0  0
    9.7855    1.5888   23.1774 H   0  0  0  0  0  0  0  0  0  0  0  0
    9.0225    3.1686   22.9533 H   0  0  0  0  0  0  0  0  0  0  0  0
    9.3589    2.0879   21.0843 C   0  0  0  0  0  0  0  0  0  0  0  0
    9.3878    1.0574   20.7152 H   0  0  0  0  0  0  0  0  0  0  0  0
    8.5742    2.6069   20.5285 H   0  0  0  0  0  0  0  0  0  0  0  0
   10.3159    2.5526   20.8365 H   0  0  0  0  0  0  0  0  0  0  0  0
    7.3657   -0.7172   21.0264 C   0  0  0  0  0  0  0  0  0  0  0  0
    6.6502    0.0290   19.9402 C   0  0  0  0  0  0  0  0  0  0  0  0
    7.1573    0.0127   18.6224 C   0  0  0  0  0  0  0  0  0  0  0  0
    8.0705   -0.5331   18.3879 H   0  0  0  0  0  0  0  0  0  0  0  0
    6.5735    0.6339   17.5901 N   0  0  0  0  0  0  0  0  0  0  0  0
    5.4227    1.2872   17.8278 C   0  0  0  0  0  0  0  0  0  0  0  0
    4.9833    1.8128   16.9833 H   0  0  0  0  0  0  0  0  0  0  0  0
    4.8026    1.3161   19.0798 C   0  0  0  0  0  0  0  0  0  0  0  0
    3.8620    1.8477   19.2004 H   0  0  0  0  0  0  0  0  0  0  0  0
    5.4223    0.6743   20.1566 C   0  0  0  0  0  0  0  0  0  0  0  0
    4.9424    0.6522   21.1330 H   0  0  0  0  0  0  0  0  0  0  0  0
    7.7311   -1.9694   20.6867 N   0  0  0  0  0  0  0  0  0  0  0  0
    8.3410   -2.7136   21.6263 C   0  0  0  0  0  0  0  0  0  0  0  0
    8.5779   -3.7364   21.3583 H   0  0  0  0  0  0  0  0  0  0  0  0
  1  2  1  0
  2  3  2  0
  3  4  1  0
  4  5  1  0
  5  6  1  0
  6  7  1  0
  6  8  1  0
  6  9  1  0
  9 10  1  0
  9 11  1  0
  9 12  1  0
  4 13  2  0
 13 14  1  0
 14 15  2  0
 15 16  1  0
 15 17  1  0
 17 18  2  0
 18 19  1  0
 18 20  1  0
 20 21  1  0
 20 22  2  0
 22 23  1  0
 13 24  1  0
 24 25  2  0
 25 26  1  0
 25  2  1  0
 22 14  1  0
M  END
>  <plip>  (1) 
-0.0

>  <filename>  (1) 
[H][c]1[n][c]([S][C]([H])([H])[C]([H])([H])[H])[c](-[c]2[c]([H])[n][c]([H])[c]([H])[c]2[H])[n][c]1[H]

$$$$
