
     RDKit          3D

 21 22  0  0  0  0  0  0  0  0999 V2000
    4.9210    1.7819   16.9945 H   0  0  0  0  0  0  0  0  0  0  0  0
    5.4045    1.2949   17.8377 C   0  0  0  0  0  0  0  0  0  0  0  0
    6.5671    0.6809   17.5776 N   0  0  0  0  0  0  0  0  0  0  0  0
    7.1642    0.0538   18.5968 C   0  0  0  0  0  0  0  0  0  0  0  0
    8.1136   -0.4307   18.3736 H   0  0  0  0  0  0  0  0  0  0  0  0
    6.6252   -0.0181   19.8893 C   0  0  0  0  0  0  0  0  0  0  0  0
    7.3854   -0.6827   21.0086 C   0  0  1  0  0  0  0  0  0  0  0  0
    6.6868   -0.9852   21.8035 H   0  0  0  0  0  0  0  0  0  0  0  0
    7.9878   -1.8448   20.5317 F   0  0  0  0  0  0  0  0  0  0  0  0
    8.4424    0.2402   21.5733 C   0  0  0  0  0  0  0  0  0  0  0  0
    8.2297    1.1099   22.5989 C   0  0  0  0  0  0  0  0  0  0  0  0
    7.3227    1.2288   23.1733 H   0  0  0  0  0  0  0  0  0  0  0  0
    9.6040    2.0791   22.9425 S   0  0  0  0  0  0  0  0  0  0  0  0
   10.4822    1.3236   21.6718 C   0  0  0  0  0  0  0  0  0  0  0  0
   11.5026    1.6089   21.4753 H   0  0  0  0  0  0  0  0  0  0  0  0
    9.7533    0.3758   21.0292 C   0  0  0  0  0  0  0  0  0  0  0  0
   10.1014   -0.2465   20.2050 H   0  0  0  0  0  0  0  0  0  0  0  0
    5.4266    0.6476   20.1517 C   0  0  0  0  0  0  0  0  0  0  0  0
    4.9891    0.6377   21.1544 H   0  0  0  0  0  0  0  0  0  0  0  0
    4.8017    1.3163   19.1019 C   0  0  0  0  0  0  0  0  0  0  0  0
    3.8677    1.8498   19.2545 H   0  0  0  0  0  0  0  0  0  0  0  0
  1  2  1  0
  2  3  2  0
  3  4  1  0
  4  5  1  0
  4  6  2  0
  6  7  1  0
  7  8  1  1
  7  9  1  0
  7 10  1  0
 10 11  2  0
 11 12  1  0
 11 13  1  0
 13 14  1  0
 14 15  1  0
 14 16  2  0
 16 17  1  0
  6 18  1  0
 18 19  1  0
 18 20  2  0
 20 21  1  0
 20  2  1  0
 16 10  1  0
M  END
>  <plip>  (1) 
-0.03571428571428571

>  <filename>  (1) 
[H][c]1[n][c]([H])[c]([C@@]([H])([F])[c]2[c]([H])[s][c]([H])[c]2[H])[c]([H])[c]1[H]

$$$$
