
     RDKit          3D

 38 38  0  0  0  0  0  0  0  0999 V2000
   13.4447    1.2413   23.4201 C   0  0  0  0  0  0  0  0  0  0  0  0
   12.0759    1.8978   23.4948 C   0  0  0  0  0  0  0  0  0  0  0  0
   11.4157    2.0242   22.1207 C   0  0  0  0  0  0  0  0  0  0  0  0
   10.0889    2.7819   22.1528 C   0  0  0  0  0  0  0  0  0  0  0  0
    9.0960    2.1005   22.9912 N   0  0  0  0  0  0  0  0  0  0  0  0
    8.0367    1.4300   22.2460 C   0  0  0  0  0  0  0  0  0  0  0  0
    8.5455    0.1689   21.5497 C   0  0  0  0  0  0  0  0  0  0  0  0
    7.4163   -0.7105   20.9876 C   0  0  0  0  0  0  0  0  0  0  0  0
    6.6450   -0.0141   19.8956 C   0  0  0  0  0  0  0  0  0  0  0  0
    5.4356    0.6480   20.1506 C   0  0  0  0  0  0  0  0  0  0  0  0
    4.8013    1.3152   19.0983 C   0  0  0  0  0  0  0  0  0  0  0  0
    5.3992    1.2979   17.8321 C   0  0  0  0  0  0  0  0  0  0  0  0
    6.5604    0.6852   17.5674 N   0  0  0  0  0  0  0  0  0  0  0  0
    7.1604    0.0638   18.5887 C   0  0  0  0  0  0  0  0  0  0  0  0
    8.1096   -0.4188   18.3666 H   0  0  0  0  0  0  0  0  0  0  0  0
    4.9147    1.7873   16.9893 H   0  0  0  0  0  0  0  0  0  0  0  0
    3.8692    1.8476   19.2530 H   0  0  0  0  0  0  0  0  0  0  0  0
    5.0132    0.6385   21.1600 H   0  0  0  0  0  0  0  0  0  0  0  0
    6.7315   -0.9857   21.8033 H   0  0  0  0  0  0  0  0  0  0  0  0
    7.8347   -1.6526   20.6050 H   0  0  0  0  0  0  0  0  0  0  0  0
    9.2177    0.4558   20.7304 H   0  0  0  0  0  0  0  0  0  0  0  0
    9.1438   -0.4090   22.2643 H   0  0  0  0  0  0  0  0  0  0  0  0
    7.2569    1.1623   22.9653 H   0  0  0  0  0  0  0  0  0  0  0  0
    7.5694    2.1268   21.5322 H   0  0  0  0  0  0  0  0  0  0  0  0
    8.4732    3.0370   23.8490 O   0  0  0  0  0  0  0  0  0  0  0  0
    8.7672    2.6580   25.1788 C   0  0  0  0  0  0  0  0  0  0  0  0
    9.8420    2.7338   25.3875 H   0  0  0  0  0  0  0  0  0  0  0  0
    8.4513    1.6238   25.3662 H   0  0  0  0  0  0  0  0  0  0  0  0
    8.2079    3.3422   25.8232 H   0  0  0  0  0  0  0  0  0  0  0  0
   10.2635    3.7848   22.5547 H   0  0  0  0  0  0  0  0  0  0  0  0
    9.7043    2.9012   21.1284 H   0  0  0  0  0  0  0  0  0  0  0  0
   11.2565    1.0247   21.7005 H   0  0  0  0  0  0  0  0  0  0  0  0
   12.0970    2.5430   21.4326 H   0  0  0  0  0  0  0  0  0  0  0  0
   11.4224    1.3268   24.1655 H   0  0  0  0  0  0  0  0  0  0  0  0
   12.1689    2.8934   23.9493 H   0  0  0  0  0  0  0  0  0  0  0  0
   13.8942    1.1424   24.4084 H   0  0  0  0  0  0  0  0  0  0  0  0
   14.1285    1.8209   22.7915 H   0  0  0  0  0  0  0  0  0  0  0  0
   13.3787    0.2365   22.9934 H   0  0  0  0  0  0  0  0  0  0  0  0
  1  2  1  0
  2  3  1  0
  3  4  1  0
  4  5  1  0
  5  6  1  0
  6  7  1  0
  7  8  1  0
  8  9  1  0
  9 10  2  0
 10 11  1  0
 11 12  2  0
 12 13  1  0
 13 14  2  0
 14 15  1  0
 12 16  1  0
 11 17  1  0
 10 18  1  0
  8 19  1  0
  8 20  1  0
  7 21  1  0
  7 22  1  0
  6 23  1  0
  6 24  1  0
  5 25  1  0
 25 26  1  0
 26 27  1  0
 26 28  1  0
 26 29  1  0
  4 30  1  0
  4 31  1  0
  3 32  1  0
  3 33  1  0
  2 34  1  0
  2 35  1  0
  1 36  1  0
  1 37  1  0
  1 38  1  0
 14  9  1  0
M  END
>  <plip>  (1) 
-0.07142857142857142

>  <filename>  (1) 
[H][c]1[n][c]([H])[c]([C]([H])([H])[C]([H])([H])[C]([H])([H])[N]([O][C]([H])([H])[H])[C]([H])([H])[C]([H])([H])[C]([H])([H])[C]([H])([H])[H])[c]([H])[c]1[H]

$$$$
