
     RDKit          3D

 38 39  0  0  0  0  0  0  0  0999 V2000
    7.4520   -2.9355   22.2569 C   0  0  0  0  0  0  0  0  0  0  0  0
    6.7150   -2.0600   21.2542 C   0  0  0  0  0  0  0  0  0  0  0  0
    7.3969   -0.7124   21.0005 C   0  0  0  0  0  0  0  0  0  0  0  0
    7.4081    0.0523   22.2373 O   0  0  0  0  0  0  0  0  0  0  0  0
    8.1476    1.1962   22.2808 C   0  0  0  0  0  0  0  0  0  0  0  0
    8.8366    1.5614   21.3538 O   0  0  0  0  0  0  0  0  0  0  0  0
    8.0308    1.9345   23.6075 C   0  0  0  0  0  0  0  0  0  0  0  0
    8.7691    3.1237   23.7991 C   0  0  0  0  0  0  0  0  0  0  0  0
    8.7013    3.8463   25.0080 C   0  0  0  0  0  0  0  0  0  0  0  0
    9.4732    5.1300   25.2583 C   0  0  0  0  0  0  0  0  0  0  0  0
    9.3898    5.7143   26.3203 O   0  0  0  0  0  0  0  0  0  0  0  0
   10.3684    5.6827   24.1689 C   0  0  0  0  0  0  0  0  0  0  0  0
   11.1460    4.9604   23.9015 H   0  0  0  0  0  0  0  0  0  0  0  0
    9.7942    5.8974   23.2621 H   0  0  0  0  0  0  0  0  0  0  0  0
   10.8356    6.6016   24.5290 H   0  0  0  0  0  0  0  0  0  0  0  0
    7.8742    3.3579   26.0429 C   0  0  0  0  0  0  0  0  0  0  0  0
    7.1417    2.1825   25.8622 C   0  0  0  0  0  0  0  0  0  0  0  0
    7.2139    1.4697   24.6583 C   0  0  0  0  0  0  0  0  0  0  0  0
    6.6379    0.5533   24.5351 H   0  0  0  0  0  0  0  0  0  0  0  0
    6.5079    1.8162   26.6674 H   0  0  0  0  0  0  0  0  0  0  0  0
    7.8097    3.9055   26.9844 H   0  0  0  0  0  0  0  0  0  0  0  0
    9.3981    3.4761   22.9807 H   0  0  0  0  0  0  0  0  0  0  0  0
    6.6737    0.0467   19.9112 C   0  0  0  0  0  0  0  0  0  0  0  0
    5.4405    0.6636   20.1567 C   0  0  0  0  0  0  0  0  0  0  0  0
    4.8025    1.3118   19.1000 C   0  0  0  0  0  0  0  0  0  0  0  0
    5.4021    1.2897   17.8335 C   0  0  0  0  0  0  0  0  0  0  0  0
    6.5619    0.6707   17.5710 N   0  0  0  0  0  0  0  0  0  0  0  0
    7.1735    0.0776   18.6064 C   0  0  0  0  0  0  0  0  0  0  0  0
    8.1168   -0.4157   18.3754 H   0  0  0  0  0  0  0  0  0  0  0  0
    4.9177    1.7807   16.9924 H   0  0  0  0  0  0  0  0  0  0  0  0
    3.8701    1.8440   19.2558 H   0  0  0  0  0  0  0  0  0  0  0  0
    5.0101    0.6362   21.1631 H   0  0  0  0  0  0  0  0  0  0  0  0
    8.4311   -0.9017   20.6829 H   0  0  0  0  0  0  0  0  0  0  0  0
    6.6343   -2.5902   20.2975 H   0  0  0  0  0  0  0  0  0  0  0  0
    5.6787   -1.8926   21.5676 H   0  0  0  0  0  0  0  0  0  0  0  0
    7.5014   -2.4290   23.2234 H   0  0  0  0  0  0  0  0  0  0  0  0
    8.4783   -3.1241   21.9231 H   0  0  0  0  0  0  0  0  0  0  0  0
    6.9535   -3.9002   22.3902 H   0  0  0  0  0  0  0  0  0  0  0  0
  1  2  1  0
  2  3  1  0
  3  4  1  0
  4  5  1  0
  5  6  2  0
  5  7  1  0
  7  8  2  0
  8  9  1  0
  9 10  1  0
 10 11  2  0
 10 12  1  0
 12 13  1  0
 12 14  1  0
 12 15  1  0
  9 16  2  0
 16 17  1  0
 17 18  2  0
 18 19  1  0
 17 20  1  0
 16 21  1  0
  8 22  1  0
  3 23  1  0
 23 24  2  0
 24 25  1  0
 25 26  2  0
 26 27  1  0
 27 28  2  0
 28 29  1  0
 26 30  1  0
 25 31  1  0
 24 32  1  0
  3 33  1  0
  2 34  1  0
  2 35  1  0
  1 36  1  0
  1 37  1  0
  1 38  1  0
 18  7  1  0
 28 23  1  0
M  END
>  <plip>  (1) 
-0.14285714285714285

>  <filename>  (1) 
[H][c]1[n][c]([H])[c]([C]([H])([O][C](=[O])[c]2[c]([H])[c]([H])[c]([H])[c]([C](=[O])[C]([H])([H])[H])[c]2[H])[C]([H])([H])[C]([H])([H])[H])[c]([H])[c]1[H]

$$$$
