
     RDKit          3D

 20 21  0  0  0  0  0  0  0  0999 V2000
    9.1667   -1.3884   21.2965 H   0  0  0  0  0  0  0  0  0  0  0  0
    8.7870   -1.0138   20.4856 O   0  0  0  0  0  0  0  0  0  0  0  0
    7.6126   -0.4119   21.0202 N   0  0  0  0  0  0  0  0  0  0  0  0
    6.8166    0.1041   19.9313 C   0  0  0  0  0  0  0  0  0  0  0  0
    7.2594    0.0818   18.5903 C   0  0  0  0  0  0  0  0  0  0  0  0
    8.2032   -0.3867   18.3376 H   0  0  0  0  0  0  0  0  0  0  0  0
    6.5703    0.6188   17.5774 N   0  0  0  0  0  0  0  0  0  0  0  0
    5.4110    1.2283   17.8661 C   0  0  0  0  0  0  0  0  0  0  0  0
    4.8823    1.6769   17.0261 H   0  0  0  0  0  0  0  0  0  0  0  0
    4.8748    1.2877   19.1585 C   0  0  0  0  0  0  0  0  0  0  0  0
    3.9215    1.7785   19.3229 H   0  0  0  0  0  0  0  0  0  0  0  0
    5.5861    0.7056   20.2169 C   0  0  0  0  0  0  0  0  0  0  0  0
    5.1982    0.7096   21.2354 H   0  0  0  0  0  0  0  0  0  0  0  0
    6.9506   -1.4017   21.7759 N   0  0  0  0  0  0  0  0  0  0  0  0
    7.0350   -1.4392   23.1283 N   0  0  0  0  0  0  0  0  0  0  0  0
    6.5833   -2.6455   23.4034 C   0  0  0  0  0  0  0  0  0  0  0  0
    6.5413   -3.0099   24.4260 H   0  0  0  0  0  0  0  0  0  0  0  0
    6.2405   -3.4041   22.3091 N   0  0  0  0  0  0  0  0  0  0  0  0
    6.4903   -2.5880   21.3122 C   0  0  0  0  0  0  0  0  0  0  0  0
    6.3691   -2.7860   20.2543 H   0  0  0  0  0  0  0  0  0  0  0  0
  1  2  1  0
  2  3  1  0
  3  4  1  0
  4  5  2  0
  5  6  1  0
  5  7  1  0
  7  8  2  0
  8  9  1  0
  8 10  1  0
 10 11  1  0
 10 12  2  0
 12 13  1  0
  3 14  1  0
 14 15  1  0
 15 16  2  0
 16 17  1  0
 16 18  1  0
 18 19  2  0
 19 20  1  0
 12  4  1  0
 19 14  1  0
M  END
>  <plip>  (1) 
-0.07142857142857142

>  <filename>  (1) 
[H][O][N]([c]1[c]([H])[n][c]([H])[c]([H])[c]1[H])[n]1[n][c]([H])[n][c]1[H]

$$$$
