
     RDKit          3D

 53 56  0  0  0  0  0  0  0  0999 V2000
    0.6672   -5.1503   24.7096 F   0  0  0  0  0  0  0  0  0  0  0  0
    1.6909   -5.4316   23.8899 C   0  0  0  0  0  0  0  0  0  0  0  0
    1.5716   -6.4844   22.9898 C   0  0  0  0  0  0  0  0  0  0  0  0
    2.6609   -6.7738   22.1601 C   0  0  0  0  0  0  0  0  0  0  0  0
    3.8351   -6.0158   22.2283 C   0  0  0  0  0  0  0  0  0  0  0  0
    3.9179   -4.9468   23.1414 C   0  0  0  0  0  0  0  0  0  0  0  0
    5.1104   -4.1692   23.2311 N   0  0  0  0  0  0  0  0  0  0  0  0
    5.6433   -3.5519   24.3274 C   0  0  0  0  0  0  0  0  0  0  0  0
    6.8716   -3.0511   23.9519 C   0  0  0  0  0  0  0  0  0  0  0  0
    6.9968   -3.4123   22.5890 C   0  0  0  0  0  0  0  0  0  0  0  0
    8.0929   -3.1527   21.5771 C   0  0  0  0  0  0  0  0  0  0  0  0
    7.7183   -2.1044   20.5740 N   0  0  0  0  0  4  0  0  0  0  0  0
    7.1865   -0.8082   21.1432 C   0  0  0  0  0  0  0  0  0  0  0  0
    6.6001   -0.0417   19.9891 C   0  0  0  0  0  0  0  0  0  0  0  0
    5.4022    0.6881   20.1304 C   0  0  0  0  0  0  0  0  0  0  0  0
    4.8571    1.3273   19.0138 C   0  0  0  0  0  0  0  0  0  0  0  0
    5.5377    1.2464   17.7934 C   0  0  0  0  0  0  0  0  0  0  0  0
    6.6835    0.5723   17.6363 N   0  0  0  0  0  0  0  0  0  0  0  0
    7.1781   -0.0578   18.7092 C   0  0  0  0  0  0  0  0  0  0  0  0
    8.0803   -0.6333   18.5081 H   0  0  0  0  0  0  0  0  0  0  0  0
    5.1356    1.7221   16.8998 H   0  0  0  0  0  0  0  0  0  0  0  0
    3.9225    1.8774   19.0675 H   0  0  0  0  0  0  0  0  0  0  0  0
    4.8838    0.7376   21.0936 H   0  0  0  0  0  0  0  0  0  0  0  0
    8.2897   -0.1502   22.0213 C   0  0  0  0  0  0  0  0  0  0  0  0
    9.6671    0.0184   21.3022 C   0  0  0  0  0  0  0  0  0  0  0  0
   10.5204    1.0967   21.9782 C   0  0  0  0  0  0  0  0  0  0  0  0
    9.8347    2.4645   21.7827 C   0  0  0  0  0  0  0  0  0  0  0  0
    8.2865    2.3780   21.8588 C   0  0  0  0  0  0  0  0  0  0  0  0
    7.8305    1.1696   22.6880 C   0  0  0  0  0  0  0  0  0  0  0  0
    8.2815    1.2218   23.6908 H   0  0  0  0  0  0  0  0  0  0  0  0
    6.7434    1.1878   22.8323 H   0  0  0  0  0  0  0  0  0  0  0  0
    7.8917    2.2523   20.8420 H   0  0  0  0  0  0  0  0  0  0  0  0
    7.8457    3.3049   22.2392 H   0  0  0  0  0  0  0  0  0  0  0  0
   10.2301    3.1887   22.5039 H   0  0  0  0  0  0  0  0  0  0  0  0
   10.1154    2.8232   20.7918 H   0  0  0  0  0  0  0  0  0  0  0  0
   11.5316    1.1145   21.5487 H   0  0  0  0  0  0  0  0  0  0  0  0
   10.6259    0.8915   23.0548 H   0  0  0  0  0  0  0  0  0  0  0  0
   10.2235   -0.9278   21.2742 H   0  0  0  0  0  0  0  0  0  0  0  0
    9.4914    0.3316   20.2562 H   0  0  0  0  0  0  0  0  0  0  0  0
    8.4234   -0.8862   22.8247 H   0  0  0  0  0  0  0  0  0  0  0  0
    6.3593   -1.0561   21.8189 H   0  0  0  0  0  0  0  0  0  0  0  0
    6.9866   -2.4779   19.9222 H   0  0  0  0  0  0  0  0  0  0  0  0
    8.5262   -1.8315   19.9795 H   0  0  0  0  0  0  0  0  0  0  0  0
    8.9961   -2.8659   22.1261 H   0  0  0  0  0  0  0  0  0  0  0  0
    8.3006   -4.0966   21.0685 H   0  0  0  0  0  0  0  0  0  0  0  0
    5.9397   -4.0838   22.1699 N   0  0  0  0  0  0  0  0  0  0  0  0
    7.5849   -2.4913   24.5454 H   0  0  0  0  0  0  0  0  0  0  0  0
    5.1139   -3.5457   25.2716 H   0  0  0  0  0  0  0  0  0  0  0  0
    2.8394   -4.6545   23.9871 C   0  0  0  0  0  0  0  0  0  0  0  0
    2.8650   -3.8457   24.7104 H   0  0  0  0  0  0  0  0  0  0  0  0
    4.6853   -6.2376   21.5876 H   0  0  0  0  0  0  0  0  0  0  0  0
    2.5832   -7.5996   21.4559 H   0  0  0  0  0  0  0  0  0  0  0  0
    0.6472   -7.0518   22.9553 H   0  0  0  0  0  0  0  0  0  0  0  0
  1  2  1  0
  2  3  2  0
  3  4  1  0
  4  5  2  0
  5  6  1  0
  6  7  1  0
  7  8  1  0
  8  9  2  0
  9 10  1  0
 10 11  1  0
 11 12  1  0
 12 13  1  0
 13 14  1  0
 14 15  2  0
 15 16  1  0
 16 17  2  0
 17 18  1  0
 18 19  2  0
 19 20  1  0
 17 21  1  0
 16 22  1  0
 15 23  1  0
 13 24  1  0
 24 25  1  0
 25 26  1  0
 26 27  1  0
 27 28  1  0
 28 29  1  0
 29 30  1  0
 29 31  1  0
 28 32  1  0
 28 33  1  0
 27 34  1  0
 27 35  1  0
 26 36  1  0
 26 37  1  0
 25 38  1  0
 25 39  1  0
 24 40  1  0
 13 41  1  0
 12 42  1  0
 12 43  1  0
 11 44  1  0
 11 45  1  0
 10 46  2  0
  9 47  1  0
  8 48  1  0
  6 49  2  0
 49 50  1  0
  5 51  1  0
  4 52  1  0
  3 53  1  0
 49  2  1  0
 46  7  1  0
 19 14  1  0
 29 24  1  0
M  CHG  1  12   1
M  END
>  <plip>  (1) 
-0.03225806451612903

>  <filename>  (1) 
[H][c]1[n][c]([H])[c]([C]([H])([C]2([H])[C]([H])([H])[C]([H])([H])[C]([H])([H])[C]([H])([H])[C]2([H])[H])[N+]([H])([H])[C]([H])([H])[c]2[n][n](-[c]3[c]([H])[c]([H])[c]([H])[c]([F])[c]3[H])[c]([H])[c]2[H])[c]([H])[c]1[H]

$$$$
