
     RDKit          3D

 34 35  0  0  0  0  0  0  0  0999 V2000
    7.4668   -1.9952   21.0476 C   0  0  0  0  0  0  0  0  0  0  0  0
    7.3152   -0.4936   21.2615 C   0  0  0  0  0  0  0  0  0  0  0  0
    8.6556    0.0805   21.3139 N   0  0  0  0  0  4  0  0  0  0  0  0
    9.3163   -0.2310   22.5972 C   0  0  0  0  0  0  0  0  0  0  0  0
   10.6429    0.4639   22.7132 C   0  0  0  0  0  0  0  0  0  0  0  0
   11.7795   -0.2214   22.2773 C   0  0  0  0  0  0  0  0  0  0  0  0
   11.5552   -1.9417   21.5015 Br  0  0  0  0  0  0  0  0  0  0  0  0
   13.0534    0.3288   22.4383 C   0  0  0  0  0  0  0  0  0  0  0  0
   14.1548   -0.3584   22.0255 O   0  0  0  0  0  0  0  0  0  0  0  0
   13.8639   -1.2152   21.6754 H   0  0  0  0  0  0  0  0  0  0  0  0
   13.2035    1.5707   23.0376 C   0  0  0  0  0  0  0  0  0  0  0  0
   12.0754    2.2678   23.4837 C   0  0  0  0  0  0  0  0  0  0  0  0
   10.7974    1.7180   23.3227 C   0  0  0  0  0  0  0  0  0  0  0  0
    9.9333    2.2658   23.6863 H   0  0  0  0  0  0  0  0  0  0  0  0
   12.1869    3.2349   23.9586 H   0  0  0  0  0  0  0  0  0  0  0  0
   14.2074    1.9656   23.1451 H   0  0  0  0  0  0  0  0  0  0  0  0
    8.6696    0.0495   23.4373 H   0  0  0  0  0  0  0  0  0  0  0  0
    9.5091   -1.3130   22.6671 H   0  0  0  0  0  0  0  0  0  0  0  0
    9.2052   -0.2969   20.5405 H   0  0  0  0  0  0  0  0  0  0  0  0
    8.5851    1.0928   21.2022 H   0  0  0  0  0  0  0  0  0  0  0  0
    6.6405    0.1646   20.0962 C   0  0  0  0  0  0  0  0  0  0  0  0
    5.3985    0.8036   20.2131 C   0  0  0  0  0  0  0  0  0  0  0  0
    4.8509    1.3686   19.0604 C   0  0  0  0  0  0  0  0  0  0  0  0
    5.5333    1.2897   17.8451 C   0  0  0  0  0  0  0  0  0  0  0  0
    6.7185    0.6645   17.7318 N   0  0  0  0  0  0  0  0  0  0  0  0
    7.2538    0.1231   18.8402 C   0  0  0  0  0  0  0  0  0  0  0  0
    8.2054   -0.3893   18.7633 H   0  0  0  0  0  0  0  0  0  0  0  0
    5.0838    1.7431   16.9648 H   0  0  0  0  0  0  0  0  0  0  0  0
    3.8979    1.8815   19.0872 H   0  0  0  0  0  0  0  0  0  0  0  0
    4.8644    0.8658   21.1612 H   0  0  0  0  0  0  0  0  0  0  0  0
    6.7623   -0.3058   22.1937 H   0  0  0  0  0  0  0  0  0  0  0  0
    7.6337   -2.5031   22.0032 H   0  0  0  0  0  0  0  0  0  0  0  0
    8.3361   -2.1746   20.4132 H   0  0  0  0  0  0  0  0  0  0  0  0
    6.5738   -2.4146   20.5720 H   0  0  0  0  0  0  0  0  0  0  0  0
  1  2  1  0
  2  3  1  0
  3  4  1  0
  4  5  1  0
  5  6  2  0
  6  7  1  0
  6  8  1  0
  8  9  1  0
  9 10  1  0
  8 11  2  0
 11 12  1  0
 12 13  2  0
 13 14  1  0
 12 15  1  0
 11 16  1  0
  4 17  1  0
  4 18  1  0
  3 19  1  0
  3 20  1  0
  2 21  1  0
 21 22  2  0
 22 23  1  0
 23 24  2  0
 24 25  1  0
 25 26  2  0
 26 27  1  0
 24 28  1  0
 23 29  1  0
 22 30  1  0
  2 31  1  0
  1 32  1  0
  1 33  1  0
  1 34  1  0
 13  5  1  0
 26 21  1  0
M  CHG  1   3   1
M  END
>  <plip>  (1) 
-0.10344827586206896

>  <filename>  (1) 
[H][O][c]1[c]([H])[c]([H])[c]([H])[c]([C]([H])([H])[N+]([H])([H])[C]([H])([c]2[c]([H])[n][c]([H])[c]([H])[c]2[H])[C]([H])([H])[H])[c]1[Br]

$$$$
