
     RDKit          3D

 28 30  0  0  0  0  0  0  0  0999 V2000
    6.5336   -3.4693   23.6975 Cl  0  0  0  0  0  0  0  0  0  0  0  0
    7.4075   -2.3101   22.7518 C   0  0  0  0  0  0  0  0  0  0  0  0
    6.7475   -1.6051   21.7493 C   0  0  0  0  0  0  0  0  0  0  0  0
    7.4202   -0.6557   20.9686 C   0  0  0  0  0  0  0  0  0  0  0  0
    6.6694    0.0387   19.8834 C   0  0  0  0  0  0  0  0  0  0  0  0
    5.4360    0.6588   20.1300 C   0  0  0  0  0  0  0  0  0  0  0  0
    4.7926    1.3157   19.0807 C   0  0  0  0  0  0  0  0  0  0  0  0
    5.3840    1.2989   17.8115 C   0  0  0  0  0  0  0  0  0  0  0  0
    6.5399    0.6736   17.5400 N   0  0  0  0  0  0  0  0  0  0  0  0
    7.1636    0.0752   18.5663 C   0  0  0  0  0  0  0  0  0  0  0  0
    8.1107   -0.4086   18.3278 H   0  0  0  0  0  0  0  0  0  0  0  0
    4.9212    1.8150   16.9729 H   0  0  0  0  0  0  0  0  0  0  0  0
    3.8612    1.8492   19.2312 H   0  0  0  0  0  0  0  0  0  0  0  0
    5.0099    0.6434   21.1352 H   0  0  0  0  0  0  0  0  0  0  0  0
    8.7720   -0.3958   21.2477 C   0  0  0  0  0  0  0  0  0  0  0  0
    9.4353    0.5724   20.5325 O   0  0  0  0  0  0  0  0  0  0  0  0
   10.6369    1.0548   21.1594 C   0  0  0  0  0  0  0  0  0  0  0  0
   11.5338   -0.1210   21.5790 C   0  0  0  0  0  0  0  0  0  0  0  0
   10.7689   -0.8747   22.5594 N   0  0  0  0  0  0  0  0  0  0  0  0
    9.4412   -1.1372   22.2702 C   0  0  0  0  0  0  0  0  0  0  0  0
    8.7537   -2.0908   23.0229 C   0  0  0  0  0  0  0  0  0  0  0  0
    9.2646   -2.6269   23.8149 H   0  0  0  0  0  0  0  0  0  0  0  0
   11.2000   -1.4837   23.2330 H   0  0  0  0  0  0  0  0  0  0  0  0
   12.4718    0.2263   22.0281 H   0  0  0  0  0  0  0  0  0  0  0  0
   11.7731   -0.7175   20.6814 H   0  0  0  0  0  0  0  0  0  0  0  0
   11.0969    1.7327   20.4425 H   0  0  0  0  0  0  0  0  0  0  0  0
   10.3578    1.6270   22.0502 H   0  0  0  0  0  0  0  0  0  0  0  0
    5.7059   -1.8057   21.5582 H   0  0  0  0  0  0  0  0  0  0  0  0
  1  2  1  0
  2  3  2  0
  3  4  1  0
  4  5  1  0
  5  6  2  0
  6  7  1  0
  7  8  2  0
  8  9  1  0
  9 10  2  0
 10 11  1  0
  8 12  1  0
  7 13  1  0
  6 14  1  0
  4 15  2  0
 15 16  1  0
 16 17  1  0
 17 18  1  0
 18 19  1  0
 19 20  1  0
 20 21  2  0
 21 22  1  0
 19 23  1  0
 18 24  1  0
 18 25  1  0
 17 26  1  0
 17 27  1  0
  3 28  1  0
 21  2  1  0
 10  5  1  0
 20 15  1  0
M  END
>  <plip>  (1) 
-0.03571428571428571

>  <filename>  (1) 
[H][c]1[n][c]([H])[c](-[c]2[c]([H])[c]([Cl])[c]([H])[c]3[c]2[O][C]([H])([H])[C]([H])([H])[N]3[H])[c]([H])[c]1[H]

$$$$
