
     RDKit          3D

 34 36  0  0  0  0  0  0  0  0999 V2000
   13.6135    4.6530   22.5927 C   0  0  0  0  0  0  0  0  0  0  0  0
   12.4068    3.8136   22.4097 C   0  0  0  0  0  0  0  0  0  0  0  0
   12.3896    2.5774   22.0269 N   0  0  0  0  0  0  0  0  0  0  0  0
   11.0641    2.2466   21.9287 C   0  0  0  0  0  0  0  0  0  0  0  0
   10.6011    1.0924   21.4853 N   0  0  0  0  0  0  0  0  0  0  0  0
    9.2768    1.0368   21.3286 C   0  0  0  0  0  0  0  0  0  0  0  0
    8.9116   -0.1866   20.8658 N   0  0  0  0  0  0  0  0  0  0  0  0
    7.5707   -0.7368   20.9002 C   0  0  1  0  0  0  0  0  0  0  0  0
    6.9906   -0.8220   22.3094 C   0  0  0  0  0  0  0  0  0  0  0  0
    7.6718   -1.3685   22.9701 H   0  0  0  0  0  0  0  0  0  0  0  0
    6.8226    0.1729   22.7345 H   0  0  0  0  0  0  0  0  0  0  0  0
    6.0392   -1.3575   22.2722 H   0  0  0  0  0  0  0  0  0  0  0  0
    6.7013   -0.0037   19.8858 C   0  0  0  0  0  0  0  0  0  0  0  0
    5.4666    0.6132   20.1268 C   0  0  0  0  0  0  0  0  0  0  0  0
    4.8258    1.2734   19.0693 C   0  0  0  0  0  0  0  0  0  0  0  0
    5.4295    1.2882   17.8095 C   0  0  0  0  0  0  0  0  0  0  0  0
    6.6000    0.6865   17.5501 N   0  0  0  0  0  0  0  0  0  0  0  0
    7.2059    0.0760   18.5745 C   0  0  0  0  0  0  0  0  0  0  0  0
    8.1588   -0.3957   18.3444 H   0  0  0  0  0  0  0  0  0  0  0  0
    4.9553    1.8015   16.9744 H   0  0  0  0  0  0  0  0  0  0  0  0
    3.8850    1.7916   19.2146 H   0  0  0  0  0  0  0  0  0  0  0  0
    5.0120    0.6211   21.1227 H   0  0  0  0  0  0  0  0  0  0  0  0
    7.6863   -1.7632   20.5265 H   0  0  0  0  0  0  0  0  0  0  0  0
    9.7141   -0.7781   21.0363 H   0  0  0  0  0  0  0  0  0  0  0  0
    8.3873    2.1113   21.6106 C   0  0  0  0  0  0  0  0  0  0  0  0
    8.8804    3.3055   22.1297 C   0  0  0  0  0  0  0  0  0  0  0  0
   10.2610    3.3588   22.2996 C   0  0  0  0  0  0  0  0  0  0  0  0
   11.1659    4.3497   22.6436 N   0  0  0  0  0  0  0  0  0  0  0  0
   10.9879    5.3409   22.6403 H   0  0  0  0  0  0  0  0  0  0  0  0
    8.2257    4.1486   22.3569 H   0  0  0  0  0  0  0  0  0  0  0  0
    7.3338    1.9763   21.4282 H   0  0  0  0  0  0  0  0  0  0  0  0
   13.8471    4.7808   23.6515 H   0  0  0  0  0  0  0  0  0  0  0  0
   13.4414    5.6367   22.1503 H   0  0  0  0  0  0  0  0  0  0  0  0
   14.4572    4.1779   22.0983 H   0  0  0  0  0  0  0  0  0  0  0  0
  1  2  1  0
  2  3  2  0
  3  4  1  0
  4  5  2  0
  5  6  1  0
  6  7  1  0
  7  8  1  0
  8  9  1  0
  9 10  1  0
  9 11  1  0
  9 12  1  0
  8 13  1  0
 13 14  2  0
 14 15  1  0
 15 16  2  0
 16 17  1  0
 17 18  2  0
 18 19  1  0
 16 20  1  0
 15 21  1  0
 14 22  1  0
  8 23  1  6
  7 24  1  0
  6 25  2  0
 25 26  1  0
 26 27  2  0
 27 28  1  0
 28 29  1  0
 26 30  1  0
 25 31  1  0
  1 32  1  0
  1 33  1  0
  1 34  1  0
 28  2  1  0
 27  4  1  0
 18 13  1  0
M  END
>  <plip>  (1) 
-0.06896551724137931

>  <filename>  (1) 
[H][c]1[n][c]([H])[c]([C@@]([H])([N]([H])[c]2[n][c]3[n][c]([C]([H])([H])[H])[n]([H])[c]3[c]([H])[c]2[H])[C]([H])([H])[H])[c]([H])[c]1[H]

$$$$
