
     RDKit          3D

 43 45  0  0  0  0  0  0  0  0999 V2000
    5.2176    1.5804   16.9132 H   0  0  0  0  0  0  0  0  0  0  0  0
    5.5937    1.1489   17.8385 C   0  0  0  0  0  0  0  0  0  0  0  0
    6.7536    0.4872   17.7553 N   0  0  0  0  0  0  0  0  0  0  0  0
    7.2589   -0.0183   18.8927 C   0  0  0  0  0  0  0  0  0  0  0  0
    8.2019   -0.5424   18.7684 H   0  0  0  0  0  0  0  0  0  0  0  0
    6.6658    0.0908   20.1634 C   0  0  0  0  0  0  0  0  0  0  0  0
    7.2750   -0.4541   21.4668 C   0  0  1  0  0  0  0  0  0  0  0  0
    7.0883    0.3428   22.2079 H   0  0  0  0  0  0  0  0  0  0  0  0
    6.5305   -1.7207   21.9584 C   0  0  0  0  0  0  0  0  0  0  0  0
    5.4582   -1.5914   21.7919 H   0  0  0  0  0  0  0  0  0  0  0  0
    6.7011   -1.8376   23.0391 H   0  0  0  0  0  0  0  0  0  0  0  0
    6.9877   -2.9928   21.2372 C   0  0  0  0  0  0  0  0  0  0  0  0
    6.4845   -3.8654   21.6744 H   0  0  0  0  0  0  0  0  0  0  0  0
    6.6772   -2.9509   20.1825 H   0  0  0  0  0  0  0  0  0  0  0  0
    8.4353   -3.2128   21.2939 N   0  0  0  0  0  0  0  0  0  0  0  0
    8.6774   -3.3858   22.2705 H   0  0  0  0  0  0  0  0  0  0  0  0
    9.1995   -2.0510   20.8320 C   0  0  0  0  0  0  0  0  0  0  0  0
   10.2670   -2.2599   20.9835 H   0  0  0  0  0  0  0  0  0  0  0  0
    9.0957   -1.9343   19.7518 H   0  0  0  0  0  0  0  0  0  0  0  0
    8.8172   -0.6979   21.4626 C   0  0  2  0  0  0  0  0  0  0  0  0
    9.2928    0.0680   20.8388 H   0  0  0  0  0  0  0  0  0  0  0  0
    9.4207   -0.5672   22.8800 C   0  0  0  0  0  0  0  0  0  0  0  0
   10.3761   -1.1048   22.9276 H   0  0  0  0  0  0  0  0  0  0  0  0
    8.7647   -1.0433   23.6205 H   0  0  0  0  0  0  0  0  0  0  0  0
    9.6706    0.8751   23.2798 C   0  0  0  0  0  0  0  0  0  0  0  0
   10.1152    0.9221   24.2837 H   0  0  0  0  0  0  0  0  0  0  0  0
    8.7283    1.4421   23.2918 H   0  0  0  0  0  0  0  0  0  0  0  0
   10.5672    1.4411   22.3237 O   0  0  0  0  0  0  0  0  0  0  0  0
   11.0076    2.7165   22.4818 C   0  0  0  0  0  0  0  0  0  0  0  0
   10.5888    3.5721   23.5088 C   0  0  0  0  0  0  0  0  0  0  0  0
    9.8396    3.2238   24.2107 H   0  0  0  0  0  0  0  0  0  0  0  0
   11.1346    4.8581   23.6132 C   0  0  0  0  0  0  0  0  0  0  0  0
   10.8073    5.5081   24.4217 H   0  0  0  0  0  0  0  0  0  0  0  0
   12.0893    5.2937   22.6939 C   0  0  0  0  0  0  0  0  0  0  0  0
   12.5298    6.2799   22.8037 H   0  0  0  0  0  0  0  0  0  0  0  0
   12.4863    4.4478   21.6496 C   0  0  0  0  0  0  0  0  0  0  0  0
   13.2216    4.7950   20.9251 H   0  0  0  0  0  0  0  0  0  0  0  0
   11.9484    3.1656   21.5355 C   0  0  0  0  0  0  0  0  0  0  0  0
   12.2320    2.5017   20.7263 H   0  0  0  0  0  0  0  0  0  0  0  0
    5.4127    0.7467   20.2033 C   0  0  0  0  0  0  0  0  0  0  0  0
    4.8546    0.8197   21.1424 H   0  0  0  0  0  0  0  0  0  0  0  0
    4.8792    1.2940   19.0347 C   0  0  0  0  0  0  0  0  0  0  0  0
    3.9381    1.8385   19.0330 H   0  0  0  0  0  0  0  0  0  0  0  0
  1  2  1  0
  2  3  2  0
  3  4  1  0
  4  5  1  0
  4  6  2  0
  6  7  1  0
  7  8  1  1
  7  9  1  0
  9 10  1  0
  9 11  1  0
  9 12  1  0
 12 13  1  0
 12 14  1  0
 12 15  1  0
 15 16  1  0
 15 17  1  0
 17 18  1  0
 17 19  1  0
 17 20  1  0
 20 21  1  6
 20 22  1  0
 22 23  1  0
 22 24  1  0
 22 25  1  0
 25 26  1  0
 25 27  1  0
 25 28  1  0
 28 29  1  0
 29 30  2  0
 30 31  1  0
 30 32  1  0
 32 33  1  0
 32 34  2  0
 34 35  1  0
 34 36  1  0
 36 37  1  0
 36 38  2  0
 38 39  1  0
  6 40  1  0
 40 41  1  0
 40 42  2  0
 42 43  1  0
 42  2  1  0
 20  7  1  0
 38 29  1  0
M  END
>  <plip>  (1) 
-0.1

>  <filename>  (1) 
[H][c]1[n][c]([H])[c]([C@@]2([H])[C]([H])([H])[C]([H])([H])[N]([H])[C]([H])([H])[C@]2([H])[C]([H])([H])[C]([H])([H])[O][c]2[c]([H])[c]([H])[c]([H])[c]([H])[c]2[H])[c]([H])[c]1[H]

$$$$
