
     RDKit          3D

 39 39  0  0  0  0  0  0  0  0999 V2000
    6.6578    0.8491   22.6956 H   0  0  0  0  0  0  0  0  0  0  0  0
    7.3194    0.0036   22.5233 C   0  0  0  0  0  0  0  0  0  0  0  0
    7.4866   -0.4826   21.2418 C   0  0  0  0  0  0  0  0  0  0  0  0
    8.7442   -1.9135   20.9546 Br  0  0  0  0  0  0  0  0  0  0  0  0
    6.7470    0.0830   20.0965 C   0  0  0  0  0  0  0  0  0  0  0  0
    7.2346   -0.1254   18.7947 C   0  0  0  0  0  0  0  0  0  0  0  0
    8.1443   -0.7042   18.6694 H   0  0  0  0  0  0  0  0  0  0  0  0
    6.6558    0.3818   17.6882 N   0  0  0  0  0  0  0  0  0  0  0  0
    5.5444    1.1201   17.8420 C   0  0  0  0  0  0  0  0  0  0  0  0
    5.0680    1.5503   16.9652 H   0  0  0  0  0  0  0  0  0  0  0  0
    4.9762    1.3601   19.0959 C   0  0  0  0  0  0  0  0  0  0  0  0
    4.0811    1.9678   19.1511 H   0  0  0  0  0  0  0  0  0  0  0  0
    5.5750    0.8414   20.2472 C   0  0  0  0  0  0  0  0  0  0  0  0
    5.1380    1.0367   21.2266 H   0  0  0  0  0  0  0  0  0  0  0  0
    7.9943   -0.6648   23.6982 C   0  0  0  0  0  0  0  0  0  0  0  0
    8.1606    0.0314   24.5275 H   0  0  0  0  0  0  0  0  0  0  0  0
    8.9714   -1.0519   23.3868 H   0  0  0  0  0  0  0  0  0  0  0  0
    7.0892   -1.8228   24.1222 C   0  0  0  0  0  0  0  0  0  0  0  0
    6.1700   -1.4323   24.5711 H   0  0  0  0  0  0  0  0  0  0  0  0
    6.8110   -2.3823   23.2216 H   0  0  0  0  0  0  0  0  0  0  0  0
    7.7729   -2.7811   25.0982 C   0  0  0  0  0  0  0  0  0  0  0  0
    8.7210   -3.1159   24.6659 H   0  0  0  0  0  0  0  0  0  0  0  0
    7.9874   -2.2709   26.0439 H   0  0  0  0  0  0  0  0  0  0  0  0
    6.8469   -3.9875   25.3118 C   0  0  0  0  0  0  0  0  0  0  0  0
    5.9405   -3.6678   25.8343 H   0  0  0  0  0  0  0  0  0  0  0  0
    6.5474   -4.3560   24.3216 H   0  0  0  0  0  0  0  0  0  0  0  0
    7.5321   -5.1381   26.0628 C   0  0  0  0  0  0  0  0  0  0  0  0
    8.4803   -5.3476   25.5566 H   0  0  0  0  0  0  0  0  0  0  0  0
    6.9067   -6.0324   25.9673 H   0  0  0  0  0  0  0  0  0  0  0  0
    7.8021   -4.8658   27.5589 C   0  0  0  0  0  0  0  0  0  0  0  0
    8.6785   -5.4508   27.8600 H   0  0  0  0  0  0  0  0  0  0  0  0
    8.0181   -3.8019   27.7201 H   0  0  0  0  0  0  0  0  0  0  0  0
    6.6291   -5.3082   28.4445 C   0  0  0  0  0  0  0  0  0  0  0  0
    6.3080   -6.3094   28.1376 H   0  0  0  0  0  0  0  0  0  0  0  0
    6.9590   -5.3685   29.4923 H   0  0  0  0  0  0  0  0  0  0  0  0
    5.4352   -4.3562   28.3154 C   0  0  0  0  0  0  0  0  0  0  0  0
    4.6747   -4.5988   29.0614 H   0  0  0  0  0  0  0  0  0  0  0  0
    5.7320   -3.3120   28.4513 H   0  0  0  0  0  0  0  0  0  0  0  0
    4.9832   -4.4484   27.3265 H   0  0  0  0  0  0  0  0  0  0  0  0
  1  2  1  0
  2  3  2  3
  3  4  1  0
  3  5  1  0
  5  6  2  0
  6  7  1  0
  6  8  1  0
  8  9  2  0
  9 10  1  0
  9 11  1  0
 11 12  1  0
 11 13  2  0
 13 14  1  0
  2 15  1  0
 15 16  1  0
 15 17  1  0
 15 18  1  0
 18 19  1  0
 18 20  1  0
 18 21  1  0
 21 22  1  0
 21 23  1  0
 21 24  1  0
 24 25  1  0
 24 26  1  0
 24 27  1  0
 27 28  1  0
 27 29  1  0
 27 30  1  0
 30 31  1  0
 30 32  1  0
 30 33  1  0
 33 34  1  0
 33 35  1  0
 33 36  1  0
 36 37  1  0
 36 38  1  0
 36 39  1  0
 13  5  1  0
M  END
>  <plip>  (1) 
-0.07142857142857142

>  <filename>  (1) 
[H][C](=[C]([Br])[c]1[c]([H])[n][c]([H])[c]([H])[c]1[H])[C]([H])([H])[C]([H])([H])[C]([H])([H])[C]([H])([H])[C]([H])([H])[C]([H])([H])[C]([H])([H])[C]([H])([H])[H]

$$$$
