
     RDKit          3D

 29 30  0  0  0  0  0  0  0  0999 V2000
    4.9289    1.8170   16.9846 H   0  0  0  0  0  0  0  0  0  0  0  0
    5.3860    1.2919   17.8179 C   0  0  0  0  0  0  0  0  0  0  0  0
    6.5387    0.6576   17.5475 N   0  0  0  0  0  0  0  0  0  0  0  0
    7.1439    0.0272   18.5600 C   0  0  0  0  0  0  0  0  0  0  0  0
    8.1005   -0.4459   18.3427 H   0  0  0  0  0  0  0  0  0  0  0  0
    6.6237   -0.0264   19.8701 C   0  0  0  0  0  0  0  0  0  0  0  0
    7.5537   -0.8068   21.1914 S   0  0  0  0  0  0  0  0  0  0  0  0
    8.5781    0.6340   21.6845 C   0  0  0  0  0  0  0  0  0  0  0  0
    9.6271    0.8234   21.1199 O   0  0  0  0  0  0  0  0  0  0  0  0
    8.0197    1.5746   22.7199 C   0  0  0  0  0  0  0  0  0  0  0  0
    8.6708    2.8161   22.8889 C   0  0  0  0  0  0  0  0  0  0  0  0
    9.5206    3.0716   22.2601 H   0  0  0  0  0  0  0  0  0  0  0  0
    8.2221    3.7366   23.8285 C   0  0  0  0  0  0  0  0  0  0  0  0
    8.7375    4.6878   23.9305 H   0  0  0  0  0  0  0  0  0  0  0  0
    7.1098    3.4245   24.6203 C   0  0  0  0  0  0  0  0  0  0  0  0
    6.5478    4.5947   25.8072 S   0  0  0  0  0  0  0  0  0  0  0  0
    5.1823    4.2835   26.1855 O   0  0  0  0  0  0  0  0  0  0  0  0
    6.9822    5.9434   25.5308 O   0  0  0  0  0  0  0  0  0  0  0  0
    7.3312    4.1610   27.2024 N   0  0  0  0  0  0  0  0  0  0  0  0
    6.8413    4.8976   27.7071 H   0  0  0  0  0  0  0  0  0  0  0  0
    6.7648    3.3414   27.4030 H   0  0  0  0  0  0  0  0  0  0  0  0
    6.4333    2.2026   24.4543 C   0  0  0  0  0  0  0  0  0  0  0  0
    5.5481    1.9459   25.0318 H   0  0  0  0  0  0  0  0  0  0  0  0
    6.8904    1.2842   23.5108 C   0  0  0  0  0  0  0  0  0  0  0  0
    6.3477    0.3478   23.3915 H   0  0  0  0  0  0  0  0  0  0  0  0
    5.4151    0.6308   20.1300 C   0  0  0  0  0  0  0  0  0  0  0  0
    4.9881    0.6240   21.1355 H   0  0  0  0  0  0  0  0  0  0  0  0
    4.7835    1.3049   19.0817 C   0  0  0  0  0  0  0  0  0  0  0  0
    3.8621    1.8595   19.2376 H   0  0  0  0  0  0  0  0  0  0  0  0
  1  2  1  0
  2  3  2  0
  3  4  1  0
  4  5  1  0
  4  6  2  0
  6  7  1  0
  7  8  1  0
  8  9  2  0
  8 10  1  0
 10 11  2  0
 11 12  1  0
 11 13  1  0
 13 14  1  0
 13 15  2  0
 15 16  1  0
 16 17  2  0
 16 18  2  0
 16 19  1  0
 19 20  1  0
 19 21  1  0
 15 22  1  0
 22 23  1  0
 22 24  2  0
 24 25  1  0
  6 26  1  0
 26 27  1  0
 26 28  2  0
 28 29  1  0
 28  2  1  0
 24 10  1  0
M  END
>  <plip>  (1) 
-0.03571428571428571

>  <filename>  (1) 
[H][c]1[n][c]([H])[c]([S][C](=[O])[c]2[c]([H])[c]([H])[c]([S](=[O])(=[O])[N]([H])[H])[c]([H])[c]2[H])[c]([H])[c]1[H]

$$$$
