
     RDKit          3D

 26 27  0  0  0  0  0  0  0  0999 V2000
    9.3030    0.2793   20.5852 H   0  0  0  0  0  0  0  0  0  0  0  0
    8.7397   -0.4575   21.1579 C   0  0  0  0  0  0  0  0  0  0  0  0
    9.2786   -0.9514   21.9662 H   0  0  0  0  0  0  0  0  0  0  0  0
    7.4460   -0.6961   20.9332 C   0  0  0  0  0  0  0  0  0  0  0  0
    6.6799    0.0212   19.8686 C   0  0  0  0  0  0  0  0  0  0  0  0
    7.1785    0.0742   18.5531 C   0  0  0  0  0  0  0  0  0  0  0  0
    8.1092   -0.4395   18.3181 H   0  0  0  0  0  0  0  0  0  0  0  0
    6.5681    0.6868   17.5301 N   0  0  0  0  0  0  0  0  0  0  0  0
    5.4093    1.3073   17.7939 C   0  0  0  0  0  0  0  0  0  0  0  0
    4.9300    1.8065   16.9537 H   0  0  0  0  0  0  0  0  0  0  0  0
    4.8122    1.3181   19.0592 C   0  0  0  0  0  0  0  0  0  0  0  0
    3.8651    1.8271   19.1984 H   0  0  0  0  0  0  0  0  0  0  0  0
    5.4489    0.6609   20.1128 C   0  0  0  0  0  0  0  0  0  0  0  0
    5.0087    0.6680   21.1132 H   0  0  0  0  0  0  0  0  0  0  0  0
    6.6694   -1.7541   21.7121 C   0  0  0  0  0  0  0  0  0  0  0  0
    7.0912   -1.8612   22.7151 H   0  0  0  0  0  0  0  0  0  0  0  0
    5.6369   -1.4186   21.8265 H   0  0  0  0  0  0  0  0  0  0  0  0
    6.6510   -3.0618   21.0667 N   0  0  0  0  0  0  0  0  0  0  0  0
    7.5075   -4.1049   21.3217 C   0  0  0  0  0  0  0  0  0  0  0  0
    8.3375   -3.9990   22.0070 H   0  0  0  0  0  0  0  0  0  0  0  0
    7.1395   -5.1791   20.5599 C   0  0  0  0  0  0  0  0  0  0  0  0
    7.6292   -6.1488   20.5894 H   0  0  0  0  0  0  0  0  0  0  0  0
    6.0154   -4.7783   19.7778 C   0  0  0  0  0  0  0  0  0  0  0  0
    5.4652   -5.4111   19.0837 H   0  0  0  0  0  0  0  0  0  0  0  0
    5.7625   -3.4629   20.0930 C   0  0  0  0  0  0  0  0  0  0  0  0
    5.1060   -2.7249   19.6398 H   0  0  0  0  0  0  0  0  0  0  0  0
  1  2  1  0
  2  3  1  0
  2  4  2  3
  4  5  1  0
  5  6  2  0
  6  7  1  0
  6  8  1  0
  8  9  2  0
  9 10  1  0
  9 11  1  0
 11 12  1  0
 11 13  2  0
 13 14  1  0
  4 15  1  0
 15 16  1  0
 15 17  1  0
 15 18  1  0
 18 19  1  0
 19 20  1  0
 19 21  2  0
 21 22  1  0
 21 23  1  0
 23 24  1  0
 23 25  2  0
 25 26  1  0
 13  5  1  0
 25 18  1  0
M  END
>  <plip>  (1) 
-0.034482758620689655

>  <filename>  (1) 
[H][C]([H])=[C]([c]1[c]([H])[n][c]([H])[c]([H])[c]1[H])[C]([H])([H])[n]1[c]([H])[c]([H])[c]([H])[c]1[H]

$$$$
