
     RDKit          3D

 31 32  0  0  0  0  0  0  0  0999 V2000
    4.9167    1.7756   17.0031 H   0  0  0  0  0  0  0  0  0  0  0  0
    5.4045    1.2890   17.8457 C   0  0  0  0  0  0  0  0  0  0  0  0
    6.5670    0.6700   17.5810 N   0  0  0  0  0  0  0  0  0  0  0  0
    7.1840    0.0665   18.5990 C   0  0  0  0  0  0  0  0  0  0  0  0
    8.1275   -0.4249   18.3725 H   0  0  0  0  0  0  0  0  0  0  0  0
    6.6761    0.0147   19.9041 C   0  0  0  0  0  0  0  0  0  0  0  0
    7.4198   -0.7070   20.9691 C   0  0  0  0  0  0  0  0  0  0  0  0
    8.7674   -0.7014   20.9267 N   0  0  0  0  0  0  0  0  0  0  0  0
    9.4697   -1.3130   21.8812 N   0  0  0  0  0  0  0  0  0  0  0  0
    8.8400   -1.9670   22.8704 C   0  0  0  0  0  0  0  0  0  0  0  0
    9.4853   -2.4409   23.5913 H   0  0  0  0  0  0  0  0  0  0  0  0
    7.4370   -2.0470   22.9769 C   0  0  0  0  0  0  0  0  0  0  0  0
    6.7516   -2.7911   24.1043 C   0  0  1  0  0  0  0  0  0  0  0  0
    5.6693   -2.7011   23.9332 H   0  0  0  0  0  0  0  0  0  0  0  0
    7.1005   -4.2806   24.0663 C   0  0  0  0  0  0  0  0  0  0  0  0
    6.5133   -4.8320   24.8064 H   0  0  0  0  0  0  0  0  0  0  0  0
    8.1619   -4.4405   24.2866 H   0  0  0  0  0  0  0  0  0  0  0  0
    6.9008   -4.7036   23.0764 H   0  0  0  0  0  0  0  0  0  0  0  0
    7.0505   -2.1635   25.4765 C   0  0  0  0  0  0  0  0  0  0  0  0
    6.5750   -2.7753   26.2515 H   0  0  0  0  0  0  0  0  0  0  0  0
    8.1303   -2.2092   25.6676 H   0  0  0  0  0  0  0  0  0  0  0  0
    6.5723   -0.7200   25.5980 C   0  0  0  0  0  0  0  0  0  0  0  0
    7.0876   -0.0649   24.8867 H   0  0  0  0  0  0  0  0  0  0  0  0
    5.4985   -0.6500   25.3909 H   0  0  0  0  0  0  0  0  0  0  0  0
    6.7463   -0.3321   26.6060 H   0  0  0  0  0  0  0  0  0  0  0  0
    6.7310   -1.3892   21.9846 C   0  0  0  0  0  0  0  0  0  0  0  0
    5.6499   -1.4255   21.9470 H   0  0  0  0  0  0  0  0  0  0  0  0
    5.4457    0.6464   20.1607 C   0  0  0  0  0  0  0  0  0  0  0  0
    5.0033    0.6382   21.1623 H   0  0  0  0  0  0  0  0  0  0  0  0
    4.8111    1.3085   19.1124 C   0  0  0  0  0  0  0  0  0  0  0  0
    3.8752    1.8418   19.2628 H   0  0  0  0  0  0  0  0  0  0  0  0
  1  2  1  0
  2  3  2  0
  3  4  1  0
  4  5  1  0
  4  6  2  0
  6  7  1  0
  7  8  2  0
  8  9  1  0
  9 10  2  0
 10 11  1  0
 10 12  1  0
 12 13  1  0
 13 14  1  6
 13 15  1  0
 15 16  1  0
 15 17  1  0
 15 18  1  0
 13 19  1  0
 19 20  1  0
 19 21  1  0
 19 22  1  0
 22 23  1  0
 22 24  1  0
 22 25  1  0
 12 26  2  0
 26 27  1  0
  6 28  1  0
 28 29  1  0
 28 30  2  0
 30 31  1  0
 30  2  1  0
 26  7  1  0
M  END
>  <plip>  (1) 
-0.03571428571428571

>  <filename>  (1) 
[H][c]1[n][c]([H])[c](-[c]2[n][n][c]([H])[c]([C@@]([H])([C]([H])([H])[H])[C]([H])([H])[C]([H])([H])[H])[c]2[H])[c]([H])[c]1[H]

$$$$
