
     RDKit          3D

 39 40  0  0  0  0  0  0  0  0999 V2000
   11.2513    2.5789   24.2278 C   0  0  0  0  0  0  0  0  0  0  0  0
   10.5554    1.4798   23.4055 C   0  0  0  0  0  0  0  0  0  0  0  0
    9.8432    2.1224   22.1900 C   0  0  0  0  0  0  0  0  0  0  0  0
    9.2058    1.1218   21.2390 N   0  0  0  0  0  4  0  0  0  0  0  0
    8.0758    0.3168   21.8822 C   0  0  0  0  0  0  0  0  0  0  0  0
    7.3529   -0.6845   20.9672 C   0  0  0  0  0  0  0  0  0  0  0  0
    6.5340   -1.3999   21.7920 F   0  0  0  0  0  0  0  0  0  0  0  0
    8.2793   -1.5736   20.4809 F   0  0  0  0  0  0  0  0  0  0  0  0
    6.5621   -0.0675   19.8480 C   0  0  0  0  0  0  0  0  0  0  0  0
    5.3650    0.6191   20.0920 C   0  0  0  0  0  0  0  0  0  0  0  0
    4.7943    1.3314   19.0377 C   0  0  0  0  0  0  0  0  0  0  0  0
    5.4313    1.3182   17.7903 C   0  0  0  0  0  0  0  0  0  0  0  0
    6.5543    0.6288   17.5415 N   0  0  0  0  0  0  0  0  0  0  0  0
    7.0892   -0.0628   18.5505 C   0  0  0  0  0  0  0  0  0  0  0  0
    7.9897   -0.6343   18.3342 H   0  0  0  0  0  0  0  0  0  0  0  0
    5.0138    1.8715   16.9508 H   0  0  0  0  0  0  0  0  0  0  0  0
    3.8794    1.8984   19.1680 H   0  0  0  0  0  0  0  0  0  0  0  0
    4.8815    0.5821   21.0720 H   0  0  0  0  0  0  0  0  0  0  0  0
    7.3141    0.9782   22.3000 H   0  0  0  0  0  0  0  0  0  0  0  0
    8.4619   -0.2864   22.6997 H   0  0  0  0  0  0  0  0  0  0  0  0
    9.9802    0.4687   20.9249 H   0  0  0  0  0  0  0  0  0  0  0  0
    8.8102    1.6199   20.4038 H   0  0  0  0  0  0  0  0  0  0  0  0
   10.6058    2.6733   21.6397 H   0  0  0  0  0  0  0  0  0  0  0  0
    9.0830    2.8308   22.5415 H   0  0  0  0  0  0  0  0  0  0  0  0
   11.5153    0.3950   22.9215 C   0  0  0  0  0  0  0  0  0  0  0  0
   11.1426   -0.9610   22.8356 C   0  0  0  0  0  0  0  0  0  0  0  0
   12.0190   -1.9524   22.3757 C   0  0  0  0  0  0  0  0  0  0  0  0
   13.2880   -1.5709   21.9626 C   0  0  0  0  0  0  0  0  0  0  0  0
   14.1566   -2.4868   21.5111 F   0  0  0  0  0  0  0  0  0  0  0  0
   13.6893   -0.2473   21.9785 C   0  0  0  0  0  0  0  0  0  0  0  0
   12.7795    0.7089   22.4057 C   0  0  0  0  0  0  0  0  0  0  0  0
   13.1520    1.9985   22.2761 F   0  0  0  0  0  0  0  0  0  0  0  0
   14.6623    0.0360   21.6109 H   0  0  0  0  0  0  0  0  0  0  0  0
   11.7642   -3.0059   22.3654 H   0  0  0  0  0  0  0  0  0  0  0  0
   10.1405   -1.2678   23.1229 H   0  0  0  0  0  0  0  0  0  0  0  0
    9.8117    0.9977   24.0566 H   0  0  0  0  0  0  0  0  0  0  0  0
   10.5325    3.2743   24.6710 H   0  0  0  0  0  0  0  0  0  0  0  0
   11.9289    3.1648   23.6079 H   0  0  0  0  0  0  0  0  0  0  0  0
   11.8425    2.1366   25.0341 H   0  0  0  0  0  0  0  0  0  0  0  0
  1  2  1  0
  2  3  1  0
  3  4  1  0
  4  5  1  0
  5  6  1  0
  6  7  1  0
  6  8  1  0
  6  9  1  0
  9 10  2  0
 10 11  1  0
 11 12  2  0
 12 13  1  0
 13 14  2  0
 14 15  1  0
 12 16  1  0
 11 17  1  0
 10 18  1  0
  5 19  1  0
  5 20  1  0
  4 21  1  0
  4 22  1  0
  3 23  1  0
  3 24  1  0
  2 25  1  0
 25 26  2  0
 26 27  1  0
 27 28  2  0
 28 29  1  0
 28 30  1  0
 30 31  2  0
 31 32  1  0
 30 33  1  0
 27 34  1  0
 26 35  1  0
  2 36  1  0
  1 37  1  0
  1 38  1  0
  1 39  1  0
 14  9  1  0
 31 25  1  0
M  CHG  1   4   1
M  END
>  <plip>  (1) 
-0.2

>  <filename>  (1) 
[H][c]1[n][c]([H])[c]([C]([F])([F])[C]([H])([H])[N+]([H])([H])[C]([H])([H])[C]([H])([c]2[c]([H])[c]([H])[c]([F])[c]([H])[c]2[F])[C]([H])([H])[H])[c]([H])[c]1[H]

$$$$
