
     RDKit          3D

 30 31  0  0  0  0  0  0  0  0999 V2000
    4.9052    1.7823   16.9966 H   0  0  0  0  0  0  0  0  0  0  0  0
    5.4058    1.2703   17.8177 C   0  0  0  0  0  0  0  0  0  0  0  0
    6.5648    0.6574   17.5208 N   0  0  0  0  0  0  0  0  0  0  0  0
    7.2123    0.0230   18.5079 C   0  0  0  0  0  0  0  0  0  0  0  0
    8.1517   -0.4522   18.2249 H   0  0  0  0  0  0  0  0  0  0  0  0
    6.7412   -0.0643   19.8481 C   0  0  0  0  0  0  0  0  0  0  0  0
    7.5301   -0.6991   20.8391 N   0  0  0  0  0  0  0  0  0  0  0  0
    7.0939   -1.4780   21.7355 C   0  0  0  0  0  0  0  0  0  0  0  0
    5.9195   -2.1919   21.7327 N   0  0  0  0  0  0  0  0  0  0  0  0
    5.3329   -1.7991   21.0105 H   0  0  0  0  0  0  0  0  0  0  0  0
    5.5496   -2.0078   22.6555 H   0  0  0  0  0  0  0  0  0  0  0  0
    7.7259   -1.8270   22.8956 N   0  0  0  0  0  0  0  0  0  0  0  0
    7.5467   -2.8114   22.9354 H   0  0  0  0  0  0  0  0  0  0  0  0
    9.1231   -1.5098   23.0552 C   0  0  1  0  0  0  0  0  0  0  0  0
    9.5093   -2.0906   23.9117 H   0  0  0  0  0  0  0  0  0  0  0  0
    9.8443   -1.8979   21.8560 N   0  0  0  0  0  0  0  0  0  0  0  0
    9.1811   -1.7569   21.1032 H   0  0  0  0  0  0  0  0  0  0  0  0
   10.8896   -0.8877   21.6504 C   0  0  0  0  0  0  0  0  0  0  0  0
   11.2163   -0.8825   20.6055 H   0  0  0  0  0  0  0  0  0  0  0  0
   11.7735   -1.1283   22.2561 H   0  0  0  0  0  0  0  0  0  0  0  0
   10.2476    0.4349   22.0908 C   0  0  0  0  0  0  0  0  0  0  0  0
    9.6270    0.8145   21.2746 H   0  0  0  0  0  0  0  0  0  0  0  0
   10.9664    1.2084   22.3685 H   0  0  0  0  0  0  0  0  0  0  0  0
    9.3409    0.0094   23.2564 C   0  0  0  0  0  0  0  0  0  0  0  0
    8.3798    0.5260   23.2522 H   0  0  0  0  0  0  0  0  0  0  0  0
    9.7852    0.1843   24.2379 H   0  0  0  0  0  0  0  0  0  0  0  0
    5.5411    0.6132   20.1333 C   0  0  0  0  0  0  0  0  0  0  0  0
    5.1741    0.6409   21.1585 H   0  0  0  0  0  0  0  0  0  0  0  0
    4.8599    1.2775   19.1020 C   0  0  0  0  0  0  0  0  0  0  0  0
    3.9185    1.7845   19.2878 H   0  0  0  0  0  0  0  0  0  0  0  0
  1  2  1  0
  2  3  2  0
  3  4  1  0
  4  5  1  0
  4  6  2  0
  6  7  1  0
  7  8  2  3
  8  9  1  0
  9 10  1  0
  9 11  1  0
  8 12  1  0
 12 13  1  0
 12 14  1  0
 14 15  1  1
 14 16  1  0
 16 17  1  0
 16 18  1  0
 18 19  1  0
 18 20  1  0
 18 21  1  0
 21 22  1  0
 21 23  1  0
 21 24  1  0
 24 25  1  0
 24 26  1  0
  6 27  1  0
 27 28  1  0
 27 29  2  0
 29 30  1  0
 29  2  1  0
 24 14  1  0
M  END
>  <plip>  (1) 
-0.10714285714285714

>  <filename>  (1) 
[H][c]1[n][c]([H])[c]([N]=[C]([N]([H])[H])[N]([H])[C@@]2([H])[N]([H])[C]([H])([H])[C]([H])([H])[C]2([H])[H])[c]([H])[c]1[H]

$$$$
