
     RDKit          3D

 26 28  0  0  0  0  0  0  0  0999 V2000
    8.5706    0.2126   27.1499 H   0  0  0  0  0  0  0  0  0  0  0  0
    8.6030   -0.4762   26.3162 C   0  0  0  0  0  0  0  0  0  0  0  0
    9.0882   -1.7464   26.4334 N   0  0  0  0  0  0  0  0  0  0  0  0
    8.9409   -2.2219   25.2251 C   0  0  0  0  0  0  0  0  0  0  0  0
    9.2101   -3.1893   24.8269 H   0  0  0  0  0  0  0  0  0  0  0  0
    8.3827   -1.2716   24.4242 N   0  0  0  0  0  0  0  0  0  0  0  0
    8.0608   -1.3005   23.0531 N   0  0  0  0  0  0  0  0  0  0  0  0
    7.3642   -0.2720   22.3484 C   0  0  0  0  0  0  0  0  0  0  0  0
    6.8910    0.7382   22.7899 O   0  0  0  0  0  0  0  0  0  0  0  0
    7.3565   -0.6562   21.0043 N   0  0  0  0  0  0  0  0  0  0  0  0
    6.6716    0.0069   19.9460 C   0  0  0  0  0  0  0  0  0  0  0  0
    7.1773    0.0424   18.6206 C   0  0  0  0  0  0  0  0  0  0  0  0
    8.1254   -0.4343   18.3747 H   0  0  0  0  0  0  0  0  0  0  0  0
    6.5684    0.6594   17.6004 N   0  0  0  0  0  0  0  0  0  0  0  0
    5.4067    1.2816   17.8475 C   0  0  0  0  0  0  0  0  0  0  0  0
    4.9386    1.7831   17.0027 H   0  0  0  0  0  0  0  0  0  0  0  0
    4.8178    1.2958   19.1133 C   0  0  0  0  0  0  0  0  0  0  0  0
    3.8893    1.8271   19.2611 H   0  0  0  0  0  0  0  0  0  0  0  0
    5.4475    0.6513   20.1810 C   0  0  0  0  0  0  0  0  0  0  0  0
    5.0303    0.6465   21.1852 H   0  0  0  0  0  0  0  0  0  0  0  0
    8.0513   -1.9091   20.8181 C   0  0  0  0  0  0  0  0  0  0  0  0
    7.3987   -2.6950   20.4270 H   0  0  0  0  0  0  0  0  0  0  0  0
    8.9367   -1.8305   20.1751 H   0  0  0  0  0  0  0  0  0  0  0  0
    8.4859   -2.2927   22.2014 C   0  0  0  0  0  0  0  0  0  0  0  0
    9.0846   -3.3044   22.4963 O   0  0  0  0  0  0  0  0  0  0  0  0
    8.1711   -0.1518   25.1148 N   0  0  0  0  0  0  0  0  0  0  0  0
  1  2  1  0
  2  3  1  0
  3  4  2  0
  4  5  1  0
  4  6  1  0
  6  7  1  0
  7  8  1  0
  8  9  2  0
  8 10  1  0
 10 11  1  0
 11 12  2  0
 12 13  1  0
 12 14  1  0
 14 15  2  0
 15 16  1  0
 15 17  1  0
 17 18  1  0
 17 19  2  0
 19 20  1  0
 10 21  1  0
 21 22  1  0
 21 23  1  0
 21 24  1  0
 24 25  2  0
  6 26  1  0
 26  2  2  0
 24  7  1  0
 19 11  1  0
M  END
>  <plip>  (1) 
-0.03571428571428571

>  <filename>  (1) 
[H][c]1[n][c]([H])[n]([N]2[C](=[O])[N]([c]3[c]([H])[n][c]([H])[c]([H])[c]3[H])[C]([H])([H])[C]2=[O])[n]1

$$$$
