
     RDKit          3D

 30 31  0  0  0  0  0  0  0  0999 V2000
    4.3896    1.2803   23.8896 O   0  0  0  0  0  0  0  0  0  0  0  0
    5.2239    2.1702   24.1115 C   0  0  0  0  0  0  0  0  0  0  0  0
    5.1554    3.4065   23.9422 O   0  0  0  0  0  1  0  0  0  0  0  0
    6.6223    1.7496   24.7094 C   0  0  0  0  0  0  0  0  0  0  0  0
    7.6005    2.0994   23.5999 C   0  0  0  0  0  0  0  0  0  0  0  0
    7.2848    1.3576   22.4343 O   0  0  0  0  0  0  0  0  0  0  0  0
    7.6260    0.0444   22.2967 C   0  0  0  0  0  0  0  0  0  0  0  0
    8.3620   -0.6702   23.2521 C   0  0  0  0  0  0  0  0  0  0  0  0
    8.5852   -2.0436   23.1041 C   0  0  0  0  0  0  0  0  0  0  0  0
    8.0648   -2.7055   21.9951 C   0  0  0  0  0  0  0  0  0  0  0  0
    8.2104   -4.4335   21.8481 Cl  0  0  0  0  0  0  0  0  0  0  0  0
    7.3997   -1.9947   21.0002 C   0  0  0  0  0  0  0  0  0  0  0  0
    7.2319   -0.6030   21.0938 C   0  0  0  0  0  0  0  0  0  0  0  0
    6.6007    0.1256   19.9493 C   0  0  0  0  0  0  0  0  0  0  0  0
    5.4053    0.8309   20.1424 C   0  0  0  0  0  0  0  0  0  0  0  0
    4.7647    1.3940   19.0377 C   0  0  0  0  0  0  0  0  0  0  0  0
    5.3748    1.3180   17.7824 C   0  0  0  0  0  0  0  0  0  0  0  0
    6.5428    0.6877   17.5790 N   0  0  0  0  0  0  0  0  0  0  0  0
    7.1230    0.1011   18.6378 C   0  0  0  0  0  0  0  0  0  0  0  0
    8.0657   -0.4043   18.4263 H   0  0  0  0  0  0  0  0  0  0  0  0
    4.9078    1.7714   16.9055 H   0  0  0  0  0  0  0  0  0  0  0  0
    3.8052    1.8841   19.1376 H   0  0  0  0  0  0  0  0  0  0  0  0
    4.9999    0.9287   21.1534 H   0  0  0  0  0  0  0  0  0  0  0  0
    6.9773   -2.5396   20.1638 H   0  0  0  0  0  0  0  0  0  0  0  0
    9.1461   -2.6023   23.8438 H   0  0  0  0  0  0  0  0  0  0  0  0
    8.7534   -0.1525   24.1182 H   0  0  0  0  0  0  0  0  0  0  0  0
    8.6503    1.9471   23.8869 H   0  0  0  0  0  0  0  0  0  0  0  0
    7.4706    3.1490   23.3171 H   0  0  0  0  0  0  0  0  0  0  0  0
    6.6544    0.6914   24.9674 H   0  0  0  0  0  0  0  0  0  0  0  0
    6.8046    2.3192   25.6219 H   0  0  0  0  0  0  0  0  0  0  0  0
  1  2  2  0
  2  3  1  0
  2  4  1  0
  4  5  1  0
  5  6  1  0
  6  7  1  0
  7  8  2  0
  8  9  1  0
  9 10  2  0
 10 11  1  0
 10 12  1  0
 12 13  2  0
 13 14  1  0
 14 15  2  0
 15 16  1  0
 16 17  2  0
 17 18  1  0
 18 19  2  0
 19 20  1  0
 17 21  1  0
 16 22  1  0
 15 23  1  0
 12 24  1  0
  9 25  1  0
  8 26  1  0
  5 27  1  0
  5 28  1  0
  4 29  1  0
  4 30  1  0
 13  7  1  0
 19 14  1  0
M  CHG  1   3  -1
M  END
>  <plip>  (1) 
-0.07142857142857142

>  <filename>  (1) 
[H][c]1[n][c]([H])[c](-[c]2[c]([H])[c]([Cl])[c]([H])[c]([H])[c]2[O][C]([H])([H])[C]([H])([H])[C](=[O])[O-])[c]([H])[c]1[H]

$$$$
