
     RDKit          3D

 36 39  0  0  0  0  0  0  0  0999 V2000
    8.3351   -4.7565   28.1515 F   0  0  0  0  0  0  0  0  0  0  0  0
    7.4313   -4.6654   27.1749 C   0  0  0  0  0  0  0  0  0  0  0  0
    6.9434   -5.8352   26.6007 C   0  0  0  0  0  0  0  0  0  0  0  0
    5.9739   -5.7593   25.6010 C   0  0  0  0  0  0  0  0  0  0  0  0
    5.4549   -4.5157   25.2319 C   0  0  0  0  0  0  0  0  0  0  0  0
    5.9279   -3.3309   25.8221 C   0  0  0  0  0  0  0  0  0  0  0  0
    5.3057   -1.9979   25.4822 C   0  0  0  0  0  0  0  0  0  0  0  0
    6.0689   -1.1487   24.5125 C   0  0  0  0  0  0  0  0  0  0  0  0
    6.0250    0.1554   24.5870 N   0  0  0  0  0  0  0  0  0  0  0  0
    6.6444    0.5648   23.4217 O   0  0  0  0  0  0  0  0  0  0  0  0
    6.9866   -0.5334   22.7441 C   0  0  0  0  0  0  0  0  0  0  0  0
    7.6374   -0.3358   21.4013 C   0  0  0  0  0  0  0  0  0  0  0  0
    6.8436    0.3296   20.2900 C   0  0  0  0  0  0  0  0  0  0  0  0
    5.5486    0.8364   20.4829 C   0  0  0  0  0  0  0  0  0  0  0  0
    4.8361    1.3335   19.3900 C   0  0  0  0  0  0  0  0  0  0  0  0
    5.4397    1.3368   18.1298 C   0  0  0  0  0  0  0  0  0  0  0  0
    6.6903    0.9018   17.9169 N   0  0  0  0  0  0  0  0  0  0  0  0
    7.3685    0.4469   18.9773 C   0  0  0  0  0  0  0  0  0  0  0  0
    8.3991    0.1590   18.7695 H   0  0  0  0  0  0  0  0  0  0  0  0
    4.9031    1.7034   17.2573 H   0  0  0  0  0  0  0  0  0  0  0  0
    3.8353    1.7388   19.5039 H   0  0  0  0  0  0  0  0  0  0  0  0
    5.1072    0.8720   21.4791 H   0  0  0  0  0  0  0  0  0  0  0  0
    8.6344   -1.4209   21.0451 C   0  0  0  0  0  0  0  0  0  0  0  0
    9.1439   -0.0753   21.4181 C   0  0  0  0  0  0  0  0  0  0  0  0
    9.6169    0.0628   22.3880 H   0  0  0  0  0  0  0  0  0  0  0  0
    9.5371    0.5723   20.6354 H   0  0  0  0  0  0  0  0  0  0  0  0
    8.6975   -1.7528   20.0097 H   0  0  0  0  0  0  0  0  0  0  0  0
    8.7495   -2.2101   21.7847 H   0  0  0  0  0  0  0  0  0  0  0  0
    6.6793   -1.6371   23.3804 N   0  0  0  0  0  0  0  0  0  0  0  0
    4.3093   -2.1543   25.0552 H   0  0  0  0  0  0  0  0  0  0  0  0
    5.1634   -1.3942   26.3810 H   0  0  0  0  0  0  0  0  0  0  0  0
    6.9771   -3.4133   26.7495 C   0  0  0  0  0  0  0  0  0  0  0  0
    7.7488   -1.9849   27.3520 Cl  0  0  0  0  0  0  0  0  0  0  0  0
    4.6729   -4.4546   24.4797 H   0  0  0  0  0  0  0  0  0  0  0  0
    5.5984   -6.6671   25.1381 H   0  0  0  0  0  0  0  0  0  0  0  0
    7.3779   -6.7702   26.9274 H   0  0  0  0  0  0  0  0  0  0  0  0
  1  2  1  0
  2  3  2  0
  3  4  1  0
  4  5  2  0
  5  6  1  0
  6  7  1  0
  7  8  1  0
  8  9  2  0
  9 10  1  0
 10 11  1  0
 11 12  1  0
 12 13  1  0
 13 14  2  0
 14 15  1  0
 15 16  2  0
 16 17  1  0
 17 18  2  0
 18 19  1  0
 16 20  1  0
 15 21  1  0
 14 22  1  0
 12 23  1  0
 23 24  1  0
 24 25  1  0
 24 26  1  0
 23 27  1  0
 23 28  1  0
 11 29  2  0
  7 30  1  0
  7 31  1  0
  6 32  2  0
 32 33  1  0
  5 34  1  0
  4 35  1  0
  3 36  1  0
 32  2  1  0
 29  8  1  0
 24 12  1  0
 18 13  1  0
M  END
>  <plip>  (1) 
-0.07142857142857142

>  <filename>  (1) 
[H][c]1[n][c]([H])[c]([C]2([c]3[n][c]([C]([H])([H])[c]4[c]([H])[c]([H])[c]([H])[c]([F])[c]4[Cl])[n][o]3)[C]([H])([H])[C]2([H])[H])[c]([H])[c]1[H]

$$$$
