
     RDKit          3D

 31 33  0  0  0  0  0  0  0  0999 V2000
    6.6599   -3.7981   20.5287 H   0  0  0  0  0  0  0  0  0  0  0  0
    6.5210   -2.8159   20.3173 N   0  0  0  0  0  0  0  0  0  0  0  0
    7.2435   -2.0907   21.0665 C   0  0  0  0  0  0  0  0  0  0  0  0
    8.3874   -2.5586   22.3484 S   0  0  0  0  0  0  0  0  0  0  0  0
    8.4554   -0.9274   22.9365 C   0  0  0  0  0  0  0  0  0  0  0  0
    8.9275   -0.7182   23.8886 H   0  0  0  0  0  0  0  0  0  0  0  0
    7.8101   -0.0512   22.1341 C   0  0  0  0  0  0  0  0  0  0  0  0
    7.7248    1.4517   22.3828 C   0  0  0  0  0  0  0  0  0  0  0  0
    7.9922    2.2631   21.5148 O   0  0  0  0  0  0  0  0  0  0  0  0
    7.3442    1.9252   23.7763 C   0  0  0  0  0  0  0  0  0  0  0  0
    6.5512    1.1535   24.6486 C   0  0  0  0  0  0  0  0  0  0  0  0
    6.1570    0.1868   24.3382 H   0  0  0  0  0  0  0  0  0  0  0  0
    6.2281    1.6247   25.9258 C   0  0  0  0  0  0  0  0  0  0  0  0
    5.6274    1.0308   26.6082 H   0  0  0  0  0  0  0  0  0  0  0  0
    6.6869    2.8797   26.3309 C   0  0  0  0  0  0  0  0  0  0  0  0
    6.3009    3.4655   27.9239 Cl  0  0  0  0  0  0  0  0  0  0  0  0
    7.4540    3.6778   25.4755 C   0  0  0  0  0  0  0  0  0  0  0  0
    7.7968    4.6533   25.8120 H   0  0  0  0  0  0  0  0  0  0  0  0
    7.7660    3.2031   24.2007 C   0  0  0  0  0  0  0  0  0  0  0  0
    8.3340    3.8313   23.5175 H   0  0  0  0  0  0  0  0  0  0  0  0
    7.2400   -0.6900   21.0058 N   0  0  0  0  0  0  0  0  0  0  0  0
    6.6049    0.0176   19.9277 C   0  0  0  0  0  0  0  0  0  0  0  0
    7.1648    0.0701   18.6329 C   0  0  0  0  0  0  0  0  0  0  0  0
    8.1139   -0.4330   18.4447 H   0  0  0  0  0  0  0  0  0  0  0  0
    6.5854    0.6968   17.5995 N   0  0  0  0  0  0  0  0  0  0  0  0
    5.4126    1.3128   17.8245 C   0  0  0  0  0  0  0  0  0  0  0  0
    4.9692    1.8117   16.9650 H   0  0  0  0  0  0  0  0  0  0  0  0
    4.7745    1.3216   19.0689 C   0  0  0  0  0  0  0  0  0  0  0  0
    3.8251    1.8336   19.1816 H   0  0  0  0  0  0  0  0  0  0  0  0
    5.3847    0.6636   20.1433 C   0  0  0  0  0  0  0  0  0  0  0  0
    4.9444    0.6414   21.1400 H   0  0  0  0  0  0  0  0  0  0  0  0
  1  2  1  0
  2  3  2  3
  3  4  1  0
  4  5  1  0
  5  6  1  0
  5  7  2  0
  7  8  1  0
  8  9  2  0
  8 10  1  0
 10 11  2  0
 11 12  1  0
 11 13  1  0
 13 14  1  0
 13 15  2  0
 15 16  1  0
 15 17  1  0
 17 18  1  0
 17 19  2  0
 19 20  1  0
  7 21  1  0
 21 22  1  0
 22 23  2  0
 23 24  1  0
 23 25  1  0
 25 26  2  0
 26 27  1  0
 26 28  1  0
 28 29  1  0
 28 30  2  0
 30 31  1  0
 21  3  1  0
 30 22  1  0
 19 10  1  0
M  END
>  <plip>  (1) 
-0.07142857142857142

>  <filename>  (1) 
[H][N]=[c]1[s][c]([H])[c]([C](=[O])[c]2[c]([H])[c]([H])[c]([Cl])[c]([H])[c]2[H])[n]1-[c]1[c]([H])[n][c]([H])[c]([H])[c]1[H]

$$$$
