
     RDKit          3D

 37 40  0  0  0  0  0  0  0  0999 V2000
    2.1923   -8.2147   24.9344 F   0  0  0  0  0  0  0  0  0  0  0  0
    3.3556   -7.5941   25.1909 C   0  0  0  0  0  0  0  0  0  0  0  0
    3.9102   -7.7057   26.4602 C   0  0  0  0  0  0  0  0  0  0  0  0
    5.1543   -7.1129   26.7114 C   0  0  0  0  0  0  0  0  0  0  0  0
    5.7914   -6.3795   25.7176 C   0  0  0  0  0  0  0  0  0  0  0  0
    5.1602   -6.2124   24.4729 C   0  0  0  0  0  0  0  0  0  0  0  0
    5.8078   -5.3933   23.6150 O   0  0  0  0  0  0  0  0  0  0  0  0
    5.2049   -4.9883   22.3849 C   0  0  0  0  0  0  0  0  0  0  0  0
    6.1076   -3.9652   21.7693 C   0  0  0  0  0  0  0  0  0  0  0  0
    7.2960   -4.2986   21.3515 N   0  0  0  0  0  0  0  0  0  0  0  0
    7.8600   -3.0888   21.0266 O   0  0  0  0  0  0  0  0  0  0  0  0
    6.9426   -2.1395   21.2551 C   0  0  0  0  0  0  0  0  0  0  0  0
    7.3455   -0.7112   21.0356 C   0  0  0  0  0  0  0  0  0  0  0  0
    6.6410    0.0023   19.9152 C   0  0  0  0  0  0  0  0  0  0  0  0
    5.4120    0.6290   20.1365 C   0  0  0  0  0  0  0  0  0  0  0  0
    4.7954    1.2934   19.0742 C   0  0  0  0  0  0  0  0  0  0  0  0
    5.4214    1.2987   17.8228 C   0  0  0  0  0  0  0  0  0  0  0  0
    6.5854    0.6761   17.5795 N   0  0  0  0  0  0  0  0  0  0  0  0
    7.1702    0.0528   18.6115 C   0  0  0  0  0  0  0  0  0  0  0  0
    8.1100   -0.4559   18.3931 H   0  0  0  0  0  0  0  0  0  0  0  0
    4.9705    1.8231   16.9804 H   0  0  0  0  0  0  0  0  0  0  0  0
    3.8549    1.8127   19.2071 H   0  0  0  0  0  0  0  0  0  0  0  0
    4.9623    0.5907   21.1306 H   0  0  0  0  0  0  0  0  0  0  0  0
    7.7316    0.0899   22.2770 C   0  0  0  0  0  0  0  0  0  0  0  0
    8.7846   -0.3408   21.3043 C   0  0  0  0  0  0  0  0  0  0  0  0
    9.4501   -1.1471   21.6057 H   0  0  0  0  0  0  0  0  0  0  0  0
    9.2230    0.4302   20.6715 H   0  0  0  0  0  0  0  0  0  0  0  0
    7.4704    1.1487   22.3114 H   0  0  0  0  0  0  0  0  0  0  0  0
    7.6715   -0.4177   23.2374 H   0  0  0  0  0  0  0  0  0  0  0  0
    5.8162   -2.6276   21.6850 N   0  0  0  0  0  0  0  0  0  0  0  0
    5.1147   -5.8389   21.6988 H   0  0  0  0  0  0  0  0  0  0  0  0
    4.2204   -4.5351   22.5504 H   0  0  0  0  0  0  0  0  0  0  0  0
    3.9609   -6.8658   24.1698 C   0  0  0  0  0  0  0  0  0  0  0  0
    3.5171   -6.8360   23.1812 H   0  0  0  0  0  0  0  0  0  0  0  0
    6.7747   -5.9421   25.8605 H   0  0  0  0  0  0  0  0  0  0  0  0
    5.6256   -7.2293   27.6888 H   0  0  0  0  0  0  0  0  0  0  0  0
    3.3727   -8.2396   27.2320 H   0  0  0  0  0  0  0  0  0  0  0  0
  1  2  1  0
  2  3  2  0
  3  4  1  0
  4  5  2  0
  5  6  1  0
  6  7  1  0
  7  8  1  0
  8  9  1  0
  9 10  2  0
 10 11  1  0
 11 12  1  0
 12 13  1  0
 13 14  1  0
 14 15  2  0
 15 16  1  0
 16 17  2  0
 17 18  1  0
 18 19  2  0
 19 20  1  0
 17 21  1  0
 16 22  1  0
 15 23  1  0
 13 24  1  0
 24 25  1  0
 25 26  1  0
 25 27  1  0
 24 28  1  0
 24 29  1  0
 12 30  2  0
  8 31  1  0
  8 32  1  0
  6 33  2  0
 33 34  1  0
  5 35  1  0
  4 36  1  0
  3 37  1  0
 33  2  1  0
 30  9  1  0
 25 13  1  0
 19 14  1  0
M  END
>  <plip>  (1) 
-0.06896551724137931

>  <filename>  (1) 
[H][c]1[n][c]([H])[c]([C]2([c]3[n][c]([C]([H])([H])[O][c]4[c]([H])[c]([H])[c]([H])[c]([F])[c]4[H])[n][o]3)[C]([H])([H])[C]2([H])[H])[c]([H])[c]1[H]

$$$$
