
     RDKit          3D

 33 35  0  0  0  0  0  0  0  0999 V2000
    6.1831   -2.6455   21.0153 H   0  0  0  0  0  0  0  0  0  0  0  0
    6.6673   -1.8838   21.6258 C   0  0  0  0  0  0  0  0  0  0  0  0
    6.6127   -1.7970   22.9606 C   0  0  0  0  0  0  0  0  0  0  0  0
    5.8441   -2.7419   23.8621 C   0  0  2  0  0  0  0  0  0  0  0  0
    4.8796   -2.9657   23.3739 H   0  0  0  0  0  0  0  0  0  0  0  0
    5.5032   -2.1969   25.2636 C   0  0  0  0  0  0  0  0  0  0  0  0
    4.6999   -1.4497   25.2682 H   0  0  0  0  0  0  0  0  0  0  0  0
    6.3961   -1.7434   25.7336 H   0  0  0  0  0  0  0  0  0  0  0  0
    5.0570   -3.3152   26.0073 O   0  0  0  0  0  0  0  0  0  0  0  0
    5.6318   -4.5088   25.4846 C   0  0  0  0  0  0  0  0  0  0  0  0
    6.2565   -4.9920   26.2466 H   0  0  0  0  0  0  0  0  0  0  0  0
    4.8078   -5.2035   25.2613 H   0  0  0  0  0  0  0  0  0  0  0  0
    6.4544   -4.1177   24.2356 C   0  0  0  0  0  0  0  0  0  0  0  0
    7.5237   -4.0220   24.4843 H   0  0  0  0  0  0  0  0  0  0  0  0
    6.3549   -4.8709   23.4457 H   0  0  0  0  0  0  0  0  0  0  0  0
    7.1870   -0.4556   23.4091 C   0  0  0  0  0  0  0  0  0  0  0  0
    6.3638    0.1760   23.7734 H   0  0  0  0  0  0  0  0  0  0  0  0
    7.8889   -0.5379   24.2463 H   0  0  0  0  0  0  0  0  0  0  0  0
    7.8443    0.1556   22.1489 C   0  0  0  0  0  0  0  0  0  0  0  0
    7.5583    1.2052   22.0056 H   0  0  0  0  0  0  0  0  0  0  0  0
    8.9364    0.1560   22.2340 H   0  0  0  0  0  0  0  0  0  0  0  0
    7.4223   -0.7494   20.9496 C   0  0  2  0  0  0  0  0  0  0  0  0
    8.3289   -1.1624   20.4802 H   0  0  0  0  0  0  0  0  0  0  0  0
    6.6603   -0.0256   19.8320 C   0  0  0  0  0  0  0  0  0  0  0  0
    7.1610    0.0350   18.5180 C   0  0  0  0  0  0  0  0  0  0  0  0
    8.0969   -0.4669   18.2670 H   0  0  0  0  0  0  0  0  0  0  0  0
    6.5777    0.6836   17.4996 N   0  0  0  0  0  0  0  0  0  0  0  0
    5.4270    1.3222   17.7612 C   0  0  0  0  0  0  0  0  0  0  0  0
    4.9629    1.8396   16.9203 H   0  0  0  0  0  0  0  0  0  0  0  0
    4.8250    1.3265   19.0220 C   0  0  0  0  0  0  0  0  0  0  0  0
    3.8899    1.8562   19.1713 H   0  0  0  0  0  0  0  0  0  0  0  0
    5.4517    0.6479   20.0705 C   0  0  0  0  0  0  0  0  0  0  0  0
    4.9995    0.6408   21.0644 H   0  0  0  0  0  0  0  0  0  0  0  0
  1  2  1  0
  2  3  2  0
  3  4  1  0
  4  5  1  6
  4  6  1  0
  6  7  1  0
  6  8  1  0
  6  9  1  0
  9 10  1  0
 10 11  1  0
 10 12  1  0
 10 13  1  0
 13 14  1  0
 13 15  1  0
  3 16  1  0
 16 17  1  0
 16 18  1  0
 16 19  1  0
 19 20  1  0
 19 21  1  0
 19 22  1  0
 22 23  1  6
 22 24  1  0
 24 25  2  0
 25 26  1  0
 25 27  1  0
 27 28  2  0
 28 29  1  0
 28 30  1  0
 30 31  1  0
 30 32  2  0
 32 33  1  0
 22  2  1  0
 32 24  1  0
 13  4  1  0
M  END
>  <plip>  (1) 
-0.03571428571428571

>  <filename>  (1) 
[H][C]1=[C]([C@]2([H])[C]([H])([H])[O][C]([H])([H])[C]2([H])[H])[C]([H])([H])[C]([H])([H])[C@]1([H])[c]1[c]([H])[n][c]([H])[c]([H])[c]1[H]

$$$$
