
     RDKit          3D

 55 56  0  0  0  0  0  0  0  0999 V2000
    7.1210   -2.9866   20.8847 C   0  0  0  0  0  0  0  0  0  0  0  0
    7.9314   -1.9277   21.2537 C   0  0  0  0  0  0  0  0  0  0  0  0
    9.3864   -1.8541   20.5912 C   0  0  0  0  0  0  0  0  0  0  0  0
    9.3442   -1.3892   19.6061 H   0  0  0  0  0  0  0  0  0  0  0  0
   10.0751   -1.2831   21.2194 H   0  0  0  0  0  0  0  0  0  0  0  0
    9.7987   -2.8584   20.4594 H   0  0  0  0  0  0  0  0  0  0  0  0
    7.1395   -0.5184   21.2439 C   0  0  0  0  0  0  0  0  0  0  0  0
    6.4613   -0.0486   19.9508 C   0  0  0  0  0  0  0  0  0  0  0  0
    5.3237    0.8004   20.0998 C   0  0  0  0  0  0  0  0  0  0  0  0
    4.8167    1.4707   18.9914 C   0  0  0  0  0  0  0  0  0  0  0  0
    5.5142    1.3883   17.7823 C   0  0  0  0  0  0  0  0  0  0  0  0
    6.6785    0.7409   17.6530 N   0  0  0  0  0  0  0  0  0  0  0  0
    7.1698    0.1128   18.7218 C   0  0  0  0  0  0  0  0  0  0  0  0
    8.1602   -0.3105   18.5911 H   0  0  0  0  0  0  0  0  0  0  0  0
    5.1217    1.8779   16.8938 H   0  0  0  0  0  0  0  0  0  0  0  0
    3.8877    2.0290   19.0448 H   0  0  0  0  0  0  0  0  0  0  0  0
    4.8426    0.8850   21.0757 H   0  0  0  0  0  0  0  0  0  0  0  0
    7.9340    0.5252   21.8927 N   0  0  0  0  0  0  0  0  0  0  0  0
    8.9743    1.2513   21.1540 C   0  0  0  0  0  0  0  0  0  0  0  0
    8.8510    2.3366   21.2764 H   0  0  0  0  0  0  0  0  0  0  0  0
    9.9762    1.0077   21.5321 H   0  0  0  0  0  0  0  0  0  0  0  0
    8.9279    1.0214   20.0889 H   0  0  0  0  0  0  0  0  0  0  0  0
    8.0999    0.4675   23.2692 C   0  0  0  0  0  0  0  0  0  0  0  0
    9.1682    0.6902   23.8122 O   0  0  0  0  0  0  0  0  0  0  0  0
    6.8633    0.1559   24.1162 C   0  0  0  0  0  0  0  0  0  0  0  0
    6.6715    1.1556   25.2645 C   0  0  0  0  0  0  0  0  0  0  0  0
    6.0770    2.5449   24.8609 C   0  0  0  0  0  0  0  0  0  0  0  0
    4.6053    2.3891   24.3952 C   0  0  0  0  0  0  0  0  0  0  0  0
    4.0033    1.7937   25.0895 H   0  0  0  0  0  0  0  0  0  0  0  0
    4.1340    3.3735   24.2977 H   0  0  0  0  0  0  0  0  0  0  0  0
    4.5447    1.9015   23.4157 H   0  0  0  0  0  0  0  0  0  0  0  0
    6.8552    3.1694   23.6810 C   0  0  0  0  0  0  0  0  0  0  0  0
    7.9386    3.1650   23.8526 H   0  0  0  0  0  0  0  0  0  0  0  0
    6.5320    4.2022   23.5112 H   0  0  0  0  0  0  0  0  0  0  0  0
    6.6691    2.6283   22.7483 H   0  0  0  0  0  0  0  0  0  0  0  0
    6.1386    3.4369   26.1238 C   0  0  0  0  0  0  0  0  0  0  0  0
    7.0426    4.5066   26.2542 C   0  0  0  0  0  0  0  0  0  0  0  0
    7.1086    5.2662   27.4261 C   0  0  0  0  0  0  0  0  0  0  0  0
    6.2690    4.9708   28.5025 C   0  0  0  0  0  0  0  0  0  0  0  0
    5.3671    3.9067   28.3974 C   0  0  0  0  0  0  0  0  0  0  0  0
    5.3094    3.1480   27.2251 C   0  0  0  0  0  0  0  0  0  0  0  0
    4.6105    2.3158   27.1720 H   0  0  0  0  0  0  0  0  0  0  0  0
    4.7111    3.6586   29.2274 H   0  0  0  0  0  0  0  0  0  0  0  0
    6.3161    5.5607   29.4140 H   0  0  0  0  0  0  0  0  0  0  0  0
    7.8166    6.0886   27.4846 H   0  0  0  0  0  0  0  0  0  0  0  0
    7.7009    4.7517   25.4255 H   0  0  0  0  0  0  0  0  0  0  0  0
    6.0134    0.7163   26.0278 H   0  0  0  0  0  0  0  0  0  0  0  0
    7.6379    1.3154   25.7616 H   0  0  0  0  0  0  0  0  0  0  0  0
    7.0051   -0.8588   24.5084 H   0  0  0  0  0  0  0  0  0  0  0  0
    5.9640    0.1380   23.4961 H   0  0  0  0  0  0  0  0  0  0  0  0
    6.2809   -0.7117   21.9007 H   0  0  0  0  0  0  0  0  0  0  0  0
    8.1906   -2.0790   22.3493 H   0  0  0  0  0  0  0  0  0  0  0  0
    6.1471   -2.8956   20.4297 H   0  0  0  0  0  0  0  0  0  0  0  0
    5.7649   -1.6094   19.6336 H   0  0  0  0  0  0  0  0  0  0  0  0
    7.4605   -3.9838   21.1254 H   0  0  0  0  0  0  0  0  0  0  0  0
  1  2  1  0
  2  3  1  0
  3  4  1  0
  3  5  1  0
  3  6  1  0
  2  7  1  0
  7  8  1  0
  8  9  2  0
  9 10  1  0
 10 11  2  0
 11 12  1  0
 12 13  2  0
 13 14  1  0
 11 15  1  0
 10 16  1  0
  9 17  1  0
  7 18  1  0
 18 19  1  0
 19 20  1  0
 19 21  1  0
 19 22  1  0
 18 23  1  0
 23 24  2  0
 23 25  1  0
 25 26  1  0
 26 27  1  0
 27 28  1  0
 28 29  1  0
 28 30  1  0
 28 31  1  0
 27 32  1  0
 32 33  1  0
 32 34  1  0
 32 35  1  0
 27 36  1  0
 36 37  2  0
 37 38  1  0
 38 39  2  0
 39 40  1  0
 40 41  2  0
 41 42  1  0
 40 43  1  0
 39 44  1  0
 38 45  1  0
 37 46  1  0
 26 47  1  0
 26 48  1  0
 25 49  1  0
 25 50  1  0
  7 51  1  0
  2 52  1  0
  1 53  1  0
  1 54  1  0
  1 55  1  0
 13  8  1  0
 41 36  1  0
M  END
>  <plip>  (1) 
-0.03571428571428571

>  <filename>  (1) 
[H][c]1[n][c]([H])[c]([C]([H])([N]([C](=[O])[C]([H])([H])[C]([H])([H])[C]([c]2[c]([H])[c]([H])[c]([H])[c]([H])[c]2[H])([C]([H])([H])[H])[C]([H])([H])[H])[C]([H])([H])[H])[C]([H])([C]([H])([H])[H])[C]([H])([H])[H])[c]([H])[c]1[H]

$$$$
