
     RDKit          3D

 48 50  0  0  0  0  0  0  0  0999 V2000
   10.0635   -5.9976   25.1983 C   0  0  0  0  0  0  0  0  0  0  0  0
    8.8168   -5.2246   24.8777 C   0  0  0  0  0  0  0  0  0  0  0  0
    8.1495   -4.4534   25.8301 C   0  0  0  0  0  0  0  0  0  0  0  0
    6.9484   -3.7603   25.5350 C   0  0  0  0  0  0  0  0  0  0  0  0
    6.3995   -3.8106   24.2601 C   0  0  0  0  0  0  0  0  0  0  0  0
    7.0443   -4.5753   23.2642 C   0  0  0  0  0  0  0  0  0  0  0  0
    8.2409   -5.2697   23.5921 C   0  0  0  0  0  0  0  0  0  0  0  0
    8.6543   -5.9303   22.4619 N   0  0  0  0  0  0  0  0  0  0  0  0
    7.7825   -5.6574   21.4355 C   0  0  0  0  0  0  0  0  0  0  0  0
    6.7760   -4.8519   21.8765 C   0  0  0  0  0  0  0  0  0  0  0  0
    5.7216   -4.2542   20.9884 C   0  0  0  0  0  0  0  0  0  0  0  0
    6.0489   -2.8738   20.3992 C   0  0  0  0  0  0  0  0  0  0  0  0
    5.8431   -2.6362   19.2229 O   0  0  0  0  0  0  0  0  0  0  0  0
    6.5133   -1.9739   21.3111 N   0  0  0  0  0  0  0  0  0  0  0  0
    7.2565   -0.7512   21.0315 C   0  0  0  0  0  0  0  0  0  0  0  0
    8.7604   -1.0638   20.8516 C   0  0  0  0  0  0  0  0  0  0  0  0
    9.4833   -1.7140   22.0506 C   0  0  0  0  0  0  0  0  0  0  0  0
    9.4609   -0.9261   23.3531 C   0  0  0  0  0  0  0  0  0  0  0  0
    8.1656   -0.9953   23.9317 O   0  0  0  0  0  0  0  0  0  0  0  0
    8.1940   -0.5637   24.7949 H   0  0  0  0  0  0  0  0  0  0  0  0
    9.7473    0.1218   23.1496 H   0  0  0  0  0  0  0  0  0  0  0  0
   10.2100   -1.3464   24.0420 H   0  0  0  0  0  0  0  0  0  0  0  0
    9.0978   -2.7306   22.2222 H   0  0  0  0  0  0  0  0  0  0  0  0
   10.5380   -1.8321   21.7689 H   0  0  0  0  0  0  0  0  0  0  0  0
    9.2786   -0.1342   20.5768 H   0  0  0  0  0  0  0  0  0  0  0  0
    8.8662   -1.7341   19.9901 H   0  0  0  0  0  0  0  0  0  0  0  0
    6.6287    0.0217   19.8986 C   0  0  0  0  0  0  0  0  0  0  0  0
    5.4010    0.6717   20.0930 C   0  0  0  0  0  0  0  0  0  0  0  0
    4.8123    1.3468   19.0188 C   0  0  0  0  0  0  0  0  0  0  0  0
    5.4681    1.3341   17.7824 C   0  0  0  0  0  0  0  0  0  0  0  0
    6.6275    0.6976   17.5668 N   0  0  0  0  0  0  0  0  0  0  0  0
    7.1766    0.0614   18.6125 C   0  0  0  0  0  0  0  0  0  0  0  0
    8.1223   -0.4381   18.4049 H   0  0  0  0  0  0  0  0  0  0  0  0
    5.0492    1.8598   16.9275 H   0  0  0  0  0  0  0  0  0  0  0  0
    3.8845    1.8990   19.1331 H   0  0  0  0  0  0  0  0  0  0  0  0
    4.9143    0.6516   21.0722 H   0  0  0  0  0  0  0  0  0  0  0  0
    7.1355   -0.1535   21.9474 H   0  0  0  0  0  0  0  0  0  0  0  0
    6.7632   -2.3629   22.2046 H   0  0  0  0  0  0  0  0  0  0  0  0
    4.7721   -4.1525   21.5284 H   0  0  0  0  0  0  0  0  0  0  0  0
    5.5230   -4.9001   20.1274 H   0  0  0  0  0  0  0  0  0  0  0  0
    7.9205   -6.0734   20.4460 H   0  0  0  0  0  0  0  0  0  0  0  0
    9.5034   -6.4614   22.3736 H   0  0  0  0  0  0  0  0  0  0  0  0
    5.4859   -3.2708   24.0224 H   0  0  0  0  0  0  0  0  0  0  0  0
    6.4628   -3.1723   26.3106 H   0  0  0  0  0  0  0  0  0  0  0  0
    8.5612   -4.4169   26.8377 H   0  0  0  0  0  0  0  0  0  0  0  0
   10.0220   -6.9901   24.7350 H   0  0  0  0  0  0  0  0  0  0  0  0
   10.1692   -6.1383   26.2772 H   0  0  0  0  0  0  0  0  0  0  0  0
   10.9707   -5.4991   24.8332 H   0  0  0  0  0  0  0  0  0  0  0  0
  1  2  1  0
  2  3  2  0
  3  4  1  0
  4  5  2  0
  5  6  1  0
  6  7  2  0
  7  8  1  0
  8  9  1  0
  9 10  2  0
 10 11  1  0
 11 12  1  0
 12 13  2  0
 12 14  1  0
 14 15  1  0
 15 16  1  0
 16 17  1  0
 17 18  1  0
 18 19  1  0
 19 20  1  0
 18 21  1  0
 18 22  1  0
 17 23  1  0
 17 24  1  0
 16 25  1  0
 16 26  1  0
 15 27  1  0
 27 28  2  0
 28 29  1  0
 29 30  2  0
 30 31  1  0
 31 32  2  0
 32 33  1  0
 30 34  1  0
 29 35  1  0
 28 36  1  0
 15 37  1  0
 14 38  1  0
 11 39  1  0
 11 40  1  0
  9 41  1  0
  8 42  1  0
  5 43  1  0
  4 44  1  0
  3 45  1  0
  1 46  1  0
  1 47  1  0
  1 48  1  0
  7  2  1  0
 32 27  1  0
 10  6  1  0
M  END
>  <plip>  (1) 
-0.1724137931034483

>  <filename>  (1) 
[H][O][C]([H])([H])[C]([H])([H])[C]([H])([H])[C]([H])([c]1[c]([H])[n][c]([H])[c]([H])[c]1[H])[N]([H])[C](=[O])[C]([H])([H])[c]1[c]([H])[n]([H])[c]2[c]([C]([H])([H])[H])[c]([H])[c]([H])[c]([H])[c]12

$$$$
