
     RDKit          3D

 46 49  0  0  0  0  0  0  0  0999 V2000
    3.6992    2.4766   26.9375 C   0  0  0  0  0  0  0  0  0  0  0  0
    4.5480    2.0141   25.8547 N   0  0  0  0  0  0  0  0  0  0  0  0
    4.1266    1.1035   24.9634 N   0  0  0  0  0  0  0  0  0  0  0  0
    5.0685    0.8864   24.1014 N   0  0  0  0  0  0  0  0  0  0  0  0
    6.1533    1.6702   24.4118 C   0  0  0  0  0  0  0  0  0  0  0  0
    7.4215    1.8479   23.7882 C   0  0  0  0  0  0  0  0  0  0  0  0
    7.8389    1.1362   22.5378 C   0  0  0  0  0  0  0  0  0  0  0  0
    8.6552    1.6223   21.7689 O   0  0  0  0  0  0  0  0  0  0  0  0
    7.2964   -0.1078   22.3366 N   0  0  0  0  0  0  0  0  0  0  0  0
    7.4227   -0.7165   21.0300 C   0  0  0  0  0  0  0  0  0  0  0  0
    6.6542    0.0543   19.9539 C   0  0  0  0  0  0  0  0  0  0  0  0
    5.4256    0.7013   20.1699 C   0  0  0  0  0  0  0  0  0  0  0  0
    4.7991    1.3233   19.0864 C   0  0  0  0  0  0  0  0  0  0  0  0
    5.4087    1.2863   17.8283 C   0  0  0  0  0  0  0  0  0  0  0  0
    6.5776    0.6694   17.5964 N   0  0  0  0  0  0  0  0  0  0  0  0
    7.1698    0.0870   18.6464 C   0  0  0  0  0  0  0  0  0  0  0  0
    8.1203   -0.4041   18.4252 H   0  0  0  0  0  0  0  0  0  0  0  0
    4.9435    1.7717   16.9727 H   0  0  0  0  0  0  0  0  0  0  0  0
    3.8551    1.8419   19.2056 H   0  0  0  0  0  0  0  0  0  0  0  0
    4.9656    0.7346   21.1637 H   0  0  0  0  0  0  0  0  0  0  0  0
    7.0586   -2.2185   21.0196 C   0  0  0  0  0  0  0  0  0  0  0  0
    5.5820   -2.6297   21.2382 C   0  0  0  0  0  0  0  0  0  0  0  0
    5.5808   -3.6939   22.3424 C   0  0  0  0  0  0  0  0  0  0  0  0
    6.9793   -4.3171   22.2700 C   0  0  0  0  0  0  0  0  0  0  0  0
    7.9008   -3.1300   21.9437 C   0  0  0  0  0  0  0  0  0  0  0  0
    8.8279   -3.4628   21.4587 H   0  0  0  0  0  0  0  0  0  0  0  0
    8.1795   -2.6004   22.8663 H   0  0  0  0  0  0  0  0  0  0  0  0
    7.0091   -5.0643   21.4606 H   0  0  0  0  0  0  0  0  0  0  0  0
    7.2642   -4.8166   23.2047 H   0  0  0  0  0  0  0  0  0  0  0  0
    4.7856   -4.4336   22.1959 H   0  0  0  0  0  0  0  0  0  0  0  0
    5.4240   -3.2184   23.3207 H   0  0  0  0  0  0  0  0  0  0  0  0
    5.1902   -3.0622   20.3051 H   0  0  0  0  0  0  0  0  0  0  0  0
    4.9574   -1.7704   21.4838 H   0  0  0  0  0  0  0  0  0  0  0  0
    7.2603   -2.4969   19.9944 H   0  0  0  0  0  0  0  0  0  0  0  0
    8.4879   -0.6571   20.7566 H   0  0  0  0  0  0  0  0  0  0  0  0
    6.4240   -0.2583   22.8404 H   0  0  0  0  0  0  0  0  0  0  0  0
    8.2811    2.7899   24.3573 C   0  0  0  0  0  0  0  0  0  0  0  0
    7.9344    3.5091   25.5240 C   0  0  0  0  0  0  0  0  0  0  0  0
    6.7061    3.3351   26.1483 C   0  0  0  0  0  0  0  0  0  0  0  0
    5.8174    2.4136   25.5628 C   0  0  0  0  0  0  0  0  0  0  0  0
    6.4299    3.8869   27.0427 H   0  0  0  0  0  0  0  0  0  0  0  0
    8.6529    4.2159   25.9321 H   0  0  0  0  0  0  0  0  0  0  0  0
    9.2352    2.9711   23.8668 H   0  0  0  0  0  0  0  0  0  0  0  0
    2.8049    1.8509   26.9765 H   0  0  0  0  0  0  0  0  0  0  0  0
    3.4048    3.5217   26.7889 H   0  0  0  0  0  0  0  0  0  0  0  0
    4.2365    2.3936   27.8870 H   0  0  0  0  0  0  0  0  0  0  0  0
  1  2  1  0
  2  3  1  0
  3  4  2  0
  4  5  1  0
  5  6  2  0
  6  7  1  0
  7  8  2  0
  7  9  1  0
  9 10  1  0
 10 11  1  0
 11 12  2  0
 12 13  1  0
 13 14  2  0
 14 15  1  0
 15 16  2  0
 16 17  1  0
 14 18  1  0
 13 19  1  0
 12 20  1  0
 10 21  1  0
 21 22  1  0
 22 23  1  0
 23 24  1  0
 24 25  1  0
 25 26  1  0
 25 27  1  0
 24 28  1  0
 24 29  1  0
 23 30  1  0
 23 31  1  0
 22 32  1  0
 22 33  1  0
 21 34  1  0
 10 35  1  0
  9 36  1  0
  6 37  1  0
 37 38  2  0
 38 39  1  0
 39 40  2  0
 39 41  1  0
 38 42  1  0
 37 43  1  0
  1 44  1  0
  1 45  1  0
  1 46  1  0
 40  2  1  0
 40  5  1  0
 16 11  1  0
 25 21  1  0
M  END
>  <plip>  (1) 
-0.13793103448275862

>  <filename>  (1) 
[H][c]1[n][c]([H])[c]([C]([H])([N]([H])[C](=[O])[c]2[c]([H])[c]([H])[c]([H])[c]3[c]2[n][n][n]3[C]([H])([H])[H])[C]2([H])[C]([H])([H])[C]([H])([H])[C]([H])([H])[C]2([H])[H])[c]([H])[c]1[H]

$$$$
