
     RDKit          3D

 33 36  0  0  0  0  0  0  0  0999 V2000
    4.9513    1.8109   16.9779 H   0  0  0  0  0  0  0  0  0  0  0  0
    5.4026    1.3008   17.8280 C   0  0  0  0  0  0  0  0  0  0  0  0
    6.5579    0.6617   17.5850 N   0  0  0  0  0  0  0  0  0  0  0  0
    7.1410    0.0383   18.6145 C   0  0  0  0  0  0  0  0  0  0  0  0
    8.0842   -0.4554   18.3774 H   0  0  0  0  0  0  0  0  0  0  0  0
    6.6089   -0.0051   19.9151 C   0  0  0  0  0  0  0  0  0  0  0  0
    7.2978   -0.7250   20.9836 C   0  0  0  0  0  0  0  0  0  0  0  0
    6.6468   -1.5832   21.8362 N   0  0  0  0  0  0  0  0  0  0  0  0
    7.6052   -2.0915   22.5579 C   0  0  0  0  0  0  0  0  0  0  0  0
    8.8364   -1.6316   22.2333 N   0  0  0  0  0  0  0  0  0  0  0  0
    8.6497   -0.6931   21.2564 C   0  0  0  0  0  0  0  0  0  0  0  0
    9.7814    0.0706   20.6710 C   0  0  0  0  0  0  0  0  0  0  0  0
   10.3686   -0.6219   20.0606 H   0  0  0  0  0  0  0  0  0  0  0  0
    9.3932    0.8635   20.0215 H   0  0  0  0  0  0  0  0  0  0  0  0
   10.7033    0.6306   21.6509 N   0  0  0  0  0  0  0  0  0  0  0  0
   10.4353    1.6376   22.5270 C   0  0  0  0  0  0  0  0  0  0  0  0
    9.4498    2.0750   22.5998 H   0  0  0  0  0  0  0  0  0  0  0  0
   11.4844    1.9593   23.2476 N   0  0  0  0  0  0  0  0  0  0  0  0
   12.4812    1.1118   22.8408 C   0  0  0  0  0  0  0  0  0  0  0  0
   13.4754    1.1927   23.2637 H   0  0  0  0  0  0  0  0  0  0  0  0
   12.0095    0.2602   21.8741 C   0  0  0  0  0  0  0  0  0  0  0  0
   12.4429   -0.5952   21.3732 H   0  0  0  0  0  0  0  0  0  0  0  0
    9.9975   -2.1171   22.9565 C   0  0  0  0  0  0  0  0  0  0  0  0
   10.3890   -1.3190   23.5975 H   0  0  0  0  0  0  0  0  0  0  0  0
   10.7964   -2.3861   22.2535 H   0  0  0  0  0  0  0  0  0  0  0  0
    9.4879   -3.3459   23.7578 C   0  0  0  0  0  0  0  0  0  0  0  0
    9.7644   -4.2748   23.2574 H   0  0  0  0  0  0  0  0  0  0  0  0
    9.8806   -3.3826   24.7764 H   0  0  0  0  0  0  0  0  0  0  0  0
    7.6487   -3.2684   23.8525 S   0  0  0  0  0  0  0  0  0  0  0  0
    5.3943    0.6548   20.1445 C   0  0  0  0  0  0  0  0  0  0  0  0
    4.9581    0.6335   21.1438 H   0  0  0  0  0  0  0  0  0  0  0  0
    4.7846    1.3256   19.0851 C   0  0  0  0  0  0  0  0  0  0  0  0
    3.8513    1.8684   19.2169 H   0  0  0  0  0  0  0  0  0  0  0  0
  1  2  1  0
  2  3  2  0
  3  4  1  0
  4  5  1  0
  4  6  2  0
  6  7  1  0
  7  8  1  0
  8  9  2  0
  9 10  1  0
 10 11  1  0
 11 12  1  0
 12 13  1  0
 12 14  1  0
 12 15  1  0
 15 16  1  0
 16 17  1  0
 16 18  2  0
 18 19  1  0
 19 20  1  0
 19 21  2  0
 21 22  1  0
 10 23  1  0
 23 24  1  0
 23 25  1  0
 23 26  1  0
 26 27  1  0
 26 28  1  0
 26 29  1  0
  6 30  1  0
 30 31  1  0
 30 32  2  0
 32 33  1  0
 32  2  1  0
 11  7  2  0
 21 15  1  0
 29  9  1  0
M  END
>  <plip>  (1) 
-0.0

>  <filename>  (1) 
[H][c]1[n][c]([H])[c](-[c]2[n][c]3[n]([c]2[C]([H])([H])[n]2[c]([H])[n][c]([H])[c]2[H])[C]([H])([H])[C]([H])([H])[S]3)[c]([H])[c]1[H]

$$$$
