
     RDKit          3D

 38 39  0  0  0  0  0  0  0  0999 V2000
    6.7464   -1.9754   21.4126 C   0  0  0  0  0  0  0  0  0  0  0  0
    7.1827   -0.5064   21.3178 C   0  0  0  0  0  0  0  0  0  0  0  0
    6.6347    0.1776   20.0630 C   0  0  0  0  0  0  0  0  0  0  0  0
    5.3512    0.7492   20.0806 C   0  0  0  0  0  0  0  0  0  0  0  0
    4.8194    1.2638   18.8972 C   0  0  0  0  0  0  0  0  0  0  0  0
    5.5912    1.2074   17.7319 C   0  0  0  0  0  0  0  0  0  0  0  0
    6.8339    0.7056   17.6966 N   0  0  0  0  0  0  0  0  0  0  0  0
    7.3390    0.2318   18.8485 C   0  0  0  0  0  0  0  0  0  0  0  0
    8.3752   -0.1059   18.7946 H   0  0  0  0  0  0  0  0  0  0  0  0
    5.1968    1.6020   16.7954 H   0  0  0  0  0  0  0  0  0  0  0  0
    3.8465    1.7416   18.8768 H   0  0  0  0  0  0  0  0  0  0  0  0
    4.7886    0.8329   21.0150 H   0  0  0  0  0  0  0  0  0  0  0  0
    8.6448   -0.3495   21.4513 N   0  0  0  0  0  0  0  0  0  0  0  0
    9.5427   -1.4216   20.9823 C   0  0  0  0  0  0  0  0  0  0  0  0
    9.6376   -2.2316   21.7205 H   0  0  0  0  0  0  0  0  0  0  0  0
    9.1536   -1.8420   20.0513 H   0  0  0  0  0  0  0  0  0  0  0  0
   10.5407   -1.0201   20.8053 H   0  0  0  0  0  0  0  0  0  0  0  0
    9.2040    0.7810   22.0163 C   0  0  0  0  0  0  0  0  0  0  0  0
   10.4099    0.8637   22.2179 O   0  0  0  0  0  0  0  0  0  0  0  0
    8.2523    2.0287   22.4409 C   0  0  0  0  0  0  0  0  0  0  0  0
    7.1700    2.2533   21.9325 O   0  0  0  0  0  0  0  0  0  0  0  0
    8.7584    2.8266   23.4392 N   0  0  0  0  0  0  0  0  0  0  0  0
    8.1884    4.0196   23.9280 C   0  0  0  0  0  0  0  0  0  0  0  0
    6.8141    4.2883   23.8924 C   0  0  0  0  0  0  0  0  0  0  0  0
    6.3274    5.5007   24.3923 C   0  0  0  0  0  0  0  0  0  0  0  0
    7.1946    6.4542   24.9311 C   0  0  0  0  0  0  0  0  0  0  0  0
    8.5580    6.1725   24.9910 C   0  0  0  0  0  0  0  0  0  0  0  0
    9.3979    7.0645   25.5350 F   0  0  0  0  0  0  0  0  0  0  0  0
    9.0561    4.9631   24.5066 C   0  0  0  0  0  0  0  0  0  0  0  0
   10.3728    4.6819   24.5974 F   0  0  0  0  0  0  0  0  0  0  0  0
    6.8364    7.4074   25.3071 H   0  0  0  0  0  0  0  0  0  0  0  0
    5.2601    5.7033   24.3543 H   0  0  0  0  0  0  0  0  0  0  0  0
    6.1495    3.5507   23.4666 H   0  0  0  0  0  0  0  0  0  0  0  0
    9.7326    2.7084   23.6768 H   0  0  0  0  0  0  0  0  0  0  0  0
    6.7220    0.0034   22.1760 H   0  0  0  0  0  0  0  0  0  0  0  0
    7.2803   -2.4836   22.2223 H   0  0  0  0  0  0  0  0  0  0  0  0
    6.9230   -2.5316   20.4852 H   0  0  0  0  0  0  0  0  0  0  0  0
    5.6760   -2.0237   21.6348 H   0  0  0  0  0  0  0  0  0  0  0  0
  1  2  1  0
  2  3  1  0
  3  4  2  0
  4  5  1  0
  5  6  2  0
  6  7  1  0
  7  8  2  0
  8  9  1  0
  6 10  1  0
  5 11  1  0
  4 12  1  0
  2 13  1  0
 13 14  1  0
 14 15  1  0
 14 16  1  0
 14 17  1  0
 13 18  1  0
 18 19  2  0
 18 20  1  0
 20 21  2  0
 20 22  1  0
 22 23  1  0
 23 24  2  0
 24 25  1  0
 25 26  2  0
 26 27  1  0
 27 28  1  0
 27 29  2  0
 29 30  1  0
 26 31  1  0
 25 32  1  0
 24 33  1  0
 22 34  1  0
  2 35  1  0
  1 36  1  0
  1 37  1  0
  1 38  1  0
  8  3  1  0
 29 23  1  0
M  END
>  <plip>  (1) 
-0.03571428571428571

>  <filename>  (1) 
[H][c]1[n][c]([H])[c]([C]([H])([N]([C](=[O])[C](=[O])[N]([H])[c]2[c]([H])[c]([H])[c]([H])[c]([F])[c]2[F])[C]([H])([H])[H])[C]([H])([H])[H])[c]([H])[c]1[H]

$$$$
