
     RDKit          3D

 40 42  0  0  0  0  0  0  0  0999 V2000
    6.5967   -1.1761   24.0087 C   0  0  0  0  0  0  0  0  0  0  0  0
    7.1941   -2.4600   23.5184 C   0  0  0  0  0  0  0  0  0  0  0  0
    7.4319   -2.8417   22.2227 C   0  0  0  0  0  0  0  0  0  0  0  0
    6.9460   -2.0479   21.0825 C   0  0  0  0  0  0  0  0  0  0  0  0
    6.0925   -2.5685   20.3637 O   0  0  0  0  0  0  0  0  0  0  0  0
    7.3204   -0.7105   20.8810 N   0  0  0  0  0  0  0  0  0  0  0  0
    6.7185    0.0354   19.8447 C   0  0  0  0  0  0  0  0  0  0  0  0
    5.5162    0.6822   20.1150 C   0  0  0  0  0  0  0  0  0  0  0  0
    4.8657    1.3350   19.0655 C   0  0  0  0  0  0  0  0  0  0  0  0
    5.4396    1.3577   17.7879 C   0  0  0  0  0  0  0  0  0  0  0  0
    6.6213    0.7696   17.5208 N   0  0  0  0  0  0  0  0  0  0  0  0
    7.2410    0.1204   18.5305 C   0  0  0  0  0  0  0  0  0  0  0  0
    8.1782   -0.3820   18.3115 H   0  0  0  0  0  0  0  0  0  0  0  0
    4.9066    1.8572   16.9835 H   0  0  0  0  0  0  0  0  0  0  0  0
    3.9120    1.8230   19.2276 H   0  0  0  0  0  0  0  0  0  0  0  0
    5.1026    0.6610   21.1214 H   0  0  0  0  0  0  0  0  0  0  0  0
    8.3243   -0.0660   21.7379 C   0  0  0  0  0  0  0  0  0  0  0  0
    7.8810    1.3323   22.1855 C   0  0  0  0  0  0  0  0  0  0  0  0
    7.7343    1.9823   21.3166 H   0  0  0  0  0  0  0  0  0  0  0  0
    8.6460    1.7835   22.8261 H   0  0  0  0  0  0  0  0  0  0  0  0
    6.9437    1.2868   22.7461 H   0  0  0  0  0  0  0  0  0  0  0  0
    9.6185    0.0629   20.9459 C   0  0  0  0  0  0  0  0  0  0  0  0
    9.4531    0.6981   20.0708 H   0  0  0  0  0  0  0  0  0  0  0  0
   10.4015    0.5139   21.5640 H   0  0  0  0  0  0  0  0  0  0  0  0
    9.9579   -0.9203   20.6093 H   0  0  0  0  0  0  0  0  0  0  0  0
    8.5063   -0.6748   22.6316 H   0  0  0  0  0  0  0  0  0  0  0  0
    7.9416   -4.1302   22.1812 O   0  0  0  0  0  0  0  0  0  0  0  0
    7.9751   -4.5824   23.4791 C   0  0  0  0  0  0  0  0  0  0  0  0
    8.3379   -5.8388   23.9868 C   0  0  0  0  0  0  0  0  0  0  0  0
    8.9364   -7.2179   22.7965 Br  0  0  0  0  0  0  0  0  0  0  0  0
    8.1983   -6.0746   25.3683 C   0  0  0  0  0  0  0  0  0  0  0  0
    7.6673   -5.0888   26.2140 C   0  0  0  0  0  0  0  0  0  0  0  0
    7.3066   -3.8430   25.6916 C   0  0  0  0  0  0  0  0  0  0  0  0
    7.4963   -3.5986   24.3325 C   0  0  0  0  0  0  0  0  0  0  0  0
    6.8666   -3.0777   26.3224 H   0  0  0  0  0  0  0  0  0  0  0  0
    7.5250   -5.2933   27.2715 H   0  0  0  0  0  0  0  0  0  0  0  0
    8.4602   -7.0365   25.7969 H   0  0  0  0  0  0  0  0  0  0  0  0
    6.3682   -0.5199   23.1606 H   0  0  0  0  0  0  0  0  0  0  0  0
    5.6862   -1.3798   24.5839 H   0  0  0  0  0  0  0  0  0  0  0  0
    7.3010   -0.6650   24.6676 H   0  0  0  0  0  0  0  0  0  0  0  0
  1  2  1  0
  2  3  2  0
  3  4  1  0
  4  5  2  0
  4  6  1  0
  6  7  1  0
  7  8  2  0
  8  9  1  0
  9 10  2  0
 10 11  1  0
 11 12  2  0
 12 13  1  0
 10 14  1  0
  9 15  1  0
  8 16  1  0
  6 17  1  0
 17 18  1  0
 18 19  1  0
 18 20  1  0
 18 21  1  0
 17 22  1  0
 22 23  1  0
 22 24  1  0
 22 25  1  0
 17 26  1  0
  3 27  1  0
 27 28  1  0
 28 29  2  0
 29 30  1  0
 29 31  1  0
 31 32  2  0
 32 33  1  0
 33 34  2  0
 33 35  1  0
 32 36  1  0
 31 37  1  0
  1 38  1  0
  1 39  1  0
  1 40  1  0
 34  2  1  0
 12  7  1  0
 34 28  1  0
M  END
>  <plip>  (1) 
-0.10714285714285714

>  <filename>  (1) 
[H][c]1[n][c]([H])[c]([N]([C](=[O])[c]2[o][c]3[c]([Br])[c]([H])[c]([H])[c]([H])[c]3[c]2[C]([H])([H])[H])[C]([H])([C]([H])([H])[H])[C]([H])([H])[H])[c]([H])[c]1[H]

$$$$
