
     RDKit          3D

 55 58  0  0  0  0  0  0  0  0999 V2000
    9.1566    1.4237   21.1250 O   0  0  0  0  0  0  0  0  0  0  0  0
    8.4380    1.2620   22.0969 C   0  0  0  0  0  0  0  0  0  0  0  0
    7.6039    0.1886   22.2184 N   0  0  0  0  0  0  0  0  0  0  0  0
    7.2896   -0.6730   21.0959 C   0  0  0  0  0  0  0  0  0  0  0  0
    6.5744    0.0845   19.9782 C   0  0  0  0  0  0  0  0  0  0  0  0
    5.3446    0.7376   20.1425 C   0  0  0  0  0  0  0  0  0  0  0  0
    4.7570    1.3544   19.0339 C   0  0  0  0  0  0  0  0  0  0  0  0
    5.4190    1.3029   17.8021 C   0  0  0  0  0  0  0  0  0  0  0  0
    6.5944    0.6865   17.6179 N   0  0  0  0  0  0  0  0  0  0  0  0
    7.1464    0.1083   18.6957 C   0  0  0  0  0  0  0  0  0  0  0  0
    8.1006   -0.3927   18.5232 H   0  0  0  0  0  0  0  0  0  0  0  0
    4.9888    1.7816   16.9244 H   0  0  0  0  0  0  0  0  0  0  0  0
    3.8169    1.8896   19.1146 H   0  0  0  0  0  0  0  0  0  0  0  0
    4.8500    0.7690   21.1184 H   0  0  0  0  0  0  0  0  0  0  0  0
    6.5429   -1.9355   21.5848 C   0  0  0  0  0  0  0  0  0  0  0  0
    7.3479   -2.8413   22.5382 C   0  0  0  0  0  0  0  0  0  0  0  0
    6.8642   -4.2800   22.2856 C   0  0  0  0  0  0  0  0  0  0  0  0
    6.2414   -4.3010   20.8716 C   0  0  0  0  0  0  0  0  0  0  0  0
    6.1238   -2.8386   20.4167 C   0  0  0  0  0  0  0  0  0  0  0  0
    5.1437   -2.5750   20.0311 H   0  0  0  0  0  0  0  0  0  0  0  0
    6.7698   -2.6307   19.5705 H   0  0  0  0  0  0  0  0  0  0  0  0
    5.2756   -4.8122   20.8830 H   0  0  0  0  0  0  0  0  0  0  0  0
    6.8645   -4.8617   20.1691 H   0  0  0  0  0  0  0  0  0  0  0  0
    7.6926   -4.9874   22.3668 H   0  0  0  0  0  0  0  0  0  0  0  0
    6.1350   -4.5894   23.0424 H   0  0  0  0  0  0  0  0  0  0  0  0
    8.4148   -2.7546   22.3076 H   0  0  0  0  0  0  0  0  0  0  0  0
    7.2340   -2.5552   23.5915 H   0  0  0  0  0  0  0  0  0  0  0  0
    5.6507   -1.6063   22.1065 H   0  0  0  0  0  0  0  0  0  0  0  0
    8.2396   -1.0263   20.6817 H   0  0  0  0  0  0  0  0  0  0  0  0
    6.9338    0.2242   22.9640 H   0  0  0  0  0  0  0  0  0  0  0  0
    8.3728    2.2458   23.2849 C   0  0  2  0  0  0  0  0  0  0  0  0
    8.6065    1.5910   24.6883 C   0  0  0  0  0  0  0  0  0  0  0  0
    7.4747    1.8896   25.6767 C   0  0  0  0  0  0  0  0  0  0  0  0
    7.1759    3.2713   25.7271 O   0  0  0  0  0  0  0  0  0  0  0  0
    6.8522    3.9368   24.5038 C   0  0  2  0  0  0  0  0  0  0  0  0
    5.4379    4.5259   24.5731 C   0  0  0  0  0  0  0  0  0  0  0  0
    5.1717    5.7874   24.0156 C   0  0  0  0  0  0  0  0  0  0  0  0
    3.8718    6.2915   24.0421 C   0  0  0  0  0  0  0  0  0  0  0  0
    3.6341    7.5102   23.5245 F   0  0  0  0  0  0  0  0  0  0  0  0
    2.8135    5.5756   24.5942 C   0  0  0  0  0  0  0  0  0  0  0  0
    3.0760    4.3183   25.1457 C   0  0  0  0  0  0  0  0  0  0  0  0
    4.3762    3.8013   25.1417 C   0  0  0  0  0  0  0  0  0  0  0  0
    4.5694    2.8400   25.6080 H   0  0  0  0  0  0  0  0  0  0  0  0
    2.2677    3.7388   25.5852 H   0  0  0  0  0  0  0  0  0  0  0  0
    1.8190    6.0092   24.5867 H   0  0  0  0  0  0  0  0  0  0  0  0
    5.9468    6.4002   23.5622 H   0  0  0  0  0  0  0  0  0  0  0  0
    7.0327    3.0377   23.2574 C   0  0  0  0  0  0  0  0  0  0  0  0
    6.1804    2.3409   23.2202 H   0  0  0  0  0  0  0  0  0  0  0  0
    6.9692    3.6604   22.3596 H   0  0  0  0  0  0  0  0  0  0  0  0
    7.5527    4.7831   24.4465 H   0  0  0  0  0  0  0  0  0  0  0  0
    6.5762    1.2977   25.4293 H   0  0  0  0  0  0  0  0  0  0  0  0
    7.7679    1.6212   26.6963 H   0  0  0  0  0  0  0  0  0  0  0  0
    9.5299    1.9932   25.1155 H   0  0  0  0  0  0  0  0  0  0  0  0
    8.7395    0.5029   24.6243 H   0  0  0  0  0  0  0  0  0  0  0  0
    9.1957    2.9410   23.0815 H   0  0  0  0  0  0  0  0  0  0  0  0
  1  2  2  0
  2  3  1  0
  3  4  1  0
  4  5  1  0
  5  6  2  0
  6  7  1  0
  7  8  2  0
  8  9  1  0
  9 10  2  0
 10 11  1  0
  8 12  1  0
  7 13  1  0
  6 14  1  0
  4 15  1  0
 15 16  1  0
 16 17  1  0
 17 18  1  0
 18 19  1  0
 19 20  1  0
 19 21  1  0
 18 22  1  0
 18 23  1  0
 17 24  1  0
 17 25  1  0
 16 26  1  0
 16 27  1  0
 15 28  1  0
  4 29  1  0
  3 30  1  0
  2 31  1  0
 31 32  1  0
 32 33  1  0
 33 34  1  0
 34 35  1  0
 35 36  1  0
 36 37  2  0
 37 38  1  0
 38 39  1  0
 38 40  2  0
 40 41  1  0
 41 42  2  0
 42 43  1  0
 41 44  1  0
 40 45  1  0
 37 46  1  0
 35 47  1  0
 47 48  1  0
 47 49  1  0
 35 50  1  6
 33 51  1  0
 33 52  1  0
 32 53  1  0
 32 54  1  0
 31 55  1  6
 10  5  1  0
 19 15  1  0
 47 31  1  0
 42 36  1  0
M  END
>  <plip>  (1) 
-0.10714285714285714

>  <filename>  (1) 
[H][c]1[n][c]([H])[c]([C]([H])([N]([H])[C](=[O])[C@]2([H])[C]([H])([H])[C]([H])([H])[O][C@]([H])([c]3[c]([H])[c]([H])[c]([H])[c]([F])[c]3[H])[C]2([H])[H])[C]2([H])[C]([H])([H])[C]([H])([H])[C]([H])([H])[C]2([H])[H])[c]([H])[c]1[H]

$$$$
