
     RDKit          3D

 57 60  0  0  0  0  0  0  0  0999 V2000
    2.4226   -5.8434   23.2614 Cl  0  0  0  0  0  0  0  0  0  0  0  0
    2.2200   -4.3074   24.0708 C   0  0  0  0  0  0  0  0  0  0  0  0
    0.9009   -3.9052   24.3130 C   0  0  0  0  0  0  0  0  0  0  0  0
    0.6567   -2.6655   24.9018 C   0  0  0  0  0  0  0  0  0  0  0  0
    1.7251   -1.8325   25.2400 C   0  0  0  0  0  0  0  0  0  0  0  0
    3.0371   -2.2523   24.9991 C   0  0  0  0  0  0  0  0  0  0  0  0
    3.3287   -3.5007   24.4100 C   0  0  0  0  0  0  0  0  0  0  0  0
    4.7796   -3.9212   24.1719 C   0  0  0  0  0  0  0  0  0  0  0  0
    5.3590   -3.2686   22.9335 N   0  0  0  0  0  4  0  0  0  0  0  0
    4.7390   -3.7483   21.6480 C   0  0  0  0  0  0  0  0  0  0  0  0
    5.6432   -3.1830   20.5593 C   0  0  0  0  0  0  0  0  0  0  0  0
    7.0669   -3.2223   21.1266 C   0  0  0  0  0  0  0  0  0  0  0  0
    7.8660   -2.0043   20.6726 N   0  0  0  0  0  4  0  0  0  0  0  0
    7.3536   -0.6358   21.0999 C   0  0  0  0  0  0  0  0  0  0  0  0
    6.6060   -0.0133   19.9377 C   0  0  0  0  0  0  0  0  0  0  0  0
    5.4021    0.6856   20.1370 C   0  0  0  0  0  0  0  0  0  0  0  0
    4.8058    1.3310   19.0516 C   0  0  0  0  0  0  0  0  0  0  0  0
    5.4276    1.2673   17.8015 C   0  0  0  0  0  0  0  0  0  0  0  0
    6.5543    0.5762   17.5814 N   0  0  0  0  0  0  0  0  0  0  0  0
    7.1141   -0.0499   18.6240 C   0  0  0  0  0  0  0  0  0  0  0  0
    8.0521   -0.5564   18.3904 H   0  0  0  0  0  0  0  0  0  0  0  0
    5.0053    1.7972   16.9483 H   0  0  0  0  0  0  0  0  0  0  0  0
    3.8938    1.9024   19.1673 H   0  0  0  0  0  0  0  0  0  0  0  0
    4.9384    0.7311   21.1251 H   0  0  0  0  0  0  0  0  0  0  0  0
    8.5047    0.2416   21.6547 C   0  0  0  0  0  0  0  0  0  0  0  0
    8.9586   -0.1978   23.0631 C   0  0  0  0  0  0  0  0  0  0  0  0
   10.0934    0.6986   23.5809 C   0  0  0  0  0  0  0  0  0  0  0  0
   11.1901    0.7350   22.6821 O   0  0  0  0  0  0  0  0  0  0  0  0
   10.8387    1.2177   21.3952 C   0  0  0  0  0  0  0  0  0  0  0  0
    9.7511    0.3489   20.7506 C   0  0  0  0  0  0  0  0  0  0  0  0
   10.1951   -0.6447   20.5939 H   0  0  0  0  0  0  0  0  0  0  0  0
    9.4801    0.7271   19.7597 H   0  0  0  0  0  0  0  0  0  0  0  0
   10.5074    2.2700   21.4486 H   0  0  0  0  0  0  0  0  0  0  0  0
   11.7618    1.1980   20.8124 H   0  0  0  0  0  0  0  0  0  0  0  0
    9.7101    1.7208   23.7560 H   0  0  0  0  0  0  0  0  0  0  0  0
   10.4947    0.3267   24.5270 H   0  0  0  0  0  0  0  0  0  0  0  0
    9.3324   -1.2318   23.0201 H   0  0  0  0  0  0  0  0  0  0  0  0
    8.1213   -0.1792   23.7743 H   0  0  0  0  0  0  0  0  0  0  0  0
    8.0821    1.2512   21.7387 H   0  0  0  0  0  0  0  0  0  0  0  0
    6.6350   -0.7963   21.9109 H   0  0  0  0  0  0  0  0  0  0  0  0
    7.7960   -1.9661   19.6334 H   0  0  0  0  0  0  0  0  0  0  0  0
    8.8641   -2.0703   20.9346 H   0  0  0  0  0  0  0  0  0  0  0  0
    6.8641   -3.3524   22.6597 C   0  0  0  0  0  0  0  0  0  0  0  0
    7.2413   -4.3168   23.0094 H   0  0  0  0  0  0  0  0  0  0  0  0
    7.4062   -2.5645   23.1809 H   0  0  0  0  0  0  0  0  0  0  0  0
    7.5977   -4.1048   20.7591 H   0  0  0  0  0  0  0  0  0  0  0  0
    5.5432   -3.7363   19.6209 H   0  0  0  0  0  0  0  0  0  0  0  0
    5.3787   -2.1415   20.3632 H   0  0  0  0  0  0  0  0  0  0  0  0
    3.7083   -3.4023   21.5661 H   0  0  0  0  0  0  0  0  0  0  0  0
    4.7275   -4.8443   21.6483 H   0  0  0  0  0  0  0  0  0  0  0  0
    5.1047   -2.2567   23.0568 H   0  0  0  0  0  0  0  0  0  0  0  0
    4.8366   -5.0105   24.0726 H   0  0  0  0  0  0  0  0  0  0  0  0
    5.3783   -3.6516   25.0509 H   0  0  0  0  0  0  0  0  0  0  0  0
    3.8557   -1.5814   25.2517 H   0  0  0  0  0  0  0  0  0  0  0  0
    1.5371   -0.8585   25.6863 H   0  0  0  0  0  0  0  0  0  0  0  0
   -0.3670   -2.3505   25.0943 H   0  0  0  0  0  0  0  0  0  0  0  0
    0.0841   -4.5678   24.0354 H   0  0  0  0  0  0  0  0  0  0  0  0
  1  2  1  0
  2  3  2  0
  3  4  1  0
  4  5  2  0
  5  6  1  0
  6  7  2  0
  7  8  1  0
  8  9  1  0
  9 10  1  0
 10 11  1  0
 11 12  1  0
 12 13  1  0
 13 14  1  0
 14 15  1  0
 15 16  2  0
 16 17  1  0
 17 18  2  0
 18 19  1  0
 19 20  2  0
 20 21  1  0
 18 22  1  0
 17 23  1  0
 16 24  1  0
 14 25  1  0
 25 26  1  0
 26 27  1  0
 27 28  1  0
 28 29  1  0
 29 30  1  0
 30 31  1  0
 30 32  1  0
 29 33  1  0
 29 34  1  0
 27 35  1  0
 27 36  1  0
 26 37  1  0
 26 38  1  0
 25 39  1  0
 14 40  1  0
 13 41  1  0
 13 42  1  0
 12 43  1  0
 43 44  1  0
 43 45  1  0
 12 46  1  0
 11 47  1  0
 11 48  1  0
 10 49  1  0
 10 50  1  0
  9 51  1  0
  8 52  1  0
  8 53  1  0
  6 54  1  0
  5 55  1  0
  4 56  1  0
  3 57  1  0
  7  2  1  0
 43  9  1  0
 20 15  1  0
 30 25  1  0
M  CHG  2   9   1  13   1
M  END
>  <plip>  (1) 
-0.12903225806451613

>  <filename>  (1) 
[H][c]1[n][c]([H])[c]([C]([H])([C]2([H])[C]([H])([H])[C]([H])([H])[O][C]([H])([H])[C]2([H])[H])[N+]([H])([H])[C]2([H])[C]([H])([H])[C]([H])([H])[N+]([H])([C]([H])([H])[c]3[c]([H])[c]([H])[c]([H])[c]([H])[c]3[Cl])[C]2([H])[H])[c]([H])[c]1[H]

$$$$
