
     RDKit          3D

 40 41  0  0  0  0  0  0  0  0999 V2000
   10.1873    0.8968   23.1554 C   0  0  0  0  0  0  0  0  0  0  0  0
    9.0954   -0.0621   22.8309 N   0  0  0  0  0  4  0  0  0  0  0  0
    9.4978   -1.5327   23.1092 C   0  0  0  0  0  0  0  0  0  0  0  0
    8.4063   -2.3946   23.7304 C   0  0  0  0  0  0  0  0  0  0  0  0
    7.9013   -2.0366   24.9878 C   0  0  0  0  0  0  0  0  0  0  0  0
    6.8824   -2.7983   25.5552 C   0  0  0  0  0  0  0  0  0  0  0  0
    6.3866   -3.8769   24.8194 C   0  0  0  0  0  0  0  0  0  0  0  0
    6.9314   -4.1600   23.5612 C   0  0  0  0  0  0  0  0  0  0  0  0
    6.3809   -5.2932   22.7023 C   0  0  0  0  0  0  0  0  0  0  0  0
    5.2153   -4.8807   21.9705 O   0  0  0  0  0  0  0  0  0  0  0  0
    4.8811   -5.6395   21.4669 H   0  0  0  0  0  0  0  0  0  0  0  0
    6.1456   -6.1241   23.3835 H   0  0  0  0  0  0  0  0  0  0  0  0
    7.1935   -5.6178   22.0411 H   0  0  0  0  0  0  0  0  0  0  0  0
    7.9720   -3.4694   23.0626 N   0  0  0  0  0  0  0  0  0  0  0  0
    5.5870   -4.5016   25.1947 H   0  0  0  0  0  0  0  0  0  0  0  0
    6.4873   -2.5517   26.5475 H   0  0  0  0  0  0  0  0  0  0  0  0
    8.3302   -1.1814   25.4980 H   0  0  0  0  0  0  0  0  0  0  0  0
   10.3435   -1.5049   23.8003 H   0  0  0  0  0  0  0  0  0  0  0  0
    9.8028   -1.9943   22.1749 H   0  0  0  0  0  0  0  0  0  0  0  0
    8.6451    0.1203   21.3748 C   0  0  0  0  0  0  0  0  0  0  0  0
    7.4020   -0.6780   20.9827 C   0  0  0  0  0  0  0  0  0  0  0  0
    7.7975   -1.9407   20.4828 O   0  0  0  0  0  0  0  0  0  0  0  0
    7.0099   -2.4991   20.5440 H   0  0  0  0  0  0  0  0  0  0  0  0
    6.6278    0.0111   19.9011 C   0  0  0  0  0  0  0  0  0  0  0  0
    5.4211    0.6653   20.1529 C   0  0  0  0  0  0  0  0  0  0  0  0
    4.7949    1.3231   19.0950 C   0  0  0  0  0  0  0  0  0  0  0  0
    5.3936    1.2989   17.8320 C   0  0  0  0  0  0  0  0  0  0  0  0
    6.5554    0.6758   17.5743 N   0  0  0  0  0  0  0  0  0  0  0  0
    7.1490    0.0495   18.5958 C   0  0  0  0  0  0  0  0  0  0  0  0
    8.0995   -0.4347   18.3691 H   0  0  0  0  0  0  0  0  0  0  0  0
    4.9260    1.7916   16.9836 H   0  0  0  0  0  0  0  0  0  0  0  0
    3.8647    1.8534   19.2411 H   0  0  0  0  0  0  0  0  0  0  0  0
    4.9940    0.6453   21.1595 H   0  0  0  0  0  0  0  0  0  0  0  0
    6.7950   -0.7856   21.8989 H   0  0  0  0  0  0  0  0  0  0  0  0
    9.4355   -0.2056   20.6968 H   0  0  0  0  0  0  0  0  0  0  0  0
    8.4576    1.1813   21.1996 H   0  0  0  0  0  0  0  0  0  0  0  0
    8.2604    0.1533   23.4263 H   0  0  0  0  0  0  0  0  0  0  0  0
    9.8732    1.9252   22.9402 H   0  0  0  0  0  0  0  0  0  0  0  0
   10.4790    0.8162   24.2085 H   0  0  0  0  0  0  0  0  0  0  0  0
   11.0701    0.6824   22.5407 H   0  0  0  0  0  0  0  0  0  0  0  0
  1  2  1  0
  2  3  1  0
  3  4  1  0
  4  5  2  0
  5  6  1  0
  6  7  2  0
  7  8  1  0
  8  9  1  0
  9 10  1  0
 10 11  1  0
  9 12  1  0
  9 13  1  0
  8 14  2  0
  7 15  1  0
  6 16  1  0
  5 17  1  0
  3 18  1  0
  3 19  1  0
  2 20  1  0
 20 21  1  0
 21 22  1  0
 22 23  1  0
 21 24  1  0
 24 25  2  0
 25 26  1  0
 26 27  2  0
 27 28  1  0
 28 29  2  0
 29 30  1  0
 27 31  1  0
 26 32  1  0
 25 33  1  0
 21 34  1  0
 20 35  1  0
 20 36  1  0
  2 37  1  0
  1 38  1  0
  1 39  1  0
  1 40  1  0
 14  4  1  0
 29 24  1  0
M  CHG  1   2   1
M  END
>  <plip>  (1) 
-0.06896551724137931

>  <filename>  (1) 
[H][O][C]([H])([H])[c]1[n][c]([C]([H])([H])[N+]([H])([C]([H])([H])[H])[C]([H])([H])[C]([H])([O][H])[c]2[c]([H])[n][c]([H])[c]([H])[c]2[H])[c]([H])[c]([H])[c]1[H]

$$$$
