
     RDKit          3D

 33 34  0  0  0  0  0  0  0  0999 V2000
    8.1380    0.9632   22.7939 O   0  0  0  0  0  0  0  0  0  0  0  0
    8.4304    0.5815   21.6569 C   0  0  0  0  0  0  0  0  0  0  0  0
    9.4537    1.1060   20.9088 O   0  0  0  0  0  0  0  0  0  0  0  0
   10.2956    2.0675   21.5701 C   0  0  0  0  0  0  0  0  0  0  0  0
   10.8037    1.5806   22.9425 C   0  0  0  0  0  0  0  0  0  0  0  0
   11.5914    0.3311   22.7069 C   0  0  0  0  0  0  0  0  0  0  0  0
   12.9128    0.4957   22.3036 C   0  0  0  0  0  0  0  0  0  0  0  0
   13.6571   -0.5951   21.8886 C   0  0  0  0  0  0  0  0  0  0  0  0
   13.0868   -1.8590   21.8631 C   0  0  0  0  0  0  0  0  0  0  0  0
   11.7715   -2.0485   22.3028 C   0  0  0  0  0  0  0  0  0  0  0  0
   11.0249   -0.9591   22.7504 C   0  0  0  0  0  0  0  0  0  0  0  0
    9.2806   -1.3031   23.4619 Br  0  0  0  0  0  0  0  0  0  0  0  0
   11.3200   -3.0346   22.3511 H   0  0  0  0  0  0  0  0  0  0  0  0
   13.6993   -2.6835   21.5304 H   0  0  0  0  0  0  0  0  0  0  0  0
   14.6620   -0.4270   21.5437 H   0  0  0  0  0  0  0  0  0  0  0  0
   13.3517    1.4867   22.2895 H   0  0  0  0  0  0  0  0  0  0  0  0
    9.9744    1.4009   23.6378 H   0  0  0  0  0  0  0  0  0  0  0  0
   11.4699    2.3407   23.3674 H   0  0  0  0  0  0  0  0  0  0  0  0
   11.1496    2.2744   20.9173 H   0  0  0  0  0  0  0  0  0  0  0  0
    9.7571    3.0116   21.6898 H   0  0  0  0  0  0  0  0  0  0  0  0
    7.5584   -0.5246   20.9850 C   0  0  0  0  0  0  0  0  0  0  0  0
    6.6859   -1.1082   21.8593 F   0  0  0  0  0  0  0  0  0  0  0  0
    8.3445   -1.5354   20.5071 F   0  0  0  0  0  0  0  0  0  0  0  0
    6.7584    0.0694   19.8461 C   0  0  0  0  0  0  0  0  0  0  0  0
    5.5810    0.7805   20.0926 C   0  0  0  0  0  0  0  0  0  0  0  0
    4.9321    1.3473   19.0029 C   0  0  0  0  0  0  0  0  0  0  0  0
    5.4656    1.1983   17.7206 C   0  0  0  0  0  0  0  0  0  0  0  0
    6.5929    0.5048   17.4830 N   0  0  0  0  0  0  0  0  0  0  0  0
    7.2240   -0.0460   18.5290 C   0  0  0  0  0  0  0  0  0  0  0  0
    8.1474   -0.5885   18.3469 H   0  0  0  0  0  0  0  0  0  0  0  0
    4.9592    1.6724   16.8876 H   0  0  0  0  0  0  0  0  0  0  0  0
    4.0269    1.9263   19.1422 H   0  0  0  0  0  0  0  0  0  0  0  0
    5.1896    0.9011   21.1039 H   0  0  0  0  0  0  0  0  0  0  0  0
  1  2  2  0
  2  3  1  0
  3  4  1  0
  4  5  1  0
  5  6  1  0
  6  7  2  0
  7  8  1  0
  8  9  2  0
  9 10  1  0
 10 11  2  0
 11 12  1  0
 10 13  1  0
  9 14  1  0
  8 15  1  0
  7 16  1  0
  5 17  1  0
  5 18  1  0
  4 19  1  0
  4 20  1  0
  2 21  1  0
 21 22  1  0
 21 23  1  0
 21 24  1  0
 24 25  2  0
 25 26  1  0
 26 27  2  0
 27 28  1  0
 28 29  2  0
 29 30  1  0
 27 31  1  0
 26 32  1  0
 25 33  1  0
 11  6  1  0
 29 24  1  0
M  END
>  <plip>  (1) 
-0.13333333333333333

>  <filename>  (1) 
[H][c]1[n][c]([H])[c]([C]([F])([F])[C](=[O])[O][C]([H])([H])[C]([H])([H])[c]2[c]([H])[c]([H])[c]([H])[c]([H])[c]2[Br])[c]([H])[c]1[H]

$$$$
