
     RDKit          3D

 31 33  0  0  0  0  0  0  0  0999 V2000
    4.9227    1.8129   16.9727 H   0  0  0  0  0  0  0  0  0  0  0  0
    5.3823    1.2995   17.8158 C   0  0  0  0  0  0  0  0  0  0  0  0
    6.5412    0.6732   17.5546 N   0  0  0  0  0  0  0  0  0  0  0  0
    7.1334    0.0244   18.5612 C   0  0  0  0  0  0  0  0  0  0  0  0
    8.1083   -0.4178   18.3582 H   0  0  0  0  0  0  0  0  0  0  0  0
    6.5931   -0.0562   19.8591 C   0  0  0  0  0  0  0  0  0  0  0  0
    7.5435   -0.8277   21.1719 S   0  0  0  0  0  0  0  0  0  0  0  0
    8.5632    0.5514   21.6175 C   0  0  0  0  0  0  0  0  0  0  0  0
    9.7247    0.8806   21.1031 N   0  0  0  0  0  0  0  0  0  0  0  0
   10.0694    2.0635   21.6797 N   0  0  0  0  0  0  0  0  0  0  0  0
    9.1869    2.4606   22.5123 N   0  0  0  0  0  0  0  0  0  0  0  0
    8.2193    1.5200   22.5136 N   0  0  0  0  0  0  0  0  0  0  0  0
    6.8336    1.6762   23.5285 S   0  0  0  0  0  0  0  0  0  0  0  0
    7.5299    0.8490   25.0065 C   0  0  0  0  0  0  0  0  0  0  0  0
    6.8150    1.0407   25.8130 H   0  0  0  0  0  0  0  0  0  0  0  0
    8.4522    1.3821   25.2489 H   0  0  0  0  0  0  0  0  0  0  0  0
    7.7862   -0.6310   24.8019 C   0  0  0  0  0  0  0  0  0  0  0  0
    6.7077   -1.5247   24.7777 C   0  0  0  0  0  0  0  0  0  0  0  0
    5.7056   -1.1275   24.9276 H   0  0  0  0  0  0  0  0  0  0  0  0
    6.9148   -2.8843   24.5150 C   0  0  0  0  0  0  0  0  0  0  0  0
    6.0643   -3.5629   24.5118 H   0  0  0  0  0  0  0  0  0  0  0  0
    8.2102   -3.3550   24.2662 C   0  0  0  0  0  0  0  0  0  0  0  0
    8.3750   -4.4146   24.0740 H   0  0  0  0  0  0  0  0  0  0  0  0
    9.2923   -2.4686   24.2682 C   0  0  0  0  0  0  0  0  0  0  0  0
   10.2992   -2.8269   24.0585 H   0  0  0  0  0  0  0  0  0  0  0  0
    9.0812   -1.1082   24.5359 C   0  0  0  0  0  0  0  0  0  0  0  0
    9.9020   -0.3938   24.4778 H   0  0  0  0  0  0  0  0  0  0  0  0
    5.3943    0.6144   20.1284 C   0  0  0  0  0  0  0  0  0  0  0  0
    4.9858    0.6295   21.1433 H   0  0  0  0  0  0  0  0  0  0  0  0
    4.7835    1.3040   19.0807 C   0  0  0  0  0  0  0  0  0  0  0  0
    3.8678    1.8557   19.2334 H   0  0  0  0  0  0  0  0  0  0  0  0
  1  2  1  0
  2  3  2  0
  3  4  1  0
  4  5  1  0
  4  6  2  0
  6  7  1  0
  7  8  1  0
  8  9  2  0
  9 10  1  0
 10 11  2  0
 11 12  1  0
 12 13  1  0
 13 14  1  0
 14 15  1  0
 14 16  1  0
 14 17  1  0
 17 18  2  0
 18 19  1  0
 18 20  1  0
 20 21  1  0
 20 22  2  0
 22 23  1  0
 22 24  1  0
 24 25  1  0
 24 26  2  0
 26 27  1  0
  6 28  1  0
 28 29  1  0
 28 30  2  0
 30 31  1  0
 30  2  1  0
 12  8  1  0
 26 17  1  0
M  END
>  <plip>  (1) 
-0.03571428571428571

>  <filename>  (1) 
[H][c]1[n][c]([H])[c]([S][c]2[n][n][n][n]2[S][C]([H])([H])[c]2[c]([H])[c]([H])[c]([H])[c]([H])[c]2[H])[c]([H])[c]1[H]

$$$$
