
     RDKit          3D

 20 21  0  0  0  0  0  0  0  0999 V2000
    6.5926    0.0736   22.6659 H   0  0  0  0  0  0  0  0  0  0  0  0
    7.2721   -0.6164   22.1408 C   0  0  0  0  0  0  0  0  0  0  0  0
    7.4364   -0.7632   20.8885 N   0  0  0  0  0  0  0  0  0  0  0  0
    6.6804   -0.0014   19.9346 C   0  0  0  0  0  0  0  0  0  0  0  0
    7.1758    0.0638   18.6066 C   0  0  0  0  0  0  0  0  0  0  0  0
    8.1179   -0.4325   18.3967 H   0  0  0  0  0  0  0  0  0  0  0  0
    6.5692    0.6773   17.5836 N   0  0  0  0  0  0  0  0  0  0  0  0
    5.3991    1.2937   17.8431 C   0  0  0  0  0  0  0  0  0  0  0  0
    4.9110    1.7792   16.9980 H   0  0  0  0  0  0  0  0  0  0  0  0
    4.8118    1.3062   19.1121 C   0  0  0  0  0  0  0  0  0  0  0  0
    3.8764    1.8405   19.2669 H   0  0  0  0  0  0  0  0  0  0  0  0
    5.4569    0.6461   20.1766 C   0  0  0  0  0  0  0  0  0  0  0  0
    4.9997    0.6260   21.1666 H   0  0  0  0  0  0  0  0  0  0  0  0
    8.0394   -1.3934   23.0302 N   0  0  0  0  0  0  0  0  0  0  0  0
    7.9527   -1.3154   24.3906 N   0  0  0  0  0  0  0  0  0  0  0  0
    8.8437   -2.2081   24.7766 C   0  0  0  0  0  0  0  0  0  0  0  0
    9.0479   -2.4182   25.8170 H   0  0  0  0  0  0  0  0  0  0  0  0
    9.4921   -2.8515   23.7625 N   0  0  0  0  0  0  0  0  0  0  0  0
    8.9734   -2.3230   22.6859 C   0  0  0  0  0  0  0  0  0  0  0  0
    9.2209   -2.5655   21.6632 H   0  0  0  0  0  0  0  0  0  0  0  0
  1  2  1  0
  2  3  2  3
  3  4  1  0
  4  5  2  0
  5  6  1  0
  5  7  1  0
  7  8  2  0
  8  9  1  0
  8 10  1  0
 10 11  1  0
 10 12  2  0
 12 13  1  0
  2 14  1  0
 14 15  1  0
 15 16  2  0
 16 17  1  0
 16 18  1  0
 18 19  2  0
 19 20  1  0
 12  4  1  0
 19 14  1  0
M  END
>  <plip>  (1) 
-0.03571428571428571

>  <filename>  (1) 
[H][C](=[N][c]1[c]([H])[n][c]([H])[c]([H])[c]1[H])[n]1[n][c]([H])[n][c]1[H]

$$$$
