
     RDKit          3D

 25 26  0  0  0  0  0  0  0  0999 V2000
    4.9204    1.7811   17.0037 H   0  0  0  0  0  0  0  0  0  0  0  0
    5.4069    1.2876   17.8441 C   0  0  0  0  0  0  0  0  0  0  0  0
    6.5698    0.6721   17.5784 N   0  0  0  0  0  0  0  0  0  0  0  0
    7.1893    0.0539   18.5886 C   0  0  0  0  0  0  0  0  0  0  0  0
    8.1334   -0.4317   18.3664 H   0  0  0  0  0  0  0  0  0  0  0  0
    6.6896   -0.0075   19.9031 C   0  0  0  0  0  0  0  0  0  0  0  0
    7.3319   -0.6777   20.9919 N   0  0  0  0  0  0  0  0  0  0  0  0
    8.4161   -1.2309   20.6997 N   0  0  0  0  0  0  0  0  0  0  0  0
    9.0472   -1.9160   21.8588 C   0  0  1  0  0  0  0  0  0  0  0  0
    9.9720   -2.3355   21.4638 H   0  0  0  0  0  0  0  0  0  0  0  0
    9.4049   -1.0188   23.0619 C   0  0  0  0  0  0  0  0  0  0  0  0
    8.6326   -0.2502   23.1641 H   0  0  0  0  0  0  0  0  0  0  0  0
   10.3559   -0.4989   22.9117 H   0  0  0  0  0  0  0  0  0  0  0  0
    9.4537   -1.8852   24.2426 N   0  0  0  0  0  0  0  0  0  0  0  0
   10.4051   -2.1126   24.4964 H   0  0  0  0  0  0  0  0  0  0  0  0
    8.6889   -3.1153   23.9728 C   0  0  0  0  0  0  0  0  0  0  0  0
    9.3196   -3.9953   24.1665 H   0  0  0  0  0  0  0  0  0  0  0  0
    7.8275   -3.1978   24.6526 H   0  0  0  0  0  0  0  0  0  0  0  0
    8.2286   -3.0529   22.5015 C   0  0  0  0  0  0  0  0  0  0  0  0
    7.1703   -2.7964   22.4405 H   0  0  0  0  0  0  0  0  0  0  0  0
    8.3634   -3.9996   21.9750 H   0  0  0  0  0  0  0  0  0  0  0  0
    5.4686    0.6325   20.1709 C   0  0  0  0  0  0  0  0  0  0  0  0
    5.0486    0.6068   21.1774 H   0  0  0  0  0  0  0  0  0  0  0  0
    4.8258    1.2938   19.1203 C   0  0  0  0  0  0  0  0  0  0  0  0
    3.8934    1.8269   19.2689 H   0  0  0  0  0  0  0  0  0  0  0  0
  1  2  1  0
  2  3  2  0
  3  4  1  0
  4  5  1  0
  4  6  2  0
  6  7  1  0
  7  8  2  3
  8  9  1  0
  9 10  1  6
  9 11  1  0
 11 12  1  0
 11 13  1  0
 11 14  1  0
 14 15  1  0
 14 16  1  0
 16 17  1  0
 16 18  1  0
 16 19  1  0
 19 20  1  0
 19 21  1  0
  6 22  1  0
 22 23  1  0
 22 24  2  0
 24 25  1  0
 24  2  1  0
 19  9  1  0
M  END
>  <plip>  (1) 
-0.06896551724137931

>  <filename>  (1) 
[H][c]1[n][c]([H])[c]([N]=[N][C@@]2([H])[C]([H])([H])[N]([H])[C]([H])([H])[C]2([H])[H])[c]([H])[c]1[H]

$$$$
