
     RDKit          3D

 41 43  0  0  0  0  0  0  0  0999 V2000
    8.4102   -0.5160   23.1924 C   0  0  0  0  0  0  0  0  0  0  0  0
    7.9905    0.1234   21.8965 N   0  0  0  0  0  4  0  0  0  0  0  0
    7.3243   -0.8357   20.9409 C   0  0  0  0  0  0  0  0  0  0  0  0
    6.5934   -0.0525   19.8784 C   0  0  0  0  0  0  0  0  0  0  0  0
    5.4045    0.6495   20.1324 C   0  0  0  0  0  0  0  0  0  0  0  0
    4.7903    1.3280   19.0761 C   0  0  0  0  0  0  0  0  0  0  0  0
    5.4052    1.3187   17.8197 C   0  0  0  0  0  0  0  0  0  0  0  0
    6.5603    0.6873   17.5671 N   0  0  0  0  0  0  0  0  0  0  0  0
    7.1355    0.0394   18.5869 C   0  0  0  0  0  0  0  0  0  0  0  0
    8.0976   -0.4313   18.3745 H   0  0  0  0  0  0  0  0  0  0  0  0
    4.9543    1.8445   16.9808 H   0  0  0  0  0  0  0  0  0  0  0  0
    3.8689    1.8852   19.2122 H   0  0  0  0  0  0  0  0  0  0  0  0
    4.9728    0.6883   21.1373 H   0  0  0  0  0  0  0  0  0  0  0  0
    6.6426   -1.4705   21.5182 H   0  0  0  0  0  0  0  0  0  0  0  0
    8.0838   -1.4931   20.4934 H   0  0  0  0  0  0  0  0  0  0  0  0
    9.1614    0.9072   21.2617 C   0  0  0  0  0  0  0  0  0  0  0  0
    9.5846    2.0723   22.1081 C   0  0  0  0  0  0  0  0  0  0  0  0
    8.8493    3.1412   22.3004 N   0  0  0  0  0  0  0  0  0  0  0  0
    9.6419    3.9641   23.0925 C   0  0  0  0  0  0  0  0  0  0  0  0
    9.4310    5.2613   23.5996 C   0  0  0  0  0  0  0  0  0  0  0  0
   10.4310    5.8111   24.4146 C   0  0  0  0  0  0  0  0  0  0  0  0
   10.2590    7.2242   25.0073 C   0  0  0  0  0  0  0  0  0  0  0  0
    9.2435    7.8921   24.6945 O   0  0  0  0  0  0  0  0  0  0  0  0
   11.1569    7.6706   25.7685 O   0  0  0  0  0  1  0  0  0  0  0  0
   11.6630    5.1525   24.6712 C   0  0  0  0  0  0  0  0  0  0  0  0
   11.9143    3.9220   24.0833 C   0  0  0  0  0  0  0  0  0  0  0  0
   10.8699    3.3268   23.3675 C   0  0  0  0  0  0  0  0  0  0  0  0
   10.7966    2.1005   22.7527 N   0  0  0  0  0  0  0  0  0  0  0  0
   11.7685    1.0357   22.8759 C   0  0  0  0  0  0  0  0  0  0  0  0
   11.2690    0.0638   22.9554 H   0  0  0  0  0  0  0  0  0  0  0  0
   12.4553    1.0320   22.0229 H   0  0  0  0  0  0  0  0  0  0  0  0
   12.3406    1.1863   23.7939 H   0  0  0  0  0  0  0  0  0  0  0  0
   12.8974    3.4672   24.0713 H   0  0  0  0  0  0  0  0  0  0  0  0
   12.4277    5.5858   25.3191 H   0  0  0  0  0  0  0  0  0  0  0  0
    8.5257    5.7937   23.3044 H   0  0  0  0  0  0  0  0  0  0  0  0
    8.8101    1.2968   20.3069 H   0  0  0  0  0  0  0  0  0  0  0  0
    9.9981    0.2313   21.0643 H   0  0  0  0  0  0  0  0  0  0  0  0
    7.2711    0.8717   22.0839 H   0  0  0  0  0  0  0  0  0  0  0  0
    9.1634   -1.3015   23.0255 H   0  0  0  0  0  0  0  0  0  0  0  0
    8.8366    0.2298   23.8709 H   0  0  0  0  0  0  0  0  0  0  0  0
    7.5531   -0.9750   23.6995 H   0  0  0  0  0  0  0  0  0  0  0  0
  1  2  1  0
  2  3  1  0
  3  4  1  0
  4  5  2  0
  5  6  1  0
  6  7  2  0
  7  8  1  0
  8  9  2  0
  9 10  1  0
  7 11  1  0
  6 12  1  0
  5 13  1  0
  3 14  1  0
  3 15  1  0
  2 16  1  0
 16 17  1  0
 17 18  2  0
 18 19  1  0
 19 20  2  0
 20 21  1  0
 21 22  1  0
 22 23  2  0
 22 24  1  0
 21 25  2  0
 25 26  1  0
 26 27  2  0
 27 28  1  0
 28 29  1  0
 29 30  1  0
 29 31  1  0
 29 32  1  0
 26 33  1  0
 25 34  1  0
 20 35  1  0
 16 36  1  0
 16 37  1  0
  2 38  1  0
  1 39  1  0
  1 40  1  0
  1 41  1  0
  9  4  1  0
 28 17  1  0
 27 19  1  0
M  CHG  2   2   1  24  -1
M  END
>  <plip>  (1) 
-0.10714285714285714

>  <filename>  (1) 
[H][c]1[n][c]([H])[c]([C]([H])([H])[N+]([H])([C]([H])([H])[H])[C]([H])([H])[c]2[n][c]3[c]([H])[c]([C](=[O])[O-])[c]([H])[c]([H])[c]3[n]2[C]([H])([H])[H])[c]([H])[c]1[H]

$$$$
