
     RDKit          3D

 37 38  0  0  0  0  0  0  0  0999 V2000
    5.8819    2.2042   24.6563 N   0  0  0  0  0  4  0  0  0  0  0  0
    7.2420    1.8142   24.1043 C   0  0  1  0  0  0  0  0  0  0  0  0
    7.9296    1.0560   25.2470 C   0  0  0  0  0  0  0  0  0  0  0  0
    9.3810    0.9902   24.8801 C   0  0  0  0  0  0  0  0  0  0  0  0
    9.8993   -0.1483   24.2488 C   0  0  0  0  0  0  0  0  0  0  0  0
   11.2016   -0.1267   23.7373 C   0  0  0  0  0  0  0  0  0  0  0  0
   12.0027    1.0098   23.8634 C   0  0  0  0  0  0  0  0  0  0  0  0
   13.7587    1.0482   23.1040 Br  0  0  0  0  0  0  0  0  0  0  0  0
   11.4795    2.1429   24.4921 C   0  0  0  0  0  0  0  0  0  0  0  0
   10.1776    2.1321   25.0059 C   0  0  0  0  0  0  0  0  0  0  0  0
    9.7438    3.0253   25.4484 H   0  0  0  0  0  0  0  0  0  0  0  0
   12.0687    3.0483   24.5309 H   0  0  0  0  0  0  0  0  0  0  0  0
   11.5932   -0.9777   23.1908 H   0  0  0  0  0  0  0  0  0  0  0  0
    9.2965   -1.0455   24.1197 H   0  0  0  0  0  0  0  0  0  0  0  0
    7.5062    0.0491   25.3536 H   0  0  0  0  0  0  0  0  0  0  0  0
    7.8150    1.5796   26.2042 H   0  0  0  0  0  0  0  0  0  0  0  0
    7.4933    1.0148   22.7582 C   0  0  0  0  0  0  0  0  0  0  0  0
    8.1593    1.5412   21.8774 O   0  0  0  0  0  0  0  0  0  0  0  0
    7.2160   -0.3189   22.6055 N   0  0  0  0  0  0  0  0  0  0  0  0
    7.6149   -0.8964   21.0785 S   0  0  0  0  0  0  0  0  0  0  0  0
    7.2472   -2.3109   20.9884 O   0  0  0  0  0  0  0  0  0  0  0  0
    9.0363   -0.6563   20.8092 O   0  0  0  0  0  0  0  0  0  0  0  0
    6.6402    0.0568   19.9532 C   0  0  0  0  0  0  0  0  0  0  0  0
    5.4284    0.6969   20.2063 C   0  0  0  0  0  0  0  0  0  0  0  0
    4.8609    1.3373   19.1169 C   0  0  0  0  0  0  0  0  0  0  0  0
    5.4935    1.3045   17.8734 C   0  0  0  0  0  0  0  0  0  0  0  0
    6.6594    0.6730   17.6756 N   0  0  0  0  0  0  0  0  0  0  0  0
    7.2300    0.0664   18.7091 C   0  0  0  0  0  0  0  0  0  0  0  0
    8.1812   -0.4339   18.5406 H   0  0  0  0  0  0  0  0  0  0  0  0
    5.0284    1.8036   17.0293 H   0  0  0  0  0  0  0  0  0  0  0  0
    3.9282    1.8765   19.2071 H   0  0  0  0  0  0  0  0  0  0  0  0
    4.9241    0.7159   21.1756 H   0  0  0  0  0  0  0  0  0  0  0  0
    6.4168   -0.7278   23.0540 H   0  0  0  0  0  0  0  0  0  0  0  0
    7.8088    2.7399   23.9234 H   0  0  0  0  0  0  0  0  0  0  0  0
    5.3144    1.3797   24.8717 H   0  0  0  0  0  0  0  0  0  0  0  0
    5.3818    2.8016   23.9917 H   0  0  0  0  0  0  0  0  0  0  0  0
    6.0163    2.7331   25.5264 H   0  0  0  0  0  0  0  0  0  0  0  0
  1  2  1  0
  2  3  1  0
  3  4  1  0
  4  5  2  0
  5  6  1  0
  6  7  2  0
  7  8  1  0
  7  9  1  0
  9 10  2  0
 10 11  1  0
  9 12  1  0
  6 13  1  0
  5 14  1  0
  3 15  1  0
  3 16  1  0
  2 17  1  0
 17 18  2  0
 17 19  1  0
 19 20  1  0
 20 21  2  0
 20 22  2  0
 20 23  1  0
 23 24  2  0
 24 25  1  0
 25 26  2  0
 26 27  1  0
 27 28  2  0
 28 29  1  0
 26 30  1  0
 25 31  1  0
 24 32  1  0
 19 33  1  0
  2 34  1  6
  1 35  1  0
  1 36  1  0
  1 37  1  0
 10  4  1  0
 28 23  1  0
M  CHG  1   1   1
M  END
>  <plip>  (1) 
-0.13333333333333333

>  <filename>  (1) 
[H][c]1[n][c]([H])[c]([S](=[O])(=[O])[N]([H])[C](=[O])[C@]([H])([C]([H])([H])[c]2[c]([H])[c]([H])[c]([Br])[c]([H])[c]2[H])[N+]([H])([H])[H])[c]([H])[c]1[H]

$$$$
