
     RDKit          3D

 52 53  0  0  0  0  0  0  0  0999 V2000
    6.2803    4.7421   22.3396 C   0  0  0  0  0  0  0  0  0  0  0  0
    6.9575    4.7508   23.7174 C   0  0  0  0  0  0  0  0  0  0  0  0
    8.4593    4.5367   23.6300 C   0  0  0  0  0  0  0  0  0  0  0  0
    9.3375    5.6201   23.7900 C   0  0  0  0  0  0  0  0  0  0  0  0
   10.7291    5.4398   23.6997 C   0  0  0  0  0  0  0  0  0  0  0  0
   11.6700    6.5029   23.9457 C   0  0  0  0  0  0  0  0  0  0  0  0
   12.4897    7.2894   24.1752 N   0  0  0  0  0  0  0  0  0  0  0  0
   11.2530    4.1728   23.3874 C   0  0  0  0  0  0  0  0  0  0  0  0
   10.4031    3.0969   23.1879 C   0  0  0  0  0  0  0  0  0  0  0  0
    9.0177    3.2766   23.3077 C   0  0  0  0  0  0  0  0  0  0  0  0
    8.1858    2.1638   23.0710 N   0  0  0  0  0  0  0  0  0  0  0  0
    8.4193    1.2521   22.0731 C   0  0  0  0  0  0  0  0  0  0  0  0
    9.2284    1.3789   21.1765 O   0  0  0  0  0  0  0  0  0  0  0  0
    7.6222    0.1381   22.2309 N   0  0  0  0  0  0  0  0  0  0  0  0
    7.4076   -0.6649   21.0351 C   0  0  0  0  0  0  0  0  0  0  0  0
    6.7323   -1.9872   21.3774 C   0  0  0  0  0  0  0  0  0  0  0  0
    7.5726   -2.9072   22.2578 C   0  0  0  0  0  0  0  0  0  0  0  0
    6.7637   -4.1127   22.7032 N   0  0  0  0  0  4  0  0  0  0  0  0
    7.4391   -4.8266   23.8217 C   0  0  0  0  0  0  0  0  0  0  0  0
    6.8413   -5.6822   24.1493 H   0  0  0  0  0  0  0  0  0  0  0  0
    7.6044   -4.1512   24.6663 H   0  0  0  0  0  0  0  0  0  0  0  0
    8.4162   -5.1952   23.4832 H   0  0  0  0  0  0  0  0  0  0  0  0
    6.4892   -5.0894   21.5932 C   0  0  0  0  0  0  0  0  0  0  0  0
    7.4326   -5.3870   21.1191 H   0  0  0  0  0  0  0  0  0  0  0  0
    5.8367   -4.6607   20.8300 H   0  0  0  0  0  0  0  0  0  0  0  0
    6.0157   -5.9896   21.9989 H   0  0  0  0  0  0  0  0  0  0  0  0
    5.8559   -3.7183   23.0427 H   0  0  0  0  0  0  0  0  0  0  0  0
    7.9283   -2.3871   23.1559 H   0  0  0  0  0  0  0  0  0  0  0  0
    8.4650   -3.2588   21.7175 H   0  0  0  0  0  0  0  0  0  0  0  0
    5.7685   -1.7878   21.8652 H   0  0  0  0  0  0  0  0  0  0  0  0
    6.5079   -2.4925   20.4325 H   0  0  0  0  0  0  0  0  0  0  0  0
    6.6425    0.0985   19.9682 C   0  0  0  0  0  0  0  0  0  0  0  0
    5.4128    0.7468   20.1714 C   0  0  0  0  0  0  0  0  0  0  0  0
    4.7914    1.3473   19.0723 C   0  0  0  0  0  0  0  0  0  0  0  0
    5.4168    1.2965   17.8216 C   0  0  0  0  0  0  0  0  0  0  0  0
    6.5903    0.6851   17.6112 N   0  0  0  0  0  0  0  0  0  0  0  0
    7.1735    0.1189   18.6747 C   0  0  0  0  0  0  0  0  0  0  0  0
    8.1293   -0.3718   18.4848 H   0  0  0  0  0  0  0  0  0  0  0  0
    4.9563    1.7607   16.9501 H   0  0  0  0  0  0  0  0  0  0  0  0
    3.8424    1.8633   19.1671 H   0  0  0  0  0  0  0  0  0  0  0  0
    4.9370    0.7925   21.1561 H   0  0  0  0  0  0  0  0  0  0  0  0
    8.4068   -0.8758   20.6319 H   0  0  0  0  0  0  0  0  0  0  0  0
    6.7816    0.3782   22.7231 H   0  0  0  0  0  0  0  0  0  0  0  0
    7.5148    1.9102   23.7657 H   0  0  0  0  0  0  0  0  0  0  0  0
   10.7893    2.1179   22.9127 H   0  0  0  0  0  0  0  0  0  0  0  0
   12.3254    4.0528   23.2833 H   0  0  0  0  0  0  0  0  0  0  0  0
    8.9383    6.6175   23.9821 H   0  0  0  0  0  0  0  0  0  0  0  0
    6.4935    3.9777   24.3478 H   0  0  0  0  0  0  0  0  0  0  0  0
    6.7515    5.7049   24.2232 H   0  0  0  0  0  0  0  0  0  0  0  0
    6.6704    5.5472   21.7076 H   0  0  0  0  0  0  0  0  0  0  0  0
    6.4627    3.7948   21.8194 H   0  0  0  0  0  0  0  0  0  0  0  0
    5.1978    4.8821   22.4357 H   0  0  0  0  0  0  0  0  0  0  0  0
  1  2  1  0
  2  3  1  0
  3  4  2  0
  4  5  1  0
  5  6  1  0
  6  7  3  0
  5  8  2  0
  8  9  1  0
  9 10  2  0
 10 11  1  0
 11 12  1  0
 12 13  2  0
 12 14  1  0
 14 15  1  0
 15 16  1  0
 16 17  1  0
 17 18  1  0
 18 19  1  0
 19 20  1  0
 19 21  1  0
 19 22  1  0
 18 23  1  0
 23 24  1  0
 23 25  1  0
 23 26  1  0
 18 27  1  0
 17 28  1  0
 17 29  1  0
 16 30  1  0
 16 31  1  0
 15 32  1  0
 32 33  2  0
 33 34  1  0
 34 35  2  0
 35 36  1  0
 36 37  2  0
 37 38  1  0
 35 39  1  0
 34 40  1  0
 33 41  1  0
 15 42  1  0
 14 43  1  0
 11 44  1  0
  9 45  1  0
  8 46  1  0
  4 47  1  0
  2 48  1  0
  2 49  1  0
  1 50  1  0
  1 51  1  0
  1 52  1  0
 10  3  1  0
 37 32  1  0
M  CHG  1  18   1
M  END
>  <plip>  (1) 
-0.10344827586206896

>  <filename>  (1) 
[H][c]1[n][c]([H])[c]([C]([H])([N]([H])[C](=[O])[N]([H])[c]2[c]([H])[c]([H])[c]([C]#[N])[c]([H])[c]2[C]([H])([H])[C]([H])([H])[H])[C]([H])([H])[C]([H])([H])[N+]([H])([C]([H])([H])[H])[C]([H])([H])[H])[c]([H])[c]1[H]

$$$$
