
     RDKit          3D

 32 34  0  0  0  0  0  0  0  0999 V2000
    7.1456   -3.0273   26.4222 C   0  0  0  0  0  0  0  0  0  0  0  0
    7.9013   -2.8974   25.1012 C   0  0  0  0  0  0  0  0  0  0  0  0
    7.1369   -2.0428   24.2042 N   0  0  0  0  0  0  0  0  0  0  0  0
    7.5612   -1.6442   22.9800 C   0  0  0  0  0  0  0  0  0  0  0  0
    6.7220   -1.1026   22.1576 N   0  0  0  0  0  0  0  0  0  0  0  0
    7.3724   -0.7299   21.0069 C   0  0  0  0  0  0  0  0  0  0  0  0
    6.6123   -0.0375   19.9623 C   0  0  0  0  0  0  0  0  0  0  0  0
    5.3944    0.6262   20.1862 C   0  0  0  0  0  0  0  0  0  0  0  0
    4.8083    1.2931   19.1137 C   0  0  0  0  0  0  0  0  0  0  0  0
    5.4396    1.2718   17.8631 C   0  0  0  0  0  0  0  0  0  0  0  0
    6.5896    0.6256   17.6353 N   0  0  0  0  0  0  0  0  0  0  0  0
    7.1490   -0.0033   18.6681 C   0  0  0  0  0  0  0  0  0  0  0  0
    8.0849   -0.5124   18.4537 H   0  0  0  0  0  0  0  0  0  0  0  0
    5.0040    1.7915   17.0123 H   0  0  0  0  0  0  0  0  0  0  0  0
    3.8843    1.8418   19.2312 H   0  0  0  0  0  0  0  0  0  0  0  0
    4.9407    0.6360   21.1808 H   0  0  0  0  0  0  0  0  0  0  0  0
    8.7037   -1.0080   20.9530 C   0  0  0  0  0  0  0  0  0  0  0  0
    9.2034   -1.7857   22.4202 S   0  0  0  0  0  0  0  0  0  0  0  0
    9.4195   -0.7405   20.1945 H   0  0  0  0  0  0  0  0  0  0  0  0
    6.1267   -2.0687   24.1560 H   0  0  0  0  0  0  0  0  0  0  0  0
    8.3507   -4.2530   24.5698 C   0  0  0  0  0  0  0  0  0  0  0  0
    9.5004   -4.9581   24.7798 C   0  0  0  0  0  0  0  0  0  0  0  0
    9.2608   -6.2594   24.2402 C   0  0  0  0  0  0  0  0  0  0  0  0
    8.0258   -6.2309   23.6855 C   0  0  0  0  0  0  0  0  0  0  0  0
    7.4521   -5.0276   23.9019 O   0  0  0  0  0  0  0  0  0  0  0  0
    7.4160   -6.9468   23.1498 H   0  0  0  0  0  0  0  0  0  0  0  0
    9.9487   -7.0860   24.2921 H   0  0  0  0  0  0  0  0  0  0  0  0
   10.4271   -4.6183   25.2377 H   0  0  0  0  0  0  0  0  0  0  0  0
    8.8390   -2.3771   25.3156 H   0  0  0  0  0  0  0  0  0  0  0  0
    7.7655   -3.5218   27.1752 H   0  0  0  0  0  0  0  0  0  0  0  0
    6.2338   -3.6177   26.3001 H   0  0  0  0  0  0  0  0  0  0  0  0
    6.8866   -2.0348   26.8007 H   0  0  0  0  0  0  0  0  0  0  0  0
  1  2  1  0
  2  3  1  0
  3  4  1  0
  4  5  2  0
  5  6  1  0
  6  7  1  0
  7  8  2  0
  8  9  1  0
  9 10  2  0
 10 11  1  0
 11 12  2  0
 12 13  1  0
 10 14  1  0
  9 15  1  0
  8 16  1  0
  6 17  2  0
 17 18  1  0
 17 19  1  0
  3 20  1  0
  2 21  1  0
 21 22  2  0
 22 23  1  0
 23 24  2  0
 24 25  1  0
 24 26  1  0
 23 27  1  0
 22 28  1  0
  2 29  1  0
  1 30  1  0
  1 31  1  0
  1 32  1  0
 18  4  1  0
 25 21  1  0
 12  7  1  0
M  END
>  <plip>  (1) 
-0.10714285714285714

>  <filename>  (1) 
[H][c]1[n][c]([H])[c](-[c]2[n][c]([N]([H])[C]([H])([c]3[o][c]([H])[c]([H])[c]3[H])[C]([H])([H])[H])[s][c]2[H])[c]([H])[c]1[H]

$$$$
