
     RDKit          3D

 35 36  0  0  0  0  0  0  0  0999 V2000
    7.8145    0.2672   22.0944 C   0  0  0  0  0  0  0  0  0  0  0  0
    7.4647   -0.6653   20.9449 C   0  0  1  0  0  0  0  0  0  0  0  0
    6.6546   -1.7439   21.4430 N   0  0  0  0  0  0  0  0  0  0  0  0
    7.1862   -2.7863   22.1971 C   0  0  0  0  0  0  0  0  0  0  0  0
    8.4092   -2.7610   22.3761 O   0  0  0  0  0  0  0  0  0  0  0  0
    6.3362   -3.9193   22.7274 C   0  0  0  0  0  0  0  0  0  0  0  0
    5.1275   -3.9826   22.4596 O   0  0  0  0  0  0  0  0  0  0  0  0
    6.8578   -4.9295   23.5370 N   0  0  0  0  0  0  0  0  0  0  0  0
    6.0445   -5.9188   24.0610 C   0  0  0  0  0  0  0  0  0  0  0  0
    6.0882   -6.2246   25.4200 C   0  0  0  0  0  0  0  0  0  0  0  0
    7.4208   -5.4434   26.5588 Br  0  0  0  0  0  0  0  0  0  0  0  0
    5.1485   -7.1264   25.9373 C   0  0  0  0  0  0  0  0  0  0  0  0
    5.1203   -7.4222   27.2557 F   0  0  0  0  0  0  0  0  0  0  0  0
    4.2151   -7.7432   25.0883 C   0  0  0  0  0  0  0  0  0  0  0  0
    4.2270   -7.4853   23.7120 C   0  0  0  0  0  0  0  0  0  0  0  0
    5.1427   -6.5604   23.2156 C   0  0  0  0  0  0  0  0  0  0  0  0
    5.1485   -6.2876   22.1681 H   0  0  0  0  0  0  0  0  0  0  0  0
    3.4916   -7.9120   23.0289 H   0  0  0  0  0  0  0  0  0  0  0  0
    3.4738   -8.4106   25.5192 H   0  0  0  0  0  0  0  0  0  0  0  0
    7.7484   -4.7670   24.0004 H   0  0  0  0  0  0  0  0  0  0  0  0
    5.6439   -1.6326   21.3892 H   0  0  0  0  0  0  0  0  0  0  0  0
    6.6724    0.0237   19.8827 C   0  0  0  0  0  0  0  0  0  0  0  0
    5.4533    0.6550   20.1498 C   0  0  0  0  0  0  0  0  0  0  0  0
    4.8214    1.2990   19.0907 C   0  0  0  0  0  0  0  0  0  0  0  0
    5.4070    1.2887   17.8196 C   0  0  0  0  0  0  0  0  0  0  0  0
    6.5625    0.6513   17.5600 N   0  0  0  0  0  0  0  0  0  0  0  0
    7.1773    0.0312   18.5791 C   0  0  0  0  0  0  0  0  0  0  0  0
    8.1187   -0.4772   18.3849 H   0  0  0  0  0  0  0  0  0  0  0  0
    4.9105    1.8141   17.0113 H   0  0  0  0  0  0  0  0  0  0  0  0
    3.8873    1.8235   19.2452 H   0  0  0  0  0  0  0  0  0  0  0  0
    5.0231    0.6476   21.1520 H   0  0  0  0  0  0  0  0  0  0  0  0
    8.3889   -1.0758   20.5159 H   0  0  0  0  0  0  0  0  0  0  0  0
    6.9036    0.6306   22.5829 H   0  0  0  0  0  0  0  0  0  0  0  0
    8.4219   -0.2708   22.8301 H   0  0  0  0  0  0  0  0  0  0  0  0
    8.3841    1.1237   21.7236 H   0  0  0  0  0  0  0  0  0  0  0  0
  1  2  1  0
  2  3  1  0
  3  4  1  0
  4  5  2  0
  4  6  1  0
  6  7  2  0
  6  8  1  0
  8  9  1  0
  9 10  2  0
 10 11  1  0
 10 12  1  0
 12 13  1  0
 12 14  2  0
 14 15  1  0
 15 16  2  0
 16 17  1  0
 15 18  1  0
 14 19  1  0
  8 20  1  0
  3 21  1  0
  2 22  1  0
 22 23  2  0
 23 24  1  0
 24 25  2  0
 25 26  1  0
 26 27  2  0
 27 28  1  0
 25 29  1  0
 24 30  1  0
 23 31  1  0
  2 32  1  6
  1 33  1  0
  1 34  1  0
  1 35  1  0
 16  9  1  0
 27 22  1  0
M  END
>  <plip>  (1) 
-0.13793103448275862

>  <filename>  (1) 
[H][c]1[n][c]([H])[c]([C@]([H])([N]([H])[C](=[O])[C](=[O])[N]([H])[c]2[c]([H])[c]([H])[c]([H])[c]([F])[c]2[Br])[C]([H])([H])[H])[c]([H])[c]1[H]

$$$$
