
     RDKit          3D

 33 35  0  0  0  0  0  0  0  0999 V2000
    4.0960    4.0556   26.4719 H   0  0  0  0  0  0  0  0  0  0  0  0
    4.1216    3.8998   25.3956 C   0  0  0  0  0  0  0  0  0  0  0  0
    5.2218    3.2951   24.9334 N   0  0  0  0  0  0  0  0  0  0  0  0
    5.3076    3.0786   23.6086 C   0  0  0  0  0  0  0  0  0  0  0  0
    6.5105    2.4135   23.1154 C   0  0  0  0  0  0  0  0  0  0  0  0
    7.4816    1.8615   22.6494 C   0  0  0  0  0  0  0  0  0  0  0  0
    8.5865    1.2384   22.1255 N   0  0  0  0  0  0  0  0  0  0  0  0
    9.8905    1.7081   22.2371 C   0  0  0  0  0  0  0  0  0  0  0  0
   10.0822    2.6079   22.8013 H   0  0  0  0  0  0  0  0  0  0  0  0
   10.7271    0.8500   21.5795 C   0  0  0  0  0  0  0  0  0  0  0  0
   11.8044    0.9226   21.4906 H   0  0  0  0  0  0  0  0  0  0  0  0
    9.9171   -0.1952   21.0445 C   0  0  0  0  0  0  0  0  0  0  0  0
   10.2345   -1.0373   20.4401 H   0  0  0  0  0  0  0  0  0  0  0  0
    8.6185    0.0469   21.3990 C   0  0  0  0  0  0  0  0  0  0  0  0
    7.3847   -0.7044   21.0082 C   0  0  0  0  0  0  0  0  0  0  0  0
    6.7339   -0.8642   21.8784 H   0  0  0  0  0  0  0  0  0  0  0  0
    7.6998   -1.7009   20.6675 H   0  0  0  0  0  0  0  0  0  0  0  0
    6.6240   -0.0025   19.8982 C   0  0  0  0  0  0  0  0  0  0  0  0
    7.1495    0.0637   18.5953 C   0  0  0  0  0  0  0  0  0  0  0  0
    8.0984   -0.4181   18.3611 H   0  0  0  0  0  0  0  0  0  0  0  0
    6.5522    0.6862   17.5720 N   0  0  0  0  0  0  0  0  0  0  0  0
    5.3905    1.3041   17.8291 C   0  0  0  0  0  0  0  0  0  0  0  0
    4.9178    1.7948   16.9824 H   0  0  0  0  0  0  0  0  0  0  0  0
    4.7927    1.3257   19.0930 C   0  0  0  0  0  0  0  0  0  0  0  0
    3.8603    1.8562   19.2344 H   0  0  0  0  0  0  0  0  0  0  0  0
    5.4182    0.6541   20.1441 C   0  0  0  0  0  0  0  0  0  0  0  0
    5.0037    0.6280   21.1540 H   0  0  0  0  0  0  0  0  0  0  0  0
    4.2766    3.4648   22.7295 C   0  0  0  0  0  0  0  0  0  0  0  0
    4.4038    3.2728   21.6742 H   0  0  0  0  0  0  0  0  0  0  0  0
    3.1280    4.0978   23.2191 C   0  0  0  0  0  0  0  0  0  0  0  0
    2.3190    4.4185   22.5554 H   0  0  0  0  0  0  0  0  0  0  0  0
    3.0519    4.3190   24.5950 C   0  0  0  0  0  0  0  0  0  0  0  0
    2.1963    4.8065   25.0558 H   0  0  0  0  0  0  0  0  0  0  0  0
  1  2  1  0
  2  3  2  0
  3  4  1  0
  4  5  1  0
  5  6  3  0
  6  7  1  0
  7  8  1  0
  8  9  1  0
  8 10  2  0
 10 11  1  0
 10 12  1  0
 12 13  1  0
 12 14  2  0
 14 15  1  0
 15 16  1  0
 15 17  1  0
 15 18  1  0
 18 19  2  0
 19 20  1  0
 19 21  1  0
 21 22  2  0
 22 23  1  0
 22 24  1  0
 24 25  1  0
 24 26  2  0
 26 27  1  0
  4 28  2  0
 28 29  1  0
 28 30  1  0
 30 31  1  0
 30 32  2  0
 32 33  1  0
 32  2  1  0
 14  7  1  0
 26 18  1  0
M  END
>  <plip>  (1) 
-0.07142857142857142

>  <filename>  (1) 
[H][c]1[n][c]([C]#[C][n]2[c]([H])[c]([H])[c]([H])[c]2[C]([H])([H])[c]2[c]([H])[n][c]([H])[c]([H])[c]2[H])[c]([H])[c]([H])[c]1[H]

$$$$
