
     RDKit          3D

 23 24  0  0  0  0  0  0  0  0999 V2000
    4.9244    1.7866   16.9899 H   0  0  0  0  0  0  0  0  0  0  0  0
    5.4018    1.2908   17.8330 C   0  0  0  0  0  0  0  0  0  0  0  0
    6.5598    0.6677   17.5741 N   0  0  0  0  0  0  0  0  0  0  0  0
    7.1555    0.0435   18.5991 C   0  0  0  0  0  0  0  0  0  0  0  0
    8.1093   -0.4278   18.3685 H   0  0  0  0  0  0  0  0  0  0  0  0
    6.6525   -0.0017   19.9030 C   0  0  0  0  0  0  0  0  0  0  0  0
    7.4151   -0.7268   20.9952 C   0  0  1  0  0  0  0  0  0  0  0  0
    8.3544   -1.1102   20.5766 H   0  0  0  0  0  0  0  0  0  0  0  0
    7.7825    0.2333   22.1292 C   0  0  0  0  0  0  0  0  0  0  0  0
    8.8923    0.9594   22.1145 N   0  0  0  0  0  0  0  0  0  0  0  0
    8.8270    1.7022   23.2260 N   0  0  0  0  0  0  0  0  0  0  0  0
    9.5905    2.3351   23.4050 H   0  0  0  0  0  0  0  0  0  0  0  0
    7.7089    1.4924   23.9597 C   0  0  0  0  0  0  0  0  0  0  0  0
    7.5164    2.0086   24.8945 H   0  0  0  0  0  0  0  0  0  0  0  0
    7.0034    0.5428   23.2677 C   0  0  0  0  0  0  0  0  0  0  0  0
    6.0533    0.1087   23.5269 H   0  0  0  0  0  0  0  0  0  0  0  0
    6.6271   -1.9229   21.3862 N   0  0  0  0  0  0  0  0  0  0  0  0
    5.7607   -1.5956   21.8121 H   0  0  0  0  0  0  0  0  0  0  0  0
    7.1088   -2.3882   22.1528 H   0  0  0  0  0  0  0  0  0  0  0  0
    5.4379    0.6508   20.1535 C   0  0  0  0  0  0  0  0  0  0  0  0
    5.0033    0.6471   21.1599 H   0  0  0  0  0  0  0  0  0  0  0  0
    4.8060    1.3106   19.1002 C   0  0  0  0  0  0  0  0  0  0  0  0
    3.8768    1.8406   19.2527 H   0  0  0  0  0  0  0  0  0  0  0  0
  1  2  1  0
  2  3  2  0
  3  4  1  0
  4  5  1  0
  4  6  2  0
  6  7  1  0
  7  8  1  6
  7  9  1  0
  9 10  2  0
 10 11  1  0
 11 12  1  0
 11 13  1  0
 13 14  1  0
 13 15  2  0
 15 16  1  0
  7 17  1  0
 17 18  1  0
 17 19  1  0
  6 20  1  0
 20 21  1  0
 20 22  2  0
 22 23  1  0
 22  2  1  0
 15  9  1  0
M  END
>  <plip>  (1) 
-0.10714285714285714

>  <filename>  (1) 
[H][c]1[n][c]([H])[c]([C@@]([H])([c]2[n][n]([H])[c]([H])[c]2[H])[N]([H])[H])[c]([H])[c]1[H]

$$$$
