
     RDKit          3D

 27 28  0  0  0  0  0  0  0  0999 V2000
    9.7486   -2.4308   22.2195 H   0  0  0  0  0  0  0  0  0  0  0  0
    8.8604   -1.8521   22.0080 C   0  0  0  0  0  0  0  0  0  0  0  0
    8.5324   -1.3357   20.7577 N   0  0  0  0  0  0  0  0  0  0  0  0
    7.4123   -0.7180   20.9496 C   0  0  0  0  0  0  0  0  0  0  0  0
    6.6376    0.0033   19.9466 C   0  0  0  0  0  0  0  0  0  0  0  0
    7.1671    0.0423   18.6456 C   0  0  0  0  0  0  0  0  0  0  0  0
    8.1158   -0.4360   18.4129 H   0  0  0  0  0  0  0  0  0  0  0  0
    6.5706    0.6549   17.6203 N   0  0  0  0  0  0  0  0  0  0  0  0
    5.4100    1.2792   17.8584 C   0  0  0  0  0  0  0  0  0  0  0  0
    4.9578    1.7791   17.0028 H   0  0  0  0  0  0  0  0  0  0  0  0
    4.7984    1.3073   19.1171 C   0  0  0  0  0  0  0  0  0  0  0  0
    3.8667    1.8458   19.2385 H   0  0  0  0  0  0  0  0  0  0  0  0
    5.4152    0.6583   20.1853 C   0  0  0  0  0  0  0  0  0  0  0  0
    4.9592    0.6666   21.1750 H   0  0  0  0  0  0  0  0  0  0  0  0
    6.9516   -0.7766   22.2335 O   0  0  0  0  0  0  0  0  0  0  0  0
    7.8876   -1.5003   22.8939 C   0  0  0  0  0  0  0  0  0  0  0  0
    7.6840   -1.6999   24.2233 N   0  0  0  0  0  0  0  0  0  0  0  0
    6.8390   -1.2955   24.6001 H   0  0  0  0  0  0  0  0  0  0  0  0
    8.5954   -2.5649   24.9773 C   0  0  0  0  0  0  0  0  0  0  0  0
    8.4584   -2.4294   26.0582 H   0  0  0  0  0  0  0  0  0  0  0  0
    9.6353   -2.2734   24.7433 H   0  0  0  0  0  0  0  0  0  0  0  0
    8.4528   -4.0709   24.6402 C   0  0  0  0  0  0  0  0  0  0  0  0
    7.4404   -4.3843   24.9296 H   0  0  0  0  0  0  0  0  0  0  0  0
    8.5146   -4.1803   23.5389 H   0  0  0  0  0  0  0  0  0  0  0  0
    9.4125   -4.8864   25.4002 N   0  0  0  0  0  0  0  0  0  0  0  0
   10.3747   -4.7626   25.0908 H   0  0  0  0  0  0  0  0  0  0  0  0
    9.2063   -5.8764   25.2989 H   0  0  0  0  0  0  0  0  0  0  0  0
  1  2  1  0
  2  3  1  0
  3  4  2  0
  4  5  1  0
  5  6  2  0
  6  7  1  0
  6  8  1  0
  8  9  2  0
  9 10  1  0
  9 11  1  0
 11 12  1  0
 11 13  2  0
 13 14  1  0
  4 15  1  0
 15 16  1  0
 16 17  1  0
 17 18  1  0
 17 19  1  0
 19 20  1  0
 19 21  1  0
 19 22  1  0
 22 23  1  0
 22 24  1  0
 22 25  1  0
 25 26  1  0
 25 27  1  0
 16  2  2  0
 13  5  1  0
M  END
>  <plip>  (1) 
-0.07142857142857142

>  <filename>  (1) 
[H][c]1[n][c](-[c]2[c]([H])[n][c]([H])[c]([H])[c]2[H])[o][c]1[N]([H])[C]([H])([H])[C]([H])([H])[N]([H])[H]

$$$$
