
     RDKit          3D

 37 39  0  0  0  0  0  0  0  0999 V2000
    8.7438   -3.2150   22.2034 H   0  0  0  0  0  0  0  0  0  0  0  0
    8.3136   -2.2405   22.0281 C   0  0  0  0  0  0  0  0  0  0  0  0
    7.8961   -1.8662   20.7895 N   0  0  0  0  0  0  0  0  0  0  0  0
    7.3969   -0.6678   20.9818 C   0  0  0  0  0  0  0  0  0  0  0  0
    6.6525    0.0719   19.9651 C   0  0  0  0  0  0  0  0  0  0  0  0
    7.1664    0.0559   18.6628 C   0  0  0  0  0  0  0  0  0  0  0  0
    8.0967   -0.4642   18.4458 H   0  0  0  0  0  0  0  0  0  0  0  0
    6.5727    0.6466   17.6226 N   0  0  0  0  0  0  0  0  0  0  0  0
    5.4131    1.2805   17.8455 C   0  0  0  0  0  0  0  0  0  0  0  0
    4.9686    1.7793   16.9857 H   0  0  0  0  0  0  0  0  0  0  0  0
    4.7863    1.3175   19.0949 C   0  0  0  0  0  0  0  0  0  0  0  0
    3.8480    1.8478   19.2136 H   0  0  0  0  0  0  0  0  0  0  0  0
    5.4136    0.6963   20.1756 C   0  0  0  0  0  0  0  0  0  0  0  0
    4.9284    0.6972   21.1522 H   0  0  0  0  0  0  0  0  0  0  0  0
    7.5688   -0.3044   22.2817 N   0  0  0  0  0  0  0  0  0  0  0  0
    7.3822    1.0353   22.7547 C   0  0  0  0  0  0  0  0  0  0  0  0
    7.2611    1.9575   21.9749 O   0  0  0  0  0  0  0  0  0  0  0  0
    7.3325    1.1449   24.0963 N   0  0  0  0  0  0  0  0  0  0  0  0
    7.5184    0.2894   24.5927 H   0  0  0  0  0  0  0  0  0  0  0  0
    7.2252    2.4328   24.7667 C   0  0  0  0  0  0  0  0  0  0  0  0
    6.9483    2.2523   25.8158 H   0  0  0  0  0  0  0  0  0  0  0  0
    6.4152    3.0038   24.2979 H   0  0  0  0  0  0  0  0  0  0  0  0
    8.5154    3.2729   24.6846 C   0  0  0  0  0  0  0  0  0  0  0  0
    9.3278    2.7119   25.1620 H   0  0  0  0  0  0  0  0  0  0  0  0
    8.7916    3.3819   23.6289 H   0  0  0  0  0  0  0  0  0  0  0  0
    8.3684    4.6341   25.3390 C   0  0  0  0  0  0  0  0  0  0  0  0
    7.8967    5.7540   24.6350 C   0  0  0  0  0  0  0  0  0  0  0  0
    7.6552    5.6569   23.5785 H   0  0  0  0  0  0  0  0  0  0  0  0
    7.7298    6.9887   25.2769 C   0  0  0  0  0  0  0  0  0  0  0  0
    7.3559    7.8445   24.7186 H   0  0  0  0  0  0  0  0  0  0  0  0
    8.0351    7.1205   26.6370 C   0  0  0  0  0  0  0  0  0  0  0  0
    7.9038    8.0793   27.1348 H   0  0  0  0  0  0  0  0  0  0  0  0
    8.4903    6.0091   27.3554 C   0  0  0  0  0  0  0  0  0  0  0  0
    8.7216    6.1076   28.4136 H   0  0  0  0  0  0  0  0  0  0  0  0
    8.6355    4.7770   26.7061 C   0  0  0  0  0  0  0  0  0  0  0  0
    8.9385    3.8833   27.2356 H   0  0  0  0  0  0  0  0  0  0  0  0
    8.1499   -1.3499   22.9790 N   0  0  0  0  0  0  0  0  0  0  0  0
  1  2  1  0
  2  3  1  0
  3  4  2  0
  4  5  1  0
  5  6  2  0
  6  7  1  0
  6  8  1  0
  8  9  2  0
  9 10  1  0
  9 11  1  0
 11 12  1  0
 11 13  2  0
 13 14  1  0
  4 15  1  0
 15 16  1  0
 16 17  2  0
 16 18  1  0
 18 19  1  0
 18 20  1  0
 20 21  1  0
 20 22  1  0
 20 23  1  0
 23 24  1  0
 23 25  1  0
 23 26  1  0
 26 27  2  0
 27 28  1  0
 27 29  1  0
 29 30  1  0
 29 31  2  0
 31 32  1  0
 31 33  1  0
 33 34  1  0
 33 35  2  0
 35 36  1  0
 15 37  1  0
 37  2  2  0
 13  5  1  0
 35 26  1  0
M  END
>  <plip>  (1) 
-0.034482758620689655

>  <filename>  (1) 
[H][c]1[n][c](-[c]2[c]([H])[n][c]([H])[c]([H])[c]2[H])[n]([C](=[O])[N]([H])[C]([H])([H])[C]([H])([H])[c]2[c]([H])[c]([H])[c]([H])[c]([H])[c]2[H])[n]1

$$$$
