
     RDKit          3D

 38 39  0  0  0  0  0  0  0  0999 V2000
    4.9123    1.7811   16.9968 H   0  0  0  0  0  0  0  0  0  0  0  0
    5.4000    1.2947   17.8403 C   0  0  0  0  0  0  0  0  0  0  0  0
    6.5690    0.6768   17.5828 N   0  0  0  0  0  0  0  0  0  0  0  0
    7.1776    0.0583   18.6033 C   0  0  0  0  0  0  0  0  0  0  0  0
    8.1217   -0.4383   18.3830 H   0  0  0  0  0  0  0  0  0  0  0  0
    6.6784    0.0153   19.9265 C   0  0  0  0  0  0  0  0  0  0  0  0
    7.3451   -0.7288   20.9279 N   0  0  0  0  0  0  0  0  0  0  0  0
    7.7837   -0.2262   22.0158 C   0  0  0  0  0  0  0  0  0  0  0  0
    7.6996    1.2423   22.3583 C   0  0  0  0  0  0  0  0  0  0  0  0
    8.0644    1.8437   21.5214 H   0  0  0  0  0  0  0  0  0  0  0  0
    8.2843    1.4830   23.2466 H   0  0  0  0  0  0  0  0  0  0  0  0
    6.6648    1.5428   22.5440 H   0  0  0  0  0  0  0  0  0  0  0  0
    8.4526   -1.1722   22.9806 C   0  0  0  0  0  0  0  0  0  0  0  0
    9.2419   -1.7074   22.4427 H   0  0  0  0  0  0  0  0  0  0  0  0
    8.9265   -0.6205   23.7948 H   0  0  0  0  0  0  0  0  0  0  0  0
    7.4588   -2.1715   23.5675 C   0  0  0  0  0  0  0  0  0  0  0  0
    6.6382   -1.6030   24.0246 H   0  0  0  0  0  0  0  0  0  0  0  0
    7.0001   -2.7667   22.7571 H   0  0  0  0  0  0  0  0  0  0  0  0
    8.0828   -3.0196   24.5825 N   0  0  0  0  0  0  0  0  0  0  0  0
    8.7955   -4.1617   23.9871 C   0  0  0  0  0  0  0  0  0  0  0  0
    9.5127   -3.8032   23.2398 H   0  0  0  0  0  0  0  0  0  0  0  0
    8.0877   -4.8253   23.4474 H   0  0  0  0  0  0  0  0  0  0  0  0
    9.5349   -4.9840   25.0431 C   0  0  0  0  0  0  0  0  0  0  0  0
   10.3223   -4.3626   25.4850 H   0  0  0  0  0  0  0  0  0  0  0  0
   10.0321   -5.8376   24.5693 H   0  0  0  0  0  0  0  0  0  0  0  0
    8.5789   -5.4716   26.1347 C   0  0  0  0  0  0  0  0  0  0  0  0
    9.1323   -5.9798   26.9321 H   0  0  0  0  0  0  0  0  0  0  0  0
    7.8837   -6.2090   25.7076 H   0  0  0  0  0  0  0  0  0  0  0  0
    7.7832   -4.2914   26.6980 C   0  0  0  0  0  0  0  0  0  0  0  0
    8.4511   -3.6235   27.2541 H   0  0  0  0  0  0  0  0  0  0  0  0
    7.0233   -4.6451   27.4052 H   0  0  0  0  0  0  0  0  0  0  0  0
    7.1110   -3.4924   25.5805 C   0  0  0  0  0  0  0  0  0  0  0  0
    6.3255   -4.1182   25.1071 H   0  0  0  0  0  0  0  0  0  0  0  0
    6.5997   -2.6263   26.0201 H   0  0  0  0  0  0  0  0  0  0  0  0
    5.4521    0.6479   20.1643 C   0  0  0  0  0  0  0  0  0  0  0  0
    5.0184    0.6162   21.1661 H   0  0  0  0  0  0  0  0  0  0  0  0
    4.8085    1.3051   19.1075 C   0  0  0  0  0  0  0  0  0  0  0  0
    3.8754    1.8393   19.2641 H   0  0  0  0  0  0  0  0  0  0  0  0
  1  2  1  0
  2  3  2  0
  3  4  1  0
  4  5  1  0
  4  6  2  0
  6  7  1  0
  7  8  2  3
  8  9  1  0
  9 10  1  0
  9 11  1  0
  9 12  1  0
  8 13  1  0
 13 14  1  0
 13 15  1  0
 13 16  1  0
 16 17  1  0
 16 18  1  0
 16 19  1  0
 19 20  1  0
 20 21  1  0
 20 22  1  0
 20 23  1  0
 23 24  1  0
 23 25  1  0
 23 26  1  0
 26 27  1  0
 26 28  1  0
 26 29  1  0
 29 30  1  0
 29 31  1  0
 29 32  1  0
 32 33  1  0
 32 34  1  0
  6 35  1  0
 35 36  1  0
 35 37  2  0
 37 38  1  0
 37  2  1  0
 32 19  1  0
M  END
>  <plip>  (1) 
-0.07142857142857142

>  <filename>  (1) 
[H][c]1[n][c]([H])[c]([N]=[C]([C]([H])([H])[H])[C]([H])([H])[C]([H])([H])[N]2[C]([H])([H])[C]([H])([H])[C]([H])([H])[C]([H])([H])[C]2([H])[H])[c]([H])[c]1[H]

$$$$
