
     RDKit          3D

 41 43  0  0  0  0  0  0  0  0999 V2000
    4.9386    1.8428   16.9501 H   0  0  0  0  0  0  0  0  0  0  0  0
    5.4074    1.3194   17.7775 C   0  0  0  0  0  0  0  0  0  0  0  0
    6.5690    0.7036   17.5127 N   0  0  0  0  0  0  0  0  0  0  0  0
    7.1781    0.0669   18.5233 C   0  0  0  0  0  0  0  0  0  0  0  0
    8.1322   -0.3962   18.2690 H   0  0  0  0  0  0  0  0  0  0  0  0
    6.6691   -0.0173   19.8408 C   0  0  0  0  0  0  0  0  0  0  0  0
    7.4007   -0.7420   20.9722 C   0  0  2  0  0  0  0  0  0  0  0  0
    8.2755   -1.2505   20.5388 H   0  0  0  0  0  0  0  0  0  0  0  0
    6.5749   -1.8352   21.7317 C   0  0  0  0  0  0  0  0  0  0  0  0
    6.9711   -2.8362   21.5150 H   0  0  0  0  0  0  0  0  0  0  0  0
    5.5189   -1.8419   21.4344 H   0  0  0  0  0  0  0  0  0  0  0  0
    6.6870   -1.5867   23.1767 N   0  0  0  0  0  0  0  0  0  0  0  0
    5.8442   -1.1075   23.4825 H   0  0  0  0  0  0  0  0  0  0  0  0
    7.8290   -0.6950   23.3657 C   0  0  0  0  0  0  0  0  0  0  0  0
    7.7013   -0.1336   24.2988 H   0  0  0  0  0  0  0  0  0  0  0  0
    8.7476   -1.2936   23.4826 H   0  0  0  0  0  0  0  0  0  0  0  0
    7.8938    0.2000   22.1109 C   0  0  1  0  0  0  0  0  0  0  0  0
    7.1340    0.9883   22.2459 H   0  0  0  0  0  0  0  0  0  0  0  0
    9.2501    0.8679   21.8237 C   0  0  0  0  0  0  0  0  0  0  0  0
   10.0221    0.0932   21.7255 H   0  0  0  0  0  0  0  0  0  0  0  0
    9.1996    1.3703   20.8517 H   0  0  0  0  0  0  0  0  0  0  0  0
    9.6802    1.8783   22.8844 C   0  0  0  0  0  0  0  0  0  0  0  0
    9.6857    1.3954   23.8850 H   0  0  0  0  0  0  0  0  0  0  0  0
    8.9222    2.6715   22.9317 H   0  0  0  0  0  0  0  0  0  0  0  0
   10.9615    2.5125   22.6123 N   0  0  0  0  0  0  0  0  0  0  0  0
   11.1883    3.6809   23.4499 C   0  0  0  0  0  0  0  0  0  0  0  0
   10.5763    4.5144   23.0833 H   0  0  0  0  0  0  0  0  0  0  0  0
   10.9180    3.5051   24.5096 H   0  0  0  0  0  0  0  0  0  0  0  0
   12.6804    3.9488   23.3200 C   0  0  0  0  0  0  0  0  0  0  0  0
   13.0792    4.4920   24.1807 H   0  0  0  0  0  0  0  0  0  0  0  0
   12.8535    4.5491   22.4237 H   0  0  0  0  0  0  0  0  0  0  0  0
   13.3017    2.5536   23.1478 C   0  0  0  0  0  0  0  0  0  0  0  0
   14.1016    2.5806   22.4095 H   0  0  0  0  0  0  0  0  0  0  0  0
   13.7425    2.1694   24.0706 H   0  0  0  0  0  0  0  0  0  0  0  0
   12.1342    1.6453   22.7195 C   0  0  0  0  0  0  0  0  0  0  0  0
   12.3246    1.1377   21.7667 H   0  0  0  0  0  0  0  0  0  0  0  0
   11.9828    0.8619   23.4800 H   0  0  0  0  0  0  0  0  0  0  0  0
    5.4520    0.6438   20.0791 C   0  0  0  0  0  0  0  0  0  0  0  0
    5.0200    0.6604   21.0810 H   0  0  0  0  0  0  0  0  0  0  0  0
    4.8058    1.3144   19.0407 C   0  0  0  0  0  0  0  0  0  0  0  0
    3.8725    1.8448   19.1960 H   0  0  0  0  0  0  0  0  0  0  0  0
  1  2  1  0
  2  3  2  0
  3  4  1  0
  4  5  1  0
  4  6  2  0
  6  7  1  0
  7  8  1  6
  7  9  1  0
  9 10  1  0
  9 11  1  0
  9 12  1  0
 12 13  1  0
 12 14  1  0
 14 15  1  0
 14 16  1  0
 14 17  1  0
 17 18  1  1
 17 19  1  0
 19 20  1  0
 19 21  1  0
 19 22  1  0
 22 23  1  0
 22 24  1  0
 22 25  1  0
 25 26  1  0
 26 27  1  0
 26 28  1  0
 26 29  1  0
 29 30  1  0
 29 31  1  0
 29 32  1  0
 32 33  1  0
 32 34  1  0
 32 35  1  0
 35 36  1  0
 35 37  1  0
  6 38  1  0
 38 39  1  0
 38 40  2  0
 40 41  1  0
 40  2  1  0
 17  7  1  0
 35 25  1  0
M  END
>  <plip>  (1) 
-0.07142857142857142

>  <filename>  (1) 
[H][c]1[n][c]([H])[c]([C@]2([H])[C]([H])([H])[N]([H])[C]([H])([H])[C@@]2([H])[C]([H])([H])[C]([H])([H])[N]2[C]([H])([H])[C]([H])([H])[C]([H])([H])[C]2([H])[H])[c]([H])[c]1[H]

$$$$
