
     RDKit          3D

 56 58  0  0  0  0  0  0  0  0999 V2000
   10.5018    0.5347   21.2978 C   0  0  0  0  0  0  0  0  0  0  0  0
    9.1448    0.8995   21.1541 O   0  0  0  0  0  0  0  0  0  0  0  0
    8.1973    0.1975   21.9262 C   0  0  0  0  0  0  0  0  0  0  0  0
    7.3657    1.1040   22.5947 O   0  0  0  0  0  0  0  0  0  0  0  0
    8.0179    1.9371   23.5406 C   0  0  0  0  0  0  0  0  0  0  0  0
    8.3883    1.3605   24.4027 H   0  0  0  0  0  0  0  0  0  0  0  0
    7.2628    2.6447   23.8879 H   0  0  0  0  0  0  0  0  0  0  0  0
    8.8550    2.4963   23.1007 H   0  0  0  0  0  0  0  0  0  0  0  0
    7.3392   -0.7665   21.0278 C   0  0  0  0  0  0  0  0  0  0  0  0
    6.5101   -1.6344   21.8788 N   0  0  0  0  0  0  0  0  0  0  0  0
    5.8843   -2.7698   21.4051 C   0  0  0  0  0  0  0  0  0  0  0  0
    6.0429   -3.1506   20.2584 O   0  0  0  0  0  0  0  0  0  0  0  0
    5.0166   -3.5099   22.4111 C   0  0  0  0  0  0  0  0  0  0  0  0
    4.7035   -3.3298   23.7348 C   0  0  0  0  0  0  0  0  0  0  0  0
    3.6477   -4.2436   24.0416 C   0  0  0  0  0  0  0  0  0  0  0  0
    3.4227   -4.9650   22.9031 C   0  0  0  0  0  0  0  0  0  0  0  0
    2.4728   -6.0708   22.5740 C   0  0  0  0  0  0  0  0  0  0  0  0
    1.2059   -5.5732   22.1356 O   0  0  0  0  0  0  0  0  0  0  0  0
    0.1498   -6.4451   21.9859 C   0  0  0  0  0  0  0  0  0  0  0  0
    0.2533   -7.8265   22.1934 C   0  0  0  0  0  0  0  0  0  0  0  0
   -0.8633   -8.6560   22.0159 C   0  0  0  0  0  0  0  0  0  0  0  0
   -2.0957   -8.1323   21.6138 C   0  0  0  0  0  0  0  0  0  0  0  0
   -3.3074   -9.0020   21.3822 C   0  0  0  0  0  0  0  0  0  0  0  0
   -3.2797   -9.9118   21.9905 H   0  0  0  0  0  0  0  0  0  0  0  0
   -4.2311   -8.4645   21.6258 H   0  0  0  0  0  0  0  0  0  0  0  0
   -3.3867   -9.3114   20.3331 H   0  0  0  0  0  0  0  0  0  0  0  0
   -2.1828   -6.7422   21.4268 C   0  0  0  0  0  0  0  0  0  0  0  0
   -1.0985   -5.8794   21.6144 C   0  0  0  0  0  0  0  0  0  0  0  0
   -1.2895   -4.3925   21.4323 C   0  0  0  0  0  0  0  0  0  0  0  0
   -0.7250   -4.0246   20.5726 H   0  0  0  0  0  0  0  0  0  0  0  0
   -0.9459   -3.8397   22.3127 H   0  0  0  0  0  0  0  0  0  0  0  0
   -2.3430   -4.1487   21.2609 H   0  0  0  0  0  0  0  0  0  0  0  0
   -3.1445   -6.3181   21.1357 H   0  0  0  0  0  0  0  0  0  0  0  0
   -0.7685   -9.7200   22.2159 H   0  0  0  0  0  0  0  0  0  0  0  0
    1.1989   -8.2628   22.4987 H   0  0  0  0  0  0  0  0  0  0  0  0
    2.3389   -6.6683   23.4846 H   0  0  0  0  0  0  0  0  0  0  0  0
    2.9210   -6.7036   21.7957 H   0  0  0  0  0  0  0  0  0  0  0  0
    4.2655   -4.5470   21.9327 O   0  0  0  0  0  0  0  0  0  0  0  0
    3.0996   -4.3308   24.9719 H   0  0  0  0  0  0  0  0  0  0  0  0
    5.1686   -2.6403   24.4308 H   0  0  0  0  0  0  0  0  0  0  0  0
    6.0548   -1.1493   22.6394 H   0  0  0  0  0  0  0  0  0  0  0  0
    6.5525   -0.0562   19.9216 C   0  0  0  0  0  0  0  0  0  0  0  0
    5.3513    0.6378   20.1296 C   0  0  0  0  0  0  0  0  0  0  0  0
    4.7766    1.3165   19.0501 C   0  0  0  0  0  0  0  0  0  0  0  0
    5.4178    1.2887   17.8072 C   0  0  0  0  0  0  0  0  0  0  0  0
    6.5577    0.6231   17.5820 N   0  0  0  0  0  0  0  0  0  0  0  0
    7.0918   -0.0267   18.6261 C   0  0  0  0  0  0  0  0  0  0  0  0
    8.0276   -0.5466   18.4188 H   0  0  0  0  0  0  0  0  0  0  0  0
    4.9942    1.8151   16.9515 H   0  0  0  0  0  0  0  0  0  0  0  0
    3.8548    1.8755   19.1553 H   0  0  0  0  0  0  0  0  0  0  0  0
    4.8777    0.6812   21.1137 H   0  0  0  0  0  0  0  0  0  0  0  0
    8.0766   -1.4109   20.5312 H   0  0  0  0  0  0  0  0  0  0  0  0
    8.7135   -0.4489   22.6621 H   0  0  0  0  0  0  0  0  0  0  0  0
   11.0858    1.3819   20.9307 H   0  0  0  0  0  0  0  0  0  0  0  0
   10.7756   -0.3621   20.7152 H   0  0  0  0  0  0  0  0  0  0  0  0
   10.7687    0.3637   22.3491 H   0  0  0  0  0  0  0  0  0  0  0  0
  1  2  1  0
  2  3  1  0
  3  4  1  0
  4  5  1  0
  5  6  1  0
  5  7  1  0
  5  8  1  0
  3  9  1  0
  9 10  1  0
 10 11  1  0
 11 12  2  0
 11 13  1  0
 13 14  2  0
 14 15  1  0
 15 16  2  0
 16 17  1  0
 17 18  1  0
 18 19  1  0
 19 20  2  0
 20 21  1  0
 21 22  2  0
 22 23  1  0
 23 24  1  0
 23 25  1  0
 23 26  1  0
 22 27  1  0
 27 28  2  0
 28 29  1  0
 29 30  1  0
 29 31  1  0
 29 32  1  0
 27 33  1  0
 21 34  1  0
 20 35  1  0
 17 36  1  0
 17 37  1  0
 16 38  1  0
 15 39  1  0
 14 40  1  0
 10 41  1  0
  9 42  1  0
 42 43  2  0
 43 44  1  0
 44 45  2  0
 45 46  1  0
 46 47  2  0
 47 48  1  0
 45 49  1  0
 44 50  1  0
 43 51  1  0
  9 52  1  0
  3 53  1  0
  1 54  1  0
  1 55  1  0
  1 56  1  0
 38 13  1  0
 47 42  1  0
 28 19  1  0
M  END
>  <plip>  (1) 
-0.13793103448275862

>  <filename>  (1) 
[H][c]1[n][c]([H])[c]([C]([H])([N]([H])[C](=[O])[c]2[o][c]([C]([H])([H])[O][c]3[c]([H])[c]([H])[c]([C]([H])([H])[H])[c]([H])[c]3[C]([H])([H])[H])[c]([H])[c]2[H])[C]([H])([O][C]([H])([H])[H])[O][C]([H])([H])[H])[c]([H])[c]1[H]

$$$$
