
     RDKit          3D

 52 55  0  0  0  0  0  0  0  0999 V2000
    5.9506   -3.2064   20.5124 O   0  0  0  0  0  0  0  0  0  0  0  0
    5.8390   -2.6687   21.5994 C   0  0  0  0  0  0  0  0  0  0  0  0
    5.1086   -3.2051   22.6506 N   0  0  0  0  0  0  0  0  0  0  0  0
    4.3401   -4.3941   22.6220 C   0  0  0  0  0  0  0  0  0  0  0  0
    3.2282   -4.6607   23.3604 C   0  0  0  0  0  0  0  0  0  0  0  0
    2.7765   -5.9136   22.9915 N   0  0  0  0  0  0  0  0  0  0  0  0
    1.5796   -6.5701   23.4517 C   0  0  0  0  0  0  0  0  0  0  0  0
    0.8316   -5.8743   24.3253 N   0  0  0  0  0  0  0  0  0  0  0  0
   -0.2444   -6.4438   24.8759 C   0  0  0  0  0  0  0  0  0  0  0  0
   -0.6072   -7.7688   24.6398 C   0  0  0  0  0  0  0  0  0  0  0  0
    0.1310   -8.4919   23.7036 C   0  0  0  0  0  0  0  0  0  0  0  0
    1.1845   -7.8724   23.0361 C   0  0  0  0  0  0  0  0  0  0  0  0
    1.8336   -8.7406   21.6859 Cl  0  0  0  0  0  0  0  0  0  0  0  0
   -0.0994   -9.5245   23.4475 H   0  0  0  0  0  0  0  0  0  0  0  0
   -1.4652   -8.2107   25.1345 H   0  0  0  0  0  0  0  0  0  0  0  0
   -0.8537   -5.8123   25.5209 H   0  0  0  0  0  0  0  0  0  0  0  0
    3.6342   -6.4799   22.0934 N   0  0  0  0  0  0  0  0  0  0  0  0
    4.5699   -5.5875   21.8779 C   0  0  0  0  0  0  0  0  0  0  0  0
    5.3777   -5.7679   21.1846 H   0  0  0  0  0  0  0  0  0  0  0  0
    2.7739   -4.0912   24.1610 H   0  0  0  0  0  0  0  0  0  0  0  0
    4.9017   -2.5583   23.3958 H   0  0  0  0  0  0  0  0  0  0  0  0
    6.4389   -1.4853   21.9413 N   0  0  0  0  0  0  0  0  0  0  0  0
    7.3240   -0.7870   21.0153 C   0  0  0  0  0  0  0  0  0  0  0  0
    6.5380   -0.0732   19.9165 C   0  0  0  0  0  0  0  0  0  0  0  0
    5.3368    0.6296   20.1147 C   0  0  0  0  0  0  0  0  0  0  0  0
    4.7871    1.3337   19.0397 C   0  0  0  0  0  0  0  0  0  0  0  0
    5.4466    1.3087   17.8061 C   0  0  0  0  0  0  0  0  0  0  0  0
    6.5797    0.6222   17.5857 N   0  0  0  0  0  0  0  0  0  0  0  0
    7.0869   -0.0499   18.6249 C   0  0  0  0  0  0  0  0  0  0  0  0
    8.0013   -0.6132   18.4248 H   0  0  0  0  0  0  0  0  0  0  0  0
    5.0473    1.8513   16.9535 H   0  0  0  0  0  0  0  0  0  0  0  0
    3.8662    1.8998   19.1437 H   0  0  0  0  0  0  0  0  0  0  0  0
    4.8428    0.6174   21.0897 H   0  0  0  0  0  0  0  0  0  0  0  0
    8.3435    0.1644   21.7149 C   0  0  0  0  0  0  0  0  0  0  0  0
    9.3037   -0.5388   22.6955 C   0  0  0  0  0  0  0  0  0  0  0  0
   10.4731    0.3880   23.1338 C   0  0  0  0  0  0  0  0  0  0  0  0
   10.1050    1.8932   23.1664 C   0  0  0  0  0  0  0  0  0  0  0  0
    8.6084    2.1119   23.4229 C   0  0  0  0  0  0  0  0  0  0  0  0
    7.7229    1.4444   22.3443 C   0  0  0  0  0  0  0  0  0  0  0  0
    6.7292    1.2453   22.7669 H   0  0  0  0  0  0  0  0  0  0  0  0
    7.5436    2.1580   21.5306 H   0  0  0  0  0  0  0  0  0  0  0  0
    8.3610    1.7018   24.4114 H   0  0  0  0  0  0  0  0  0  0  0  0
    8.3858    3.1845   23.4784 H   0  0  0  0  0  0  0  0  0  0  0  0
   10.7000    2.4075   23.9295 H   0  0  0  0  0  0  0  0  0  0  0  0
   10.3842    2.3710   22.2176 H   0  0  0  0  0  0  0  0  0  0  0  0
   11.3303    0.2500   22.4632 H   0  0  0  0  0  0  0  0  0  0  0  0
   10.8169    0.0714   24.1269 H   0  0  0  0  0  0  0  0  0  0  0  0
    8.7535   -0.8757   23.5841 H   0  0  0  0  0  0  0  0  0  0  0  0
    9.7111   -1.4497   22.2430 H   0  0  0  0  0  0  0  0  0  0  0  0
    8.9894    0.5170   20.8972 H   0  0  0  0  0  0  0  0  0  0  0  0
    7.9276   -1.5552   20.4973 H   0  0  0  0  0  0  0  0  0  0  0  0
    6.3817   -1.1996   22.9023 H   0  0  0  0  0  0  0  0  0  0  0  0
  1  2  2  0
  2  3  1  0
  3  4  1  0
  4  5  2  0
  5  6  1  0
  6  7  1  0
  7  8  2  0
  8  9  1  0
  9 10  2  0
 10 11  1  0
 11 12  2  0
 12 13  1  0
 11 14  1  0
 10 15  1  0
  9 16  1  0
  6 17  1  0
 17 18  2  0
 18 19  1  0
  5 20  1  0
  3 21  1  0
  2 22  1  0
 22 23  1  0
 23 24  1  0
 24 25  2  0
 25 26  1  0
 26 27  2  0
 27 28  1  0
 28 29  2  0
 29 30  1  0
 27 31  1  0
 26 32  1  0
 25 33  1  0
 23 34  1  0
 34 35  1  0
 35 36  1  0
 36 37  1  0
 37 38  1  0
 38 39  1  0
 39 40  1  0
 39 41  1  0
 38 42  1  0
 38 43  1  0
 37 44  1  0
 37 45  1  0
 36 46  1  0
 36 47  1  0
 35 48  1  0
 35 49  1  0
 34 50  1  0
 23 51  1  0
 22 52  1  0
 18  4  1  0
 29 24  1  0
 39 34  1  0
 12  7  1  0
M  END
>  <plip>  (1) 
-0.10714285714285714

>  <filename>  (1) 
[H][c]1[n][c](-[n]2[n][c]([H])[c]([N]([H])[C](=[O])[N]([H])[C]([H])([c]3[c]([H])[n][c]([H])[c]([H])[c]3[H])[C]3([H])[C]([H])([H])[C]([H])([H])[C]([H])([H])[C]([H])([H])[C]3([H])[H])[c]2[H])[c]([Cl])[c]([H])[c]1[H]

$$$$
