
     RDKit          3D

 35 37  0  0  0  0  0  0  0  0999 V2000
    6.9494    2.1498   24.9530 H   0  0  0  0  0  0  0  0  0  0  0  0
    7.4806    1.8566   24.0482 C   0  0  0  0  0  0  0  0  0  0  0  0
    8.5554    2.5755   23.7656 N   0  0  0  0  0  0  0  0  0  0  0  0
    9.2130    2.1515   22.7002 C   0  0  0  0  0  0  0  0  0  0  0  0
   10.3980    2.7523   22.4623 N   0  0  0  0  0  0  0  0  0  0  0  0
   10.3031    3.6649   22.8613 H   0  0  0  0  0  0  0  0  0  0  0  0
   10.5143    2.7088   21.4673 H   0  0  0  0  0  0  0  0  0  0  0  0
    8.8749    1.2377   21.8224 N   0  0  0  0  0  0  0  0  0  0  0  0
    7.7928    0.5118   22.1285 C   0  0  0  0  0  0  0  0  0  0  0  0
    7.4611   -0.5934   21.0914 C   0  0  0  0  0  0  0  0  0  0  0  0
    6.7110    0.0555   19.8928 C   0  0  0  0  0  0  0  0  0  0  0  0
    7.1814    0.0628   18.5662 C   0  0  0  0  0  0  0  0  0  0  0  0
    8.1205   -0.4236   18.3043 H   0  0  0  0  0  0  0  0  0  0  0  0
    6.5561    0.6606   17.5387 N   0  0  0  0  0  0  0  0  0  0  0  0
    5.4034    1.2881   17.7962 C   0  0  0  0  0  0  0  0  0  0  0  0
    4.9327    1.7995   16.9590 H   0  0  0  0  0  0  0  0  0  0  0  0
    4.8123    1.3130   19.0634 C   0  0  0  0  0  0  0  0  0  0  0  0
    3.8705    1.8279   19.2119 H   0  0  0  0  0  0  0  0  0  0  0  0
    5.4704    0.6821   20.1179 C   0  0  0  0  0  0  0  0  0  0  0  0
    5.0228    0.6912   21.1155 H   0  0  0  0  0  0  0  0  0  0  0  0
    8.7707   -1.3262   20.6868 C   0  0  0  0  0  0  0  0  0  0  0  0
    8.5072   -1.9281   19.8351 H   0  0  0  0  0  0  0  0  0  0  0  0
    9.5434   -0.6236   20.3683 H   0  0  0  0  0  0  0  0  0  0  0  0
    9.3127   -2.2363   21.7956 C   0  0  0  0  0  0  0  0  0  0  0  0
    9.6515   -1.6215   22.6468 H   0  0  0  0  0  0  0  0  0  0  0  0
   10.1740   -2.8074   21.4434 H   0  0  0  0  0  0  0  0  0  0  0  0
    8.3604   -3.1945   22.2253 O   0  0  0  0  0  0  0  0  0  0  0  0
    7.1629   -2.6047   22.7065 C   0  0  0  0  0  0  0  0  0  0  0  0
    6.5063   -3.4417   22.9611 H   0  0  0  0  0  0  0  0  0  0  0  0
    7.3498   -2.0332   23.6347 H   0  0  0  0  0  0  0  0  0  0  0  0
    6.5387   -1.7332   21.6157 C   0  0  0  0  0  0  0  0  0  0  0  0
    6.3357   -2.3839   20.7585 H   0  0  0  0  0  0  0  0  0  0  0  0
    5.5815   -1.3168   21.8954 H   0  0  0  0  0  0  0  0  0  0  0  0
    7.0399    0.7852   23.2697 C   0  0  0  0  0  0  0  0  0  0  0  0
    6.1682    0.2125   23.5413 H   0  0  0  0  0  0  0  0  0  0  0  0
  1  2  1  0
  2  3  2  0
  3  4  1  0
  4  5  1  0
  5  6  1  0
  5  7  1  0
  4  8  2  0
  8  9  1  0
  9 10  1  0
 10 11  1  0
 11 12  2  0
 12 13  1  0
 12 14  1  0
 14 15  2  0
 15 16  1  0
 15 17  1  0
 17 18  1  0
 17 19  2  0
 19 20  1  0
 10 21  1  0
 21 22  1  0
 21 23  1  0
 21 24  1  0
 24 25  1  0
 24 26  1  0
 24 27  1  0
 27 28  1  0
 28 29  1  0
 28 30  1  0
 28 31  1  0
 31 32  1  0
 31 33  1  0
  9 34  2  0
 34 35  1  0
 34  2  1  0
 31 10  1  0
 19 11  1  0
M  END
>  <plip>  (1) 
-0.10344827586206896

>  <filename>  (1) 
[H][c]1[n][c]([N]([H])[H])[n][c]([C]2([c]3[c]([H])[n][c]([H])[c]([H])[c]3[H])[C]([H])([H])[C]([H])([H])[O][C]([H])([H])[C]2([H])[H])[c]1[H]

$$$$
