
     RDKit          3D

 31 32  0  0  0  0  0  0  0  0999 V2000
   10.3856   -6.7547   26.3609 H   0  0  0  0  0  0  0  0  0  0  0  0
    9.8008   -6.4238   25.6666 O   0  0  0  0  0  0  0  0  0  0  0  0
   10.3010   -5.2064   25.1346 C   0  0  0  0  0  0  0  0  0  0  0  0
   10.4438   -4.4423   25.9206 H   0  0  0  0  0  0  0  0  0  0  0  0
   11.2724   -5.3498   24.6265 H   0  0  0  0  0  0  0  0  0  0  0  0
    9.2309   -4.7521   24.1415 C   0  0  0  0  0  0  0  0  0  0  0  0
    9.0448   -5.5811   23.4497 H   0  0  0  0  0  0  0  0  0  0  0  0
    8.2950   -4.5981   24.6936 H   0  0  0  0  0  0  0  0  0  0  0  0
    9.6092   -3.5544   23.4001 N   0  0  0  0  0  0  0  0  0  0  0  0
   10.4469   -3.0591   23.6561 H   0  0  0  0  0  0  0  0  0  0  0  0
    8.7863   -2.8698   22.5621 C   0  0  0  0  0  0  0  0  0  0  0  0
    7.6125   -3.1777   22.3532 O   0  0  0  0  0  0  0  0  0  0  0  0
    9.4079   -1.6996   21.9021 C   0  0  0  0  0  0  0  0  0  0  0  0
    8.7341   -0.7385   21.1762 C   0  0  0  0  0  0  0  0  0  0  0  0
    7.3704   -0.7531   20.9540 N   0  0  0  0  0  0  0  0  0  0  0  0
    6.9107   -1.4949   21.4791 H   0  0  0  0  0  0  0  0  0  0  0  0
    6.7068   -0.0860   19.9119 C   0  0  0  0  0  0  0  0  0  0  0  0
    7.1984   -0.0038   18.5810 C   0  0  0  0  0  0  0  0  0  0  0  0
    8.1293   -0.5100   18.3280 H   0  0  0  0  0  0  0  0  0  0  0  0
    6.5905    0.6492   17.5812 N   0  0  0  0  0  0  0  0  0  0  0  0
    5.4395    1.2776   17.8720 C   0  0  0  0  0  0  0  0  0  0  0  0
    4.9704    1.8179   17.0514 H   0  0  0  0  0  0  0  0  0  0  0  0
    4.8588    1.2447   19.1451 C   0  0  0  0  0  0  0  0  0  0  0  0
    3.9296    1.7720   19.3149 H   0  0  0  0  0  0  0  0  0  0  0  0
    5.4884    0.5476   20.1810 C   0  0  0  0  0  0  0  0  0  0  0  0
    5.0848    0.5218   21.1975 H   0  0  0  0  0  0  0  0  0  0  0  0
    9.7243    0.1928   20.7875 C   0  0  0  0  0  0  0  0  0  0  0  0
    9.5896    1.0802   20.1887 H   0  0  0  0  0  0  0  0  0  0  0  0
   10.9243   -0.1775   21.2139 N   0  0  0  0  0  0  0  0  0  0  0  0
   10.7318   -1.3126   21.8976 N   0  0  0  0  0  0  0  0  0  0  0  0
   11.5858   -1.8191   22.1162 H   0  0  0  0  0  0  0  0  0  0  0  0
  1  2  1  0
  2  3  1  0
  3  4  1  0
  3  5  1  0
  3  6  1  0
  6  7  1  0
  6  8  1  0
  6  9  1  0
  9 10  1  0
  9 11  1  0
 11 12  2  0
 11 13  1  0
 13 14  2  0
 14 15  1  0
 15 16  1  0
 15 17  1  0
 17 18  2  0
 18 19  1  0
 18 20  1  0
 20 21  2  0
 21 22  1  0
 21 23  1  0
 23 24  1  0
 23 25  2  0
 25 26  1  0
 14 27  1  0
 27 28  1  0
 27 29  2  0
 29 30  1  0
 30 31  1  0
 30 13  1  0
 25 17  1  0
M  END
>  <plip>  (1) 
-0.12903225806451613

>  <filename>  (1) 
[H][O][C]([H])([H])[C]([H])([H])[N]([H])[C](=[O])[c]1[c]([N]([H])[c]2[c]([H])[n][c]([H])[c]([H])[c]2[H])[c]([H])[n][n]1[H]

$$$$
