
     RDKit          3D

 33 35  0  0  0  0  0  0  0  0999 V2000
    5.0146    1.8832   16.8851 H   0  0  0  0  0  0  0  0  0  0  0  0
    5.4558    1.3408   17.7143 C   0  0  0  0  0  0  0  0  0  0  0  0
    6.5762    0.6526   17.4480 N   0  0  0  0  0  0  0  0  0  0  0  0
    7.1554   -0.0100   18.4526 C   0  0  0  0  0  0  0  0  0  0  0  0
    8.0664   -0.5496   18.1992 H   0  0  0  0  0  0  0  0  0  0  0  0
    6.6415   -0.0280   19.7634 C   0  0  0  0  0  0  0  0  0  0  0  0
    7.2685   -0.7328   20.8195 N   0  0  0  0  0  0  0  0  0  0  0  0
    6.5299   -1.1695   21.8779 N   0  0  0  0  0  0  0  0  0  0  0  0
    7.4499   -1.7019   22.6506 C   0  0  0  0  0  0  0  0  0  0  0  0
    7.1040   -2.2530   23.8116 O   0  0  0  0  0  0  0  0  0  0  0  0
    8.1540   -2.8335   24.6073 C   0  0  0  0  0  0  0  0  0  0  0  0
    8.7473   -3.4999   23.9672 H   0  0  0  0  0  0  0  0  0  0  0  0
    9.0606   -1.7291   25.1602 C   0  0  0  0  0  0  0  0  0  0  0  0
    9.9524   -2.2330   25.5306 H   0  0  0  0  0  0  0  0  0  0  0  0
    9.3680   -1.0629   24.3478 H   0  0  0  0  0  0  0  0  0  0  0  0
    8.3773   -0.9425   26.2848 C   0  0  0  0  0  0  0  0  0  0  0  0
    9.0752   -0.2402   26.7591 H   0  0  0  0  0  0  0  0  0  0  0  0
    7.5707   -0.3326   25.8544 H   0  0  0  0  0  0  0  0  0  0  0  0
    7.8126   -1.8009   27.3258 N   0  0  0  0  0  0  0  0  0  0  0  0
    8.5725   -2.3014   27.7877 H   0  0  0  0  0  0  0  0  0  0  0  0
    6.8548   -2.7705   26.8006 C   0  0  0  0  0  0  0  0  0  0  0  0
    6.4935   -3.3894   27.6326 H   0  0  0  0  0  0  0  0  0  0  0  0
    5.9787   -2.2186   26.4221 H   0  0  0  0  0  0  0  0  0  0  0  0
    7.4805   -3.6537   25.7111 C   0  0  0  0  0  0  0  0  0  0  0  0
    8.2442   -4.2985   26.1742 H   0  0  0  0  0  0  0  0  0  0  0  0
    6.7275   -4.3128   25.2714 H   0  0  0  0  0  0  0  0  0  0  0  0
    8.7289   -1.6536   22.1779 N   0  0  0  0  0  0  0  0  0  0  0  0
    8.5707   -1.0296   21.0331 C   0  0  0  0  0  0  0  0  0  0  0  0
    9.3533   -0.7778   20.3248 H   0  0  0  0  0  0  0  0  0  0  0  0
    5.4634    0.6843   20.0280 C   0  0  0  0  0  0  0  0  0  0  0  0
    5.0509    0.6791   21.0397 H   0  0  0  0  0  0  0  0  0  0  0  0
    4.8638    1.3781   18.9832 C   0  0  0  0  0  0  0  0  0  0  0  0
    3.9656    1.9628   19.1451 H   0  0  0  0  0  0  0  0  0  0  0  0
  1  2  1  0
  2  3  2  0
  3  4  1  0
  4  5  1  0
  4  6  2  0
  6  7  1  0
  7  8  1  0
  8  9  2  0
  9 10  1  0
 10 11  1  0
 11 12  1  0
 11 13  1  0
 13 14  1  0
 13 15  1  0
 13 16  1  0
 16 17  1  0
 16 18  1  0
 16 19  1  0
 19 20  1  0
 19 21  1  0
 21 22  1  0
 21 23  1  0
 21 24  1  0
 24 25  1  0
 24 26  1  0
  9 27  1  0
 27 28  2  0
 28 29  1  0
  6 30  1  0
 30 31  1  0
 30 32  2  0
 32 33  1  0
 32  2  1  0
 28  7  1  0
 24 11  1  0
M  END
>  <plip>  (1) 
-0.07142857142857142

>  <filename>  (1) 
[H][c]1[n][c]([H])[c](-[n]2[n][c]([O][C]3([H])[C]([H])([H])[C]([H])([H])[N]([H])[C]([H])([H])[C]3([H])[H])[n][c]2[H])[c]([H])[c]1[H]

$$$$
