
     RDKit          3D

 48 50  0  0  0  0  0  0  0  0999 V2000
    5.6242   -3.8615   20.7214 C   0  0  0  0  0  0  0  0  0  0  0  0
    6.4258   -2.7351   20.4325 O   0  0  0  0  0  0  0  0  0  0  0  0
    6.6604   -1.9180   21.5402 C   0  0  0  0  0  0  0  0  0  0  0  0
    7.3865   -2.6437   22.5122 O   0  0  0  0  0  0  0  0  0  0  0  0
    6.8431   -2.6837   23.8189 C   0  0  0  0  0  0  0  0  0  0  0  0
    6.7587   -1.6834   24.2671 H   0  0  0  0  0  0  0  0  0  0  0  0
    7.5278   -3.2769   24.4318 H   0  0  0  0  0  0  0  0  0  0  0  0
    5.8533   -3.1649   23.8566 H   0  0  0  0  0  0  0  0  0  0  0  0
    7.4342   -0.6650   21.0214 C   0  0  0  0  0  0  0  0  0  0  0  0
    7.7715    0.2753   22.0791 N   0  0  0  0  0  0  0  0  0  0  0  0
    8.9632    0.9470   22.1163 C   0  0  0  0  0  0  0  0  0  0  0  0
    9.9432    0.6167   21.4812 O   0  0  0  0  0  0  0  0  0  0  0  0
    8.9768    2.0830   23.0796 C   0  0  0  0  0  0  0  0  0  0  0  0
    8.0130    2.9993   23.2774 C   0  0  0  0  0  0  0  0  0  0  0  0
    6.8159    3.1970   22.3461 C   0  0  0  0  0  0  0  0  0  0  0  0
    6.6267    4.6862   22.0679 C   0  0  0  0  0  0  0  0  0  0  0  0
    6.3832    5.3775   23.2909 O   0  0  0  0  0  0  0  0  0  0  0  0
    7.2815    5.1596   24.2997 C   0  0  0  0  0  0  0  0  0  0  0  0
    7.3333    6.1547   25.2782 C   0  0  0  0  0  0  0  0  0  0  0  0
    8.2166    6.0358   26.3451 C   0  0  0  0  0  0  0  0  0  0  0  0
    9.0489    4.9115   26.4395 C   0  0  0  0  0  0  0  0  0  0  0  0
    8.9608    3.8923   25.4913 C   0  0  0  0  0  0  0  0  0  0  0  0
    8.0957    4.0022   24.3761 C   0  0  0  0  0  0  0  0  0  0  0  0
    9.5504    2.9892   25.6250 H   0  0  0  0  0  0  0  0  0  0  0  0
    9.7891    4.8581   27.2281 H   0  0  0  0  0  0  0  0  0  0  0  0
    8.2420    6.8138   27.1040 H   0  0  0  0  0  0  0  0  0  0  0  0
    6.6793    7.0092   25.1413 H   0  0  0  0  0  0  0  0  0  0  0  0
    7.5135    5.1006   21.5601 H   0  0  0  0  0  0  0  0  0  0  0  0
    5.7504    4.8822   21.4422 H   0  0  0  0  0  0  0  0  0  0  0  0
    6.9150    2.6605   21.4007 H   0  0  0  0  0  0  0  0  0  0  0  0
    5.9105    2.8473   22.8549 H   0  0  0  0  0  0  0  0  0  0  0  0
    9.9427    2.1893   23.5604 H   0  0  0  0  0  0  0  0  0  0  0  0
    7.0288    0.8004   22.5171 H   0  0  0  0  0  0  0  0  0  0  0  0
    6.6855    0.0710   19.9150 C   0  0  0  0  0  0  0  0  0  0  0  0
    5.4371    0.6782   20.1213 C   0  0  0  0  0  0  0  0  0  0  0  0
    4.8059    1.3128   19.0471 C   0  0  0  0  0  0  0  0  0  0  0  0
    5.4327    1.3108   17.7946 C   0  0  0  0  0  0  0  0  0  0  0  0
    6.6114    0.7176   17.5675 N   0  0  0  0  0  0  0  0  0  0  0  0
    7.2072    0.1224   18.6124 C   0  0  0  0  0  0  0  0  0  0  0  0
    8.1556   -0.3636   18.3887 H   0  0  0  0  0  0  0  0  0  0  0  0
    4.9650    1.8014   16.9413 H   0  0  0  0  0  0  0  0  0  0  0  0
    3.8502    1.8111   19.1612 H   0  0  0  0  0  0  0  0  0  0  0  0
    4.9489    0.6717   21.1027 H   0  0  0  0  0  0  0  0  0  0  0  0
    8.3736   -1.0729   20.6330 H   0  0  0  0  0  0  0  0  0  0  0  0
    5.6997   -1.5796   21.9655 H   0  0  0  0  0  0  0  0  0  0  0  0
    5.4123   -4.3570   19.7715 H   0  0  0  0  0  0  0  0  0  0  0  0
    6.1330   -4.5628   21.3922 H   0  0  0  0  0  0  0  0  0  0  0  0
    4.6858   -3.5565   21.2069 H   0  0  0  0  0  0  0  0  0  0  0  0
  1  2  1  0
  2  3  1  0
  3  4  1  0
  4  5  1  0
  5  6  1  0
  5  7  1  0
  5  8  1  0
  3  9  1  0
  9 10  1  0
 10 11  1  0
 11 12  2  0
 11 13  1  0
 13 14  2  3
 14 15  1  0
 15 16  1  0
 16 17  1  0
 17 18  1  0
 18 19  2  0
 19 20  1  0
 20 21  2  0
 21 22  1  0
 22 23  2  0
 22 24  1  0
 21 25  1  0
 20 26  1  0
 19 27  1  0
 16 28  1  0
 16 29  1  0
 15 30  1  0
 15 31  1  0
 13 32  1  0
 10 33  1  0
  9 34  1  0
 34 35  2  0
 35 36  1  0
 36 37  2  0
 37 38  1  0
 38 39  2  0
 39 40  1  0
 37 41  1  0
 36 42  1  0
 35 43  1  0
  9 44  1  0
  3 45  1  0
  1 46  1  0
  1 47  1  0
  1 48  1  0
 23 14  1  0
 39 34  1  0
 23 18  1  0
M  END
>  <plip>  (1) 
-0.14285714285714285

>  <filename>  (1) 
[H][C]([C](=[O])[N]([H])[C]([H])([c]1[c]([H])[n][c]([H])[c]([H])[c]1[H])[C]([H])([O][C]([H])([H])[H])[O][C]([H])([H])[H])=[C]1[c]2[c]([H])[c]([H])[c]([H])[c]([H])[c]2[O][C]([H])([H])[C]1([H])[H]

$$$$
