
     RDKit          3D

 33 34  0  0  0  0  0  0  0  0999 V2000
   12.3896    1.9235   21.7435 H   0  0  0  0  0  0  0  0  0  0  0  0
   11.3030    1.9483   21.6737 C   0  0  0  0  0  0  0  0  0  0  0  0
   10.7102    0.8540   21.2217 N   0  0  0  0  0  0  0  0  0  0  0  0
    9.3848    0.9431   21.0950 C   0  0  0  0  0  0  0  0  0  0  0  0
    8.7819   -0.2214   20.7975 N   0  0  0  0  0  0  0  0  0  0  0  0
    9.4770   -0.9143   21.0005 H   0  0  0  0  0  0  0  0  0  0  0  0
    7.3645   -0.4295   21.0900 C   0  0  0  0  0  0  0  0  0  0  0  0
    6.5951    0.2924   19.9880 C   0  0  0  0  0  0  0  0  0  0  0  0
    7.1097    0.2405   18.6766 C   0  0  0  0  0  0  0  0  0  0  0  0
    8.0548   -0.2654   18.4952 H   0  0  0  0  0  0  0  0  0  0  0  0
    6.5175    0.7695   17.5987 N   0  0  0  0  0  0  0  0  0  0  0  0
    5.3562    1.4073   17.8005 C   0  0  0  0  0  0  0  0  0  0  0  0
    4.9024    1.8545   16.9187 H   0  0  0  0  0  0  0  0  0  0  0  0
    4.7365    1.5024   19.0499 C   0  0  0  0  0  0  0  0  0  0  0  0
    3.7920    2.0270   19.1431 H   0  0  0  0  0  0  0  0  0  0  0  0
    5.3648    0.9340   20.1641 C   0  0  0  0  0  0  0  0  0  0  0  0
    4.9116    1.0106   21.1549 H   0  0  0  0  0  0  0  0  0  0  0  0
    6.9992    0.0467   22.5191 C   0  0  0  0  0  0  0  0  0  0  0  0
    7.6970   -0.3991   23.2359 H   0  0  0  0  0  0  0  0  0  0  0  0
    7.0370    1.1312   22.6236 H   0  0  0  0  0  0  0  0  0  0  0  0
    5.9936   -0.2781   22.7857 H   0  0  0  0  0  0  0  0  0  0  0  0
    7.0697   -1.9286   21.0025 C   0  0  0  0  0  0  0  0  0  0  0  0
    6.0263   -2.1246   21.2739 H   0  0  0  0  0  0  0  0  0  0  0  0
    7.2046   -2.2877   19.9832 H   0  0  0  0  0  0  0  0  0  0  0  0
    7.7111   -2.4986   21.6844 H   0  0  0  0  0  0  0  0  0  0  0  0
    8.6500    2.0380   21.2462 N   0  0  0  0  0  0  0  0  0  0  0  0
    9.2228    3.0420   21.9251 C   0  0  0  0  0  0  0  0  0  0  0  0
    8.2847    4.1577   22.4883 C   0  0  0  0  0  0  0  0  0  0  0  0
    7.0535    3.7195   22.8080 F   0  0  0  0  0  0  0  0  0  0  0  0
    8.1433    5.1698   21.6185 F   0  0  0  0  0  0  0  0  0  0  0  0
    8.7919    4.6853   23.6230 F   0  0  0  0  0  0  0  0  0  0  0  0
   10.6067    3.0768   22.1086 C   0  0  0  0  0  0  0  0  0  0  0  0
   11.1035    3.9247   22.5509 H   0  0  0  0  0  0  0  0  0  0  0  0
  1  2  1  0
  2  3  2  0
  3  4  1  0
  4  5  1  0
  5  6  1  0
  5  7  1  0
  7  8  1  0
  8  9  2  0
  9 10  1  0
  9 11  1  0
 11 12  2  0
 12 13  1  0
 12 14  1  0
 14 15  1  0
 14 16  2  0
 16 17  1  0
  7 18  1  0
 18 19  1  0
 18 20  1  0
 18 21  1  0
  7 22  1  0
 22 23  1  0
 22 24  1  0
 22 25  1  0
  4 26  2  0
 26 27  1  0
 27 28  1  0
 28 29  1  0
 28 30  1  0
 28 31  1  0
 27 32  2  0
 32 33  1  0
 32  2  1  0
 16  8  1  0
M  END
>  <plip>  (1) 
-0.06666666666666667

>  <filename>  (1) 
[H][c]1[n][c]([N]([H])[C]([c]2[c]([H])[n][c]([H])[c]([H])[c]2[H])([C]([H])([H])[H])[C]([H])([H])[H])[n][c]([C]([F])([F])[F])[c]1[H]

$$$$
