
     RDKit          3D

 32 34  0  0  0  0  0  0  0  0999 V2000
    6.6171   -1.7570   21.5493 O   0  0  0  0  0  0  0  0  0  0  0  0
    7.2419   -0.9541   20.8989 C   0  0  0  0  0  0  0  0  0  0  0  0
    8.6286   -0.7418   20.9985 N   0  0  0  0  0  0  0  0  0  0  0  0
    9.4373   -1.2565   22.0210 N   0  0  0  0  0  0  0  0  0  0  0  0
    9.1293   -1.1138   23.3615 C   0  0  0  0  0  0  0  0  0  0  0  0
    8.6283    0.0899   23.8267 C   0  0  0  0  0  0  0  0  0  0  0  0
    8.2664    0.2140   25.1795 C   0  0  0  0  0  0  0  0  0  0  0  0
    8.3685   -0.7552   26.0628 N   0  0  0  0  0  0  0  0  0  0  0  0
    8.8815   -1.9431   25.6289 C   0  0  0  0  0  0  0  0  0  0  0  0
    8.9932   -2.9654   26.6066 C   0  0  0  0  0  0  0  0  0  0  0  0
    9.5578   -4.1649   26.2770 C   0  0  0  0  0  0  0  0  0  0  0  0
    9.7364   -5.3627   27.5138 Cl  0  0  0  0  0  0  0  0  0  0  0  0
   10.0042   -4.4431   24.9591 C   0  0  0  0  0  0  0  0  0  0  0  0
    9.8781   -3.4766   23.9820 C   0  0  0  0  0  0  0  0  0  0  0  0
    9.3204   -2.1950   24.2913 C   0  0  0  0  0  0  0  0  0  0  0  0
   10.2032   -3.6925   22.9651 H   0  0  0  0  0  0  0  0  0  0  0  0
   10.4328   -5.4198   24.7571 H   0  0  0  0  0  0  0  0  0  0  0  0
    8.6110   -2.7424   27.5945 H   0  0  0  0  0  0  0  0  0  0  0  0
    7.8799    1.1673   25.5437 H   0  0  0  0  0  0  0  0  0  0  0  0
    8.5178    0.9406   23.1671 H   0  0  0  0  0  0  0  0  0  0  0  0
   10.0791   -1.9957   21.7619 H   0  0  0  0  0  0  0  0  0  0  0  0
    8.8685    0.1910   20.6839 H   0  0  0  0  0  0  0  0  0  0  0  0
    6.6236   -0.0718   19.8546 C   0  0  0  0  0  0  0  0  0  0  0  0
    5.4231    0.6263   20.0716 C   0  0  0  0  0  0  0  0  0  0  0  0
    4.8865    1.3472   19.0048 C   0  0  0  0  0  0  0  0  0  0  0  0
    5.5515    1.3241   17.7748 C   0  0  0  0  0  0  0  0  0  0  0  0
    6.6916    0.6543   17.5588 N   0  0  0  0  0  0  0  0  0  0  0  0
    7.2202   -0.0050   18.5932 C   0  0  0  0  0  0  0  0  0  0  0  0
    8.1617   -0.5131   18.3911 H   0  0  0  0  0  0  0  0  0  0  0  0
    5.1502    1.8563   16.9151 H   0  0  0  0  0  0  0  0  0  0  0  0
    3.9735    1.9255   19.1039 H   0  0  0  0  0  0  0  0  0  0  0  0
    4.9321    0.6250   21.0485 H   0  0  0  0  0  0  0  0  0  0  0  0
  1  2  2  0
  2  3  1  0
  3  4  1  0
  4  5  1  0
  5  6  2  0
  6  7  1  0
  7  8  2  0
  8  9  1  0
  9 10  2  0
 10 11  1  0
 11 12  1  0
 11 13  2  0
 13 14  1  0
 14 15  2  0
 14 16  1  0
 13 17  1  0
 10 18  1  0
  7 19  1  0
  6 20  1  0
  4 21  1  0
  3 22  1  0
  2 23  1  0
 23 24  2  0
 24 25  1  0
 25 26  2  0
 26 27  1  0
 27 28  2  0
 28 29  1  0
 26 30  1  0
 25 31  1  0
 24 32  1  0
 15  5  1  0
 28 23  1  0
 15  9  1  0
M  END
>  <plip>  (1) 
-0.03333333333333333

>  <filename>  (1) 
[H][c]1[n][c]([H])[c]([C](=[O])[N]([H])[N]([H])[c]2[c]([H])[c]([H])[n][c]3[c]([H])[c]([Cl])[c]([H])[c]([H])[c]23)[c]([H])[c]1[H]

$$$$
