
     RDKit          3D

 28 29  0  0  0  0  0  0  0  0999 V2000
    8.2994   -5.2797   24.0648 C   0  0  0  0  0  0  0  0  0  0  0  0
    8.5417   -3.8028   23.8653 C   0  0  0  0  0  0  0  0  0  0  0  0
    7.6599   -2.9862   23.1528 C   0  0  0  0  0  0  0  0  0  0  0  0
    7.8599   -1.6002   23.0850 C   0  0  0  0  0  0  0  0  0  0  0  0
    6.9266   -0.7309   22.2801 C   0  0  0  0  0  0  0  0  0  0  0  0
    7.4824   -0.5174   20.9534 N   0  0  0  0  0  0  0  0  0  0  0  0
    6.7526    0.0228   19.8923 C   0  0  0  0  0  0  0  0  0  0  0  0
    5.5072    0.6382   20.1215 C   0  0  0  0  0  0  0  0  0  0  0  0
    4.8448    1.2811   19.0718 C   0  0  0  0  0  0  0  0  0  0  0  0
    5.4210    1.2878   17.8010 C   0  0  0  0  0  0  0  0  0  0  0  0
    6.5774    0.6566   17.5305 N   0  0  0  0  0  0  0  0  0  0  0  0
    7.2177    0.0469   18.5405 C   0  0  0  0  0  0  0  0  0  0  0  0
    8.1572   -0.4370   18.2670 H   0  0  0  0  0  0  0  0  0  0  0  0
    4.9482    1.8266   16.9814 H   0  0  0  0  0  0  0  0  0  0  0  0
    3.9057    1.7914   19.2497 H   0  0  0  0  0  0  0  0  0  0  0  0
    5.0965    0.6273   21.1271 H   0  0  0  0  0  0  0  0  0  0  0  0
    8.2586   -1.1253   20.7286 H   0  0  0  0  0  0  0  0  0  0  0  0
    5.9493   -1.2341   22.2219 H   0  0  0  0  0  0  0  0  0  0  0  0
    6.7550    0.2314   22.7851 H   0  0  0  0  0  0  0  0  0  0  0  0
    8.9849   -1.0824   23.7265 C   0  0  0  0  0  0  0  0  0  0  0  0
    9.8880   -1.8333   24.3698 N   0  0  0  0  0  0  0  0  0  0  0  0
    9.6676   -3.1363   24.4114 C   0  0  0  0  0  0  0  0  0  0  0  0
   10.8902   -4.0788   25.2091 Cl  0  0  0  0  0  0  0  0  0  0  0  0
    9.1815   -0.0135   23.7308 H   0  0  0  0  0  0  0  0  0  0  0  0
    6.8127   -3.4211   22.6199 H   0  0  0  0  0  0  0  0  0  0  0  0
    9.1652   -5.8612   23.7346 H   0  0  0  0  0  0  0  0  0  0  0  0
    8.1409   -5.5033   25.1268 H   0  0  0  0  0  0  0  0  0  0  0  0
    7.4230   -5.6438   23.5203 H   0  0  0  0  0  0  0  0  0  0  0  0
  1  2  1  0
  2  3  2  0
  3  4  1  0
  4  5  1  0
  5  6  1  0
  6  7  1  0
  7  8  2  0
  8  9  1  0
  9 10  2  0
 10 11  1  0
 11 12  2  0
 12 13  1  0
 10 14  1  0
  9 15  1  0
  8 16  1  0
  6 17  1  0
  5 18  1  0
  5 19  1  0
  4 20  2  0
 20 21  1  0
 21 22  2  0
 22 23  1  0
 20 24  1  0
  3 25  1  0
  1 26  1  0
  1 27  1  0
  1 28  1  0
 22  2  1  0
 12  7  1  0
M  END
>  <plip>  (1) 
-0.07142857142857142

>  <filename>  (1) 
[H][c]1[n][c]([H])[c]([N]([H])[C]([H])([H])[c]2[c]([H])[n][c]([Cl])[c]([C]([H])([H])[H])[c]2[H])[c]([H])[c]1[H]

$$$$
