
     RDKit          3D

 33 35  0  0  0  0  0  0  0  0999 V2000
    4.9987    1.8324   16.9700 H   0  0  0  0  0  0  0  0  0  0  0  0
    5.4205    1.2933   17.8176 C   0  0  0  0  0  0  0  0  0  0  0  0
    6.5754    0.6505   17.5935 N   0  0  0  0  0  0  0  0  0  0  0  0
    7.1205    0.0038   18.6306 C   0  0  0  0  0  0  0  0  0  0  0  0
    8.0651   -0.4970   18.4248 H   0  0  0  0  0  0  0  0  0  0  0  0
    6.5632   -0.0566   19.9151 C   0  0  0  0  0  0  0  0  0  0  0  0
    7.3498   -0.6982   21.0350 C   0  0  2  0  0  0  0  0  0  0  0  0
    8.0427   -1.4430   20.6271 H   0  0  0  0  0  0  0  0  0  0  0  0
    6.4801   -1.3904   21.9299 O   0  0  0  0  0  0  0  0  0  0  0  0
    6.7676   -1.0505   23.2117 C   0  0  0  0  0  0  0  0  0  0  0  0
    6.3903   -1.6489   24.1782 O   0  0  0  0  0  0  0  0  0  0  0  0
    7.5278    0.0852   23.2107 N   0  0  0  0  0  0  0  0  0  0  0  0
    8.0403    0.1881   24.0690 H   0  0  0  0  0  0  0  0  0  0  0  0
    8.1043    0.3586   21.9229 C   0  0  1  0  0  0  0  0  0  0  0  0
    7.8105    1.3655   21.5801 H   0  0  0  0  0  0  0  0  0  0  0  0
    9.6194    0.3208   21.9158 C   0  0  0  0  0  0  0  0  0  0  0  0
   10.3286   -0.7751   22.4626 C   0  0  0  0  0  0  0  0  0  0  0  0
    9.6094   -1.8563   22.8277 O   0  0  0  0  0  0  0  0  0  0  0  0
   10.3006   -3.0044   23.3292 C   0  0  0  0  0  0  0  0  0  0  0  0
   10.8012   -2.7802   24.2763 H   0  0  0  0  0  0  0  0  0  0  0  0
   11.0583   -3.3386   22.6165 H   0  0  0  0  0  0  0  0  0  0  0  0
    9.5334   -3.7645   23.4697 H   0  0  0  0  0  0  0  0  0  0  0  0
   11.6452   -0.8076   22.6097 N   0  0  0  0  0  0  0  0  0  0  0  0
   12.3601    0.2221   22.1481 C   0  0  0  0  0  0  0  0  0  0  0  0
   13.4408    0.1330   22.2671 H   0  0  0  0  0  0  0  0  0  0  0  0
   11.7836    1.3156   21.5144 C   0  0  0  0  0  0  0  0  0  0  0  0
   12.4102    2.0998   21.1136 H   0  0  0  0  0  0  0  0  0  0  0  0
   10.3895    1.3619   21.3927 C   0  0  0  0  0  0  0  0  0  0  0  0
    9.9188    2.2080   20.8837 H   0  0  0  0  0  0  0  0  0  0  0  0
    5.3506    0.6147   20.1306 C   0  0  0  0  0  0  0  0  0  0  0  0
    4.8760    0.6052   21.1141 H   0  0  0  0  0  0  0  0  0  0  0  0
    4.7726    1.2978   19.0587 C   0  0  0  0  0  0  0  0  0  0  0  0
    3.8523    1.8581   19.1750 H   0  0  0  0  0  0  0  0  0  0  0  0
  1  2  1  0
  2  3  2  0
  3  4  1  0
  4  5  1  0
  4  6  2  0
  6  7  1  0
  7  8  1  6
  7  9  1  0
  9 10  1  0
 10 11  2  0
 10 12  1  0
 12 13  1  0
 12 14  1  0
 14 15  1  6
 14 16  1  0
 16 17  2  0
 17 18  1  0
 18 19  1  0
 19 20  1  0
 19 21  1  0
 19 22  1  0
 17 23  1  0
 23 24  2  0
 24 25  1  0
 24 26  1  0
 26 27  1  0
 26 28  2  0
 28 29  1  0
  6 30  1  0
 30 31  1  0
 30 32  2  0
 32 33  1  0
 32  2  1  0
 14  7  1  0
 28 16  1  0
M  END
>  <plip>  (1) 
-0.03571428571428571

>  <filename>  (1) 
[H][c]1[n][c]([H])[c]([C@]2([H])[O][C](=[O])[N]([H])[C@@]2([H])[c]2[c]([O][C]([H])([H])[H])[n][c]([H])[c]([H])[c]2[H])[c]([H])[c]1[H]

$$$$
