
     RDKit          3D

 37 39  0  0  0  0  0  0  0  0999 V2000
    9.2809    1.0311   21.1364 O   0  0  0  0  0  0  0  0  0  0  0  0
    8.5095    0.3197   21.7532 C   0  0  0  0  0  0  0  0  0  0  0  0
    7.5120   -0.6104   21.0365 C   0  0  0  0  0  0  0  0  0  0  0  0
    6.7090    0.0192   19.9002 C   0  0  0  0  0  0  0  0  0  0  0  0
    5.4844    0.6532   20.1387 C   0  0  0  0  0  0  0  0  0  0  0  0
    4.8315    1.3043   19.0858 C   0  0  0  0  0  0  0  0  0  0  0  0
    5.4228    1.2824   17.8177 C   0  0  0  0  0  0  0  0  0  0  0  0
    6.5720    0.6457   17.5482 N   0  0  0  0  0  0  0  0  0  0  0  0
    7.1793    0.0287   18.5719 C   0  0  0  0  0  0  0  0  0  0  0  0
    8.1089   -0.4860   18.3336 H   0  0  0  0  0  0  0  0  0  0  0  0
    4.9421    1.7764   16.9742 H   0  0  0  0  0  0  0  0  0  0  0  0
    3.8870    1.8198   19.2314 H   0  0  0  0  0  0  0  0  0  0  0  0
    5.0500    0.6468   21.1416 H   0  0  0  0  0  0  0  0  0  0  0  0
    8.1199   -1.4228   20.6232 H   0  0  0  0  0  0  0  0  0  0  0  0
    6.8380   -1.0648   21.7661 H   0  0  0  0  0  0  0  0  0  0  0  0
    8.6310    0.2960   23.1258 N   0  0  0  0  0  0  0  0  0  0  0  0
    7.6300   -0.1143   24.1073 C   0  0  0  0  0  0  0  0  0  0  0  0
    8.0860    0.0410   25.5817 C   0  0  0  0  0  0  0  0  0  0  0  0
    6.8173    0.3963   26.3228 C   0  0  0  0  0  0  0  0  0  0  0  0
    6.5901    0.4831   27.6952 C   0  0  0  0  0  0  0  0  0  0  0  0
    5.3162    0.8412   28.1576 C   0  0  0  0  0  0  0  0  0  0  0  0
    4.2842    1.1032   27.2361 C   0  0  0  0  0  0  0  0  0  0  0  0
    2.8941    1.5448   27.7631 C   0  0  0  0  0  0  0  0  0  0  0  0
    2.7444    1.7194   28.9996 O   0  0  0  0  0  0  0  0  0  0  0  0
    1.9492    1.7263   26.9533 O   0  0  0  0  0  1  0  0  0  0  0  0
    4.5070    1.0148   25.8546 C   0  0  0  0  0  0  0  0  0  0  0  0
    5.7895    0.6985   25.4192 C   0  0  0  0  0  0  0  0  0  0  0  0
    6.3188    0.7006   24.0209 C   0  0  0  0  0  0  0  0  0  0  0  0
    6.5689    1.7305   23.7443 H   0  0  0  0  0  0  0  0  0  0  0  0
    5.6053    0.3202   23.2855 H   0  0  0  0  0  0  0  0  0  0  0  0
    3.7116    1.1636   25.1222 H   0  0  0  0  0  0  0  0  0  0  0  0
    5.1554    0.9455   29.2301 H   0  0  0  0  0  0  0  0  0  0  0  0
    7.3977    0.2801   28.3953 H   0  0  0  0  0  0  0  0  0  0  0  0
    8.8304    0.8364   25.6938 H   0  0  0  0  0  0  0  0  0  0  0  0
    8.5531   -0.8647   25.9777 H   0  0  0  0  0  0  0  0  0  0  0  0
    7.4061   -1.1802   23.9535 H   0  0  0  0  0  0  0  0  0  0  0  0
    9.2502    1.0639   23.3512 H   0  0  0  0  0  0  0  0  0  0  0  0
  1  2  2  0
  2  3  1  0
  3  4  1  0
  4  5  2  0
  5  6  1  0
  6  7  2  0
  7  8  1  0
  8  9  2  0
  9 10  1  0
  7 11  1  0
  6 12  1  0
  5 13  1  0
  3 14  1  0
  3 15  1  0
  2 16  1  0
 16 17  1  0
 17 18  1  0
 18 19  1  0
 19 20  2  0
 20 21  1  0
 21 22  2  0
 22 23  1  0
 23 24  2  0
 23 25  1  0
 22 26  1  0
 26 27  2  0
 27 28  1  0
 28 29  1  0
 28 30  1  0
 26 31  1  0
 21 32  1  0
 20 33  1  0
 18 34  1  0
 18 35  1  0
 17 36  1  0
 16 37  1  0
  9  4  1  0
 28 17  1  0
 27 19  1  0
M  CHG  1  25  -1
M  END
>  <plip>  (1) 
-0.07142857142857142

>  <filename>  (1) 
[H][c]1[n][c]([H])[c]([C]([H])([H])[C](=[O])[N]([H])[C]2([H])[C]([H])([H])[c]3[c]([H])[c]([H])[c]([C](=[O])[O-])[c]([H])[c]3[C]2([H])[H])[c]([H])[c]1[H]

$$$$
