
     RDKit          3D

 37 38  0  0  0  0  0  0  0  0999 V2000
    5.8663   -3.2675   22.4050 C   0  0  0  0  0  0  0  0  0  0  0  0
    6.1163   -2.9713   20.9250 C   0  0  2  0  0  0  0  0  0  0  0  0
    6.3272   -4.2528   20.0839 C   0  0  0  0  0  0  0  0  0  0  0  0
    5.3123   -5.2305   20.1864 O   0  0  0  0  0  0  0  0  0  0  0  0
    5.3156   -5.6149   21.0754 H   0  0  0  0  0  0  0  0  0  0  0  0
    7.3223   -4.6742   20.3278 H   0  0  0  0  0  0  0  0  0  0  0  0
    6.3287   -3.9591   19.0278 H   0  0  0  0  0  0  0  0  0  0  0  0
    7.3112   -2.1036   20.7658 N   0  0  0  0  0  4  0  0  0  0  0  0
    7.2094   -0.6574   21.1170 C   0  0  0  0  0  0  0  0  0  0  0  0
    8.6146   -0.1456   21.4194 C   0  0  0  0  0  0  0  0  0  0  0  0
    8.7477    1.0704   22.1153 C   0  0  0  0  0  0  0  0  0  0  0  0
    9.9983    1.6542   22.3425 C   0  0  0  0  0  0  0  0  0  0  0  0
   11.1362    0.9817   21.9043 C   0  0  0  0  0  0  0  0  0  0  0  0
   12.3539    1.5072   22.1229 F   0  0  0  0  0  0  0  0  0  0  0  0
   11.0522   -0.2482   21.2604 C   0  0  0  0  0  0  0  0  0  0  0  0
    9.7959   -0.7971   21.0046 C   0  0  0  0  0  0  0  0  0  0  0  0
    9.7802   -1.7417   20.4606 H   0  0  0  0  0  0  0  0  0  0  0  0
   11.9586   -0.7614   20.9594 H   0  0  0  0  0  0  0  0  0  0  0  0
   10.1034    2.6038   22.8591 H   0  0  0  0  0  0  0  0  0  0  0  0
    7.8650    1.5615   22.5293 H   0  0  0  0  0  0  0  0  0  0  0  0
    6.5083    0.0555   19.9770 C   0  0  0  0  0  0  0  0  0  0  0  0
    5.2910    0.7308   20.1309 C   0  0  0  0  0  0  0  0  0  0  0  0
    4.7379    1.3663   19.0163 C   0  0  0  0  0  0  0  0  0  0  0  0
    5.4150    1.2931   17.7925 C   0  0  0  0  0  0  0  0  0  0  0  0
    6.5805    0.6460   17.6332 N   0  0  0  0  0  0  0  0  0  0  0  0
    7.1003    0.0431   18.7060 C   0  0  0  0  0  0  0  0  0  0  0  0
    8.0561   -0.4625   18.5609 H   0  0  0  0  0  0  0  0  0  0  0  0
    5.0022    1.7653   16.9030 H   0  0  0  0  0  0  0  0  0  0  0  0
    3.8039    1.9155   19.0774 H   0  0  0  0  0  0  0  0  0  0  0  0
    4.7822    0.7568   21.0990 H   0  0  0  0  0  0  0  0  0  0  0  0
    6.5756   -0.5229   22.0035 H   0  0  0  0  0  0  0  0  0  0  0  0
    7.5925   -2.0936   19.7605 H   0  0  0  0  0  0  0  0  0  0  0  0
    8.0865   -2.4736   21.3679 H   0  0  0  0  0  0  0  0  0  0  0  0
    5.2374   -2.4547   20.5171 H   0  0  0  0  0  0  0  0  0  0  0  0
    6.6470   -3.9268   22.8081 H   0  0  0  0  0  0  0  0  0  0  0  0
    5.9010   -2.3421   22.9887 H   0  0  0  0  0  0  0  0  0  0  0  0
    4.8801   -3.7186   22.5528 H   0  0  0  0  0  0  0  0  0  0  0  0
  1  2  1  0
  2  3  1  0
  3  4  1  0
  4  5  1  0
  3  6  1  0
  3  7  1  0
  2  8  1  0
  8  9  1  0
  9 10  1  0
 10 11  2  0
 11 12  1  0
 12 13  2  0
 13 14  1  0
 13 15  1  0
 15 16  2  0
 16 17  1  0
 15 18  1  0
 12 19  1  0
 11 20  1  0
  9 21  1  0
 21 22  2  0
 22 23  1  0
 23 24  2  0
 24 25  1  0
 25 26  2  0
 26 27  1  0
 24 28  1  0
 23 29  1  0
 22 30  1  0
  9 31  1  0
  8 32  1  0
  8 33  1  0
  2 34  1  6
  1 35  1  0
  1 36  1  0
  1 37  1  0
 16 10  1  0
 26 21  1  0
M  CHG  1   8   1
M  END
>  <plip>  (1) 
-0.10344827586206896

>  <filename>  (1) 
[H][O][C]([H])([H])[C@@]([H])([C]([H])([H])[H])[N+]([H])([H])[C]([H])([c]1[c]([H])[n][c]([H])[c]([H])[c]1[H])[c]1[c]([H])[c]([H])[c]([F])[c]([H])[c]1[H]

$$$$
