
     RDKit          3D

 26 27  0  0  0  0  0  0  0  0999 V2000
    4.9293    1.7816   16.9976 H   0  0  0  0  0  0  0  0  0  0  0  0
    5.4105    1.2872   17.8371 C   0  0  0  0  0  0  0  0  0  0  0  0
    6.5788    0.6639   17.5775 N   0  0  0  0  0  0  0  0  0  0  0  0
    7.2009    0.0449   18.5921 C   0  0  0  0  0  0  0  0  0  0  0  0
    8.1487   -0.4395   18.3628 H   0  0  0  0  0  0  0  0  0  0  0  0
    6.6521    0.0173   19.8877 C   0  0  0  0  0  0  0  0  0  0  0  0
    7.1934   -0.6052   21.0126 O   0  0  0  0  0  0  0  0  0  0  0  0
    8.4519   -1.2675   20.7194 O   0  0  0  0  0  0  0  0  0  0  0  0
    8.8727   -1.8517   21.9673 C   0  0  0  0  0  0  0  0  0  0  0  0
    9.7953   -2.3882   21.7028 H   0  0  0  0  0  0  0  0  0  0  0  0
    9.1287   -0.7759   23.0547 C   0  0  0  0  0  0  0  0  0  0  0  0
   10.1891   -0.7004   23.3054 H   0  0  0  0  0  0  0  0  0  0  0  0
    8.8367    0.1955   22.6512 H   0  0  0  0  0  0  0  0  0  0  0  0
    8.2632   -1.1602   24.2748 C   0  0  0  0  0  0  0  0  0  0  0  0
    8.8720   -1.6873   25.0183 H   0  0  0  0  0  0  0  0  0  0  0  0
    7.8538   -0.2844   24.7911 H   0  0  0  0  0  0  0  0  0  0  0  0
    7.1607   -2.0826   23.7297 C   0  0  0  0  0  0  0  0  0  0  0  0
    6.3127   -1.4896   23.3706 H   0  0  0  0  0  0  0  0  0  0  0  0
    6.7786   -2.7742   24.4889 H   0  0  0  0  0  0  0  0  0  0  0  0
    7.8110   -2.8178   22.5442 C   0  0  0  0  0  0  0  0  0  0  0  0
    8.2907   -3.7451   22.8693 H   0  0  0  0  0  0  0  0  0  0  0  0
    7.0853   -3.0869   21.7740 H   0  0  0  0  0  0  0  0  0  0  0  0
    5.4374    0.6516   20.1636 C   0  0  0  0  0  0  0  0  0  0  0  0
    5.0371    0.6144   21.1789 H   0  0  0  0  0  0  0  0  0  0  0  0
    4.8116    1.3041   19.1097 C   0  0  0  0  0  0  0  0  0  0  0  0
    3.8769    1.8393   19.2556 H   0  0  0  0  0  0  0  0  0  0  0  0
  1  2  1  0
  2  3  2  0
  3  4  1  0
  4  5  1  0
  4  6  2  0
  6  7  1  0
  7  8  1  0
  8  9  1  0
  9 10  1  0
  9 11  1  0
 11 12  1  0
 11 13  1  0
 11 14  1  0
 14 15  1  0
 14 16  1  0
 14 17  1  0
 17 18  1  0
 17 19  1  0
 17 20  1  0
 20 21  1  0
 20 22  1  0
  6 23  1  0
 23 24  1  0
 23 25  2  0
 25 26  1  0
 25  2  1  0
 20  9  1  0
M  END
>  <plip>  (1) 
-0.03571428571428571

>  <filename>  (1) 
[H][c]1[n][c]([H])[c]([O][O][C]2([H])[C]([H])([H])[C]([H])([H])[C]([H])([H])[C]2([H])[H])[c]([H])[c]1[H]

$$$$
