
     RDKit          3D

 46 47  0  0  0  0  0  0  0  0999 V2000
    8.3480    1.4036   22.0304 C   0  0  0  0  0  0  0  0  0  0  0  0
    7.6410    0.0700   22.2671 C   0  0  0  0  0  0  0  0  0  0  0  0
    8.3817   -0.8075   23.2947 C   0  0  0  0  0  0  0  0  0  0  0  0
    7.8238   -1.7202   23.5417 H   0  0  0  0  0  0  0  0  0  0  0  0
    9.3584   -1.1190   22.9029 H   0  0  0  0  0  0  0  0  0  0  0  0
    8.5410   -0.2633   24.2317 H   0  0  0  0  0  0  0  0  0  0  0  0
    7.4606   -0.6950   20.9165 C   0  0  0  0  0  0  0  0  0  0  0  0
    6.9189   -2.1057   21.1958 C   0  0  0  0  0  0  0  0  0  0  0  0
    7.5776   -3.1139   21.0146 O   0  0  0  0  0  0  0  0  0  0  0  0
    5.6667   -2.1402   21.7306 N   0  0  0  0  0  0  0  0  0  0  0  0
    5.0903   -3.3444   22.2999 C   0  0  0  0  0  0  0  0  0  0  0  0
    5.9552   -4.0249   23.3593 C   0  0  0  0  0  0  0  0  0  0  0  0
    5.9385   -3.5406   24.6742 C   0  0  0  0  0  0  0  0  0  0  0  0
    6.7267   -4.1263   25.6708 C   0  0  0  0  0  0  0  0  0  0  0  0
    7.5732   -5.1940   25.3490 C   0  0  0  0  0  0  0  0  0  0  0  0
    7.5955   -5.6869   24.0397 C   0  0  0  0  0  0  0  0  0  0  0  0
    6.7712   -5.1324   23.0490 C   0  0  0  0  0  0  0  0  0  0  0  0
    6.6052   -5.8366   21.7241 C   0  0  0  0  0  0  0  0  0  0  0  0
    5.3659   -6.7053   21.7625 C   0  0  0  0  0  0  0  0  0  0  0  0
    4.2378   -6.0568   22.1250 F   0  0  0  0  0  0  0  0  0  0  0  0
    5.1014   -7.2314   20.5599 F   0  0  0  0  0  0  0  0  0  0  0  0
    5.5522   -7.6801   22.6734 F   0  0  0  0  0  0  0  0  0  0  0  0
    6.5547   -5.1365   20.8942 H   0  0  0  0  0  0  0  0  0  0  0  0
    7.4526   -6.4933   21.5313 H   0  0  0  0  0  0  0  0  0  0  0  0
    8.2411   -6.5206   23.7810 H   0  0  0  0  0  0  0  0  0  0  0  0
    8.1965   -5.6578   26.1092 H   0  0  0  0  0  0  0  0  0  0  0  0
    6.6554   -3.7740   26.6961 H   0  0  0  0  0  0  0  0  0  0  0  0
    5.3055   -2.6857   24.9107 H   0  0  0  0  0  0  0  0  0  0  0  0
    4.8588   -4.0255   21.4848 H   0  0  0  0  0  0  0  0  0  0  0  0
    4.1351   -3.0751   22.7498 H   0  0  0  0  0  0  0  0  0  0  0  0
    5.3503   -1.2537   22.0861 H   0  0  0  0  0  0  0  0  0  0  0  0
    6.6919    0.0637   19.8151 C   0  0  0  0  0  0  0  0  0  0  0  0
    5.4631    0.7004   20.0431 C   0  0  0  0  0  0  0  0  0  0  0  0
    4.8266    1.3663   18.9868 C   0  0  0  0  0  0  0  0  0  0  0  0
    5.4295    1.3705   17.7264 C   0  0  0  0  0  0  0  0  0  0  0  0
    6.5971    0.7611   17.4734 N   0  0  0  0  0  0  0  0  0  0  0  0
    7.1981    0.1390   18.4961 C   0  0  0  0  0  0  0  0  0  0  0  0
    8.1423   -0.3467   18.2494 H   0  0  0  0  0  0  0  0  0  0  0  0
    4.9540    1.8728   16.8831 H   0  0  0  0  0  0  0  0  0  0  0  0
    3.8843    1.8810   19.1319 H   0  0  0  0  0  0  0  0  0  0  0  0
    4.9998    0.7050   21.0325 H   0  0  0  0  0  0  0  0  0  0  0  0
    8.4704   -0.8976   20.5411 H   0  0  0  0  0  0  0  0  0  0  0  0
    6.6460    0.2849   22.6901 H   0  0  0  0  0  0  0  0  0  0  0  0
    9.3430    1.2299   21.5999 H   0  0  0  0  0  0  0  0  0  0  0  0
    7.7810    2.0413   21.3399 H   0  0  0  0  0  0  0  0  0  0  0  0
    8.4732    1.9521   22.9707 H   0  0  0  0  0  0  0  0  0  0  0  0
  1  2  1  0
  2  3  1  0
  3  4  1  0
  3  5  1  0
  3  6  1  0
  2  7  1  0
  7  8  1  0
  8  9  2  0
  8 10  1  0
 10 11  1  0
 11 12  1  0
 12 13  2  0
 13 14  1  0
 14 15  2  0
 15 16  1  0
 16 17  2  0
 17 18  1  0
 18 19  1  0
 19 20  1  0
 19 21  1  0
 19 22  1  0
 18 23  1  0
 18 24  1  0
 16 25  1  0
 15 26  1  0
 14 27  1  0
 13 28  1  0
 11 29  1  0
 11 30  1  0
 10 31  1  0
  7 32  1  0
 32 33  2  0
 33 34  1  0
 34 35  2  0
 35 36  1  0
 36 37  2  0
 37 38  1  0
 35 39  1  0
 34 40  1  0
 33 41  1  0
  7 42  1  0
  2 43  1  0
  1 44  1  0
  1 45  1  0
  1 46  1  0
 17 12  1  0
 37 32  1  0
M  END
>  <plip>  (1) 
-0.13333333333333333

>  <filename>  (1) 
[H][c]1[n][c]([H])[c]([C]([H])([C](=[O])[N]([H])[C]([H])([H])[c]2[c]([H])[c]([H])[c]([H])[c]([H])[c]2[C]([H])([H])[C]([F])([F])[F])[C]([H])([C]([H])([H])[H])[C]([H])([H])[H])[c]([H])[c]1[H]

$$$$
