
     RDKit          3D

 36 37  0  0  0  0  0  0  0  0999 V2000
   13.1910    2.5195   23.1796 C   0  0  0  0  0  0  0  0  0  0  0  0
   12.0345    2.2394   23.9779 O   0  0  0  0  0  0  0  0  0  0  0  0
   12.0502    1.1726   24.8078 C   0  0  0  0  0  0  0  0  0  0  0  0
   12.9999    0.4418   24.9645 O   0  0  0  0  0  0  0  0  0  0  0  0
   10.6891    0.9343   25.4290 C   0  0  0  0  0  0  0  0  0  0  0  0
   10.0191   -0.2273   24.6792 C   0  0  0  0  0  0  0  0  0  0  0  0
    8.6199   -0.6230   25.1395 C   0  0  0  0  0  0  0  0  0  0  0  0
    8.0808   -1.8162   24.3344 C   0  0  0  0  0  0  0  0  0  0  0  0
    7.9680   -1.5550   22.9010 N   0  0  0  0  0  0  0  0  0  0  0  0
    8.8242   -1.9016   21.9012 C   0  0  0  0  0  0  0  0  0  0  0  0
    8.4672   -1.4062   20.7442 N   0  0  0  0  0  0  0  0  0  0  0  0
    7.3166   -0.6945   20.9860 C   0  0  0  0  0  0  0  0  0  0  0  0
    6.6198    0.0043   19.9021 C   0  0  0  0  0  0  0  0  0  0  0  0
    5.4024    0.6784   20.0945 C   0  0  0  0  0  0  0  0  0  0  0  0
    4.8199    1.3235   19.0059 C   0  0  0  0  0  0  0  0  0  0  0  0
    5.4721    1.2844   17.7684 C   0  0  0  0  0  0  0  0  0  0  0  0
    6.6308    0.6367   17.5627 N   0  0  0  0  0  0  0  0  0  0  0  0
    7.1815    0.0147   18.6108 C   0  0  0  0  0  0  0  0  0  0  0  0
    8.1185   -0.5068   18.4313 H   0  0  0  0  0  0  0  0  0  0  0  0
    5.0454    1.7915   16.9051 H   0  0  0  0  0  0  0  0  0  0  0  0
    3.8845    1.8618   19.1031 H   0  0  0  0  0  0  0  0  0  0  0  0
    4.9261    0.7041   21.0760 H   0  0  0  0  0  0  0  0  0  0  0  0
    6.9990   -0.7732   22.3145 C   0  0  0  0  0  0  0  0  0  0  0  0
    6.1947   -0.3596   22.9052 H   0  0  0  0  0  0  0  0  0  0  0  0
    9.6953   -2.5263   22.0690 H   0  0  0  0  0  0  0  0  0  0  0  0
    8.7287   -2.6878   24.4686 H   0  0  0  0  0  0  0  0  0  0  0  0
    7.0887   -2.0944   24.6980 H   0  0  0  0  0  0  0  0  0  0  0  0
    8.6169   -0.8882   26.2055 H   0  0  0  0  0  0  0  0  0  0  0  0
    7.9322    0.2272   25.0251 H   0  0  0  0  0  0  0  0  0  0  0  0
    9.9671    0.0281   23.6105 H   0  0  0  0  0  0  0  0  0  0  0  0
   10.6845   -1.0991   24.7566 H   0  0  0  0  0  0  0  0  0  0  0  0
   10.8535    0.6750   26.4782 H   0  0  0  0  0  0  0  0  0  0  0  0
   10.0908    1.8470   25.3870 H   0  0  0  0  0  0  0  0  0  0  0  0
   13.8205    3.2493   23.7028 H   0  0  0  0  0  0  0  0  0  0  0  0
   12.8320    2.9592   22.2466 H   0  0  0  0  0  0  0  0  0  0  0  0
   13.7517    1.6053   22.9600 H   0  0  0  0  0  0  0  0  0  0  0  0
  1  2  1  0
  2  3  1  0
  3  4  2  0
  3  5  1  0
  5  6  1  0
  6  7  1  0
  7  8  1  0
  8  9  1  0
  9 10  1  0
 10 11  2  0
 11 12  1  0
 12 13  1  0
 13 14  2  0
 14 15  1  0
 15 16  2  0
 16 17  1  0
 17 18  2  0
 18 19  1  0
 16 20  1  0
 15 21  1  0
 14 22  1  0
 12 23  2  0
 23 24  1  0
 10 25  1  0
  8 26  1  0
  8 27  1  0
  7 28  1  0
  7 29  1  0
  6 30  1  0
  6 31  1  0
  5 32  1  0
  5 33  1  0
  1 34  1  0
  1 35  1  0
  1 36  1  0
 23  9  1  0
 18 13  1  0
M  END
>  <plip>  (1) 
-0.06896551724137931

>  <filename>  (1) 
[H][c]1[n][c]([H])[c](-[c]2[n][c]([H])[n]([C]([H])([H])[C]([H])([H])[C]([H])([H])[C]([H])([H])[C](=[O])[O][C]([H])([H])[H])[c]2[H])[c]([H])[c]1[H]

$$$$
