
     RDKit          3D

 28 30  0  0  0  0  0  0  0  0999 V2000
    9.3637   -0.0869   20.0081 O   0  0  0  0  0  0  0  0  0  0  0  0
    8.5999   -0.9043   20.4921 C   0  0  0  0  0  0  0  0  0  0  0  0
    7.2700   -0.9488   20.1622 N   0  0  0  0  0  0  0  0  0  0  0  0
    6.6095   -0.0550   19.2895 C   0  0  0  0  0  0  0  0  0  0  0  0
    5.4133    0.5128   19.7328 C   0  0  0  0  0  0  0  0  0  0  0  0
    4.7258    1.3796   18.8785 C   0  0  0  0  0  0  0  0  0  0  0  0
    5.2604    1.6471   17.6111 C   0  0  0  0  0  0  0  0  0  0  0  0
    6.4010    1.0932   17.1622 N   0  0  0  0  0  0  0  0  0  0  0  0
    7.0552    0.2637   17.9847 C   0  0  0  0  0  0  0  0  0  0  0  0
    7.9617   -0.2024   17.6043 H   0  0  0  0  0  0  0  0  0  0  0  0
    4.7555    2.3192   16.9226 H   0  0  0  0  0  0  0  0  0  0  0  0
    3.7889    1.8376   19.1768 H   0  0  0  0  0  0  0  0  0  0  0  0
    5.0507    0.2788   20.7363 H   0  0  0  0  0  0  0  0  0  0  0  0
    6.6773   -1.4659   20.7926 H   0  0  0  0  0  0  0  0  0  0  0  0
    9.0713   -1.9180   21.4999 C   0  0  0  0  0  0  0  0  0  0  0  0
   10.4465   -1.9624   21.8240 C   0  0  0  0  0  0  0  0  0  0  0  0
   10.9470   -2.8307   22.7974 C   0  0  0  0  0  0  0  0  0  0  0  0
   10.1049   -3.7231   23.4809 C   0  0  0  0  0  0  0  0  0  0  0  0
    8.7699   -3.7362   23.1171 C   0  0  0  0  0  0  0  0  0  0  0  0
    8.2644   -2.8503   22.1556 C   0  0  0  0  0  0  0  0  0  0  0  0
    6.9163   -3.0888   22.0064 O   0  0  0  0  0  0  0  0  0  0  0  0
    6.5533   -4.1205   22.8584 C   0  0  0  0  0  0  0  0  0  0  0  0
    5.4539   -4.5877   22.9506 O   0  0  0  0  0  0  0  0  0  0  0  0
    7.6804   -4.4850   23.5337 N   0  0  0  0  0  0  0  0  0  0  0  0
    7.6300   -5.2765   24.1427 H   0  0  0  0  0  0  0  0  0  0  0  0
   10.4939   -4.4187   24.2186 H   0  0  0  0  0  0  0  0  0  0  0  0
   12.0145   -2.8278   22.9894 H   0  0  0  0  0  0  0  0  0  0  0  0
   11.1252   -1.2802   21.3153 H   0  0  0  0  0  0  0  0  0  0  0  0
  1  2  2  0
  2  3  1  0
  3  4  1  0
  4  5  2  0
  5  6  1  0
  6  7  2  0
  7  8  1  0
  8  9  2  0
  9 10  1  0
  7 11  1  0
  6 12  1  0
  5 13  1  0
  3 14  1  0
  2 15  1  0
 15 16  2  0
 16 17  1  0
 17 18  2  0
 18 19  1  0
 19 20  2  0
 20 21  1  0
 21 22  1  0
 22 23  2  0
 22 24  1  0
 24 25  1  0
 18 26  1  0
 17 27  1  0
 16 28  1  0
  9  4  1  0
 20 15  1  0
 24 19  1  0
M  END
>  <plip>  (1) 
-0.16666666666666666

>  <filename>  (1) 
[H][c]1[n][c]([H])[c]([N]([H])[C](=[O])[c]2[c]([H])[c]([H])[c]([H])[c]3[c]2[o][c](=[O])[n]3[H])[c]([H])[c]1[H]

$$$$
