
     RDKit          3D

 29 31  0  0  0  0  0  0  0  0999 V2000
    4.9222    1.7851   16.9866 H   0  0  0  0  0  0  0  0  0  0  0  0
    5.3989    1.2954   17.8319 C   0  0  0  0  0  0  0  0  0  0  0  0
    6.5637    0.6858   17.5736 N   0  0  0  0  0  0  0  0  0  0  0  0
    7.1792    0.0853   18.6012 C   0  0  0  0  0  0  0  0  0  0  0  0
    8.1193   -0.4182   18.3846 H   0  0  0  0  0  0  0  0  0  0  0  0
    6.6618    0.0538   19.8999 C   0  0  0  0  0  0  0  0  0  0  0  0
    7.3495   -0.7649   20.9676 C   0  0  0  0  0  0  0  0  0  0  0  0
    6.8127   -2.2438   20.9871 C   0  0  0  0  0  0  0  0  0  0  0  0
    6.0056   -2.6601   20.1703 O   0  0  0  0  0  0  0  0  0  0  0  0
    7.3314   -3.1602   22.0291 C   0  0  0  0  0  0  0  0  0  0  0  0
    8.2404   -2.7943   22.9848 O   0  0  0  0  0  0  0  0  0  0  0  0
    8.4583   -3.8853   23.7599 C   0  0  0  0  0  0  0  0  0  0  0  0
    9.1528   -3.7742   24.5823 H   0  0  0  0  0  0  0  0  0  0  0  0
    7.7177   -4.9386   23.3167 C   0  0  0  0  0  0  0  0  0  0  0  0
    7.6861   -5.9315   23.7386 H   0  0  0  0  0  0  0  0  0  0  0  0
    6.9862   -4.4687   22.1924 C   0  0  0  0  0  0  0  0  0  0  0  0
    6.2806   -4.9924   21.5609 H   0  0  0  0  0  0  0  0  0  0  0  0
    7.1470   -0.2300   22.2580 O   0  0  0  0  0  0  0  0  0  0  0  0
    8.2348    0.6351   22.5524 C   0  0  0  0  0  0  0  0  0  0  0  0
    7.9955    1.6807   22.3060 H   0  0  0  0  0  0  0  0  0  0  0  0
    8.4266    0.5580   23.6268 H   0  0  0  0  0  0  0  0  0  0  0  0
    9.3808    0.0770   21.6964 C   0  0  0  0  0  0  0  0  0  0  0  0
    9.9227    0.8656   21.1623 H   0  0  0  0  0  0  0  0  0  0  0  0
   10.0889   -0.5141   22.2853 H   0  0  0  0  0  0  0  0  0  0  0  0
    8.7478   -0.7930   20.7576 O   0  0  0  0  0  0  0  0  0  0  0  0
    5.4335    0.6712   20.1527 C   0  0  0  0  0  0  0  0  0  0  0  0
    5.0126    0.6314   21.1623 H   0  0  0  0  0  0  0  0  0  0  0  0
    4.7976    1.3186   19.0957 C   0  0  0  0  0  0  0  0  0  0  0  0
    3.8650    1.8462   19.2441 H   0  0  0  0  0  0  0  0  0  0  0  0
  1  2  1  0
  2  3  2  0
  3  4  1  0
  4  5  1  0
  4  6  2  0
  6  7  1  0
  7  8  1  0
  8  9  2  0
  8 10  1  0
 10 11  1  0
 11 12  1  0
 12 13  1  0
 12 14  2  0
 14 15  1  0
 14 16  1  0
 16 17  1  0
  7 18  1  0
 18 19  1  0
 19 20  1  0
 19 21  1  0
 19 22  1  0
 22 23  1  0
 22 24  1  0
 22 25  1  0
  6 26  1  0
 26 27  1  0
 26 28  2  0
 28 29  1  0
 28  2  1  0
 25  7  1  0
 16 10  2  0
M  END
>  <plip>  (1) 
-0.10344827586206896

>  <filename>  (1) 
[H][c]1[n][c]([H])[c]([C]2([C](=[O])[c]3[o][c]([H])[c]([H])[c]3[H])[O][C]([H])([H])[C]([H])([H])[O]2)[c]([H])[c]1[H]

$$$$
