
     RDKit          3D

 26 27  0  0  0  0  0  0  0  0999 V2000
    6.1143    1.6552   26.8171 H   0  0  0  0  0  0  0  0  0  0  0  0
    6.1688    2.4802   26.1100 C   0  0  0  0  0  0  0  0  0  0  0  0
    5.9848    3.4884   26.4715 H   0  0  0  0  0  0  0  0  0  0  0  0
    6.4851    2.2225   24.8422 C   0  0  0  0  0  0  0  0  0  0  0  0
    6.5407    2.9987   24.0893 H   0  0  0  0  0  0  0  0  0  0  0  0
    6.8205    0.8602   24.3553 C   0  0  0  0  0  0  0  0  0  0  0  0
    6.8731   -0.1295   25.0677 O   0  0  0  0  0  0  0  0  0  0  0  0
    7.0903    0.8348   23.0078 N   0  0  0  0  0  0  0  0  0  0  0  0
    6.9055    1.6936   22.5160 H   0  0  0  0  0  0  0  0  0  0  0  0
    7.4983   -0.2747   22.2686 C   0  0  0  0  0  0  0  0  0  0  0  0
    7.4039   -0.6580   20.9394 C   0  0  0  0  0  0  0  0  0  0  0  0
    6.6497    0.0020   19.8764 C   0  0  0  0  0  0  0  0  0  0  0  0
    7.1597    0.0251   18.5686 C   0  0  0  0  0  0  0  0  0  0  0  0
    8.0994   -0.4778   18.3490 H   0  0  0  0  0  0  0  0  0  0  0  0
    6.5604    0.6565   17.5546 N   0  0  0  0  0  0  0  0  0  0  0  0
    5.4075    1.2964   17.8088 C   0  0  0  0  0  0  0  0  0  0  0  0
    4.9590    1.8254   16.9702 H   0  0  0  0  0  0  0  0  0  0  0  0
    4.7900    1.3093   19.0648 C   0  0  0  0  0  0  0  0  0  0  0  0
    3.8571    1.8499   19.2046 H   0  0  0  0  0  0  0  0  0  0  0  0
    5.4214    0.6480   20.1166 C   0  0  0  0  0  0  0  0  0  0  0  0
    4.9708    0.6250   21.1102 H   0  0  0  0  0  0  0  0  0  0  0  0
    8.1230   -1.8195   20.7609 N   0  0  0  0  0  0  0  0  0  0  0  0
    8.5681   -2.1495   21.9426 C   0  0  0  0  0  0  0  0  0  0  0  0
    9.1501   -3.0361   22.1601 H   0  0  0  0  0  0  0  0  0  0  0  0
    8.2204   -1.2382   22.8918 N   0  0  0  0  0  0  0  0  0  0  0  0
    8.2446   -1.2847   23.8973 H   0  0  0  0  0  0  0  0  0  0  0  0
  1  2  1  0
  2  3  1  0
  2  4  2  3
  4  5  1  0
  4  6  1  0
  6  7  2  0
  6  8  1  0
  8  9  1  0
  8 10  1  0
 10 11  2  0
 11 12  1  0
 12 13  2  0
 13 14  1  0
 13 15  1  0
 15 16  2  0
 16 17  1  0
 16 18  1  0
 18 19  1  0
 18 20  2  0
 20 21  1  0
 11 22  1  0
 22 23  2  0
 23 24  1  0
 23 25  1  0
 25 26  1  0
 25 10  1  0
 20 12  1  0
M  END
>  <plip>  (1) 
-0.0

>  <filename>  (1) 
[H][C]([H])=[C]([H])[C](=[O])[N]([H])[c]1[c](-[c]2[c]([H])[n][c]([H])[c]([H])[c]2[H])[n][c]([H])[n]1[H]

$$$$
