
     RDKit          3D

 37 39  0  0  0  0  0  0  0  0999 V2000
    4.9103    1.8663   16.9737 H   0  0  0  0  0  0  0  0  0  0  0  0
    5.3918    1.3391   17.7933 C   0  0  0  0  0  0  0  0  0  0  0  0
    6.5592    0.7366   17.5123 N   0  0  0  0  0  0  0  0  0  0  0  0
    7.1836    0.1020   18.5124 C   0  0  0  0  0  0  0  0  0  0  0  0
    8.1249   -0.3779   18.2491 H   0  0  0  0  0  0  0  0  0  0  0  0
    6.6901   -0.0043   19.8435 C   0  0  0  0  0  0  0  0  0  0  0  0
    7.3579   -0.7107   20.8644 N   0  0  0  0  0  0  0  0  0  0  0  0
    6.6501   -1.5716   21.8143 C   0  0  0  0  0  0  0  0  0  0  0  0
    5.6168   -1.6949   21.4738 H   0  0  0  0  0  0  0  0  0  0  0  0
    6.6213   -1.1113   22.8165 H   0  0  0  0  0  0  0  0  0  0  0  0
    7.3563   -2.9283   21.9044 C   0  0  0  0  0  0  0  0  0  0  0  0
    7.2891   -3.4241   20.9270 H   0  0  0  0  0  0  0  0  0  0  0  0
    6.8343   -3.5645   22.6286 H   0  0  0  0  0  0  0  0  0  0  0  0
    8.8263   -2.7426   22.2928 C   0  0  0  0  0  0  0  0  0  0  0  0
    8.8912   -2.3467   23.3171 H   0  0  0  0  0  0  0  0  0  0  0  0
    9.3461   -3.7044   22.2881 H   0  0  0  0  0  0  0  0  0  0  0  0
    9.5091   -1.7765   21.3136 C   0  0  0  0  0  0  0  0  0  0  0  0
    9.5260   -2.2394   20.3181 H   0  0  0  0  0  0  0  0  0  0  0  0
   10.5447   -1.5699   21.5981 H   0  0  0  0  0  0  0  0  0  0  0  0
    8.7478   -0.4518   21.1603 C   0  0  2  0  0  0  0  0  0  0  0  0
    9.1684    0.1290   20.3374 H   0  0  0  0  0  0  0  0  0  0  0  0
    9.0390    0.5710   22.6682 S   0  0  0  0  0  0  0  0  0  0  0  0
    8.1125    2.0553   22.3553 C   0  0  0  0  0  0  0  0  0  0  0  0
    6.7493    2.1264   22.6899 C   0  0  0  0  0  0  0  0  0  0  0  0
    6.2603    1.2735   23.1519 H   0  0  0  0  0  0  0  0  0  0  0  0
    6.0273    3.3021   22.4680 C   0  0  0  0  0  0  0  0  0  0  0  0
    4.9588    3.3386   22.6614 H   0  0  0  0  0  0  0  0  0  0  0  0
    6.6896    4.4575   22.0478 C   0  0  0  0  0  0  0  0  0  0  0  0
    6.1389    5.3830   21.9093 H   0  0  0  0  0  0  0  0  0  0  0  0
    8.0661    4.4155   21.8077 C   0  0  0  0  0  0  0  0  0  0  0  0
    8.5783    5.3207   21.5047 H   0  0  0  0  0  0  0  0  0  0  0  0
    8.7764    3.2170   21.9383 C   0  0  0  0  0  0  0  0  0  0  0  0
    9.8528    3.1830   21.7736 H   0  0  0  0  0  0  0  0  0  0  0  0
    5.4525    0.6122   20.0949 C   0  0  0  0  0  0  0  0  0  0  0  0
    5.0460    0.5685   21.1049 H   0  0  0  0  0  0  0  0  0  0  0  0
    4.8097    1.3046   19.0662 C   0  0  0  0  0  0  0  0  0  0  0  0
    3.8745    1.8267   19.2404 H   0  0  0  0  0  0  0  0  0  0  0  0
  1  2  1  0
  2  3  2  0
  3  4  1  0
  4  5  1  0
  4  6  2  0
  6  7  1  0
  7  8  1  0
  8  9  1  0
  8 10  1  0
  8 11  1  0
 11 12  1  0
 11 13  1  0
 11 14  1  0
 14 15  1  0
 14 16  1  0
 14 17  1  0
 17 18  1  0
 17 19  1  0
 17 20  1  0
 20 21  1  6
 20 22  1  0
 22 23  1  0
 23 24  2  0
 24 25  1  0
 24 26  1  0
 26 27  1  0
 26 28  2  0
 28 29  1  0
 28 30  1  0
 30 31  1  0
 30 32  2  0
 32 33  1  0
  6 34  1  0
 34 35  1  0
 34 36  2  0
 36 37  1  0
 36  2  1  0
 20  7  1  0
 32 23  1  0
M  END
>  <plip>  (1) 
-0.03571428571428571

>  <filename>  (1) 
[H][c]1[n][c]([H])[c]([N]2[C]([H])([H])[C]([H])([H])[C]([H])([H])[C]([H])([H])[C@]2([H])[S][c]2[c]([H])[c]([H])[c]([H])[c]([H])[c]2[H])[c]([H])[c]1[H]

$$$$
