
     RDKit          3D

 47 50  0  0  0  0  0  0  0  0999 V2000
    7.5978   -4.2137   21.7920 C   0  0  0  0  0  0  0  0  0  0  0  0
    7.5646   -2.8168   21.9776 O   0  0  0  0  0  0  0  0  0  0  0  0
    6.7665   -2.1266   21.0324 C   0  0  0  0  0  0  0  0  0  0  0  0
    7.0846   -0.6173   21.0514 C   0  0  1  0  0  0  0  0  0  0  0  0
    8.5265   -0.3835   20.9799 N   0  0  0  0  0  0  0  0  0  0  0  0
    9.0393    0.8827   21.0333 C   0  0  0  0  0  0  0  0  0  0  0  0
    8.3464    1.8707   20.8645 O   0  0  0  0  0  0  0  0  0  0  0  0
   10.5187    1.0266   21.2498 C   0  0  2  0  0  0  0  0  0  0  0  0
   11.4194    0.0434   21.9456 C   0  0  0  0  0  0  0  0  0  0  0  0
   11.0371    1.3332   22.6180 C   0  0  2  0  0  0  0  0  0  0  0  0
   10.1118    1.2847   23.8288 C   0  0  0  0  0  0  0  0  0  0  0  0
   10.9832    1.0595   25.0594 C   0  0  0  0  0  0  0  0  0  0  0  0
   11.9924    2.0864   25.1184 O   0  0  0  0  0  0  0  0  0  0  0  0
   12.7616    2.1163   23.9887 C   0  0  0  0  0  0  0  0  0  0  0  0
   14.0509    4.7278   23.4860 C   0  0  0  0  0  0  0  0  0  0  0  0
   14.1973    4.5920   23.2694 C   0  0  0  0  0  0  0  0  0  0  0  0
   13.4845    4.4458   22.1394 C   0  0  0  0  0  0  0  0  0  0  0  0
   14.3859    4.9264   20.7343 Cl  0  0  0  0  0  0  0  0  0  0  0  0
   12.4826    3.3353   21.8351 C   0  0  0  0  0  0  0  0  0  0  0  0
   12.1624    2.3921   22.7757 C   0  0  0  0  0  0  0  0  0  0  0  0
   12.0291    3.3834   20.8482 H   0  0  0  0  0  0  0  0  0  0  0  0
   15.2364    4.9611   23.6907 H   0  0  0  0  0  0  0  0  0  0  0  0
   13.2559    4.5012   24.3109 H   0  0  0  0  0  0  0  0  0  0  0  0
   11.4999    0.0856   25.0147 H   0  0  0  0  0  0  0  0  0  0  0  0
   10.4472    1.1541   26.0113 H   0  0  0  0  0  0  0  0  0  0  0  0
    9.5932    2.2534   23.8927 H   0  0  0  0  0  0  0  0  0  0  0  0
    9.3573    0.4940   23.7260 H   0  0  0  0  0  0  0  0  0  0  0  0
   10.9776   -0.8715   22.3406 H   0  0  0  0  0  0  0  0  0  0  0  0
   12.4497   -0.0692   21.6297 H   0  0  0  0  0  0  0  0  0  0  0  0
   10.9334    1.6632   20.4788 H   0  0  0  0  0  0  0  0  0  0  0  0
    9.1134   -1.1326   21.2972 H   0  0  0  0  0  0  0  0  0  0  0  0
    6.3983    0.0844   19.8953 C   0  0  0  0  0  0  0  0  0  0  0  0
    5.1936    0.7756   20.0548 C   0  0  0  0  0  0  0  0  0  0  0  0
    4.6311    1.4191   18.9460 C   0  0  0  0  0  0  0  0  0  0  0  0
    5.2981    1.3415   17.7194 C   0  0  0  0  0  0  0  0  0  0  0  0
    6.4421    0.6647   17.5387 N   0  0  0  0  0  0  0  0  0  0  0  0
    6.9733    0.0681   18.6142 C   0  0  0  0  0  0  0  0  0  0  0  0
    7.9151   -0.4542   18.4512 H   0  0  0  0  0  0  0  0  0  0  0  0
    4.8980    1.8408   16.8395 H   0  0  0  0  0  0  0  0  0  0  0  0
    3.7144    1.9937   19.0273 H   0  0  0  0  0  0  0  0  0  0  0  0
    4.7137    0.8288   21.0346 H   0  0  0  0  0  0  0  0  0  0  0  0
    6.6758   -0.2099   21.9958 H   0  0  0  0  0  0  0  0  0  0  0  0
    5.6980   -2.2592   21.2680 H   0  0  0  0  0  0  0  0  0  0  0  0
    6.9318   -2.5088   20.0118 H   0  0  0  0  0  0  0  0  0  0  0  0
    8.2049   -4.6337   22.5987 H   0  0  0  0  0  0  0  0  0  0  0  0
    8.0604   -4.4893   20.8313 H   0  0  0  0  0  0  0  0  0  0  0  0
    6.5928   -4.6623   21.8352 H   0  0  0  0  0  0  0  0  0  0  0  0
  1  2  1  0
  2  3  1  0
  3  4  1  0
  4  5  1  0
  5  6  1  0
  6  7  2  0
  6  8  1  0
  8  9  1  0
 10  9  1  1
 10 11  1  0
 11 12  1  0
 12 13  1  0
 13 14  1  0
 14 15  2  0
 15 16  1  0
 16 17  2  0
 17 18  1  0
 17 19  1  0
 19 20  2  0
 19 21  1  0
 16 22  1  0
 15 23  1  0
 12 24  1  0
 12 25  1  0
 11 26  1  0
 11 27  1  0
  9 28  1  0
  9 29  1  0
  8 30  1  6
  5 31  1  0
  4 32  1  0
 32 33  2  0
 33 34  1  0
 34 35  2  0
 35 36  1  0
 36 37  2  0
 37 38  1  0
 35 39  1  0
 34 40  1  0
 33 41  1  0
  4 42  1  1
  3 43  1  0
  3 44  1  0
  1 45  1  0
  1 46  1  0
  1 47  1  0
 10  8  1  0
 20 14  1  0
 37 32  1  0
 20 10  1  0
M  END
>  <plip>  (1) 
-0.06666666666666667

>  <filename>  (1) 
[H][c]1[n][c]([H])[c]([C@]([H])([N]([H])[C](=[O])[C@]2([H])[C]([H])([H])[C@@]23[c]2[c]([H])[c]([Cl])[c]([H])[c]([H])[c]2[O][C]([H])([H])[C]3([H])[H])[C]([H])([H])[O][C]([H])([H])[H])[c]([H])[c]1[H]

$$$$
