
     RDKit          3D

 32 34  0  0  0  0  0  0  0  0999 V2000
    4.9161    1.7890   16.9899 H   0  0  0  0  0  0  0  0  0  0  0  0
    5.3971    1.2981   17.8333 C   0  0  0  0  0  0  0  0  0  0  0  0
    6.5561    0.6742   17.5738 N   0  0  0  0  0  0  0  0  0  0  0  0
    7.1686    0.0550   18.5921 C   0  0  0  0  0  0  0  0  0  0  0  0
    8.1124   -0.4325   18.3580 H   0  0  0  0  0  0  0  0  0  0  0  0
    6.6513   -0.0026   19.9024 C   0  0  0  0  0  0  0  0  0  0  0  0
    7.3255   -0.7147   20.9385 N   0  0  0  0  0  0  0  0  0  0  0  0
    6.7545   -1.7084   21.7104 C   0  0  0  0  0  0  0  0  0  0  0  0
    5.7238   -1.9811   21.5295 H   0  0  0  0  0  0  0  0  0  0  0  0
    7.6938   -2.1778   22.5972 C   0  0  0  0  0  0  0  0  0  0  0  0
    7.5522   -2.9520   23.3407 H   0  0  0  0  0  0  0  0  0  0  0  0
    8.8808   -1.4294   22.3803 C   0  0  0  0  0  0  0  0  0  0  0  0
    9.8244   -1.4963   22.9158 H   0  0  0  0  0  0  0  0  0  0  0  0
    8.6272   -0.5247   21.3824 C   0  0  0  0  0  0  0  0  0  0  0  0
    9.5562    0.5458   20.9104 C   0  0  0  0  0  0  0  0  0  0  0  0
   10.4725    0.0499   20.5937 H   0  0  0  0  0  0  0  0  0  0  0  0
    9.1522    1.1013   20.0626 H   0  0  0  0  0  0  0  0  0  0  0  0
    9.9512    1.4774   21.9561 N   0  0  0  0  0  0  0  0  0  0  0  0
    9.1532    2.4223   22.5435 C   0  0  0  0  0  0  0  0  0  0  0  0
    7.7674    2.7421   22.0927 C   0  0  0  0  0  0  0  0  0  0  0  0
    7.7086    2.8132   21.0073 H   0  0  0  0  0  0  0  0  0  0  0  0
    7.0564    1.9605   22.3860 H   0  0  0  0  0  0  0  0  0  0  0  0
    7.4508    3.6856   22.5433 H   0  0  0  0  0  0  0  0  0  0  0  0
    9.7476    2.9808   23.5709 N   0  0  0  0  0  0  0  0  0  0  0  0
   10.9626    2.3535   23.6855 C   0  0  0  0  0  0  0  0  0  0  0  0
   11.6657    2.6254   24.4599 H   0  0  0  0  0  0  0  0  0  0  0  0
   11.1066    1.4044   22.7173 C   0  0  0  0  0  0  0  0  0  0  0  0
   11.8941    0.6946   22.5070 H   0  0  0  0  0  0  0  0  0  0  0  0
    5.4346    0.6458   20.1585 C   0  0  0  0  0  0  0  0  0  0  0  0
    5.0091    0.6285   21.1663 H   0  0  0  0  0  0  0  0  0  0  0  0
    4.8072    1.3131   19.1029 C   0  0  0  0  0  0  0  0  0  0  0  0
    3.8753    1.8430   19.2558 H   0  0  0  0  0  0  0  0  0  0  0  0
  1  2  1  0
  2  3  2  0
  3  4  1  0
  4  5  1  0
  4  6  2  0
  6  7  1  0
  7  8  1  0
  8  9  1  0
  8 10  2  0
 10 11  1  0
 10 12  1  0
 12 13  1  0
 12 14  2  0
 14 15  1  0
 15 16  1  0
 15 17  1  0
 15 18  1  0
 18 19  1  0
 19 20  1  0
 20 21  1  0
 20 22  1  0
 20 23  1  0
 19 24  2  0
 24 25  1  0
 25 26  1  0
 25 27  2  0
 27 28  1  0
  6 29  1  0
 29 30  1  0
 29 31  2  0
 31 32  1  0
 31  2  1  0
 14  7  1  0
 27 18  1  0
M  END
>  <plip>  (1) 
-0.0

>  <filename>  (1) 
[H][c]1[n][c]([H])[c](-[n]2[c]([H])[c]([H])[c]([H])[c]2[C]([H])([H])[n]2[c]([C]([H])([H])[H])[n][c]([H])[c]2[H])[c]([H])[c]1[H]

$$$$
