
     RDKit          3D

 34 35  0  0  0  0  0  0  0  0999 V2000
    8.0991    1.4126   23.6186 C   0  0  0  0  0  0  0  0  0  0  0  0
    8.9249    1.3387   22.3390 C   0  0  2  0  0  0  0  0  0  0  0  0
    8.8675    0.0519   21.6351 N   0  0  0  0  0  0  0  0  0  0  0  0
    7.4981   -0.8353   21.3795 S   0  0  0  0  0  0  0  0  0  0  0  0
    6.6557   -0.8410   22.5541 O   0  0  0  0  0  0  0  0  0  0  0  0
    8.0801   -2.0615   20.8771 O   0  0  0  0  0  0  0  0  0  0  0  0
    6.7045    0.0164   20.1162 C   0  0  0  0  0  0  0  0  0  0  0  0
    5.4781    0.6704   20.2692 C   0  0  0  0  0  0  0  0  0  0  0  0
    4.9889    1.3199   19.1417 C   0  0  0  0  0  0  0  0  0  0  0  0
    5.7321    1.2790   17.9566 C   0  0  0  0  0  0  0  0  0  0  0  0
    6.9037    0.6363   17.8385 N   0  0  0  0  0  0  0  0  0  0  0  0
    7.3869    0.0080   18.9086 C   0  0  0  0  0  0  0  0  0  0  0  0
    8.3286   -0.5226   18.7644 H   0  0  0  0  0  0  0  0  0  0  0  0
    5.3642    1.7743   17.0604 H   0  0  0  0  0  0  0  0  0  0  0  0
    4.0496    1.8589   19.1639 H   0  0  0  0  0  0  0  0  0  0  0  0
    4.9249    0.6716   21.2145 H   0  0  0  0  0  0  0  0  0  0  0  0
    9.4058   -0.6935   22.0595 H   0  0  0  0  0  0  0  0  0  0  0  0
   10.4015    1.7435   22.4761 C   0  0  0  0  0  0  0  0  0  0  0  0
   10.9697    2.4717   21.4168 C   0  0  0  0  0  0  0  0  0  0  0  0
   12.2699    2.9678   21.4482 C   0  0  0  0  0  0  0  0  0  0  0  0
   13.0810    2.7038   22.5546 C   0  0  0  0  0  0  0  0  0  0  0  0
   12.5850    1.9393   23.6065 C   0  0  0  0  0  0  0  0  0  0  0  0
   11.2624    1.4666   23.5563 C   0  0  0  0  0  0  0  0  0  0  0  0
   10.8228    0.6316   24.6981 N   0  0  0  0  0  4  0  0  0  0  0  0
   10.8290    1.1403   25.8046 O   0  0  0  0  0  0  0  0  0  0  0  0
   10.4948   -0.5216   24.4627 O   0  0  0  0  0  1  0  0  0  0  0  0
   13.2358    1.6799   24.4337 H   0  0  0  0  0  0  0  0  0  0  0  0
   14.1004    3.0809   22.5769 H   0  0  0  0  0  0  0  0  0  0  0  0
   12.6394    3.5646   20.6186 H   0  0  0  0  0  0  0  0  0  0  0  0
   10.3500    2.6596   20.5538 H   0  0  0  0  0  0  0  0  0  0  0  0
    8.4942    2.0763   21.6439 H   0  0  0  0  0  0  0  0  0  0  0  0
    8.1625    2.4257   24.0250 H   0  0  0  0  0  0  0  0  0  0  0  0
    8.4156    0.7013   24.3834 H   0  0  0  0  0  0  0  0  0  0  0  0
    7.0600    1.1960   23.3671 H   0  0  0  0  0  0  0  0  0  0  0  0
  1  2  1  0
  2  3  1  0
  3  4  1  0
  4  5  2  0
  4  6  2  0
  4  7  1  0
  7  8  2  0
  8  9  1  0
  9 10  2  0
 10 11  1  0
 11 12  2  0
 12 13  1  0
 10 14  1  0
  9 15  1  0
  8 16  1  0
  3 17  1  0
  2 18  1  0
 18 19  2  0
 19 20  1  0
 20 21  2  0
 21 22  1  0
 22 23  2  0
 23 24  1  0
 24 25  2  0
 24 26  1  0
 22 27  1  0
 21 28  1  0
 20 29  1  0
 19 30  1  0
  2 31  1  6
  1 32  1  0
  1 33  1  0
  1 34  1  0
 12  7  1  0
 23 18  1  0
M  CHG  2  24   1  26  -1
M  END
>  <plip>  (1) 
-0.13793103448275862

>  <filename>  (1) 
[H][c]1[n][c]([H])[c]([S](=[O])(=[O])[N]([H])[C@]([H])([c]2[c]([H])[c]([H])[c]([H])[c]([H])[c]2[N+](=[O])[O-])[C]([H])([H])[H])[c]([H])[c]1[H]

$$$$
