
     RDKit          3D

 50 52  0  0  0  0  0  0  0  0999 V2000
    8.9849    0.0919   24.1945 C   0  0  0  0  0  0  0  0  0  0  0  0
    8.5049   -0.6287   23.0676 O   0  0  0  0  0  0  0  0  0  0  0  0
    7.8924    0.1603   22.0926 C   0  0  0  0  0  0  0  0  0  0  0  0
    8.8628    0.9814   21.4835 O   0  0  0  0  0  0  0  0  0  0  0  0
    8.4628    2.3204   21.2720 C   0  0  0  0  0  0  0  0  0  0  0  0
    8.3672    2.8717   22.2223 H   0  0  0  0  0  0  0  0  0  0  0  0
    7.5157    2.3758   20.7134 H   0  0  0  0  0  0  0  0  0  0  0  0
    9.2521    2.7924   20.6846 H   0  0  0  0  0  0  0  0  0  0  0  0
    7.2632   -0.7891   21.0301 C   0  0  0  0  0  0  0  0  0  0  0  0
    6.3183   -1.7094   21.6592 N   0  0  0  0  0  0  0  0  0  0  0  0
    5.9035   -2.8609   21.0623 C   0  0  0  0  0  0  0  0  0  0  0  0
    5.8411   -3.0153   19.8601 O   0  0  0  0  0  0  0  0  0  0  0  0
    5.4478   -3.9697   22.0482 C   0  0  0  0  0  0  0  0  0  0  0  0
    6.1977   -4.1621   23.2978 N   0  0  0  0  0  0  0  0  0  0  0  0
    7.4123   -4.9751   23.2692 C   0  0  0  0  0  0  0  0  0  0  0  0
    8.6079   -4.1495   23.7368 C   0  0  0  0  0  0  0  0  0  0  0  0
    8.3198   -3.4576   25.0535 C   0  0  0  0  0  0  0  0  0  0  0  0
    9.3383   -3.1498   25.9679 C   0  0  0  0  0  0  0  0  0  0  0  0
    9.1183   -2.2107   26.9796 C   0  0  0  0  0  0  0  0  0  0  0  0
    7.8406   -1.6485   27.1555 C   0  0  0  0  0  0  0  0  0  0  0  0
    6.7854   -2.0515   26.3393 C   0  0  0  0  0  0  0  0  0  0  0  0
    7.0159   -2.9892   25.3126 C   0  0  0  0  0  0  0  0  0  0  0  0
    5.8644   -3.4192   24.4323 C   0  0  0  0  0  0  0  0  0  0  0  0
    4.7210   -3.0470   24.6369 O   0  0  0  0  0  0  0  0  0  0  0  0
    5.7883   -1.6341   26.4698 H   0  0  0  0  0  0  0  0  0  0  0  0
    7.6770   -0.9049   27.9319 H   0  0  0  0  0  0  0  0  0  0  0  0
    9.9473   -1.8780   27.6018 H   0  0  0  0  0  0  0  0  0  0  0  0
   10.2993   -3.6586   25.8826 H   0  0  0  0  0  0  0  0  0  0  0  0
    8.8208   -3.3696   22.9912 H   0  0  0  0  0  0  0  0  0  0  0  0
    9.4998   -4.7735   23.8236 H   0  0  0  0  0  0  0  0  0  0  0  0
    7.2865   -5.8637   23.9090 H   0  0  0  0  0  0  0  0  0  0  0  0
    7.5648   -5.3340   22.2403 H   0  0  0  0  0  0  0  0  0  0  0  0
    4.4069   -3.7582   22.3050 H   0  0  0  0  0  0  0  0  0  0  0  0
    5.4764   -4.8916   21.4640 H   0  0  0  0  0  0  0  0  0  0  0  0
    6.3592   -1.7489   22.6661 H   0  0  0  0  0  0  0  0  0  0  0  0
    6.5730   -0.0597   19.9025 C   0  0  0  0  0  0  0  0  0  0  0  0
    5.3763    0.6443   20.0935 C   0  0  0  0  0  0  0  0  0  0  0  0
    4.8469    1.3583   19.0196 C   0  0  0  0  0  0  0  0  0  0  0  0
    5.5151    1.3225   17.7890 C   0  0  0  0  0  0  0  0  0  0  0  0
    6.6399    0.6264   17.5762 N   0  0  0  0  0  0  0  0  0  0  0  0
    7.1417   -0.0431   18.6257 C   0  0  0  0  0  0  0  0  0  0  0  0
    8.0630   -0.5997   18.4406 H   0  0  0  0  0  0  0  0  0  0  0  0
    5.1203    1.8650   16.9331 H   0  0  0  0  0  0  0  0  0  0  0  0
    3.9419    1.9419   19.1257 H   0  0  0  0  0  0  0  0  0  0  0  0
    4.8708    0.6225   21.0639 H   0  0  0  0  0  0  0  0  0  0  0  0
    8.1345   -1.3310   20.6304 H   0  0  0  0  0  0  0  0  0  0  0  0
    7.0883    0.7708   22.5588 H   0  0  0  0  0  0  0  0  0  0  0  0
    8.1596    0.5806   24.7385 H   0  0  0  0  0  0  0  0  0  0  0  0
    9.4556   -0.6404   24.8494 H   0  0  0  0  0  0  0  0  0  0  0  0
    9.7263    0.8504   23.9037 H   0  0  0  0  0  0  0  0  0  0  0  0
  1  2  1  0
  2  3  1  0
  3  4  1  0
  4  5  1  0
  5  6  1  0
  5  7  1  0
  5  8  1  0
  3  9  1  0
  9 10  1  0
 10 11  1  0
 11 12  2  0
 11 13  1  0
 13 14  1  0
 14 15  1  0
 15 16  1  0
 16 17  1  0
 17 18  2  0
 18 19  1  0
 19 20  2  0
 20 21  1  0
 21 22  2  0
 22 23  1  0
 23 24  2  0
 21 25  1  0
 20 26  1  0
 19 27  1  0
 18 28  1  0
 16 29  1  0
 16 30  1  0
 15 31  1  0
 15 32  1  0
 13 33  1  0
 13 34  1  0
 10 35  1  0
  9 36  1  0
 36 37  2  0
 37 38  1  0
 38 39  2  0
 39 40  1  0
 40 41  2  0
 41 42  1  0
 39 43  1  0
 38 44  1  0
 37 45  1  0
  9 46  1  0
  3 47  1  0
  1 48  1  0
  1 49  1  0
  1 50  1  0
 23 14  1  0
 41 36  1  0
 22 17  1  0
M  END
>  <plip>  (1) 
-0.1724137931034483

>  <filename>  (1) 
[H][c]1[n][c]([H])[c]([C]([H])([N]([H])[C](=[O])[C]([H])([H])[N]2[C](=[O])[c]3[c]([H])[c]([H])[c]([H])[c]([H])[c]3[C]([H])([H])[C]2([H])[H])[C]([H])([O][C]([H])([H])[H])[O][C]([H])([H])[H])[c]([H])[c]1[H]

$$$$
