
     RDKit          3D

 32 33  0  0  0  0  0  0  0  0999 V2000
    9.2943   -2.9179   22.8481 H   0  0  0  0  0  0  0  0  0  0  0  0
    8.6817   -2.1026   22.4738 C   0  0  0  0  0  0  0  0  0  0  0  0
    8.1697   -1.1436   23.1915 N   0  0  0  0  0  0  0  0  0  0  0  0
    7.4444   -0.3195   22.3820 C   0  0  0  0  0  0  0  0  0  0  0  0
    6.8413    0.7842   22.8391 O   0  0  0  0  0  0  0  0  0  0  0  0
    6.9584    1.1049   24.2355 C   0  0  0  0  0  0  0  0  0  0  0  0
    6.5485    0.2821   24.8332 H   0  0  0  0  0  0  0  0  0  0  0  0
    8.0203    1.2134   24.4956 H   0  0  0  0  0  0  0  0  0  0  0  0
    6.1663    2.3957   24.4387 C   0  0  0  0  0  0  0  0  0  0  0  0
    5.1540    2.2175   24.0539 H   0  0  0  0  0  0  0  0  0  0  0  0
    6.6068    3.1931   23.8064 H   0  0  0  0  0  0  0  0  0  0  0  0
    6.0761    2.7767   25.8469 N   0  0  0  0  0  0  0  0  0  0  0  0
    7.2953    3.3906   26.3480 C   0  0  0  0  0  0  0  0  0  0  0  0
    8.1567    2.7276   26.2090 H   0  0  0  0  0  0  0  0  0  0  0  0
    7.5194    4.3558   25.8535 H   0  0  0  0  0  0  0  0  0  0  0  0
    7.1887    3.5704   27.4233 H   0  0  0  0  0  0  0  0  0  0  0  0
    4.9119    3.5946   26.1416 C   0  0  0  0  0  0  0  0  0  0  0  0
    4.9119    4.5687   25.6162 H   0  0  0  0  0  0  0  0  0  0  0  0
    4.8774    3.7899   27.2186 H   0  0  0  0  0  0  0  0  0  0  0  0
    3.9945    3.0577   25.8735 H   0  0  0  0  0  0  0  0  0  0  0  0
    7.3739   -0.6375   21.0324 C   0  0  0  0  0  0  0  0  0  0  0  0
    6.6683    0.0238   19.9222 C   0  0  0  0  0  0  0  0  0  0  0  0
    7.1687    0.0531   18.5893 C   0  0  0  0  0  0  0  0  0  0  0  0
    8.1168   -0.4161   18.3413 H   0  0  0  0  0  0  0  0  0  0  0  0
    6.5540    0.6641   17.5683 N   0  0  0  0  0  0  0  0  0  0  0  0
    5.3943    1.2901   17.8258 C   0  0  0  0  0  0  0  0  0  0  0  0
    4.9362    1.8026   16.9808 H   0  0  0  0  0  0  0  0  0  0  0  0
    4.7931    1.3106   19.0888 C   0  0  0  0  0  0  0  0  0  0  0  0
    3.8577    1.8429   19.2268 H   0  0  0  0  0  0  0  0  0  0  0  0
    5.4413    0.6700   20.1489 C   0  0  0  0  0  0  0  0  0  0  0  0
    5.0338    0.6565   21.1572 H   0  0  0  0  0  0  0  0  0  0  0  0
    8.3372   -2.0506   20.8073 S   0  0  0  0  0  0  0  0  0  0  0  0
  1  2  1  0
  2  3  2  0
  3  4  1  0
  4  5  1  0
  5  6  1  0
  6  7  1  0
  6  8  1  0
  6  9  1  0
  9 10  1  0
  9 11  1  0
  9 12  1  0
 12 13  1  0
 13 14  1  0
 13 15  1  0
 13 16  1  0
 12 17  1  0
 17 18  1  0
 17 19  1  0
 17 20  1  0
  4 21  2  0
 21 22  1  0
 22 23  2  0
 23 24  1  0
 23 25  1  0
 25 26  2  0
 26 27  1  0
 26 28  1  0
 28 29  1  0
 28 30  2  0
 30 31  1  0
 21 32  1  0
 32  2  1  0
 30 22  1  0
M  END
>  <plip>  (1) 
-0.0

>  <filename>  (1) 
[H][c]1[n][c]([O][C]([H])([H])[C]([H])([H])[N]([C]([H])([H])[H])[C]([H])([H])[H])[c](-[c]2[c]([H])[n][c]([H])[c]([H])[c]2[H])[s]1

$$$$
