
     RDKit          3D

 53 56  0  0  0  0  0  0  0  0999 V2000
    4.5909   -6.5386   22.2318 C   0  0  0  0  0  0  0  0  0  0  0  0
    4.8154   -5.3080   23.0005 N   0  0  0  0  0  0  0  0  0  0  0  0
    5.5111   -4.2451   22.4108 C   0  0  0  0  0  0  0  0  0  0  0  0
    5.5685   -4.0970   21.1848 O   0  0  0  0  0  0  0  0  0  0  0  0
    6.1935   -3.3356   23.3428 C   0  0  0  0  0  0  0  0  0  0  0  0
    7.2947   -2.5345   22.7595 C   0  0  0  0  0  0  0  0  0  0  0  0
    6.6406   -1.8010   21.6641 N   0  0  0  0  0  4  0  0  0  0  0  0
    7.4761   -0.8207   20.9290 C   0  0  0  0  0  0  0  0  0  0  0  0
    6.6140   -0.1571   19.8862 C   0  0  0  0  0  0  0  0  0  0  0  0
    5.4313    0.5406   20.1712 C   0  0  0  0  0  0  0  0  0  0  0  0
    4.8179    1.2493   19.1375 C   0  0  0  0  0  0  0  0  0  0  0  0
    5.3755    1.2251   17.8556 C   0  0  0  0  0  0  0  0  0  0  0  0
    6.4851    0.5345   17.5575 N   0  0  0  0  0  0  0  0  0  0  0  0
    7.0736   -0.1275   18.5615 C   0  0  0  0  0  0  0  0  0  0  0  0
    7.9954   -0.6499   18.3021 H   0  0  0  0  0  0  0  0  0  0  0  0
    4.9110    1.7792   17.0399 H   0  0  0  0  0  0  0  0  0  0  0  0
    3.9268    1.8319   19.3171 H   0  0  0  0  0  0  0  0  0  0  0  0
    5.0342    0.5808   21.1914 H   0  0  0  0  0  0  0  0  0  0  0  0
    8.2653    0.1841   21.8498 C   0  0  0  0  0  0  0  0  0  0  0  0
    9.2559    1.0240   21.0159 C   0  0  0  0  0  0  0  0  0  0  0  0
   10.0941    1.9358   21.9139 C   0  0  0  0  0  0  0  0  0  0  0  0
    9.2728    2.7904   22.6916 O   0  0  0  0  0  0  0  0  0  0  0  0
    8.3849    2.0766   23.5363 C   0  0  0  0  0  0  0  0  0  0  0  0
    7.4445    1.1671   22.7283 C   0  0  0  0  0  0  0  0  0  0  0  0
    6.7616    0.6393   23.4052 H   0  0  0  0  0  0  0  0  0  0  0  0
    6.8278    1.8144   22.0923 H   0  0  0  0  0  0  0  0  0  0  0  0
    8.9683    1.4746   24.2564 H   0  0  0  0  0  0  0  0  0  0  0  0
    7.8352    2.8342   24.1075 H   0  0  0  0  0  0  0  0  0  0  0  0
   10.7585    2.5870   21.3327 H   0  0  0  0  0  0  0  0  0  0  0  0
   10.7193    1.3165   22.5820 H   0  0  0  0  0  0  0  0  0  0  0  0
    9.9117    0.3739   20.4277 H   0  0  0  0  0  0  0  0  0  0  0  0
    8.6884    1.6524   20.3175 H   0  0  0  0  0  0  0  0  0  0  0  0
    8.8490   -0.4584   22.5280 H   0  0  0  0  0  0  0  0  0  0  0  0
    8.2610   -1.3822   20.3997 H   0  0  0  0  0  0  0  0  0  0  0  0
    6.2426   -2.5533   21.0306 H   0  0  0  0  0  0  0  0  0  0  0  0
    5.8021   -1.3009   22.0355 H   0  0  0  0  0  0  0  0  0  0  0  0
    7.7126   -1.8580   23.5182 H   0  0  0  0  0  0  0  0  0  0  0  0
    8.1207   -3.1552   22.3711 H   0  0  0  0  0  0  0  0  0  0  0  0
    5.7153   -3.1929   24.6020 C   0  0  0  0  0  0  0  0  0  0  0  0
    4.7119   -4.0788   25.1068 C   0  0  0  0  0  0  0  0  0  0  0  0
    4.1208   -3.8741   26.3744 C   0  0  0  0  0  0  0  0  0  0  0  0
    3.2019   -4.7725   26.8754 C   0  0  0  0  0  0  0  0  0  0  0  0
    2.8394   -5.9026   26.1153 C   0  0  0  0  0  0  0  0  0  0  0  0
    3.3761   -6.1015   24.8488 C   0  0  0  0  0  0  0  0  0  0  0  0
    4.3021   -5.1855   24.3057 C   0  0  0  0  0  0  0  0  0  0  0  0
    3.0734   -6.9641   24.2655 H   0  0  0  0  0  0  0  0  0  0  0  0
    2.1259   -6.6195   26.5206 H   0  0  0  0  0  0  0  0  0  0  0  0
    2.7566   -4.6083   27.8528 H   0  0  0  0  0  0  0  0  0  0  0  0
    4.3941   -2.9807   26.9336 H   0  0  0  0  0  0  0  0  0  0  0  0
    6.0596   -2.3851   25.2503 H   0  0  0  0  0  0  0  0  0  0  0  0
    5.1661   -6.5016   21.3060 H   0  0  0  0  0  0  0  0  0  0  0  0
    3.5324   -6.6672   21.9771 H   0  0  0  0  0  0  0  0  0  0  0  0
    4.9100   -7.4079   22.8191 H   0  0  0  0  0  0  0  0  0  0  0  0
  1  2  1  0
  2  3  1  0
  3  4  2  0
  3  5  1  0
  5  6  1  0
  6  7  1  0
  7  8  1  0
  8  9  1  0
  9 10  2  0
 10 11  1  0
 11 12  2  0
 12 13  1  0
 13 14  2  0
 14 15  1  0
 12 16  1  0
 11 17  1  0
 10 18  1  0
  8 19  1  0
 19 20  1  0
 20 21  1  0
 21 22  1  0
 22 23  1  0
 23 24  1  0
 24 25  1  0
 24 26  1  0
 23 27  1  0
 23 28  1  0
 21 29  1  0
 21 30  1  0
 20 31  1  0
 20 32  1  0
 19 33  1  0
  8 34  1  0
  7 35  1  0
  7 36  1  0
  6 37  1  0
  6 38  1  0
  5 39  2  0
 39 40  1  0
 40 41  2  0
 41 42  1  0
 42 43  2  0
 43 44  1  0
 44 45  2  0
 44 46  1  0
 43 47  1  0
 42 48  1  0
 41 49  1  0
 39 50  1  0
  1 51  1  0
  1 52  1  0
  1 53  1  0
 45  2  1  0
 14  9  1  0
 24 19  1  0
 45 40  1  0
M  CHG  1   7   1
M  END
>  <plip>  (1) 
-0.10714285714285714

>  <filename>  (1) 
[H][c]1[n][c]([H])[c]([C]([H])([C]2([H])[C]([H])([H])[C]([H])([H])[O][C]([H])([H])[C]2([H])[H])[N+]([H])([H])[C]([H])([H])[c]2[c]([H])[c]3[c]([H])[c]([H])[c]([H])[c]([H])[c]3[n]([C]([H])([H])[H])[c]2=[O])[c]([H])[c]1[H]

$$$$
