
     RDKit          3D

 35 39  0  0  0  0  0  0  0  0999 V2000
    4.9855    1.8062   16.9797 H   0  0  0  0  0  0  0  0  0  0  0  0
    5.4230    1.2815   17.8296 C   0  0  0  0  0  0  0  0  0  0  0  0
    6.5783    0.6402   17.5982 N   0  0  0  0  0  0  0  0  0  0  0  0
    7.1532    0.0247   18.6403 C   0  0  0  0  0  0  0  0  0  0  0  0
    8.0885   -0.4922   18.4278 H   0  0  0  0  0  0  0  0  0  0  0  0
    6.6260   -0.0031   19.9474 C   0  0  0  0  0  0  0  0  0  0  0  0
    7.3587   -0.6981   21.0701 C   0  0  0  0  0  0  0  0  0  0  0  0
    7.0629   -2.1477   21.2989 C   0  0  0  0  0  0  0  0  0  0  0  0
    7.8692   -3.1557   21.1629 N   0  0  0  0  0  0  0  0  0  0  0  0
    7.1851   -4.2824   21.5486 N   0  0  0  0  0  0  0  0  0  0  0  0
    6.0183   -3.8806   21.9449 C   0  0  0  0  0  0  0  0  0  0  0  0
    4.9964   -4.7358   22.5842 C   0  0  0  0  0  0  0  0  0  0  0  0
    4.0736   -4.3569   23.4030 N   0  0  0  0  0  0  0  0  0  0  0  0
    3.4011   -5.4592   23.9107 C   0  0  0  0  0  0  0  0  0  0  0  0
    2.4004   -5.3971   24.8926 C   0  0  0  0  0  0  0  0  0  0  0  0
    2.1429   -4.4179   25.2755 H   0  0  0  0  0  0  0  0  0  0  0  0
    1.8023   -6.5711   25.3413 C   0  0  0  0  0  0  0  0  0  0  0  0
    1.0226   -6.5302   26.0956 H   0  0  0  0  0  0  0  0  0  0  0  0
    2.1919   -7.8134   24.8037 C   0  0  0  0  0  0  0  0  0  0  0  0
    1.7097   -8.7228   25.1547 H   0  0  0  0  0  0  0  0  0  0  0  0
    3.1776   -7.8925   23.8250 C   0  0  0  0  0  0  0  0  0  0  0  0
    3.4229   -8.8479   23.3798 H   0  0  0  0  0  0  0  0  0  0  0  0
    3.8107   -6.7113   23.3979 C   0  0  0  0  0  0  0  0  0  0  0  0
    5.1233   -6.4650   22.2879 S   0  0  0  0  0  0  0  0  0  0  0  0
    5.8561   -2.5409   21.7830 O   0  0  0  0  0  0  0  0  0  0  0  0
    8.7951   -0.3024   21.3074 C   0  0  0  0  0  0  0  0  0  0  0  0
    9.4589   -1.1183   21.5913 H   0  0  0  0  0  0  0  0  0  0  0  0
    9.2249    0.4622   20.6598 H   0  0  0  0  0  0  0  0  0  0  0  0
    7.7507    0.1154   22.3011 C   0  0  0  0  0  0  0  0  0  0  0  0
    7.4690    1.1692   22.3323 H   0  0  0  0  0  0  0  0  0  0  0  0
    7.7251   -0.3787   23.2715 H   0  0  0  0  0  0  0  0  0  0  0  0
    5.4065    0.6495   20.1573 C   0  0  0  0  0  0  0  0  0  0  0  0
    4.9538    0.6495   21.1515 H   0  0  0  0  0  0  0  0  0  0  0  0
    4.7964    1.2997   19.0808 C   0  0  0  0  0  0  0  0  0  0  0  0
    3.8614    1.8322   19.1977 H   0  0  0  0  0  0  0  0  0  0  0  0
  1  2  1  0
  2  3  2  0
  3  4  1  0
  4  5  1  0
  4  6  2  0
  6  7  1  0
  7  8  1  0
  8  9  2  0
  9 10  1  0
 10 11  2  0
 11 12  1  0
 12 13  2  0
 13 14  1  0
 14 15  2  0
 15 16  1  0
 15 17  1  0
 17 18  1  0
 17 19  2  0
 19 20  1  0
 19 21  1  0
 21 22  1  0
 21 23  2  0
 23 24  1  0
 11 25  1  0
  7 26  1  0
 26 27  1  0
 26 28  1  0
 26 29  1  0
 29 30  1  0
 29 31  1  0
  6 32  1  0
 32 33  1  0
 32 34  2  0
 34 35  1  0
 34  2  1  0
 29  7  1  0
 25  8  1  0
 24 12  1  0
 23 14  1  0
M  END
>  <plip>  (1) 
-0.034482758620689655

>  <filename>  (1) 
[H][c]1[n][c]([H])[c]([C]2([c]3[n][n][c](-[c]4[n][c]5[c]([H])[c]([H])[c]([H])[c]([H])[c]5[s]4)[o]3)[C]([H])([H])[C]2([H])[H])[c]([H])[c]1[H]

$$$$
