
     RDKit          3D

 23 24  0  0  0  0  0  0  0  0999 V2000
    6.0175    3.7607   24.0727 H   0  0  0  0  0  0  0  0  0  0  0  0
    6.5889    3.2242   23.3300 C   0  0  0  0  0  0  0  0  0  0  0  0
    6.9809    3.7883   22.1518 N   0  0  0  0  0  0  0  0  0  0  0  0
    7.7055    2.8610   21.6019 C   0  0  0  0  0  0  0  0  0  0  0  0
    8.2978    2.8925   20.7026 H   0  0  0  0  0  0  0  0  0  0  0  0
    7.7381    1.7594   22.3878 N   0  0  0  0  0  0  0  0  0  0  0  0
    8.6417    0.4040   21.8431 S   0  0  0  0  0  0  0  0  0  0  0  0
    9.1638   -0.3100   22.9830 O   0  0  0  0  0  0  0  0  0  0  0  0
    9.4767    0.9355   20.7750 O   0  0  0  0  0  0  0  0  0  0  0  0
    7.4199   -0.6408   21.0212 C   0  0  0  0  0  0  0  0  0  0  0  0
    8.0454   -1.4778   20.6929 H   0  0  0  0  0  0  0  0  0  0  0  0
    6.7910   -0.9735   21.8515 H   0  0  0  0  0  0  0  0  0  0  0  0
    6.6492    0.0058   19.8841 C   0  0  0  0  0  0  0  0  0  0  0  0
    7.1382    0.0477   18.5570 C   0  0  0  0  0  0  0  0  0  0  0  0
    8.0996   -0.4152   18.3325 H   0  0  0  0  0  0  0  0  0  0  0  0
    6.5305    0.6715   17.5414 N   0  0  0  0  0  0  0  0  0  0  0  0
    5.3794    1.3032   17.8187 C   0  0  0  0  0  0  0  0  0  0  0  0
    4.9057    1.8130   16.9804 H   0  0  0  0  0  0  0  0  0  0  0  0
    4.7965    1.3214   19.0892 C   0  0  0  0  0  0  0  0  0  0  0  0
    3.8667    1.8564   19.2410 H   0  0  0  0  0  0  0  0  0  0  0  0
    5.4404    0.6594   20.1428 C   0  0  0  0  0  0  0  0  0  0  0  0
    5.0273    0.6520   21.1554 H   0  0  0  0  0  0  0  0  0  0  0  0
    7.0086    1.9933   23.5366 N   0  0  0  0  0  0  0  0  0  0  0  0
  1  2  1  0
  2  3  1  0
  3  4  2  0
  4  5  1  0
  4  6  1  0
  6  7  1  0
  7  8  2  0
  7  9  2  0
  7 10  1  0
 10 11  1  0
 10 12  1  0
 10 13  1  0
 13 14  2  0
 14 15  1  0
 14 16  1  0
 16 17  2  0
 17 18  1  0
 17 19  1  0
 19 20  1  0
 19 21  2  0
 21 22  1  0
  6 23  1  0
 23  2  2  0
 21 13  1  0
M  END
>  <plip>  (1) 
-0.10714285714285714

>  <filename>  (1) 
[H][c]1[n][c]([H])[n]([S](=[O])(=[O])[C]([H])([H])[c]2[c]([H])[n][c]([H])[c]([H])[c]2[H])[n]1

$$$$
