
     RDKit          3D

 36 39  0  0  0  0  0  0  0  0999 V2000
    9.2773   -2.6265   23.6247 H   0  0  0  0  0  0  0  0  0  0  0  0
    8.7408   -2.0731   22.8536 C   0  0  0  0  0  0  0  0  0  0  0  0
    8.0837   -2.7855   21.9422 N   0  0  0  0  0  0  0  0  0  0  0  0
    7.4340   -2.0885   21.0089 C   0  0  0  0  0  0  0  0  0  0  0  0
    6.8824   -2.6641   20.2636 H   0  0  0  0  0  0  0  0  0  0  0  0
    7.4150   -0.6989   20.9548 C   0  0  0  0  0  0  0  0  0  0  0  0
    6.6614    0.0219   19.8697 C   0  0  0  0  0  0  0  0  0  0  0  0
    7.1513    0.0682   18.5498 C   0  0  0  0  0  0  0  0  0  0  0  0
    8.1039   -0.4158   18.3337 H   0  0  0  0  0  0  0  0  0  0  0  0
    6.5383    0.6889   17.5344 N   0  0  0  0  0  0  0  0  0  0  0  0
    5.3797    1.3078   17.8113 C   0  0  0  0  0  0  0  0  0  0  0  0
    4.9039    1.8133   16.9732 H   0  0  0  0  0  0  0  0  0  0  0  0
    4.7934    1.3181   19.0820 C   0  0  0  0  0  0  0  0  0  0  0  0
    3.8611    1.8486   19.2329 H   0  0  0  0  0  0  0  0  0  0  0  0
    5.4438    0.6607   20.1306 C   0  0  0  0  0  0  0  0  0  0  0  0
    5.0335    0.6321   21.1433 H   0  0  0  0  0  0  0  0  0  0  0  0
    8.1303   -0.0567   21.9889 C   0  0  0  0  0  0  0  0  0  0  0  0
    8.1385    1.4392   22.0345 C   0  0  1  0  0  0  0  0  0  0  0  0
    8.5259    1.8801   21.1143 H   0  0  0  0  0  0  0  0  0  0  0  0
    6.9837    2.1643   22.6991 C   0  0  0  0  0  0  0  0  0  0  0  0
    6.6208    3.0810   22.2308 H   0  0  0  0  0  0  0  0  0  0  0  0
    6.1962    1.5644   23.1564 H   0  0  0  0  0  0  0  0  0  0  0  0
    8.3584    2.1884   23.3199 C   0  0  2  0  0  0  0  0  0  0  0  0
    8.5346    1.5519   24.1883 H   0  0  0  0  0  0  0  0  0  0  0  0
    9.1442    3.4681   23.3272 C   0  0  0  0  0  0  0  0  0  0  0  0
   10.4273    3.5480   22.7657 C   0  0  0  0  0  0  0  0  0  0  0  0
   10.8414    2.6569   22.2986 H   0  0  0  0  0  0  0  0  0  0  0  0
   11.1304    4.7583   22.7611 C   0  0  0  0  0  0  0  0  0  0  0  0
   12.1068    4.8103   22.2847 H   0  0  0  0  0  0  0  0  0  0  0  0
   10.5551    5.9024   23.3281 C   0  0  0  0  0  0  0  0  0  0  0  0
   11.0908    6.8456   23.3151 H   0  0  0  0  0  0  0  0  0  0  0  0
    9.2842    5.8293   23.9117 C   0  0  0  0  0  0  0  0  0  0  0  0
    8.8238    6.7135   24.3461 H   0  0  0  0  0  0  0  0  0  0  0  0
    8.5908    4.6169   23.9132 C   0  0  0  0  0  0  0  0  0  0  0  0
    7.5918    4.5398   24.3365 H   0  0  0  0  0  0  0  0  0  0  0  0
    8.7941   -0.7446   22.9242 N   0  0  0  0  0  0  0  0  0  0  0  0
  1  2  1  0
  2  3  2  0
  3  4  1  0
  4  5  1  0
  4  6  2  0
  6  7  1  0
  7  8  2  0
  8  9  1  0
  8 10  1  0
 10 11  2  0
 11 12  1  0
 11 13  1  0
 13 14  1  0
 13 15  2  0
 15 16  1  0
  6 17  1  0
 17 18  1  0
 18 19  1  6
 18 20  1  0
 20 21  1  0
 20 22  1  0
 20 23  1  0
 23 24  1  1
 23 25  1  0
 25 26  2  0
 26 27  1  0
 26 28  1  0
 28 29  1  0
 28 30  2  0
 30 31  1  0
 30 32  1  0
 32 33  1  0
 32 34  2  0
 34 35  1  0
 17 36  2  0
 36  2  1  0
 15  7  1  0
 23 18  1  0
 34 25  1  0
M  END
>  <plip>  (1) 
-0.06896551724137931

>  <filename>  (1) 
[H][c]1[n][c]([H])[c](-[c]2[c]([H])[n][c]([H])[c]([H])[c]2[H])[c]([C@@]2([H])[C]([H])([H])[C@]2([H])[c]2[c]([H])[c]([H])[c]([H])[c]([H])[c]2[H])[n]1

$$$$
