
     RDKit          3D

 47 48  0  0  0  0  0  0  0  0999 V2000
    5.3775    3.2249   22.9982 C   0  0  0  0  0  0  0  0  0  0  0  0
    6.7316    3.2618   21.7886 S   0  0  0  0  0  0  0  0  0  0  0  0
    8.2294    3.1777   22.7640 C   0  0  0  0  0  0  0  0  0  0  0  0
    8.5162    4.2209   23.6578 C   0  0  0  0  0  0  0  0  0  0  0  0
    9.7377    4.3027   24.3421 C   0  0  0  0  0  0  0  0  0  0  0  0
   10.0509    5.4940   25.2188 C   0  0  0  0  0  0  0  0  0  0  0  0
   10.4546    5.2048   26.1941 H   0  0  0  0  0  0  0  0  0  0  0  0
   10.8089    6.1264   24.7408 H   0  0  0  0  0  0  0  0  0  0  0  0
    9.1739    6.1266   25.3941 H   0  0  0  0  0  0  0  0  0  0  0  0
   10.6930    3.3021   24.1016 C   0  0  0  0  0  0  0  0  0  0  0  0
   10.4476    2.2873   23.1787 C   0  0  0  0  0  0  0  0  0  0  0  0
    9.2011    2.1799   22.5305 C   0  0  0  0  0  0  0  0  0  0  0  0
    8.9874    0.9951   21.6239 C   0  0  0  0  0  0  0  0  0  0  0  0
    9.8091    0.6251   20.8049 O   0  0  0  0  0  0  0  0  0  0  0  0
    7.8475    0.2840   21.9112 N   0  0  0  0  0  0  0  0  0  0  0  0
    7.3591   -0.7103   20.9628 C   0  0  0  0  0  0  0  0  0  0  0  0
    6.5147   -1.7785   21.6847 C   0  0  0  0  0  0  0  0  0  0  0  0
    7.3508   -2.9209   22.2886 N   0  0  0  0  0  4  0  0  0  0  0  0
    6.5196   -4.1255   22.5719 C   0  0  0  0  0  0  0  0  0  0  0  0
    7.1298   -4.9121   23.0262 H   0  0  0  0  0  0  0  0  0  0  0  0
    5.7201   -3.8621   23.2740 H   0  0  0  0  0  0  0  0  0  0  0  0
    6.0606   -4.5133   21.6584 H   0  0  0  0  0  0  0  0  0  0  0  0
    8.0509   -2.4845   23.5470 C   0  0  0  0  0  0  0  0  0  0  0  0
    7.3159   -2.0848   24.2547 H   0  0  0  0  0  0  0  0  0  0  0  0
    8.7795   -1.7040   23.3257 H   0  0  0  0  0  0  0  0  0  0  0  0
    8.5525   -3.3331   24.0245 H   0  0  0  0  0  0  0  0  0  0  0  0
    8.0735   -3.1591   21.5729 H   0  0  0  0  0  0  0  0  0  0  0  0
    5.9499   -1.2995   22.4918 H   0  0  0  0  0  0  0  0  0  0  0  0
    5.7937   -2.2131   20.9898 H   0  0  0  0  0  0  0  0  0  0  0  0
    6.6215    0.0200   19.8563 C   0  0  0  0  0  0  0  0  0  0  0  0
    5.3788    0.6397   20.0373 C   0  0  0  0  0  0  0  0  0  0  0  0
    4.8070    1.3251   18.9630 C   0  0  0  0  0  0  0  0  0  0  0  0
    5.4847    1.3498   17.7386 C   0  0  0  0  0  0  0  0  0  0  0  0
    6.6711    0.7609   17.5442 N   0  0  0  0  0  0  0  0  0  0  0  0
    7.2285    0.1473   18.5975 C   0  0  0  0  0  0  0  0  0  0  0  0
    8.2206   -0.2732   18.4320 H   0  0  0  0  0  0  0  0  0  0  0  0
    5.0554    1.8633   16.8797 H   0  0  0  0  0  0  0  0  0  0  0  0
    3.8758    1.8680   19.0681 H   0  0  0  0  0  0  0  0  0  0  0  0
    4.8563    0.6181   20.9988 H   0  0  0  0  0  0  0  0  0  0  0  0
    8.2333   -1.2228   20.5449 H   0  0  0  0  0  0  0  0  0  0  0  0
    7.1327    0.9237   22.2279 H   0  0  0  0  0  0  0  0  0  0  0  0
   11.2459    1.5842   22.9370 H   0  0  0  0  0  0  0  0  0  0  0  0
   11.6458    3.3302   24.6282 H   0  0  0  0  0  0  0  0  0  0  0  0
    7.7607    4.9876   23.7961 H   0  0  0  0  0  0  0  0  0  0  0  0
    5.4088    2.3323   23.6313 H   0  0  0  0  0  0  0  0  0  0  0  0
    4.4588    3.2209   22.4056 H   0  0  0  0  0  0  0  0  0  0  0  0
    5.3712    4.1149   23.6305 H   0  0  0  0  0  0  0  0  0  0  0  0
  1  2  1  0
  2  3  1  0
  3  4  2  0
  4  5  1  0
  5  6  1  0
  6  7  1  0
  6  8  1  0
  6  9  1  0
  5 10  2  0
 10 11  1  0
 11 12  2  0
 12 13  1  0
 13 14  2  0
 13 15  1  0
 15 16  1  0
 16 17  1  0
 17 18  1  0
 18 19  1  0
 19 20  1  0
 19 21  1  0
 19 22  1  0
 18 23  1  0
 23 24  1  0
 23 25  1  0
 23 26  1  0
 18 27  1  0
 17 28  1  0
 17 29  1  0
 16 30  1  0
 30 31  2  0
 31 32  1  0
 32 33  2  0
 33 34  1  0
 34 35  2  0
 35 36  1  0
 33 37  1  0
 32 38  1  0
 31 39  1  0
 16 40  1  0
 15 41  1  0
 11 42  1  0
 10 43  1  0
  4 44  1  0
  1 45  1  0
  1 46  1  0
  1 47  1  0
 12  3  1  0
 35 30  1  0
M  CHG  1  18   1
M  END
>  <plip>  (1) 
-0.13793103448275862

>  <filename>  (1) 
[H][c]1[n][c]([H])[c]([C]([H])([N]([H])[C](=[O])[c]2[c]([H])[c]([H])[c]([C]([H])([H])[H])[c]([H])[c]2[S][C]([H])([H])[H])[C]([H])([H])[N+]([H])([C]([H])([H])[H])[C]([H])([H])[H])[c]([H])[c]1[H]

$$$$
