
     RDKit          3D

 35 38  0  0  0  0  0  0  0  0999 V2000
    4.9148    1.7875   16.9910 H   0  0  0  0  0  0  0  0  0  0  0  0
    5.3976    1.2955   17.8324 C   0  0  0  0  0  0  0  0  0  0  0  0
    6.5607    0.6761   17.5731 N   0  0  0  0  0  0  0  0  0  0  0  0
    7.1676    0.0541   18.5932 C   0  0  0  0  0  0  0  0  0  0  0  0
    8.1185   -0.4260   18.3729 H   0  0  0  0  0  0  0  0  0  0  0  0
    6.6649    0.0078   19.9186 C   0  0  0  0  0  0  0  0  0  0  0  0
    7.3617   -0.6554   20.9572 N   0  0  0  0  0  0  0  0  0  0  0  0
    7.4457   -0.3304   22.3142 C   0  0  0  0  0  0  0  0  0  0  0  0
    7.1493    1.0228   22.8131 C   0  0  0  0  0  0  0  0  0  0  0  0
    7.7275    2.1072   22.1991 C   0  0  0  0  0  0  0  0  0  0  0  0
    8.3597    1.9951   21.3201 H   0  0  0  0  0  0  0  0  0  0  0  0
    7.5922    3.3863   22.6292 N   0  0  0  0  0  0  0  0  0  0  0  0
    6.8480    3.5989   23.6918 C   0  0  0  0  0  0  0  0  0  0  0  0
    6.7423    4.6287   24.0294 H   0  0  0  0  0  0  0  0  0  0  0  0
    6.1799    2.5761   24.4268 C   0  0  0  0  0  0  0  0  0  0  0  0
    5.3806    2.8472   25.5823 C   0  0  0  0  0  0  0  0  0  0  0  0
    5.2765    3.8731   25.9329 H   0  0  0  0  0  0  0  0  0  0  0  0
    4.7416    1.8205   26.2341 C   0  0  0  0  0  0  0  0  0  0  0  0
    4.1290    2.0190   27.1121 H   0  0  0  0  0  0  0  0  0  0  0  0
    4.8685    0.4811   25.7689 C   0  0  0  0  0  0  0  0  0  0  0  0
    4.3535   -0.3242   26.2878 H   0  0  0  0  0  0  0  0  0  0  0  0
    5.6461    0.1931   24.6694 C   0  0  0  0  0  0  0  0  0  0  0  0
    5.7713   -0.8230   24.3093 H   0  0  0  0  0  0  0  0  0  0  0  0
    6.3297    1.2340   23.9688 C   0  0  0  0  0  0  0  0  0  0  0  0
    7.8716   -1.2700   23.0729 N   0  0  0  0  0  0  0  0  0  0  0  0
    8.1601   -2.4358   22.2402 C   0  0  0  0  0  0  0  0  0  0  0  0
    9.2056   -2.7499   22.3595 H   0  0  0  0  0  0  0  0  0  0  0  0
    7.5357   -3.2852   22.5483 H   0  0  0  0  0  0  0  0  0  0  0  0
    7.8679   -2.0202   20.7900 C   0  0  0  0  0  0  0  0  0  0  0  0
    7.1215   -2.6675   20.3057 H   0  0  0  0  0  0  0  0  0  0  0  0
    8.7733   -2.0189   20.1685 H   0  0  0  0  0  0  0  0  0  0  0  0
    5.4388    0.6506   20.1640 C   0  0  0  0  0  0  0  0  0  0  0  0
    5.0282    0.6346   21.1768 H   0  0  0  0  0  0  0  0  0  0  0  0
    4.8083    1.3066   19.1019 C   0  0  0  0  0  0  0  0  0  0  0  0
    3.8797    1.8389   19.2572 H   0  0  0  0  0  0  0  0  0  0  0  0
  1  2  1  0
  2  3  2  0
  3  4  1  0
  4  5  1  0
  4  6  2  0
  6  7  1  0
  7  8  1  0
  8  9  1  0
  9 10  2  0
 10 11  1  0
 10 12  1  0
 12 13  2  0
 13 14  1  0
 13 15  1  0
 15 16  2  0
 16 17  1  0
 16 18  1  0
 18 19  1  0
 18 20  2  0
 20 21  1  0
 20 22  1  0
 22 23  1  0
 22 24  2  0
  8 25  2  0
 25 26  1  0
 26 27  1  0
 26 28  1  0
 26 29  1  0
 29 30  1  0
 29 31  1  0
  6 32  1  0
 32 33  1  0
 32 34  2  0
 34 35  1  0
 34  2  1  0
 29  7  1  0
 24  9  1  0
 24 15  1  0
M  END
>  <plip>  (1) 
-0.03571428571428571

>  <filename>  (1) 
[H][c]1[n][c]([H])[c]([N]2[C]([c]3[c]([H])[n][c]([H])[c]4[c]([H])[c]([H])[c]([H])[c]([H])[c]34)=[N][C]([H])([H])[C]2([H])[H])[c]([H])[c]1[H]

$$$$
