
     RDKit          3D

 35 37  0  0  0  0  0  0  0  0999 V2000
    5.6965   -2.5944   20.9335 O   0  0  0  0  0  0  0  0  0  0  0  0
    6.4883   -1.9737   21.6177 C   0  0  0  0  0  0  0  0  0  0  0  0
    6.8118   -2.3222   22.9099 N   0  0  0  0  0  0  0  0  0  0  0  0
    6.0471   -3.1565   23.7348 C   0  0  0  0  0  0  0  0  0  0  0  0
    6.3048   -3.5548   25.0207 C   0  0  0  0  0  0  0  0  0  0  0  0
    5.3173   -4.2902   25.6167 N   0  0  0  0  0  0  0  0  0  0  0  0
    4.3073   -4.4689   24.8106 C   0  0  0  0  0  0  0  0  0  0  0  0
    3.0739   -5.1983   25.1896 C   0  0  0  0  0  0  0  0  0  0  0  0
    3.0214   -5.8577   26.4357 C   0  0  0  0  0  0  0  0  0  0  0  0
    1.8869   -6.5774   26.8108 C   0  0  0  0  0  0  0  0  0  0  0  0
    0.7826   -6.6452   25.9573 C   0  0  0  0  0  0  0  0  0  0  0  0
    0.8156   -5.9852   24.7267 C   0  0  0  0  0  0  0  0  0  0  0  0
    1.9485   -5.2624   24.3419 C   0  0  0  0  0  0  0  0  0  0  0  0
    1.9490   -4.7510   23.3821 H   0  0  0  0  0  0  0  0  0  0  0  0
   -0.0357   -6.0292   24.0556 H   0  0  0  0  0  0  0  0  0  0  0  0
   -0.0984   -7.2114   26.2489 H   0  0  0  0  0  0  0  0  0  0  0  0
    1.8720   -7.0862   27.7689 H   0  0  0  0  0  0  0  0  0  0  0  0
    3.8775   -5.7955   27.1037 H   0  0  0  0  0  0  0  0  0  0  0  0
    4.5259   -3.8012   23.2059 S   0  0  0  0  0  0  0  0  0  0  0  0
    7.2205   -3.3484   25.5693 H   0  0  0  0  0  0  0  0  0  0  0  0
    7.4634   -1.6810   23.3417 H   0  0  0  0  0  0  0  0  0  0  0  0
    7.3452   -0.7748   21.0491 C   0  0  0  0  0  0  0  0  0  0  0  0
    7.8850    0.0979   22.0514 O   0  0  0  0  0  0  0  0  0  0  0  0
    7.3466    0.9074   22.0820 H   0  0  0  0  0  0  0  0  0  0  0  0
    6.6376    0.0155   19.9579 C   0  0  0  0  0  0  0  0  0  0  0  0
    5.4121    0.6688   20.1618 C   0  0  0  0  0  0  0  0  0  0  0  0
    4.8076    1.3213   19.0854 C   0  0  0  0  0  0  0  0  0  0  0  0
    5.4421    1.3079   17.8388 C   0  0  0  0  0  0  0  0  0  0  0  0
    6.6131    0.6906   17.6219 N   0  0  0  0  0  0  0  0  0  0  0  0
    7.1819    0.0718   18.6638 C   0  0  0  0  0  0  0  0  0  0  0  0
    8.1299   -0.4233   18.4501 H   0  0  0  0  0  0  0  0  0  0  0  0
    4.9894    1.8075   16.9818 H   0  0  0  0  0  0  0  0  0  0  0  0
    3.8695    1.8513   19.1981 H   0  0  0  0  0  0  0  0  0  0  0  0
    4.9309    0.6580   21.1416 H   0  0  0  0  0  0  0  0  0  0  0  0
    8.2059   -1.2871   20.6017 H   0  0  0  0  0  0  0  0  0  0  0  0
  1  2  2  0
  2  3  1  0
  3  4  1  0
  4  5  2  0
  5  6  1  0
  6  7  2  0
  7  8  1  0
  8  9  2  0
  9 10  1  0
 10 11  2  0
 11 12  1  0
 12 13  2  0
 13 14  1  0
 12 15  1  0
 11 16  1  0
 10 17  1  0
  9 18  1  0
  7 19  1  0
  5 20  1  0
  3 21  1  0
  2 22  1  0
 22 23  1  0
 23 24  1  0
 22 25  1  0
 25 26  2  0
 26 27  1  0
 27 28  2  0
 28 29  1  0
 29 30  2  0
 30 31  1  0
 28 32  1  0
 27 33  1  0
 26 34  1  0
 22 35  1  0
 19  4  1  0
 30 25  1  0
 13  8  1  0
M  END
>  <plip>  (1) 
-0.07142857142857142

>  <filename>  (1) 
[H][O][C]([H])([C](=[O])[N]([H])[c]1[s][c](-[c]2[c]([H])[c]([H])[c]([H])[c]([H])[c]2[H])[n][c]1[H])[c]1[c]([H])[n][c]([H])[c]([H])[c]1[H]

$$$$
