
     RDKit          3D

 41 43  0  0  0  0  0  0  0  0999 V2000
    5.0635    1.8719   16.8821 H   0  0  0  0  0  0  0  0  0  0  0  0
    5.4553    1.3526   17.7565 C   0  0  0  0  0  0  0  0  0  0  0  0
    6.6185    0.7095   17.5762 N   0  0  0  0  0  0  0  0  0  0  0  0
    7.1240    0.0716   18.6384 C   0  0  0  0  0  0  0  0  0  0  0  0
    8.0693   -0.4433   18.4595 H   0  0  0  0  0  0  0  0  0  0  0  0
    6.5327    0.0334   19.9146 C   0  0  0  0  0  0  0  0  0  0  0  0
    7.3150   -0.6310   21.0413 C   0  0  2  0  0  0  0  0  0  0  0  0
    8.0215   -1.3117   20.5493 H   0  0  0  0  0  0  0  0  0  0  0  0
    6.5072   -1.4290   22.0005 N   0  0  0  0  0  0  0  0  0  0  0  0
    5.6756   -2.5183   21.5530 N   0  0  0  0  0  0  0  0  0  0  0  0
    5.1410   -3.4538   22.5917 C   0  0  0  0  0  0  0  0  0  0  0  0
    4.3853   -4.0418   22.0567 H   0  0  0  0  0  0  0  0  0  0  0  0
    4.6421   -2.9194   23.3990 H   0  0  0  0  0  0  0  0  0  0  0  0
    6.1933   -4.3852   23.2109 C   0  0  0  0  0  0  0  0  0  0  0  0
    5.6792   -5.1531   23.8010 H   0  0  0  0  0  0  0  0  0  0  0  0
    6.8160   -3.7986   23.8887 H   0  0  0  0  0  0  0  0  0  0  0  0
    7.0523   -5.0594   22.1427 C   0  0  0  0  0  0  0  0  0  0  0  0
    7.9357   -5.5333   22.6073 H   0  0  0  0  0  0  0  0  0  0  0  0
    6.3078   -6.0274   21.4261 O   0  0  0  0  0  0  0  0  0  0  0  0
    6.2033   -7.2744   22.0611 C   0  0  0  0  0  0  0  0  0  0  0  0
    5.5776   -7.2516   22.9682 H   0  0  0  0  0  0  0  0  0  0  0  0
    7.1942   -7.6988   22.2984 H   0  0  0  0  0  0  0  0  0  0  0  0
    5.7313   -7.9011   21.3238 H   0  0  0  0  0  0  0  0  0  0  0  0
    7.5294   -4.0679   21.0962 C   0  0  0  0  0  0  0  0  0  0  0  0
    8.1026   -4.6510   20.3808 H   0  0  0  0  0  0  0  0  0  0  0  0
    8.1953   -3.3391   21.5707 H   0  0  0  0  0  0  0  0  0  0  0  0
    6.3357   -3.3092   20.4911 C   0  0  0  0  0  0  0  0  0  0  0  0
    5.5880   -3.9958   20.0886 H   0  0  0  0  0  0  0  0  0  0  0  0
    6.5823   -2.6397   19.6620 H   0  0  0  0  0  0  0  0  0  0  0  0
    6.6160   -0.9560   23.3003 C   0  0  0  0  0  0  0  0  0  0  0  0
    6.2341   -1.4762   24.3361 O   0  0  0  0  0  0  0  0  0  0  0  0
    7.3621    0.3615   23.2458 C   0  0  0  0  0  0  0  0  0  0  0  0
    7.9738    0.4634   24.1435 H   0  0  0  0  0  0  0  0  0  0  0  0
    6.6206    1.1635   23.2835 H   0  0  0  0  0  0  0  0  0  0  0  0
    8.1251    0.3440   21.9233 C   0  0  0  0  0  0  0  0  0  0  0  0
    8.2192    1.3355   21.4618 H   0  0  0  0  0  0  0  0  0  0  0  0
    9.1419   -0.0494   22.0525 H   0  0  0  0  0  0  0  0  0  0  0  0
    5.2989    0.6793   20.0710 C   0  0  0  0  0  0  0  0  0  0  0  0
    4.7627    0.6402   21.0217 H   0  0  0  0  0  0  0  0  0  0  0  0
    4.7606    1.3584   18.9717 C   0  0  0  0  0  0  0  0  0  0  0  0
    3.8232    1.9006   19.0401 H   0  0  0  0  0  0  0  0  0  0  0  0
  1  2  1  0
  2  3  2  0
  3  4  1  0
  4  5  1  0
  4  6  2  0
  6  7  1  0
  7  8  1  6
  7  9  1  0
  9 10  1  0
 10 11  1  0
 11 12  1  0
 11 13  1  0
 11 14  1  0
 14 15  1  0
 14 16  1  0
 14 17  1  0
 17 18  1  0
 17 19  1  0
 19 20  1  0
 20 21  1  0
 20 22  1  0
 20 23  1  0
 17 24  1  0
 24 25  1  0
 24 26  1  0
 24 27  1  0
 27 28  1  0
 27 29  1  0
  9 30  1  0
 30 31  2  0
 30 32  1  0
 32 33  1  0
 32 34  1  0
 32 35  1  0
 35 36  1  0
 35 37  1  0
  6 38  1  0
 38 39  1  0
 38 40  2  0
 40 41  1  0
 40  2  1  0
 35  7  1  0
 27 10  1  0
M  END
>  <plip>  (1) 
-0.07142857142857142

>  <filename>  (1) 
[H][c]1[n][c]([H])[c]([C@]2([H])[N]([N]3[C]([H])([H])[C]([H])([H])[C]([H])([O][C]([H])([H])[H])[C]([H])([H])[C]3([H])[H])[C](=[O])[C]([H])([H])[C]2([H])[H])[c]([H])[c]1[H]

$$$$
