
     RDKit          3D

 17 17  0  0  0  0  0  0  0  0999 V2000
    4.9624    1.7736   17.0314 H   0  0  0  0  0  0  0  0  0  0  0  0
    5.4351    1.2736   17.8719 C   0  0  0  0  0  0  0  0  0  0  0  0
    6.6045    0.6744   17.6169 N   0  0  0  0  0  0  0  0  0  0  0  0
    7.2390    0.0784   18.6311 C   0  0  0  0  0  0  0  0  0  0  0  0
    8.1605   -0.4256   18.3292 H   0  0  0  0  0  0  0  0  0  0  0  0
    6.7073    0.0416   19.9230 C   0  0  0  0  0  0  0  0  0  0  0  0
    7.4893   -0.9683   21.1820 S   0  0  0  0  0  4  0  0  0  0  0  0
    6.4486   -1.1624   22.2178 O   0  0  0  0  0  0  0  0  0  0  0  0
    8.8990    0.4649   21.7425 S   0  0  0  0  0  0  0  0  0  0  0  0
    7.7336    1.8315   22.4840 C   0  0  0  0  0  0  0  0  0  0  0  0
    7.3498    2.6212   21.4773 F   0  0  0  0  0  0  0  0  0  0  0  0
    8.4113    2.5702   23.3612 F   0  0  0  0  0  0  0  0  0  0  0  0
    6.6560    1.3622   23.0902 F   0  0  0  0  0  0  0  0  0  0  0  0
    5.4708    0.6416   20.1924 C   0  0  0  0  0  0  0  0  0  0  0  0
    5.0293    0.5970   21.1899 H   0  0  0  0  0  0  0  0  0  0  0  0
    4.8341    1.2814   19.1315 C   0  0  0  0  0  0  0  0  0  0  0  0
    3.8915    1.7968   19.2717 H   0  0  0  0  0  0  0  0  0  0  0  0
  1  2  1  0
  2  3  2  0
  3  4  1  0
  4  5  1  0
  4  6  2  0
  6  7  1  0
  7  8  2  0
  7  9  1  6
  9 10  1  0
 10 11  1  0
 10 12  1  0
 10 13  1  0
  6 14  1  0
 14 15  1  0
 14 16  2  0
 16 17  1  0
 16  2  1  0
M  END
>  <plip>  (1) 
-0.03333333333333333

>  <filename>  (1) 
[H][c]1[n][c]([H])[c]([S@@](=[O])[S][C]([F])([F])[F])[c]([H])[c]1[H]

$$$$
