
     RDKit          3D

 37 38  0  0  0  0  0  0  0  0999 V2000
   12.1240    6.2333   23.5867 C   0  0  0  0  0  0  0  0  0  0  0  0
   10.8098    5.6571   23.1094 C   0  0  0  0  0  0  0  0  0  0  0  0
   10.7348    4.2796   22.8683 C   0  0  0  0  0  0  0  0  0  0  0  0
    9.5043    3.6622   22.5680 C   0  0  0  0  0  0  0  0  0  0  0  0
    9.4636    2.2886   22.3405 N   0  0  0  0  0  0  0  0  0  0  0  0
    8.2565    1.4977   22.1439 C   0  0  0  0  0  0  0  0  0  0  0  0
    7.4718    1.3138   23.4495 C   0  0  0  0  0  0  0  0  0  0  0  0
    7.3028    2.2728   23.9482 H   0  0  0  0  0  0  0  0  0  0  0  0
    8.0137    0.6599   24.1447 H   0  0  0  0  0  0  0  0  0  0  0  0
    6.4928    0.8617   23.2561 H   0  0  0  0  0  0  0  0  0  0  0  0
    8.6261    0.1452   21.5032 C   0  0  0  0  0  0  0  0  0  0  0  0
    7.4314   -0.6984   21.0004 C   0  0  0  0  0  0  0  0  0  0  0  0
    6.6498   -0.0088   19.9020 C   0  0  0  0  0  0  0  0  0  0  0  0
    5.4347    0.6468   20.1424 C   0  0  0  0  0  0  0  0  0  0  0  0
    4.7965    1.3139   19.0928 C   0  0  0  0  0  0  0  0  0  0  0  0
    5.3946    1.2998   17.8296 C   0  0  0  0  0  0  0  0  0  0  0  0
    6.5568    0.6822   17.5715 N   0  0  0  0  0  0  0  0  0  0  0  0
    7.1605    0.0606   18.5918 C   0  0  0  0  0  0  0  0  0  0  0  0
    8.1125   -0.4198   18.3585 H   0  0  0  0  0  0  0  0  0  0  0  0
    4.9207    1.7982   16.9860 H   0  0  0  0  0  0  0  0  0  0  0  0
    3.8658    1.8501   19.2435 H   0  0  0  0  0  0  0  0  0  0  0  0
    4.9986    0.6395   21.1440 H   0  0  0  0  0  0  0  0  0  0  0  0
    6.7571   -0.9461   21.8318 H   0  0  0  0  0  0  0  0  0  0  0  0
    7.8008   -1.6643   20.6296 H   0  0  0  0  0  0  0  0  0  0  0  0
    9.2006   -0.4454   22.2313 H   0  0  0  0  0  0  0  0  0  0  0  0
    9.2971    0.3331   20.6552 H   0  0  0  0  0  0  0  0  0  0  0  0
    7.6278    2.0611   21.4353 H   0  0  0  0  0  0  0  0  0  0  0  0
   10.3389    1.8025   22.4727 H   0  0  0  0  0  0  0  0  0  0  0  0
    8.3830    4.5359   22.4966 C   0  0  0  0  0  0  0  0  0  0  0  0
    8.4395    5.8654   22.6737 N   0  0  0  0  0  0  0  0  0  0  0  0
    9.6271    6.4159   22.9587 C   0  0  0  0  0  0  0  0  0  0  0  0
    9.6205    7.4997   23.0854 H   0  0  0  0  0  0  0  0  0  0  0  0
    7.3964    4.1238   22.3026 H   0  0  0  0  0  0  0  0  0  0  0  0
   11.6446    3.6817   22.9129 H   0  0  0  0  0  0  0  0  0  0  0  0
   12.3570    5.8680   24.5891 H   0  0  0  0  0  0  0  0  0  0  0  0
   12.9611    5.9376   22.9504 H   0  0  0  0  0  0  0  0  0  0  0  0
   12.1431    7.3217   23.6204 H   0  0  0  0  0  0  0  0  0  0  0  0
  1  2  1  0
  2  3  2  0
  3  4  1  0
  4  5  1  0
  5  6  1  0
  6  7  1  0
  7  8  1  0
  7  9  1  0
  7 10  1  0
  6 11  1  0
 11 12  1  0
 12 13  1  0
 13 14  2  0
 14 15  1  0
 15 16  2  0
 16 17  1  0
 17 18  2  0
 18 19  1  0
 16 20  1  0
 15 21  1  0
 14 22  1  0
 12 23  1  0
 12 24  1  0
 11 25  1  0
 11 26  1  0
  6 27  1  0
  5 28  1  0
  4 29  2  0
 29 30  1  0
 30 31  2  0
 31 32  1  0
 29 33  1  0
  3 34  1  0
  1 35  1  0
  1 36  1  0
  1 37  1  0
 31  2  1  0
 18 13  1  0
M  END
>  <plip>  (1) 
-0.07142857142857142

>  <filename>  (1) 
[H][c]1[n][c]([H])[c]([C]([H])([H])[C]([H])([H])[C]([H])([N]([H])[c]2[c]([H])[n][c]([H])[c]([C]([H])([H])[H])[c]2[H])[C]([H])([H])[H])[c]([H])[c]1[H]

$$$$
