
     RDKit          3D

 30 31  0  0  0  0  0  0  0  0999 V2000
    4.9251    1.8326   16.9849 H   0  0  0  0  0  0  0  0  0  0  0  0
    5.4195    1.3175   17.8089 C   0  0  0  0  0  0  0  0  0  0  0  0
    6.5764    0.7011   17.5223 N   0  0  0  0  0  0  0  0  0  0  0  0
    7.2150    0.0687   18.5146 C   0  0  0  0  0  0  0  0  0  0  0  0
    8.1467   -0.4316   18.2556 H   0  0  0  0  0  0  0  0  0  0  0  0
    6.7355    0.0043   19.8429 C   0  0  0  0  0  0  0  0  0  0  0  0
    7.4288   -0.7144   20.8855 N   0  0  0  0  0  0  0  0  0  0  0  0
    8.7318   -0.6236   21.3620 C   0  0  0  0  0  0  0  0  0  0  0  0
    9.6360    0.1936   20.7511 N   0  0  0  0  0  0  0  0  0  0  0  0
    9.1618    1.0129   20.4166 H   0  0  0  0  0  0  0  0  0  0  0  0
   10.9448    0.4108   21.3724 C   0  0  0  0  0  0  0  0  0  0  0  0
   11.4713   -0.5453   21.4396 H   0  0  0  0  0  0  0  0  0  0  0  0
   11.5529    1.0488   20.7230 H   0  0  0  0  0  0  0  0  0  0  0  0
   10.9883    1.0647   22.7669 C   0  0  0  0  0  0  0  0  0  0  0  0
   10.4997    0.4051   23.4883 H   0  0  0  0  0  0  0  0  0  0  0  0
   10.4651    2.0418   22.7846 H   0  0  0  0  0  0  0  0  0  0  0  0
   12.3443    1.1776   23.1734 O   0  0  0  0  0  0  0  0  0  0  0  0
   13.0129    2.3500   22.7727 C   0  0  0  0  0  0  0  0  0  0  0  0
   14.0811    2.1780   22.9315 H   0  0  0  0  0  0  0  0  0  0  0  0
   12.8494    2.5774   21.7088 H   0  0  0  0  0  0  0  0  0  0  0  0
   12.6983    3.2215   23.3670 H   0  0  0  0  0  0  0  0  0  0  0  0
    8.9812   -1.3935   22.3737 N   0  0  0  0  0  0  0  0  0  0  0  0
    7.7612   -2.0058   22.5990 N   0  0  0  0  0  0  0  0  0  0  0  0
    7.6527   -2.7846   23.2258 H   0  0  0  0  0  0  0  0  0  0  0  0
    6.8185   -1.7102   21.6714 C   0  0  0  0  0  0  0  0  0  0  0  0
    5.7249   -2.2270   21.5367 O   0  0  0  0  0  0  0  0  0  0  0  0
    5.5106    0.6253   20.1186 C   0  0  0  0  0  0  0  0  0  0  0  0
    5.0807    0.5580   21.1173 H   0  0  0  0  0  0  0  0  0  0  0  0
    4.8527    1.3045   19.0859 C   0  0  0  0  0  0  0  0  0  0  0  0
    3.9099    1.8117   19.2511 H   0  0  0  0  0  0  0  0  0  0  0  0
  1  2  1  0
  2  3  2  0
  3  4  1  0
  4  5  1  0
  4  6  2  0
  6  7  1  0
  7  8  1  0
  8  9  1  0
  9 10  1  0
  9 11  1  0
 11 12  1  0
 11 13  1  0
 11 14  1  0
 14 15  1  0
 14 16  1  0
 14 17  1  0
 17 18  1  0
 18 19  1  0
 18 20  1  0
 18 21  1  0
  8 22  2  0
 22 23  1  0
 23 24  1  0
 23 25  1  0
 25 26  2  0
  6 27  1  0
 27 28  1  0
 27 29  2  0
 29 30  1  0
 29  2  1  0
 25  7  1  0
M  END
>  <plip>  (1) 
-0.10714285714285714

>  <filename>  (1) 
[H][c]1[n][c]([H])[c](-[n]2[c]([N]([H])[C]([H])([H])[C]([H])([H])[O][C]([H])([H])[H])[n][n]([H])[c]2=[O])[c]([H])[c]1[H]

$$$$
