
     RDKit          3D

 36 37  0  0  0  0  0  0  0  0999 V2000
    5.1068    1.9639   16.9244 H   0  0  0  0  0  0  0  0  0  0  0  0
    5.5119    1.3830   17.7526 C   0  0  0  0  0  0  0  0  0  0  0  0
    6.6510    0.7206   17.5084 N   0  0  0  0  0  0  0  0  0  0  0  0
    7.1571   -0.0047   18.5154 C   0  0  0  0  0  0  0  0  0  0  0  0
    8.0953   -0.5126   18.3001 H   0  0  0  0  0  0  0  0  0  0  0  0
    6.5688   -0.1386   19.7879 C   0  0  0  0  0  0  0  0  0  0  0  0
    7.2069   -1.0128   20.8486 C   0  0  0  0  0  0  0  0  0  0  0  0
    7.6064   -0.4114   21.6758 H   0  0  0  0  0  0  0  0  0  0  0  0
    8.0122   -1.6283   20.4291 H   0  0  0  0  0  0  0  0  0  0  0  0
    6.0437   -2.1901   21.6415 S   0  0  0  0  0  4  0  0  0  0  0  0
    5.5193   -3.1010   20.5980 O   0  0  0  0  0  0  0  0  0  0  0  0
    7.2112   -3.0940   22.5352 N   0  0  0  0  0  0  0  0  0  0  0  0
    7.5627   -2.5045   23.8556 C   0  0  0  0  0  0  0  0  0  0  0  0
    6.6762   -2.3674   24.4986 H   0  0  0  0  0  0  0  0  0  0  0  0
    7.9724   -1.5033   23.6700 H   0  0  0  0  0  0  0  0  0  0  0  0
    8.6481   -3.2299   24.6811 C   0  0  0  0  0  0  0  0  0  0  0  0
    9.5790   -3.2868   24.0889 H   0  0  0  0  0  0  0  0  0  0  0  0
    8.8666   -2.5666   25.5272 H   0  0  0  0  0  0  0  0  0  0  0  0
    8.2350   -4.5295   25.2032 N   0  0  0  0  0  0  0  0  0  0  0  0
    8.7036   -4.8565   26.5367 C   0  0  0  0  0  0  0  0  0  0  0  0
    9.7986   -5.0107   26.5906 H   0  0  0  0  0  0  0  0  0  0  0  0
    8.2096   -5.7778   26.8700 H   0  0  0  0  0  0  0  0  0  0  0  0
    8.4303   -4.0687   27.2459 H   0  0  0  0  0  0  0  0  0  0  0  0
    8.3537   -5.6773   24.3119 C   0  0  0  0  0  0  0  0  0  0  0  0
    7.5471   -6.3558   24.6027 H   0  0  0  0  0  0  0  0  0  0  0  0
    9.2917   -6.2393   24.4702 H   0  0  0  0  0  0  0  0  0  0  0  0
    8.2105   -5.3584   22.8307 C   0  0  0  0  0  0  0  0  0  0  0  0
    9.0800   -4.7967   22.4888 H   0  0  0  0  0  0  0  0  0  0  0  0
    8.2195   -6.2993   22.2707 H   0  0  0  0  0  0  0  0  0  0  0  0
    6.9561   -4.5537   22.4952 C   0  0  0  0  0  0  0  0  0  0  0  0
    6.1265   -4.8313   23.1676 H   0  0  0  0  0  0  0  0  0  0  0  0
    6.6330   -4.8051   21.4816 H   0  0  0  0  0  0  0  0  0  0  0  0
    5.3893    0.5837   20.0256 C   0  0  0  0  0  0  0  0  0  0  0  0
    4.8954    0.5362   20.9985 H   0  0  0  0  0  0  0  0  0  0  0  0
    4.8557    1.3547   18.9860 C   0  0  0  0  0  0  0  0  0  0  0  0
    3.9516    1.9364   19.1203 H   0  0  0  0  0  0  0  0  0  0  0  0
  1  2  1  0
  2  3  2  0
  3  4  1  0
  4  5  1  0
  4  6  2  0
  6  7  1  0
  7  8  1  0
  7  9  1  0
 10  7  1  6
 10 11  2  0
 10 12  1  0
 12 13  1  0
 13 14  1  0
 13 15  1  0
 13 16  1  0
 16 17  1  0
 16 18  1  0
 16 19  1  0
 19 20  1  0
 20 21  1  0
 20 22  1  0
 20 23  1  0
 19 24  1  0
 24 25  1  0
 24 26  1  0
 24 27  1  0
 27 28  1  0
 27 29  1  0
 27 30  1  0
 30 31  1  0
 30 32  1  0
  6 33  1  0
 33 34  1  0
 33 35  2  0
 35 36  1  0
 35  2  1  0
 30 12  1  0
M  END
>  <plip>  (1) 
-0.10714285714285714

>  <filename>  (1) 
[H][c]1[n][c]([H])[c]([C]([H])([H])[S@@](=[O])[N]2[C]([H])([H])[C]([H])([H])[N]([C]([H])([H])[H])[C]([H])([H])[C]([H])([H])[C]2([H])[H])[c]([H])[c]1[H]

$$$$
