
     RDKit          3D

 47 49  0  0  0  0  0  0  0  0999 V2000
    7.3971    0.0956   22.2162 O   0  0  0  0  0  0  0  0  0  0  0  0
    7.3491   -0.6657   21.0125 C   0  0  0  0  0  0  0  0  0  0  0  0
    6.5536   -1.9487   21.3161 C   0  0  0  0  0  0  0  0  0  0  0  0
    7.1816   -2.8017   22.3690 N   0  0  0  0  0  4  0  0  0  0  0  0
    8.2901   -3.6795   21.8676 C   0  0  0  0  0  0  0  0  0  0  0  0
    8.5058   -4.7241   22.9657 C   0  0  0  0  0  0  0  0  0  0  0  0
    7.2965   -4.6008   23.9156 C   0  0  0  0  0  0  0  0  0  0  0  0
    6.2788   -3.6719   23.2360 C   0  0  0  0  0  0  0  0  0  0  0  0
    5.1634   -4.3911   22.4723 C   0  0  0  0  0  0  0  0  0  0  0  0
    4.0438   -4.8547   23.4240 C   0  0  0  0  0  0  0  0  0  0  0  0
    2.8920   -5.6089   22.7814 C   0  0  0  0  0  0  0  0  0  0  0  0
    1.5776   -5.1097   22.8249 C   0  0  0  0  0  0  0  0  0  0  0  0
    0.5183   -5.8139   22.2442 C   0  0  0  0  0  0  0  0  0  0  0  0
    0.7521   -7.0289   21.5949 C   0  0  0  0  0  0  0  0  0  0  0  0
    2.0505   -7.5454   21.5417 C   0  0  0  0  0  0  0  0  0  0  0  0
    3.1033   -6.8394   22.1363 C   0  0  0  0  0  0  0  0  0  0  0  0
    4.1220   -7.2170   22.0776 H   0  0  0  0  0  0  0  0  0  0  0  0
    2.2284   -8.4907   21.0242 H   0  0  0  0  0  0  0  0  0  0  0  0
   -0.0776   -7.5478   21.1225 H   0  0  0  0  0  0  0  0  0  0  0  0
   -0.4907   -5.4114   22.3022 H   0  0  0  0  0  0  0  0  0  0  0  0
    1.3677   -4.1671   23.3240 H   0  0  0  0  0  0  0  0  0  0  0  0
    4.4714   -5.4778   24.2244 H   0  0  0  0  0  0  0  0  0  0  0  0
    3.6552   -3.9586   23.9243 H   0  0  0  0  0  0  0  0  0  0  0  0
    5.5725   -5.2190   21.8807 H   0  0  0  0  0  0  0  0  0  0  0  0
    4.7245   -3.7067   21.7426 H   0  0  0  0  0  0  0  0  0  0  0  0
    5.7851   -3.0213   23.9711 H   0  0  0  0  0  0  0  0  0  0  0  0
    6.8586   -5.5744   24.1620 H   0  0  0  0  0  0  0  0  0  0  0  0
    7.6052   -4.1464   24.8611 H   0  0  0  0  0  0  0  0  0  0  0  0
    9.4394   -4.5338   23.5017 H   0  0  0  0  0  0  0  0  0  0  0  0
    8.5893   -5.7243   22.5307 H   0  0  0  0  0  0  0  0  0  0  0  0
    7.9763   -4.1486   20.9275 H   0  0  0  0  0  0  0  0  0  0  0  0
    9.1878   -3.0864   21.6607 H   0  0  0  0  0  0  0  0  0  0  0  0
    7.5888   -2.1034   23.0404 H   0  0  0  0  0  0  0  0  0  0  0  0
    6.4330   -2.5215   20.3872 H   0  0  0  0  0  0  0  0  0  0  0  0
    5.5561   -1.6232   21.6368 H   0  0  0  0  0  0  0  0  0  0  0  0
    6.6796    0.1192   19.9093 C   0  0  0  0  0  0  0  0  0  0  0  0
    5.4537    0.7777   20.1116 C   0  0  0  0  0  0  0  0  0  0  0  0
    4.8396    1.4085   19.0320 C   0  0  0  0  0  0  0  0  0  0  0  0
    5.4629    1.3575   17.7806 C   0  0  0  0  0  0  0  0  0  0  0  0
    6.6294    0.7338   17.5642 N   0  0  0  0  0  0  0  0  0  0  0  0
    7.2159    0.1458   18.6155 C   0  0  0  0  0  0  0  0  0  0  0  0
    8.1773   -0.3305   18.4123 H   0  0  0  0  0  0  0  0  0  0  0  0
    5.0010    1.8352   16.9170 H   0  0  0  0  0  0  0  0  0  0  0  0
    3.9107    1.9553   19.1511 H   0  0  0  0  0  0  0  0  0  0  0  0
    4.9909    0.7971   21.1018 H   0  0  0  0  0  0  0  0  0  0  0  0
    8.3786   -0.9334   20.7113 H   0  0  0  0  0  0  0  0  0  0  0  0
    7.2835    1.0159   21.9427 H   0  0  0  0  0  0  0  0  0  0  0  0
  1  2  1  0
  2  3  1  0
  3  4  1  0
  4  5  1  0
  5  6  1  0
  6  7  1  0
  7  8  1  0
  8  9  1  0
  9 10  1  0
 10 11  1  0
 11 12  2  0
 12 13  1  0
 13 14  2  0
 14 15  1  0
 15 16  2  0
 16 17  1  0
 15 18  1  0
 14 19  1  0
 13 20  1  0
 12 21  1  0
 10 22  1  0
 10 23  1  0
  9 24  1  0
  9 25  1  0
  8 26  1  0
  7 27  1  0
  7 28  1  0
  6 29  1  0
  6 30  1  0
  5 31  1  0
  5 32  1  0
  4 33  1  0
  3 34  1  0
  3 35  1  0
  2 36  1  0
 36 37  2  0
 37 38  1  0
 38 39  2  0
 39 40  1  0
 40 41  2  0
 41 42  1  0
 39 43  1  0
 38 44  1  0
 37 45  1  0
  2 46  1  0
  1 47  1  0
  8  4  1  0
 16 11  1  0
 41 36  1  0
M  CHG  1   4   1
M  END
>  <plip>  (1) 
-0.034482758620689655

>  <filename>  (1) 
[H][O][C]([H])([c]1[c]([H])[n][c]([H])[c]([H])[c]1[H])[C]([H])([H])[N+]1([H])[C]([H])([H])[C]([H])([H])[C]([H])([H])[C]1([H])[C]([H])([H])[C]([H])([H])[c]1[c]([H])[c]([H])[c]([H])[c]([H])[c]1[H]

$$$$
