
     RDKit          3D

 31 33  0  0  0  0  0  0  0  0999 V2000
   11.0198   -0.8694   23.9483 O   0  0  0  0  0  0  0  0  0  0  0  0
   10.6854   -0.7175   22.7906 C   0  0  0  0  0  0  0  0  0  0  0  0
   11.6351   -0.1321   21.7621 C   0  0  0  0  0  0  0  0  0  0  0  0
   11.4020    1.3871   21.6159 C   0  0  0  0  0  0  0  0  0  0  0  0
    9.9102    1.7151   21.4747 C   0  0  0  0  0  0  0  0  0  0  0  0
    9.2221    0.7463   20.6766 O   0  0  0  0  0  0  0  0  0  0  0  0
    8.6243   -0.3128   21.3195 C   0  0  0  0  0  0  0  0  0  0  0  0
    9.2817   -1.0475   22.3395 C   0  0  0  0  0  0  0  0  0  0  0  0
    8.5866   -2.0795   22.9923 C   0  0  0  0  0  0  0  0  0  0  0  0
    7.2644   -2.3755   22.6624 C   0  0  0  0  0  0  0  0  0  0  0  0
    6.6229   -1.6393   21.6595 C   0  0  0  0  0  0  0  0  0  0  0  0
    7.2990   -0.6405   20.9421 C   0  0  0  0  0  0  0  0  0  0  0  0
    6.6109    0.0602   19.8098 C   0  0  0  0  0  0  0  0  0  0  0  0
    5.3796    0.6943   20.0151 C   0  0  0  0  0  0  0  0  0  0  0  0
    4.7719    1.3688   18.9538 C   0  0  0  0  0  0  0  0  0  0  0  0
    5.4053    1.3516   17.7053 C   0  0  0  0  0  0  0  0  0  0  0  0
    6.5694    0.7262   17.4702 N   0  0  0  0  0  0  0  0  0  0  0  0
    7.1542    0.1096   18.5093 C   0  0  0  0  0  0  0  0  0  0  0  0
    8.0992   -0.3851   18.2889 H   0  0  0  0  0  0  0  0  0  0  0  0
    4.9541    1.8606   16.8557 H   0  0  0  0  0  0  0  0  0  0  0  0
    3.8319    1.8970   19.0846 H   0  0  0  0  0  0  0  0  0  0  0  0
    4.9283    0.6689   21.0088 H   0  0  0  0  0  0  0  0  0  0  0  0
    5.5860   -1.8546   21.4076 H   0  0  0  0  0  0  0  0  0  0  0  0
    6.7424   -3.1709   23.1884 H   0  0  0  0  0  0  0  0  0  0  0  0
    9.1114   -2.6356   23.7678 H   0  0  0  0  0  0  0  0  0  0  0  0
    9.4596    1.7383   22.4740 H   0  0  0  0  0  0  0  0  0  0  0  0
    9.7242    2.6947   21.0201 H   0  0  0  0  0  0  0  0  0  0  0  0
   11.9718    1.7706   20.7645 H   0  0  0  0  0  0  0  0  0  0  0  0
   11.7811    1.9225   22.4968 H   0  0  0  0  0  0  0  0  0  0  0  0
   12.6704   -0.3621   22.0283 H   0  0  0  0  0  0  0  0  0  0  0  0
   11.4088   -0.6339   20.8161 H   0  0  0  0  0  0  0  0  0  0  0  0
  1  2  2  0
  2  3  1  0
  3  4  1  0
  4  5  1  0
  5  6  1  0
  6  7  1  0
  7  8  2  0
  8  9  1  0
  9 10  2  0
 10 11  1  0
 11 12  2  0
 12 13  1  0
 13 14  2  0
 14 15  1  0
 15 16  2  0
 16 17  1  0
 17 18  2  0
 18 19  1  0
 16 20  1  0
 15 21  1  0
 14 22  1  0
 11 23  1  0
 10 24  1  0
  9 25  1  0
  5 26  1  0
  5 27  1  0
  4 28  1  0
  4 29  1  0
  3 30  1  0
  3 31  1  0
  8  2  1  0
 18 13  1  0
 12  7  1  0
M  END
>  <plip>  (1) 
-0.10714285714285714

>  <filename>  (1) 
[H][c]1[n][c]([H])[c](-[c]2[c]([H])[c]([H])[c]([H])[c]3[c]2[O][C]([H])([H])[C]([H])([H])[C]([H])([H])[C]3=[O])[c]([H])[c]1[H]

$$$$
