
     RDKit          3D

 48 51  0  0  0  0  0  0  0  0999 V2000
    4.9656    1.8060   16.9314 H   0  0  0  0  0  0  0  0  0  0  0  0
    5.4074    1.3129   17.7963 C   0  0  0  0  0  0  0  0  0  0  0  0
    6.5689    0.6802   17.5915 N   0  0  0  0  0  0  0  0  0  0  0  0
    7.1376    0.0852   18.6499 C   0  0  0  0  0  0  0  0  0  0  0  0
    8.0689   -0.4332   18.4226 H   0  0  0  0  0  0  0  0  0  0  0  0
    6.6102    0.0677   19.9573 C   0  0  0  0  0  0  0  0  0  0  0  0
    7.4045   -0.5897   21.1071 C   0  0  0  0  0  0  0  0  0  0  0  0
    8.2530    0.3663   21.8499 N   0  0  0  0  0  0  0  0  0  0  0  0
    7.5448    1.2532   22.8042 C   0  0  0  0  0  0  0  0  0  0  0  0
    6.8653    1.9613   22.2929 H   0  0  0  0  0  0  0  0  0  0  0  0
    6.9492    0.6769   23.5109 H   0  0  0  0  0  0  0  0  0  0  0  0
    8.5489    2.0248   23.6639 C   0  0  0  0  0  0  0  0  0  0  0  0
    9.1355    1.3006   24.2630 H   0  0  0  0  0  0  0  0  0  0  0  0
    8.0155    2.6649   24.3798 H   0  0  0  0  0  0  0  0  0  0  0  0
    9.4212    2.8222   22.8033 N   0  0  0  0  0  0  0  0  0  0  0  0
    9.9900    4.0003   23.2999 C   0  0  0  0  0  0  0  0  0  0  0  0
    9.1273    5.0517   23.6478 C   0  0  0  0  0  0  0  0  0  0  0  0
    8.0606    4.8919   23.5044 H   0  0  0  0  0  0  0  0  0  0  0  0
    9.6450    6.2552   24.1202 C   0  0  0  0  0  0  0  0  0  0  0  0
    8.9667    7.0759   24.3476 H   0  0  0  0  0  0  0  0  0  0  0  0
   11.0292    6.3981   24.2878 C   0  0  0  0  0  0  0  0  0  0  0  0
   11.4274    7.3139   24.7072 H   0  0  0  0  0  0  0  0  0  0  0  0
   11.8944    5.3570   23.9329 C   0  0  0  0  0  0  0  0  0  0  0  0
   12.9738    5.4781   24.0194 H   0  0  0  0  0  0  0  0  0  0  0  0
   11.3789    4.1602   23.4350 C   0  0  0  0  0  0  0  0  0  0  0  0
   12.0242    3.3367   23.1408 H   0  0  0  0  0  0  0  0  0  0  0  0
   10.1452    1.9732   21.8638 C   0  0  0  0  0  0  0  0  0  0  0  0
   10.7967    1.2464   22.3874 H   0  0  0  0  0  0  0  0  0  0  0  0
   10.7769    2.5932   21.2134 H   0  0  0  0  0  0  0  0  0  0  0  0
    9.1303    1.2110   21.0075 C   0  0  0  0  0  0  0  0  0  0  0  0
    9.6714    0.6083   20.2759 H   0  0  0  0  0  0  0  0  0  0  0  0
    8.5450    1.9542   20.4400 H   0  0  0  0  0  0  0  0  0  0  0  0
    8.2531   -1.7759   20.6104 C   0  0  0  0  0  0  0  0  0  0  0  0
    7.5178   -2.2788   19.9855 H   0  0  0  0  0  0  0  0  0  0  0  0
    9.1372   -1.5043   20.0265 H   0  0  0  0  0  0  0  0  0  0  0  0
    8.5670   -2.6940   21.7913 C   0  0  0  0  0  0  0  0  0  0  0  0
    9.5283   -2.4536   22.2647 H   0  0  0  0  0  0  0  0  0  0  0  0
    8.6215   -3.7317   21.4499 H   0  0  0  0  0  0  0  0  0  0  0  0
    7.3792   -2.4767   22.7507 C   0  0  0  0  0  0  0  0  0  0  0  0
    6.7859   -3.3853   22.8999 H   0  0  0  0  0  0  0  0  0  0  0  0
    7.7533   -2.1617   23.7287 H   0  0  0  0  0  0  0  0  0  0  0  0
    6.5062   -1.3874   22.0881 C   0  0  0  0  0  0  0  0  0  0  0  0
    5.7084   -1.8546   21.5022 H   0  0  0  0  0  0  0  0  0  0  0  0
    6.0492   -0.7398   22.8291 H   0  0  0  0  0  0  0  0  0  0  0  0
    5.3828    0.7199   20.1361 C   0  0  0  0  0  0  0  0  0  0  0  0
    4.9024    0.7487   21.1179 H   0  0  0  0  0  0  0  0  0  0  0  0
    4.7721    1.3440   19.0416 C   0  0  0  0  0  0  0  0  0  0  0  0
    3.8284    1.8612   19.1391 H   0  0  0  0  0  0  0  0  0  0  0  0
  1  2  1  0
  2  3  2  0
  3  4  1  0
  4  5  1  0
  4  6  2  0
  6  7  1  0
  7  8  1  0
  8  9  1  0
  9 10  1  0
  9 11  1  0
  9 12  1  0
 12 13  1  0
 12 14  1  0
 12 15  1  0
 15 16  1  0
 16 17  2  0
 17 18  1  0
 17 19  1  0
 19 20  1  0
 19 21  2  0
 21 22  1  0
 21 23  1  0
 23 24  1  0
 23 25  2  0
 25 26  1  0
 15 27  1  0
 27 28  1  0
 27 29  1  0
 27 30  1  0
 30 31  1  0
 30 32  1  0
  7 33  1  0
 33 34  1  0
 33 35  1  0
 33 36  1  0
 36 37  1  0
 36 38  1  0
 36 39  1  0
 39 40  1  0
 39 41  1  0
 39 42  1  0
 42 43  1  0
 42 44  1  0
  6 45  1  0
 45 46  1  0
 45 47  2  0
 47 48  1  0
 47  2  1  0
 42  7  1  0
 30  8  1  0
 25 16  1  0
M  END
>  <plip>  (1) 
-0.10714285714285714

>  <filename>  (1) 
[H][c]1[n][c]([H])[c]([C]2([N]3[C]([H])([H])[C]([H])([H])[N]([c]4[c]([H])[c]([H])[c]([H])[c]([H])[c]4[H])[C]([H])([H])[C]3([H])[H])[C]([H])([H])[C]([H])([H])[C]([H])([H])[C]2([H])[H])[c]([H])[c]1[H]

$$$$
