
     RDKit          3D

 44 46  0  0  0  0  0  0  0  0999 V2000
    5.8813   -3.0764   19.9567 O   0  0  0  0  0  0  0  0  0  0  0  0
    5.8782   -2.8497   21.1525 C   0  0  0  0  0  0  0  0  0  0  0  0
    5.2520   -3.8193   22.1513 C   0  0  0  0  0  0  0  0  0  0  0  0
    6.2502   -4.7027   22.9543 C   0  0  0  0  0  0  0  0  0  0  0  0
    7.1980   -3.8636   23.7915 C   0  0  0  0  0  0  0  0  0  0  0  0
    8.5219   -3.6650   23.3666 C   0  0  0  0  0  0  0  0  0  0  0  0
    9.3314   -2.7109   23.9730 C   0  0  0  0  0  0  0  0  0  0  0  0
    8.8313   -1.9552   25.0435 C   0  0  0  0  0  0  0  0  0  0  0  0
    9.6960   -1.0461   25.5847 O   0  0  0  0  0  0  0  0  0  0  0  0
    9.1681   -0.0616   26.4732 C   0  0  0  0  0  0  0  0  0  0  0  0
    8.1560   -0.6557   27.4497 C   0  0  0  0  0  0  0  0  0  0  0  0
    7.0002   -1.2598   26.6399 C   0  0  0  0  0  0  0  0  0  0  0  0
    7.5261   -2.1602   25.5305 C   0  0  0  0  0  0  0  0  0  0  0  0
    6.7387   -3.1402   24.9066 C   0  0  0  0  0  0  0  0  0  0  0  0
    5.7280   -3.3163   25.2804 H   0  0  0  0  0  0  0  0  0  0  0  0
    6.4284   -0.4348   26.1826 H   0  0  0  0  0  0  0  0  0  0  0  0
    6.2923   -1.8062   27.2727 H   0  0  0  0  0  0  0  0  0  0  0  0
    8.6462   -1.4203   28.0638 H   0  0  0  0  0  0  0  0  0  0  0  0
    7.8029    0.1345   28.1191 H   0  0  0  0  0  0  0  0  0  0  0  0
    8.7040    0.7490   25.8842 H   0  0  0  0  0  0  0  0  0  0  0  0
   10.0502    0.3438   26.9673 H   0  0  0  0  0  0  0  0  0  0  0  0
   10.3372   -2.5019   23.6277 H   0  0  0  0  0  0  0  0  0  0  0  0
    8.8992   -4.2479   22.5250 H   0  0  0  0  0  0  0  0  0  0  0  0
    6.8226   -5.3415   22.2666 H   0  0  0  0  0  0  0  0  0  0  0  0
    5.6651   -5.3797   23.5902 H   0  0  0  0  0  0  0  0  0  0  0  0
    4.6520   -3.2338   22.8587 H   0  0  0  0  0  0  0  0  0  0  0  0
    4.5676   -4.4558   21.5852 H   0  0  0  0  0  0  0  0  0  0  0  0
    6.4004   -1.7059   21.7081 N   0  0  0  0  0  0  0  0  0  0  0  0
    7.2424   -0.7817   20.9588 C   0  0  0  0  0  0  0  0  0  0  0  0
    8.1345    0.6759   21.8304 C   0  0  0  0  0  0  0  0  0  0  0  0
    7.5169    1.2302   22.7259 O   0  0  0  0  0  0  0  0  0  0  0  0
    9.2185    0.7967   21.2630 O   0  0  0  0  0  1  0  0  0  0  0  0
    6.5057   -0.1381   19.8168 C   0  0  0  0  0  0  0  0  0  0  0  0
    5.3970    0.6872   20.0400 C   0  0  0  0  0  0  0  0  0  0  0  0
    4.8626    1.3812   18.9489 C   0  0  0  0  0  0  0  0  0  0  0  0
    5.4635    1.2391   17.6930 C   0  0  0  0  0  0  0  0  0  0  0  0
    6.5251    0.4527   17.4590 N   0  0  0  0  0  0  0  0  0  0  0  0
    7.0153   -0.2169   18.5145 C   0  0  0  0  0  0  0  0  0  0  0  0
    7.8905   -0.8407   18.3238 H   0  0  0  0  0  0  0  0  0  0  0  0
    5.0830    1.7872   16.8325 H   0  0  0  0  0  0  0  0  0  0  0  0
    4.0101    2.0419   19.0593 H   0  0  0  0  0  0  0  0  0  0  0  0
    4.9790    0.7886   21.0447 H   0  0  0  0  0  0  0  0  0  0  0  0
    8.1516   -1.2765   20.6058 H   0  0  0  0  0  0  0  0  0  0  0  0
    6.4191   -1.7034   22.7161 H   0  0  0  0  0  0  0  0  0  0  0  0
  1  2  2  0
  2  3  1  0
  3  4  1  0
  4  5  1  0
  5  6  2  0
  6  7  1  0
  7  8  2  0
  8  9  1  0
  9 10  1  0
 10 11  1  0
 11 12  1  0
 12 13  1  0
 13 14  2  0
 14 15  1  0
 12 16  1  0
 12 17  1  0
 11 18  1  0
 11 19  1  0
 10 20  1  0
 10 21  1  0
  7 22  1  0
  6 23  1  0
  4 24  1  0
  4 25  1  0
  3 26  1  0
  3 27  1  0
  2 28  1  0
 28 29  1  0
 29 30  1  0
 30 31  2  0
 30 32  1  0
 29 33  1  0
 33 34  2  0
 34 35  1  0
 35 36  2  0
 36 37  1  0
 37 38  2  0
 38 39  1  0
 36 40  1  0
 35 41  1  0
 34 42  1  0
 29 43  1  0
 28 44  1  0
 14  5  1  0
 38 33  1  0
 13  8  1  0
M  CHG  1  32  -1
M  END
>  <plip>  (1) 
-0.2413793103448276

>  <filename>  (1) 
[H][c]1[n][c]([H])[c]([C]([H])([C](=[O])[O-])[N]([H])[C](=[O])[C]([H])([H])[C]([H])([H])[c]2[c]([H])[c]([H])[c]3[c]([c]2[H])[C]([H])([H])[C]([H])([H])[C]([H])([H])[O]3)[c]([H])[c]1[H]

$$$$
