
     RDKit          3D

 38 39  0  0  0  0  0  0  0  0999 V2000
    5.2852    1.8582   16.8882 H   0  0  0  0  0  0  0  0  0  0  0  0
    5.5783    1.2911   17.7671 C   0  0  0  0  0  0  0  0  0  0  0  0
    6.6723    0.5284   17.6386 N   0  0  0  0  0  0  0  0  0  0  0  0
    7.0712   -0.1703   18.6993 C   0  0  0  0  0  0  0  0  0  0  0  0
    7.9587   -0.7836   18.5655 H   0  0  0  0  0  0  0  0  0  0  0  0
    6.3884   -0.1209   19.9046 C   0  0  0  0  0  0  0  0  0  0  0  0
    7.1351   -0.9350   21.2415 S   0  0  0  0  0  0  0  0  0  0  0  0
    8.1537   -1.8422   20.7130 O   0  0  0  0  0  0  0  0  0  0  0  0
    6.0799   -1.4434   22.0831 O   0  0  0  0  0  0  0  0  0  0  0  0
    8.0274    0.4687   22.0792 C   0  0  0  0  0  0  0  0  0  0  0  0
    8.6823   -0.4694   23.1286 C   0  0  0  0  0  0  0  0  0  0  0  0
    8.0033   -0.9653   23.9993 O   0  0  0  0  0  0  0  0  0  0  0  0
   10.1602   -0.6626   23.0794 C   0  0  0  0  0  0  0  0  0  0  0  0
   10.7325   -1.5942   22.1949 C   0  0  0  0  0  0  0  0  0  0  0  0
   10.1177   -2.3505   21.7170 H   0  0  0  0  0  0  0  0  0  0  0  0
   12.0997   -1.5450   21.9436 C   0  0  0  0  0  0  0  0  0  0  0  0
   12.5454   -2.2419   21.2403 H   0  0  0  0  0  0  0  0  0  0  0  0
   12.9173   -0.5827   22.5572 C   0  0  0  0  0  0  0  0  0  0  0  0
   14.3724   -0.4831   22.2039 C   0  0  0  0  0  0  0  0  0  0  0  0
   14.5076   -0.4244   21.1191 H   0  0  0  0  0  0  0  0  0  0  0  0
   14.9208   -1.3689   22.5431 H   0  0  0  0  0  0  0  0  0  0  0  0
   14.8385    0.4084   22.6348 H   0  0  0  0  0  0  0  0  0  0  0  0
   12.3506    0.2660   23.5172 C   0  0  0  0  0  0  0  0  0  0  0  0
   12.9953    0.9407   24.0718 H   0  0  0  0  0  0  0  0  0  0  0  0
   10.9829    0.2336   23.7800 C   0  0  0  0  0  0  0  0  0  0  0  0
   10.5569    0.9274   24.5035 H   0  0  0  0  0  0  0  0  0  0  0  0
    9.0292    1.1536   21.1184 C   0  0  0  0  0  0  0  0  0  0  0  0
    8.5289    1.8740   20.4615 H   0  0  0  0  0  0  0  0  0  0  0  0
    9.7881    1.6999   21.6943 H   0  0  0  0  0  0  0  0  0  0  0  0
    9.5436    0.4146   20.4918 H   0  0  0  0  0  0  0  0  0  0  0  0
    7.1443    1.5212   22.7930 C   0  0  0  0  0  0  0  0  0  0  0  0
    7.7907    2.1729   23.4009 H   0  0  0  0  0  0  0  0  0  0  0  0
    6.6218    2.1763   22.0854 H   0  0  0  0  0  0  0  0  0  0  0  0
    6.4116    1.0629   23.4630 H   0  0  0  0  0  0  0  0  0  0  0  0
    5.2229    0.6317   20.0510 C   0  0  0  0  0  0  0  0  0  0  0  0
    4.6508    0.6455   20.9830 H   0  0  0  0  0  0  0  0  0  0  0  0
    4.8237    1.3683   18.9417 C   0  0  0  0  0  0  0  0  0  0  0  0
    3.9619    2.0212   18.9798 H   0  0  0  0  0  0  0  0  0  0  0  0
  1  2  1  0
  2  3  2  0
  3  4  1  0
  4  5  1  0
  4  6  2  0
  6  7  1  0
  7  8  2  0
  7  9  2  0
  7 10  1  0
 10 11  1  0
 11 12  2  0
 11 13  1  0
 13 14  2  0
 14 15  1  0
 14 16  1  0
 16 17  1  0
 16 18  2  0
 18 19  1  0
 19 20  1  0
 19 21  1  0
 19 22  1  0
 18 23  1  0
 23 24  1  0
 23 25  2  0
 25 26  1  0
 10 27  1  0
 27 28  1  0
 27 29  1  0
 27 30  1  0
 10 31  1  0
 31 32  1  0
 31 33  1  0
 31 34  1  0
  6 35  1  0
 35 36  1  0
 35 37  2  0
 37 38  1  0
 37  2  1  0
 25 13  1  0
M  END
>  <plip>  (1) 
-0.03571428571428571

>  <filename>  (1) 
[H][c]1[n][c]([H])[c]([S](=[O])(=[O])[C]([C](=[O])[c]2[c]([H])[c]([H])[c]([C]([H])([H])[H])[c]([H])[c]2[H])([C]([H])([H])[H])[C]([H])([H])[H])[c]([H])[c]1[H]

$$$$
