
     RDKit          3D

 30 32  0  0  0  0  0  0  0  0999 V2000
    5.8302   -2.0476   21.8813 O   0  0  0  0  0  0  0  0  0  0  0  0
    6.8582   -1.4246   21.9780 C   0  0  0  0  0  0  0  0  0  0  0  0
    7.7421   -1.5097   23.0066 N   0  0  0  0  0  0  0  0  0  0  0  0
    8.9467   -0.7329   22.7828 C   0  0  0  0  0  0  0  0  0  0  0  0
    9.1592    0.4656   23.7424 C   0  0  0  0  0  0  0  0  0  0  0  0
    7.9834    1.4176   23.7455 C   0  0  0  0  0  0  0  0  0  0  0  0
    6.9239    1.3806   24.6002 C   0  0  0  0  0  0  0  0  0  0  0  0
    6.7351    0.3125   25.9305 Cl  0  0  0  0  0  0  0  0  0  0  0  0
    5.6711    2.5233   24.2469 S   0  0  0  0  0  0  0  0  0  0  0  0
    6.5976    3.0752   22.8913 C   0  0  0  0  0  0  0  0  0  0  0  0
    5.9805    4.3273   21.8950 Cl  0  0  0  0  0  0  0  0  0  0  0  0
    7.7720    2.4184   22.7398 C   0  0  0  0  0  0  0  0  0  0  0  0
    8.4681    2.6172   21.9293 H   0  0  0  0  0  0  0  0  0  0  0  0
   10.0563    1.0015   23.4096 H   0  0  0  0  0  0  0  0  0  0  0  0
    9.3667    0.0981   24.7543 H   0  0  0  0  0  0  0  0  0  0  0  0
    8.7246   -0.2587   21.3430 C   0  0  0  0  0  0  0  0  0  0  0  0
    9.5229    0.2998   20.6267 O   0  0  0  0  0  0  0  0  0  0  0  0
    7.4123   -0.5673   21.0102 N   0  0  0  0  0  0  0  0  0  0  0  0
    6.6853    0.0220   19.9201 C   0  0  0  0  0  0  0  0  0  0  0  0
    5.4503    0.6240   20.1679 C   0  0  0  0  0  0  0  0  0  0  0  0
    4.8114    1.2904   19.1139 C   0  0  0  0  0  0  0  0  0  0  0  0
    5.4052    1.2755   17.8473 C   0  0  0  0  0  0  0  0  0  0  0  0
    6.5623    0.6488   17.5787 N   0  0  0  0  0  0  0  0  0  0  0  0
    7.1917    0.0522   18.5987 C   0  0  0  0  0  0  0  0  0  0  0  0
    8.1445   -0.4247   18.3785 H   0  0  0  0  0  0  0  0  0  0  0  0
    4.9371    1.7829   17.0086 H   0  0  0  0  0  0  0  0  0  0  0  0
    3.8855    1.8340   19.2698 H   0  0  0  0  0  0  0  0  0  0  0  0
    5.0197    0.5690   21.1689 H   0  0  0  0  0  0  0  0  0  0  0  0
    9.8455   -1.3624   22.8082 H   0  0  0  0  0  0  0  0  0  0  0  0
    7.3624   -1.8671   23.8674 H   0  0  0  0  0  0  0  0  0  0  0  0
  1  2  2  0
  2  3  1  0
  3  4  1  0
  4  5  1  0
  5  6  1  0
  6  7  2  0
  7  8  1  0
  7  9  1  0
  9 10  1  0
 10 11  1  0
 10 12  2  0
 12 13  1  0
  5 14  1  0
  5 15  1  0
  4 16  1  0
 16 17  2  0
 16 18  1  0
 18 19  1  0
 19 20  2  0
 20 21  1  0
 21 22  2  0
 22 23  1  0
 23 24  2  0
 24 25  1  0
 22 26  1  0
 21 27  1  0
 20 28  1  0
  4 29  1  0
  3 30  1  0
 18  2  1  0
 24 19  1  0
 12  6  1  0
M  END
>  <plip>  (1) 
-0.034482758620689655

>  <filename>  (1) 
[H][c]1[n][c]([H])[c]([N]2[C](=[O])[N]([H])[C]([H])([C]([H])([H])[c]3[c]([Cl])[s][c]([Cl])[c]3[H])[C]2=[O])[c]([H])[c]1[H]

$$$$
