
     RDKit          3D

 35 37  0  0  0  0  0  0  0  0999 V2000
    4.9094    1.7967   16.9685 H   0  0  0  0  0  0  0  0  0  0  0  0
    5.3905    1.3051   17.8108 C   0  0  0  0  0  0  0  0  0  0  0  0
    6.5566    0.6852   17.5579 N   0  0  0  0  0  0  0  0  0  0  0  0
    7.1778    0.0929   18.5863 C   0  0  0  0  0  0  0  0  0  0  0  0
    8.1136   -0.4180   18.3517 H   0  0  0  0  0  0  0  0  0  0  0  0
    6.6856    0.0993   19.9100 C   0  0  0  0  0  0  0  0  0  0  0  0
    7.3561   -0.5893   21.0411 C   0  0  0  0  0  0  0  0  0  0  0  0
    7.9127    0.0455   22.1234 C   0  0  0  0  0  0  0  0  0  0  0  0
    7.8040    1.3757   22.3324 N   0  0  0  0  0  0  0  0  0  0  0  0
    7.5500    2.0896   21.6709 H   0  0  0  0  0  0  0  0  0  0  0  0
    8.2205    2.1894   23.6828 S   0  0  0  0  0  0  0  0  0  0  0  0
    7.8017    3.5147   23.2653 O   0  0  0  0  0  0  0  0  0  0  0  0
    9.5797    1.8434   24.0471 O   0  0  0  0  0  0  0  0  0  0  0  0
    7.1375    1.5505   24.9368 C   0  0  0  0  0  0  0  0  0  0  0  0
    5.7984    1.2445   24.6519 C   0  0  0  0  0  0  0  0  0  0  0  0
    5.3559    1.3933   23.6671 H   0  0  0  0  0  0  0  0  0  0  0  0
    4.9849    0.7316   25.6618 C   0  0  0  0  0  0  0  0  0  0  0  0
    3.9545    0.4740   25.4335 H   0  0  0  0  0  0  0  0  0  0  0  0
    5.4663    0.5341   26.9656 C   0  0  0  0  0  0  0  0  0  0  0  0
    4.5690   -0.0133   28.0482 C   0  0  0  0  0  0  0  0  0  0  0  0
    3.8093   -0.6849   27.6352 H   0  0  0  0  0  0  0  0  0  0  0  0
    4.0431    0.7918   28.5753 H   0  0  0  0  0  0  0  0  0  0  0  0
    5.1386   -0.5765   28.7947 H   0  0  0  0  0  0  0  0  0  0  0  0
    6.8004    0.8805   27.2336 C   0  0  0  0  0  0  0  0  0  0  0  0
    7.1915    0.7446   28.2395 H   0  0  0  0  0  0  0  0  0  0  0  0
    7.6367    1.3886   26.2400 C   0  0  0  0  0  0  0  0  0  0  0  0
    8.6659    1.6461   26.4947 H   0  0  0  0  0  0  0  0  0  0  0  0
    8.7603   -0.8749   23.3045 S   0  0  0  0  0  0  0  0  0  0  0  0
    8.4069   -2.6650   22.3356 S   0  0  0  0  0  0  0  0  0  0  0  0
    7.2568   -2.0228   21.1669 C   0  0  0  0  0  0  0  0  0  0  0  0
    6.1759   -2.9961   20.4047 S   0  0  0  0  0  0  0  0  0  0  0  0
    5.4480    0.7145   20.1326 C   0  0  0  0  0  0  0  0  0  0  0  0
    5.0068    0.6537   21.1296 H   0  0  0  0  0  0  0  0  0  0  0  0
    4.7940    1.3369   19.0728 C   0  0  0  0  0  0  0  0  0  0  0  0
    3.8485    1.8431   19.2251 H   0  0  0  0  0  0  0  0  0  0  0  0
  1  2  1  0
  2  3  2  0
  3  4  1  0
  4  5  1  0
  4  6  2  0
  6  7  1  0
  7  8  2  0
  8  9  1  0
  9 10  1  0
  9 11  1  0
 11 12  2  0
 11 13  2  0
 11 14  1  0
 14 15  2  0
 15 16  1  0
 15 17  1  0
 17 18  1  0
 17 19  2  0
 19 20  1  0
 20 21  1  0
 20 22  1  0
 20 23  1  0
 19 24  1  0
 24 25  1  0
 24 26  2  0
 26 27  1  0
  8 28  1  0
 28 29  1  0
 29 30  1  0
 30 31  2  0
  6 32  1  0
 32 33  1  0
 32 34  2  0
 34 35  1  0
 34  2  1  0
 30  7  1  0
 26 14  1  0
M  END
>  <plip>  (1) 
-0.03571428571428571

>  <filename>  (1) 
[H][c]1[n][c]([H])[c](-[c]2[c]([N]([H])[S](=[O])(=[O])[c]3[c]([H])[c]([H])[c]([C]([H])([H])[H])[c]([H])[c]3[H])[s][s][c]2=[S])[c]([H])[c]1[H]

$$$$
