
     RDKit          3D

 25 26  0  0  0  0  0  0  0  0999 V2000
    9.6213   -5.2352   23.9703 H   0  0  0  0  0  0  0  0  0  0  0  0
    9.0679   -4.5533   23.3328 C   0  0  0  0  0  0  0  0  0  0  0  0
    9.0779   -3.2110   23.6160 N   0  0  0  0  0  0  0  0  0  0  0  0
    8.3775   -2.5802   22.7254 C   0  0  0  0  0  0  0  0  0  0  0  0
    8.2405   -1.2379   22.9087 N   0  0  0  0  0  0  0  0  0  0  0  0
    8.6705   -0.9805   23.7765 H   0  0  0  0  0  0  0  0  0  0  0  0
    7.6600   -0.3591   22.0372 C   0  0  0  0  0  0  0  0  0  0  0  0
    7.3070   -0.8059   20.9036 N   0  0  0  0  0  0  0  0  0  0  0  0
    6.6744   -0.0090   19.9362 C   0  0  0  0  0  0  0  0  0  0  0  0
    7.1926    0.0467   18.6143 C   0  0  0  0  0  0  0  0  0  0  0  0
    8.1346   -0.4563   18.3965 H   0  0  0  0  0  0  0  0  0  0  0  0
    6.5912    0.6764   17.6004 N   0  0  0  0  0  0  0  0  0  0  0  0
    5.4196    1.2877   17.8576 C   0  0  0  0  0  0  0  0  0  0  0  0
    4.9495    1.7813   17.0142 H   0  0  0  0  0  0  0  0  0  0  0  0
    4.8228    1.3009   19.1198 C   0  0  0  0  0  0  0  0  0  0  0  0
    3.8839    1.8202   19.2700 H   0  0  0  0  0  0  0  0  0  0  0  0
    5.4560    0.6395   20.1765 C   0  0  0  0  0  0  0  0  0  0  0  0
    5.0206    0.6057   21.1737 H   0  0  0  0  0  0  0  0  0  0  0  0
    7.4894    1.0322   22.5753 C   0  0  0  0  0  0  0  0  0  0  0  0
    7.5607    1.7278   21.7414 H   0  0  0  0  0  0  0  0  0  0  0  0
    6.4926    1.1171   23.0125 H   0  0  0  0  0  0  0  0  0  0  0  0
    8.2233    1.2940   23.3381 H   0  0  0  0  0  0  0  0  0  0  0  0
    7.6544   -3.5469   21.4842 S   0  0  0  0  0  0  0  0  0  0  0  0
    8.3571   -4.9299   22.2406 C   0  0  0  0  0  0  0  0  0  0  0  0
    8.2448   -5.9186   21.8234 H   0  0  0  0  0  0  0  0  0  0  0  0
  1  2  1  0
  2  3  1  0
  3  4  2  0
  4  5  1  0
  5  6  1  0
  5  7  1  0
  7  8  2  3
  8  9  1  0
  9 10  2  0
 10 11  1  0
 10 12  1  0
 12 13  2  0
 13 14  1  0
 13 15  1  0
 15 16  1  0
 15 17  2  0
 17 18  1  0
  7 19  1  0
 19 20  1  0
 19 21  1  0
 19 22  1  0
  4 23  1  0
 23 24  1  0
 24 25  1  0
 24  2  2  0
 17  9  1  0
M  END
>  <plip>  (1) 
-0.07142857142857142

>  <filename>  (1) 
[H][c]1[n][c]([N]([H])[C](=[N][c]2[c]([H])[n][c]([H])[c]([H])[c]2[H])[C]([H])([H])[H])[s][c]1[H]

$$$$
