
     RDKit          3D

 36 39  0  0  0  0  0  0  0  0999 V2000
    4.9483    1.6905   17.1046 H   0  0  0  0  0  0  0  0  0  0  0  0
    5.5258    1.1867   17.8766 C   0  0  0  0  0  0  0  0  0  0  0  0
    6.6750    0.6053   17.4860 N   0  0  0  0  0  0  0  0  0  0  0  0
    7.4197    0.0094   18.4267 C   0  0  0  0  0  0  0  0  0  0  0  0
    8.3206   -0.4883   18.0652 H   0  0  0  0  0  0  0  0  0  0  0  0
    7.1030   -0.0256   19.8169 C   0  0  0  0  0  0  0  0  0  0  0  0
    7.9662   -0.5754   20.7665 N   0  0  0  0  0  0  0  0  0  0  0  0
    8.6696   -1.2300   20.4545 H   0  0  0  0  0  0  0  0  0  0  0  0
    7.8840   -0.3962   22.2097 C   0  0  0  0  0  0  0  0  0  0  0  0
    8.0048    1.0591   22.6398 C   0  0  0  0  0  0  0  0  0  0  0  0
    9.5264    1.9212   22.5257 S   0  0  0  0  0  0  0  0  0  0  0  0
    8.7856    3.4105   23.0724 C   0  0  0  0  0  0  0  0  0  0  0  0
    9.3941    4.6670   23.2578 C   0  0  0  0  0  0  0  0  0  0  0  0
   10.4560    4.8092   23.0703 H   0  0  0  0  0  0  0  0  0  0  0  0
    8.6047    5.7345   23.6764 C   0  0  0  0  0  0  0  0  0  0  0  0
    9.0546    6.7111   23.8406 H   0  0  0  0  0  0  0  0  0  0  0  0
    7.2174    5.5668   23.9025 C   0  0  0  0  0  0  0  0  0  0  0  0
    6.6176    6.4146   24.2158 H   0  0  0  0  0  0  0  0  0  0  0  0
    6.6170    4.3282   23.7194 C   0  0  0  0  0  0  0  0  0  0  0  0
    5.5486    4.2005   23.8795 H   0  0  0  0  0  0  0  0  0  0  0  0
    7.4033    3.2292   23.3103 C   0  0  0  0  0  0  0  0  0  0  0  0
    7.0015    1.8708   23.0644 C   0  0  0  0  0  0  0  0  0  0  0  0
    5.9840    1.5153   23.1899 H   0  0  0  0  0  0  0  0  0  0  0  0
    8.8654   -1.3706   22.9138 C   0  0  0  0  0  0  0  0  0  0  0  0
    9.5023   -1.9210   22.2194 H   0  0  0  0  0  0  0  0  0  0  0  0
    9.4875   -0.8730   23.6506 H   0  0  0  0  0  0  0  0  0  0  0  0
    7.7030   -2.1752   23.5379 C   0  0  0  0  0  0  0  0  0  0  0  0
    7.6229   -3.2146   23.2025 H   0  0  0  0  0  0  0  0  0  0  0  0
    7.6760   -2.1686   24.6326 H   0  0  0  0  0  0  0  0  0  0  0  0
    6.7137   -1.1886   22.8804 C   0  0  0  0  0  0  0  0  0  0  0  0
    6.1437   -0.6171   23.6134 H   0  0  0  0  0  0  0  0  0  0  0  0
    6.0530   -1.6238   22.1303 H   0  0  0  0  0  0  0  0  0  0  0  0
    5.8608    0.5271   20.1750 C   0  0  0  0  0  0  0  0  0  0  0  0
    5.5371    0.4658   21.2116 H   0  0  0  0  0  0  0  0  0  0  0  0
    5.0706    1.1398   19.1974 C   0  0  0  0  0  0  0  0  0  0  0  0
    4.1104    1.5752   19.4540 H   0  0  0  0  0  0  0  0  0  0  0  0
  1  2  1  0
  2  3  2  0
  3  4  1  0
  4  5  1  0
  4  6  2  0
  6  7  1  0
  7  8  1  0
  7  9  1  0
  9 10  1  0
 10 11  1  0
 11 12  1  0
 12 13  2  0
 13 14  1  0
 13 15  1  0
 15 16  1  0
 15 17  2  0
 17 18  1  0
 17 19  1  0
 19 20  1  0
 19 21  2  0
 21 22  1  0
 22 23  1  0
  9 24  1  0
 24 25  1  0
 24 26  1  0
 24 27  1  0
 27 28  1  0
 27 29  1  0
 27 30  1  0
 30 31  1  0
 30 32  1  0
  6 33  1  0
 33 34  1  0
 33 35  2  0
 35 36  1  0
 35  2  1  0
 30  9  1  0
 22 10  2  0
 21 12  1  0
M  END
>  <plip>  (1) 
-0.034482758620689655

>  <filename>  (1) 
[H][c]1[n][c]([H])[c]([N]([H])[C]2([c]3[s][c]4[c]([H])[c]([H])[c]([H])[c]([H])[c]4[c]3[H])[C]([H])([H])[C]([H])([H])[C]2([H])[H])[c]([H])[c]1[H]

$$$$
