
     RDKit          3D

 36 38  0  0  0  0  0  0  0  0999 V2000
    4.9464    1.7989   16.9993 H   0  0  0  0  0  0  0  0  0  0  0  0
    5.4097    1.2826   17.8348 C   0  0  0  0  0  0  0  0  0  0  0  0
    6.5703    0.6540   17.5757 N   0  0  0  0  0  0  0  0  0  0  0  0
    7.1678    0.0099   18.5815 C   0  0  0  0  0  0  0  0  0  0  0  0
    8.1181   -0.4671   18.3534 H   0  0  0  0  0  0  0  0  0  0  0  0
    6.6444   -0.0231   19.8894 C   0  0  0  0  0  0  0  0  0  0  0  0
    7.3373   -0.6920   20.9455 N   0  0  0  0  0  0  0  0  0  0  0  0
    7.7133   -1.9716   20.6460 N   0  0  0  0  0  0  0  0  0  0  0  0
    8.3510   -2.6499   21.5485 C   0  0  0  0  0  0  0  0  0  0  0  0
    8.5866   -3.6621   21.2350 H   0  0  0  0  0  0  0  0  0  0  0  0
    8.7294   -2.1258   22.8406 C   0  0  0  0  0  0  0  0  0  0  0  0
    9.4096   -2.9948   23.8789 C   0  0  0  0  0  0  0  0  0  0  0  0
   10.0601   -2.3655   24.5018 H   0  0  0  0  0  0  0  0  0  0  0  0
   10.0775   -3.7144   23.3890 H   0  0  0  0  0  0  0  0  0  0  0  0
    8.3864   -3.7091   24.7512 C   0  0  0  0  0  0  0  0  0  0  0  0
    7.8612   -4.9539   24.3721 C   0  0  0  0  0  0  0  0  0  0  0  0
    8.2473   -5.4453   23.4796 H   0  0  0  0  0  0  0  0  0  0  0  0
    6.8371   -5.5482   25.1149 C   0  0  0  0  0  0  0  0  0  0  0  0
    6.3289   -6.4432   24.7767 H   0  0  0  0  0  0  0  0  0  0  0  0
    6.3639   -4.9630   26.2962 C   0  0  0  0  0  0  0  0  0  0  0  0
    5.2988   -5.6733   27.1035 C   0  0  0  0  0  0  0  0  0  0  0  0
    5.3411   -5.4100   28.1655 H   0  0  0  0  0  0  0  0  0  0  0  0
    4.2969   -5.4211   26.7369 H   0  0  0  0  0  0  0  0  0  0  0  0
    5.4013   -6.7629   27.0290 H   0  0  0  0  0  0  0  0  0  0  0  0
    6.8717   -3.7067   26.6644 C   0  0  0  0  0  0  0  0  0  0  0  0
    6.4655   -3.2137   27.5463 H   0  0  0  0  0  0  0  0  0  0  0  0
    7.8583   -3.0807   25.8911 C   0  0  0  0  0  0  0  0  0  0  0  0
    8.2093   -2.0843   26.1680 H   0  0  0  0  0  0  0  0  0  0  0  0
    8.3489   -0.8460   23.1252 C   0  0  0  0  0  0  0  0  0  0  0  0
    8.5494   -0.3571   24.0718 H   0  0  0  0  0  0  0  0  0  0  0  0
    7.6222   -0.0129   22.1853 C   0  0  0  0  0  0  0  0  0  0  0  0
    7.2871    1.1422   22.3841 O   0  0  0  0  0  0  0  0  0  0  0  0
    5.4408    0.6312   20.1534 C   0  0  0  0  0  0  0  0  0  0  0  0
    5.0525    0.6485   21.1691 H   0  0  0  0  0  0  0  0  0  0  0  0
    4.8091    1.2886   19.0962 C   0  0  0  0  0  0  0  0  0  0  0  0
    3.8856    1.8332   19.2533 H   0  0  0  0  0  0  0  0  0  0  0  0
  1  2  1  0
  2  3  2  0
  3  4  1  0
  4  5  1  0
  4  6  2  0
  6  7  1  0
  7  8  1  0
  8  9  2  0
  9 10  1  0
  9 11  1  0
 11 12  1  0
 12 13  1  0
 12 14  1  0
 12 15  1  0
 15 16  2  0
 16 17  1  0
 16 18  1  0
 18 19  1  0
 18 20  2  0
 20 21  1  0
 21 22  1  0
 21 23  1  0
 21 24  1  0
 20 25  1  0
 25 26  1  0
 25 27  2  0
 27 28  1  0
 11 29  2  0
 29 30  1  0
 29 31  1  0
 31 32  2  0
  6 33  1  0
 33 34  1  0
 33 35  2  0
 35 36  1  0
 35  2  1  0
 31  7  1  0
 27 15  1  0
M  END
>  <plip>  (1) 
-0.03571428571428571

>  <filename>  (1) 
[H][c]1[n][c]([H])[c](-[n]2[n][c]([H])[c]([C]([H])([H])[c]3[c]([H])[c]([H])[c]([C]([H])([H])[H])[c]([H])[c]3[H])[c]([H])[c]2=[O])[c]([H])[c]1[H]

$$$$
