
     RDKit          3D

 40 42  0  0  0  0  0  0  0  0999 V2000
    6.8780    0.9322   29.5643 C   0  0  0  0  0  0  0  0  0  0  0  0
    8.1057    0.7104   29.0874 C   0  0  0  0  0  0  0  0  0  0  0  0
    8.3497    0.0960   27.7228 C   0  0  0  0  0  0  0  0  0  0  0  0
    7.1391    0.2825   26.7837 C   0  0  1  0  0  0  0  0  0  0  0  0
    7.3165   -0.4481   25.5008 N   0  0  0  0  0  4  0  0  0  0  0  0
    8.4783   -0.0753   24.6494 C   0  0  0  0  0  0  0  0  0  0  0  0
    8.1861   -0.6431   23.2942 C   0  0  0  0  0  0  0  0  0  0  0  0
    8.4945   -1.9879   23.0560 C   0  0  0  0  0  0  0  0  0  0  0  0
    8.1378   -2.6489   21.9493 N   0  0  0  0  0  0  0  0  0  0  0  0
    7.4819   -1.9595   21.0054 C   0  0  0  0  0  0  0  0  0  0  0  0
    7.1856   -0.5835   21.0941 C   0  0  0  0  0  0  0  0  0  0  0  0
    6.5348    0.1458   19.9634 C   0  0  0  0  0  0  0  0  0  0  0  0
    5.3237    0.8323   20.1225 C   0  0  0  0  0  0  0  0  0  0  0  0
    4.7361    1.4356   19.0069 C   0  0  0  0  0  0  0  0  0  0  0  0
    5.3960    1.3720   17.7744 C   0  0  0  0  0  0  0  0  0  0  0  0
    6.5774    0.7570   17.6082 N   0  0  0  0  0  0  0  0  0  0  0  0
    7.1214    0.1742   18.6814 C   0  0  0  0  0  0  0  0  0  0  0  0
    8.0949   -0.2881   18.5262 H   0  0  0  0  0  0  0  0  0  0  0  0
    4.9674    1.8346   16.8849 H   0  0  0  0  0  0  0  0  0  0  0  0
    3.7918    1.9635   19.0740 H   0  0  0  0  0  0  0  0  0  0  0  0
    4.8491    0.8814   21.1046 H   0  0  0  0  0  0  0  0  0  0  0  0
    7.5320    0.0745   22.2811 C   0  0  0  0  0  0  0  0  0  0  0  0
    7.3011    1.1375   22.4065 H   0  0  0  0  0  0  0  0  0  0  0  0
    7.1627   -2.5276   20.1340 H   0  0  0  0  0  0  0  0  0  0  0  0
    9.0709   -2.5524   23.7917 H   0  0  0  0  0  0  0  0  0  0  0  0
    9.4111   -0.4964   25.0416 H   0  0  0  0  0  0  0  0  0  0  0  0
    8.6065    1.0128   24.6152 H   0  0  0  0  0  0  0  0  0  0  0  0
    6.4694   -0.3498   24.8872 H   0  0  0  0  0  0  0  0  0  0  0  0
    7.3930   -1.4738   25.7216 H   0  0  0  0  0  0  0  0  0  0  0  0
    5.8615   -0.1746   27.4837 C   0  0  0  0  0  0  0  0  0  0  0  0
    5.6106    0.6240   28.7887 C   0  0  0  0  0  0  0  0  0  0  0  0
    4.9039    0.0857   29.4359 H   0  0  0  0  0  0  0  0  0  0  0  0
    5.1202    1.5837   28.5648 H   0  0  0  0  0  0  0  0  0  0  0  0
    5.0038   -0.0647   26.8072 H   0  0  0  0  0  0  0  0  0  0  0  0
    5.9774   -1.2424   27.7174 H   0  0  0  0  0  0  0  0  0  0  0  0
    7.0494    1.3555   26.5688 H   0  0  0  0  0  0  0  0  0  0  0  0
    8.5378   -0.9836   27.8375 H   0  0  0  0  0  0  0  0  0  0  0  0
    9.2486    0.5023   27.2486 H   0  0  0  0  0  0  0  0  0  0  0  0
    8.9770    0.9335   29.7083 H   0  0  0  0  0  0  0  0  0  0  0  0
    6.7542    1.3916   30.5494 H   0  0  0  0  0  0  0  0  0  0  0  0
  1  2  2  0
  2  3  1  0
  3  4  1  0
  4  5  1  0
  5  6  1  0
  6  7  1  0
  7  8  2  0
  8  9  1  0
  9 10  2  0
 10 11  1  0
 11 12  1  0
 12 13  2  0
 13 14  1  0
 14 15  2  0
 15 16  1  0
 16 17  2  0
 17 18  1  0
 15 19  1  0
 14 20  1  0
 13 21  1  0
 11 22  2  0
 22 23  1  0
 10 24  1  0
  8 25  1  0
  6 26  1  0
  6 27  1  0
  5 28  1  0
  5 29  1  0
  4 30  1  0
 30 31  1  0
 31 32  1  0
 31 33  1  0
 30 34  1  0
 30 35  1  0
  4 36  1  6
  3 37  1  0
  3 38  1  0
  2 39  1  0
  1 40  1  0
 31  1  1  0
 22  7  1  0
 17 12  1  0
M  CHG  1   5   1
M  END
>  <plip>  (1) 
-0.06896551724137931

>  <filename>  (1) 
[H][C]1=[C]([H])[C]([H])([H])[C@@]([H])([N+]([H])([H])[C]([H])([H])[c]2[c]([H])[n][c]([H])[c](-[c]3[c]([H])[n][c]([H])[c]([H])[c]3[H])[c]2[H])[C]([H])([H])[C]1([H])[H]

$$$$
