
     RDKit          3D

 32 35  0  0  0  0  0  0  0  0999 V2000
    8.5631   -3.6281   22.1817 C   0  0  0  0  0  0  0  0  0  0  0  0
    8.0336   -2.2469   21.9935 C   0  0  0  0  0  0  0  0  0  0  0  0
    7.7768   -1.7636   20.7965 N   0  0  0  0  0  0  0  0  0  0  0  0
    7.2768   -0.5293   21.0618 N   0  0  0  0  0  0  0  0  0  0  0  0
    6.6266    0.1645   20.0081 C   0  0  0  0  0  0  0  0  0  0  0  0
    5.4140    0.8476   20.1751 C   0  0  0  0  0  0  0  0  0  0  0  0
    4.8335    1.4245   19.0398 C   0  0  0  0  0  0  0  0  0  0  0  0
    5.4827    1.3174   17.8071 C   0  0  0  0  0  0  0  0  0  0  0  0
    6.6421    0.6536   17.6436 N   0  0  0  0  0  0  0  0  0  0  0  0
    7.1816    0.0757   18.7169 C   0  0  0  0  0  0  0  0  0  0  0  0
    8.0937   -0.5032   18.5734 H   0  0  0  0  0  0  0  0  0  0  0  0
    5.0476    1.7567   16.9114 H   0  0  0  0  0  0  0  0  0  0  0  0
    3.8881    1.9550   19.1022 H   0  0  0  0  0  0  0  0  0  0  0  0
    4.9285    0.9028   21.1502 H   0  0  0  0  0  0  0  0  0  0  0  0
    7.3198   -0.3113   22.4222 C   0  0  0  0  0  0  0  0  0  0  0  0
    7.0043    0.9700   23.0763 C   0  0  0  0  0  0  0  0  0  0  0  0
    6.2987    1.0867   24.2476 C   0  0  0  0  0  0  0  0  0  0  0  0
    6.1797    2.4066   24.6029 N   0  0  0  0  0  0  0  0  0  0  0  0
    6.7919    3.1873   23.6769 C   0  0  0  0  0  0  0  0  0  0  0  0
    6.8430    4.5206   23.7228 N   0  0  0  0  0  0  0  0  0  0  0  0
    7.5564    5.0422   22.7301 C   0  0  0  0  0  0  0  0  0  0  0  0
    8.2328    4.3755   21.7865 N   0  0  0  0  0  0  0  0  0  0  0  0
    8.1376    3.0471   21.7746 C   0  0  0  0  0  0  0  0  0  0  0  0
    7.3743    2.3450   22.7122 C   0  0  0  0  0  0  0  0  0  0  0  0
    8.6906    2.5354   20.9845 H   0  0  0  0  0  0  0  0  0  0  0  0
    7.6128    6.1295   22.6654 H   0  0  0  0  0  0  0  0  0  0  0  0
    5.6950    2.8229   25.3769 H   0  0  0  0  0  0  0  0  0  0  0  0
    5.8666    0.2801   24.8301 H   0  0  0  0  0  0  0  0  0  0  0  0
    7.7677   -1.4003   23.0215 N   0  0  0  0  0  0  0  0  0  0  0  0
    8.5667   -4.1514   21.2240 H   0  0  0  0  0  0  0  0  0  0  0  0
    7.9489   -4.1892   22.8907 H   0  0  0  0  0  0  0  0  0  0  0  0
    9.5813   -3.5734   22.5777 H   0  0  0  0  0  0  0  0  0  0  0  0
  1  2  1  0
  2  3  2  0
  3  4  1  0
  4  5  1  0
  5  6  2  0
  6  7  1  0
  7  8  2  0
  8  9  1  0
  9 10  2  0
 10 11  1  0
  8 12  1  0
  7 13  1  0
  6 14  1  0
  4 15  1  0
 15 16  1  0
 16 17  2  0
 17 18  1  0
 18 19  1  0
 19 20  2  0
 20 21  1  0
 21 22  2  0
 22 23  1  0
 23 24  2  0
 23 25  1  0
 21 26  1  0
 18 27  1  0
 17 28  1  0
 15 29  2  0
  1 30  1  0
  1 31  1  0
  1 32  1  0
 29  2  1  0
 10  5  1  0
 24 16  1  0
 24 19  1  0
M  END
>  <plip>  (1) 
-0.07142857142857142

>  <filename>  (1) 
[H][c]1[n][c]([H])[c]2[c](-[c]3[n][c]([C]([H])([H])[H])[n][n]3-[c]3[c]([H])[n][c]([H])[c]([H])[c]3[H])[c]([H])[n]([H])[c]2[n]1

$$$$
