
     RDKit          3D

 39 41  0  0  0  0  0  0  0  0999 V2000
    5.0122    1.7708   16.9718 H   0  0  0  0  0  0  0  0  0  0  0  0
    5.4540    1.2654   17.8280 C   0  0  0  0  0  0  0  0  0  0  0  0
    6.6086    0.6210   17.6043 N   0  0  0  0  0  0  0  0  0  0  0  0
    7.1733   -0.0006   18.6421 C   0  0  0  0  0  0  0  0  0  0  0  0
    8.0955   -0.5451   18.4491 H   0  0  0  0  0  0  0  0  0  0  0  0
    6.6495    0.0201   19.9397 C   0  0  0  0  0  0  0  0  0  0  0  0
    7.4334   -0.7027   20.9585 C   0  0  0  0  0  0  0  0  0  0  0  0
    8.2475   -1.6515   20.6666 N   0  0  0  0  0  0  0  0  0  0  0  0
    8.7737   -2.1743   21.9278 C   0  0  0  0  0  0  0  0  0  0  0  0
    9.8663   -2.2672   21.8824 H   0  0  0  0  0  0  0  0  0  0  0  0
    8.3821   -3.1873   22.1023 H   0  0  0  0  0  0  0  0  0  0  0  0
    8.3198   -1.2011   23.0363 C   0  0  0  0  0  0  0  0  0  0  0  0
    7.8578   -1.7067   23.8941 H   0  0  0  0  0  0  0  0  0  0  0  0
    9.1498   -0.5854   23.4207 H   0  0  0  0  0  0  0  0  0  0  0  0
    7.3456   -0.3789   22.3201 N   0  0  0  0  0  0  0  0  0  0  0  0
    6.9359    0.8709   22.8162 N   0  0  0  0  0  0  0  0  0  0  0  0
    6.5800    0.7794   23.7670 H   0  0  0  0  0  0  0  0  0  0  0  0
    7.9509    1.9280   22.6992 C   0  0  0  0  0  0  0  0  0  0  0  0
    8.7756    1.7943   23.4167 H   0  0  0  0  0  0  0  0  0  0  0  0
    8.3696    1.8228   21.6908 H   0  0  0  0  0  0  0  0  0  0  0  0
    7.3707    3.3191   22.7963 C   0  0  0  0  0  0  0  0  0  0  0  0
    6.7588    3.8456   21.6451 C   0  0  0  0  0  0  0  0  0  0  0  0
    6.6443    3.1748   20.7909 H   0  0  0  0  0  0  0  0  0  0  0  0
    6.3334    5.1677   21.6033 C   0  0  0  0  0  0  0  0  0  0  0  0
    5.9937    5.6914   20.7157 H   0  0  0  0  0  0  0  0  0  0  0  0
    6.4253    5.9673   22.7494 C   0  0  0  0  0  0  0  0  0  0  0  0
    5.9724    7.2378   22.5561 O   0  0  0  0  0  0  0  0  0  0  0  0
    5.7261    8.0886   23.6529 C   0  0  0  0  0  0  0  0  0  0  0  0
    6.6683    8.3885   24.1321 H   0  0  0  0  0  0  0  0  0  0  0  0
    5.2229    8.9724   23.2425 H   0  0  0  0  0  0  0  0  0  0  0  0
    5.0737    7.6005   24.3913 H   0  0  0  0  0  0  0  0  0  0  0  0
    6.9797    5.4488   23.9277 C   0  0  0  0  0  0  0  0  0  0  0  0
    7.0088    6.0506   24.8292 H   0  0  0  0  0  0  0  0  0  0  0  0
    7.4692    4.1311   23.9320 C   0  0  0  0  0  0  0  0  0  0  0  0
    7.9607    3.7520   24.8269 H   0  0  0  0  0  0  0  0  0  0  0  0
    5.4428    0.7048   20.1707 C   0  0  0  0  0  0  0  0  0  0  0  0
    5.0166    0.7849   21.1730 H   0  0  0  0  0  0  0  0  0  0  0  0
    4.8220    1.3047   19.0782 C   0  0  0  0  0  0  0  0  0  0  0  0
    3.8662    1.8082   19.1777 H   0  0  0  0  0  0  0  0  0  0  0  0
  1  2  1  0
  2  3  2  0
  3  4  1  0
  4  5  1  0
  4  6  2  0
  6  7  1  0
  7  8  2  0
  8  9  1  0
  9 10  1  0
  9 11  1  0
  9 12  1  0
 12 13  1  0
 12 14  1  0
 12 15  1  0
 15 16  1  0
 16 17  1  0
 16 18  1  0
 18 19  1  0
 18 20  1  0
 18 21  1  0
 21 22  2  0
 22 23  1  0
 22 24  1  0
 24 25  1  0
 24 26  2  0
 26 27  1  0
 27 28  1  0
 28 29  1  0
 28 30  1  0
 28 31  1  0
 26 32  1  0
 32 33  1  0
 32 34  2  0
 34 35  1  0
  6 36  1  0
 36 37  1  0
 36 38  2  0
 38 39  1  0
 38  2  1  0
 15  7  1  0
 34 21  1  0
M  END
>  <plip>  (1) 
-0.06666666666666667

>  <filename>  (1) 
[H][c]1[n][c]([H])[c]([C]2=[N][C]([H])([H])[C]([H])([H])[N]2[N]([H])[C]([H])([H])[c]2[c]([H])[c]([H])[c]([O][C]([H])([H])[H])[c]([H])[c]2[H])[c]([H])[c]1[H]

$$$$
