
     RDKit          3D

 34 34  0  0  0  0  0  0  0  0999 V2000
    8.2237    0.9596   22.3564 C   0  0  0  0  0  0  0  0  0  0  0  0
    7.2959   -0.1072   22.2334 O   0  0  0  0  0  0  0  0  0  0  0  0
    7.3452   -0.8027   20.9922 C   0  0  0  0  0  0  0  0  0  0  0  0
    6.8180   -2.2636   21.2144 C   0  0  0  0  0  0  0  0  0  0  0  0
    7.5337   -3.2294   21.0108 O   0  0  0  0  0  0  0  0  0  0  0  0
    5.5192   -2.3432   21.6466 N   0  0  0  0  0  0  0  0  0  0  0  0
    4.9310   -3.5476   21.9602 O   0  0  0  0  0  0  0  0  0  0  0  0
    5.5118   -4.2214   23.1020 C   0  0  0  0  0  0  0  0  0  0  0  0
    4.8835   -5.6091   23.1790 C   0  0  0  0  0  0  0  0  0  0  0  0
    3.3559   -5.5734   23.3227 C   0  0  0  0  0  0  0  0  0  0  0  0
    2.7977   -7.0677   23.4579 C   0  0  0  0  0  0  0  0  0  0  0  0
    2.8066   -7.5124   24.6264 O   0  0  0  0  0  0  0  0  0  0  0  0
    2.4219   -7.6082   22.3992 O   0  0  0  0  0  1  0  0  0  0  0  0
    3.0681   -5.0036   24.2073 H   0  0  0  0  0  0  0  0  0  0  0  0
    2.8974   -5.1005   22.4573 H   0  0  0  0  0  0  0  0  0  0  0  0
    5.1455   -6.1918   22.2909 H   0  0  0  0  0  0  0  0  0  0  0  0
    5.3074   -6.1411   24.0391 H   0  0  0  0  0  0  0  0  0  0  0  0
    6.5983   -4.2787   22.9621 H   0  0  0  0  0  0  0  0  0  0  0  0
    5.2962   -3.6573   24.0249 H   0  0  0  0  0  0  0  0  0  0  0  0
    5.2377   -1.5890   22.2566 H   0  0  0  0  0  0  0  0  0  0  0  0
    6.6315    0.0006   19.8873 C   0  0  0  0  0  0  0  0  0  0  0  0
    5.4265    0.6916   20.1253 C   0  0  0  0  0  0  0  0  0  0  0  0
    4.7957    1.3386   19.0590 C   0  0  0  0  0  0  0  0  0  0  0  0
    5.4046    1.3143   17.8046 C   0  0  0  0  0  0  0  0  0  0  0  0
    6.5714    0.6983   17.5598 N   0  0  0  0  0  0  0  0  0  0  0  0
    7.1583    0.0687   18.5870 C   0  0  0  0  0  0  0  0  0  0  0  0
    8.1144   -0.4084   18.3603 H   0  0  0  0  0  0  0  0  0  0  0  0
    4.9389    1.8045   16.9517 H   0  0  0  0  0  0  0  0  0  0  0  0
    3.8512    1.8593   19.1924 H   0  0  0  0  0  0  0  0  0  0  0  0
    5.0026    0.7605   21.1252 H   0  0  0  0  0  0  0  0  0  0  0  0
    8.3940   -1.0067   20.7128 H   0  0  0  0  0  0  0  0  0  0  0  0
    9.2615    0.5946   22.3927 H   0  0  0  0  0  0  0  0  0  0  0  0
    8.0063    1.4564   23.3033 H   0  0  0  0  0  0  0  0  0  0  0  0
    8.1238    1.6951   21.5445 H   0  0  0  0  0  0  0  0  0  0  0  0
  1  2  1  0
  2  3  1  0
  3  4  1  0
  4  5  2  0
  4  6  1  0
  6  7  1  0
  7  8  1  0
  8  9  1  0
  9 10  1  0
 10 11  1  0
 11 12  2  0
 11 13  1  0
 10 14  1  0
 10 15  1  0
  9 16  1  0
  9 17  1  0
  8 18  1  0
  8 19  1  0
  6 20  1  0
  3 21  1  0
 21 22  2  0
 22 23  1  0
 23 24  2  0
 24 25  1  0
 25 26  2  0
 26 27  1  0
 24 28  1  0
 23 29  1  0
 22 30  1  0
  3 31  1  0
  1 32  1  0
  1 33  1  0
  1 34  1  0
 26 21  1  0
M  CHG  1  13  -1
M  END
>  <plip>  (1) 
-0.1

>  <filename>  (1) 
[H][c]1[n][c]([H])[c]([C]([H])([O][C]([H])([H])[H])[C](=[O])[N]([H])[O][C]([H])([H])[C]([H])([H])[C]([H])([H])[C](=[O])[O-])[c]([H])[c]1[H]

$$$$
