
     RDKit          3D

 34 35  0  0  0  0  0  0  0  0999 V2000
   13.5987    0.4013   24.7983 N   0  0  0  0  0  0  0  0  0  0  0  0
   12.5286    0.1938   25.1824 C   0  0  0  0  0  0  0  0  0  0  0  0
   11.0794   -0.0428   25.2386 C   0  0  0  0  0  0  0  0  0  0  0  0
   10.4623    0.7735   24.0885 C   0  0  0  0  0  0  0  0  0  0  0  0
   11.2259    0.4531   22.8187 N   0  0  0  0  0  4  0  0  0  0  0  0
   10.9461   -0.9496   22.3005 C   0  0  0  0  0  0  0  0  0  0  0  0
    9.4611   -1.2286   22.1090 C   0  0  0  0  0  0  0  0  0  0  0  0
    8.7412   -0.5858   21.0909 C   0  0  0  0  0  0  0  0  0  0  0  0
    7.3494   -0.7335   20.9512 C   0  0  0  0  0  0  0  0  0  0  0  0
    6.6193    0.0003   19.8731 C   0  0  0  0  0  0  0  0  0  0  0  0
    5.4084    0.6809   20.0881 C   0  0  0  0  0  0  0  0  0  0  0  0
    4.8091    1.3507   19.0161 C   0  0  0  0  0  0  0  0  0  0  0  0
    5.4327    1.3337   17.7649 C   0  0  0  0  0  0  0  0  0  0  0  0
    6.5857    0.6877   17.5338 N   0  0  0  0  0  0  0  0  0  0  0  0
    7.1478    0.0480   18.5677 C   0  0  0  0  0  0  0  0  0  0  0  0
    8.0742   -0.4782   18.3473 H   0  0  0  0  0  0  0  0  0  0  0  0
    4.9878    1.8574   16.9175 H   0  0  0  0  0  0  0  0  0  0  0  0
    3.8775    1.8920   19.1342 H   0  0  0  0  0  0  0  0  0  0  0  0
    4.9489    0.7083   21.0772 H   0  0  0  0  0  0  0  0  0  0  0  0
    6.6700   -1.5807   21.8408 C   0  0  0  0  0  0  0  0  0  0  0  0
    7.3932   -2.2467   22.8248 C   0  0  0  0  0  0  0  0  0  0  0  0
    6.7346   -3.0515   23.6750 F   0  0  0  0  0  0  0  0  0  0  0  0
    8.7711   -2.0989   22.9724 C   0  0  0  0  0  0  0  0  0  0  0  0
    9.2754   -2.6446   23.7656 H   0  0  0  0  0  0  0  0  0  0  0  0
    5.6024   -1.7516   21.7606 H   0  0  0  0  0  0  0  0  0  0  0  0
    9.2711    0.0682   20.4057 H   0  0  0  0  0  0  0  0  0  0  0  0
   11.3518   -1.6591   23.0238 H   0  0  0  0  0  0  0  0  0  0  0  0
   11.4897   -1.0892   21.3629 H   0  0  0  0  0  0  0  0  0  0  0  0
   12.2523    0.5542   23.0303 H   0  0  0  0  0  0  0  0  0  0  0  0
   10.9894    1.1180   22.0508 H   0  0  0  0  0  0  0  0  0  0  0  0
   10.5641    1.8406   24.2954 H   0  0  0  0  0  0  0  0  0  0  0  0
    9.3956    0.5420   23.9682 H   0  0  0  0  0  0  0  0  0  0  0  0
   10.6712    0.2240   26.2103 H   0  0  0  0  0  0  0  0  0  0  0  0
   10.9079   -1.1130   25.0918 H   0  0  0  0  0  0  0  0  0  0  0  0
  1  2  3  0
  2  3  1  0
  3  4  1  0
  4  5  1  0
  5  6  1  0
  6  7  1  0
  7  8  2  0
  8  9  1  0
  9 10  1  0
 10 11  2  0
 11 12  1  0
 12 13  2  0
 13 14  1  0
 14 15  2  0
 15 16  1  0
 13 17  1  0
 12 18  1  0
 11 19  1  0
  9 20  2  0
 20 21  1  0
 21 22  1  0
 21 23  2  0
 23 24  1  0
 20 25  1  0
  8 26  1  0
  6 27  1  0
  6 28  1  0
  5 29  1  0
  5 30  1  0
  4 31  1  0
  4 32  1  0
  3 33  1  0
  3 34  1  0
 23  7  1  0
 15 10  1  0
M  CHG  1   5   1
M  END
>  <plip>  (1) 
-0.06896551724137931

>  <filename>  (1) 
[H][c]1[n][c]([H])[c](-[c]2[c]([H])[c]([F])[c]([H])[c]([C]([H])([H])[N+]([H])([H])[C]([H])([H])[C]([H])([H])[C]#[N])[c]2[H])[c]([H])[c]1[H]

$$$$
