
     RDKit          3D

 37 40  0  0  0  0  0  0  0  0999 V2000
    4.9128    1.7958   16.9812 H   0  0  0  0  0  0  0  0  0  0  0  0
    5.3911    1.3042   17.8227 C   0  0  0  0  0  0  0  0  0  0  0  0
    6.5513    0.6852   17.5520 N   0  0  0  0  0  0  0  0  0  0  0  0
    7.1617    0.0775   18.5769 C   0  0  0  0  0  0  0  0  0  0  0  0
    8.1048   -0.4233   18.3568 H   0  0  0  0  0  0  0  0  0  0  0  0
    6.6528    0.0285   19.8885 C   0  0  0  0  0  0  0  0  0  0  0  0
    7.3667   -0.6904   20.9476 C   0  0  0  0  0  0  0  0  0  0  0  0
    8.5761   -0.3639   21.4474 C   0  0  0  0  0  0  0  0  0  0  0  0
    9.3057    0.8982   21.0680 C   0  0  2  0  0  0  0  0  0  0  0  0
    9.3223    0.9362   19.9760 H   0  0  0  0  0  0  0  0  0  0  0  0
   10.7324    1.0087   21.6165 C   0  0  0  0  0  0  0  0  0  0  0  0
   11.3527    1.6461   20.9608 H   0  0  0  0  0  0  0  0  0  0  0  0
   11.2356    0.0423   21.7147 H   0  0  0  0  0  0  0  0  0  0  0  0
   10.6025    1.5599   22.9152 O   0  0  0  0  0  0  0  0  0  0  0  0
    9.4345    2.3690   22.9918 C   0  0  0  0  0  0  0  0  0  0  0  0
    8.8696    2.0457   23.8760 H   0  0  0  0  0  0  0  0  0  0  0  0
    9.7041    3.4244   23.1477 H   0  0  0  0  0  0  0  0  0  0  0  0
    8.6526    2.1659   21.6800 C   0  0  0  0  0  0  0  0  0  0  0  0
    8.7694    3.0257   21.0123 H   0  0  0  0  0  0  0  0  0  0  0  0
    7.5779    2.0519   21.8629 H   0  0  0  0  0  0  0  0  0  0  0  0
    8.9726   -1.2918   22.5681 C   0  0  0  0  0  0  0  0  0  0  0  0
    9.1417   -0.7256   23.4929 H   0  0  0  0  0  0  0  0  0  0  0  0
    9.9217   -1.7887   22.3359 H   0  0  0  0  0  0  0  0  0  0  0  0
    7.8068   -2.2844   22.6796 C   0  0  0  0  0  0  0  0  0  0  0  0
    6.7740   -1.9000   21.6145 C   0  0  0  0  0  0  0  0  0  0  0  0
    6.6006   -2.7021   20.8850 H   0  0  0  0  0  0  0  0  0  0  0  0
    5.7878   -1.6790   22.0352 H   0  0  0  0  0  0  0  0  0  0  0  0
    8.0571   -3.7249   23.0214 C   0  0  0  0  0  0  0  0  0  0  0  0
    9.0830   -4.0327   23.2128 H   0  0  0  0  0  0  0  0  0  0  0  0
    7.4680   -4.4817   22.5071 H   0  0  0  0  0  0  0  0  0  0  0  0
    7.3697   -2.8180   24.0134 C   0  0  0  0  0  0  0  0  0  0  0  0
    6.3028   -2.9443   24.1902 H   0  0  0  0  0  0  0  0  0  0  0  0
    7.9147   -2.4919   24.8968 H   0  0  0  0  0  0  0  0  0  0  0  0
    5.4232    0.6534   20.1396 C   0  0  0  0  0  0  0  0  0  0  0  0
    5.0094    0.6292   21.1535 H   0  0  0  0  0  0  0  0  0  0  0  0
    4.7935    1.3190   19.0906 C   0  0  0  0  0  0  0  0  0  0  0  0
    3.8644    1.8507   19.2445 H   0  0  0  0  0  0  0  0  0  0  0  0
  1  2  1  0
  2  3  2  0
  3  4  1  0
  4  5  1  0
  4  6  2  0
  6  7  1  0
  7  8  2  0
  8  9  1  0
  9 10  1  6
  9 11  1  0
 11 12  1  0
 11 13  1  0
 11 14  1  0
 14 15  1  0
 15 16  1  0
 15 17  1  0
 15 18  1  0
 18 19  1  0
 18 20  1  0
  8 21  1  0
 21 22  1  0
 21 23  1  0
 21 24  1  0
 24 25  1  0
 25 26  1  0
 25 27  1  0
 24 28  1  0
 28 29  1  0
 28 30  1  0
 28 31  1  0
 31 32  1  0
 31 33  1  0
  6 34  1  0
 34 35  1  0
 34 36  2  0
 36 37  1  0
 36  2  1  0
 25  7  1  0
 18  9  1  0
 31 24  1  0
M  END
>  <plip>  (1) 
-0.03571428571428571

>  <filename>  (1) 
[H][c]1[n][c]([H])[c]([C]2=[C]([C@]3([H])[C]([H])([H])[O][C]([H])([H])[C]3([H])[H])[C]([H])([H])[C]3([C]2([H])[H])[C]([H])([H])[C]3([H])[H])[c]([H])[c]1[H]

$$$$
