
     RDKit          3D

 36 38  0  0  0  0  0  0  0  0999 V2000
    4.9261    1.8261   16.9743 H   0  0  0  0  0  0  0  0  0  0  0  0
    5.3760    1.3061   17.8145 C   0  0  0  0  0  0  0  0  0  0  0  0
    6.5336    0.6784   17.5614 N   0  0  0  0  0  0  0  0  0  0  0  0
    7.1286    0.0578   18.5882 C   0  0  0  0  0  0  0  0  0  0  0  0
    8.0757   -0.4306   18.3523 H   0  0  0  0  0  0  0  0  0  0  0  0
    6.6106    0.0119   19.8951 C   0  0  0  0  0  0  0  0  0  0  0  0
    7.3896   -0.6538   21.0218 C   0  0  0  0  0  0  0  0  0  0  0  0
    7.6660   -1.6826   20.7519 H   0  0  0  0  0  0  0  0  0  0  0  0
    6.7761   -0.7118   21.9283 H   0  0  0  0  0  0  0  0  0  0  0  0
    8.6733    0.0598   21.3248 C   0  0  0  0  0  0  0  0  0  0  0  0
    9.9420   -0.3159   20.9983 C   0  0  0  0  0  0  0  0  0  0  0  0
   10.1876   -1.2685   20.5474 H   0  0  0  0  0  0  0  0  0  0  0  0
   10.8257    0.7401   21.3541 C   0  0  0  0  0  0  0  0  0  0  0  0
   11.8985    0.7475   21.2428 H   0  0  0  0  0  0  0  0  0  0  0  0
   10.0752    1.7412   21.8893 C   0  0  0  0  0  0  0  0  0  0  0  0
   10.3922    2.6752   22.3399 H   0  0  0  0  0  0  0  0  0  0  0  0
    8.7316    1.3396   21.8769 N   0  0  0  0  0  0  0  0  0  0  0  0
    7.6045    2.0039   22.4496 C   0  0  0  0  0  0  0  0  0  0  0  0
    6.6430    1.4236   22.9190 O   0  0  0  0  0  0  0  0  0  0  0  0
    7.7259    3.3621   22.4343 N   0  0  0  0  0  0  0  0  0  0  0  0
    8.3908    3.7045   21.7628 H   0  0  0  0  0  0  0  0  0  0  0  0
    6.6266    4.2327   22.8208 C   0  0  0  0  0  0  0  0  0  0  0  0
    6.3952    4.0457   23.8750 H   0  0  0  0  0  0  0  0  0  0  0  0
    6.9955    5.2627   22.7590 H   0  0  0  0  0  0  0  0  0  0  0  0
    5.3656    4.0791   21.9925 C   0  0  0  0  0  0  0  0  0  0  0  0
    5.5486    3.9803   20.9273 H   0  0  0  0  0  0  0  0  0  0  0  0
    4.1105    4.7990   22.4081 C   0  0  0  0  0  0  0  0  0  0  0  0
    3.4797    5.2438   21.6406 H   0  0  0  0  0  0  0  0  0  0  0  0
    4.1242    5.3725   23.3326 H   0  0  0  0  0  0  0  0  0  0  0  0
    4.1835    3.2996   22.4976 C   0  0  0  0  0  0  0  0  0  0  0  0
    3.6104    2.7254   21.7736 H   0  0  0  0  0  0  0  0  0  0  0  0
    4.2817    2.8334   23.4752 H   0  0  0  0  0  0  0  0  0  0  0  0
    5.3956    0.6688   20.1297 C   0  0  0  0  0  0  0  0  0  0  0  0
    4.9936    0.6946   21.1437 H   0  0  0  0  0  0  0  0  0  0  0  0
    4.7657    1.3246   19.0703 C   0  0  0  0  0  0  0  0  0  0  0  0
    3.8375    1.8705   19.2096 H   0  0  0  0  0  0  0  0  0  0  0  0
  1  2  1  0
  2  3  2  0
  3  4  1  0
  4  5  1  0
  4  6  2  0
  6  7  1  0
  7  8  1  0
  7  9  1  0
  7 10  1  0
 10 11  2  0
 11 12  1  0
 11 13  1  0
 13 14  1  0
 13 15  2  0
 15 16  1  0
 15 17  1  0
 17 18  1  0
 18 19  2  0
 18 20  1  0
 20 21  1  0
 20 22  1  0
 22 23  1  0
 22 24  1  0
 22 25  1  0
 25 26  1  0
 25 27  1  0
 27 28  1  0
 27 29  1  0
 27 30  1  0
 30 31  1  0
 30 32  1  0
  6 33  1  0
 33 34  1  0
 33 35  2  0
 35 36  1  0
 35  2  1  0
 17 10  1  0
 30 25  1  0
M  END
>  <plip>  (1) 
-0.07142857142857142

>  <filename>  (1) 
[H][c]1[n][c]([H])[c]([C]([H])([H])[c]2[c]([H])[c]([H])[c]([H])[n]2[C](=[O])[N]([H])[C]([H])([H])[C]2([H])[C]([H])([H])[C]2([H])[H])[c]([H])[c]1[H]

$$$$
