
     RDKit          3D

 32 33  0  0  0  0  0  0  0  0999 V2000
    4.9265    1.8048   16.9758 H   0  0  0  0  0  0  0  0  0  0  0  0
    5.3867    1.3030   17.8261 C   0  0  0  0  0  0  0  0  0  0  0  0
    6.5501    0.6840   17.5766 N   0  0  0  0  0  0  0  0  0  0  0  0
    7.1504    0.0685   18.6017 C   0  0  0  0  0  0  0  0  0  0  0  0
    8.1034   -0.4089   18.3638 H   0  0  0  0  0  0  0  0  0  0  0  0
    6.6285    0.0061   19.9072 C   0  0  0  0  0  0  0  0  0  0  0  0
    7.3923   -0.7093   21.0007 C   0  0  0  0  0  0  0  0  0  0  0  0
    7.5908   -1.7542   20.7321 H   0  0  0  0  0  0  0  0  0  0  0  0
    6.8322   -0.7151   21.9427 H   0  0  0  0  0  0  0  0  0  0  0  0
    8.6916   -0.1069   21.2594 N   0  0  0  0  0  0  0  0  0  0  0  0
    8.9533    1.0536   21.9277 C   0  0  0  0  0  0  0  0  0  0  0  0
    7.9621    1.8844   22.6774 C   0  0  0  0  0  0  0  0  0  0  0  0
    6.9431    1.6632   22.3408 H   0  0  0  0  0  0  0  0  0  0  0  0
    8.1761    2.9256   22.4150 H   0  0  0  0  0  0  0  0  0  0  0  0
    8.0836    1.7017   24.2075 C   0  0  0  0  0  0  0  0  0  0  0  0
    9.1248    1.8856   24.5037 H   0  0  0  0  0  0  0  0  0  0  0  0
    7.4720    2.4635   24.7106 H   0  0  0  0  0  0  0  0  0  0  0  0
    7.6665    0.3215   24.7132 C   0  0  0  0  0  0  0  0  0  0  0  0
    8.2253   -0.4518   24.1670 H   0  0  0  0  0  0  0  0  0  0  0  0
    7.9649    0.2266   25.7725 H   0  0  0  0  0  0  0  0  0  0  0  0
    6.2390    0.1062   24.4686 N   0  0  0  0  0  0  0  0  0  0  0  0
    5.9701   -0.8397   24.7234 H   0  0  0  0  0  0  0  0  0  0  0  0
    5.6872    0.7262   25.0562 H   0  0  0  0  0  0  0  0  0  0  0  0
   10.2369    1.3318   21.9124 N   0  0  0  0  0  0  0  0  0  0  0  0
   10.8329    0.3229   21.2138 C   0  0  0  0  0  0  0  0  0  0  0  0
   11.9034    0.3366   21.0684 H   0  0  0  0  0  0  0  0  0  0  0  0
    9.8964   -0.5756   20.7877 C   0  0  0  0  0  0  0  0  0  0  0  0
    9.9305   -1.4761   20.1999 H   0  0  0  0  0  0  0  0  0  0  0  0
    5.4121    0.6545   20.1426 C   0  0  0  0  0  0  0  0  0  0  0  0
    4.9716    0.6489   21.1438 H   0  0  0  0  0  0  0  0  0  0  0  0
    4.7826    1.3168   19.0854 C   0  0  0  0  0  0  0  0  0  0  0  0
    3.8562    1.8564   19.2286 H   0  0  0  0  0  0  0  0  0  0  0  0
  1  2  1  0
  2  3  2  0
  3  4  1  0
  4  5  1  0
  4  6  2  0
  6  7  1  0
  7  8  1  0
  7  9  1  0
  7 10  1  0
 10 11  1  0
 11 12  1  0
 12 13  1  0
 12 14  1  0
 12 15  1  0
 15 16  1  0
 15 17  1  0
 15 18  1  0
 18 19  1  0
 18 20  1  0
 18 21  1  0
 21 22  1  0
 21 23  1  0
 11 24  2  0
 24 25  1  0
 25 26  1  0
 25 27  2  0
 27 28  1  0
  6 29  1  0
 29 30  1  0
 29 31  2  0
 31 32  1  0
 31  2  1  0
 27 10  1  0
M  END
>  <plip>  (1) 
-0.07142857142857142

>  <filename>  (1) 
[H][c]1[n][c]([H])[c]([C]([H])([H])[n]2[c]([C]([H])([H])[C]([H])([H])[C]([H])([H])[N]([H])[H])[n][c]([H])[c]2[H])[c]([H])[c]1[H]

$$$$
