
     RDKit          3D

 46 48  0  0  0  0  0  0  0  0999 V2000
    6.4934    4.9477   21.5876 C   0  0  0  0  0  0  0  0  0  0  0  0
    5.4109    4.1194   22.2933 C   0  0  0  0  0  0  0  0  0  0  0  0
    5.4258    4.3008   23.8047 C   0  0  0  0  0  0  0  0  0  0  0  0
    4.9372    5.5117   24.3304 C   0  0  0  0  0  0  0  0  0  0  0  0
    4.9216    5.7630   25.7053 C   0  0  0  0  0  0  0  0  0  0  0  0
    5.3991    4.7863   26.5860 C   0  0  0  0  0  0  0  0  0  0  0  0
    5.9089    3.5892   26.0755 C   0  0  0  0  0  0  0  0  0  0  0  0
    5.9668    3.3392   24.6915 C   0  0  0  0  0  0  0  0  0  0  0  0
    6.5690    2.0579   24.1703 C   0  0  2  0  0  0  0  0  0  0  0  0
    7.7825    1.4608   24.8043 C   0  0  0  0  0  0  0  0  0  0  0  0
    7.9010    2.0770   23.4228 C   0  0  1  0  0  0  0  0  0  0  0  0
    8.1476    1.2593   22.1849 C   0  0  0  0  0  0  0  0  0  0  0  0
    8.8700    1.5895   21.2786 O   0  0  0  0  0  0  0  0  0  0  0  0
    7.4693    0.0713   22.2118 O   0  0  0  0  0  0  0  0  0  0  0  0
    7.3981   -0.7320   21.0131 C   0  0  1  0  0  0  0  0  0  0  0  0
    6.6541   -2.0695   21.3455 C   0  0  0  0  0  0  0  0  0  0  0  0
    5.7206   -2.2231   22.0876 O   0  0  0  0  0  0  0  0  0  0  0  0
    7.1690   -3.0825   20.6348 O   0  0  0  0  0  0  0  0  0  0  0  0
    6.5325   -4.3672   20.7487 C   0  0  0  0  0  0  0  0  0  0  0  0
    6.6020   -4.7324   21.7756 H   0  0  0  0  0  0  0  0  0  0  0  0
    7.0702   -5.0203   20.0621 H   0  0  0  0  0  0  0  0  0  0  0  0
    5.4751   -4.3144   20.4742 H   0  0  0  0  0  0  0  0  0  0  0  0
    6.6792    0.0312   19.9057 C   0  0  0  0  0  0  0  0  0  0  0  0
    5.4540    0.6638   20.1505 C   0  0  0  0  0  0  0  0  0  0  0  0
    4.8089    1.3173   19.1002 C   0  0  0  0  0  0  0  0  0  0  0  0
    5.4025    1.2970   17.8324 C   0  0  0  0  0  0  0  0  0  0  0  0
    6.5670    0.6852   17.5723 N   0  0  0  0  0  0  0  0  0  0  0  0
    7.1865    0.0873   18.6029 C   0  0  0  0  0  0  0  0  0  0  0  0
    8.1313   -0.4027   18.3600 H   0  0  0  0  0  0  0  0  0  0  0  0
    4.9237    1.7916   16.9874 H   0  0  0  0  0  0  0  0  0  0  0  0
    3.8695    1.8379   19.2437 H   0  0  0  0  0  0  0  0  0  0  0  0
    5.0063    0.6202   21.1457 H   0  0  0  0  0  0  0  0  0  0  0  0
    8.4161   -0.9865   20.7017 H   0  0  0  0  0  0  0  0  0  0  0  0
    8.3838    3.0486   23.3357 H   0  0  0  0  0  0  0  0  0  0  0  0
    8.2289    1.9880   25.6487 H   0  0  0  0  0  0  0  0  0  0  0  0
    7.8419    0.3784   24.8942 H   0  0  0  0  0  0  0  0  0  0  0  0
    5.8155    1.3667   23.7754 H   0  0  0  0  0  0  0  0  0  0  0  0
    6.2968    2.8206   26.7396 H   0  0  0  0  0  0  0  0  0  0  0  0
    5.3891    4.9599   27.6609 H   0  0  0  0  0  0  0  0  0  0  0  0
    4.5347    6.7089   26.0808 H   0  0  0  0  0  0  0  0  0  0  0  0
    4.5802    6.2677   23.6293 H   0  0  0  0  0  0  0  0  0  0  0  0
    4.4242    4.4270   21.9167 H   0  0  0  0  0  0  0  0  0  0  0  0
    5.5079    3.0613   22.0168 H   0  0  0  0  0  0  0  0  0  0  0  0
    6.4469    4.8007   20.5144 H   0  0  0  0  0  0  0  0  0  0  0  0
    6.3704    6.0218   21.7643 H   0  0  0  0  0  0  0  0  0  0  0  0
    7.5015    4.6608   21.9092 H   0  0  0  0  0  0  0  0  0  0  0  0
  1  2  1  0
  2  3  1  0
  3  4  2  0
  4  5  1  0
  5  6  2  0
  6  7  1  0
  7  8  2  0
  8  9  1  0
  9 10  1  0
 10 11  1  0
 11 12  1  0
 12 13  2  0
 12 14  1  0
 14 15  1  0
 15 16  1  0
 16 17  2  0
 16 18  1  0
 18 19  1  0
 19 20  1  0
 19 21  1  0
 19 22  1  0
 15 23  1  0
 23 24  2  0
 24 25  1  0
 25 26  2  0
 26 27  1  0
 27 28  2  0
 28 29  1  0
 26 30  1  0
 25 31  1  0
 24 32  1  0
 15 33  1  6
 11 34  1  1
 10 35  1  0
 10 36  1  0
  9 37  1  6
  7 38  1  0
  6 39  1  0
  5 40  1  0
  4 41  1  0
  2 42  1  0
  2 43  1  0
  1 44  1  0
  1 45  1  0
  1 46  1  0
  8  3  1  0
 11  9  1  0
 28 23  1  0
M  END
>  <plip>  (1) 
-0.07142857142857142

>  <filename>  (1) 
[H][c]1[n][c]([H])[c]([C@@]([H])([O][C](=[O])[C@]2([H])[C]([H])([H])[C@@]2([H])[c]2[c]([H])[c]([H])[c]([H])[c]([H])[c]2[C]([H])([H])[C]([H])([H])[H])[C](=[O])[O][C]([H])([H])[H])[c]([H])[c]1[H]

$$$$
