
     RDKit          3D

 47 51  0  0  0  0  0  0  0  0999 V2000
    4.7967    1.2982   19.0717 C   0  0  0  0  0  0  0  0  0  0  0  0
    5.4317    1.2943   17.8242 C   0  0  0  0  0  0  0  0  0  0  0  0
    6.5951    0.6676   17.5939 N   0  0  0  0  0  0  0  0  0  0  0  0
    7.1638    0.0372   18.6299 C   0  0  0  0  0  0  0  0  0  0  0  0
    6.6277   -0.0164   19.9309 C   0  0  0  0  0  0  0  0  0  0  0  0
    7.3562   -0.7202   21.0543 C   0  0  0  0  0  0  0  0  0  0  0  0
    7.0085   -2.1653   21.2977 C   0  0  0  0  0  0  0  0  0  0  0  0
    7.9223   -3.1054   21.3210 N   0  0  0  0  0  0  0  0  0  0  0  0
    7.2277   -4.2351   21.6836 O   0  0  0  0  0  0  0  0  0  0  0  0
    5.9577   -3.8725   21.8743 C   0  0  0  0  0  0  0  0  0  0  0  0
    5.0467   -4.9272   22.3989 C   0  0  0  0  0  0  0  0  0  0  0  0
    5.6526   -5.5328   23.6714 C   0  0  0  0  0  0  0  0  0  0  0  0
    4.7777   -6.5326   24.4413 C   0  0  0  0  0  0  0  0  0  0  0  0
    4.4977   -5.8500   25.8054 C   0  0  0  0  0  0  0  0  0  0  0  0
    3.0880   -5.2083   25.8026 C   0  0  0  0  0  0  0  0  0  0  0  0
    2.1283   -6.3651   26.1590 C   0  0  0  0  0  0  0  0  0  0  0  0
    2.9911   -7.4251   26.8941 C   0  0  0  0  0  0  0  0  0  0  0  0
    4.3998   -6.8105   27.0000 C   0  0  0  0  0  0  0  0  0  0  0  0
    4.5037   -6.2377   27.9347 H   0  0  0  0  0  0  0  0  0  0  0  0
    5.2017   -7.5615   27.0025 H   0  0  0  0  0  0  0  0  0  0  0  0
    3.0268   -8.3571   26.3159 H   0  0  0  0  0  0  0  0  0  0  0  0
    2.5898   -7.6845   27.8793 H   0  0  0  0  0  0  0  0  0  0  0  0
    1.6846   -6.7949   25.2532 H   0  0  0  0  0  0  0  0  0  0  0  0
    1.2977   -6.0055   26.7741 H   0  0  0  0  0  0  0  0  0  0  0  0
    2.8566   -4.7356   24.8399 H   0  0  0  0  0  0  0  0  0  0  0  0
    3.0404   -4.4177   26.5646 H   0  0  0  0  0  0  0  0  0  0  0  0
    5.6471   -4.8365   25.8736 C   0  0  0  0  0  0  0  0  0  0  0  0
    5.8671   -4.4266   24.5433 O   0  0  0  0  0  0  0  0  0  0  0  0
    6.5633   -5.2903   26.2912 H   0  0  0  0  0  0  0  0  0  0  0  0
    5.4001   -3.9504   26.4732 H   0  0  0  0  0  0  0  0  0  0  0  0
    5.3088   -7.4803   24.5819 H   0  0  0  0  0  0  0  0  0  0  0  0
    3.8554   -6.7792   23.9023 H   0  0  0  0  0  0  0  0  0  0  0  0
    6.6288   -5.9937   23.4545 H   0  0  0  0  0  0  0  0  0  0  0  0
    4.0965   -4.4473   22.6457 H   0  0  0  0  0  0  0  0  0  0  0  0
    4.8970   -5.6892   21.6284 H   0  0  0  0  0  0  0  0  0  0  0  0
    5.7411   -2.6245   21.6060 N   0  0  0  0  0  0  0  0  0  0  0  0
    7.7456    0.1164   22.2814 C   0  0  0  0  0  0  0  0  0  0  0  0
    8.7892   -0.3005   21.3089 C   0  0  0  0  0  0  0  0  0  0  0  0
    9.4743   -1.0877   21.6119 H   0  0  0  0  0  0  0  0  0  0  0  0
    9.2154    0.4666   20.6666 H   0  0  0  0  0  0  0  0  0  0  0  0
    7.4611    1.1678   22.2932 H   0  0  0  0  0  0  0  0  0  0  0  0
    7.7162   -0.3648   23.2555 H   0  0  0  0  0  0  0  0  0  0  0  0
    5.4050    0.6305   20.1397 C   0  0  0  0  0  0  0  0  0  0  0  0
    4.9560    0.6042   21.1346 H   0  0  0  0  0  0  0  0  0  0  0  0
    8.1070   -0.4674   18.4262 H   0  0  0  0  0  0  0  0  0  0  0  0
    4.9832    1.8032   16.9711 H   0  0  0  0  0  0  0  0  0  0  0  0
    3.8536    1.8189   19.1906 H   0  0  0  0  0  0  0  0  0  0  0  0
  1  2  2  0
  2  3  1  0
  3  4  2  0
  4  5  1  0
  5  6  1  0
  6  7  1  0
  7  8  2  0
  8  9  1  0
  9 10  1  0
 10 11  1  0
 11 12  1  0
 12 13  1  0
 13 14  1  0
 14 15  1  0
 15 16  1  0
 16 17  1  0
 17 18  1  0
 18 19  1  0
 18 20  1  0
 17 21  1  0
 17 22  1  0
 16 23  1  0
 16 24  1  0
 15 25  1  0
 15 26  1  0
 14 27  1  0
 27 28  1  0
 27 29  1  0
 27 30  1  0
 13 31  1  0
 13 32  1  0
 12 33  1  0
 11 34  1  0
 11 35  1  0
 10 36  2  0
  6 37  1  0
 37 38  1  0
 38 39  1  0
 38 40  1  0
 37 41  1  0
 37 42  1  0
  5 43  2  0
 43 44  1  0
  4 45  1  0
  2 46  1  0
  1 47  1  0
 43  1  1  0
 38  6  1  0
 36  7  1  0
 28 12  1  0
 18 14  1  0
M  END
>  <plip>  (1) 
-0.06896551724137931

>  <filename>  (1) 
[H][c]1[n][c]([H])[c]([C]2([c]3[n][o][c]([C]([H])([H])[C]4([H])[O][C]([H])([H])[C]5([C]([H])([H])[C]([H])([H])[C]([H])([H])[C]5([H])[H])[C]4([H])[H])[n]3)[C]([H])([H])[C]2([H])[H])[c]([H])[c]1[H]

$$$$
