
     RDKit          3D

 40 42  0  0  0  0  0  0  0  0999 V2000
    4.9552    1.8795   16.9322 H   0  0  0  0  0  0  0  0  0  0  0  0
    5.4194    1.3519   17.7646 C   0  0  0  0  0  0  0  0  0  0  0  0
    6.5846    0.7358   17.5092 N   0  0  0  0  0  0  0  0  0  0  0  0
    7.1830    0.0952   18.5236 C   0  0  0  0  0  0  0  0  0  0  0  0
    8.1172   -0.4076   18.2849 H   0  0  0  0  0  0  0  0  0  0  0  0
    6.6533    0.0169   19.8302 C   0  0  0  0  0  0  0  0  0  0  0  0
    7.3293   -0.6853   20.9004 N   0  0  0  0  0  0  0  0  0  0  0  0
    8.5975   -0.2635   21.2819 C   0  0  0  0  0  0  0  0  0  0  0  0
    9.0038    0.5795   20.7278 H   0  0  0  0  0  0  0  0  0  0  0  0
    9.2924   -0.8743   22.2811 C   0  0  0  0  0  0  0  0  0  0  0  0
   10.2976   -0.5339   22.5061 H   0  0  0  0  0  0  0  0  0  0  0  0
    8.7121   -1.9769   22.9965 C   0  0  0  0  0  0  0  0  0  0  0  0
    9.5493   -2.8032   23.9858 C   0  0  0  0  0  0  0  0  0  0  0  0
   10.7495   -2.9579   23.8475 O   0  0  0  0  0  0  0  0  0  0  0  0
    8.8451   -3.4336   24.9982 N   0  0  0  0  0  0  0  0  0  0  0  0
    9.4286   -4.6350   25.6257 C   0  0  0  0  0  0  0  0  0  0  0  0
    9.9945   -4.3620   26.5333 H   0  0  0  0  0  0  0  0  0  0  0  0
   10.1353   -5.0984   24.9317 H   0  0  0  0  0  0  0  0  0  0  0  0
    8.2955   -5.6254   25.9720 C   0  0  0  0  0  0  0  0  0  0  0  0
    7.8099   -5.9343   25.0340 H   0  0  0  0  0  0  0  0  0  0  0  0
    8.7114   -6.5345   26.4254 H   0  0  0  0  0  0  0  0  0  0  0  0
    7.2759   -5.0628   26.8707 N   0  0  0  0  0  0  0  0  0  0  0  0
    7.7475   -4.9576   28.2476 C   0  0  0  0  0  0  0  0  0  0  0  0
    6.9116   -4.7915   28.9410 H   0  0  0  0  0  0  0  0  0  0  0  0
    8.4888   -4.1539   28.3810 H   0  0  0  0  0  0  0  0  0  0  0  0
    8.2198   -5.9068   28.5337 H   0  0  0  0  0  0  0  0  0  0  0  0
    6.7427   -3.8137   26.3027 C   0  0  0  0  0  0  0  0  0  0  0  0
    6.0803   -3.3411   27.0396 H   0  0  0  0  0  0  0  0  0  0  0  0
    6.1107   -4.0678   25.4381 H   0  0  0  0  0  0  0  0  0  0  0  0
    7.8129   -2.7915   25.8376 C   0  0  0  0  0  0  0  0  0  0  0  0
    7.3242   -1.9842   25.2842 H   0  0  0  0  0  0  0  0  0  0  0  0
    8.2808   -2.3317   26.7250 H   0  0  0  0  0  0  0  0  0  0  0  0
    7.4250   -2.3421   22.6735 C   0  0  0  0  0  0  0  0  0  0  0  0
    6.8914   -3.1325   23.1738 H   0  0  0  0  0  0  0  0  0  0  0  0
    6.6645   -1.7739   21.5776 C   0  0  0  0  0  0  0  0  0  0  0  0
    5.5762   -2.1987   21.2281 O   0  0  0  0  0  0  0  0  0  0  0  0
    5.4338    0.6577   20.0766 C   0  0  0  0  0  0  0  0  0  0  0  0
    4.9987    0.6155   21.0748 H   0  0  0  0  0  0  0  0  0  0  0  0
    4.8109    1.3399   19.0248 C   0  0  0  0  0  0  0  0  0  0  0  0
    3.8758    1.8671   19.1746 H   0  0  0  0  0  0  0  0  0  0  0  0
  1  2  1  0
  2  3  2  0
  3  4  1  0
  4  5  1  0
  4  6  2  0
  6  7  1  0
  7  8  1  0
  8  9  1  0
  8 10  2  0
 10 11  1  0
 10 12  1  0
 12 13  1  0
 13 14  2  0
 13 15  1  0
 15 16  1  0
 16 17  1  0
 16 18  1  0
 16 19  1  0
 19 20  1  0
 19 21  1  0
 19 22  1  0
 22 23  1  0
 23 24  1  0
 23 25  1  0
 23 26  1  0
 22 27  1  0
 27 28  1  0
 27 29  1  0
 27 30  1  0
 30 31  1  0
 30 32  1  0
 12 33  2  0
 33 34  1  0
 33 35  1  0
 35 36  2  0
  6 37  1  0
 37 38  1  0
 37 39  2  0
 39 40  1  0
 39  2  1  0
 35  7  1  0
 30 15  1  0
M  END
>  <plip>  (1) 
-0.06896551724137931

>  <filename>  (1) 
[H][c]1[n][c]([H])[c](-[n]2[c]([H])[c]([H])[c]([C](=[O])[N]3[C]([H])([H])[C]([H])([H])[N]([C]([H])([H])[H])[C]([H])([H])[C]3([H])[H])[c]([H])[c]2=[O])[c]([H])[c]1[H]

$$$$
