
     RDKit          3D

 29 30  0  0  0  0  0  0  0  0999 V2000
    9.1181    0.6569   29.4020 H   0  0  0  0  0  0  0  0  0  0  0  0
    8.2293    0.6221   28.9935 O   0  0  0  0  0  0  0  0  0  0  0  0
    8.4329    0.6283   27.6147 N   0  0  0  0  0  0  0  0  0  0  0  0
    7.8310    1.3106   27.1845 H   0  0  0  0  0  0  0  0  0  0  0  0
    8.5802   -0.5405   26.8714 C   0  0  0  0  0  0  0  0  0  0  0  0
    9.0011   -1.5862   27.3192 O   0  0  0  0  0  0  0  0  0  0  0  0
    8.2370   -0.3164   25.4480 C   0  0  0  0  0  0  0  0  0  0  0  0
    7.8398    0.6374   25.1320 H   0  0  0  0  0  0  0  0  0  0  0  0
    8.4302   -1.2839   24.5476 C   0  0  0  0  0  0  0  0  0  0  0  0
    8.8761   -2.2421   24.8362 H   0  0  0  0  0  0  0  0  0  0  0  0
    8.1231   -1.1807   23.2015 N   0  0  0  0  0  0  0  0  0  0  0  0
    7.3245   -0.1996   22.5888 C   0  0  0  0  0  0  0  0  0  0  0  0
    6.7299    0.6831   23.1779 O   0  0  0  0  0  0  0  0  0  0  0  0
    7.4096   -0.4866   21.0996 C   0  0  0  0  0  0  0  0  0  0  0  0
    6.6727    0.1848   19.9987 C   0  0  0  0  0  0  0  0  0  0  0  0
    7.1590    0.1219   18.6701 C   0  0  0  0  0  0  0  0  0  0  0  0
    8.1044   -0.3730   18.4569 H   0  0  0  0  0  0  0  0  0  0  0  0
    6.5509    0.6545   17.6081 N   0  0  0  0  0  0  0  0  0  0  0  0
    5.3934    1.2996   17.8237 C   0  0  0  0  0  0  0  0  0  0  0  0
    4.9271    1.7417   16.9445 H   0  0  0  0  0  0  0  0  0  0  0  0
    4.8074    1.4169   19.0861 C   0  0  0  0  0  0  0  0  0  0  0  0
    3.8723    1.9564   19.1819 H   0  0  0  0  0  0  0  0  0  0  0  0
    5.4558    0.8614   20.1949 C   0  0  0  0  0  0  0  0  0  0  0  0
    5.0470    0.9476   21.2016 H   0  0  0  0  0  0  0  0  0  0  0  0
    8.2770   -1.4988   20.9352 C   0  0  0  0  0  0  0  0  0  0  0  0
    8.6623   -1.8428   19.9893 H   0  0  0  0  0  0  0  0  0  0  0  0
    8.6724   -2.1092   22.2295 C   0  0  0  0  0  0  0  0  0  0  0  0
    9.7604   -2.2040   22.3163 H   0  0  0  0  0  0  0  0  0  0  0  0
    8.2286   -3.1082   22.3543 H   0  0  0  0  0  0  0  0  0  0  0  0
  1  2  1  0
  2  3  1  0
  3  4  1  0
  3  5  1  0
  5  6  2  0
  5  7  1  0
  7  8  1  0
  7  9  2  3
  9 10  1  0
  9 11  1  0
 11 12  1  0
 12 13  2  0
 12 14  1  0
 14 15  1  0
 15 16  2  0
 16 17  1  0
 16 18  1  0
 18 19  2  0
 19 20  1  0
 19 21  1  0
 21 22  1  0
 21 23  2  0
 23 24  1  0
 14 25  2  0
 25 26  1  0
 25 27  1  0
 27 28  1  0
 27 29  1  0
 27 11  1  0
 23 15  1  0
M  END
>  <plip>  (1) 
-0.06896551724137931

>  <filename>  (1) 
[H][O][N]([H])[C](=[O])[C]([H])=[C]([H])[N]1[C](=[O])[C]([c]2[c]([H])[n][c]([H])[c]([H])[c]2[H])=[C]([H])[C]1([H])[H]

$$$$
