
     RDKit          3D

 40 42  0  0  0  0  0  0  0  0999 V2000
    4.1710   -6.8131   25.4133 H   0  0  0  0  0  0  0  0  0  0  0  0
    5.1126   -6.3930   25.7708 C   0  0  0  0  0  0  0  0  0  0  0  0
    5.6008   -5.3446   25.0896 N   0  0  0  0  0  0  0  0  0  0  0  0
    6.7455   -4.7766   25.5283 C   0  0  0  0  0  0  0  0  0  0  0  0
    7.3216   -3.5315   24.8337 C   0  0  0  0  0  0  0  0  0  0  0  0
    8.3292   -2.9821   25.2685 O   0  0  0  0  0  0  0  0  0  0  0  0
    6.6358   -3.0671   23.7482 N   0  0  0  0  0  0  0  0  0  0  0  0
    5.8060   -3.5793   23.4638 H   0  0  0  0  0  0  0  0  0  0  0  0
    6.9812   -1.8921   23.0544 N   0  0  0  0  0  0  0  0  0  0  0  0
    6.6334   -1.7685   21.6796 C   0  0  0  0  0  0  0  0  0  0  0  0
    5.7985   -2.4829   21.1524 O   0  0  0  0  0  0  0  0  0  0  0  0
    7.3075   -0.7521   20.9713 N   0  0  0  0  0  0  0  0  0  0  0  0
    6.6400   -0.0608   19.9010 C   0  0  0  0  0  0  0  0  0  0  0  0
    7.1784    0.0291   18.5926 C   0  0  0  0  0  0  0  0  0  0  0  0
    8.1273   -0.4538   18.3534 H   0  0  0  0  0  0  0  0  0  0  0  0
    6.5783    0.6710   17.5831 N   0  0  0  0  0  0  0  0  0  0  0  0
    5.4177    1.2963   17.8388 C   0  0  0  0  0  0  0  0  0  0  0  0
    4.9586    1.8127   16.9993 H   0  0  0  0  0  0  0  0  0  0  0  0
    4.8092    1.2977   19.0972 C   0  0  0  0  0  0  0  0  0  0  0  0
    3.8800    1.8394   19.2455 H   0  0  0  0  0  0  0  0  0  0  0  0
    5.4281    0.6054   20.1436 C   0  0  0  0  0  0  0  0  0  0  0  0
    4.9980    0.5931   21.1465 H   0  0  0  0  0  0  0  0  0  0  0  0
    8.6927   -0.3686   21.2878 C   0  0  0  0  0  0  0  0  0  0  0  0
    9.2882   -1.2749   21.4663 H   0  0  0  0  0  0  0  0  0  0  0  0
    9.1071    0.1183   20.3984 H   0  0  0  0  0  0  0  0  0  0  0  0
    8.8203    0.5797   22.4897 C   0  0  0  0  0  0  0  0  0  0  0  0
    9.8369    0.9932   22.4942 H   0  0  0  0  0  0  0  0  0  0  0  0
    8.1426    1.4314   22.3369 H   0  0  0  0  0  0  0  0  0  0  0  0
    8.5263   -0.1011   23.8297 C   0  0  0  0  0  0  0  0  0  0  0  0
    8.6539    0.6108   24.6556 H   0  0  0  0  0  0  0  0  0  0  0  0
    9.2282   -0.9214   24.0251 H   0  0  0  0  0  0  0  0  0  0  0  0
    7.1139   -0.6813   23.8929 C   0  0  0  0  0  0  0  0  0  0  0  0
    6.8811   -0.9631   24.9207 H   0  0  0  0  0  0  0  0  0  0  0  0
    6.3631    0.0649   23.5959 H   0  0  0  0  0  0  0  0  0  0  0  0
    7.4467   -5.2579   26.6478 C   0  0  0  0  0  0  0  0  0  0  0  0
    8.3631   -4.7537   26.9476 H   0  0  0  0  0  0  0  0  0  0  0  0
    6.9373   -6.3550   27.3375 C   0  0  0  0  0  0  0  0  0  0  0  0
    7.4635   -6.7544   28.2029 H   0  0  0  0  0  0  0  0  0  0  0  0
    5.7427   -6.9332   26.8953 C   0  0  0  0  0  0  0  0  0  0  0  0
    5.3070   -7.7902   27.4016 H   0  0  0  0  0  0  0  0  0  0  0  0
  1  2  1  0
  2  3  2  0
  3  4  1  0
  4  5  1  0
  5  6  2  0
  5  7  1  0
  7  8  1  0
  7  9  1  0
  9 10  1  0
 10 11  2  0
 10 12  1  0
 12 13  1  0
 13 14  2  0
 14 15  1  0
 14 16  1  0
 16 17  2  0
 17 18  1  0
 17 19  1  0
 19 20  1  0
 19 21  2  0
 21 22  1  0
 12 23  1  0
 23 24  1  0
 23 25  1  0
 23 26  1  0
 26 27  1  0
 26 28  1  0
 26 29  1  0
 29 30  1  0
 29 31  1  0
 29 32  1  0
 32 33  1  0
 32 34  1  0
  4 35  2  0
 35 36  1  0
 35 37  1  0
 37 38  1  0
 37 39  2  0
 39 40  1  0
 39  2  1  0
 32  9  1  0
 21 13  1  0
M  END
>  <plip>  (1) 
-0.07142857142857142

>  <filename>  (1) 
[H][c]1[n][c]([C](=[O])[N]([H])[N]2[C](=[O])[N]([c]3[c]([H])[n][c]([H])[c]([H])[c]3[H])[C]([H])([H])[C]([H])([H])[C]([H])([H])[C]2([H])[H])[c]([H])[c]([H])[c]1[H]

$$$$
