
     RDKit          3D

 41 43  0  0  0  0  0  0  0  0999 V2000
    5.1017    1.4390   28.0393 H   0  0  0  0  0  0  0  0  0  0  0  0
    5.6183    0.9431   28.6849 O   0  0  0  0  0  0  0  0  0  0  0  0
    6.8927    0.6814   28.1213 C   0  0  0  0  0  0  0  0  0  0  0  0
    7.3443    1.6130   27.7396 H   0  0  0  0  0  0  0  0  0  0  0  0
    7.5198    0.3463   28.9531 H   0  0  0  0  0  0  0  0  0  0  0  0
    6.8640   -0.3759   27.0005 C   0  0  0  0  0  0  0  0  0  0  0  0
    6.3661   -1.2657   27.4179 H   0  0  0  0  0  0  0  0  0  0  0  0
    8.2764   -0.7430   26.5136 C   0  0  0  0  0  0  0  0  0  0  0  0
    8.8772   -1.1380   27.3426 H   0  0  0  0  0  0  0  0  0  0  0  0
    8.7727    0.1694   26.1462 H   0  0  0  0  0  0  0  0  0  0  0  0
    8.2681   -1.7638   25.3642 C   0  0  0  0  0  0  0  0  0  0  0  0
    7.8541   -2.7308   25.7208 H   0  0  0  0  0  0  0  0  0  0  0  0
    9.3200   -1.9348   25.0983 H   0  0  0  0  0  0  0  0  0  0  0  0
    7.5397   -1.2329   24.1947 N   0  0  0  0  0  0  0  0  0  0  0  0
    7.4465   -2.1427   23.0250 C   0  0  1  0  0  0  0  0  0  0  0  0
    6.9446   -3.0820   23.3296 H   0  0  0  0  0  0  0  0  0  0  0  0
    6.6992   -1.5687   21.8665 C   0  0  0  0  0  0  0  0  0  0  0  0
    5.6333   -1.7055   21.8417 H   0  0  0  0  0  0  0  0  0  0  0  0
    7.3370   -0.7944   20.9651 C   0  0  0  0  0  0  0  0  0  0  0  0
    6.6765    0.0113   19.9232 C   0  0  0  0  0  0  0  0  0  0  0  0
    7.2131    0.0831   18.6206 C   0  0  0  0  0  0  0  0  0  0  0  0
    8.1462   -0.4168   18.3816 H   0  0  0  0  0  0  0  0  0  0  0  0
    6.6226    0.6947   17.5882 N   0  0  0  0  0  0  0  0  0  0  0  0
    5.4528    1.3086   17.8148 C   0  0  0  0  0  0  0  0  0  0  0  0
    4.9898    1.8033   16.9600 H   0  0  0  0  0  0  0  0  0  0  0  0
    4.8399    1.3334   19.0718 C   0  0  0  0  0  0  0  0  0  0  0  0
    3.9008    1.8597   19.1914 H   0  0  0  0  0  0  0  0  0  0  0  0
    5.4578    0.6822   20.1400 C   0  0  0  0  0  0  0  0  0  0  0  0
    5.0028    0.7231   21.1331 H   0  0  0  0  0  0  0  0  0  0  0  0
    8.7299   -0.7757   21.0096 N   0  0  0  0  0  0  0  0  0  0  0  0
    9.2669   -0.0697   20.5369 H   0  0  0  0  0  0  0  0  0  0  0  0
    9.4727   -1.5374   21.8487 C   0  0  0  0  0  0  0  0  0  0  0  0
   11.1190   -1.4161   21.9261 S   0  0  0  0  0  0  0  0  0  0  0  0
    8.7947   -2.4543   22.5844 N   0  0  0  0  0  0  0  0  0  0  0  0
    9.3845   -2.7757   23.3292 H   0  0  0  0  0  0  0  0  0  0  0  0
    6.1836   -0.7518   24.5376 C   0  0  0  0  0  0  0  0  0  0  0  0
    5.8278   -0.1458   23.6926 H   0  0  0  0  0  0  0  0  0  0  0  0
    5.4804   -1.5978   24.6579 H   0  0  0  0  0  0  0  0  0  0  0  0
    6.0809    0.1348   25.7811 C   0  0  0  0  0  0  0  0  0  0  0  0
    5.0125    0.2524   26.0152 H   0  0  0  0  0  0  0  0  0  0  0  0
    6.4654    1.1272   25.5166 H   0  0  0  0  0  0  0  0  0  0  0  0
  1  2  1  0
  2  3  1  0
  3  4  1  0
  3  5  1  0
  3  6  1  0
  6  7  1  0
  6  8  1  0
  8  9  1  0
  8 10  1  0
  8 11  1  0
 11 12  1  0
 11 13  1  0
 11 14  1  0
 14 15  1  0
 15 16  1  1
 15 17  1  0
 17 18  1  0
 17 19  2  0
 19 20  1  0
 20 21  2  0
 21 22  1  0
 21 23  1  0
 23 24  2  0
 24 25  1  0
 24 26  1  0
 26 27  1  0
 26 28  2  0
 28 29  1  0
 19 30  1  0
 30 31  1  0
 30 32  1  0
 32 33  2  0
 32 34  1  0
 34 35  1  0
 14 36  1  0
 36 37  1  0
 36 38  1  0
 36 39  1  0
 39 40  1  0
 39 41  1  0
 39  6  1  0
 34 15  1  0
 28 20  1  0
M  END
>  <plip>  (1) 
-0.03571428571428571

>  <filename>  (1) 
[H][O][C]([H])([H])[C]1([H])[C]([H])([H])[C]([H])([H])[N]([C@@]2([H])[C]([H])=[C]([c]3[c]([H])[n][c]([H])[c]([H])[c]3[H])[N]([H])[C](=[S])[N]2[H])[C]([H])([H])[C]1([H])[H]

$$$$
