
     RDKit          3D

 34 35  0  0  0  0  0  0  0  0999 V2000
    6.7196   -2.8414   20.8618 C   0  0  0  0  0  0  0  0  0  0  0  0
    7.7766   -1.8991   20.8340 O   0  0  0  0  0  0  0  0  0  0  0  0
    7.4137   -0.5650   21.1009 C   0  0  0  0  0  0  0  0  0  0  0  0
    8.7125    0.2912   21.3762 C   0  0  0  0  0  0  0  0  0  0  0  0
    9.7467    0.1836   20.7631 O   0  0  0  0  0  0  0  0  0  0  0  0
    8.4901    1.2561   22.3419 N   0  0  0  0  0  0  0  0  0  0  0  0
    9.4884    2.0850   22.8119 C   0  0  0  0  0  0  0  0  0  0  0  0
   10.6889    1.5557   22.9486 N   0  0  0  0  0  0  0  0  0  0  0  0
   11.6906    2.3287   23.3764 C   0  0  0  0  0  0  0  0  0  0  0  0
   11.4971    3.6667   23.7229 C   0  0  0  0  0  0  0  0  0  0  0  0
   12.5372    4.4079   24.1264 F   0  0  0  0  0  0  0  0  0  0  0  0
   10.2286    4.2239   23.6544 C   0  0  0  0  0  0  0  0  0  0  0  0
    9.1917    3.4115   23.1757 C   0  0  0  0  0  0  0  0  0  0  0  0
    7.7845    3.8935   23.0417 C   0  0  0  0  0  0  0  0  0  0  0  0
    7.2977    3.7284   21.7903 F   0  0  0  0  0  0  0  0  0  0  0  0
    6.9464    3.1924   23.8471 F   0  0  0  0  0  0  0  0  0  0  0  0
    7.6440    5.1902   23.3518 F   0  0  0  0  0  0  0  0  0  0  0  0
   10.0805    5.2526   23.9812 H   0  0  0  0  0  0  0  0  0  0  0  0
   12.6837    1.8867   23.4380 H   0  0  0  0  0  0  0  0  0  0  0  0
    7.5611    1.6169   22.3751 H   0  0  0  0  0  0  0  0  0  0  0  0
    6.6095    0.0408   19.9380 C   0  0  0  0  0  0  0  0  0  0  0  0
    5.3985    0.7073   20.1536 C   0  0  0  0  0  0  0  0  0  0  0  0
    4.7887    1.3434   19.0683 C   0  0  0  0  0  0  0  0  0  0  0  0
    5.4038    1.2864   17.8147 C   0  0  0  0  0  0  0  0  0  0  0  0
    6.5420    0.6167   17.5787 N   0  0  0  0  0  0  0  0  0  0  0  0
    7.1159   -0.0003   18.6226 C   0  0  0  0  0  0  0  0  0  0  0  0
    8.0571   -0.5122   18.4227 H   0  0  0  0  0  0  0  0  0  0  0  0
    4.9548    1.7927   16.9607 H   0  0  0  0  0  0  0  0  0  0  0  0
    3.8559    1.8826   19.1853 H   0  0  0  0  0  0  0  0  0  0  0  0
    4.9471    0.7344   21.1480 H   0  0  0  0  0  0  0  0  0  0  0  0
    6.8243   -0.5210   22.0397 H   0  0  0  0  0  0  0  0  0  0  0  0
    7.1497   -3.8037   20.5705 H   0  0  0  0  0  0  0  0  0  0  0  0
    6.2937   -2.9645   21.8684 H   0  0  0  0  0  0  0  0  0  0  0  0
    5.9146   -2.5794   20.1596 H   0  0  0  0  0  0  0  0  0  0  0  0
  1  2  1  0
  2  3  1  0
  3  4  1  0
  4  5  2  0
  4  6  1  0
  6  7  1  0
  7  8  2  0
  8  9  1  0
  9 10  2  0
 10 11  1  0
 10 12  1  0
 12 13  2  0
 13 14  1  0
 14 15  1  0
 14 16  1  0
 14 17  1  0
 12 18  1  0
  9 19  1  0
  6 20  1  0
  3 21  1  0
 21 22  2  0
 22 23  1  0
 23 24  2  0
 24 25  1  0
 25 26  2  0
 26 27  1  0
 24 28  1  0
 23 29  1  0
 22 30  1  0
  3 31  1  0
  1 32  1  0
  1 33  1  0
  1 34  1  0
 13  7  1  0
 26 21  1  0
M  END
>  <plip>  (1) 
-0.1

>  <filename>  (1) 
[H][c]1[n][c]([H])[c]([C]([H])([O][C]([H])([H])[H])[C](=[O])[N]([H])[c]2[n][c]([H])[c]([F])[c]([H])[c]2[C]([F])([F])[F])[c]([H])[c]1[H]

$$$$
