
     RDKit          3D

 37 39  0  0  0  0  0  0  0  0999 V2000
    7.1801   -3.2068   22.9275 C   0  0  0  0  0  0  0  0  0  0  0  0
    7.2217   -4.5301   23.0959 C   0  0  0  0  0  0  0  0  0  0  0  0
    6.0124   -5.4387   22.9431 C   0  0  0  0  0  0  0  0  0  0  0  0
    6.3440   -6.6781   22.1075 C   0  0  0  0  0  0  0  0  0  0  0  0
    7.4897   -7.3444   22.5994 O   0  0  0  0  0  0  0  0  0  0  0  0
    8.6442   -6.5257   22.6695 C   0  0  0  0  0  0  0  0  0  0  0  0
    8.4423   -5.3021   23.5719 C   0  0  0  0  0  0  0  0  0  0  0  0
    9.3502   -4.6844   23.5802 H   0  0  0  0  0  0  0  0  0  0  0  0
    8.2558   -5.6332   24.6048 H   0  0  0  0  0  0  0  0  0  0  0  0
    8.8891   -6.1567   21.6601 H   0  0  0  0  0  0  0  0  0  0  0  0
    9.4343   -7.1982   23.0308 H   0  0  0  0  0  0  0  0  0  0  0  0
    5.5271   -7.4074   22.1508 H   0  0  0  0  0  0  0  0  0  0  0  0
    6.4944   -6.4032   21.0518 H   0  0  0  0  0  0  0  0  0  0  0  0
    5.7327   -5.7983   23.9430 H   0  0  0  0  0  0  0  0  0  0  0  0
    5.1463   -4.9208   22.5171 H   0  0  0  0  0  0  0  0  0  0  0  0
    8.3599   -2.2861   23.1666 C   0  0  0  0  0  0  0  0  0  0  0  0
    7.9733   -0.8770   23.2409 N   0  0  0  0  0  0  0  0  0  0  0  0
    7.8311   -0.1043   24.3656 C   0  0  0  0  0  0  0  0  0  0  0  0
    7.1769    0.9909   24.1207 N   0  0  0  0  0  0  0  0  0  0  0  0
    6.8319    0.9636   22.7822 N   0  0  0  0  0  0  0  0  0  0  0  0
    7.3143   -0.1444   22.2859 C   0  0  0  0  0  0  0  0  0  0  0  0
    7.2718   -0.6079   20.9948 N   0  0  0  0  0  0  0  0  0  0  0  0
    6.6461    0.0280   19.8944 C   0  0  0  0  0  0  0  0  0  0  0  0
    5.4466    0.7232   20.0887 C   0  0  0  0  0  0  0  0  0  0  0  0
    4.8455    1.3327   18.9841 C   0  0  0  0  0  0  0  0  0  0  0  0
    5.4544    1.2482   17.7289 C   0  0  0  0  0  0  0  0  0  0  0  0
    6.5995    0.5788   17.5196 N   0  0  0  0  0  0  0  0  0  0  0  0
    7.1695   -0.0185   18.5780 C   0  0  0  0  0  0  0  0  0  0  0  0
    8.0978   -0.5526   18.3785 H   0  0  0  0  0  0  0  0  0  0  0  0
    5.0152    1.7410   16.8640 H   0  0  0  0  0  0  0  0  0  0  0  0
    3.9275    1.8935   19.0976 H   0  0  0  0  0  0  0  0  0  0  0  0
    5.0412    0.7868   21.0990 H   0  0  0  0  0  0  0  0  0  0  0  0
    7.9124   -1.3655   20.8412 H   0  0  0  0  0  0  0  0  0  0  0  0
    8.2301   -0.3847   25.3314 H   0  0  0  0  0  0  0  0  0  0  0  0
    9.1251   -2.4128   22.3863 H   0  0  0  0  0  0  0  0  0  0  0  0
    8.8670   -2.5388   24.1083 H   0  0  0  0  0  0  0  0  0  0  0  0
    6.2459   -2.7175   22.6346 H   0  0  0  0  0  0  0  0  0  0  0  0
  1  2  2  3
  2  3  1  0
  3  4  1  0
  4  5  1  0
  5  6  1  0
  6  7  1  0
  7  8  1  0
  7  9  1  0
  6 10  1  0
  6 11  1  0
  4 12  1  0
  4 13  1  0
  3 14  1  0
  3 15  1  0
  1 16  1  0
 16 17  1  0
 17 18  1  0
 18 19  2  0
 19 20  1  0
 20 21  2  0
 21 22  1  0
 22 23  1  0
 23 24  2  0
 24 25  1  0
 25 26  2  0
 26 27  1  0
 27 28  2  0
 28 29  1  0
 26 30  1  0
 25 31  1  0
 24 32  1  0
 22 33  1  0
 18 34  1  0
 16 35  1  0
 16 36  1  0
  1 37  1  0
  7  2  1  0
 21 17  1  0
 28 23  1  0
M  END
>  <plip>  (1) 
-0.10714285714285714

>  <filename>  (1) 
[H][C](=[C]1[C]([H])([H])[C]([H])([H])[O][C]([H])([H])[C]1([H])[H])[C]([H])([H])[n]1[c]([H])[n][n][c]1[N]([H])[c]1[c]([H])[n][c]([H])[c]([H])[c]1[H]

$$$$
