
     RDKit          3D

 30 32  0  0  0  0  0  0  0  0999 V2000
    5.0038    1.7382   17.0193 H   0  0  0  0  0  0  0  0  0  0  0  0
    5.4557    1.2404   17.8740 C   0  0  0  0  0  0  0  0  0  0  0  0
    6.6117    0.6030   17.6370 N   0  0  0  0  0  0  0  0  0  0  0  0
    7.2068    0.0070   18.6745 C   0  0  0  0  0  0  0  0  0  0  0  0
    8.1434   -0.5175   18.4919 H   0  0  0  0  0  0  0  0  0  0  0  0
    6.6977    0.0222   19.9890 C   0  0  0  0  0  0  0  0  0  0  0  0
    7.4302   -0.6004   21.0691 C   0  0  0  0  0  0  0  0  0  0  0  0
    7.3250   -0.5076   22.4336 C   0  0  0  0  0  0  0  0  0  0  0  0
    6.8178    0.4643   23.4169 C   0  0  0  0  0  0  0  0  0  0  0  0
    6.2711    1.5116   23.1154 O   0  0  0  0  0  0  0  0  0  0  0  0
    7.0734    0.0829   24.6955 N   0  0  0  0  0  0  0  0  0  0  0  0
    7.5266   -0.8102   24.8182 H   0  0  0  0  0  0  0  0  0  0  0  0
    6.9746    0.9274   25.7879 C   0  0  0  0  0  0  0  0  0  0  0  0
    7.3134    2.2743   25.6869 C   0  0  0  0  0  0  0  0  0  0  0  0
    7.6741    2.6854   24.7540 H   0  0  0  0  0  0  0  0  0  0  0  0
    7.1581    3.0631   26.8202 C   0  0  0  0  0  0  0  0  0  0  0  0
    7.4048    4.1235   26.7796 H   0  0  0  0  0  0  0  0  0  0  0  0
    6.6951    2.6080   27.9933 N   0  0  0  0  0  0  0  0  0  0  0  0
    6.3955    1.3050   28.0657 C   0  0  0  0  0  0  0  0  0  0  0  0
    6.0124    0.9631   29.0269 H   0  0  0  0  0  0  0  0  0  0  0  0
    6.5411    0.4137   27.0052 C   0  0  0  0  0  0  0  0  0  0  0  0
    6.2986   -0.6363   27.1149 H   0  0  0  0  0  0  0  0  0  0  0  0
    8.2574   -1.5652   22.7333 C   0  0  0  0  0  0  0  0  0  0  0  0
    8.5764   -2.1150   23.7651 O   0  0  0  0  0  0  0  0  0  0  0  0
    8.5714   -1.6148   21.1906 C   0  0  0  0  0  0  0  0  0  0  0  0
    9.3914   -2.1007   20.4656 O   0  0  0  0  0  0  0  0  0  0  0  0
    5.4736    0.6766   20.2108 C   0  0  0  0  0  0  0  0  0  0  0  0
    5.0596    0.7287   21.2160 H   0  0  0  0  0  0  0  0  0  0  0  0
    4.8455    1.2884   19.1306 C   0  0  0  0  0  0  0  0  0  0  0  0
    3.9131    1.8240   19.2543 H   0  0  0  0  0  0  0  0  0  0  0  0
  1  2  1  0
  2  3  2  0
  3  4  1  0
  4  5  1  0
  4  6  2  0
  6  7  1  0
  7  8  2  0
  8  9  1  0
  9 10  2  0
  9 11  1  0
 11 12  1  0
 11 13  1  0
 13 14  2  0
 14 15  1  0
 14 16  1  0
 16 17  1  0
 16 18  2  0
 18 19  1  0
 19 20  1  0
 19 21  2  0
 21 22  1  0
  8 23  1  0
 23 24  2  0
 23 25  1  0
 25 26  2  0
  6 27  1  0
 27 28  1  0
 27 29  2  0
 29 30  1  0
 29  2  1  0
 25  7  1  0
 21 13  1  0
M  END
>  <plip>  (1) 
-0.10714285714285714

>  <filename>  (1) 
[H][c]1[n][c]([H])[c](-[c]2[c]([C](=[O])[N]([H])[c]3[c]([H])[c]([H])[n][c]([H])[c]3[H])[c](=[O])[c]2=[O])[c]([H])[c]1[H]

$$$$
