
     RDKit          3D

 32 34  0  0  0  0  0  0  0  0999 V2000
    4.9154    1.7791   16.9957 H   0  0  0  0  0  0  0  0  0  0  0  0
    5.4047    1.2917   17.8355 C   0  0  0  0  0  0  0  0  0  0  0  0
    6.5662    0.6760   17.5698 N   0  0  0  0  0  0  0  0  0  0  0  0
    7.1753    0.0721   18.5989 C   0  0  0  0  0  0  0  0  0  0  0  0
    8.1181   -0.4253   18.3706 H   0  0  0  0  0  0  0  0  0  0  0  0
    6.6702    0.0316   19.9008 C   0  0  0  0  0  0  0  0  0  0  0  0
    7.3961   -0.7289   20.9864 C   0  0  1  0  0  0  0  0  0  0  0  0
    8.4381   -0.9002   20.6798 H   0  0  0  0  0  0  0  0  0  0  0  0
    7.3914   -0.0051   22.2254 O   0  0  0  0  0  0  0  0  0  0  0  0
    8.0914    1.1645   22.3037 C   0  0  0  0  0  0  0  0  0  0  0  0
    8.9272    1.7878   21.4107 C   0  0  0  0  0  0  0  0  0  0  0  0
    9.1918    1.4783   20.4084 H   0  0  0  0  0  0  0  0  0  0  0  0
    9.4234    2.9415   22.0082 N   0  0  0  0  0  0  0  0  0  0  0  0
   10.0469    3.6194   21.5950 H   0  0  0  0  0  0  0  0  0  0  0  0
    8.9035    3.0708   23.2713 C   0  0  0  0  0  0  0  0  0  0  0  0
    9.1140    4.0733   24.2390 C   0  0  0  0  0  0  0  0  0  0  0  0
    9.7744    4.9162   24.0286 H   0  0  0  0  0  0  0  0  0  0  0  0
    8.4422    3.9352   25.4532 C   0  0  0  0  0  0  0  0  0  0  0  0
    8.5780    4.6918   26.2252 H   0  0  0  0  0  0  0  0  0  0  0  0
    7.5827    2.8324   25.7051 C   0  0  0  0  0  0  0  0  0  0  0  0
    7.0737    2.7554   26.6630 H   0  0  0  0  0  0  0  0  0  0  0  0
    7.3851    1.8472   24.7352 C   0  0  0  0  0  0  0  0  0  0  0  0
    6.7308    0.9949   24.9125 H   0  0  0  0  0  0  0  0  0  0  0  0
    8.0509    1.9632   23.5017 C   0  0  0  0  0  0  0  0  0  0  0  0
    6.7308   -2.0737   21.2330 C   0  0  0  0  0  0  0  0  0  0  0  0
    7.2594   -2.6411   22.0017 H   0  0  0  0  0  0  0  0  0  0  0  0
    5.6872   -1.9480   21.5392 H   0  0  0  0  0  0  0  0  0  0  0  0
    6.7283   -2.6614   20.3109 H   0  0  0  0  0  0  0  0  0  0  0  0
    5.4423    0.6585   20.1561 C   0  0  0  0  0  0  0  0  0  0  0  0
    5.0121    0.6340   21.1615 H   0  0  0  0  0  0  0  0  0  0  0  0
    4.8060    1.3120   19.1025 C   0  0  0  0  0  0  0  0  0  0  0  0
    3.8717    1.8442   19.2588 H   0  0  0  0  0  0  0  0  0  0  0  0
  1  2  1  0
  2  3  2  0
  3  4  1  0
  4  5  1  0
  4  6  2  0
  6  7  1  0
  7  8  1  6
  7  9  1  0
  9 10  1  0
 10 11  2  0
 11 12  1  0
 11 13  1  0
 13 14  1  0
 13 15  1  0
 15 16  2  0
 16 17  1  0
 16 18  1  0
 18 19  1  0
 18 20  2  0
 20 21  1  0
 20 22  1  0
 22 23  1  0
 22 24  2  0
  7 25  1  0
 25 26  1  0
 25 27  1  0
 25 28  1  0
  6 29  1  0
 29 30  1  0
 29 31  2  0
 31 32  1  0
 31  2  1  0
 24 10  1  0
 24 15  1  0
M  END
>  <plip>  (1) 
-0.14285714285714285

>  <filename>  (1) 
[H][c]1[n][c]([H])[c]([C@@]([H])([O][c]2[c]([H])[n]([H])[c]3[c]([H])[c]([H])[c]([H])[c]([H])[c]23)[C]([H])([H])[H])[c]([H])[c]1[H]

$$$$
