
     RDKit          3D

 39 43  0  0  0  0  0  0  0  0999 V2000
    4.9517    1.8293   16.9528 H   0  0  0  0  0  0  0  0  0  0  0  0
    5.4053    1.3027   17.7873 C   0  0  0  0  0  0  0  0  0  0  0  0
    6.5590    0.6707   17.5270 N   0  0  0  0  0  0  0  0  0  0  0  0
    7.1487    0.0198   18.5346 C   0  0  0  0  0  0  0  0  0  0  0  0
    8.1016   -0.4544   18.3057 H   0  0  0  0  0  0  0  0  0  0  0  0
    6.6190   -0.0433   19.8366 C   0  0  0  0  0  0  0  0  0  0  0  0
    7.3665   -0.6955   20.9255 C   0  0  0  0  0  0  0  0  0  0  0  0
    8.4711   -1.4242   20.6979 N   0  0  0  0  0  0  0  0  0  0  0  0
    8.8982   -1.7100   21.9472 N   0  0  0  0  0  0  0  0  0  0  0  0
   10.0803   -2.2200   22.4705 C   0  0  0  0  0  0  0  0  0  0  0  0
   10.8256   -2.6060   21.7994 H   0  0  0  0  0  0  0  0  0  0  0  0
   10.0286   -2.0131   23.8068 C   0  0  0  0  0  0  0  0  0  0  0  0
   10.7480   -2.2143   24.5912 H   0  0  0  0  0  0  0  0  0  0  0  0
    8.7996   -1.4035   24.1176 N   0  0  0  0  0  0  0  0  0  0  0  0
    8.3924   -0.9382   25.3599 C   0  0  0  0  0  0  0  0  0  0  0  0
    9.1647   -0.8083   26.3959 N   0  0  0  0  0  0  0  0  0  0  0  0
    8.3392   -0.2554   27.3531 C   0  0  0  0  0  0  0  0  0  0  0  0
    8.6688    0.1553   28.6334 C   0  0  0  0  0  0  0  0  0  0  0  0
    9.6908   -0.0396   28.9465 H   0  0  0  0  0  0  0  0  0  0  0  0
    7.6983    0.7689   29.4382 C   0  0  0  0  0  0  0  0  0  0  0  0
    8.0346    1.3795   30.7665 C   0  0  0  0  0  0  0  0  0  0  0  0
    7.2907    2.1299   31.3690 O   0  0  0  0  0  0  0  0  0  0  0  0
    9.2708    1.1083   31.2876 N   0  0  0  0  0  0  0  0  0  0  0  0
    9.7281    0.2460   31.0473 H   0  0  0  0  0  0  0  0  0  0  0  0
    9.3022    1.3979   32.2508 H   0  0  0  0  0  0  0  0  0  0  0  0
    6.3608    0.8666   28.9636 C   0  0  0  0  0  0  0  0  0  0  0  0
    5.6104    1.3147   29.6128 H   0  0  0  0  0  0  0  0  0  0  0  0
    6.0009    0.4211   27.6940 C   0  0  0  0  0  0  0  0  0  0  0  0
    4.9750    0.5072   27.3544 H   0  0  0  0  0  0  0  0  0  0  0  0
    7.0173   -0.1026   26.8817 C   0  0  0  0  0  0  0  0  0  0  0  0
    7.0985   -0.5321   25.5711 N   0  0  0  0  0  0  0  0  0  0  0  0
    6.3556   -0.8157   24.9637 H   0  0  0  0  0  0  0  0  0  0  0  0
    8.1209   -1.2060   22.9156 C   0  0  0  0  0  0  0  0  0  0  0  0
    7.0740   -0.5436   22.3043 C   0  0  0  0  0  0  0  0  0  0  0  0
    6.3060    0.0614   22.7520 H   0  0  0  0  0  0  0  0  0  0  0  0
    5.4069    0.6246   20.0864 C   0  0  0  0  0  0  0  0  0  0  0  0
    4.9626    0.6403   21.0836 H   0  0  0  0  0  0  0  0  0  0  0  0
    4.7917    1.3064   19.0436 C   0  0  0  0  0  0  0  0  0  0  0  0
    3.8701    1.8553   19.1985 H   0  0  0  0  0  0  0  0  0  0  0  0
  1  2  1  0
  2  3  2  0
  3  4  1  0
  4  5  1  0
  4  6  2  0
  6  7  1  0
  7  8  2  0
  8  9  1  0
  9 10  1  0
 10 11  1  0
 10 12  2  0
 12 13  1  0
 12 14  1  0
 14 15  1  0
 15 16  2  0
 16 17  1  0
 17 18  2  0
 18 19  1  0
 18 20  1  0
 20 21  1  0
 21 22  2  0
 21 23  1  0
 23 24  1  0
 23 25  1  0
 20 26  2  0
 26 27  1  0
 26 28  1  0
 28 29  1  0
 28 30  2  0
 30 31  1  0
 31 32  1  0
 14 33  1  0
 33 34  2  0
 34 35  1  0
  6 36  1  0
 36 37  1  0
 36 38  2  0
 38 39  1  0
 38  2  1  0
 34  7  1  0
 33  9  1  0
 31 15  1  0
 30 17  1  0
M  END
>  <plip>  (1) 
-0.06666666666666667

>  <filename>  (1) 
[H][c]1[n][c]([H])[c](-[c]2[n][n]3[c]([H])[c]([H])[n](-[c]4[n][c]5[c]([H])[c]([C](=[O])[N]([H])[H])[c]([H])[c]([H])[c]5[n]4[H])[c]3[c]2[H])[c]([H])[c]1[H]

$$$$
