
     RDKit          3D

 29 30  0  0  0  0  0  0  0  0999 V2000
    7.4152   -0.1684   22.5860 O   0  0  0  0  0  0  0  0  0  0  0  0
    7.7380   -0.6045   21.2262 S   0  0  0  0  0  0  0  0  0  0  0  0
    9.1355   -0.4627   20.7994 O   0  0  0  0  0  0  0  0  0  0  0  0
    7.2397   -2.1759   20.9643 N   0  0  0  0  0  0  0  0  0  0  0  0
    7.5200   -3.1912   21.8424 C   0  0  0  0  0  0  0  0  0  0  0  0
    6.8322   -4.3803   21.6534 C   0  0  0  0  0  0  0  0  0  0  0  0
    7.0606   -5.4963   22.4803 C   0  0  0  0  0  0  0  0  0  0  0  0
    6.2969   -6.7961   22.2752 C   0  0  0  0  0  0  0  0  0  0  0  0
    5.4758   -6.7038   21.1885 F   0  0  0  0  0  0  0  0  0  0  0  0
    7.1944   -7.7989   22.0735 F   0  0  0  0  0  0  0  0  0  0  0  0
    5.5416   -7.0617   23.3777 F   0  0  0  0  0  0  0  0  0  0  0  0
    8.0239   -5.3632   23.5034 C   0  0  0  0  0  0  0  0  0  0  0  0
    8.7005   -4.1526   23.7146 C   0  0  0  0  0  0  0  0  0  0  0  0
    9.9770   -3.9855   25.1305 Br  0  0  0  0  0  0  0  0  0  0  0  0
    8.4406   -3.0641   22.8776 C   0  0  0  0  0  0  0  0  0  0  0  0
    8.9446   -2.1186   23.0360 H   0  0  0  0  0  0  0  0  0  0  0  0
    8.2571   -6.2035   24.1510 H   0  0  0  0  0  0  0  0  0  0  0  0
    6.1230   -4.4161   20.8324 H   0  0  0  0  0  0  0  0  0  0  0  0
    6.3375   -2.1808   20.5237 H   0  0  0  0  0  0  0  0  0  0  0  0
    6.6506    0.0365   20.0017 C   0  0  0  0  0  0  0  0  0  0  0  0
    5.4149    0.6444   20.2175 C   0  0  0  0  0  0  0  0  0  0  0  0
    4.8425    1.2150   19.0919 C   0  0  0  0  0  0  0  0  0  0  0  0
    5.4990    1.1429   17.8598 C   0  0  0  0  0  0  0  0  0  0  0  0
    6.6425    0.4591   17.6885 N   0  0  0  0  0  0  0  0  0  0  0  0
    7.2009   -0.1078   18.7519 C   0  0  0  0  0  0  0  0  0  0  0  0
    8.1306   -0.6562   18.6149 H   0  0  0  0  0  0  0  0  0  0  0  0
    5.0626    1.6459   17.0029 H   0  0  0  0  0  0  0  0  0  0  0  0
    3.9106    1.7625   19.1593 H   0  0  0  0  0  0  0  0  0  0  0  0
    4.9201    0.7236   21.1908 H   0  0  0  0  0  0  0  0  0  0  0  0
  1  2  2  0
  2  3  2  0
  2  4  1  0
  4  5  1  0
  5  6  2  0
  6  7  1  0
  7  8  1  0
  8  9  1  0
  8 10  1  0
  8 11  1  0
  7 12  2  0
 12 13  1  0
 13 14  1  0
 13 15  2  0
 15 16  1  0
 12 17  1  0
  6 18  1  0
  4 19  1  0
  2 20  1  0
 20 21  2  0
 21 22  1  0
 22 23  2  0
 23 24  1  0
 24 25  2  0
 25 26  1  0
 23 27  1  0
 22 28  1  0
 21 29  1  0
 15  5  1  0
 25 20  1  0
M  END
>  <plip>  (1) 
-0.14285714285714285

>  <filename>  (1) 
[H][c]1[n][c]([H])[c]([S](=[O])(=[O])[N]([H])[c]2[c]([H])[c]([Br])[c]([H])[c]([C]([F])([F])[F])[c]2[H])[c]([H])[c]1[H]

$$$$
