
     RDKit          3D

 27 29  0  0  0  0  0  0  0  0999 V2000
    4.9248    1.7844   16.9961 H   0  0  0  0  0  0  0  0  0  0  0  0
    5.4057    1.2937   17.8384 C   0  0  0  0  0  0  0  0  0  0  0  0
    6.5691    0.6816   17.5738 N   0  0  0  0  0  0  0  0  0  0  0  0
    7.1695    0.0510   18.5854 C   0  0  0  0  0  0  0  0  0  0  0  0
    8.1167   -0.4314   18.3580 H   0  0  0  0  0  0  0  0  0  0  0  0
    6.6475   -0.0050   19.8846 C   0  0  0  0  0  0  0  0  0  0  0  0
    7.3877   -0.7124   20.9352 C   0  0  0  0  0  0  0  0  0  0  0  0
    8.0185   -1.8389   20.7100 N   0  0  0  0  0  0  0  0  0  0  0  0
    8.5091   -2.2635   21.9149 O   0  0  0  0  0  0  0  0  0  0  0  0
    8.1878   -1.3784   22.8634 C   0  0  0  0  0  0  0  0  0  0  0  0
    8.5421   -1.5906   23.8614 H   0  0  0  0  0  0  0  0  0  0  0  0
    7.4946   -0.3491   22.3217 C   0  0  0  0  0  0  0  0  0  0  0  0
    7.0393    0.8212   22.9500 N   0  0  0  0  0  0  0  0  0  0  0  0
    6.4960    0.9726   24.2155 C   0  0  0  0  0  0  0  0  0  0  0  0
    6.2091   -0.1701   25.1309 C   0  0  0  0  0  0  0  0  0  0  0  0
    5.4830    0.1503   25.8790 H   0  0  0  0  0  0  0  0  0  0  0  0
    7.1147   -0.4901   25.6600 H   0  0  0  0  0  0  0  0  0  0  0  0
    5.8231   -1.0340   24.5828 H   0  0  0  0  0  0  0  0  0  0  0  0
    6.2944    2.2344   24.4977 N   0  0  0  0  0  0  0  0  0  0  0  0
    6.7242    2.9387   23.3969 C   0  0  0  0  0  0  0  0  0  0  0  0
    6.6765    4.0183   23.3743 H   0  0  0  0  0  0  0  0  0  0  0  0
    7.1892    2.0932   22.4346 C   0  0  0  0  0  0  0  0  0  0  0  0
    7.5870    2.2455   21.4430 H   0  0  0  0  0  0  0  0  0  0  0  0
    5.4308    0.6422   20.1528 C   0  0  0  0  0  0  0  0  0  0  0  0
    5.0154    0.6488   21.1655 H   0  0  0  0  0  0  0  0  0  0  0  0
    4.8029    1.3056   19.1029 C   0  0  0  0  0  0  0  0  0  0  0  0
    3.8737    1.8415   19.2542 H   0  0  0  0  0  0  0  0  0  0  0  0
  1  2  1  0
  2  3  2  0
  3  4  1  0
  4  5  1  0
  4  6  2  0
  6  7  1  0
  7  8  2  0
  8  9  1  0
  9 10  1  0
 10 11  1  0
 10 12  2  0
 12 13  1  0
 13 14  1  0
 14 15  1  0
 15 16  1  0
 15 17  1  0
 15 18  1  0
 14 19  2  0
 19 20  1  0
 20 21  1  0
 20 22  2  0
 22 23  1  0
  6 24  1  0
 24 25  1  0
 24 26  2  0
 26 27  1  0
 26  2  1  0
 12  7  1  0
 22 13  1  0
M  END
>  <plip>  (1) 
-0.0

>  <filename>  (1) 
[H][c]1[n][c]([H])[c](-[c]2[n][o][c]([H])[c]2-[n]2[c]([C]([H])([H])[H])[n][c]([H])[c]2[H])[c]([H])[c]1[H]

$$$$
