
     RDKit          3D

 49 51  0  0  0  0  0  0  0  0999 V2000
    8.3164    2.5494   21.3300 C   0  0  0  0  0  0  0  0  0  0  0  0
    8.9447    1.2260   21.6626 N   0  0  0  0  0  4  0  0  0  0  0  0
   10.0302    1.4294   22.6726 C   0  0  0  0  0  0  0  0  0  0  0  0
   10.7642    2.1511   22.3010 H   0  0  0  0  0  0  0  0  0  0  0  0
   10.5332    0.4838   22.8975 H   0  0  0  0  0  0  0  0  0  0  0  0
    9.6027    1.8208   23.6050 H   0  0  0  0  0  0  0  0  0  0  0  0
    7.8898    0.2144   22.1223 C   0  0  0  0  0  0  0  0  0  0  0  0
    7.3982   -0.7343   20.9911 C   0  0  0  0  0  0  0  0  0  0  0  0
    6.5725   -1.8060   21.5321 N   0  0  0  0  0  0  0  0  0  0  0  0
    7.1146   -2.8442   22.2306 C   0  0  0  0  0  0  0  0  0  0  0  0
    8.3301   -2.9621   22.3067 O   0  0  0  0  0  0  0  0  0  0  0  0
    6.1935   -3.8358   23.0157 C   0  0  0  0  0  0  0  0  0  0  0  0
    5.3555   -4.5798   22.1285 O   0  0  0  0  0  0  0  0  0  0  0  0
    4.5401   -5.5052   22.8388 C   0  0  0  0  0  0  0  0  0  0  0  0
    3.4771   -4.7616   23.6444 C   0  0  0  0  0  0  0  0  0  0  0  0
    4.0454   -3.5453   24.3542 C   0  0  0  0  0  0  0  0  0  0  0  0
    3.2719   -2.7911   25.2520 C   0  0  0  0  0  0  0  0  0  0  0  0
    3.8554   -1.7693   26.0045 C   0  0  0  0  0  0  0  0  0  0  0  0
    3.1321   -1.0273   26.8858 O   0  0  0  0  0  0  0  0  0  0  0  0
    2.2574   -1.4306   26.9237 H   0  0  0  0  0  0  0  0  0  0  0  0
    5.2138   -1.4699   25.8624 C   0  0  0  0  0  0  0  0  0  0  0  0
    5.9625   -2.1638   24.9164 C   0  0  0  0  0  0  0  0  0  0  0  0
    5.3782   -3.1620   24.1240 C   0  0  0  0  0  0  0  0  0  0  0  0
    7.0198   -1.9382   24.7827 H   0  0  0  0  0  0  0  0  0  0  0  0
    5.6449   -0.7003   26.4908 H   0  0  0  0  0  0  0  0  0  0  0  0
    2.2046   -2.9749   25.3475 H   0  0  0  0  0  0  0  0  0  0  0  0
    2.6723   -4.4697   22.9658 H   0  0  0  0  0  0  0  0  0  0  0  0
    3.0089   -5.4478   24.3596 H   0  0  0  0  0  0  0  0  0  0  0  0
    5.1504   -6.1462   23.4987 H   0  0  0  0  0  0  0  0  0  0  0  0
    4.0751   -6.1544   22.0922 H   0  0  0  0  0  0  0  0  0  0  0  0
    6.9459   -4.5074   23.4693 H   0  0  0  0  0  0  0  0  0  0  0  0
    5.5741   -1.6956   21.4894 H   0  0  0  0  0  0  0  0  0  0  0  0
    6.6296   -0.0194   19.9006 C   0  0  0  0  0  0  0  0  0  0  0  0
    5.4140    0.6483   20.1275 C   0  0  0  0  0  0  0  0  0  0  0  0
    4.8050    1.3206   19.0653 C   0  0  0  0  0  0  0  0  0  0  0  0
    5.4213    1.3018   17.8091 C   0  0  0  0  0  0  0  0  0  0  0  0
    6.5687    0.6525   17.5633 N   0  0  0  0  0  0  0  0  0  0  0  0
    7.1416    0.0153   18.5937 C   0  0  0  0  0  0  0  0  0  0  0  0
    8.0730   -0.5061   18.3641 H   0  0  0  0  0  0  0  0  0  0  0  0
    4.9750    1.8294   16.9670 H   0  0  0  0  0  0  0  0  0  0  0  0
    3.8705    1.8554   19.1964 H   0  0  0  0  0  0  0  0  0  0  0  0
    4.9510    0.6547   21.1190 H   0  0  0  0  0  0  0  0  0  0  0  0
    8.3025   -1.1770   20.5518 H   0  0  0  0  0  0  0  0  0  0  0  0
    8.3146   -0.4058   22.9127 H   0  0  0  0  0  0  0  0  0  0  0  0
    7.0409    0.7570   22.5499 H   0  0  0  0  0  0  0  0  0  0  0  0
    9.3608    0.8261   20.7925 H   0  0  0  0  0  0  0  0  0  0  0  0
    7.8654    2.9815   22.2326 H   0  0  0  0  0  0  0  0  0  0  0  0
    7.5316    2.4157   20.5839 H   0  0  0  0  0  0  0  0  0  0  0  0
    9.0678    3.2505   20.9553 H   0  0  0  0  0  0  0  0  0  0  0  0
  1  2  1  0
  2  3  1  0
  3  4  1  0
  3  5  1  0
  3  6  1  0
  2  7  1  0
  7  8  1  0
  8  9  1  0
  9 10  1  0
 10 11  2  0
 10 12  1  0
 12 13  1  0
 13 14  1  0
 14 15  1  0
 15 16  1  0
 16 17  2  0
 17 18  1  0
 18 19  1  0
 19 20  1  0
 18 21  2  0
 21 22  1  0
 22 23  2  0
 22 24  1  0
 21 25  1  0
 17 26  1  0
 15 27  1  0
 15 28  1  0
 14 29  1  0
 14 30  1  0
 12 31  1  0
  9 32  1  0
  8 33  1  0
 33 34  2  0
 34 35  1  0
 35 36  2  0
 36 37  1  0
 37 38  2  0
 38 39  1  0
 36 40  1  0
 35 41  1  0
 34 42  1  0
  8 43  1  0
  7 44  1  0
  7 45  1  0
  2 46  1  0
  1 47  1  0
  1 48  1  0
  1 49  1  0
 23 12  1  0
 38 33  1  0
 23 16  1  0
M  CHG  1   2   1
M  END
>  <plip>  (1) 
-0.13333333333333333

>  <filename>  (1) 
[H][O][c]1[c]([H])[c]([H])[c]2[c]([c]1[H])[C]([H])([H])[C]([H])([H])[O][C]2([H])[C](=[O])[N]([H])[C]([H])([c]1[c]([H])[n][c]([H])[c]([H])[c]1[H])[C]([H])([H])[N+]([H])([C]([H])([H])[H])[C]([H])([H])[H]

$$$$
