
     RDKit          3D

 38 40  0  0  0  0  0  0  0  0999 V2000
    4.9562    1.8427   16.8669 H   0  0  0  0  0  0  0  0  0  0  0  0
    5.3965    1.3481   17.7282 C   0  0  0  0  0  0  0  0  0  0  0  0
    6.5632    0.7231   17.5054 N   0  0  0  0  0  0  0  0  0  0  0  0
    7.1358    0.1113   18.5423 C   0  0  0  0  0  0  0  0  0  0  0  0
    8.0953   -0.3635   18.3605 H   0  0  0  0  0  0  0  0  0  0  0  0
    6.5668    0.0373   19.8243 C   0  0  0  0  0  0  0  0  0  0  0  0
    7.3007   -0.7198   20.8632 C   0  0  0  0  0  0  0  0  0  0  0  0
    8.5848   -0.7485   20.7270 N   0  0  0  0  0  0  0  0  0  0  0  0
    9.3824   -1.2472   21.7266 N   0  0  0  0  0  0  0  0  0  0  0  0
   10.8127   -1.3047   21.3622 C   0  0  0  0  0  0  0  0  0  0  0  0
   11.0982   -0.4026   20.8020 H   0  0  0  0  0  0  0  0  0  0  0  0
   11.0147   -2.1811   20.7534 H   0  0  0  0  0  0  0  0  0  0  0  0
   11.5195   -1.3736   22.7092 C   0  0  0  0  0  0  0  0  0  0  0  0
   11.4032   -2.3895   23.1132 H   0  0  0  0  0  0  0  0  0  0  0  0
   12.5951   -1.1674   22.6564 H   0  0  0  0  0  0  0  0  0  0  0  0
   10.7019   -0.3585   23.5282 C   0  0  2  0  0  0  0  0  0  0  0  0
   10.9983    0.6548   23.2325 H   0  0  0  0  0  0  0  0  0  0  0  0
   10.6210   -0.5120   25.0478 C   0  0  0  0  0  0  0  0  0  0  0  0
   10.2232    0.4235   25.4929 H   0  0  0  0  0  0  0  0  0  0  0  0
   11.6035   -0.7031   25.5118 H   0  0  0  0  0  0  0  0  0  0  0  0
    9.7024   -1.6393   25.2296 N   0  0  0  0  0  0  0  0  0  0  0  0
    9.0918   -1.8098   26.5283 C   0  0  0  0  0  0  0  0  0  0  0  0
    8.4819   -2.7189   26.5193 H   0  0  0  0  0  0  0  0  0  0  0  0
    9.8412   -1.9433   27.3119 H   0  0  0  0  0  0  0  0  0  0  0  0
    8.4320   -0.9766   26.8292 H   0  0  0  0  0  0  0  0  0  0  0  0
    8.7553   -1.6714   24.1185 C   0  0  0  0  0  0  0  0  0  0  0  0
    8.7148   -2.6801   23.6747 H   0  0  0  0  0  0  0  0  0  0  0  0
    7.7297   -1.4246   24.4430 H   0  0  0  0  0  0  0  0  0  0  0  0
    9.2637   -0.6645   23.0709 C   0  0  2  0  0  0  0  0  0  0  0  0
    8.6395    0.2405   23.0629 H   0  0  0  0  0  0  0  0  0  0  0  0
    6.5215   -1.4161   21.9583 C   0  0  0  0  0  0  0  0  0  0  0  0
    7.0554   -2.3015   22.3050 H   0  0  0  0  0  0  0  0  0  0  0  0
    6.3695   -0.7423   22.8066 H   0  0  0  0  0  0  0  0  0  0  0  0
    5.5444   -1.7453   21.6053 H   0  0  0  0  0  0  0  0  0  0  0  0
    5.3444    0.6928   20.0417 C   0  0  0  0  0  0  0  0  0  0  0  0
    4.8728    0.6988   21.0266 H   0  0  0  0  0  0  0  0  0  0  0  0
    4.7574    1.3676   18.9723 C   0  0  0  0  0  0  0  0  0  0  0  0
    3.8222    1.9064   19.0781 H   0  0  0  0  0  0  0  0  0  0  0  0
  1  2  1  0
  2  3  2  0
  3  4  1  0
  4  5  1  0
  4  6  2  0
  6  7  1  0
  7  8  2  3
  8  9  1  0
  9 10  1  0
 10 11  1  0
 10 12  1  0
 10 13  1  0
 13 14  1  0
 13 15  1  0
 13 16  1  0
 16 17  1  1
 16 18  1  0
 18 19  1  0
 18 20  1  0
 18 21  1  0
 21 22  1  0
 22 23  1  0
 22 24  1  0
 22 25  1  0
 21 26  1  0
 26 27  1  0
 26 28  1  0
 26 29  1  0
 29 30  1  6
  7 31  1  0
 31 32  1  0
 31 33  1  0
 31 34  1  0
  6 35  1  0
 35 36  1  0
 35 37  2  0
 37 38  1  0
 37  2  1  0
 29  9  1  0
 29 16  1  0
M  END
>  <plip>  (1) 
-0.03571428571428571

>  <filename>  (1) 
[H][c]1[n][c]([H])[c]([C](=[N][N]2[C]([H])([H])[C]([H])([H])[C@]3([H])[C]([H])([H])[N]([C]([H])([H])[H])[C]([H])([H])[C@]23[H])[C]([H])([H])[H])[c]([H])[c]1[H]

$$$$
