
     RDKit          3D

 27 29  0  0  0  0  0  0  0  0999 V2000
    4.9143    1.7809   16.9936 H   0  0  0  0  0  0  0  0  0  0  0  0
    5.4004    1.2954   17.8339 C   0  0  0  0  0  0  0  0  0  0  0  0
    6.5625    0.6778   17.5682 N   0  0  0  0  0  0  0  0  0  0  0  0
    7.1712    0.0732   18.5933 C   0  0  0  0  0  0  0  0  0  0  0  0
    8.1123   -0.4275   18.3730 H   0  0  0  0  0  0  0  0  0  0  0  0
    6.6561    0.0213   19.8950 C   0  0  0  0  0  0  0  0  0  0  0  0
    7.3838   -0.6944   20.9598 C   0  0  0  0  0  0  0  0  0  0  0  0
    8.7630   -0.5521   21.1132 C   0  0  0  0  0  0  0  0  0  0  0  0
    9.3250    0.1011   20.4604 H   0  0  0  0  0  0  0  0  0  0  0  0
    9.3891   -1.2379   22.1526 C   0  0  0  0  0  0  0  0  0  0  0  0
   10.4582   -1.1402   22.2958 H   0  0  0  0  0  0  0  0  0  0  0  0
    8.7474   -2.0440   23.0087 N   0  0  0  0  0  0  0  0  0  0  0  0
    7.4097   -2.1859   22.8567 C   0  0  0  0  0  0  0  0  0  0  0  0
    6.6649   -3.0753   23.7984 C   0  0  0  0  0  0  0  0  0  0  0  0
    5.3639   -3.3274   23.7776 N   0  0  0  0  0  0  0  0  0  0  0  0
    5.1293   -4.1814   24.8138 C   0  0  0  0  0  0  0  0  0  0  0  0
    4.1395   -4.5501   25.0396 H   0  0  0  0  0  0  0  0  0  0  0  0
    6.2940   -4.4735   25.4736 C   0  0  0  0  0  0  0  0  0  0  0  0
    6.4870   -5.1102   26.3257 H   0  0  0  0  0  0  0  0  0  0  0  0
    7.2601   -3.7629   24.8147 N   0  0  0  0  0  0  0  0  0  0  0  0
    8.2470   -3.7139   24.9994 H   0  0  0  0  0  0  0  0  0  0  0  0
    6.7035   -1.5263   21.8424 C   0  0  0  0  0  0  0  0  0  0  0  0
    5.6333   -1.6796   21.7419 H   0  0  0  0  0  0  0  0  0  0  0  0
    5.4314    0.6543   20.1495 C   0  0  0  0  0  0  0  0  0  0  0  0
    5.0138    0.6308   21.1617 H   0  0  0  0  0  0  0  0  0  0  0  0
    4.8019    1.3182   19.1009 C   0  0  0  0  0  0  0  0  0  0  0  0
    3.8685    1.8474   19.2574 H   0  0  0  0  0  0  0  0  0  0  0  0
  1  2  1  0
  2  3  2  0
  3  4  1  0
  4  5  1  0
  4  6  2  0
  6  7  1  0
  7  8  2  0
  8  9  1  0
  8 10  1  0
 10 11  1  0
 10 12  2  0
 12 13  1  0
 13 14  1  0
 14 15  2  0
 15 16  1  0
 16 17  1  0
 16 18  2  0
 18 19  1  0
 18 20  1  0
 20 21  1  0
 13 22  2  0
 22 23  1  0
  6 24  1  0
 24 25  1  0
 24 26  2  0
 26 27  1  0
 26  2  1  0
 22  7  1  0
 20 14  1  0
M  END
>  <plip>  (1) 
-0.03571428571428571

>  <filename>  (1) 
[H][c]1[n][c]([H])[c](-[c]2[c]([H])[c]([H])[n][c](-[c]3[n][c]([H])[c]([H])[n]3[H])[c]2[H])[c]([H])[c]1[H]

$$$$
