
     RDKit          3D

 40 41  0  0  0  0  0  0  0  0999 V2000
    4.3291   -2.1227   29.2145 C   0  0  0  0  0  0  0  0  0  0  0  0
    4.9311   -2.1390   27.9265 O   0  0  0  0  0  0  0  0  0  0  0  0
    5.9485   -3.0388   27.7368 C   0  0  0  0  0  0  0  0  0  0  0  0
    5.9331   -4.3425   28.2643 C   0  0  0  0  0  0  0  0  0  0  0  0
    7.0581   -5.1724   28.1558 C   0  0  0  0  0  0  0  0  0  0  0  0
    8.1796   -4.7193   27.4561 C   0  0  0  0  0  0  0  0  0  0  0  0
    8.1672   -3.4593   26.8539 C   0  0  0  0  0  0  0  0  0  0  0  0
    7.0694   -2.6025   26.9958 C   0  0  0  0  0  0  0  0  0  0  0  0
    7.1093   -1.2932   26.4318 N   0  0  0  0  0  0  0  0  0  0  0  0
    7.6534   -0.9371   25.2552 C   0  0  0  0  0  0  0  0  0  0  0  0
    7.7882   -1.8247   24.2659 N   0  0  0  0  0  4  0  0  0  0  0  0
    8.0652   -1.5438   22.8556 C   0  0  0  0  0  0  0  0  0  0  0  0
    6.9834   -0.7531   22.1414 C   0  0  0  0  0  0  0  0  0  0  0  0
    7.4455   -0.6514   20.8022 O   0  0  0  0  0  0  0  0  0  0  0  0
    6.6923    0.0017   19.8818 C   0  0  0  0  0  0  0  0  0  0  0  0
    5.4734    0.6408   20.1302 C   0  0  0  0  0  0  0  0  0  0  0  0
    4.8459    1.3029   19.0656 C   0  0  0  0  0  0  0  0  0  0  0  0
    5.4421    1.2974   17.8041 C   0  0  0  0  0  0  0  0  0  0  0  0
    6.6025    0.6628   17.5490 N   0  0  0  0  0  0  0  0  0  0  0  0
    7.2037    0.0369   18.5640 C   0  0  0  0  0  0  0  0  0  0  0  0
    8.1432   -0.4760   18.3641 H   0  0  0  0  0  0  0  0  0  0  0  0
    4.9808    1.8149   16.9650 H   0  0  0  0  0  0  0  0  0  0  0  0
    3.9112    1.8326   19.2157 H   0  0  0  0  0  0  0  0  0  0  0  0
    5.0362    0.6266   21.1273 H   0  0  0  0  0  0  0  0  0  0  0  0
    6.8456    0.2415   22.5862 H   0  0  0  0  0  0  0  0  0  0  0  0
    6.0228   -1.2810   22.1766 H   0  0  0  0  0  0  0  0  0  0  0  0
    9.0182   -1.0178   22.7303 H   0  0  0  0  0  0  0  0  0  0  0  0
    8.1761   -2.5002   22.3357 H   0  0  0  0  0  0  0  0  0  0  0  0
    7.2859   -2.6821   24.4625 H   0  0  0  0  0  0  0  0  0  0  0  0
    8.0039    0.3561   25.1362 N   0  0  0  0  0  0  0  0  0  0  0  0
    8.6476    0.5546   24.3835 H   0  0  0  0  0  0  0  0  0  0  0  0
    8.2989    0.7618   26.0140 H   0  0  0  0  0  0  0  0  0  0  0  0
    6.7086   -0.5338   26.9663 H   0  0  0  0  0  0  0  0  0  0  0  0
    9.0205   -3.1133   26.2777 H   0  0  0  0  0  0  0  0  0  0  0  0
    9.0794   -5.3236   27.3881 H   0  0  0  0  0  0  0  0  0  0  0  0
    7.0736   -6.1482   28.6392 H   0  0  0  0  0  0  0  0  0  0  0  0
    5.0413   -4.6708   28.7860 H   0  0  0  0  0  0  0  0  0  0  0  0
    5.0983   -2.1917   29.9957 H   0  0  0  0  0  0  0  0  0  0  0  0
    3.6078   -2.9462   29.3411 H   0  0  0  0  0  0  0  0  0  0  0  0
    3.8171   -1.1631   29.3131 H   0  0  0  0  0  0  0  0  0  0  0  0
  1  2  1  0
  2  3  1  0
  3  4  2  0
  4  5  1  0
  5  6  2  0
  6  7  1  0
  7  8  2  0
  8  9  1  0
  9 10  1  0
 10 11  2  3
 11 12  1  0
 12 13  1  0
 13 14  1  0
 14 15  1  0
 15 16  2  0
 16 17  1  0
 17 18  2  0
 18 19  1  0
 19 20  2  0
 20 21  1  0
 18 22  1  0
 17 23  1  0
 16 24  1  0
 13 25  1  0
 13 26  1  0
 12 27  1  0
 12 28  1  0
 11 29  1  0
 10 30  1  0
 30 31  1  0
 30 32  1  0
  9 33  1  0
  7 34  1  0
  6 35  1  0
  5 36  1  0
  4 37  1  0
  1 38  1  0
  1 39  1  0
  1 40  1  0
  8  3  1  0
 20 15  1  0
M  CHG  1  11   1
M  END
>  <plip>  (1) 
-0.03571428571428571

>  <filename>  (1) 
[H][c]1[n][c]([H])[c]([O][C]([H])([H])[C]([H])([H])[N+]([H])=[C]([N]([H])[H])[N]([H])[c]2[c]([H])[c]([H])[c]([H])[c]([H])[c]2[O][C]([H])([H])[H])[c]([H])[c]1[H]

$$$$
