
     RDKit          3D

 33 35  0  0  0  0  0  0  0  0999 V2000
    4.9622    1.6723   16.9968 H   0  0  0  0  0  0  0  0  0  0  0  0
    5.4822    1.2688   17.8634 C   0  0  0  0  0  0  0  0  0  0  0  0
    6.6858    0.7145   17.6450 N   0  0  0  0  0  0  0  0  0  0  0  0
    7.3471    0.2408   18.7096 C   0  0  0  0  0  0  0  0  0  0  0  0
    8.3278   -0.1889   18.4837 H   0  0  0  0  0  0  0  0  0  0  0  0
    6.8601    0.2846   20.0345 C   0  0  0  0  0  0  0  0  0  0  0  0
    7.6251   -0.2831   21.2158 C   0  0  2  0  0  0  0  0  0  0  0  0
    7.1259    0.0419   22.1427 H   0  0  0  0  0  0  0  0  0  0  0  0
    9.1400    0.0921   21.2809 C   0  0  0  0  0  0  0  0  0  0  0  0
    9.3970    0.5101   22.2640 H   0  0  0  0  0  0  0  0  0  0  0  0
    9.4206    0.8429   20.5290 H   0  0  0  0  0  0  0  0  0  0  0  0
    9.9135   -1.1479   21.1085 N   0  0  0  0  0  0  0  0  0  0  0  0
   10.0492   -1.3233   20.1114 H   0  0  0  0  0  0  0  0  0  0  0  0
    9.0524   -2.1981   21.6594 C   0  0  0  0  0  0  0  0  0  0  0  0
    9.0915   -2.1794   22.7568 H   0  0  0  0  0  0  0  0  0  0  0  0
    9.3659   -3.1968   21.3486 H   0  0  0  0  0  0  0  0  0  0  0  0
    7.6553   -1.8380   21.1551 C   0  0  1  0  0  0  0  0  0  0  0  0
    7.6701   -2.1047   20.0979 H   0  0  0  0  0  0  0  0  0  0  0  0
    6.5186   -2.5433   21.7269 N   0  0  0  0  0  0  0  0  0  0  0  0
    5.5099   -3.1059   20.9850 C   0  0  0  0  0  0  0  0  0  0  0  0
    5.4819   -3.0669   19.4856 C   0  0  0  0  0  0  0  0  0  0  0  0
    6.1252   -3.8448   19.0609 H   0  0  0  0  0  0  0  0  0  0  0  0
    5.7897   -2.1007   19.0850 H   0  0  0  0  0  0  0  0  0  0  0  0
    4.4765   -3.2442   19.1221 H   0  0  0  0  0  0  0  0  0  0  0  0
    4.6303   -3.7131   21.7380 N   0  0  0  0  0  0  0  0  0  0  0  0
    5.0639   -3.5391   23.0289 C   0  0  0  0  0  0  0  0  0  0  0  0
    4.5005   -3.9452   23.8609 H   0  0  0  0  0  0  0  0  0  0  0  0
    6.2267   -2.8271   23.0541 C   0  0  0  0  0  0  0  0  0  0  0  0
    6.8273   -2.5027   23.8894 H   0  0  0  0  0  0  0  0  0  0  0  0
    5.5833    0.8245   20.2215 C   0  0  0  0  0  0  0  0  0  0  0  0
    5.1600    0.8426   21.2267 H   0  0  0  0  0  0  0  0  0  0  0  0
    4.8889    1.3362   19.1260 C   0  0  0  0  0  0  0  0  0  0  0  0
    3.9117    1.7867   19.2489 H   0  0  0  0  0  0  0  0  0  0  0  0
  1  2  1  0
  2  3  2  0
  3  4  1  0
  4  5  1  0
  4  6  2  0
  6  7  1  0
  7  8  1  1
  7  9  1  0
  9 10  1  0
  9 11  1  0
  9 12  1  0
 12 13  1  0
 12 14  1  0
 14 15  1  0
 14 16  1  0
 14 17  1  0
 17 18  1  6
 17 19  1  0
 19 20  1  0
 20 21  1  0
 21 22  1  0
 21 23  1  0
 21 24  1  0
 20 25  2  0
 25 26  1  0
 26 27  1  0
 26 28  2  0
 28 29  1  0
  6 30  1  0
 30 31  1  0
 30 32  2  0
 32 33  1  0
 32  2  1  0
 17  7  1  0
 28 19  1  0
M  END
>  <plip>  (1) 
-0.06896551724137931

>  <filename>  (1) 
[H][c]1[n][c]([H])[c]([C@]2([H])[C]([H])([H])[N]([H])[C]([H])([H])[C@@]2([H])[n]2[c]([C]([H])([H])[H])[n][c]([H])[c]2[H])[c]([H])[c]1[H]

$$$$
