
     RDKit          3D

 23 25  0  0  0  0  0  0  0  0999 V2000
    7.7209   -1.2331   27.3087 H   0  0  0  0  0  0  0  0  0  0  0  0
    8.1294   -1.5716   26.3606 C   0  0  0  0  0  0  0  0  0  0  0  0
    9.0764   -2.4269   26.1946 N   0  0  0  0  0  0  0  0  0  0  0  0
    9.2204   -2.5107   24.8233 C   0  0  0  0  0  0  0  0  0  0  0  0
    9.9390   -3.1458   24.3243 H   0  0  0  0  0  0  0  0  0  0  0  0
    8.3330   -1.6865   24.2271 C   0  0  0  0  0  0  0  0  0  0  0  0
    8.0896   -1.4179   22.8306 C   0  0  0  0  0  0  0  0  0  0  0  0
    8.7885   -2.0145   21.8127 N   0  0  0  0  0  0  0  0  0  0  0  0
    8.3560   -1.5713   20.6861 N   0  0  0  0  0  0  0  0  0  0  0  0
    7.3634   -0.6819   20.9364 N   0  0  0  0  0  0  0  0  0  0  0  0
    6.6642    0.0048   19.9006 C   0  0  0  0  0  0  0  0  0  0  0  0
    7.1878    0.0568   18.5997 C   0  0  0  0  0  0  0  0  0  0  0  0
    8.1346   -0.4391   18.3830 H   0  0  0  0  0  0  0  0  0  0  0  0
    6.5690    0.6816   17.5947 N   0  0  0  0  0  0  0  0  0  0  0  0
    5.3979    1.2911   17.8482 C   0  0  0  0  0  0  0  0  0  0  0  0
    4.9048    1.7710   17.0069 H   0  0  0  0  0  0  0  0  0  0  0  0
    4.8072    1.3105   19.1134 C   0  0  0  0  0  0  0  0  0  0  0  0
    3.8742    1.8439   19.2697 H   0  0  0  0  0  0  0  0  0  0  0  0
    5.4481    0.6490   20.1612 C   0  0  0  0  0  0  0  0  0  0  0  0
    5.0058    0.6276   21.1537 H   0  0  0  0  0  0  0  0  0  0  0  0
    7.1820   -0.5687   22.2707 C   0  0  0  0  0  0  0  0  0  0  0  0
    6.4796    0.0803   22.7599 H   0  0  0  0  0  0  0  0  0  0  0  0
    7.6108   -1.0640   25.2186 O   0  0  0  0  0  0  0  0  0  0  0  0
  1  2  1  0
  2  3  2  0
  3  4  1  0
  4  5  1  0
  4  6  2  0
  6  7  1  0
  7  8  1  0
  8  9  2  0
  9 10  1  0
 10 11  1  0
 11 12  2  0
 12 13  1  0
 12 14  1  0
 14 15  2  0
 15 16  1  0
 15 17  1  0
 17 18  1  0
 17 19  2  0
 19 20  1  0
 10 21  1  0
 21 22  1  0
  6 23  1  0
 23  2  1  0
 21  7  2  0
 19 11  1  0
M  END
>  <plip>  (1) 
-0.034482758620689655

>  <filename>  (1) 
[H][c]1[n][c]([H])[c](-[c]2[n][n][n](-[c]3[c]([H])[n][c]([H])[c]([H])[c]3[H])[c]2[H])[o]1

$$$$
