
     RDKit          3D

 42 44  0  0  0  0  0  0  0  0999 V2000
    0.1335   -4.9832   28.6162 C   0  0  0  0  0  0  0  0  0  0  0  0
    1.0135   -4.8056   27.4055 C   0  0  0  0  0  0  0  0  0  0  0  0
    1.4422   -3.5341   26.9960 C   0  0  0  0  0  0  0  0  0  0  0  0
    2.2597   -3.3795   25.8828 C   0  0  0  0  0  0  0  0  0  0  0  0
    2.7139   -4.5045   25.1575 C   0  0  0  0  0  0  0  0  0  0  0  0
    3.6882   -4.3415   24.0530 C   0  0  0  0  0  0  0  0  0  0  0  0
    3.6584   -5.0433   22.9480 N   0  0  0  0  0  0  0  0  0  0  0  0
    4.5330   -4.5643   22.0325 C   0  0  0  0  0  0  0  0  0  0  0  0
    5.2589   -3.4800   22.4032 C   0  0  0  0  0  0  0  0  0  0  0  0
    5.9883   -2.6891   21.4042 C   0  0  0  0  0  0  0  0  0  0  0  0
    6.0296   -3.0293   20.2429 O   0  0  0  0  0  0  0  0  0  0  0  0
    6.5479   -1.5777   21.8999 O   0  0  0  0  0  0  0  0  0  0  0  0
    7.3698   -0.7917   21.0094 C   0  0  0  0  0  0  0  0  0  0  0  0
    8.0561    0.2138   21.9106 C   0  0  0  0  0  0  0  0  0  0  0  0
    8.7635    0.8213   21.3424 H   0  0  0  0  0  0  0  0  0  0  0  0
    8.5928   -0.3096   22.7051 H   0  0  0  0  0  0  0  0  0  0  0  0
    7.3136    0.8839   22.3579 H   0  0  0  0  0  0  0  0  0  0  0  0
    6.5686   -0.1119   19.9149 C   0  0  0  0  0  0  0  0  0  0  0  0
    5.3686    0.5799   20.1485 C   0  0  0  0  0  0  0  0  0  0  0  0
    4.7904    1.2832   19.0879 C   0  0  0  0  0  0  0  0  0  0  0  0
    5.4281    1.2836   17.8417 C   0  0  0  0  0  0  0  0  0  0  0  0
    6.5749    0.6308   17.5999 N   0  0  0  0  0  0  0  0  0  0  0  0
    7.1114   -0.0417   18.6284 C   0  0  0  0  0  0  0  0  0  0  0  0
    8.0531   -0.5494   18.4173 H   0  0  0  0  0  0  0  0  0  0  0  0
    5.0020    1.8311   17.0010 H   0  0  0  0  0  0  0  0  0  0  0  0
    3.8733    1.8485   19.2165 H   0  0  0  0  0  0  0  0  0  0  0  0
    4.9114    0.5859   21.1397 H   0  0  0  0  0  0  0  0  0  0  0  0
    8.1101   -1.4501   20.5331 H   0  0  0  0  0  0  0  0  0  0  0  0
    4.9612   -3.1374   24.0741 S   0  0  0  0  0  0  0  0  0  0  0  0
    4.6474   -5.0403   21.0655 H   0  0  0  0  0  0  0  0  0  0  0  0
    2.2486   -5.7967   25.5250 C   0  0  0  0  0  0  0  0  0  0  0  0
    2.6247   -7.0509   24.7726 C   0  0  0  0  0  0  0  0  0  0  0  0
    2.1435   -7.0544   23.7910 H   0  0  0  0  0  0  0  0  0  0  0  0
    2.3351   -7.9503   25.3254 H   0  0  0  0  0  0  0  0  0  0  0  0
    3.6992   -7.0801   24.5719 H   0  0  0  0  0  0  0  0  0  0  0  0
    1.4279   -5.9108   26.6517 C   0  0  0  0  0  0  0  0  0  0  0  0
    1.1102   -6.9070   26.9570 H   0  0  0  0  0  0  0  0  0  0  0  0
    2.5507   -2.3739   25.5779 H   0  0  0  0  0  0  0  0  0  0  0  0
    1.1335   -2.6583   27.5652 H   0  0  0  0  0  0  0  0  0  0  0  0
   -0.9341   -4.9438   28.3638 H   0  0  0  0  0  0  0  0  0  0  0  0
    0.3196   -5.9489   29.0972 H   0  0  0  0  0  0  0  0  0  0  0  0
    0.3238   -4.2019   29.3586 H   0  0  0  0  0  0  0  0  0  0  0  0
  1  2  1  0
  2  3  2  0
  3  4  1  0
  4  5  2  0
  5  6  1  0
  6  7  2  0
  7  8  1  0
  8  9  2  0
  9 10  1  0
 10 11  2  0
 10 12  1  0
 12 13  1  0
 13 14  1  0
 14 15  1  0
 14 16  1  0
 14 17  1  0
 13 18  1  0
 18 19  2  0
 19 20  1  0
 20 21  2  0
 21 22  1  0
 22 23  2  0
 23 24  1  0
 21 25  1  0
 20 26  1  0
 19 27  1  0
 13 28  1  0
  9 29  1  0
  8 30  1  0
  5 31  1  0
 31 32  1  0
 32 33  1  0
 32 34  1  0
 32 35  1  0
 31 36  2  0
 36 37  1  0
  4 38  1  0
  3 39  1  0
  1 40  1  0
  1 41  1  0
  1 42  1  0
 36  2  1  0
 29  6  1  0
 23 18  1  0
M  END
>  <plip>  (1) 
-0.07142857142857142

>  <filename>  (1) 
[H][c]1[n][c](-[c]2[c]([H])[c]([H])[c]([C]([H])([H])[H])[c]([H])[c]2[C]([H])([H])[H])[s][c]1[C](=[O])[O][C]([H])([c]1[c]([H])[n][c]([H])[c]([H])[c]1[H])[C]([H])([H])[H]

$$$$
