
     RDKit          3D

 52 55  0  0  0  0  0  0  0  0999 V2000
    1.8360   -7.4434   21.9647 C   0  0  0  0  0  0  0  0  0  0  0  0
    3.0540   -6.6885   21.9457 O   0  0  0  0  0  0  0  0  0  0  0  0
    3.0629   -5.4524   22.4966 C   0  0  0  0  0  0  0  0  0  0  0  0
    2.1431   -4.9949   23.1264 O   0  0  0  0  0  0  0  0  0  0  0  0
    4.3517   -4.7400   22.1951 C   0  0  0  0  0  0  0  0  0  0  0  0
    4.2470   -3.4442   21.9387 N   0  0  0  0  0  0  0  0  0  0  0  0
    5.2780   -2.7105   21.5292 N   0  0  0  0  0  0  0  0  0  0  0  0
    6.5201   -3.2230   21.4106 C   0  0  0  0  0  0  0  0  0  0  0  0
    7.4865   -2.3286   20.8344 N   0  0  0  0  0  0  0  0  0  0  0  0
    7.2815   -0.8723   21.1146 C   0  0  0  0  0  0  0  0  0  0  0  0
    8.6361   -0.1533   21.3174 C   0  0  0  0  0  0  0  0  0  0  0  0
    9.3799   -0.5027   22.6234 N   0  0  0  0  0  4  0  0  0  0  0  0
   10.2802    0.5835   23.1600 C   0  0  0  0  0  0  0  0  0  0  0  0
   11.6122    0.4046   22.4257 C   0  0  0  0  0  0  0  0  0  0  0  0
   11.6648   -1.0791   22.0011 C   0  0  0  0  0  0  0  0  0  0  0  0
   10.3165   -1.6845   22.4003 C   0  0  0  0  0  0  0  0  0  0  0  0
    9.8809   -2.2888   21.6094 H   0  0  0  0  0  0  0  0  0  0  0  0
   10.3707   -2.2818   23.3143 H   0  0  0  0  0  0  0  0  0  0  0  0
   12.4843   -1.6285   22.4700 H   0  0  0  0  0  0  0  0  0  0  0  0
   11.8066   -1.1702   20.9201 H   0  0  0  0  0  0  0  0  0  0  0  0
   11.6437    1.0562   21.5465 H   0  0  0  0  0  0  0  0  0  0  0  0
   12.4489    0.6887   23.0689 H   0  0  0  0  0  0  0  0  0  0  0  0
   10.3918    0.4355   24.2367 H   0  0  0  0  0  0  0  0  0  0  0  0
    9.8244    1.5639   22.9998 H   0  0  0  0  0  0  0  0  0  0  0  0
    8.6546   -0.7447   23.3217 H   0  0  0  0  0  0  0  0  0  0  0  0
    8.4761    0.9265   21.2858 H   0  0  0  0  0  0  0  0  0  0  0  0
    9.2778   -0.4189   20.4740 H   0  0  0  0  0  0  0  0  0  0  0  0
    6.5328   -0.2402   19.9615 C   0  0  0  0  0  0  0  0  0  0  0  0
    5.3256    0.4546   20.1352 C   0  0  0  0  0  0  0  0  0  0  0  0
    4.8037    1.1782   19.0587 C   0  0  0  0  0  0  0  0  0  0  0  0
    5.4920    1.1665   17.8432 C   0  0  0  0  0  0  0  0  0  0  0  0
    6.6151    0.4608   17.6414 N   0  0  0  0  0  0  0  0  0  0  0  0
    7.0978   -0.2399   18.6742 C   0  0  0  0  0  0  0  0  0  0  0  0
    8.0191   -0.7894   18.4608 H   0  0  0  0  0  0  0  0  0  0  0  0
    5.1289    1.7426   16.9929 H   0  0  0  0  0  0  0  0  0  0  0  0
    3.8932    1.7597   19.1492 H   0  0  0  0  0  0  0  0  0  0  0  0
    4.8035    0.4035   21.0951 H   0  0  0  0  0  0  0  0  0  0  0  0
    6.7161   -0.7481   22.0496 H   0  0  0  0  0  0  0  0  0  0  0  0
    7.3669   -2.4291   19.8281 H   0  0  0  0  0  0  0  0  0  0  0  0
    6.7019   -4.5569   21.7722 C   0  0  0  0  0  0  0  0  0  0  0  0
    8.0361   -5.5839   22.0237 C   0  0  0  0  0  0  0  0  0  0  0  0
    8.2618   -5.5931   21.7325 C   0  0  0  0  0  0  0  0  0  0  0  0
    7.2801   -7.0466   22.3012 C   0  0  0  0  0  0  0  0  0  0  0  0
    5.9547   -6.8345   22.4337 C   0  0  0  0  0  0  0  0  0  0  0  0
    5.6293   -5.3878   22.1401 C   0  0  0  0  0  0  0  0  0  0  0  0
    5.2051   -7.5516   22.7605 H   0  0  0  0  0  0  0  0  0  0  0  0
    7.8423   -7.9558   22.5764 H   0  0  0  0  0  0  0  0  0  0  0  0
    8.6276   -5.6734   20.6488 H   0  0  0  0  0  0  0  0  0  0  0  0
    9.1480   -5.0177   22.5470 H   0  0  0  0  0  0  0  0  0  0  0  0
    1.5944   -7.7712   22.9809 H   0  0  0  0  0  0  0  0  0  0  0  0
    0.9994   -6.8629   21.5612 H   0  0  0  0  0  0  0  0  0  0  0  0
    2.0245   -8.3119   21.3301 H   0  0  0  0  0  0  0  0  0  0  0  0
  1  2  1  0
  2  3  1  0
  3  4  2  0
  3  5  1  0
  5  6  2  0
  6  7  1  0
  7  8  2  0
  8  9  1  0
  9 10  1  0
 10 11  1  0
 11 12  1  0
 12 13  1  0
 13 14  1  0
 14 15  1  0
 15 16  1  0
 16 17  1  0
 16 18  1  0
 15 19  1  0
 15 20  1  0
 14 21  1  0
 14 22  1  0
 13 23  1  0
 13 24  1  0
 12 25  1  0
 11 26  1  0
 11 27  1  0
 10 28  1  0
 28 29  2  0
 29 30  1  0
 30 31  2  0
 31 32  1  0
 32 33  2  0
 33 34  1  0
 31 35  1  0
 30 36  1  0
 29 37  1  0
 10 38  1  0
  9 39  1  0
  8 40  1  0
 40 41  2  0
 41 42  1  0
 42 43  2  0
 43 44  1  0
 44 45  2  0
 44 46  1  0
 43 47  1  0
 42 48  1  0
 41 49  1  0
  1 50  1  0
  1 51  1  0
  1 52  1  0
 45  5  1  0
 16 12  1  0
 33 28  1  0
 45 40  1  0
M  CHG  1  12   1
M  END
>  <plip>  (1) 
-0.0967741935483871

>  <filename>  (1) 
[H][c]1[n][c]([H])[c]([C]([H])([N]([H])[c]2[n][n][c]([C](=[O])[O][C]([H])([H])[H])[c]3[c]([H])[c]([H])[c]([H])[c]([H])[c]23)[C]([H])([H])[N+]2([H])[C]([H])([H])[C]([H])([H])[C]([H])([H])[C]2([H])[H])[c]([H])[c]1[H]

$$$$
