
     RDKit          3D

 37 39  0  0  0  0  0  0  0  0999 V2000
   10.0727   -2.3646   23.1440 O   0  0  0  0  0  0  0  0  0  0  0  0
   10.7031   -1.4413   22.2774 C   0  0  0  0  0  0  0  0  0  0  0  0
    9.9395   -0.9404   21.0289 C   0  0  0  0  0  0  0  0  0  0  0  0
    8.7584   -0.0719   21.1947 N   0  0  0  0  0  0  0  0  0  0  0  0
    7.4044   -0.6070   21.0309 C   0  0  0  0  0  0  0  0  0  0  0  0
    6.6122    0.0798   19.9353 C   0  0  0  0  0  0  0  0  0  0  0  0
    5.3791    0.7180   20.1364 C   0  0  0  0  0  0  0  0  0  0  0  0
    4.7570    1.3408   19.0491 C   0  0  0  0  0  0  0  0  0  0  0  0
    5.3852    1.3081   17.8010 C   0  0  0  0  0  0  0  0  0  0  0  0
    6.5487    0.6784   17.5810 N   0  0  0  0  0  0  0  0  0  0  0  0
    7.1366    0.0965   18.6327 C   0  0  0  0  0  0  0  0  0  0  0  0
    8.0781   -0.4070   18.4188 H   0  0  0  0  0  0  0  0  0  0  0  0
    4.9391    1.8148   16.9456 H   0  0  0  0  0  0  0  0  0  0  0  0
    3.8192    1.8727   19.1608 H   0  0  0  0  0  0  0  0  0  0  0  0
    4.9062    0.7483   21.1237 H   0  0  0  0  0  0  0  0  0  0  0  0
    6.8640   -0.5579   21.9864 H   0  0  0  0  0  0  0  0  0  0  0  0
    7.4894   -1.6751   20.8018 H   0  0  0  0  0  0  0  0  0  0  0  0
    8.9228    1.1910   21.7436 C   0  0  0  0  0  0  0  0  0  0  0  0
    7.8158    1.9200   22.4042 C   0  0  0  0  0  0  0  0  0  0  0  0
    7.9352    3.1235   22.9159 N   0  0  0  0  0  0  0  0  0  0  0  0
    9.1736    3.7245   22.7478 C   0  0  0  0  0  0  0  0  0  0  0  0
    9.3348    5.0808   23.1182 C   0  0  0  0  0  0  0  0  0  0  0  0
   10.5427    5.7147   22.9136 C   0  0  0  0  0  0  0  0  0  0  0  0
   11.6476    5.0036   22.3736 C   0  0  0  0  0  0  0  0  0  0  0  0
   11.5251    3.6656   22.0307 C   0  0  0  0  0  0  0  0  0  0  0  0
   10.2701    3.0137   22.1525 C   0  0  0  0  0  0  0  0  0  0  0  0
   10.1336    1.7309   21.6650 N   0  0  0  0  0  0  0  0  0  0  0  0
   12.3364    3.0853   21.6042 H   0  0  0  0  0  0  0  0  0  0  0  0
   12.5892    5.5192   22.2118 H   0  0  0  0  0  0  0  0  0  0  0  0
   10.6521    6.7665   23.1674 H   0  0  0  0  0  0  0  0  0  0  0  0
    8.4687    5.5584   23.5642 H   0  0  0  0  0  0  0  0  0  0  0  0
    6.8369    1.4497   22.4600 H   0  0  0  0  0  0  0  0  0  0  0  0
    9.6632   -1.7980   20.4024 H   0  0  0  0  0  0  0  0  0  0  0  0
   10.6869   -0.3730   20.4741 H   0  0  0  0  0  0  0  0  0  0  0  0
   10.9605   -0.5795   22.9017 H   0  0  0  0  0  0  0  0  0  0  0  0
   11.6524   -1.8443   21.8836 H   0  0  0  0  0  0  0  0  0  0  0  0
    9.8248   -3.1607   22.6595 H   0  0  0  0  0  0  0  0  0  0  0  0
  1  2  1  0
  2  3  1  0
  3  4  1  0
  4  5  1  0
  5  6  1  0
  6  7  2  0
  7  8  1  0
  8  9  2  0
  9 10  1  0
 10 11  2  0
 11 12  1  0
  9 13  1  0
  8 14  1  0
  7 15  1  0
  5 16  1  0
  5 17  1  0
  4 18  1  0
 18 19  2  0
 19 20  1  0
 20 21  2  0
 21 22  1  0
 22 23  2  0
 23 24  1  0
 24 25  2  0
 25 26  1  0
 26 27  2  0
 25 28  1  0
 24 29  1  0
 23 30  1  0
 22 31  1  0
 19 32  1  0
  3 33  1  0
  3 34  1  0
  2 35  1  0
  2 36  1  0
  1 37  1  0
 11  6  1  0
 27 18  1  0
 26 21  1  0
M  END
>  <plip>  (1) 
-0.06896551724137931

>  <filename>  (1) 
[H][O][C]([H])([H])[C]([H])([H])[N]([c]1[n][c]2[c]([H])[c]([H])[c]([H])[c]([H])[c]2[n][c]1[H])[C]([H])([H])[c]1[c]([H])[n][c]([H])[c]([H])[c]1[H]

$$$$
