
     RDKit          3D

 54 56  0  0  0  0  0  0  0  0999 V2000
    8.1441   -5.5856   21.1336 C   0  0  0  0  0  0  0  0  0  0  0  0
    8.4418   -4.2273   20.9699 O   0  0  0  0  0  0  0  0  0  0  0  0
    8.5605   -3.4358   22.1191 C   0  0  0  0  0  0  0  0  0  0  0  0
    7.2179   -2.8555   22.5169 C   0  0  0  0  0  0  0  0  0  0  0  0
    6.6132   -2.0061   21.3937 C   0  0  0  0  0  0  0  0  0  0  0  0
    7.3751   -0.7216   21.0250 C   0  0  0  0  0  0  0  0  0  0  0  0
    7.5691    0.1121   22.2007 N   0  0  0  0  0  0  0  0  0  0  0  0
    8.3769    1.2191   22.1980 C   0  0  0  0  0  0  0  0  0  0  0  0
    9.1387    1.4283   21.2673 O   0  0  0  0  0  0  0  0  0  0  0  0
    8.2470    2.1468   23.4586 C   0  0  0  0  0  0  0  0  0  0  0  0
    8.5223    1.3553   24.7672 C   0  0  0  0  0  0  0  0  0  0  0  0
    7.7380    0.6151   24.9692 H   0  0  0  0  0  0  0  0  0  0  0  0
    8.5786    2.0252   25.6328 H   0  0  0  0  0  0  0  0  0  0  0  0
    9.4799    0.8287   24.7057 H   0  0  0  0  0  0  0  0  0  0  0  0
    6.8222    2.7826   23.5024 C   0  0  0  0  0  0  0  0  0  0  0  0
    6.6390    3.7407   24.6893 C   0  0  0  0  0  0  0  0  0  0  0  0
    7.8148    4.6793   24.9199 C   0  0  0  0  0  0  0  0  0  0  0  0
    7.6621    5.7845   25.7741 C   0  0  0  0  0  0  0  0  0  0  0  0
    8.7328    6.6381   26.0479 C   0  0  0  0  0  0  0  0  0  0  0  0
    9.9826    6.3982   25.4633 C   0  0  0  0  0  0  0  0  0  0  0  0
   10.1450    5.3076   24.6081 C   0  0  0  0  0  0  0  0  0  0  0  0
    9.0719    4.4418   24.3259 C   0  0  0  0  0  0  0  0  0  0  0  0
    9.2682    3.3096   23.3315 C   0  0  0  0  0  0  0  0  0  0  0  0
   10.2854    2.9083   23.4205 H   0  0  0  0  0  0  0  0  0  0  0  0
    9.2157    3.7226   22.3145 H   0  0  0  0  0  0  0  0  0  0  0  0
   11.1105    5.1242   24.1360 H   0  0  0  0  0  0  0  0  0  0  0  0
   10.8234    7.0557   25.6714 H   0  0  0  0  0  0  0  0  0  0  0  0
    8.5918    7.4860   26.7127 H   0  0  0  0  0  0  0  0  0  0  0  0
    6.6874    5.9640   26.2269 H   0  0  0  0  0  0  0  0  0  0  0  0
    5.7204    4.3246   24.5481 H   0  0  0  0  0  0  0  0  0  0  0  0
    6.4789    3.1605   25.6102 H   0  0  0  0  0  0  0  0  0  0  0  0
    6.0497    2.0027   23.5614 H   0  0  0  0  0  0  0  0  0  0  0  0
    6.6574    3.3358   22.5664 H   0  0  0  0  0  0  0  0  0  0  0  0
    6.8455    0.0761   22.8952 H   0  0  0  0  0  0  0  0  0  0  0  0
    6.6459    0.0361   19.9248 C   0  0  0  0  0  0  0  0  0  0  0  0
    5.4197    0.6859   20.1367 C   0  0  0  0  0  0  0  0  0  0  0  0
    4.8016    1.3225   19.0602 C   0  0  0  0  0  0  0  0  0  0  0  0
    5.4237    1.2917   17.8063 C   0  0  0  0  0  0  0  0  0  0  0  0
    6.5931    0.6758   17.5793 N   0  0  0  0  0  0  0  0  0  0  0  0
    7.1753    0.0783   18.6305 C   0  0  0  0  0  0  0  0  0  0  0  0
    8.1258   -0.4139   18.4222 H   0  0  0  0  0  0  0  0  0  0  0  0
    4.9593    1.7779   16.9493 H   0  0  0  0  0  0  0  0  0  0  0  0
    3.8601    1.8466   19.1798 H   0  0  0  0  0  0  0  0  0  0  0  0
    4.9511    0.7025   21.1253 H   0  0  0  0  0  0  0  0  0  0  0  0
    8.3713   -0.9817   20.6378 H   0  0  0  0  0  0  0  0  0  0  0  0
    5.5770   -1.7430   21.6348 H   0  0  0  0  0  0  0  0  0  0  0  0
    6.5693   -2.6345   20.4974 H   0  0  0  0  0  0  0  0  0  0  0  0
    7.3285   -2.2948   23.4510 H   0  0  0  0  0  0  0  0  0  0  0  0
    6.5406   -3.6876   22.7297 H   0  0  0  0  0  0  0  0  0  0  0  0
    9.2649   -2.6454   21.8546 H   0  0  0  0  0  0  0  0  0  0  0  0
    9.0332   -4.0033   22.9329 H   0  0  0  0  0  0  0  0  0  0  0  0
    8.5034   -5.9998   22.0893 H   0  0  0  0  0  0  0  0  0  0  0  0
    8.6886   -6.0640   20.3193 H   0  0  0  0  0  0  0  0  0  0  0  0
    7.0688   -5.7977   21.0588 H   0  0  0  0  0  0  0  0  0  0  0  0
  1  2  1  0
  2  3  1  0
  3  4  1  0
  4  5  1  0
  5  6  1  0
  6  7  1  0
  7  8  1  0
  8  9  2  0
  8 10  1  0
 10 11  1  0
 11 12  1  0
 11 13  1  0
 11 14  1  0
 10 15  1  0
 15 16  1  0
 16 17  1  0
 17 18  2  0
 18 19  1  0
 19 20  2  0
 20 21  1  0
 21 22  2  0
 22 23  1  0
 23 24  1  0
 23 25  1  0
 21 26  1  0
 20 27  1  0
 19 28  1  0
 18 29  1  0
 16 30  1  0
 16 31  1  0
 15 32  1  0
 15 33  1  0
  7 34  1  0
  6 35  1  0
 35 36  2  0
 36 37  1  0
 37 38  2  0
 38 39  1  0
 39 40  2  0
 40 41  1  0
 38 42  1  0
 37 43  1  0
 36 44  1  0
  6 45  1  0
  5 46  1  0
  5 47  1  0
  4 48  1  0
  4 49  1  0
  3 50  1  0
  3 51  1  0
  1 52  1  0
  1 53  1  0
  1 54  1  0
 23 10  1  0
 40 35  1  0
 22 17  1  0
M  END
>  <plip>  (1) 
-0.13793103448275862

>  <filename>  (1) 
[H][c]1[n][c]([H])[c]([C]([H])([N]([H])[C](=[O])[C]2([C]([H])([H])[H])[C]([H])([H])[c]3[c]([H])[c]([H])[c]([H])[c]([H])[c]3[C]([H])([H])[C]2([H])[H])[C]([H])([H])[C]([H])([H])[C]([H])([H])[O][C]([H])([H])[H])[c]([H])[c]1[H]

$$$$
