
     RDKit          3D

 37 38  0  0  0  0  0  0  0  0999 V2000
    8.6359   -2.1749   25.2791 C   0  0  0  0  0  0  0  0  0  0  0  0
    8.2430   -0.9192   24.5170 C   0  0  0  0  0  0  0  0  0  0  0  0
    7.9816   -1.2752   23.1180 N   0  0  0  0  0  0  0  0  0  0  0  0
    7.2997   -0.3418   22.3547 C   0  0  0  0  0  0  0  0  0  0  0  0
    6.6766    0.5923   22.8135 O   0  0  0  0  0  0  0  0  0  0  0  0
    7.4222   -0.6485   21.0117 N   0  0  0  0  0  0  0  0  0  0  0  0
    6.7206   -0.0166   19.9497 C   0  0  0  0  0  0  0  0  0  0  0  0
    5.5156    0.6652   20.1711 C   0  0  0  0  0  0  0  0  0  0  0  0
    4.8967    1.2801   19.0779 C   0  0  0  0  0  0  0  0  0  0  0  0
    5.5004    1.2197   17.8182 C   0  0  0  0  0  0  0  0  0  0  0  0
    6.6448    0.5529   17.5860 N   0  0  0  0  0  0  0  0  0  0  0  0
    7.2247   -0.0530   18.6298 C   0  0  0  0  0  0  0  0  0  0  0  0
    8.1482   -0.5973   18.4335 H   0  0  0  0  0  0  0  0  0  0  0  0
    5.0568    1.7231   16.9622 H   0  0  0  0  0  0  0  0  0  0  0  0
    3.9635    1.8194   19.2051 H   0  0  0  0  0  0  0  0  0  0  0  0
    5.1054    0.7143   21.1763 H   0  0  0  0  0  0  0  0  0  0  0  0
    7.8206   -1.5578   20.8471 H   0  0  0  0  0  0  0  0  0  0  0  0
    8.8166   -1.5774   22.6461 H   0  0  0  0  0  0  0  0  0  0  0  0
    9.2485    0.2315   24.6283 C   0  0  0  0  0  0  0  0  0  0  0  0
    8.8813    1.4347   25.2470 C   0  0  0  0  0  0  0  0  0  0  0  0
    9.6945    2.5661   25.2023 C   0  0  0  0  0  0  0  0  0  0  0  0
   10.9237    2.4956   24.5460 C   0  0  0  0  0  0  0  0  0  0  0  0
   11.3499    1.2938   23.9768 C   0  0  0  0  0  0  0  0  0  0  0  0
   10.5082    0.1831   24.0156 C   0  0  0  0  0  0  0  0  0  0  0  0
   10.9119   -1.0292   23.4646 O   0  0  0  0  0  0  0  0  0  0  0  0
   11.6873   -1.1057   22.3572 C   0  0  0  0  0  0  0  0  0  0  0  0
   11.6090   -2.3494   21.8972 F   0  0  0  0  0  0  0  0  0  0  0  0
   11.3114   -0.2906   21.3605 F   0  0  0  0  0  0  0  0  0  0  0  0
   12.9769   -0.8368   22.6205 F   0  0  0  0  0  0  0  0  0  0  0  0
   12.3139    1.1809   23.5019 H   0  0  0  0  0  0  0  0  0  0  0  0
   11.5573    3.3714   24.4715 H   0  0  0  0  0  0  0  0  0  0  0  0
    9.3591    3.4911   25.6622 H   0  0  0  0  0  0  0  0  0  0  0  0
    7.9218    1.4933   25.7496 H   0  0  0  0  0  0  0  0  0  0  0  0
    7.2965   -0.5542   24.9365 H   0  0  0  0  0  0  0  0  0  0  0  0
    8.7429   -1.9498   26.3454 H   0  0  0  0  0  0  0  0  0  0  0  0
    7.8424   -2.9230   25.1745 H   0  0  0  0  0  0  0  0  0  0  0  0
    9.5777   -2.5845   24.9010 H   0  0  0  0  0  0  0  0  0  0  0  0
  1  2  1  0
  2  3  1  0
  3  4  1  0
  4  5  2  0
  4  6  1  0
  6  7  1  0
  7  8  2  0
  8  9  1  0
  9 10  2  0
 10 11  1  0
 11 12  2  0
 12 13  1  0
 10 14  1  0
  9 15  1  0
  8 16  1  0
  6 17  1  0
  3 18  1  0
  2 19  1  0
 19 20  2  0
 20 21  1  0
 21 22  2  0
 22 23  1  0
 23 24  2  0
 24 25  1  0
 25 26  1  0
 26 27  1  0
 26 28  1  0
 26 29  1  0
 23 30  1  0
 22 31  1  0
 21 32  1  0
 20 33  1  0
  2 34  1  0
  1 35  1  0
  1 36  1  0
  1 37  1  0
 12  7  1  0
 24 19  1  0
M  END
>  <plip>  (1) 
-0.10344827586206896

>  <filename>  (1) 
[H][c]1[n][c]([H])[c]([N]([H])[C](=[O])[N]([H])[C]([H])([c]2[c]([H])[c]([H])[c]([H])[c]([H])[c]2[O][C]([F])([F])[F])[C]([H])([H])[H])[c]([H])[c]1[H]

$$$$
