
     RDKit          3D

 30 32  0  0  0  0  0  0  0  0999 V2000
    5.0856    1.7199   17.0067 H   0  0  0  0  0  0  0  0  0  0  0  0
    5.4658    1.2309   17.9038 C   0  0  0  0  0  0  0  0  0  0  0  0
    6.5901    0.5143   17.7474 N   0  0  0  0  0  0  0  0  0  0  0  0
    7.0902   -0.0889   18.8316 C   0  0  0  0  0  0  0  0  0  0  0  0
    8.0299   -0.6245   18.6836 H   0  0  0  0  0  0  0  0  0  0  0  0
    6.5147   -0.0271   20.1165 C   0  0  0  0  0  0  0  0  0  0  0  0
    7.1354   -0.7980   21.2211 C   0  0  0  0  0  0  0  0  0  0  0  0
    7.5464   -2.1137   21.2622 C   0  0  0  0  0  0  0  0  0  0  0  0
    7.3649   -2.8677   20.5120 H   0  0  0  0  0  0  0  0  0  0  0  0
    8.1419   -2.2720   22.5288 C   0  0  0  0  0  0  0  0  0  0  0  0
    8.6442   -3.1374   22.9505 H   0  0  0  0  0  0  0  0  0  0  0  0
    8.0772   -1.1614   23.2424 N   0  0  0  0  0  0  0  0  0  0  0  0
    7.4580   -0.2678   22.4485 N   0  0  0  0  0  0  0  0  0  0  0  0
    7.1812    0.9878   22.9782 C   0  0  0  0  0  0  0  0  0  0  0  0
    6.5433    1.2235   24.2286 C   0  0  0  0  0  0  0  0  0  0  0  0
    6.0727    0.2249   25.2332 C   0  0  0  0  0  0  0  0  0  0  0  0
    5.3930    0.6845   25.9562 H   0  0  0  0  0  0  0  0  0  0  0  0
    5.5838   -0.6097   24.7251 H   0  0  0  0  0  0  0  0  0  0  0  0
    6.9526   -0.1874   25.7384 H   0  0  0  0  0  0  0  0  0  0  0  0
    6.4339    2.5079   24.4324 N   0  0  0  0  0  0  0  0  0  0  0  0
    7.0336    3.1289   23.3535 O   0  0  0  0  0  0  0  0  0  0  0  0
    7.5118    2.2148   22.5047 C   0  0  0  0  0  0  0  0  0  0  0  0
    8.3190    2.6181   21.3263 C   0  0  0  0  0  0  0  0  0  0  0  0
    7.7879    2.3110   20.4210 H   0  0  0  0  0  0  0  0  0  0  0  0
    9.2514    2.0455   21.3278 H   0  0  0  0  0  0  0  0  0  0  0  0
    8.5287    3.6907   21.3427 H   0  0  0  0  0  0  0  0  0  0  0  0
    5.3532    0.7522   20.2664 C   0  0  0  0  0  0  0  0  0  0  0  0
    4.8917    0.8632   21.2495 H   0  0  0  0  0  0  0  0  0  0  0  0
    4.8181    1.3750   19.1354 C   0  0  0  0  0  0  0  0  0  0  0  0
    3.9184    1.9771   19.1839 H   0  0  0  0  0  0  0  0  0  0  0  0
  1  2  1  0
  2  3  2  0
  3  4  1  0
  4  5  1  0
  4  6  2  0
  6  7  1  0
  7  8  2  0
  8  9  1  0
  8 10  1  0
 10 11  1  0
 10 12  2  0
 12 13  1  0
 13 14  1  0
 14 15  1  0
 15 16  1  0
 16 17  1  0
 16 18  1  0
 16 19  1  0
 15 20  2  0
 20 21  1  0
 21 22  1  0
 22 23  1  0
 23 24  1  0
 23 25  1  0
 23 26  1  0
  6 27  1  0
 27 28  1  0
 27 29  2  0
 29 30  1  0
 29  2  1  0
 13  7  1  0
 22 14  2  0
M  END
>  <plip>  (1) 
-0.0

>  <filename>  (1) 
[H][c]1[n][c]([H])[c](-[c]2[c]([H])[c]([H])[n][n]2-[c]2[c]([C]([H])([H])[H])[n][o][c]2[C]([H])([H])[H])[c]([H])[c]1[H]

$$$$
