
     RDKit          3D

 38 40  0  0  0  0  0  0  0  0999 V2000
   10.5252   -1.3713   24.3630 O   0  0  0  0  0  0  0  0  0  0  0  0
   10.6676   -0.2114   24.0767 C   0  0  0  0  0  0  0  0  0  0  0  0
   11.3782    0.7501   25.0138 C   0  0  0  0  0  0  0  0  0  0  0  0
   11.7771    2.0781   24.3837 C   0  0  0  0  0  0  0  0  0  0  0  0
   10.5981    2.5829   23.5603 C   0  0  0  0  0  0  0  0  0  0  0  0
   10.3407    1.5991   22.4222 C   0  0  0  0  0  0  0  0  0  0  0  0
    9.1673    1.9615   21.5133 C   0  0  0  0  0  0  0  0  0  0  0  0
    7.8080    2.1163   22.2000 C   0  0  0  0  0  0  0  0  0  0  0  0
    7.3721    0.8752   22.8475 N   0  0  0  0  0  0  0  0  0  0  0  0
    7.2016    0.5720   24.1808 C   0  0  0  0  0  0  0  0  0  0  0  0
    6.9506   -0.6882   24.3554 N   0  0  0  0  0  0  0  0  0  0  0  0
    7.0115   -1.2844   23.1119 N   0  0  0  0  0  0  0  0  0  0  0  0
    7.2864   -0.3486   22.2497 C   0  0  0  0  0  0  0  0  0  0  0  0
    7.5079   -0.6374   20.9052 N   0  0  0  0  0  0  0  0  0  0  0  0
    6.7560    0.0073   19.8630 C   0  0  0  0  0  0  0  0  0  0  0  0
    5.5189    0.6062   20.1207 C   0  0  0  0  0  0  0  0  0  0  0  0
    4.8489    1.2718   19.0828 C   0  0  0  0  0  0  0  0  0  0  0  0
    5.4308    1.2896   17.8117 C   0  0  0  0  0  0  0  0  0  0  0  0
    6.5946    0.6808   17.5297 N   0  0  0  0  0  0  0  0  0  0  0  0
    7.2290    0.0524   18.5328 C   0  0  0  0  0  0  0  0  0  0  0  0
    8.1607   -0.4568   18.2840 H   0  0  0  0  0  0  0  0  0  0  0  0
    4.9428    1.7996   16.9841 H   0  0  0  0  0  0  0  0  0  0  0  0
    3.9012    1.7720   19.2547 H   0  0  0  0  0  0  0  0  0  0  0  0
    5.1213    0.5581   21.1346 H   0  0  0  0  0  0  0  0  0  0  0  0
    7.4263   -1.6470   20.8919 H   0  0  0  0  0  0  0  0  0  0  0  0
    7.2627    1.2936   24.9893 H   0  0  0  0  0  0  0  0  0  0  0  0
    7.0542    2.3975   21.4574 H   0  0  0  0  0  0  0  0  0  0  0  0
    7.8225    2.9265   22.9403 H   0  0  0  0  0  0  0  0  0  0  0  0
    9.4125    2.8994   21.0017 H   0  0  0  0  0  0  0  0  0  0  0  0
    9.0819    1.1823   20.7488 H   0  0  0  0  0  0  0  0  0  0  0  0
   10.1361    0.2519   22.9204 O   0  0  0  0  0  0  0  0  0  0  0  0
   11.2433    1.5482   21.7943 H   0  0  0  0  0  0  0  0  0  0  0  0
    9.7163    2.6446   24.2095 H   0  0  0  0  0  0  0  0  0  0  0  0
   10.7792    3.5822   23.1514 H   0  0  0  0  0  0  0  0  0  0  0  0
   12.6690    1.9689   23.7567 H   0  0  0  0  0  0  0  0  0  0  0  0
   12.0442    2.7831   25.1615 H   0  0  0  0  0  0  0  0  0  0  0  0
   12.2066    0.1977   25.4653 H   0  0  0  0  0  0  0  0  0  0  0  0
   10.6610    0.9315   25.8246 H   0  0  0  0  0  0  0  0  0  0  0  0
  1  2  2  0
  2  3  1  0
  3  4  1  0
  4  5  1  0
  5  6  1  0
  6  7  1  0
  7  8  1  0
  8  9  1  0
  9 10  1  0
 10 11  2  0
 11 12  1  0
 12 13  2  0
 13 14  1  0
 14 15  1  0
 15 16  2  0
 16 17  1  0
 17 18  2  0
 18 19  1  0
 19 20  2  0
 20 21  1  0
 18 22  1  0
 17 23  1  0
 16 24  1  0
 14 25  1  0
 10 26  1  0
  8 27  1  0
  8 28  1  0
  7 29  1  0
  7 30  1  0
  6 31  1  0
  6 32  1  0
  5 33  1  0
  5 34  1  0
  4 35  1  0
  4 36  1  0
  3 37  1  0
  3 38  1  0
 31  2  1  0
 13  9  1  0
 20 15  1  0
M  END
>  <plip>  (1) 
-0.034482758620689655

>  <filename>  (1) 
[H][c]1[n][c]([H])[c]([N]([H])[c]2[n][n][c]([H])[n]2[C]([H])([H])[C]([H])([H])[C]2([H])[O][C](=[O])[C]([H])([H])[C]([H])([H])[C]2([H])[H])[c]([H])[c]1[H]

$$$$
