
     RDKit          3D

 38 39  0  0  0  0  0  0  0  0999 V2000
    5.5398    8.8911   23.2418 C   0  0  0  0  0  0  0  0  0  0  0  0
    4.3872    7.9906   22.8365 C   0  0  0  0  0  0  0  0  0  0  0  0
    4.4633    6.7015   23.4753 O   0  0  0  0  0  0  0  0  0  0  0  0
    5.3245    5.7778   23.0243 C   0  0  0  0  0  0  0  0  0  0  0  0
    5.2900    4.5040   23.6812 C   0  0  0  0  0  0  0  0  0  0  0  0
    6.0890    3.5147   23.3025 N   0  0  0  0  0  0  0  0  0  0  0  0
    6.9719    3.7793   22.2745 C   0  0  0  0  0  0  0  0  0  0  0  0
    7.9470    2.7104   21.8033 C   0  0  0  0  0  0  0  0  0  0  0  0
    8.8354    2.9537   21.0015 O   0  0  0  0  0  0  0  0  0  0  0  0
    7.7765    1.4589   22.3383 N   0  0  0  0  0  0  0  0  0  0  0  0
    8.4321    0.2789   21.7810 C   0  0  0  0  0  0  0  0  0  0  0  0
    7.4294   -0.6380   21.0477 C   0  0  0  0  0  0  0  0  0  0  0  0
    6.6747    0.0180   19.9021 C   0  0  0  0  0  0  0  0  0  0  0  0
    5.4411    0.6541   20.1109 C   0  0  0  0  0  0  0  0  0  0  0  0
    4.8166    1.3059   19.0437 C   0  0  0  0  0  0  0  0  0  0  0  0
    5.4366    1.2807   17.7896 C   0  0  0  0  0  0  0  0  0  0  0  0
    6.5894    0.6393   17.5495 N   0  0  0  0  0  0  0  0  0  0  0  0
    7.1743    0.0242   18.5881 C   0  0  0  0  0  0  0  0  0  0  0  0
    8.0905   -0.5192   18.3576 H   0  0  0  0  0  0  0  0  0  0  0  0
    4.9875    1.7836   16.9349 H   0  0  0  0  0  0  0  0  0  0  0  0
    3.8677    1.8166   19.1709 H   0  0  0  0  0  0  0  0  0  0  0  0
    4.9811    0.6187   21.1015 H   0  0  0  0  0  0  0  0  0  0  0  0
    7.9922   -1.5082   20.6864 H   0  0  0  0  0  0  0  0  0  0  0  0
    6.7074   -1.0089   21.7883 H   0  0  0  0  0  0  0  0  0  0  0  0
    9.4228   -0.8140   22.8350 C   0  0  0  0  0  0  0  0  0  0  0  0
    8.8917   -1.1957   23.8735 O   0  0  0  0  0  0  0  0  0  0  0  0
   10.4912   -1.0429   22.2608 O   0  0  0  0  0  1  0  0  0  0  0  0
    9.2051    0.6429   21.1049 H   0  0  0  0  0  0  0  0  0  0  0  0
    6.9402    1.3694   22.9038 H   0  0  0  0  0  0  0  0  0  0  0  0
    6.9842    5.0274   21.6444 C   0  0  0  0  0  0  0  0  0  0  0  0
    6.1591    6.0334   22.0238 N   0  0  0  0  0  0  0  0  0  0  0  0
    7.6742    5.2692   20.8430 H   0  0  0  0  0  0  0  0  0  0  0  0
    4.5830    4.3531   24.4958 H   0  0  0  0  0  0  0  0  0  0  0  0
    3.4314    8.3893   23.1822 H   0  0  0  0  0  0  0  0  0  0  0  0
    4.3406    7.8682   21.7478 H   0  0  0  0  0  0  0  0  0  0  0  0
    5.3907    9.9072   22.8589 H   0  0  0  0  0  0  0  0  0  0  0  0
    6.4824    8.5099   22.8444 H   0  0  0  0  0  0  0  0  0  0  0  0
    5.6175    8.9494   24.3301 H   0  0  0  0  0  0  0  0  0  0  0  0
  1  2  1  0
  2  3  1  0
  3  4  1  0
  4  5  2  0
  5  6  1  0
  6  7  2  0
  7  8  1  0
  8  9  2  0
  8 10  1  0
 10 11  1  0
 11 12  1  0
 12 13  1  0
 13 14  2  0
 14 15  1  0
 15 16  2  0
 16 17  1  0
 17 18  2  0
 18 19  1  0
 16 20  1  0
 15 21  1  0
 14 22  1  0
 12 23  1  0
 12 24  1  0
 11 25  1  0
 25 26  2  0
 25 27  1  0
 11 28  1  0
 10 29  1  0
  7 30  1  0
 30 31  2  0
 30 32  1  0
  5 33  1  0
  2 34  1  0
  2 35  1  0
  1 36  1  0
  1 37  1  0
  1 38  1  0
 31  4  1  0
 18 13  1  0
M  CHG  1  27  -1
M  END
>  <plip>  (1) 
-0.10714285714285714

>  <filename>  (1) 
[H][c]1[n][c]([C](=[O])[N]([H])[C]([H])([C](=[O])[O-])[C]([H])([H])[c]2[c]([H])[n][c]([H])[c]([H])[c]2[H])[c]([H])[n][c]1[O][C]([H])([H])[C]([H])([H])[H]

$$$$
