
     RDKit          3D

 37 39  0  0  0  0  0  0  0  0999 V2000
    6.9766   -3.2099   24.4487 C   0  0  0  0  0  0  0  0  0  0  0  0
    7.5568   -1.8051   24.2955 C   0  0  0  0  0  0  0  0  0  0  0  0
    7.7282   -1.3846   22.9081 N   0  0  0  0  0  0  0  0  0  0  0  0
    6.7388   -0.6919   22.2892 N   0  0  0  0  0  0  0  0  0  0  0  0
    7.1833   -0.5779   21.0545 C   0  0  0  0  0  0  0  0  0  0  0  0
    6.4866    0.0817   19.9643 C   0  0  0  0  0  0  0  0  0  0  0  0
    5.2684    0.7514   20.1221 C   0  0  0  0  0  0  0  0  0  0  0  0
    4.7295    1.3718   18.9996 C   0  0  0  0  0  0  0  0  0  0  0  0
    5.4225    1.3015   17.7829 C   0  0  0  0  0  0  0  0  0  0  0  0
    6.5804    0.6425   17.6232 N   0  0  0  0  0  0  0  0  0  0  0  0
    7.0948    0.0485   18.7021 C   0  0  0  0  0  0  0  0  0  0  0  0
    8.0378   -0.4815   18.5775 H   0  0  0  0  0  0  0  0  0  0  0  0
    5.0329    1.7978   16.8981 H   0  0  0  0  0  0  0  0  0  0  0  0
    3.7994    1.9230   19.0594 H   0  0  0  0  0  0  0  0  0  0  0  0
    4.7894    0.7842   21.1044 H   0  0  0  0  0  0  0  0  0  0  0  0
    8.3871   -1.1471   20.8335 N   0  0  0  0  0  0  0  0  0  0  0  0
    8.7178   -1.6314   22.0134 C   0  0  0  0  0  0  0  0  0  0  0  0
   10.0546   -2.2675   22.1876 C   0  0  0  0  0  0  0  0  0  0  0  0
   11.1797   -1.2287   22.0215 C   0  0  1  0  0  0  0  0  0  0  0  0
   11.2639   -0.2561   23.1978 C   0  0  0  0  0  0  0  0  0  0  0  0
   12.7372    0.1545   23.2166 C   0  0  0  0  0  0  0  0  0  0  0  0
   13.4683   -0.8198   22.4832 O   0  0  0  0  0  0  0  0  0  0  0  0
   12.6034   -1.7963   21.9281 C   0  0  0  0  0  0  0  0  0  0  0  0
   12.7001   -2.7471   22.4764 H   0  0  0  0  0  0  0  0  0  0  0  0
   12.9140   -1.9876   20.8909 H   0  0  0  0  0  0  0  0  0  0  0  0
   13.1247    0.2080   24.2393 H   0  0  0  0  0  0  0  0  0  0  0  0
   12.8874    1.1388   22.7565 H   0  0  0  0  0  0  0  0  0  0  0  0
   10.5974    0.6078   23.0880 H   0  0  0  0  0  0  0  0  0  0  0  0
   10.9818   -0.7642   24.1290 H   0  0  0  0  0  0  0  0  0  0  0  0
   10.9833   -0.6513   21.1066 H   0  0  0  0  0  0  0  0  0  0  0  0
   10.1302   -2.8080   23.1376 H   0  0  0  0  0  0  0  0  0  0  0  0
   10.1134   -2.9855   21.3731 H   0  0  0  0  0  0  0  0  0  0  0  0
    8.5257   -1.7400   24.8022 H   0  0  0  0  0  0  0  0  0  0  0  0
    6.8987   -1.0654   24.7627 H   0  0  0  0  0  0  0  0  0  0  0  0
    5.9807   -3.2779   24.0011 H   0  0  0  0  0  0  0  0  0  0  0  0
    6.8878   -3.4476   25.5130 H   0  0  0  0  0  0  0  0  0  0  0  0
    7.6238   -3.9587   23.9791 H   0  0  0  0  0  0  0  0  0  0  0  0
  1  2  1  0
  2  3  1  0
  3  4  1  0
  4  5  2  0
  5  6  1  0
  6  7  2  0
  7  8  1  0
  8  9  2  0
  9 10  1  0
 10 11  2  0
 11 12  1  0
  9 13  1  0
  8 14  1  0
  7 15  1  0
  5 16  1  0
 16 17  2  0
 17 18  1  0
 18 19  1  0
 19 20  1  0
 20 21  1  0
 21 22  1  0
 22 23  1  0
 23 24  1  0
 23 25  1  0
 21 26  1  0
 21 27  1  0
 20 28  1  0
 20 29  1  0
 19 30  1  6
 18 31  1  0
 18 32  1  0
  2 33  1  0
  2 34  1  0
  1 35  1  0
  1 36  1  0
  1 37  1  0
 17  3  1  0
 23 19  1  0
 11  6  1  0
M  END
>  <plip>  (1) 
-0.0

>  <filename>  (1) 
[H][c]1[n][c]([H])[c](-[c]2[n][c]([C]([H])([H])[C@]3([H])[C]([H])([H])[O][C]([H])([H])[C]3([H])[H])[n]([C]([H])([H])[C]([H])([H])[H])[n]2)[c]([H])[c]1[H]

$$$$
