
     RDKit          3D

 34 36  0  0  0  0  0  0  0  0999 V2000
    8.8964   -1.5131   23.7431 C   0  0  0  0  0  0  0  0  0  0  0  0
    7.4377   -1.1678   23.4131 C   0  0  0  0  0  0  0  0  0  0  0  0
    6.6934   -0.6630   24.6403 C   0  0  0  0  0  0  0  0  0  0  0  0
    6.4162   -1.5331   25.7043 C   0  0  0  0  0  0  0  0  0  0  0  0
    5.8078   -1.0266   26.8503 C   0  0  0  0  0  0  0  0  0  0  0  0
    5.5119    0.3403   26.8884 C   0  0  0  0  0  0  0  0  0  0  0  0
    5.7639    1.1868   25.8853 N   0  0  0  0  0  0  0  0  0  0  0  0
    6.3394    0.6887   24.7741 C   0  0  0  0  0  0  0  0  0  0  0  0
    6.5556    1.6602   23.6438 C   0  0  0  0  0  0  0  0  0  0  0  0
    7.5698    1.1800   22.6092 C   0  0  0  0  0  0  0  0  0  0  0  0
    7.3258   -0.2260   22.2849 N   0  0  0  0  0  0  0  0  0  0  0  0
    7.3943   -0.7330   20.9912 C   0  0  0  0  0  0  0  0  0  0  0  0
    7.9773   -1.7707   20.7195 O   0  0  0  0  0  0  0  0  0  0  0  0
    6.6700    0.0506   19.9409 C   0  0  0  0  0  0  0  0  0  0  0  0
    5.4376    0.6801   20.1763 C   0  0  0  0  0  0  0  0  0  0  0  0
    4.8022    1.3127   19.1103 C   0  0  0  0  0  0  0  0  0  0  0  0
    5.4098    1.2865   17.8504 C   0  0  0  0  0  0  0  0  0  0  0  0
    6.5741    0.6635   17.6120 N   0  0  0  0  0  0  0  0  0  0  0  0
    7.1806    0.0565   18.6377 C   0  0  0  0  0  0  0  0  0  0  0  0
    8.1145   -0.4419   18.3942 H   0  0  0  0  0  0  0  0  0  0  0  0
    4.9348    1.7731   17.0001 H   0  0  0  0  0  0  0  0  0  0  0  0
    3.8679    1.8433   19.2525 H   0  0  0  0  0  0  0  0  0  0  0  0
    4.9826    0.6476   21.1708 H   0  0  0  0  0  0  0  0  0  0  0  0
    7.5102    1.7879   21.6990 H   0  0  0  0  0  0  0  0  0  0  0  0
    8.5936    1.3187   22.9999 H   0  0  0  0  0  0  0  0  0  0  0  0
    6.8500    2.6292   24.0490 H   0  0  0  0  0  0  0  0  0  0  0  0
    5.5896    1.8245   23.1618 H   0  0  0  0  0  0  0  0  0  0  0  0
    5.0312    0.7676   27.7676 H   0  0  0  0  0  0  0  0  0  0  0  0
    5.5724   -1.6632   27.6953 H   0  0  0  0  0  0  0  0  0  0  0  0
    6.6769   -2.5923   25.6404 H   0  0  0  0  0  0  0  0  0  0  0  0
    6.9419   -2.0935   23.1003 H   0  0  0  0  0  0  0  0  0  0  0  0
    9.4234   -1.8619   22.8509 H   0  0  0  0  0  0  0  0  0  0  0  0
    8.9327   -2.3015   24.5030 H   0  0  0  0  0  0  0  0  0  0  0  0
    9.4094   -0.6380   24.1572 H   0  0  0  0  0  0  0  0  0  0  0  0
  1  2  1  0
  2  3  1  0
  3  4  2  0
  4  5  1  0
  5  6  2  0
  6  7  1  0
  7  8  2  0
  8  9  1  0
  9 10  1  0
 10 11  1  0
 11 12  1  0
 12 13  2  0
 12 14  1  0
 14 15  2  0
 15 16  1  0
 16 17  2  0
 17 18  1  0
 18 19  2  0
 19 20  1  0
 17 21  1  0
 16 22  1  0
 15 23  1  0
 10 24  1  0
 10 25  1  0
  9 26  1  0
  9 27  1  0
  6 28  1  0
  5 29  1  0
  4 30  1  0
  2 31  1  0
  1 32  1  0
  1 33  1  0
  1 34  1  0
 11  2  1  0
 19 14  1  0
  8  3  1  0
M  END
>  <plip>  (1) 
-0.03571428571428571

>  <filename>  (1) 
[H][c]1[n][c]([H])[c]([C](=[O])[N]2[C]([H])([H])[C]([H])([H])[c]3[n][c]([H])[c]([H])[c]([H])[c]3[C]2([H])[C]([H])([H])[H])[c]([H])[c]1[H]

$$$$
