
     RDKit          3D

 31 33  0  0  0  0  0  0  0  0999 V2000
    7.0093   -2.0085   21.1831 C   0  0  0  0  0  0  0  0  0  0  0  0
    7.0904   -0.4979   21.2563 C   0  0  0  0  0  0  0  0  0  0  0  0
    8.5125   -0.1748   21.1632 N   0  0  0  0  0  0  0  0  0  0  0  0
    9.0132    1.0001   21.6440 C   0  0  0  0  0  0  0  0  0  0  0  0
    8.1001    1.9397   21.8804 N   0  0  0  0  0  0  0  0  0  0  0  0
    8.5542    3.1203   22.3140 C   0  0  0  0  0  0  0  0  0  0  0  0
    9.8930    3.3998   22.5124 C   0  0  0  0  0  0  0  0  0  0  0  0
   10.8589    2.4156   22.2936 C   0  0  0  0  0  0  0  0  0  0  0  0
   10.3964    1.1700   21.8498 C   0  0  0  0  0  0  0  0  0  0  0  0
   11.6314   -0.2658   21.5547 Br  0  0  0  0  0  0  0  0  0  0  0  0
   11.9199    2.6182   22.4496 H   0  0  0  0  0  0  0  0  0  0  0  0
    9.9350    4.7422   22.8815 N   0  0  0  0  0  0  0  0  0  0  0  0
    8.6941    5.3129   22.9891 N   0  0  0  0  0  0  0  0  0  0  0  0
    7.8545    4.3502   22.6536 C   0  0  0  0  0  0  0  0  0  0  0  0
    6.7716    4.4298   22.6408 H   0  0  0  0  0  0  0  0  0  0  0  0
   10.8022    5.2735   22.9830 H   0  0  0  0  0  0  0  0  0  0  0  0
    9.1766   -0.8904   20.9085 H   0  0  0  0  0  0  0  0  0  0  0  0
    6.4437    0.1566   20.0778 C   0  0  0  0  0  0  0  0  0  0  0  0
    5.2210    0.8279   20.1623 C   0  0  0  0  0  0  0  0  0  0  0  0
    4.7238    1.3974   18.9916 C   0  0  0  0  0  0  0  0  0  0  0  0
    5.4514    1.3061   17.7999 C   0  0  0  0  0  0  0  0  0  0  0  0
    6.6351    0.6740   17.7277 N   0  0  0  0  0  0  0  0  0  0  0  0
    7.1147    0.1173   18.8507 C   0  0  0  0  0  0  0  0  0  0  0  0
    8.0719   -0.3935   18.8083 H   0  0  0  0  0  0  0  0  0  0  0  0
    5.0420    1.7481   16.8965 H   0  0  0  0  0  0  0  0  0  0  0  0
    3.7799    1.9264   18.9910 H   0  0  0  0  0  0  0  0  0  0  0  0
    4.6823    0.9172   21.1050 H   0  0  0  0  0  0  0  0  0  0  0  0
    6.6471   -0.1503   22.1998 H   0  0  0  0  0  0  0  0  0  0  0  0
    7.6564   -2.4579   21.9433 H   0  0  0  0  0  0  0  0  0  0  0  0
    5.9871   -2.3651   21.3333 H   0  0  0  0  0  0  0  0  0  0  0  0
    7.3522   -2.3236   20.2004 H   0  0  0  0  0  0  0  0  0  0  0  0
  1  2  1  0
  2  3  1  0
  3  4  1  0
  4  5  2  0
  5  6  1  0
  6  7  2  0
  7  8  1  0
  8  9  2  0
  9 10  1  0
  8 11  1  0
  7 12  1  0
 12 13  1  0
 13 14  2  0
 14 15  1  0
 12 16  1  0
  3 17  1  0
  2 18  1  0
 18 19  2  0
 19 20  1  0
 20 21  2  0
 21 22  1  0
 22 23  2  0
 23 24  1  0
 21 25  1  0
 20 26  1  0
 19 27  1  0
  2 28  1  0
  1 29  1  0
  1 30  1  0
  1 31  1  0
  9  4  1  0
 23 18  1  0
 14  6  1  0
M  END
>  <plip>  (1) 
-0.06896551724137931

>  <filename>  (1) 
[H][c]1[n][c]([H])[c]([C]([H])([N]([H])[c]2[n][c]3[c]([H])[n][n]([H])[c]3[c]([H])[c]2[Br])[C]([H])([H])[H])[c]([H])[c]1[H]

$$$$
