
     RDKit          3D

 32 33  0  0  0  0  0  0  0  0999 V2000
    4.7935    1.9222   16.4264 H   0  0  0  0  0  0  0  0  0  0  0  0
    5.2404    1.4932   17.3152 C   0  0  0  0  0  0  0  0  0  0  0  0
    6.4191    0.8835   17.1137 N   0  0  0  0  0  0  0  0  0  0  0  0
    7.0446    0.3870   18.1834 C   0  0  0  0  0  0  0  0  0  0  0  0
    8.0004   -0.1069   18.0011 H   0  0  0  0  0  0  0  0  0  0  0  0
    6.5316    0.4718   19.4964 C   0  0  0  0  0  0  0  0  0  0  0  0
    7.2574   -0.0784   20.5883 C   0  0  0  0  0  0  0  0  0  0  0  0
    7.8856   -0.6061   21.4839 C   0  0  0  0  0  0  0  0  0  0  0  0
    8.3913   -1.4704   22.3469 N   0  0  0  0  0  0  0  0  0  0  0  0
    8.9385   -1.1737   23.1516 H   0  0  0  0  0  0  0  0  0  0  0  0
    7.9767   -2.8816   22.3531 C   0  0  0  0  0  0  0  0  0  0  0  0
    6.8799   -2.9726   22.3437 H   0  0  0  0  0  0  0  0  0  0  0  0
    8.3392   -3.3683   21.4330 H   0  0  0  0  0  0  0  0  0  0  0  0
    8.5911   -3.5477   23.5536 C   0  0  0  0  0  0  0  0  0  0  0  0
    7.8427   -3.9626   24.6632 C   0  0  0  0  0  0  0  0  0  0  0  0
    6.7736   -3.7537   24.7090 H   0  0  0  0  0  0  0  0  0  0  0  0
    8.4722   -4.6312   25.7185 C   0  0  0  0  0  0  0  0  0  0  0  0
    7.9073   -4.9772   26.5798 H   0  0  0  0  0  0  0  0  0  0  0  0
    9.8477   -4.8829   25.6606 C   0  0  0  0  0  0  0  0  0  0  0  0
   10.5329   -5.5299   26.6442 O   0  0  0  0  0  0  0  0  0  0  0  0
   10.2317   -5.1694   27.9764 C   0  0  0  0  0  0  0  0  0  0  0  0
   11.1725   -5.2458   28.5184 H   0  0  0  0  0  0  0  0  0  0  0  0
    9.8509   -4.1489   28.0397 H   0  0  0  0  0  0  0  0  0  0  0  0
    9.4743   -5.8325   28.4108 H   0  0  0  0  0  0  0  0  0  0  0  0
   10.6046   -4.4539   24.5659 C   0  0  0  0  0  0  0  0  0  0  0  0
   11.6650   -4.6839   24.5533 H   0  0  0  0  0  0  0  0  0  0  0  0
    9.9797   -3.7414   23.5508 C   0  0  0  0  0  0  0  0  0  0  0  0
   10.5581   -3.3307   22.7230 H   0  0  0  0  0  0  0  0  0  0  0  0
    5.2796    1.0847   19.6822 C   0  0  0  0  0  0  0  0  0  0  0  0
    4.8496    1.1480   20.6814 H   0  0  0  0  0  0  0  0  0  0  0  0
    4.6232    1.5987   18.5653 C   0  0  0  0  0  0  0  0  0  0  0  0
    3.6578    2.0795   18.6515 H   0  0  0  0  0  0  0  0  0  0  0  0
  1  2  1  0
  2  3  2  0
  3  4  1  0
  4  5  1  0
  4  6  2  0
  6  7  1  0
  7  8  3  0
  8  9  1  0
  9 10  1  0
  9 11  1  0
 11 12  1  0
 11 13  1  0
 11 14  1  0
 14 15  2  0
 15 16  1  0
 15 17  1  0
 17 18  1  0
 17 19  2  0
 19 20  1  0
 20 21  1  0
 21 22  1  0
 21 23  1  0
 21 24  1  0
 19 25  1  0
 25 26  1  0
 25 27  2  0
 27 28  1  0
  6 29  1  0
 29 30  1  0
 29 31  2  0
 31 32  1  0
 31  2  1  0
 27 14  1  0
M  END
>  <plip>  (1) 
-0.10344827586206896

>  <filename>  (1) 
[H][c]1[n][c]([H])[c]([C]#[C][N]([H])[C]([H])([H])[c]2[c]([H])[c]([H])[c]([O][C]([H])([H])[H])[c]([H])[c]2[H])[c]([H])[c]1[H]

$$$$
