
     RDKit          3D

 30 31  0  0  0  0  0  0  0  0999 V2000
   10.6265    2.0839   25.2237 H   0  0  0  0  0  0  0  0  0  0  0  0
   11.4810    1.6486   25.3324 O   0  0  0  0  0  0  0  0  0  0  0  0
   11.7741    0.8790   24.1767 C   0  0  0  0  0  0  0  0  0  0  0  0
   12.8197    0.5581   24.2838 H   0  0  0  0  0  0  0  0  0  0  0  0
   11.7006    1.4726   23.2524 H   0  0  0  0  0  0  0  0  0  0  0  0
   10.8814   -0.3561   24.0555 C   0  0  0  0  0  0  0  0  0  0  0  0
   10.9518   -0.9374   24.9944 H   0  0  0  0  0  0  0  0  0  0  0  0
    9.8343   -0.0300   23.9844 H   0  0  0  0  0  0  0  0  0  0  0  0
   11.2094   -1.1301   22.8468 N   0  0  0  0  0  0  0  0  0  0  0  0
   12.1491   -1.5181   22.8943 H   0  0  0  0  0  0  0  0  0  0  0  0
   10.2435   -2.2014   22.5951 C   0  0  0  0  0  0  0  0  0  0  0  0
   10.6167   -2.8591   21.8042 H   0  0  0  0  0  0  0  0  0  0  0  0
   10.0003   -2.7867   23.4967 H   0  0  0  0  0  0  0  0  0  0  0  0
    8.9593   -1.7071   22.1238 N   0  0  0  0  0  0  0  0  0  0  0  0
    7.8571   -1.7939   22.8857 N   0  0  0  0  0  0  0  0  0  0  0  0
    6.9177   -1.1808   22.1958 C   0  0  0  0  0  0  0  0  0  0  0  0
    5.9328   -1.1187   22.6209 H   0  0  0  0  0  0  0  0  0  0  0  0
    7.3993   -0.6976   20.9504 C   0  0  0  0  0  0  0  0  0  0  0  0
    6.6660    0.0145   19.8924 C   0  0  0  0  0  0  0  0  0  0  0  0
    7.1631    0.0709   18.5747 C   0  0  0  0  0  0  0  0  0  0  0  0
    8.1049   -0.4174   18.3306 H   0  0  0  0  0  0  0  0  0  0  0  0
    6.5523    0.6849   17.5548 N   0  0  0  0  0  0  0  0  0  0  0  0
    5.3884    1.3025   17.8172 C   0  0  0  0  0  0  0  0  0  0  0  0
    4.9183    1.8057   16.9727 H   0  0  0  0  0  0  0  0  0  0  0  0
    4.8006    1.3138   19.0870 C   0  0  0  0  0  0  0  0  0  0  0  0
    3.8695    1.8439   19.2371 H   0  0  0  0  0  0  0  0  0  0  0  0
    5.4421    0.6584   20.1373 C   0  0  0  0  0  0  0  0  0  0  0  0
    5.0137    0.6525   21.1406 H   0  0  0  0  0  0  0  0  0  0  0  0
    8.7272   -1.0705   20.9551 C   0  0  0  0  0  0  0  0  0  0  0  0
    9.5561   -0.8967   20.2791 H   0  0  0  0  0  0  0  0  0  0  0  0
  1  2  1  0
  2  3  1  0
  3  4  1  0
  3  5  1  0
  3  6  1  0
  6  7  1  0
  6  8  1  0
  6  9  1  0
  9 10  1  0
  9 11  1  0
 11 12  1  0
 11 13  1  0
 11 14  1  0
 14 15  1  0
 15 16  2  0
 16 17  1  0
 16 18  1  0
 18 19  1  0
 19 20  2  0
 20 21  1  0
 20 22  1  0
 22 23  2  0
 23 24  1  0
 23 25  1  0
 25 26  1  0
 25 27  2  0
 27 28  1  0
 18 29  2  0
 29 30  1  0
 29 14  1  0
 27 19  1  0
M  END
>  <plip>  (1) 
-0.034482758620689655

>  <filename>  (1) 
[H][O][C]([H])([H])[C]([H])([H])[N]([H])[C]([H])([H])[n]1[n][c]([H])[c](-[c]2[c]([H])[n][c]([H])[c]([H])[c]2[H])[c]1[H]

$$$$
