
     RDKit          3D

 37 40  0  0  0  0  0  0  0  0999 V2000
   10.1494   -2.2987   21.5263 H   0  0  0  0  0  0  0  0  0  0  0  0
    9.1560   -1.8741   21.7057 C   0  0  0  0  0  0  0  0  0  0  0  0
    8.5810   -1.2409   20.6911 N   0  0  0  0  0  0  0  0  0  0  0  0
    7.3771   -0.7358   20.9708 C   0  0  0  0  0  0  0  0  0  0  0  0
    6.6563   -0.0118   19.9194 C   0  0  0  0  0  0  0  0  0  0  0  0
    7.2007    0.0158   18.6303 C   0  0  0  0  0  0  0  0  0  0  0  0
    8.1395   -0.4911   18.4155 H   0  0  0  0  0  0  0  0  0  0  0  0
    6.6242    0.6387   17.5993 N   0  0  0  0  0  0  0  0  0  0  0  0
    5.4657    1.2728   17.8281 C   0  0  0  0  0  0  0  0  0  0  0  0
    5.0164    1.7748   16.9740 H   0  0  0  0  0  0  0  0  0  0  0  0
    4.8336    1.3023   19.0773 C   0  0  0  0  0  0  0  0  0  0  0  0
    3.8975    1.8402   19.1947 H   0  0  0  0  0  0  0  0  0  0  0  0
    5.4366    0.6497   20.1483 C   0  0  0  0  0  0  0  0  0  0  0  0
    4.9825    0.6432   21.1432 H   0  0  0  0  0  0  0  0  0  0  0  0
    6.7627   -0.8419   22.1437 N   0  0  0  0  0  0  0  0  0  0  0  0
    7.4240   -1.5095   23.0753 C   0  0  0  0  0  0  0  0  0  0  0  0
    6.7531   -1.5822   24.4229 C   0  0  0  0  0  0  0  0  0  0  0  0
    5.6932   -1.8008   24.2640 H   0  0  0  0  0  0  0  0  0  0  0  0
    7.1916   -2.4091   24.9886 H   0  0  0  0  0  0  0  0  0  0  0  0
    6.9719   -0.2427   25.1182 C   0  0  0  0  0  0  0  0  0  0  0  0
    8.2415   -0.0366   25.7329 C   0  0  0  0  0  0  0  0  0  0  0  0
    8.9099   -0.8893   25.8331 H   0  0  0  0  0  0  0  0  0  0  0  0
    8.6191    1.1938   26.2003 C   0  0  0  0  0  0  0  0  0  0  0  0
    9.6080    1.3344   26.6262 H   0  0  0  0  0  0  0  0  0  0  0  0
    7.7164    2.2985   26.1262 C   0  0  0  0  0  0  0  0  0  0  0  0
    8.0468    3.5738   26.6645 C   0  0  0  0  0  0  0  0  0  0  0  0
    9.0430    3.7063   27.0619 H   0  0  0  0  0  0  0  0  0  0  0  0
    7.1298    4.5958   26.6862 C   0  0  0  0  0  0  0  0  0  0  0  0
    7.3922    5.5423   27.1530 H   0  0  0  0  0  0  0  0  0  0  0  0
    5.8326    4.3993   26.1346 C   0  0  0  0  0  0  0  0  0  0  0  0
    5.0950    5.1950   26.2123 H   0  0  0  0  0  0  0  0  0  0  0  0
    5.5000    3.1952   25.5563 C   0  0  0  0  0  0  0  0  0  0  0  0
    4.5171    3.0334   25.1242 H   0  0  0  0  0  0  0  0  0  0  0  0
    6.4274    2.1074   25.5365 C   0  0  0  0  0  0  0  0  0  0  0  0
    6.0957    0.8180   25.0125 C   0  0  0  0  0  0  0  0  0  0  0  0
    5.1261    0.6908   24.5323 H   0  0  0  0  0  0  0  0  0  0  0  0
    8.6338   -2.0519   22.9173 N   0  0  0  0  0  0  0  0  0  0  0  0
  1  2  1  0
  2  3  2  0
  3  4  1  0
  4  5  1  0
  5  6  2  0
  6  7  1  0
  6  8  1  0
  8  9  2  0
  9 10  1  0
  9 11  1  0
 11 12  1  0
 11 13  2  0
 13 14  1  0
  4 15  2  0
 15 16  1  0
 16 17  1  0
 17 18  1  0
 17 19  1  0
 17 20  1  0
 20 21  2  0
 21 22  1  0
 21 23  1  0
 23 24  1  0
 23 25  2  0
 25 26  1  0
 26 27  1  0
 26 28  2  0
 28 29  1  0
 28 30  1  0
 30 31  1  0
 30 32  2  0
 32 33  1  0
 32 34  1  0
 34 35  2  0
 35 36  1  0
 16 37  2  0
 37  2  1  0
 13  5  1  0
 35 20  1  0
 34 25  1  0
M  END
>  <plip>  (1) 
-0.03571428571428571

>  <filename>  (1) 
[H][c]1[n][c](-[c]2[c]([H])[n][c]([H])[c]([H])[c]2[H])[n][c]([C]([H])([H])[c]2[c]([H])[c]([H])[c]3[c]([H])[c]([H])[c]([H])[c]([H])[c]3[c]2[H])[n]1

$$$$
