
     RDKit          3D

 23 24  0  0  0  0  0  0  0  0999 V2000
    5.6679   -1.5702   21.7601 H   0  0  0  0  0  0  0  0  0  0  0  0
    6.7473   -1.4898   21.8462 C   0  0  0  0  0  0  0  0  0  0  0  0
    7.4070   -0.6823   20.9502 C   0  0  0  0  0  0  0  0  0  0  0  0
    9.2942   -0.3822   21.0912 Br  0  0  0  0  0  0  0  0  0  0  0  0
    6.6630    0.0112   19.8965 C   0  0  0  0  0  0  0  0  0  0  0  0
    7.1885    0.0697   18.5919 C   0  0  0  0  0  0  0  0  0  0  0  0
    8.1328   -0.4315   18.3993 H   0  0  0  0  0  0  0  0  0  0  0  0
    6.5681    0.6818   17.5674 N   0  0  0  0  0  0  0  0  0  0  0  0
    5.4012    1.2939   17.8264 C   0  0  0  0  0  0  0  0  0  0  0  0
    4.8868    1.7974   17.0124 H   0  0  0  0  0  0  0  0  0  0  0  0
    4.8155    1.2996   19.1021 C   0  0  0  0  0  0  0  0  0  0  0  0
    3.8826    1.8321   19.2598 H   0  0  0  0  0  0  0  0  0  0  0  0
    5.4409    0.6350   20.1582 C   0  0  0  0  0  0  0  0  0  0  0  0
    5.0106    0.6299   21.1619 H   0  0  0  0  0  0  0  0  0  0  0  0
    7.3760   -2.2142   22.8624 N   0  0  0  0  0  0  0  0  0  0  0  0
    6.8724   -2.3387   24.1547 C   0  0  0  0  0  0  0  0  0  0  0  0
    5.9819   -1.8386   24.5304 H   0  0  0  0  0  0  0  0  0  0  0  0
    7.7006   -3.1828   24.8501 C   0  0  0  0  0  0  0  0  0  0  0  0
    7.5865   -3.4913   25.8906 H   0  0  0  0  0  0  0  0  0  0  0  0
    8.7486   -3.6135   23.9417 C   0  0  0  0  0  0  0  0  0  0  0  0
    9.5482   -4.3176   24.1805 H   0  0  0  0  0  0  0  0  0  0  0  0
    8.5206   -3.0026   22.7337 C   0  0  0  0  0  0  0  0  0  0  0  0
    9.1011   -3.1411   21.8210 H   0  0  0  0  0  0  0  0  0  0  0  0
  1  2  1  0
  2  3  2  3
  3  4  1  0
  3  5  1  0
  5  6  2  0
  6  7  1  0
  6  8  1  0
  8  9  2  0
  9 10  1  0
  9 11  1  0
 11 12  1  0
 11 13  2  0
 13 14  1  0
  2 15  1  0
 15 16  1  0
 16 17  1  0
 16 18  2  0
 18 19  1  0
 18 20  1  0
 20 21  1  0
 20 22  2  0
 22 23  1  0
 13  5  1  0
 22 15  1  0
M  END
>  <plip>  (1) 
-0.03571428571428571

>  <filename>  (1) 
[H][C](=[C]([Br])[c]1[c]([H])[n][c]([H])[c]([H])[c]1[H])[n]1[c]([H])[c]([H])[c]([H])[c]1[H]

$$$$
