
     RDKit          3D

 32 34  0  0  0  0  0  0  0  0999 V2000
    8.8364    0.2773   21.2134 H   0  0  0  0  0  0  0  0  0  0  0  0
    8.6378   -0.6701   21.0998 O   0  0  0  0  0  0  0  0  0  0  0  0
    7.2252   -0.7298   21.1206 N   0  0  0  0  0  0  0  0  0  0  0  0
    6.5810   -1.7865   21.8671 C   0  0  0  0  0  0  0  0  0  0  0  0
    5.4989   -2.2320   21.5459 O   0  0  0  0  0  0  0  0  0  0  0  0
    7.2999   -2.1840   22.9754 N   0  0  0  0  0  0  0  0  0  0  0  0
    8.1915   -1.7288   23.0700 H   0  0  0  0  0  0  0  0  0  0  0  0
    6.7757   -2.8174   24.1286 C   0  0  0  0  0  0  0  0  0  0  0  0
    5.4622   -2.9426   24.4879 C   0  0  0  0  0  0  0  0  0  0  0  0
    4.5998   -2.7348   23.8766 H   0  0  0  0  0  0  0  0  0  0  0  0
    5.3798   -3.5415   25.7334 N   0  0  0  0  0  0  0  0  0  0  0  0
    4.5585   -3.6179   26.3131 H   0  0  0  0  0  0  0  0  0  0  0  0
    6.6423   -3.8794   26.1600 C   0  0  0  0  0  0  0  0  0  0  0  0
    7.0249   -4.6226   27.2948 C   0  0  0  0  0  0  0  0  0  0  0  0
    6.2787   -4.9407   28.0197 H   0  0  0  0  0  0  0  0  0  0  0  0
    8.3674   -4.9776   27.4106 C   0  0  0  0  0  0  0  0  0  0  0  0
    8.6877   -5.6118   28.2410 H   0  0  0  0  0  0  0  0  0  0  0  0
    9.3105   -4.5621   26.4376 C   0  0  0  0  0  0  0  0  0  0  0  0
   10.3479   -4.8739   26.5366 H   0  0  0  0  0  0  0  0  0  0  0  0
    8.9245   -3.7936   25.3344 C   0  0  0  0  0  0  0  0  0  0  0  0
    9.6549   -3.4888   24.5864 H   0  0  0  0  0  0  0  0  0  0  0  0
    7.5666   -3.4487   25.1707 C   0  0  0  0  0  0  0  0  0  0  0  0
    6.6275   -0.0581   20.0136 C   0  0  0  0  0  0  0  0  0  0  0  0
    7.2614    0.0188   18.7543 C   0  0  0  0  0  0  0  0  0  0  0  0
    8.2253   -0.4598   18.6033 H   0  0  0  0  0  0  0  0  0  0  0  0
    6.7273    0.6415   17.6983 N   0  0  0  0  0  0  0  0  0  0  0  0
    5.5427    1.2517   17.8715 C   0  0  0  0  0  0  0  0  0  0  0  0
    5.1259    1.7417   16.9952 H   0  0  0  0  0  0  0  0  0  0  0  0
    4.8528    1.2690   19.0890 C   0  0  0  0  0  0  0  0  0  0  0  0
    3.9109    1.8035   19.1672 H   0  0  0  0  0  0  0  0  0  0  0  0
    5.4020    0.6040   20.1881 C   0  0  0  0  0  0  0  0  0  0  0  0
    4.9102    0.5970   21.1599 H   0  0  0  0  0  0  0  0  0  0  0  0
  1  2  1  0
  2  3  1  0
  3  4  1  0
  4  5  2  0
  4  6  1  0
  6  7  1  0
  6  8  1  0
  8  9  2  0
  9 10  1  0
  9 11  1  0
 11 12  1  0
 11 13  1  0
 13 14  2  0
 14 15  1  0
 14 16  1  0
 16 17  1  0
 16 18  2  0
 18 19  1  0
 18 20  1  0
 20 21  1  0
 20 22  2  0
  3 23  1  0
 23 24  2  0
 24 25  1  0
 24 26  1  0
 26 27  2  0
 27 28  1  0
 27 29  1  0
 29 30  1  0
 29 31  2  0
 31 32  1  0
 22  8  1  0
 31 23  1  0
 22 13  1  0
M  END
>  <plip>  (1) 
-0.07142857142857142

>  <filename>  (1) 
[H][O][N]([C](=[O])[N]([H])[c]1[c]([H])[n]([H])[c]2[c]([H])[c]([H])[c]([H])[c]([H])[c]12)[c]1[c]([H])[n][c]([H])[c]([H])[c]1[H]

$$$$
