
     RDKit          3D

 32 34  0  0  0  0  0  0  0  0999 V2000
    4.9638    1.7942   16.9548 H   0  0  0  0  0  0  0  0  0  0  0  0
    5.4123    1.3218   17.8258 C   0  0  0  0  0  0  0  0  0  0  0  0
    6.5858    0.7034   17.6316 N   0  0  0  0  0  0  0  0  0  0  0  0
    7.1521    0.1098   18.6918 C   0  0  0  0  0  0  0  0  0  0  0  0
    8.1087   -0.3738   18.4995 H   0  0  0  0  0  0  0  0  0  0  0  0
    6.5880    0.0905   19.9797 C   0  0  0  0  0  0  0  0  0  0  0  0
    7.2503   -0.7179   21.0979 C   0  0  0  0  0  0  0  0  0  0  0  0
    6.5099   -2.0888   21.3513 C   0  0  1  0  0  0  0  0  0  0  0  0
    5.5343   -1.7748   21.7521 H   0  0  0  0  0  0  0  0  0  0  0  0
    6.2740   -2.9610   20.1674 N   0  0  0  0  0  0  0  0  0  0  0  0
    7.0591   -2.8101   19.5320 H   0  0  0  0  0  0  0  0  0  0  0  0
    6.3249   -4.3739   20.5720 C   0  0  0  0  0  0  0  0  0  0  0  0
    6.9280   -4.9199   19.8415 H   0  0  0  0  0  0  0  0  0  0  0  0
    5.3360   -4.8473   20.5413 H   0  0  0  0  0  0  0  0  0  0  0  0
    6.9348   -4.4498   21.9855 C   0  0  0  0  0  0  0  0  0  0  0  0
    6.2378   -4.9368   22.6790 H   0  0  0  0  0  0  0  0  0  0  0  0
    7.8570   -5.0423   21.9856 H   0  0  0  0  0  0  0  0  0  0  0  0
    7.2388   -2.9916   22.3860 C   0  0  0  0  0  0  0  0  0  0  0  0
    6.9257   -2.7730   23.4115 H   0  0  0  0  0  0  0  0  0  0  0  0
    8.3186   -2.8223   22.3224 H   0  0  0  0  0  0  0  0  0  0  0  0
    7.2341   -0.0238   22.3362 O   0  0  0  0  0  0  0  0  0  0  0  0
    8.4250    0.7403   22.4372 C   0  0  0  0  0  0  0  0  0  0  0  0
    8.2895    1.7562   22.0379 H   0  0  0  0  0  0  0  0  0  0  0  0
    8.7021    0.8107   23.4935 H   0  0  0  0  0  0  0  0  0  0  0  0
    9.4321   -0.0672   21.6200 C   0  0  0  0  0  0  0  0  0  0  0  0
   10.0760   -0.7002   22.2446 H   0  0  0  0  0  0  0  0  0  0  0  0
   10.0573    0.5862   21.0048 H   0  0  0  0  0  0  0  0  0  0  0  0
    8.6315   -0.8941   20.7825 O   0  0  0  0  0  0  0  0  0  0  0  0
    5.3665    0.7570   20.1654 C   0  0  0  0  0  0  0  0  0  0  0  0
    4.9021    0.8149   21.1527 H   0  0  0  0  0  0  0  0  0  0  0  0
    4.7691    1.3750   19.0679 C   0  0  0  0  0  0  0  0  0  0  0  0
    3.8187    1.8876   19.1529 H   0  0  0  0  0  0  0  0  0  0  0  0
  1  2  1  0
  2  3  2  0
  3  4  1  0
  4  5  1  0
  4  6  2  0
  6  7  1  0
  7  8  1  0
  8  9  1  1
  8 10  1  0
 10 11  1  0
 10 12  1  0
 12 13  1  0
 12 14  1  0
 12 15  1  0
 15 16  1  0
 15 17  1  0
 15 18  1  0
 18 19  1  0
 18 20  1  0
  7 21  1  0
 21 22  1  0
 22 23  1  0
 22 24  1  0
 22 25  1  0
 25 26  1  0
 25 27  1  0
 25 28  1  0
  6 29  1  0
 29 30  1  0
 29 31  2  0
 31 32  1  0
 31  2  1  0
 28  7  1  0
 18  8  1  0
M  END
>  <plip>  (1) 
-0.10714285714285714

>  <filename>  (1) 
[H][c]1[n][c]([H])[c]([C]2([C@@]3([H])[N]([H])[C]([H])([H])[C]([H])([H])[C]3([H])[H])[O][C]([H])([H])[C]([H])([H])[O]2)[c]([H])[c]1[H]

$$$$
