
     RDKit          3D

 47 49  0  0  0  0  0  0  0  0999 V2000
    6.2655   -4.0709   25.8775 C   0  0  0  0  0  0  0  0  0  0  0  0
    5.3070   -4.5280   24.7534 C   0  0  0  0  0  0  0  0  0  0  0  0
    4.0632   -5.1840   25.4054 C   0  0  0  0  0  0  0  0  0  0  0  0
    4.3282   -6.0787   25.9785 H   0  0  0  0  0  0  0  0  0  0  0  0
    3.5833   -4.4735   26.0911 H   0  0  0  0  0  0  0  0  0  0  0  0
    3.3108   -5.4680   24.6595 H   0  0  0  0  0  0  0  0  0  0  0  0
    4.7927   -3.2857   23.9531 C   0  0  0  0  0  0  0  0  0  0  0  0
    5.7891   -2.6725   23.0916 N   0  0  0  0  0  0  0  0  0  0  0  0
    5.8505   -2.8589   21.7426 C   0  0  0  0  0  0  0  0  0  0  0  0
    4.9867   -3.4557   21.1200 O   0  0  0  0  0  0  0  0  0  0  0  0
    7.1080   -2.3276   21.0867 C   0  0  2  0  0  0  0  0  0  0  0  0
    8.4448   -2.8543   21.6600 C   0  0  0  0  0  0  0  0  0  0  0  0
    9.4437   -1.7622   21.2664 C   0  0  0  0  0  0  0  0  0  0  0  0
    8.6936   -0.6034   20.9471 O   0  0  0  0  0  0  0  0  0  0  0  0
    7.2986   -0.7931   21.1201 C   0  0  1  0  0  0  0  0  0  0  0  0
    6.5835   -0.0402   20.0153 C   0  0  0  0  0  0  0  0  0  0  0  0
    5.3654    0.6344   20.1852 C   0  0  0  0  0  0  0  0  0  0  0  0
    4.8046    1.3000   19.0870 C   0  0  0  0  0  0  0  0  0  0  0  0
    5.4755    1.2664   17.8612 C   0  0  0  0  0  0  0  0  0  0  0  0
    6.6373    0.6233   17.6764 N   0  0  0  0  0  0  0  0  0  0  0  0
    7.1686    0.0014   18.7350 C   0  0  0  0  0  0  0  0  0  0  0  0
    8.1296   -0.4801   18.5624 H   0  0  0  0  0  0  0  0  0  0  0  0
    5.0725    1.7723   16.9825 H   0  0  0  0  0  0  0  0  0  0  0  0
    3.8738    1.8547   19.1594 H   0  0  0  0  0  0  0  0  0  0  0  0
    4.8628    0.6618   21.1569 H   0  0  0  0  0  0  0  0  0  0  0  0
    7.0168   -0.3722   22.1019 H   0  0  0  0  0  0  0  0  0  0  0  0
   10.1606   -1.5082   22.0573 H   0  0  0  0  0  0  0  0  0  0  0  0
   10.0171   -2.0741   20.3949 H   0  0  0  0  0  0  0  0  0  0  0  0
    8.4012   -2.9492   22.7525 H   0  0  0  0  0  0  0  0  0  0  0  0
    8.7046   -3.8404   21.2623 H   0  0  0  0  0  0  0  0  0  0  0  0
    6.9885   -2.6093   20.0418 H   0  0  0  0  0  0  0  0  0  0  0  0
    6.4778   -2.0761   23.5085 H   0  0  0  0  0  0  0  0  0  0  0  0
    4.4211   -2.5388   24.6639 H   0  0  0  0  0  0  0  0  0  0  0  0
    3.9467   -3.5838   23.3265 H   0  0  0  0  0  0  0  0  0  0  0  0
    5.9903   -5.4834   23.7536 C   0  0  0  0  0  0  0  0  0  0  0  0
    5.2420   -6.0002   22.6889 C   0  0  0  0  0  0  0  0  0  0  0  0
    5.8869   -6.6336   21.6284 C   0  0  0  0  0  0  0  0  0  0  0  0
    7.2105   -6.8242   21.5699 N   0  0  0  0  0  0  0  0  0  0  0  0
    7.9222   -6.3906   22.6137 C   0  0  0  0  0  0  0  0  0  0  0  0
    7.3696   -5.7265   23.7121 C   0  0  0  0  0  0  0  0  0  0  0  0
    8.0226   -5.4095   24.5122 H   0  0  0  0  0  0  0  0  0  0  0  0
    8.9952   -6.5601   22.5595 H   0  0  0  0  0  0  0  0  0  0  0  0
    5.3184   -6.9783   20.7694 H   0  0  0  0  0  0  0  0  0  0  0  0
    4.1710   -5.8563   22.6247 H   0  0  0  0  0  0  0  0  0  0  0  0
    7.1173   -3.4973   25.4856 H   0  0  0  0  0  0  0  0  0  0  0  0
    6.6593   -4.9397   26.4190 H   0  0  0  0  0  0  0  0  0  0  0  0
    5.7396   -3.4342   26.6006 H   0  0  0  0  0  0  0  0  0  0  0  0
  1  2  1  0
  2  3  1  0
  3  4  1  0
  3  5  1  0
  3  6  1  0
  2  7  1  0
  7  8  1  0
  8  9  1  0
  9 10  2  0
  9 11  1  0
 11 12  1  0
 12 13  1  0
 13 14  1  0
 14 15  1  0
 15 16  1  0
 16 17  2  0
 17 18  1  0
 18 19  2  0
 19 20  1  0
 20 21  2  0
 21 22  1  0
 19 23  1  0
 18 24  1  0
 17 25  1  0
 15 26  1  1
 13 27  1  0
 13 28  1  0
 12 29  1  0
 12 30  1  0
 11 31  1  6
  8 32  1  0
  7 33  1  0
  7 34  1  0
  2 35  1  0
 35 36  2  0
 36 37  1  0
 37 38  2  0
 38 39  1  0
 39 40  2  0
 40 41  1  0
 39 42  1  0
 37 43  1  0
 36 44  1  0
  1 45  1  0
  1 46  1  0
  1 47  1  0
 15 11  1  0
 21 16  1  0
 40 35  1  0
M  END
>  <plip>  (1) 
-0.06896551724137931

>  <filename>  (1) 
[H][c]1[n][c]([H])[c]([C@]2([H])[O][C]([H])([H])[C]([H])([H])[C@@]2([H])[C](=[O])[N]([H])[C]([H])([H])[C]([c]2[c]([H])[c]([H])[n][c]([H])[c]2[H])([C]([H])([H])[H])[C]([H])([H])[H])[c]([H])[c]1[H]

$$$$
