
     RDKit          3D

 41 44  0  0  0  0  0  0  0  0999 V2000
    4.9345    1.7828   16.9975 H   0  0  0  0  0  0  0  0  0  0  0  0
    5.4071    1.2867   17.8413 C   0  0  0  0  0  0  0  0  0  0  0  0
    6.5691    0.6692   17.5832 N   0  0  0  0  0  0  0  0  0  0  0  0
    7.1790    0.0537   18.5974 C   0  0  0  0  0  0  0  0  0  0  0  0
    8.1278   -0.4303   18.3727 H   0  0  0  0  0  0  0  0  0  0  0  0
    6.6568    0.0108   19.9009 C   0  0  0  0  0  0  0  0  0  0  0  0
    7.4029   -0.7052   20.9371 C   0  0  0  0  0  0  0  0  0  0  0  0
    8.5275   -1.3331   20.7437 N   0  0  0  0  0  0  0  0  0  0  0  0
    8.9880   -1.9523   21.8662 N   0  0  0  0  0  0  0  0  0  0  0  0
    8.2033   -1.7776   22.8900 C   0  0  0  0  0  0  0  0  0  0  0  0
    8.5075   -2.3230   24.2447 C   0  0  0  0  0  0  0  0  0  0  0  0
    8.5408   -3.7653   24.3860 N   0  0  0  0  0  0  0  0  0  0  0  0
    8.9624   -3.9874   25.2826 H   0  0  0  0  0  0  0  0  0  0  0  0
    7.2997   -4.5161   24.2414 C   0  0  0  0  0  0  0  0  0  0  0  0
    7.4945   -5.5026   24.6850 H   0  0  0  0  0  0  0  0  0  0  0  0
    6.9774   -4.7598   22.7578 C   0  0  0  0  0  0  0  0  0  0  0  0
    6.8544   -3.7942   22.2525 H   0  0  0  0  0  0  0  0  0  0  0  0
    7.8392   -5.2475   22.2873 H   0  0  0  0  0  0  0  0  0  0  0  0
    5.6951   -5.5926   22.5938 C   0  0  0  0  0  0  0  0  0  0  0  0
    5.8629   -6.6054   22.9911 H   0  0  0  0  0  0  0  0  0  0  0  0
    5.4620   -5.7165   21.5298 H   0  0  0  0  0  0  0  0  0  0  0  0
    4.5114   -4.9437   23.3343 C   0  0  0  0  0  0  0  0  0  0  0  0
    3.6091   -5.5595   23.2333 H   0  0  0  0  0  0  0  0  0  0  0  0
    4.2813   -3.9764   22.8612 H   0  0  0  0  0  0  0  0  0  0  0  0
    4.8308   -4.7053   24.8205 C   0  0  0  0  0  0  0  0  0  0  0  0
    4.9548   -5.6730   25.3301 H   0  0  0  0  0  0  0  0  0  0  0  0
    3.9964   -4.1978   25.3194 H   0  0  0  0  0  0  0  0  0  0  0  0
    6.1135   -3.8840   24.9902 C   0  0  0  0  0  0  0  0  0  0  0  0
    6.3641   -3.7789   26.0545 H   0  0  0  0  0  0  0  0  0  0  0  0
    5.9669   -2.8669   24.6007 H   0  0  0  0  0  0  0  0  0  0  0  0
    9.6495   -1.6482   24.9280 C   0  0  0  0  0  0  0  0  0  0  0  0
   10.3131   -2.4161   25.2657 H   0  0  0  0  0  0  0  0  0  0  0  0
   10.1319   -0.7737   24.5080 H   0  0  0  0  0  0  0  0  0  0  0  0
    8.2783   -1.5228   25.5088 C   0  0  0  0  0  0  0  0  0  0  0  0
    7.7388   -0.5779   25.4461 H   0  0  0  0  0  0  0  0  0  0  0  0
    8.0798   -2.0767   26.4230 H   0  0  0  0  0  0  0  0  0  0  0  0
    6.8286   -0.7919   22.5653 S   0  0  0  0  0  0  0  0  0  0  0  0
    5.4366    0.6526   20.1616 C   0  0  0  0  0  0  0  0  0  0  0  0
    4.9979    0.6419   21.1637 H   0  0  0  0  0  0  0  0  0  0  0  0
    4.8106    1.3056   19.1064 C   0  0  0  0  0  0  0  0  0  0  0  0
    3.8808    1.8367   19.2543 H   0  0  0  0  0  0  0  0  0  0  0  0
  1  2  1  0
  2  3  2  0
  3  4  1  0
  4  5  1  0
  4  6  2  0
  6  7  1  0
  7  8  2  0
  8  9  1  0
  9 10  2  0
 10 11  1  0
 11 12  1  0
 12 13  1  0
 12 14  1  0
 14 15  1  0
 14 16  1  0
 16 17  1  0
 16 18  1  0
 16 19  1  0
 19 20  1  0
 19 21  1  0
 19 22  1  0
 22 23  1  0
 22 24  1  0
 22 25  1  0
 25 26  1  0
 25 27  1  0
 25 28  1  0
 28 29  1  0
 28 30  1  0
 11 31  1  0
 31 32  1  0
 31 33  1  0
 31 34  1  0
 34 35  1  0
 34 36  1  0
 10 37  1  0
  6 38  1  0
 38 39  1  0
 38 40  2  0
 40 41  1  0
 40  2  1  0
 37  7  1  0
 34 11  1  0
 28 14  1  0
M  END
>  <plip>  (1) 
-0.03571428571428571

>  <filename>  (1) 
[H][c]1[n][c]([H])[c](-[c]2[n][n][c]([C]3([N]([H])[C]4([H])[C]([H])([H])[C]([H])([H])[C]([H])([H])[C]([H])([H])[C]4([H])[H])[C]([H])([H])[C]3([H])[H])[s]2)[c]([H])[c]1[H]

$$$$
