
     RDKit          3D

 36 38  0  0  0  0  0  0  0  0999 V2000
    9.0319    1.1538   21.4135 C   0  0  0  0  0  0  0  0  0  0  0  0
    7.9766    0.2242   22.0228 C   0  0  0  0  0  0  0  0  0  0  0  0
    7.3618   -0.7606   21.0143 C   0  0  0  0  0  0  0  0  0  0  0  0
    6.5395   -1.7388   21.7101 N   0  0  0  0  0  0  0  0  0  0  0  0
    6.0398   -2.8231   21.0610 C   0  0  0  0  0  0  0  0  0  0  0  0
    6.2238   -3.0216   19.8695 O   0  0  0  0  0  0  0  0  0  0  0  0
    5.2304   -3.7960   21.8815 C   0  0  0  0  0  0  0  0  0  0  0  0
    4.9052   -5.0588   21.4453 C   0  0  0  0  0  0  0  0  0  0  0  0
    3.9890   -5.5314   22.3418 N   0  0  0  0  0  0  0  0  0  0  0  0
    3.1742   -6.6397   22.3144 C   0  0  0  0  0  0  0  0  0  0  0  0
    2.3067   -6.8135   23.3473 C   0  0  0  0  0  0  0  0  0  0  0  0
    2.3075   -5.8367   24.4120 C   0  0  0  0  0  0  0  0  0  0  0  0
    3.0479   -4.7596   24.4299 N   0  0  0  0  0  0  0  0  0  0  0  0
    3.8749   -4.5581   23.3662 C   0  0  0  0  0  0  0  0  0  0  0  0
    4.6296   -3.5152   23.0851 N   0  0  0  0  0  0  0  0  0  0  0  0
    1.6313   -5.9736   25.2537 H   0  0  0  0  0  0  0  0  0  0  0  0
    1.6243   -7.6498   23.3731 H   0  0  0  0  0  0  0  0  0  0  0  0
    3.2852   -7.3037   21.4611 H   0  0  0  0  0  0  0  0  0  0  0  0
    5.2627   -5.6485   20.6109 H   0  0  0  0  0  0  0  0  0  0  0  0
    6.1120   -1.5173   22.5974 H   0  0  0  0  0  0  0  0  0  0  0  0
    6.5901   -0.0557   19.9069 C   0  0  0  0  0  0  0  0  0  0  0  0
    5.3843    0.6240   20.1344 C   0  0  0  0  0  0  0  0  0  0  0  0
    4.7908    1.3055   19.0696 C   0  0  0  0  0  0  0  0  0  0  0  0
    5.4218    1.2939   17.8198 C   0  0  0  0  0  0  0  0  0  0  0  0
    6.5704    0.6488   17.5760 N   0  0  0  0  0  0  0  0  0  0  0  0
    7.1203   -0.0062   18.6102 C   0  0  0  0  0  0  0  0  0  0  0  0
    8.0640   -0.5104   18.3976 H   0  0  0  0  0  0  0  0  0  0  0  0
    4.9867    1.8309   16.9792 H   0  0  0  0  0  0  0  0  0  0  0  0
    3.8713    1.8640   19.1989 H   0  0  0  0  0  0  0  0  0  0  0  0
    4.9246    0.6398   21.1274 H   0  0  0  0  0  0  0  0  0  0  0  0
    8.1863   -1.3126   20.5365 H   0  0  0  0  0  0  0  0  0  0  0  0
    8.4216   -0.3600   22.8381 H   0  0  0  0  0  0  0  0  0  0  0  0
    7.1745    0.8346   22.4628 H   0  0  0  0  0  0  0  0  0  0  0  0
    9.4570    1.8178   22.1726 H   0  0  0  0  0  0  0  0  0  0  0  0
    8.6010    1.7837   20.6259 H   0  0  0  0  0  0  0  0  0  0  0  0
    9.8625    0.5885   20.9743 H   0  0  0  0  0  0  0  0  0  0  0  0
  1  2  1  0
  2  3  1  0
  3  4  1  0
  4  5  1  0
  5  6  2  0
  5  7  1  0
  7  8  2  0
  8  9  1  0
  9 10  1  0
 10 11  2  0
 11 12  1  0
 12 13  2  0
 13 14  1  0
 14 15  2  0
 12 16  1  0
 11 17  1  0
 10 18  1  0
  8 19  1  0
  4 20  1  0
  3 21  1  0
 21 22  2  0
 22 23  1  0
 23 24  2  0
 24 25  1  0
 25 26  2  0
 26 27  1  0
 24 28  1  0
 23 29  1  0
 22 30  1  0
  3 31  1  0
  2 32  1  0
  2 33  1  0
  1 34  1  0
  1 35  1  0
  1 36  1  0
 15  7  1  0
 26 21  1  0
 14  9  1  0
M  END
>  <plip>  (1) 
-0.13793103448275862

>  <filename>  (1) 
[H][c]1[n][c]([H])[c]([C]([H])([N]([H])[C](=[O])[c]2[n][c]3[n][c]([H])[c]([H])[c]([H])[n]3[c]2[H])[C]([H])([H])[C]([H])([H])[H])[c]([H])[c]1[H]

$$$$
