
     RDKit          3D

 38 39  0  0  0  0  0  0  0  0999 V2000
    4.9284    1.8639   16.9387 H   0  0  0  0  0  0  0  0  0  0  0  0
    5.4047    1.3467   17.7680 C   0  0  0  0  0  0  0  0  0  0  0  0
    6.6058    0.8061   17.5160 N   0  0  0  0  0  0  0  0  0  0  0  0
    7.2258    0.1823   18.5265 C   0  0  0  0  0  0  0  0  0  0  0  0
    8.1998   -0.2457   18.2972 H   0  0  0  0  0  0  0  0  0  0  0  0
    6.6823    0.0509   19.8166 C   0  0  0  0  0  0  0  0  0  0  0  0
    7.4112   -0.6471   20.9522 C   0  0  1  0  0  0  0  0  0  0  0  0
    6.9121   -0.3719   21.8943 H   0  0  0  0  0  0  0  0  0  0  0  0
    7.4715   -2.1930   20.9551 C   0  0  0  0  0  0  0  0  0  0  0  0
    6.5794   -2.9920   20.8479 O   0  0  0  0  0  0  0  0  0  0  0  0
    8.7764   -2.5303   21.1715 N   0  0  0  0  0  0  0  0  0  0  0  0
    9.0659   -3.4458   21.4364 H   0  0  0  0  0  0  0  0  0  0  0  0
    9.6176   -1.4573   21.3208 C   0  0  0  0  0  0  0  0  0  0  0  0
   10.7743   -1.5200   21.6442 O   0  0  0  0  0  0  0  0  0  0  0  0
    8.8360   -0.3486   21.0526 N   0  0  0  0  0  0  0  0  0  0  0  0
    9.2675    0.9226   21.2806 O   0  0  0  0  0  0  0  0  0  0  0  0
    9.3213    1.2849   22.6819 C   0  0  0  0  0  0  0  0  0  0  0  0
    8.3931    0.9758   23.1823 H   0  0  0  0  0  0  0  0  0  0  0  0
   10.1609    0.7489   23.1426 H   0  0  0  0  0  0  0  0  0  0  0  0
    9.4867    2.8006   22.7010 C   0  0  0  0  0  0  0  0  0  0  0  0
   10.4333    3.0599   22.2113 H   0  0  0  0  0  0  0  0  0  0  0  0
    9.5543    3.1641   23.7333 H   0  0  0  0  0  0  0  0  0  0  0  0
    8.3750    3.5091   21.9209 C   0  0  0  0  0  0  0  0  0  0  0  0
    8.3687    3.0154   20.9429 H   0  0  0  0  0  0  0  0  0  0  0  0
    8.6340    4.5764   21.7551 H   0  0  0  0  0  0  0  0  0  0  0  0
    7.0338    3.3716   22.4877 N   0  0  0  0  0  0  0  0  0  0  0  0
    6.8580    4.1015   23.7366 C   0  0  0  0  0  0  0  0  0  0  0  0
    5.8466    3.9223   24.1257 H   0  0  0  0  0  0  0  0  0  0  0  0
    7.0037    5.1956   23.6162 H   0  0  0  0  0  0  0  0  0  0  0  0
    7.5584    3.7336   24.4939 H   0  0  0  0  0  0  0  0  0  0  0  0
    6.0438    3.7882   21.5024 C   0  0  0  0  0  0  0  0  0  0  0  0
    5.0358    3.6931   21.9137 H   0  0  0  0  0  0  0  0  0  0  0  0
    6.1626    4.8325   21.1558 H   0  0  0  0  0  0  0  0  0  0  0  0
    6.1137    3.1442   20.6217 H   0  0  0  0  0  0  0  0  0  0  0  0
    5.4150    0.5997   20.0515 C   0  0  0  0  0  0  0  0  0  0  0  0
    4.9685    0.5417   21.0455 H   0  0  0  0  0  0  0  0  0  0  0  0
    4.7643    1.2623   19.0087 C   0  0  0  0  0  0  0  0  0  0  0  0
    3.8033    1.7447   19.1522 H   0  0  0  0  0  0  0  0  0  0  0  0
  1  2  1  0
  2  3  2  0
  3  4  1  0
  4  5  1  0
  4  6  2  0
  6  7  1  0
  7  8  1  1
  7  9  1  0
  9 10  2  0
  9 11  1  0
 11 12  1  0
 11 13  1  0
 13 14  2  0
 13 15  1  0
 15 16  1  0
 16 17  1  0
 17 18  1  0
 17 19  1  0
 17 20  1  0
 20 21  1  0
 20 22  1  0
 20 23  1  0
 23 24  1  0
 23 25  1  0
 23 26  1  0
 26 27  1  0
 27 28  1  0
 27 29  1  0
 27 30  1  0
 26 31  1  0
 31 32  1  0
 31 33  1  0
 31 34  1  0
  6 35  1  0
 35 36  1  0
 35 37  2  0
 37 38  1  0
 37  2  1  0
 15  7  1  0
M  END
>  <plip>  (1) 
-0.10344827586206896

>  <filename>  (1) 
[H][c]1[n][c]([H])[c]([C@@]2([H])[C](=[O])[N]([H])[C](=[O])[N]2[O][C]([H])([H])[C]([H])([H])[C]([H])([H])[N]([C]([H])([H])[H])[C]([H])([H])[H])[c]([H])[c]1[H]

$$$$
