
     RDKit          3D

 48 51  0  0  0  0  0  0  0  0999 V2000
   13.2039    5.1909   23.9962 C   0  0  0  0  0  0  0  0  0  0  0  0
   13.2230    3.9764   23.3271 C   0  0  0  0  0  0  0  0  0  0  0  0
   12.1093    3.3977   22.8907 N   0  0  0  0  0  0  0  0  0  0  0  0
   10.9379    4.0453   23.0907 C   0  0  0  0  0  0  0  0  0  0  0  0
    9.6389    3.2818   22.6828 C   0  0  0  0  0  0  0  0  0  0  0  0
    8.4191    3.8449   22.8738 N   0  0  0  0  0  0  0  0  0  0  0  0
    7.3658    3.1235   22.5312 C   0  0  0  0  0  0  0  0  0  0  0  0
    7.3712    1.8782   22.0537 N   0  0  0  0  0  0  0  0  0  0  0  0
    8.5661    1.3623   21.8204 C   0  0  0  0  0  0  0  0  0  0  0  0
    8.6472    0.1445   21.2598 N   0  0  0  0  0  0  0  0  0  0  0  0
    7.4959   -0.6775   20.9381 C   0  0  0  0  0  0  0  0  0  0  0  0
    6.7002   -1.0783   22.1994 C   0  0  0  0  0  0  0  0  0  0  0  0
    7.4265   -1.9833   23.1596 N   0  0  0  0  0  4  0  0  0  0  0  0
    7.7214   -3.3550   22.6107 C   0  0  0  0  0  0  0  0  0  0  0  0
    7.8511   -4.2798   23.8265 C   0  0  0  0  0  0  0  0  0  0  0  0
    7.3316   -3.4793   25.0365 C   0  0  0  0  0  0  0  0  0  0  0  0
    6.6987   -2.2151   24.4588 C   0  0  0  0  0  0  0  0  0  0  0  0
    6.7984   -1.3462   25.1170 H   0  0  0  0  0  0  0  0  0  0  0  0
    5.6332   -2.3677   24.2459 H   0  0  0  0  0  0  0  0  0  0  0  0
    8.1586   -3.2139   25.7037 H   0  0  0  0  0  0  0  0  0  0  0  0
    6.6019   -4.0468   25.6220 H   0  0  0  0  0  0  0  0  0  0  0  0
    8.8936   -4.5753   23.9744 H   0  0  0  0  0  0  0  0  0  0  0  0
    7.2650   -5.1879   23.6595 H   0  0  0  0  0  0  0  0  0  0  0  0
    8.6260   -3.3280   21.9980 H   0  0  0  0  0  0  0  0  0  0  0  0
    6.8777   -3.6540   21.9797 H   0  0  0  0  0  0  0  0  0  0  0  0
    8.3324   -1.5051   23.4003 H   0  0  0  0  0  0  0  0  0  0  0  0
    5.7758   -1.5616   21.8605 H   0  0  0  0  0  0  0  0  0  0  0  0
    6.4424   -0.1539   22.7193 H   0  0  0  0  0  0  0  0  0  0  0  0
    6.6423    0.0111   19.8913 C   0  0  0  0  0  0  0  0  0  0  0  0
    5.4120    0.6441   20.1187 C   0  0  0  0  0  0  0  0  0  0  0  0
    4.7940    1.3029   19.0527 C   0  0  0  0  0  0  0  0  0  0  0  0
    5.4180    1.3083   17.8035 C   0  0  0  0  0  0  0  0  0  0  0  0
    6.5964    0.7099   17.5708 N   0  0  0  0  0  0  0  0  0  0  0  0
    7.1864    0.1027   18.6056 C   0  0  0  0  0  0  0  0  0  0  0  0
    8.1452   -0.3670   18.3793 H   0  0  0  0  0  0  0  0  0  0  0  0
    4.9543    1.8174   16.9595 H   0  0  0  0  0  0  0  0  0  0  0  0
    3.8541    1.8252   19.1841 H   0  0  0  0  0  0  0  0  0  0  0  0
    4.9591    0.6740   21.1135 H   0  0  0  0  0  0  0  0  0  0  0  0
    7.9040   -1.5886   20.4854 H   0  0  0  0  0  0  0  0  0  0  0  0
    9.5785   -0.1689   21.0786 H   0  0  0  0  0  0  0  0  0  0  0  0
    9.7497    2.0116   22.1463 C   0  0  0  0  0  0  0  0  0  0  0  0
   10.7016    1.5305   21.9967 H   0  0  0  0  0  0  0  0  0  0  0  0
    6.3942    3.5969   22.6690 H   0  0  0  0  0  0  0  0  0  0  0  0
   10.8559    5.2709   23.6310 N   0  0  0  0  0  0  0  0  0  0  0  0
   11.9751    5.8279   24.0688 C   0  0  0  0  0  0  0  0  0  0  0  0
   11.8549    6.8206   24.4945 H   0  0  0  0  0  0  0  0  0  0  0  0
   14.1536    3.4410   23.1393 H   0  0  0  0  0  0  0  0  0  0  0  0
   14.0778    5.6026   24.4558 H   0  0  0  0  0  0  0  0  0  0  0  0
  1  2  2  0
  2  3  1  0
  3  4  2  0
  4  5  1  0
  5  6  2  0
  6  7  1  0
  7  8  2  0
  8  9  1  0
  9 10  1  0
 10 11  1  0
 11 12  1  0
 12 13  1  0
 13 14  1  0
 14 15  1  0
 15 16  1  0
 16 17  1  0
 17 18  1  0
 17 19  1  0
 16 20  1  0
 16 21  1  0
 15 22  1  0
 15 23  1  0
 14 24  1  0
 14 25  1  0
 13 26  1  0
 12 27  1  0
 12 28  1  0
 11 29  1  0
 29 30  2  0
 30 31  1  0
 31 32  2  0
 32 33  1  0
 33 34  2  0
 34 35  1  0
 32 36  1  0
 31 37  1  0
 30 38  1  0
 11 39  1  0
 10 40  1  0
  9 41  2  0
 41 42  1  0
  7 43  1  0
  4 44  1  0
 44 45  2  0
 45 46  1  0
  2 47  1  0
  1 48  1  0
 45  1  1  0
 41  5  1  0
 17 13  1  0
 34 29  1  0
M  CHG  1  13   1
M  END
>  <plip>  (1) 
-0.034482758620689655

>  <filename>  (1) 
[H][c]1[n][c](-[c]2[n][c]([H])[c]([H])[c]([H])[n]2)[c]([H])[c]([N]([H])[C]([H])([c]2[c]([H])[n][c]([H])[c]([H])[c]2[H])[C]([H])([H])[N+]2([H])[C]([H])([H])[C]([H])([H])[C]([H])([H])[C]2([H])[H])[n]1

$$$$
