
     RDKit          3D

 28 30  0  0  0  0  0  0  0  0999 V2000
    8.6639   -0.7323   20.8988 O   0  0  0  0  0  0  0  0  0  0  0  0
    7.4473   -0.7378   20.9778 C   0  0  0  0  0  0  0  0  0  0  0  0
    6.7597   -1.3887   21.9698 N   0  0  0  0  0  0  0  0  0  0  0  0
    7.3306   -2.1919   22.9941 C   0  0  0  0  0  0  0  0  0  0  0  0
    6.7977   -2.2034   24.2519 C   0  0  0  0  0  0  0  0  0  0  0  0
    7.3964   -2.9633   25.2414 N   0  0  0  0  0  0  0  0  0  0  0  0
    7.0870   -3.1494   26.5671 C   0  0  0  0  0  0  0  0  0  0  0  0
    8.0346   -4.0235   27.0463 C   0  0  0  0  0  0  0  0  0  0  0  0
    8.9201   -4.3874   26.0774 N   0  0  0  0  0  0  0  0  0  0  0  0
    8.5281   -3.7468   24.9913 C   0  0  0  0  0  0  0  0  0  0  0  0
    9.0656   -3.7539   23.6691 C   0  0  0  0  0  0  0  0  0  0  0  0
    8.4833   -2.9973   22.6929 C   0  0  0  0  0  0  0  0  0  0  0  0
    8.8733   -2.9623   21.6789 H   0  0  0  0  0  0  0  0  0  0  0  0
    9.9490   -4.3532   23.4912 H   0  0  0  0  0  0  0  0  0  0  0  0
    8.1340   -4.4280   28.0457 H   0  0  0  0  0  0  0  0  0  0  0  0
    6.2436   -2.6597   27.0263 H   0  0  0  0  0  0  0  0  0  0  0  0
    5.9312   -1.6283   24.5452 H   0  0  0  0  0  0  0  0  0  0  0  0
    5.7599   -1.2597   21.9646 H   0  0  0  0  0  0  0  0  0  0  0  0
    6.6080   -0.0355   19.9519 C   0  0  0  0  0  0  0  0  0  0  0  0
    5.3936    0.6307   20.1847 C   0  0  0  0  0  0  0  0  0  0  0  0
    4.7933    1.3032   19.1180 C   0  0  0  0  0  0  0  0  0  0  0  0
    5.4067    1.2771   17.8624 C   0  0  0  0  0  0  0  0  0  0  0  0
    6.5682    0.6506   17.6326 N   0  0  0  0  0  0  0  0  0  0  0  0
    7.1534    0.0311   18.6602 C   0  0  0  0  0  0  0  0  0  0  0  0
    8.1171   -0.4205   18.4330 H   0  0  0  0  0  0  0  0  0  0  0  0
    4.9559    1.7738   17.0032 H   0  0  0  0  0  0  0  0  0  0  0  0
    3.8695    1.8521   19.2442 H   0  0  0  0  0  0  0  0  0  0  0  0
    4.9476    0.6828   21.1821 H   0  0  0  0  0  0  0  0  0  0  0  0
  1  2  2  0
  2  3  1  0
  3  4  1  0
  4  5  2  0
  5  6  1  0
  6  7  1  0
  7  8  2  0
  8  9  1  0
  9 10  2  0
 10 11  1  0
 11 12  2  0
 12 13  1  0
 11 14  1  0
  8 15  1  0
  7 16  1  0
  5 17  1  0
  3 18  1  0
  2 19  1  0
 19 20  2  0
 20 21  1  0
 21 22  2  0
 22 23  1  0
 23 24  2  0
 24 25  1  0
 22 26  1  0
 21 27  1  0
 20 28  1  0
 12  4  1  0
 24 19  1  0
 10  6  1  0
M  END
>  <plip>  (1) 
-0.03571428571428571

>  <filename>  (1) 
[H][c]1[n][c]([H])[c]([C](=[O])[N]([H])[c]2[c]([H])[c]([H])[c]3[n][c]([H])[c]([H])[n]3[c]2[H])[c]([H])[c]1[H]

$$$$
