
     RDKit          3D

 31 33  0  0  0  0  0  0  0  0999 V2000
    8.7915   -0.7366   20.9813 C   0  0  0  0  0  0  0  0  0  0  0  0
    7.3274   -0.6747   20.9693 N   0  0  0  0  0  0  0  0  0  0  0  0
    6.5620   -1.5342   21.8139 C   0  0  0  0  0  0  0  0  0  0  0  0
    5.7676   -2.3301   21.3517 O   0  0  0  0  0  0  0  0  0  0  0  0
    6.7841   -1.3927   23.3079 C   0  0  0  0  0  0  0  0  0  0  0  0
    6.3778   -2.4635   24.1427 C   0  0  0  0  0  0  0  0  0  0  0  0
    6.4882   -2.3705   25.5364 C   0  0  0  0  0  0  0  0  0  0  0  0
    6.9958   -1.1936   26.0637 C   0  0  0  0  0  0  0  0  0  0  0  0
    7.2497   -0.7712   27.3510 N   0  0  0  0  0  0  0  0  0  0  0  0
    7.7445    0.5075   27.3572 C   0  0  0  0  0  0  0  0  0  0  0  0
    8.0201    1.1653   28.3156 O   0  0  0  0  0  0  0  0  0  0  0  0
    7.8423    0.9087   26.0366 O   0  0  0  0  0  0  0  0  0  0  0  0
    7.3804   -0.1208   25.2502 C   0  0  0  0  0  0  0  0  0  0  0  0
    7.2845   -0.1905   23.8740 C   0  0  0  0  0  0  0  0  0  0  0  0
    7.5681    0.6676   23.2695 H   0  0  0  0  0  0  0  0  0  0  0  0
    7.0920   -1.2347   28.2237 H   0  0  0  0  0  0  0  0  0  0  0  0
    6.1801   -3.1848   26.1863 H   0  0  0  0  0  0  0  0  0  0  0  0
    5.9506   -3.3629   23.6975 H   0  0  0  0  0  0  0  0  0  0  0  0
    6.6627   -0.0030   19.9078 C   0  0  0  0  0  0  0  0  0  0  0  0
    5.4390    0.6443   20.1522 C   0  0  0  0  0  0  0  0  0  0  0  0
    4.8130    1.3097   19.0988 C   0  0  0  0  0  0  0  0  0  0  0  0
    5.4034    1.2934   17.8317 C   0  0  0  0  0  0  0  0  0  0  0  0
    6.5665    0.6794   17.5770 N   0  0  0  0  0  0  0  0  0  0  0  0
    7.1830    0.0651   18.5952 C   0  0  0  0  0  0  0  0  0  0  0  0
    8.1294   -0.4175   18.3624 H   0  0  0  0  0  0  0  0  0  0  0  0
    4.9237    1.7873   16.9899 H   0  0  0  0  0  0  0  0  0  0  0  0
    3.8828    1.8380   19.2539 H   0  0  0  0  0  0  0  0  0  0  0  0
    5.0040    0.6259   21.1515 H   0  0  0  0  0  0  0  0  0  0  0  0
    9.1989    0.2239   20.6478 H   0  0  0  0  0  0  0  0  0  0  0  0
    9.1842   -1.5177   20.3102 H   0  0  0  0  0  0  0  0  0  0  0  0
    9.1658   -0.9381   21.9914 H   0  0  0  0  0  0  0  0  0  0  0  0
  1  2  1  0
  2  3  1  0
  3  4  2  0
  3  5  1  0
  5  6  2  0
  6  7  1  0
  7  8  2  0
  8  9  1  0
  9 10  1  0
 10 11  2  0
 10 12  1  0
 12 13  1  0
 13 14  2  0
 14 15  1  0
  9 16  1  0
  7 17  1  0
  6 18  1  0
  2 19  1  0
 19 20  2  0
 20 21  1  0
 21 22  2  0
 22 23  1  0
 23 24  2  0
 24 25  1  0
 22 26  1  0
 21 27  1  0
 20 28  1  0
  1 29  1  0
  1 30  1  0
  1 31  1  0
 14  5  1  0
 24 19  1  0
 13  8  1  0
M  END
>  <plip>  (1) 
-0.10714285714285714

>  <filename>  (1) 
[H][c]1[n][c]([H])[c]([N]([C](=[O])[c]2[c]([H])[c]([H])[c]3[c]([o][c](=[O])[n]3[H])[c]2[H])[C]([H])([H])[H])[c]([H])[c]1[H]

$$$$
