
     RDKit          3D

 22 23  0  0  0  0  0  0  0  0999 V2000
    5.0121    1.7345   17.0369 H   0  0  0  0  0  0  0  0  0  0  0  0
    5.5005    1.2548   17.8828 C   0  0  0  0  0  0  0  0  0  0  0  0
    6.6727    0.6531   17.6118 N   0  0  0  0  0  0  0  0  0  0  0  0
    7.2963    0.0313   18.6227 C   0  0  0  0  0  0  0  0  0  0  0  0
    8.2456   -0.4632   18.4136 H   0  0  0  0  0  0  0  0  0  0  0  0
    6.8047   -0.0337   19.9476 C   0  0  0  0  0  0  0  0  0  0  0  0
    7.5275   -0.7140   20.9744 N   0  0  0  0  0  0  0  0  0  0  0  0
    8.2272   -0.2399   21.5367 H   0  0  0  0  0  0  0  0  0  0  0  0
    6.9653   -1.6271   21.8362 C   0  0  0  0  0  0  0  0  0  0  0  0
    7.5999   -1.7142   23.0505 N   0  0  0  0  0  0  0  0  0  0  0  0
    7.0124   -2.6221   23.7684 C   0  0  0  0  0  0  0  0  0  0  0  0
    7.3837   -2.9109   25.1834 C   0  0  0  0  0  0  0  0  0  0  0  0
    8.4675   -2.8536   25.2826 H   0  0  0  0  0  0  0  0  0  0  0  0
    7.0114   -3.8799   25.5124 H   0  0  0  0  0  0  0  0  0  0  0  0
    6.9322   -2.1388   25.8116 H   0  0  0  0  0  0  0  0  0  0  0  0
    5.6990   -3.4681   23.0009 S   0  0  0  0  0  0  0  0  0  0  0  0
    5.9467   -2.4868   21.6015 C   0  0  0  0  0  0  0  0  0  0  0  0
    5.4079   -2.5668   20.6737 H   0  0  0  0  0  0  0  0  0  0  0  0
    5.5761    0.5954   20.2021 C   0  0  0  0  0  0  0  0  0  0  0  0
    5.1737    0.5642   21.2128 H   0  0  0  0  0  0  0  0  0  0  0  0
    4.9146    1.2495   19.1495 C   0  0  0  0  0  0  0  0  0  0  0  0
    3.9596    1.7452   19.3001 H   0  0  0  0  0  0  0  0  0  0  0  0
  1  2  1  0
  2  3  2  0
  3  4  1  0
  4  5  1  0
  4  6  2  0
  6  7  1  0
  7  8  1  0
  7  9  1  0
  9 10  1  0
 10 11  2  0
 11 12  1  0
 12 13  1  0
 12 14  1  0
 12 15  1  0
 11 16  1  0
 16 17  1  0
 17 18  1  0
  6 19  1  0
 19 20  1  0
 19 21  2  0
 21 22  1  0
 21  2  1  0
 17  9  2  0
M  END
>  <plip>  (1) 
-0.03571428571428571

>  <filename>  (1) 
[H][c]1[n][c]([H])[c]([N]([H])[c]2[n][c]([C]([H])([H])[H])[s][c]2[H])[c]([H])[c]1[H]

$$$$
