
     RDKit          3D

 33 35  0  0  0  0  0  0  0  0999 V2000
   12.8777    0.5063   25.3030 N   0  0  0  0  0  0  0  0  0  0  0  0
   11.8514   -0.0140   25.1065 C   0  0  0  0  0  0  0  0  0  0  0  0
   10.6698   -0.7423   24.7485 C   0  0  0  0  0  0  0  0  0  0  0  0
   10.6851   -1.3017   23.5364 N   0  0  0  0  0  0  0  0  0  0  0  0
    9.6289   -1.9900   23.1663 C   0  0  0  0  0  0  0  0  0  0  0  0
    9.8028   -2.4504   21.9065 N   0  0  0  0  0  0  0  0  0  0  0  0
    9.0216   -1.7648   20.8767 C   0  0  0  0  0  0  0  0  0  0  0  0
    7.5219   -2.0215   20.9027 C   0  0  0  0  0  0  0  0  0  0  0  0
    7.2749   -0.5375   21.1184 C   0  0  0  0  0  0  0  0  0  0  0  0
    6.5795    0.1206   19.9657 C   0  0  0  0  0  0  0  0  0  0  0  0
    5.3579    0.7546   20.1591 C   0  0  0  0  0  0  0  0  0  0  0  0
    4.7686    1.3561   19.0527 C   0  0  0  0  0  0  0  0  0  0  0  0
    5.4071    1.3082   17.8069 C   0  0  0  0  0  0  0  0  0  0  0  0
    6.5786    0.6761   17.6126 N   0  0  0  0  0  0  0  0  0  0  0  0
    7.1494    0.0928   18.6805 C   0  0  0  0  0  0  0  0  0  0  0  0
    8.0962   -0.4248   18.5511 H   0  0  0  0  0  0  0  0  0  0  0  0
    4.9379    1.7972   16.9613 H   0  0  0  0  0  0  0  0  0  0  0  0
    3.8248    1.8748   19.1536 H   0  0  0  0  0  0  0  0  0  0  0  0
    4.8988    0.7785   21.1471 H   0  0  0  0  0  0  0  0  0  0  0  0
    8.7767   -0.2846   21.1679 C   0  0  0  0  0  0  0  0  0  0  0  0
    9.1247    0.0467   22.1532 H   0  0  0  0  0  0  0  0  0  0  0  0
    9.1574    0.4015   20.4052 H   0  0  0  0  0  0  0  0  0  0  0  0
    6.7758   -0.3263   22.0707 H   0  0  0  0  0  0  0  0  0  0  0  0
    7.1943   -2.6669   21.7200 H   0  0  0  0  0  0  0  0  0  0  0  0
    7.0880   -2.3862   19.9688 H   0  0  0  0  0  0  0  0  0  0  0  0
    9.4373   -1.9094   19.8745 H   0  0  0  0  0  0  0  0  0  0  0  0
   10.8019   -2.3853   21.7395 H   0  0  0  0  0  0  0  0  0  0  0  0
    8.4826   -2.1397   23.9271 C   0  0  0  0  0  0  0  0  0  0  0  0
    8.4490   -1.6043   25.2108 C   0  0  0  0  0  0  0  0  0  0  0  0
    9.5832   -0.9226   25.6443 C   0  0  0  0  0  0  0  0  0  0  0  0
    9.6576   -0.3869   27.4733 Br  0  0  0  0  0  0  0  0  0  0  0  0
    7.5882   -1.7617   25.8650 H   0  0  0  0  0  0  0  0  0  0  0  0
    7.6655   -2.7126   23.5217 H   0  0  0  0  0  0  0  0  0  0  0  0
  1  2  3  0
  2  3  1  0
  3  4  2  0
  4  5  1  0
  5  6  1  0
  6  7  1  0
  7  8  1  0
  8  9  1  0
  9 10  1  0
 10 11  2  0
 11 12  1  0
 12 13  2  0
 13 14  1  0
 14 15  2  0
 15 16  1  0
 13 17  1  0
 12 18  1  0
 11 19  1  0
  9 20  1  0
 20 21  1  0
 20 22  1  0
  9 23  1  0
  8 24  1  0
  8 25  1  0
  7 26  1  0
  6 27  1  0
  5 28  2  0
 28 29  1  0
 29 30  2  0
 30 31  1  0
 29 32  1  0
 28 33  1  0
 30  3  1  0
 20  7  1  0
 15 10  1  0
M  END
>  <plip>  (1) 
-0.03333333333333333

>  <filename>  (1) 
[H][c]1[n][c]([H])[c]([C]2([H])[C]([H])([H])[C]([H])([N]([H])[c]3[n][c]([C]#[N])[c]([Br])[c]([H])[c]3[H])[C]2([H])[H])[c]([H])[c]1[H]

$$$$
