
     RDKit          3D

 40 43  0  0  0  0  0  0  0  0999 V2000
    5.5802    2.9375   29.8910 F   0  0  0  0  0  0  0  0  0  0  0  0
    6.3414    2.2645   29.0056 C   0  0  0  0  0  0  0  0  0  0  0  0
    7.3725    2.9355   28.3550 C   0  0  0  0  0  0  0  0  0  0  0  0
    8.1570    2.2276   27.4366 C   0  0  0  0  0  0  0  0  0  0  0  0
    7.9416    0.8607   27.2141 C   0  0  0  0  0  0  0  0  0  0  0  0
    8.8514    0.0937   26.2885 C   0  0  0  0  0  0  0  0  0  0  0  0
    8.1613   -0.1494   24.9751 N   0  0  0  0  0  4  0  0  0  0  0  0
    7.9945    1.1674   24.1282 C   0  0  0  0  0  0  0  0  0  0  0  0
    7.1345    0.8995   22.8879 C   0  0  0  0  0  0  0  0  0  0  0  0
    7.6111   -0.2903   22.1742 N   0  0  0  0  0  0  0  0  0  0  0  0
    8.3455   -1.2940   22.7373 C   0  0  0  0  0  0  0  0  0  0  0  0
    8.6026   -2.2347   21.8737 N   0  0  0  0  0  0  0  0  0  0  0  0
    8.0117   -1.8558   20.6933 N   0  0  0  0  0  0  0  0  0  0  0  0
    7.4118   -0.7137   20.8895 C   0  0  0  0  0  0  0  0  0  0  0  0
    6.6443    0.0235   19.8879 C   0  0  0  0  0  0  0  0  0  0  0  0
    5.4277    0.6681   20.1411 C   0  0  0  0  0  0  0  0  0  0  0  0
    4.7915    1.3236   19.0894 C   0  0  0  0  0  0  0  0  0  0  0  0
    5.3917    1.3086   17.8250 C   0  0  0  0  0  0  0  0  0  0  0  0
    6.5515    0.6829   17.5752 N   0  0  0  0  0  0  0  0  0  0  0  0
    7.1553    0.0547   18.5845 C   0  0  0  0  0  0  0  0  0  0  0  0
    8.0959   -0.4438   18.3539 H   0  0  0  0  0  0  0  0  0  0  0  0
    4.9312    1.8133   16.9772 H   0  0  0  0  0  0  0  0  0  0  0  0
    3.8563    1.8504   19.2298 H   0  0  0  0  0  0  0  0  0  0  0  0
    4.9779    0.6553   21.1333 H   0  0  0  0  0  0  0  0  0  0  0  0
    8.8803   -1.2027   24.1305 C   0  0  0  0  0  0  0  0  0  0  0  0
    8.8413   -2.1954   24.5822 H   0  0  0  0  0  0  0  0  0  0  0  0
    9.9414   -0.9248   24.0592 H   0  0  0  0  0  0  0  0  0  0  0  0
    7.1818    1.7493   22.2020 H   0  0  0  0  0  0  0  0  0  0  0  0
    6.0886    0.7702   23.1948 H   0  0  0  0  0  0  0  0  0  0  0  0
    7.5400    1.9376   24.7546 H   0  0  0  0  0  0  0  0  0  0  0  0
    8.9907    1.5128   23.8330 H   0  0  0  0  0  0  0  0  0  0  0  0
    7.1827   -0.4470   25.2409 H   0  0  0  0  0  0  0  0  0  0  0  0
    9.7776    0.6580   26.1209 H   0  0  0  0  0  0  0  0  0  0  0  0
    9.1359   -0.8639   26.7420 H   0  0  0  0  0  0  0  0  0  0  0  0
    6.8740    0.2174   27.8554 C   0  0  0  0  0  0  0  0  0  0  0  0
    6.0710    0.9182   28.7644 C   0  0  0  0  0  0  0  0  0  0  0  0
    5.2409    0.4558   29.2867 H   0  0  0  0  0  0  0  0  0  0  0  0
    6.6819   -0.8338   27.6267 H   0  0  0  0  0  0  0  0  0  0  0  0
    8.9488    2.7278   26.8738 H   0  0  0  0  0  0  0  0  0  0  0  0
    7.5438    3.9785   28.5932 H   0  0  0  0  0  0  0  0  0  0  0  0
  1  2  1  0
  2  3  2  0
  3  4  1  0
  4  5  2  0
  5  6  1  0
  6  7  1  0
  7  8  1  0
  8  9  1  0
  9 10  1  0
 10 11  1  0
 11 12  2  0
 12 13  1  0
 13 14  2  0
 14 15  1  0
 15 16  2  0
 16 17  1  0
 17 18  2  0
 18 19  1  0
 19 20  2  0
 20 21  1  0
 18 22  1  0
 17 23  1  0
 16 24  1  0
 11 25  1  0
 25 26  1  0
 25 27  1  0
  9 28  1  0
  9 29  1  0
  8 30  1  0
  8 31  1  0
  7 32  1  0
  6 33  1  0
  6 34  1  0
  5 35  1  0
 35 36  2  0
 36 37  1  0
 35 38  1  0
  4 39  1  0
  3 40  1  0
 36  2  1  0
 25  7  1  0
 14 10  1  0
 20 15  1  0
M  CHG  1   7   1
M  END
>  <plip>  (1) 
-0.06896551724137931

>  <filename>  (1) 
[H][c]1[n][c]([H])[c](-[c]2[n][n][c]3[n]2[C]([H])([H])[C]([H])([H])[N+]([H])([C]([H])([H])[c]2[c]([H])[c]([H])[c]([F])[c]([H])[c]2[H])[C]3([H])[H])[c]([H])[c]1[H]

$$$$
