
     RDKit          3D

 29 31  0  0  0  0  0  0  0  0999 V2000
    4.9217    1.7817   16.9950 H   0  0  0  0  0  0  0  0  0  0  0  0
    5.4058    1.2944   17.8366 C   0  0  0  0  0  0  0  0  0  0  0  0
    6.5700    0.6785   17.5742 N   0  0  0  0  0  0  0  0  0  0  0  0
    7.1672    0.0590   18.5931 C   0  0  0  0  0  0  0  0  0  0  0  0
    8.1125   -0.4357   18.3779 H   0  0  0  0  0  0  0  0  0  0  0  0
    6.6461    0.0218   19.8957 C   0  0  0  0  0  0  0  0  0  0  0  0
    7.3733   -0.7198   20.9302 C   0  0  0  0  0  0  0  0  0  0  0  0
    7.9423   -1.8799   20.7409 N   0  0  0  0  0  0  0  0  0  0  0  0
    8.4381   -2.3084   21.9459 N   0  0  0  0  0  0  0  0  0  0  0  0
    8.1730   -1.3793   22.8187 C   0  0  0  0  0  0  0  0  0  0  0  0
    8.4592   -1.3977   23.8618 H   0  0  0  0  0  0  0  0  0  0  0  0
    7.4994   -0.3253   22.2476 N   0  0  0  0  0  0  0  0  0  0  0  0
    7.1569    0.9262   22.8737 C   0  0  0  0  0  0  0  0  0  0  0  0
    7.4073    2.1520   22.2373 C   0  0  0  0  0  0  0  0  0  0  0  0
    7.8395    2.1498   21.2439 H   0  0  0  0  0  0  0  0  0  0  0  0
    7.0651    3.3543   22.8512 C   0  0  0  0  0  0  0  0  0  0  0  0
    7.2459    4.2997   22.3502 H   0  0  0  0  0  0  0  0  0  0  0  0
    6.4818    3.3607   24.1290 C   0  0  0  0  0  0  0  0  0  0  0  0
    6.1620    4.5399   24.7405 N   0  0  0  0  0  0  0  0  0  0  0  0
    5.7471    4.5571   25.6509 H   0  0  0  0  0  0  0  0  0  0  0  0
    6.3198    5.4158   24.2810 H   0  0  0  0  0  0  0  0  0  0  0  0
    6.2425    2.1352   24.7721 C   0  0  0  0  0  0  0  0  0  0  0  0
    5.8079    2.1403   25.7656 H   0  0  0  0  0  0  0  0  0  0  0  0
    6.5747    0.9360   24.1466 C   0  0  0  0  0  0  0  0  0  0  0  0
    6.3884   -0.0104   24.6412 H   0  0  0  0  0  0  0  0  0  0  0  0
    5.4199    0.6528   20.1529 C   0  0  0  0  0  0  0  0  0  0  0  0
    5.0038    0.6415   21.1655 H   0  0  0  0  0  0  0  0  0  0  0  0
    4.7968    1.3106   19.0993 C   0  0  0  0  0  0  0  0  0  0  0  0
    3.8658    1.8464   19.2547 H   0  0  0  0  0  0  0  0  0  0  0  0
  1  2  1  0
  2  3  2  0
  3  4  1  0
  4  5  1  0
  4  6  2  0
  6  7  1  0
  7  8  2  0
  8  9  1  0
  9 10  2  0
 10 11  1  0
 10 12  1  0
 12 13  1  0
 13 14  2  0
 14 15  1  0
 14 16  1  0
 16 17  1  0
 16 18  2  0
 18 19  1  0
 19 20  1  0
 19 21  1  0
 18 22  1  0
 22 23  1  0
 22 24  2  0
 24 25  1  0
  6 26  1  0
 26 27  1  0
 26 28  2  0
 28 29  1  0
 28  2  1  0
 12  7  1  0
 24 13  1  0
M  END
>  <plip>  (1) 
-0.0

>  <filename>  (1) 
[H][c]1[n][c]([H])[c](-[c]2[n][n][c]([H])[n]2-[c]2[c]([H])[c]([H])[c]([N]([H])[H])[c]([H])[c]2[H])[c]([H])[c]1[H]

$$$$
