
     RDKit          3D

 27 29  0  0  0  0  0  0  0  0999 V2000
    4.9599    1.8049   16.9755 H   0  0  0  0  0  0  0  0  0  0  0  0
    5.4129    1.3000   17.8261 C   0  0  0  0  0  0  0  0  0  0  0  0
    6.5728    0.6654   17.5939 N   0  0  0  0  0  0  0  0  0  0  0  0
    7.1639    0.0535   18.6201 C   0  0  0  0  0  0  0  0  0  0  0  0
    8.1062   -0.4448   18.3914 H   0  0  0  0  0  0  0  0  0  0  0  0
    6.6376    0.0397   19.9208 C   0  0  0  0  0  0  0  0  0  0  0  0
    7.3825   -0.6735   20.9684 C   0  0  0  0  0  0  0  0  0  0  0  0
    8.0986   -1.7587   20.7873 N   0  0  0  0  0  0  0  0  0  0  0  0
    8.5131   -2.1514   22.0091 N   0  0  0  0  0  0  0  0  0  0  0  0
    8.1100   -1.3480   22.9201 N   0  0  0  0  0  0  0  0  0  0  0  0
    7.3938   -0.3817   22.2972 N   0  0  0  0  0  0  0  0  0  0  0  0
    6.9485    0.7941   22.9867 C   0  0  0  0  0  0  0  0  0  0  0  0
    6.1175    0.6511   24.1013 C   0  0  0  0  0  0  0  0  0  0  0  0
    5.8723   -0.3529   24.4256 H   0  0  0  0  0  0  0  0  0  0  0  0
    5.6221    1.7739   24.7692 C   0  0  0  0  0  0  0  0  0  0  0  0
    4.9620    1.6595   25.6300 H   0  0  0  0  0  0  0  0  0  0  0  0
    5.9783    3.0545   24.3228 C   0  0  0  0  0  0  0  0  0  0  0  0
    5.6098    3.9359   24.8424 H   0  0  0  0  0  0  0  0  0  0  0  0
    6.8270    3.2017   23.2274 C   0  0  0  0  0  0  0  0  0  0  0  0
    7.1345    4.1874   22.8810 H   0  0  0  0  0  0  0  0  0  0  0  0
    7.3343    2.0801   22.5567 C   0  0  0  0  0  0  0  0  0  0  0  0
    8.3378    2.3144   21.5464 C   0  0  0  0  0  0  0  0  0  0  0  0
    9.2176    2.6032   20.8569 N   0  0  0  0  0  0  0  0  0  0  0  0
    5.4082    0.6823   20.1448 C   0  0  0  0  0  0  0  0  0  0  0  0
    4.9526    0.6824   21.1366 H   0  0  0  0  0  0  0  0  0  0  0  0
    4.7896    1.3246   19.0778 C   0  0  0  0  0  0  0  0  0  0  0  0
    3.8536    1.8621   19.2048 H   0  0  0  0  0  0  0  0  0  0  0  0
  1  2  1  0
  2  3  2  0
  3  4  1  0
  4  5  1  0
  4  6  2  0
  6  7  1  0
  7  8  2  0
  8  9  1  0
  9 10  2  0
 10 11  1  0
 11 12  1  0
 12 13  2  0
 13 14  1  0
 13 15  1  0
 15 16  1  0
 15 17  2  0
 17 18  1  0
 17 19  1  0
 19 20  1  0
 19 21  2  0
 21 22  1  0
 22 23  3  0
  6 24  1  0
 24 25  1  0
 24 26  2  0
 26 27  1  0
 26  2  1  0
 11  7  1  0
 21 12  1  0
M  END
>  <plip>  (1) 
-0.06896551724137931

>  <filename>  (1) 
[H][c]1[n][c]([H])[c](-[c]2[n][n][n][n]2-[c]2[c]([H])[c]([H])[c]([H])[c]([H])[c]2[C]#[N])[c]([H])[c]1[H]

$$$$
