
     RDKit          3D

 30 31  0  0  0  0  0  0  0  0999 V2000
    4.9952    1.7936   17.0051 H   0  0  0  0  0  0  0  0  0  0  0  0
    5.4375    1.2643   17.8415 C   0  0  0  0  0  0  0  0  0  0  0  0
    6.5965    0.6078   17.6503 N   0  0  0  0  0  0  0  0  0  0  0  0
    7.1721    0.0291   18.7202 C   0  0  0  0  0  0  0  0  0  0  0  0
    8.1081   -0.5042   18.5755 H   0  0  0  0  0  0  0  0  0  0  0  0
    6.6114    0.0772   20.0109 C   0  0  0  0  0  0  0  0  0  0  0  0
    7.3036   -0.5821   21.1752 C   0  0  2  0  0  0  0  0  0  0  0  0
    6.7306   -0.3996   22.0913 H   0  0  0  0  0  0  0  0  0  0  0  0
    9.1670    0.0527   21.4205 Br  0  0  0  0  0  0  0  0  0  0  0  0
    7.4109   -2.0408   20.8142 C   0  0  0  0  0  0  0  0  0  0  0  0
    8.1709   -2.0739   20.0454 H   0  0  0  0  0  0  0  0  0  0  0  0
    6.4628   -2.4296   20.4283 H   0  0  0  0  0  0  0  0  0  0  0  0
    7.9677   -3.1439   22.1240 S   0  0  0  0  0  0  0  0  0  0  0  0
    7.7951   -4.5026   21.5845 O   0  0  0  0  0  0  0  0  0  0  0  0
    9.3795   -2.8639   22.4416 O   0  0  0  0  0  0  0  0  0  0  0  0
    6.8423   -2.7865   23.5301 C   0  0  0  0  0  0  0  0  0  0  0  0
    7.3029   -1.9743   24.5814 C   0  0  0  0  0  0  0  0  0  0  0  0
    8.3130   -1.5670   24.5910 H   0  0  0  0  0  0  0  0  0  0  0  0
    6.4578   -1.6530   25.6424 C   0  0  0  0  0  0  0  0  0  0  0  0
    6.8147   -1.0150   26.4399 H   0  0  0  0  0  0  0  0  0  0  0  0
    5.1503   -2.1301   25.6855 C   0  0  0  0  0  0  0  0  0  0  0  0
    4.0996   -1.7001   27.0128 Cl  0  0  0  0  0  0  0  0  0  0  0  0
    4.6939   -2.9529   24.6577 C   0  0  0  0  0  0  0  0  0  0  0  0
    3.6732   -3.3116   24.6958 H   0  0  0  0  0  0  0  0  0  0  0  0
    5.5220   -3.2843   23.5797 C   0  0  0  0  0  0  0  0  0  0  0  0
    5.0989   -3.9113   22.7964 H   0  0  0  0  0  0  0  0  0  0  0  0
    5.3716    0.7047   20.1880 C   0  0  0  0  0  0  0  0  0  0  0  0
    4.8827    0.7313   21.1619 H   0  0  0  0  0  0  0  0  0  0  0  0
    4.7868    1.3166   19.0800 C   0  0  0  0  0  0  0  0  0  0  0  0
    3.8471    1.8557   19.1659 H   0  0  0  0  0  0  0  0  0  0  0  0
  1  2  1  0
  2  3  2  0
  3  4  1  0
  4  5  1  0
  4  6  2  0
  6  7  1  0
  7  8  1  1
  7  9  1  0
  7 10  1  0
 10 11  1  0
 10 12  1  0
 10 13  1  0
 13 14  2  0
 13 15  2  0
 13 16  1  0
 16 17  2  0
 17 18  1  0
 17 19  1  0
 19 20  1  0
 19 21  2  0
 21 22  1  0
 21 23  1  0
 23 24  1  0
 23 25  2  0
 25 26  1  0
  6 27  1  0
 27 28  1  0
 27 29  2  0
 29 30  1  0
 29  2  1  0
 25 16  1  0
M  END
>  <plip>  (1) 
-0.0

>  <filename>  (1) 
[H][c]1[n][c]([H])[c]([C@]([H])([Br])[C]([H])([H])[S](=[O])(=[O])[c]2[c]([H])[c]([H])[c]([Cl])[c]([H])[c]2[H])[c]([H])[c]1[H]

$$$$
