
     RDKit          3D

 28 30  0  0  0  0  0  0  0  0999 V2000
    9.0791   -3.0104   22.2494 H   0  0  0  0  0  0  0  0  0  0  0  0
    8.4989   -2.1457   21.9432 C   0  0  0  0  0  0  0  0  0  0  0  0
    8.0825   -1.8376   20.7662 N   0  0  0  0  0  0  0  0  0  0  0  0
    7.3702   -0.6537   20.9616 C   0  0  0  0  0  0  0  0  0  0  0  0
    6.6460    0.0214   19.8927 C   0  0  0  0  0  0  0  0  0  0  0  0
    7.1584    0.0417   18.5826 C   0  0  0  0  0  0  0  0  0  0  0  0
    8.1035   -0.4472   18.3546 H   0  0  0  0  0  0  0  0  0  0  0  0
    6.5547    0.6641   17.5659 N   0  0  0  0  0  0  0  0  0  0  0  0
    5.3979    1.2977   17.8200 C   0  0  0  0  0  0  0  0  0  0  0  0
    4.9375    1.8063   16.9742 H   0  0  0  0  0  0  0  0  0  0  0  0
    4.7919    1.3216   19.0814 C   0  0  0  0  0  0  0  0  0  0  0  0
    3.8578    1.8544   19.2220 H   0  0  0  0  0  0  0  0  0  0  0  0
    5.4250    0.6699   20.1374 C   0  0  0  0  0  0  0  0  0  0  0  0
    4.9889    0.6422   21.1375 H   0  0  0  0  0  0  0  0  0  0  0  0
    7.4551   -0.2983   22.2838 C   0  0  0  0  0  0  0  0  0  0  0  0
    7.0583    0.7761   23.0260 N   0  0  0  0  0  0  0  0  0  0  0  0
    6.9632    1.7127   22.6729 H   0  0  0  0  0  0  0  0  0  0  0  0
    6.9445    0.8673   24.3866 C   0  0  0  0  0  0  0  0  0  0  0  0
    7.0060    2.1459   24.7622 N   0  0  0  0  0  0  0  0  0  0  0  0
    6.9006    2.3728   26.0758 C   0  0  0  0  0  0  0  0  0  0  0  0
    6.9927    3.4168   26.3844 H   0  0  0  0  0  0  0  0  0  0  0  0
    6.6879    1.3641   27.0219 C   0  0  0  0  0  0  0  0  0  0  0  0
    6.6271    1.6320   28.0687 H   0  0  0  0  0  0  0  0  0  0  0  0
    6.5639    0.0359   26.5833 C   0  0  0  0  0  0  0  0  0  0  0  0
    6.3837   -0.7855   27.2794 H   0  0  0  0  0  0  0  0  0  0  0  0
    6.6887   -0.2175   25.2200 C   0  0  0  0  0  0  0  0  0  0  0  0
    6.5875   -1.1794   24.7373 H   0  0  0  0  0  0  0  0  0  0  0  0
    8.1587   -1.2680   22.9226 O   0  0  0  0  0  0  0  0  0  0  0  0
  1  2  1  0
  2  3  2  0
  3  4  1  0
  4  5  1  0
  5  6  2  0
  6  7  1  0
  6  8  1  0
  8  9  2  0
  9 10  1  0
  9 11  1  0
 11 12  1  0
 11 13  2  0
 13 14  1  0
  4 15  2  0
 15 16  1  0
 16 17  1  0
 16 18  1  0
 18 19  2  0
 19 20  1  0
 20 21  1  0
 20 22  2  0
 22 23  1  0
 22 24  1  0
 24 25  1  0
 24 26  2  0
 26 27  1  0
 15 28  1  0
 28  2  1  0
 13  5  1  0
 26 18  1  0
M  END
>  <plip>  (1) 
-0.034482758620689655

>  <filename>  (1) 
[H][c]1[n][c](-[c]2[c]([H])[n][c]([H])[c]([H])[c]2[H])[c]([N]([H])[c]2[n][c]([H])[c]([H])[c]([H])[c]2[H])[o]1

$$$$
