
     RDKit          3D

 35 36  0  0  0  0  0  0  0  0999 V2000
    5.5407   -5.5363   19.6378 N   0  0  0  0  0  0  0  0  0  0  0  0
    6.5410   -5.4002   20.2068 C   0  0  0  0  0  0  0  0  0  0  0  0
    7.7967   -5.1512   20.8824 C   0  0  0  0  0  0  0  0  0  0  0  0
    7.9984   -4.0591   21.6351 C   0  0  0  0  0  0  0  0  0  0  0  0
    6.9077   -3.1122   22.0868 C   0  0  0  0  0  0  0  0  0  0  0  0
    6.6625   -2.1459   21.0185 N   0  0  0  0  0  4  0  0  0  0  0  0
    7.3865   -0.6848   21.0387 C   0  0  0  0  0  0  0  0  0  0  0  0
    6.6224   -0.0080   19.9199 C   0  0  0  0  0  0  0  0  0  0  0  0
    5.3938    0.6469   20.1255 C   0  0  0  0  0  0  0  0  0  0  0  0
    4.7890    1.3055   19.0539 C   0  0  0  0  0  0  0  0  0  0  0  0
    5.4023    1.2716   17.7994 C   0  0  0  0  0  0  0  0  0  0  0  0
    6.5313    0.5931   17.5635 N   0  0  0  0  0  0  0  0  0  0  0  0
    7.1149   -0.0192   18.6017 C   0  0  0  0  0  0  0  0  0  0  0  0
    8.0432   -0.5346   18.3640 H   0  0  0  0  0  0  0  0  0  0  0  0
    4.9675    1.8014   16.9515 H   0  0  0  0  0  0  0  0  0  0  0  0
    3.8647    1.8564   19.1739 H   0  0  0  0  0  0  0  0  0  0  0  0
    4.9172    0.6549   21.1118 H   0  0  0  0  0  0  0  0  0  0  0  0
    7.2347   -0.0486   22.4287 C   0  0  0  0  0  0  0  0  0  0  0  0
    8.5520   -0.2660   23.2145 C   0  0  0  0  0  0  0  0  0  0  0  0
    9.5609   -0.8974   22.2246 C   0  0  0  0  0  0  0  0  0  0  0  0
    8.8977   -0.7985   20.8383 C   0  0  0  0  0  0  0  0  0  0  0  0
    9.1553   -1.6312   20.1781 H   0  0  0  0  0  0  0  0  0  0  0  0
    9.2349    0.1173   20.3425 H   0  0  0  0  0  0  0  0  0  0  0  0
   10.5253   -0.3723   22.2373 H   0  0  0  0  0  0  0  0  0  0  0  0
    9.7698   -1.9373   22.5102 H   0  0  0  0  0  0  0  0  0  0  0  0
    8.3965   -0.9220   24.0827 H   0  0  0  0  0  0  0  0  0  0  0  0
    8.9195    0.6934   23.5991 H   0  0  0  0  0  0  0  0  0  0  0  0
    6.3820   -0.4843   22.9568 H   0  0  0  0  0  0  0  0  0  0  0  0
    7.0159    1.0160   22.3172 H   0  0  0  0  0  0  0  0  0  0  0  0
    5.6907   -1.8204   20.9289 H   0  0  0  0  0  0  0  0  0  0  0  0
    6.9617   -2.5628   20.1211 H   0  0  0  0  0  0  0  0  0  0  0  0
    7.2055   -2.6237   23.0201 H   0  0  0  0  0  0  0  0  0  0  0  0
    5.9991   -3.6853   22.3073 H   0  0  0  0  0  0  0  0  0  0  0  0
    9.0143   -3.7252   21.8446 H   0  0  0  0  0  0  0  0  0  0  0  0
    8.5637   -5.9008   20.6922 H   0  0  0  0  0  0  0  0  0  0  0  0
  1  2  3  0
  2  3  1  0
  3  4  2  3
  4  5  1  0
  5  6  1  0
  6  7  1  0
  7  8  1  0
  8  9  2  0
  9 10  1  0
 10 11  2  0
 11 12  1  0
 12 13  2  0
 13 14  1  0
 11 15  1  0
 10 16  1  0
  9 17  1  0
  7 18  1  0
 18 19  1  0
 19 20  1  0
 20 21  1  0
 21 22  1  0
 21 23  1  0
 20 24  1  0
 20 25  1  0
 19 26  1  0
 19 27  1  0
 18 28  1  0
 18 29  1  0
  6 30  1  0
  6 31  1  0
  5 32  1  0
  5 33  1  0
  4 34  1  0
  3 35  1  0
 21  7  1  0
 13  8  1  0
M  CHG  1   6   1
M  END
>  <plip>  (1) 
-0.13793103448275862

>  <filename>  (1) 
[H][C]([C]#[N])=[C]([H])[C]([H])([H])[N+]([H])([H])[C]1([c]2[c]([H])[n][c]([H])[c]([H])[c]2[H])[C]([H])([H])[C]([H])([H])[C]([H])([H])[C]1([H])[H]

$$$$
