
     RDKit          3D

 31 33  0  0  0  0  0  0  0  0999 V2000
    5.0210    1.7985   16.9727 H   0  0  0  0  0  0  0  0  0  0  0  0
    5.4710    1.2819   17.8198 C   0  0  0  0  0  0  0  0  0  0  0  0
    6.6140    0.6267   17.5775 N   0  0  0  0  0  0  0  0  0  0  0  0
    7.1902   -0.0072   18.6092 C   0  0  0  0  0  0  0  0  0  0  0  0
    8.1128   -0.5352   18.3677 H   0  0  0  0  0  0  0  0  0  0  0  0
    6.6958   -0.0212   19.9261 C   0  0  0  0  0  0  0  0  0  0  0  0
    7.4567   -0.8045   21.0029 C   0  0  0  0  0  0  0  0  0  0  0  0
    7.2161   -2.2745   20.8162 N   0  0  0  0  0  0  0  0  0  0  0  0
    6.0772   -2.8521   20.3122 C   0  0  0  0  0  0  0  0  0  0  0  0
    5.3119   -2.2556   19.8427 H   0  0  0  0  0  0  0  0  0  0  0  0
    6.0550   -4.1540   20.4358 N   0  0  0  0  0  0  0  0  0  0  0  0
    7.2340   -4.4659   21.0665 C   0  0  0  0  0  0  0  0  0  0  0  0
    7.5081   -5.4878   21.2972 H   0  0  0  0  0  0  0  0  0  0  0  0
    7.9604   -3.3380   21.3172 C   0  0  0  0  0  0  0  0  0  0  0  0
    8.9526   -3.2253   21.7272 H   0  0  0  0  0  0  0  0  0  0  0  0
    7.1098   -0.3769   22.4555 C   0  0  0  0  0  0  0  0  0  0  0  0
    6.1463   -0.7717   22.7884 H   0  0  0  0  0  0  0  0  0  0  0  0
    7.0654    0.7192   22.4742 H   0  0  0  0  0  0  0  0  0  0  0  0
    8.2862   -0.8590   23.3141 C   0  0  0  0  0  0  0  0  0  0  0  0
    8.1464   -1.9214   23.5432 H   0  0  0  0  0  0  0  0  0  0  0  0
    8.3535   -0.3346   24.2721 H   0  0  0  0  0  0  0  0  0  0  0  0
    9.5315   -0.6670   22.4199 C   0  0  0  0  0  0  0  0  0  0  0  0
   10.2077   -1.5268   22.4858 H   0  0  0  0  0  0  0  0  0  0  0  0
   10.1134    0.2075   22.7303 H   0  0  0  0  0  0  0  0  0  0  0  0
    8.9836   -0.4780   20.9799 C   0  0  0  0  0  0  0  0  0  0  0  0
    9.5202   -1.0722   20.2321 H   0  0  0  0  0  0  0  0  0  0  0  0
    9.0881    0.5766   20.6934 H   0  0  0  0  0  0  0  0  0  0  0  0
    5.4764    0.6432   20.1386 C   0  0  0  0  0  0  0  0  0  0  0  0
    5.0104    0.6355   21.1250 H   0  0  0  0  0  0  0  0  0  0  0  0
    4.8526    1.3074   19.0747 C   0  0  0  0  0  0  0  0  0  0  0  0
    3.9156    1.8416   19.2035 H   0  0  0  0  0  0  0  0  0  0  0  0
  1  2  1  0
  2  3  2  0
  3  4  1  0
  4  5  1  0
  4  6  2  0
  6  7  1  0
  7  8  1  0
  8  9  1  0
  9 10  1  0
  9 11  2  0
 11 12  1  0
 12 13  1  0
 12 14  2  0
 14 15  1  0
  7 16  1  0
 16 17  1  0
 16 18  1  0
 16 19  1  0
 19 20  1  0
 19 21  1  0
 19 22  1  0
 22 23  1  0
 22 24  1  0
 22 25  1  0
 25 26  1  0
 25 27  1  0
  6 28  1  0
 28 29  1  0
 28 30  2  0
 30 31  1  0
 30  2  1  0
 25  7  1  0
 14  8  1  0
M  END
>  <plip>  (1) 
-0.14285714285714285

>  <filename>  (1) 
[H][c]1[n][c]([H])[c]([C]2([n]3[c]([H])[n][c]([H])[c]3[H])[C]([H])([H])[C]([H])([H])[C]([H])([H])[C]2([H])[H])[c]([H])[c]1[H]

$$$$
