
     RDKit          3D

 27 27  0  0  0  0  0  0  0  0999 V2000
    8.8583   -2.4485   27.7837 H   0  0  0  0  0  0  0  0  0  0  0  0
    9.2958   -2.8360   27.0025 O   0  0  0  0  0  0  0  0  0  0  0  0
    8.3201   -2.6030   26.1222 C   0  0  0  0  0  0  0  0  0  0  0  0
    7.3328   -2.0056   26.4934 O   0  0  0  0  0  0  0  0  0  0  0  0
    8.5201   -3.1368   24.6821 C   0  0  0  0  0  0  0  0  0  0  0  0
    9.6097   -3.8368   24.4066 O   0  0  0  0  0  0  0  0  0  0  0  0
    9.5388   -4.1036   23.4538 H   0  0  0  0  0  0  0  0  0  0  0  0
    7.5537   -2.8890   23.7453 C   0  0  0  0  0  0  0  0  0  0  0  0
    6.6652   -2.3741   24.0814 H   0  0  0  0  0  0  0  0  0  0  0  0
    7.6721   -3.3275   22.3630 C   0  0  0  0  0  0  0  0  0  0  0  0
    8.6219   -3.9769   21.9681 O   0  0  0  0  0  0  0  0  0  0  0  0
    6.3741   -2.6878   21.1190 S   0  0  0  0  0  0  0  0  0  0  0  0
    6.3693   -3.5017   19.9098 O   0  0  0  0  0  0  0  0  0  0  0  0
    5.0834   -2.5299   21.7722 O   0  0  0  0  0  0  0  0  0  0  0  0
    7.1056   -0.9996   20.8093 C   0  0  0  0  0  0  0  0  0  0  0  0
    6.9925   -0.5361   21.7969 H   0  0  0  0  0  0  0  0  0  0  0  0
    8.1646   -1.2003   20.6242 H   0  0  0  0  0  0  0  0  0  0  0  0
    6.5194   -0.1034   19.7438 C   0  0  0  0  0  0  0  0  0  0  0  0
    7.1418    0.1175   18.4929 C   0  0  0  0  0  0  0  0  0  0  0  0
    8.1274   -0.3071   18.2916 H   0  0  0  0  0  0  0  0  0  0  0  0
    6.6015    0.8390   17.5053 N   0  0  0  0  0  0  0  0  0  0  0  0
    5.4246    1.4371   17.7476 C   0  0  0  0  0  0  0  0  0  0  0  0
    4.9968    1.9960   16.9159 H   0  0  0  0  0  0  0  0  0  0  0  0
    4.7685    1.3686   18.9803 C   0  0  0  0  0  0  0  0  0  0  0  0
    3.8448    1.9167   19.1236 H   0  0  0  0  0  0  0  0  0  0  0  0
    5.3367    0.6025   20.0016 C   0  0  0  0  0  0  0  0  0  0  0  0
    4.8967    0.5646   21.0005 H   0  0  0  0  0  0  0  0  0  0  0  0
  1  2  1  0
  2  3  1  0
  3  4  2  0
  3  5  1  0
  5  6  1  0
  6  7  1  0
  5  8  2  3
  8  9  1  0
  8 10  1  0
 10 11  2  0
 10 12  1  0
 12 13  2  0
 12 14  2  0
 12 15  1  0
 15 16  1  0
 15 17  1  0
 15 18  1  0
 18 19  2  0
 19 20  1  0
 19 21  1  0
 21 22  2  0
 22 23  1  0
 22 24  1  0
 24 25  1  0
 24 26  2  0
 26 27  1  0
 26 18  1  0
M  END
>  <plip>  (1) 
-0.034482758620689655

>  <filename>  (1) 
[H][O][C](=[O])[C]([O][H])=[C]([H])[C](=[O])[S](=[O])(=[O])[C]([H])([H])[c]1[c]([H])[n][c]([H])[c]([H])[c]1[H]

$$$$
