
     RDKit          3D

 36 37  0  0  0  0  0  0  0  0999 V2000
   10.3923    0.0962   24.6992 H   0  0  0  0  0  0  0  0  0  0  0  0
   10.9502    0.9166   24.6734 O   0  0  0  0  0  0  0  0  0  0  0  0
   10.8001    0.9488   23.1317 P   0  0  0  0  0  0  0  0  0  0  0  0
   12.0155    1.2413   22.3869 O   0  0  0  0  0  0  0  0  0  0  0  0
   10.5771   -0.3579   23.8835 O   0  0  0  0  0  0  0  0  0  0  0  0
   11.2256    0.0116   24.5369 H   0  0  0  0  0  0  0  0  0  0  0  0
    9.5851    1.7600   22.1367 C   0  0  0  0  0  0  0  0  0  0  0  0
    9.8620    2.8000   22.1047 H   0  0  0  0  0  0  0  0  0  0  0  0
    9.1362    1.2562   20.7729 N   0  0  0  0  0  0  0  0  0  0  0  0
    8.3958    1.8223   20.3006 H   0  0  0  0  0  0  0  0  0  0  0  0
    8.7411   -0.0999   20.9888 N   0  0  0  0  0  0  0  0  0  0  0  0
    9.5726   -1.1906   21.1884 C   0  0  0  0  0  0  0  0  0  0  0  0
   10.7915   -1.2749   21.2010 O   0  0  0  0  0  0  0  0  0  0  0  0
    8.8309   -2.3327   21.2992 N   0  0  0  0  0  0  0  0  0  0  0  0
    9.2829   -3.1648   20.9377 H   0  0  0  0  0  0  0  0  0  0  0  0
    7.4187   -2.0488   21.0546 C   0  0  0  0  0  0  0  0  0  0  0  0
    7.0736   -2.4455   20.0950 H   0  0  0  0  0  0  0  0  0  0  0  0
    6.7895   -2.4686   21.8471 H   0  0  0  0  0  0  0  0  0  0  0  0
    7.3485   -0.5104   21.0561 C   0  0  2  0  0  0  0  0  0  0  0  0
    6.9128   -0.1658   22.0018 H   0  0  0  0  0  0  0  0  0  0  0  0
    6.5827    0.0471   19.8796 C   0  0  0  0  0  0  0  0  0  0  0  0
    7.1342    0.0162   18.5860 C   0  0  0  0  0  0  0  0  0  0  0  0
    8.0894   -0.4791   18.4387 H   0  0  0  0  0  0  0  0  0  0  0  0
    6.5522    0.5982   17.5236 N   0  0  0  0  0  0  0  0  0  0  0  0
    5.3899    1.2474   17.7207 C   0  0  0  0  0  0  0  0  0  0  0  0
    4.9211    1.7542   16.8836 H   0  0  0  0  0  0  0  0  0  0  0  0
    4.7682    1.3047   18.9727 C   0  0  0  0  0  0  0  0  0  0  0  0
    3.8367    1.8504   19.0752 H   0  0  0  0  0  0  0  0  0  0  0  0
    5.3618    0.6934   20.0749 C   0  0  0  0  0  0  0  0  0  0  0  0
    4.9081    0.7475   21.0649 H   0  0  0  0  0  0  0  0  0  0  0  0
    8.6893    1.5232   23.5791 P   0  0  0  0  0  0  0  0  0  0  0  0
    8.4339    0.1187   23.9092 O   0  0  0  0  0  0  0  0  0  0  0  0
    9.2271    2.3936   24.7189 O   0  0  0  0  0  0  0  0  0  0  0  0
    8.3475    2.7894   24.8566 H   0  0  0  0  0  0  0  0  0  0  0  0
    7.3312    2.1932   23.7233 O   0  0  0  0  0  0  0  0  0  0  0  0
    7.0536    1.6969   24.5025 H   0  0  0  0  0  0  0  0  0  0  0  0
  1  2  1  0
  2  3  1  0
  3  4  2  0
  3  5  1  0
  5  6  1  0
  3  7  1  0
  7  8  1  0
  7  9  1  0
  9 10  1  0
  9 11  1  0
 11 12  1  0
 12 13  2  0
 12 14  1  0
 14 15  1  0
 14 16  1  0
 16 17  1  0
 16 18  1  0
 16 19  1  0
 19 20  1  1
 19 21  1  0
 21 22  2  0
 22 23  1  0
 22 24  1  0
 24 25  2  0
 25 26  1  0
 25 27  1  0
 27 28  1  0
 27 29  2  0
 29 30  1  0
  7 31  1  0
 31 32  2  0
 31 33  1  0
 33 34  1  0
 31 35  1  0
 35 36  1  0
 19 11  1  0
 29 21  1  0
M  END
>  <plip>  (1) 
-0.06666666666666667

>  <filename>  (1) 
[H][O][P](=[O])([O][H])[C]([H])([N]([H])[N]1[C](=[O])[N]([H])[C]([H])([H])[C@]1([H])[c]1[c]([H])[n][c]([H])[c]([H])[c]1[H])[P](=[O])([O][H])[O][H]

$$$$
