
     RDKit          3D

 38 39  0  0  0  0  0  0  0  0999 V2000
    6.0563   -2.0356   24.4080 O   0  0  0  0  0  0  0  0  0  0  0  0
    6.1259   -0.8762   25.2603 C   0  0  0  0  0  0  0  0  0  0  0  0
    6.0150    0.3849   24.4058 C   0  0  0  0  0  0  0  0  0  0  0  0
    6.9227    0.4248   23.1891 C   0  0  0  0  0  0  0  0  0  0  0  0
    6.7181   -0.8026   22.3452 N   0  0  0  0  0  4  0  0  0  0  0  0
    7.4110   -0.7985   21.0253 C   0  0  0  0  0  0  0  0  0  0  0  0
    8.8513   -0.2506   21.1476 C   0  0  0  0  0  0  0  0  0  0  0  0
    9.9248   -1.1117   21.4212 C   0  0  0  0  0  0  0  0  0  0  0  0
   11.2123   -0.6165   21.6702 C   0  0  0  0  0  0  0  0  0  0  0  0
   11.4435    0.7627   21.6530 C   0  0  0  0  0  0  0  0  0  0  0  0
   12.6583    1.2994   21.9379 O   0  0  0  0  0  0  0  0  0  0  0  0
   13.2990    0.5824   21.9933 H   0  0  0  0  0  0  0  0  0  0  0  0
   10.3986    1.6397   21.3309 C   0  0  0  0  0  0  0  0  0  0  0  0
    9.1282    1.1301   21.0706 C   0  0  0  0  0  0  0  0  0  0  0  0
    8.3254    1.8164   20.7944 H   0  0  0  0  0  0  0  0  0  0  0  0
   10.5961    2.7043   21.2834 H   0  0  0  0  0  0  0  0  0  0  0  0
   12.0311   -1.3021   21.8773 H   0  0  0  0  0  0  0  0  0  0  0  0
    9.7527   -2.1860   21.4289 H   0  0  0  0  0  0  0  0  0  0  0  0
    6.5997   -0.0544   19.9699 C   0  0  0  0  0  0  0  0  0  0  0  0
    5.3949    0.6376   20.1698 C   0  0  0  0  0  0  0  0  0  0  0  0
    4.8084    1.3156   19.0986 C   0  0  0  0  0  0  0  0  0  0  0  0
    5.4376    1.2870   17.8524 C   0  0  0  0  0  0  0  0  0  0  0  0
    6.5841    0.6262   17.6337 N   0  0  0  0  0  0  0  0  0  0  0  0
    7.1351   -0.0148   18.6710 C   0  0  0  0  0  0  0  0  0  0  0  0
    8.0787   -0.5165   18.4553 H   0  0  0  0  0  0  0  0  0  0  0  0
    5.0077    1.8092   16.9977 H   0  0  0  0  0  0  0  0  0  0  0  0
    3.8859    1.8735   19.2152 H   0  0  0  0  0  0  0  0  0  0  0  0
    4.9137    0.6786   21.1477 H   0  0  0  0  0  0  0  0  0  0  0  0
    7.5096   -1.8361   20.6859 H   0  0  0  0  0  0  0  0  0  0  0  0
    6.9928   -1.6016   22.9551 H   0  0  0  0  0  0  0  0  0  0  0  0
    5.7020   -0.9627   22.1927 H   0  0  0  0  0  0  0  0  0  0  0  0
    6.7494    1.3375   22.6018 H   0  0  0  0  0  0  0  0  0  0  0  0
    7.9709    0.4556   23.5102 H   0  0  0  0  0  0  0  0  0  0  0  0
    4.9773    0.5292   24.0980 H   0  0  0  0  0  0  0  0  0  0  0  0
    6.2480    1.2603   25.0240 H   0  0  0  0  0  0  0  0  0  0  0  0
    5.3122   -0.8824   26.0042 H   0  0  0  0  0  0  0  0  0  0  0  0
    7.0812   -0.8918   25.8038 H   0  0  0  0  0  0  0  0  0  0  0  0
    5.6949   -2.7684   24.9198 H   0  0  0  0  0  0  0  0  0  0  0  0
  1  2  1  0
  2  3  1  0
  3  4  1  0
  4  5  1  0
  5  6  1  0
  6  7  1  0
  7  8  2  0
  8  9  1  0
  9 10  2  0
 10 11  1  0
 11 12  1  0
 10 13  1  0
 13 14  2  0
 14 15  1  0
 13 16  1  0
  9 17  1  0
  8 18  1  0
  6 19  1  0
 19 20  2  0
 20 21  1  0
 21 22  2  0
 22 23  1  0
 23 24  2  0
 24 25  1  0
 22 26  1  0
 21 27  1  0
 20 28  1  0
  6 29  1  0
  5 30  1  0
  5 31  1  0
  4 32  1  0
  4 33  1  0
  3 34  1  0
  3 35  1  0
  2 36  1  0
  2 37  1  0
  1 38  1  0
 14  7  1  0
 24 19  1  0
M  CHG  1   5   1
M  END
>  <plip>  (1) 
-0.07142857142857142

>  <filename>  (1) 
[H][O][c]1[c]([H])[c]([H])[c]([C]([H])([c]2[c]([H])[n][c]([H])[c]([H])[c]2[H])[N+]([H])([H])[C]([H])([H])[C]([H])([H])[C]([H])([H])[O][H])[c]([H])[c]1[H]

$$$$
