
     RDKit          3D

 39 41  0  0  0  0  0  0  0  0999 V2000
    8.2816   -0.8430   24.0064 C   0  0  0  0  0  0  0  0  0  0  0  0
    9.1144   -0.4538   22.7822 C   0  0  0  0  0  0  0  0  0  0  0  0
    8.3070    0.0387   21.6261 N   0  0  0  0  0  4  0  0  0  0  0  0
    7.3072   -0.8245   20.9660 C   0  0  0  0  0  0  0  0  0  0  0  0
    6.6417    0.0126   19.9069 C   0  0  0  0  0  0  0  0  0  0  0  0
    5.4238    0.6784   20.1139 C   0  0  0  0  0  0  0  0  0  0  0  0
    4.8402    1.3711   19.0504 C   0  0  0  0  0  0  0  0  0  0  0  0
    5.5003    1.3892   17.8190 C   0  0  0  0  0  0  0  0  0  0  0  0
    6.6788    0.7852   17.6087 N   0  0  0  0  0  0  0  0  0  0  0  0
    7.2302    0.1324   18.6379 C   0  0  0  0  0  0  0  0  0  0  0  0
    8.1880   -0.3464   18.4272 H   0  0  0  0  0  0  0  0  0  0  0  0
    5.0647    1.9041   16.9621 H   0  0  0  0  0  0  0  0  0  0  0  0
    3.8964    1.8951   19.1585 H   0  0  0  0  0  0  0  0  0  0  0  0
    4.9442    0.6623   21.0955 H   0  0  0  0  0  0  0  0  0  0  0  0
    6.5558   -1.1946   21.6754 H   0  0  0  0  0  0  0  0  0  0  0  0
    7.7742   -1.7109   20.5139 H   0  0  0  0  0  0  0  0  0  0  0  0
    8.9834    0.3779   20.9092 H   0  0  0  0  0  0  0  0  0  0  0  0
    7.8138    0.8990   21.9667 H   0  0  0  0  0  0  0  0  0  0  0  0
   10.1226    0.6465   23.0402 C   0  0  0  0  0  0  0  0  0  0  0  0
    9.8690    1.8599   23.5754 C   0  0  0  0  0  0  0  0  0  0  0  0
   10.9234    2.8855   23.6398 C   0  0  0  0  0  0  0  0  0  0  0  0
   10.7667    4.1622   24.2325 C   0  0  0  0  0  0  0  0  0  0  0  0
   11.7859    5.1055   24.1756 C   0  0  0  0  0  0  0  0  0  0  0  0
   12.9971    4.8034   23.5255 C   0  0  0  0  0  0  0  0  0  0  0  0
   13.1834    3.5498   22.9506 C   0  0  0  0  0  0  0  0  0  0  0  0
   12.1544    2.5990   23.0094 C   0  0  0  0  0  0  0  0  0  0  0  0
   12.3665    1.4163   22.3633 O   0  0  0  0  0  0  0  0  0  0  0  0
   11.5808    0.3016   22.7768 C   0  0  0  0  0  0  0  0  0  0  0  0
   11.6591   -0.4110   21.9515 H   0  0  0  0  0  0  0  0  0  0  0  0
   12.0537   -0.1709   23.6610 H   0  0  0  0  0  0  0  0  0  0  0  0
   14.0881    3.2780   22.4176 H   0  0  0  0  0  0  0  0  0  0  0  0
   13.7708    5.5662   23.4583 H   0  0  0  0  0  0  0  0  0  0  0  0
   11.6545    6.0869   24.6271 H   0  0  0  0  0  0  0  0  0  0  0  0
    9.8294    4.4189   24.7246 H   0  0  0  0  0  0  0  0  0  0  0  0
    8.8918    2.1484   23.9588 H   0  0  0  0  0  0  0  0  0  0  0  0
    9.6576   -1.3590   22.4817 H   0  0  0  0  0  0  0  0  0  0  0  0
    7.7184   -0.0043   24.4276 H   0  0  0  0  0  0  0  0  0  0  0  0
    7.5735   -1.6389   23.7547 H   0  0  0  0  0  0  0  0  0  0  0  0
    8.9473   -1.2259   24.7852 H   0  0  0  0  0  0  0  0  0  0  0  0
  1  2  1  0
  2  3  1  0
  3  4  1  0
  4  5  1  0
  5  6  2  0
  6  7  1  0
  7  8  2  0
  8  9  1  0
  9 10  2  0
 10 11  1  0
  8 12  1  0
  7 13  1  0
  6 14  1  0
  4 15  1  0
  4 16  1  0
  3 17  1  0
  3 18  1  0
  2 19  1  0
 19 20  2  0
 20 21  1  0
 21 22  2  0
 22 23  1  0
 23 24  2  0
 24 25  1  0
 25 26  2  0
 26 27  1  0
 27 28  1  0
 28 29  1  0
 28 30  1  0
 25 31  1  0
 24 32  1  0
 23 33  1  0
 22 34  1  0
 20 35  1  0
  2 36  1  0
  1 37  1  0
  1 38  1  0
  1 39  1  0
 10  5  1  0
 28 19  1  0
 26 21  1  0
M  CHG  1   3   1
M  END
>  <plip>  (1) 
-0.07142857142857142

>  <filename>  (1) 
[H][C]1=[C]([C]([H])([C]([H])([H])[H])[N+]([H])([H])[C]([H])([H])[c]2[c]([H])[n][c]([H])[c]([H])[c]2[H])[C]([H])([H])[O][c]2[c]([H])[c]([H])[c]([H])[c]([H])[c]21

$$$$
