
     RDKit          3D

 39 41  0  0  0  0  0  0  0  0999 V2000
    7.0015   -2.9982   20.9065 C   0  0  0  0  0  0  0  0  0  0  0  0
    6.6733   -1.7358   21.6764 C   0  0  0  0  0  0  0  0  0  0  0  0
    7.3425   -0.5785   21.0494 N   0  0  0  0  0  0  0  0  0  0  0  0
    8.6160   -0.2603   21.5276 C   0  0  0  0  0  0  0  0  0  0  0  0
    9.2386   -1.0528   22.2092 O   0  0  0  0  0  0  0  0  0  0  0  0
    9.0642    1.1874   21.2665 C   0  0  2  0  0  0  0  0  0  0  0  0
   10.4825    1.3512   21.3848 O   0  0  0  0  0  0  0  0  0  0  0  0
   10.7181    2.4342   22.1737 C   0  0  0  0  0  0  0  0  0  0  0  0
   11.9922    2.8850   22.5126 C   0  0  0  0  0  0  0  0  0  0  0  0
   12.0790    3.9930   23.3637 C   0  0  0  0  0  0  0  0  0  0  0  0
   10.9258    4.6292   23.8483 C   0  0  0  0  0  0  0  0  0  0  0  0
    9.6552    4.1495   23.4949 C   0  0  0  0  0  0  0  0  0  0  0  0
    9.5602    3.0332   22.6603 C   0  0  0  0  0  0  0  0  0  0  0  0
    8.3563    2.2351   22.2146 C   0  0  2  0  0  0  0  0  0  0  0  0
    7.5289    1.6691   23.3864 C   0  0  0  0  0  0  0  0  0  0  0  0
    7.1760    2.4855   24.0252 H   0  0  0  0  0  0  0  0  0  0  0  0
    8.1185    0.9883   24.0097 H   0  0  0  0  0  0  0  0  0  0  0  0
    6.6508    1.1267   23.0203 H   0  0  0  0  0  0  0  0  0  0  0  0
    7.6722    2.8389   21.5923 H   0  0  0  0  0  0  0  0  0  0  0  0
    8.7573    4.6324   23.8779 H   0  0  0  0  0  0  0  0  0  0  0  0
   11.0158    5.4827   24.5150 H   0  0  0  0  0  0  0  0  0  0  0  0
   13.0621    4.3527   23.6599 H   0  0  0  0  0  0  0  0  0  0  0  0
   12.8627    2.3701   22.1199 H   0  0  0  0  0  0  0  0  0  0  0  0
    8.8034    1.4191   20.2353 H   0  0  0  0  0  0  0  0  0  0  0  0
    6.6815    0.0415   19.9405 C   0  0  0  0  0  0  0  0  0  0  0  0
    5.4482    0.6665   20.1592 C   0  0  0  0  0  0  0  0  0  0  0  0
    4.8205    1.3112   19.0902 C   0  0  0  0  0  0  0  0  0  0  0  0
    5.4201    1.2809   17.8277 C   0  0  0  0  0  0  0  0  0  0  0  0
    6.5722    0.6363   17.5793 N   0  0  0  0  0  0  0  0  0  0  0  0
    7.1794    0.0284   18.6112 C   0  0  0  0  0  0  0  0  0  0  0  0
    8.1070   -0.4989   18.3838 H   0  0  0  0  0  0  0  0  0  0  0  0
    4.9498    1.7819   16.9842 H   0  0  0  0  0  0  0  0  0  0  0  0
    3.8789    1.8269   19.2351 H   0  0  0  0  0  0  0  0  0  0  0  0
    5.0095    0.6482   21.1573 H   0  0  0  0  0  0  0  0  0  0  0  0
    5.5932   -1.5482   21.6813 H   0  0  0  0  0  0  0  0  0  0  0  0
    7.0287   -1.8216   22.7129 H   0  0  0  0  0  0  0  0  0  0  0  0
    8.0926   -3.1030   20.8824 H   0  0  0  0  0  0  0  0  0  0  0  0
    6.5906   -2.9378   19.8890 H   0  0  0  0  0  0  0  0  0  0  0  0
    6.5879   -3.8767   21.4064 H   0  0  0  0  0  0  0  0  0  0  0  0
  1  2  1  0
  2  3  1  0
  3  4  1  0
  4  5  2  0
  4  6  1  0
  6  7  1  0
  7  8  1  0
  8  9  2  0
  9 10  1  0
 10 11  2  0
 11 12  1  0
 12 13  2  0
 13 14  1  0
 14 15  1  0
 15 16  1  0
 15 17  1  0
 15 18  1  0
 14 19  1  6
 12 20  1  0
 11 21  1  0
 10 22  1  0
  9 23  1  0
  6 24  1  6
  3 25  1  0
 25 26  2  0
 26 27  1  0
 27 28  2  0
 28 29  1  0
 29 30  2  0
 30 31  1  0
 28 32  1  0
 27 33  1  0
 26 34  1  0
  2 35  1  0
  2 36  1  0
  1 37  1  0
  1 38  1  0
  1 39  1  0
 14  6  1  0
 30 25  1  0
 13  8  1  0
M  END
>  <plip>  (1) 
-0.07142857142857142

>  <filename>  (1) 
[H][c]1[n][c]([H])[c]([N]([C](=[O])[C@]2([H])[O][c]3[c]([H])[c]([H])[c]([H])[c]([H])[c]3[C@]2([H])[C]([H])([H])[H])[C]([H])([H])[C]([H])([H])[H])[c]([H])[c]1[H]

$$$$
