
     RDKit          3D

 33 35  0  0  0  0  0  0  0  0999 V2000
    4.9562    1.8501   16.9693 H   0  0  0  0  0  0  0  0  0  0  0  0
    5.4580    1.3339   17.7856 C   0  0  0  0  0  0  0  0  0  0  0  0
    6.6353    0.7567   17.4936 N   0  0  0  0  0  0  0  0  0  0  0  0
    7.2732    0.1096   18.4761 C   0  0  0  0  0  0  0  0  0  0  0  0
    8.2481   -0.3106   18.2417 H   0  0  0  0  0  0  0  0  0  0  0  0
    6.7447   -0.0487   19.7759 C   0  0  0  0  0  0  0  0  0  0  0  0
    7.4054   -0.8396   20.7763 N   0  0  0  0  0  0  0  0  0  0  0  0
    8.7715   -0.7607   21.0763 C   0  0  0  0  0  0  0  0  0  0  0  0
    9.5512    0.0308   20.5946 O   0  0  0  0  0  0  0  0  0  0  0  0
    9.0586   -1.7402   22.0039 N   0  0  0  0  0  0  0  0  0  0  0  0
   10.3510   -1.7542   22.6896 C   0  0  0  0  0  0  0  0  0  0  0  0
   10.5383   -2.7515   23.0996 H   0  0  0  0  0  0  0  0  0  0  0  0
   11.1354   -1.5583   21.9512 H   0  0  0  0  0  0  0  0  0  0  0  0
   10.4153   -0.7105   23.7862 C   0  0  0  0  0  0  0  0  0  0  0  0
   10.8490    0.5896   23.4697 C   0  0  0  0  0  0  0  0  0  0  0  0
   11.2269    0.7834   22.4648 H   0  0  0  0  0  0  0  0  0  0  0  0
   10.7250    1.6320   24.3895 C   0  0  0  0  0  0  0  0  0  0  0  0
   10.9862    2.6503   24.1095 H   0  0  0  0  0  0  0  0  0  0  0  0
   10.2019    1.3698   25.6619 C   0  0  0  0  0  0  0  0  0  0  0  0
   10.0560    2.1808   26.3621 H   0  0  0  0  0  0  0  0  0  0  0  0
    9.8203    0.0763   26.0262 C   0  0  0  0  0  0  0  0  0  0  0  0
    9.4200   -0.1555   27.0114 H   0  0  0  0  0  0  0  0  0  0  0  0
    9.9376   -0.9533   25.0888 C   0  0  0  0  0  0  0  0  0  0  0  0
    9.4439   -2.5664   25.5639 Cl  0  0  0  0  0  0  0  0  0  0  0  0
    7.8192   -2.1456   22.6484 C   0  0  0  0  0  0  0  0  0  0  0  0
    7.7735   -3.2048   22.9063 H   0  0  0  0  0  0  0  0  0  0  0  0
    7.5945   -1.5422   23.5403 H   0  0  0  0  0  0  0  0  0  0  0  0
    6.8050   -1.8080   21.5807 C   0  0  0  0  0  0  0  0  0  0  0  0
    5.7303   -2.3201   21.4038 O   0  0  0  0  0  0  0  0  0  0  0  0
    5.5342    0.5846   20.0743 C   0  0  0  0  0  0  0  0  0  0  0  0
    5.1287    0.5229   21.0816 H   0  0  0  0  0  0  0  0  0  0  0  0
    4.8807    1.2897   19.0575 C   0  0  0  0  0  0  0  0  0  0  0  0
    3.9454    1.8061   19.2404 H   0  0  0  0  0  0  0  0  0  0  0  0
  1  2  1  0
  2  3  2  0
  3  4  1  0
  4  5  1  0
  4  6  2  0
  6  7  1  0
  7  8  1  0
  8  9  2  0
  8 10  1  0
 10 11  1  0
 11 12  1  0
 11 13  1  0
 11 14  1  0
 14 15  2  0
 15 16  1  0
 15 17  1  0
 17 18  1  0
 17 19  2  0
 19 20  1  0
 19 21  1  0
 21 22  1  0
 21 23  2  0
 23 24  1  0
 10 25  1  0
 25 26  1  0
 25 27  1  0
 25 28  1  0
 28 29  2  0
  6 30  1  0
 30 31  1  0
 30 32  2  0
 32 33  1  0
 32  2  1  0
 28  7  1  0
 23 14  1  0
M  END
>  <plip>  (1) 
-0.13793103448275862

>  <filename>  (1) 
[H][c]1[n][c]([H])[c]([N]2[C](=[O])[N]([C]([H])([H])[c]3[c]([H])[c]([H])[c]([H])[c]([H])[c]3[Cl])[C]([H])([H])[C]2=[O])[c]([H])[c]1[H]

$$$$
