
     RDKit          3D

 55 58  0  0  0  0  0  0  0  0999 V2000
    4.1921   -6.7177   26.0926 C   0  0  0  0  0  0  0  0  0  0  0  0
    3.5737   -5.4195   26.5641 C   0  0  0  0  0  0  0  0  0  0  0  0
    2.6727   -5.4359   27.6429 C   0  0  0  0  0  0  0  0  0  0  0  0
    2.0909   -4.2680   28.1491 C   0  0  0  0  0  0  0  0  0  0  0  0
    2.4035   -3.0328   27.5774 C   0  0  0  0  0  0  0  0  0  0  0  0
    3.2836   -2.9807   26.4966 C   0  0  0  0  0  0  0  0  0  0  0  0
    3.8515   -4.1589   25.9850 C   0  0  0  0  0  0  0  0  0  0  0  0
    4.7404   -4.0349   24.8748 N   0  0  0  0  0  0  0  0  0  0  0  0
    5.6334   -3.0393   24.6486 C   0  0  0  0  0  0  0  0  0  0  0  0
    6.1816   -3.3334   23.4347 C   0  0  0  0  0  0  0  0  0  0  0  0
    7.1994   -2.5703   22.6553 C   0  0  0  0  0  0  0  0  0  0  0  0
    6.5707   -1.5010   21.8214 N   0  0  0  0  0  4  0  0  0  0  0  0
    7.4790   -0.7021   20.9616 C   0  0  0  0  0  0  0  0  0  0  0  0
    6.6254   -0.0228   19.9164 C   0  0  0  0  0  0  0  0  0  0  0  0
    5.4065    0.6366   20.1506 C   0  0  0  0  0  0  0  0  0  0  0  0
    4.7803    1.3082   19.0929 C   0  0  0  0  0  0  0  0  0  0  0  0
    5.3833    1.2921   17.8332 C   0  0  0  0  0  0  0  0  0  0  0  0
    6.5350    0.6546   17.5796 N   0  0  0  0  0  0  0  0  0  0  0  0
    7.1281    0.0309   18.6041 C   0  0  0  0  0  0  0  0  0  0  0  0
    8.0834   -0.4469   18.3703 H   0  0  0  0  0  0  0  0  0  0  0  0
    4.9335    1.8135   16.9900 H   0  0  0  0  0  0  0  0  0  0  0  0
    3.8551    1.8614   19.2312 H   0  0  0  0  0  0  0  0  0  0  0  0
    4.9421    0.6619   21.1405 H   0  0  0  0  0  0  0  0  0  0  0  0
    8.4158    0.2276   21.7884 C   0  0  0  0  0  0  0  0  0  0  0  0
    7.6972    1.2223   22.7438 C   0  0  0  0  0  0  0  0  0  0  0  0
    8.5640    2.4630   23.0996 C   0  0  0  0  0  0  0  0  0  0  0  0
   10.0725    2.1540   23.0463 C   0  0  0  0  0  0  0  0  0  0  0  0
   10.5104    1.6944   21.6279 C   0  0  0  0  0  0  0  0  0  0  0  0
    9.3759    0.9783   20.8610 C   0  0  0  0  0  0  0  0  0  0  0  0
    8.7670    1.7226   20.3267 H   0  0  0  0  0  0  0  0  0  0  0  0
    9.7774    0.2866   20.1112 H   0  0  0  0  0  0  0  0  0  0  0  0
   10.8391    2.5578   21.0329 H   0  0  0  0  0  0  0  0  0  0  0  0
   11.3878    1.0395   21.7217 H   0  0  0  0  0  0  0  0  0  0  0  0
   10.6590    3.0277   23.3614 H   0  0  0  0  0  0  0  0  0  0  0  0
   10.2974    1.3596   23.7742 H   0  0  0  0  0  0  0  0  0  0  0  0
    8.3461    3.2764   22.3887 H   0  0  0  0  0  0  0  0  0  0  0  0
    8.2803    2.8405   24.0900 H   0  0  0  0  0  0  0  0  0  0  0  0
    7.4198    0.6808   23.6602 H   0  0  0  0  0  0  0  0  0  0  0  0
    6.7622    1.5828   22.2917 H   0  0  0  0  0  0  0  0  0  0  0  0
    9.0150   -0.4528   22.4138 H   0  0  0  0  0  0  0  0  0  0  0  0
    8.1546   -1.3880   20.4310 H   0  0  0  0  0  0  0  0  0  0  0  0
    5.8238   -1.8977   21.1943 H   0  0  0  0  0  0  0  0  0  0  0  0
    6.0871   -0.8018   22.4440 H   0  0  0  0  0  0  0  0  0  0  0  0
    7.7529   -3.2786   22.0295 H   0  0  0  0  0  0  0  0  0  0  0  0
    7.9178   -2.1380   23.3668 H   0  0  0  0  0  0  0  0  0  0  0  0
    5.6200   -4.4862   22.9793 N   0  0  0  0  0  0  0  0  0  0  0  0
    4.7461   -4.8965   23.8452 N   0  0  0  0  0  0  0  0  0  0  0  0
    5.7918   -2.2282   25.3390 H   0  0  0  0  0  0  0  0  0  0  0  0
    3.5275   -2.0239   26.0378 H   0  0  0  0  0  0  0  0  0  0  0  0
    1.9802   -2.1088   27.9677 H   0  0  0  0  0  0  0  0  0  0  0  0
    1.4013   -4.3214   28.9884 H   0  0  0  0  0  0  0  0  0  0  0  0
    2.4378   -6.4002   28.0901 H   0  0  0  0  0  0  0  0  0  0  0  0
    3.7567   -7.0317   25.1382 H   0  0  0  0  0  0  0  0  0  0  0  0
    4.0422   -7.5138   26.8277 H   0  0  0  0  0  0  0  0  0  0  0  0
    5.2662   -6.6041   25.9107 H   0  0  0  0  0  0  0  0  0  0  0  0
  1  2  1  0
  2  3  2  0
  3  4  1  0
  4  5  2  0
  5  6  1  0
  6  7  2  0
  7  8  1  0
  8  9  1  0
  9 10  2  0
 10 11  1  0
 11 12  1  0
 12 13  1  0
 13 14  1  0
 14 15  2  0
 15 16  1  0
 16 17  2  0
 17 18  1  0
 18 19  2  0
 19 20  1  0
 17 21  1  0
 16 22  1  0
 15 23  1  0
 13 24  1  0
 24 25  1  0
 25 26  1  0
 26 27  1  0
 27 28  1  0
 28 29  1  0
 29 30  1  0
 29 31  1  0
 28 32  1  0
 28 33  1  0
 27 34  1  0
 27 35  1  0
 26 36  1  0
 26 37  1  0
 25 38  1  0
 25 39  1  0
 24 40  1  0
 13 41  1  0
 12 42  1  0
 12 43  1  0
 11 44  1  0
 11 45  1  0
 10 46  1  0
 46 47  2  0
  9 48  1  0
  6 49  1  0
  5 50  1  0
  4 51  1  0
  3 52  1  0
  1 53  1  0
  1 54  1  0
  1 55  1  0
  7  2  1  0
 47  8  1  0
 19 14  1  0
 29 24  1  0
M  CHG  1  12   1
M  END
>  <plip>  (1) 
-0.07142857142857142

>  <filename>  (1) 
[H][c]1[n][c]([H])[c]([C]([H])([C]2([H])[C]([H])([H])[C]([H])([H])[C]([H])([H])[C]([H])([H])[C]2([H])[H])[N+]([H])([H])[C]([H])([H])[c]2[n][n][n](-[c]3[c]([H])[c]([H])[c]([H])[c]([H])[c]3[C]([H])([H])[H])[c]2[H])[c]([H])[c]1[H]

$$$$
