
     RDKit          3D

 16 16  0  0  0  0  0  0  0  0999 V2000
   10.2128    1.7686   21.4625 H   0  0  0  0  0  0  0  0  0  0  0  0
    9.6572    0.8786   21.1803 C   0  0  0  0  0  0  0  0  0  0  0  0
   10.0958    0.2018   20.4510 H   0  0  0  0  0  0  0  0  0  0  0  0
    8.4779    0.5995   21.7189 C   0  0  0  0  0  0  0  0  0  0  0  0
    7.9751    1.2624   22.4236 H   0  0  0  0  0  0  0  0  0  0  0  0
    7.5278   -0.8244   21.2126 S   0  0  0  0  0  0  0  0  0  0  0  0
    6.6257   -0.0257   19.8902 C   0  0  0  0  0  0  0  0  0  0  0  0
    7.1547    0.0484   18.5887 C   0  0  0  0  0  0  0  0  0  0  0  0
    8.1089   -0.4271   18.3716 H   0  0  0  0  0  0  0  0  0  0  0  0
    6.5614    0.6804   17.5682 N   0  0  0  0  0  0  0  0  0  0  0  0
    5.3987    1.2958   17.8313 C   0  0  0  0  0  0  0  0  0  0  0  0
    4.9161    1.7877   16.9893 H   0  0  0  0  0  0  0  0  0  0  0  0
    4.7994    1.3110   19.0977 C   0  0  0  0  0  0  0  0  0  0  0  0
    3.8703    1.8477   19.2557 H   0  0  0  0  0  0  0  0  0  0  0  0
    5.4199    0.6371   20.1530 C   0  0  0  0  0  0  0  0  0  0  0  0
    5.0034    0.6299   21.1664 H   0  0  0  0  0  0  0  0  0  0  0  0
  1  2  1  0
  2  3  1  0
  2  4  2  3
  4  5  1  0
  4  6  1  0
  6  7  1  0
  7  8  2  0
  8  9  1  0
  8 10  1  0
 10 11  2  0
 11 12  1  0
 11 13  1  0
 13 14  1  0
 13 15  2  0
 15 16  1  0
 15  7  1  0
M  END
>  <plip>  (1) 
-0.0

>  <filename>  (1) 
[H][C]([H])=[C]([H])[S][c]1[c]([H])[n][c]([H])[c]([H])[c]1[H]

$$$$
