
     RDKit          3D

 35 37  0  0  0  0  0  0  0  0999 V2000
   12.9311    4.9968   23.2399 H   0  0  0  0  0  0  0  0  0  0  0  0
   13.1311    4.1240   23.6281 O   0  0  0  0  0  0  0  0  0  0  0  0
   12.6958    3.3842   22.6021 C   0  0  0  0  0  0  0  0  0  0  0  0
   12.2618    3.9550   21.6280 O   0  0  0  0  0  0  0  0  0  0  0  0
   12.7454    1.8467   22.7708 C   0  0  0  0  0  0  0  0  0  0  0  0
   13.6298    1.3330   23.6235 O   0  0  0  0  0  0  0  0  0  0  0  0
   13.6090    0.3484   23.4767 H   0  0  0  0  0  0  0  0  0  0  0  0
   11.8693    1.0470   22.1015 C   0  0  0  0  0  0  0  0  0  0  0  0
   11.1689    1.4661   21.3934 H   0  0  0  0  0  0  0  0  0  0  0  0
   11.8293   -0.3922   22.3090 C   0  0  0  0  0  0  0  0  0  0  0  0
   12.8311   -0.9925   22.7233 O   0  0  0  0  0  0  0  0  0  0  0  0
   10.5680   -1.1279   22.0131 C   0  0  0  0  0  0  0  0  0  0  0  0
    9.2947   -0.7101   21.6487 C   0  0  0  0  0  0  0  0  0  0  0  0
    8.5561   -1.8832   21.5308 C   0  0  0  0  0  0  0  0  0  0  0  0
    9.2566   -2.9654   21.7983 N   0  0  0  0  0  0  0  0  0  0  0  0
   10.4735   -2.4916   22.1047 N   0  0  0  0  0  0  0  0  0  0  0  0
   11.2114   -3.1614   22.2963 H   0  0  0  0  0  0  0  0  0  0  0  0
    7.1538   -1.6674   21.0819 C   0  0  0  0  0  0  0  0  0  0  0  0
    7.0082   -2.0809   20.0801 H   0  0  0  0  0  0  0  0  0  0  0  0
    6.4268   -2.1616   21.7286 H   0  0  0  0  0  0  0  0  0  0  0  0
    7.0109   -0.1144   21.1135 C   0  0  2  0  0  0  0  0  0  0  0  0
    6.4094    0.1240   21.9982 H   0  0  0  0  0  0  0  0  0  0  0  0
    6.3304    0.4413   19.8863 C   0  0  0  0  0  0  0  0  0  0  0  0
    6.9435    0.3278   18.6222 C   0  0  0  0  0  0  0  0  0  0  0  0
    7.9041   -0.1842   18.5187 H   0  0  0  0  0  0  0  0  0  0  0  0
    6.4383    0.8259   17.4884 N   0  0  0  0  0  0  0  0  0  0  0  0
    5.2648    1.4712   17.5737 C   0  0  0  0  0  0  0  0  0  0  0  0
    4.8875    1.8820   16.6414 H   0  0  0  0  0  0  0  0  0  0  0  0
    4.5475    1.6114   18.7639 C   0  0  0  0  0  0  0  0  0  0  0  0
    3.5998    2.1368   18.7613 H   0  0  0  0  0  0  0  0  0  0  0  0
    5.0887    1.0876   19.9398 C   0  0  0  0  0  0  0  0  0  0  0  0
    4.5679    1.1793   20.8947 H   0  0  0  0  0  0  0  0  0  0  0  0
    8.4445    0.4879   21.3385 C   0  0  0  0  0  0  0  0  0  0  0  0
    8.7918    1.0059   20.4350 H   0  0  0  0  0  0  0  0  0  0  0  0
    8.4309    1.2450   22.1332 H   0  0  0  0  0  0  0  0  0  0  0  0
  1  2  1  0
  2  3  1  0
  3  4  2  0
  3  5  1  0
  5  6  1  0
  6  7  1  0
  5  8  2  3
  8  9  1  0
  8 10  1  0
 10 11  2  0
 10 12  1  0
 12 13  2  0
 13 14  1  0
 14 15  2  0
 15 16  1  0
 16 17  1  0
 14 18  1  0
 18 19  1  0
 18 20  1  0
 18 21  1  0
 21 22  1  1
 21 23  1  0
 23 24  2  0
 24 25  1  0
 24 26  1  0
 26 27  2  0
 27 28  1  0
 27 29  1  0
 29 30  1  0
 29 31  2  0
 31 32  1  0
 21 33  1  0
 33 34  1  0
 33 35  1  0
 16 12  1  0
 31 23  1  0
 33 13  1  0
M  END
>  <plip>  (1) 
-0.03225806451612903

>  <filename>  (1) 
[H][O][C](=[O])[C]([O][H])=[C]([H])[C](=[O])[c]1[c]2[c]([n][n]1[H])[C]([H])([H])[C@]([H])([c]1[c]([H])[n][c]([H])[c]([H])[c]1[H])[C]2([H])[H]

$$$$
