
     RDKit          3D

 28 30  0  0  0  0  0  0  0  0999 V2000
    8.2911   -1.1523   20.6721 H   0  0  0  0  0  0  0  0  0  0  0  0
    7.3448   -0.6791   20.9599 C   0  0  0  0  0  0  0  0  0  0  0  0
    6.8979   -0.7508   22.1716 N   0  0  0  0  0  0  0  0  0  0  0  0
    7.5992   -1.4045   23.1247 C   0  0  0  0  0  0  0  0  0  0  0  0
    8.7959   -2.1004   23.1203 C   0  0  0  0  0  0  0  0  0  0  0  0
    9.4244   -2.2448   22.2517 H   0  0  0  0  0  0  0  0  0  0  0  0
    9.0054   -2.5778   24.4424 C   0  0  0  0  0  0  0  0  0  0  0  0
    9.9956   -3.3893   25.0412 C   0  0  0  0  0  0  0  0  0  0  0  0
   10.8665   -3.6959   24.4661 H   0  0  0  0  0  0  0  0  0  0  0  0
    9.8139   -3.8069   26.3498 C   0  0  0  0  0  0  0  0  0  0  0  0
   10.5594   -4.4427   26.8087 H   0  0  0  0  0  0  0  0  0  0  0  0
    8.6849   -3.4108   27.1007 C   0  0  0  0  0  0  0  0  0  0  0  0
    8.5268   -3.8345   28.0875 H   0  0  0  0  0  0  0  0  0  0  0  0
    7.7518   -2.5220   26.5775 C   0  0  0  0  0  0  0  0  0  0  0  0
    6.9349   -2.1497   27.1878 H   0  0  0  0  0  0  0  0  0  0  0  0
    7.8952   -2.1395   25.2367 C   0  0  0  0  0  0  0  0  0  0  0  0
    7.0706   -1.4203   24.4055 N   0  0  0  0  0  0  0  0  0  0  0  0
    6.1786   -0.9869   24.5737 H   0  0  0  0  0  0  0  0  0  0  0  0
    6.6280    0.0178   19.9151 C   0  0  0  0  0  0  0  0  0  0  0  0
    7.1659    0.0477   18.6215 C   0  0  0  0  0  0  0  0  0  0  0  0
    8.1210   -0.4372   18.4029 H   0  0  0  0  0  0  0  0  0  0  0  0
    6.5785    0.6561   17.5932 N   0  0  0  0  0  0  0  0  0  0  0  0
    5.4135    1.2838   17.8335 C   0  0  0  0  0  0  0  0  0  0  0  0
    4.9671    1.7850   16.9802 H   0  0  0  0  0  0  0  0  0  0  0  0
    4.7955    1.3157   19.0878 C   0  0  0  0  0  0  0  0  0  0  0  0
    3.8624    1.8519   19.2193 H   0  0  0  0  0  0  0  0  0  0  0  0
    5.4069    0.6715   20.1526 C   0  0  0  0  0  0  0  0  0  0  0  0
    4.9807    0.6599   21.1555 H   0  0  0  0  0  0  0  0  0  0  0  0
  1  2  1  0
  2  3  2  3
  3  4  1  0
  4  5  2  0
  5  6  1  0
  5  7  1  0
  7  8  2  0
  8  9  1  0
  8 10  1  0
 10 11  1  0
 10 12  2  0
 12 13  1  0
 12 14  1  0
 14 15  1  0
 14 16  2  0
 16 17  1  0
 17 18  1  0
  2 19  1  0
 19 20  2  0
 20 21  1  0
 20 22  1  0
 22 23  2  0
 23 24  1  0
 23 25  1  0
 25 26  1  0
 25 27  2  0
 27 28  1  0
 17  4  1  0
 27 19  1  0
 16  7  1  0
M  END
>  <plip>  (1) 
-0.034482758620689655

>  <filename>  (1) 
[H][C](=[N][c]1[c]([H])[c]2[c]([H])[c]([H])[c]([H])[c]([H])[c]2[n]1[H])[c]1[c]([H])[n][c]([H])[c]([H])[c]1[H]

$$$$
