
     RDKit          3D

 29 31  0  0  0  0  0  0  0  0999 V2000
    4.9579    1.8040   16.9857 H   0  0  0  0  0  0  0  0  0  0  0  0
    5.4058    1.2884   17.8335 C   0  0  0  0  0  0  0  0  0  0  0  0
    6.5704    0.6730   17.5869 N   0  0  0  0  0  0  0  0  0  0  0  0
    7.1499    0.0157   18.5924 C   0  0  0  0  0  0  0  0  0  0  0  0
    8.1125   -0.4426   18.3768 H   0  0  0  0  0  0  0  0  0  0  0  0
    6.5940   -0.0749   19.8752 C   0  0  0  0  0  0  0  0  0  0  0  0
    7.4021   -0.8119   20.8868 C   0  0  0  0  0  0  0  0  0  0  0  0
    8.2620   -1.6014   20.5918 O   0  0  0  0  0  0  0  0  0  0  0  0
    7.1285   -0.3528   22.6402 S   0  0  0  0  0  0  0  0  0  0  0  0
    8.3815    0.9386   22.8069 C   0  0  0  0  0  0  0  0  0  0  0  0
    9.6798    0.5546   23.0709 C   0  0  0  0  0  0  0  0  0  0  0  0
    9.8829   -0.5027   23.2259 H   0  0  0  0  0  0  0  0  0  0  0  0
   10.7412    1.4969   23.0860 C   0  0  0  0  0  0  0  0  0  0  0  0
   11.7491    1.1478   23.2997 H   0  0  0  0  0  0  0  0  0  0  0  0
   10.5016    2.8262   22.8343 C   0  0  0  0  0  0  0  0  0  0  0  0
   11.3103    3.5553   22.8261 H   0  0  0  0  0  0  0  0  0  0  0  0
    9.1736    3.2803   22.5794 C   0  0  0  0  0  0  0  0  0  0  0  0
    8.8480    4.6446   22.2979 C   0  0  0  0  0  0  0  0  0  0  0  0
    9.6512    5.3863   22.3021 H   0  0  0  0  0  0  0  0  0  0  0  0
    7.5566    4.9760   21.9682 C   0  0  0  0  0  0  0  0  0  0  0  0
    7.2601    5.9866   21.7006 H   0  0  0  0  0  0  0  0  0  0  0  0
    6.5699    3.9542   21.9572 C   0  0  0  0  0  0  0  0  0  0  0  0
    5.5369    4.1726   21.6762 H   0  0  0  0  0  0  0  0  0  0  0  0
    6.8140    2.7058   22.2741 N   0  0  0  0  0  0  0  0  0  0  0  0
    8.0949    2.3337   22.5699 C   0  0  0  0  0  0  0  0  0  0  0  0
    5.3918    0.5968   20.1371 C   0  0  0  0  0  0  0  0  0  0  0  0
    4.9669    0.6446   21.1422 H   0  0  0  0  0  0  0  0  0  0  0  0
    4.7898    1.2898   19.0879 C   0  0  0  0  0  0  0  0  0  0  0  0
    3.8740    1.8481   19.2342 H   0  0  0  0  0  0  0  0  0  0  0  0
  1  2  1  0
  2  3  2  0
  3  4  1  0
  4  5  1  0
  4  6  2  0
  6  7  1  0
  7  8  2  0
  7  9  1  0
  9 10  1  0
 10 11  2  0
 11 12  1  0
 11 13  1  0
 13 14  1  0
 13 15  2  0
 15 16  1  0
 15 17  1  0
 17 18  2  0
 18 19  1  0
 18 20  1  0
 20 21  1  0
 20 22  2  0
 22 23  1  0
 22 24  1  0
 24 25  2  0
  6 26  1  0
 26 27  1  0
 26 28  2  0
 28 29  1  0
 28  2  1  0
 25 10  1  0
 25 17  1  0
M  END
>  <plip>  (1) 
-0.034482758620689655

>  <filename>  (1) 
[H][c]1[n][c]([H])[c]([C](=[O])[S][c]2[c]([H])[c]([H])[c]([H])[c]3[c]([H])[c]([H])[c]([H])[n][c]23)[c]([H])[c]1[H]

$$$$
