
     RDKit          3D

 43 45  0  0  0  0  0  0  0  0999 V2000
    7.9941    3.6590   21.9153 C   0  0  0  0  0  0  0  0  0  0  0  0
    8.2808    2.2182   21.6274 N   0  0  0  0  0  4  0  0  0  0  0  0
    7.5867    1.2795   22.6143 C   0  0  0  0  0  0  0  0  0  0  0  0
    7.7892   -0.1481   22.2185 C   0  0  0  0  0  0  0  0  0  0  0  0
    8.3795   -1.2311   22.8444 C   0  0  0  0  0  0  0  0  0  0  0  0
    8.3868   -2.2452   21.8655 C   0  0  0  0  0  0  0  0  0  0  0  0
    7.8413   -1.8439   20.7313 N   0  0  0  0  0  0  0  0  0  0  0  0
    7.4517   -0.5738   20.9588 N   0  0  0  0  0  0  0  0  0  0  0  0
    6.7078    0.0823   19.9491 C   0  0  0  0  0  0  0  0  0  0  0  0
    5.4668    0.6995   20.1750 C   0  0  0  0  0  0  0  0  0  0  0  0
    4.8457    1.3298   19.0935 C   0  0  0  0  0  0  0  0  0  0  0  0
    5.4659    1.3031   17.8396 C   0  0  0  0  0  0  0  0  0  0  0  0
    6.6254    0.6578   17.6131 N   0  0  0  0  0  0  0  0  0  0  0  0
    7.2071    0.0385   18.6385 C   0  0  0  0  0  0  0  0  0  0  0  0
    8.1103   -0.5267   18.4204 H   0  0  0  0  0  0  0  0  0  0  0  0
    5.0165    1.7984   16.9822 H   0  0  0  0  0  0  0  0  0  0  0  0
    3.8898    1.8345   19.2067 H   0  0  0  0  0  0  0  0  0  0  0  0
    4.9869    0.6647   21.1559 H   0  0  0  0  0  0  0  0  0  0  0  0
    8.7428   -3.2637   21.9308 H   0  0  0  0  0  0  0  0  0  0  0  0
    8.7555   -1.3141   23.8560 H   0  0  0  0  0  0  0  0  0  0  0  0
    6.5208    1.5291   22.6587 H   0  0  0  0  0  0  0  0  0  0  0  0
    7.9883    1.4426   23.6170 H   0  0  0  0  0  0  0  0  0  0  0  0
    9.7867    1.9084   21.5310 C   0  0  0  0  0  0  0  0  0  0  0  0
   10.7031    2.3751   22.6593 C   0  0  2  0  0  0  0  0  0  0  0  0
   12.1736    2.1044   22.3495 C   0  0  0  0  0  0  0  0  0  0  0  0
   12.8473    2.3227   23.6931 C   0  0  0  0  0  0  0  0  0  0  0  0
   11.9118    1.5751   24.6590 C   0  0  0  0  0  0  0  0  0  0  0  0
   10.5511    1.6389   23.9855 N   0  0  0  0  0  4  0  0  0  0  0  0
   10.2004    0.6596   23.7817 H   0  0  0  0  0  0  0  0  0  0  0  0
    9.8498    2.0918   24.6106 H   0  0  0  0  0  0  0  0  0  0  0  0
   12.2207    0.5300   24.7804 H   0  0  0  0  0  0  0  0  0  0  0  0
   11.8692    2.0242   25.6544 H   0  0  0  0  0  0  0  0  0  0  0  0
   12.8696    3.4007   23.9051 H   0  0  0  0  0  0  0  0  0  0  0  0
   13.8754    1.9456   23.7315 H   0  0  0  0  0  0  0  0  0  0  0  0
   12.2909    1.0510   22.0644 H   0  0  0  0  0  0  0  0  0  0  0  0
   12.5630    2.7232   21.5360 H   0  0  0  0  0  0  0  0  0  0  0  0
   10.5485    3.4503   22.8197 H   0  0  0  0  0  0  0  0  0  0  0  0
   10.1658    2.3331   20.5973 H   0  0  0  0  0  0  0  0  0  0  0  0
    9.8830    0.8233   21.4708 H   0  0  0  0  0  0  0  0  0  0  0  0
    7.8564    1.9921   20.7020 H   0  0  0  0  0  0  0  0  0  0  0  0
    8.1365    3.9021   22.9763 H   0  0  0  0  0  0  0  0  0  0  0  0
    8.6567    4.3132   21.3413 H   0  0  0  0  0  0  0  0  0  0  0  0
    6.9588    3.9024   21.6484 H   0  0  0  0  0  0  0  0  0  0  0  0
  1  2  1  0
  2  3  1  0
  3  4  1  0
  4  5  2  0
  5  6  1  0
  6  7  2  0
  7  8  1  0
  8  9  1  0
  9 10  2  0
 10 11  1  0
 11 12  2  0
 12 13  1  0
 13 14  2  0
 14 15  1  0
 12 16  1  0
 11 17  1  0
 10 18  1  0
  6 19  1  0
  5 20  1  0
  3 21  1  0
  3 22  1  0
  2 23  1  0
 23 24  1  0
 24 25  1  0
 25 26  1  0
 26 27  1  0
 27 28  1  0
 28 29  1  0
 28 30  1  0
 27 31  1  0
 27 32  1  0
 26 33  1  0
 26 34  1  0
 25 35  1  0
 25 36  1  0
 24 37  1  1
 23 38  1  0
 23 39  1  0
  2 40  1  0
  1 41  1  0
  1 42  1  0
  1 43  1  0
  8  4  1  0
 14  9  1  0
 28 24  1  0
M  CHG  2   2   1  28   1
M  END
>  <plip>  (1) 
-0.14285714285714285

>  <filename>  (1) 
[H][c]1[n][c]([H])[c](-[n]2[n][c]([H])[c]([H])[c]2[C]([H])([H])[N+]([H])([C]([H])([H])[H])[C]([H])([H])[C@]2([H])[C]([H])([H])[C]([H])([H])[C]([H])([H])[N+]2([H])[H])[c]([H])[c]1[H]

$$$$
