
     RDKit          3D

 38 41  0  0  0  0  0  0  0  0999 V2000
    5.6834   -1.7583   27.9116 O   0  0  0  0  0  0  0  0  0  0  0  0
    6.6928   -2.1048   27.3424 C   0  0  0  0  0  0  0  0  0  0  0  0
    7.1744   -3.8243   27.1318 S   0  0  0  0  0  0  0  0  0  0  0  0
    8.8187   -3.3606   26.5159 C   0  0  0  0  0  0  0  0  0  0  0  0
    8.6829   -1.9231   26.0025 C   0  0  0  0  0  0  0  0  0  0  0  0
    7.6657   -1.2842   26.8267 N   0  0  0  0  0  0  0  0  0  0  0  0
    7.4074    0.1477   26.7075 C   0  0  0  0  0  0  0  0  0  0  0  0
    6.1727    0.4497   25.8258 C   0  0  0  0  0  0  0  0  0  0  0  0
    6.3093   -0.1464   24.4654 C   0  0  0  0  0  0  0  0  0  0  0  0
    6.6713    0.4238   23.3596 N   0  0  0  0  0  0  0  0  0  0  0  0
    6.8303   -0.6522   22.5110 C   0  0  0  0  0  0  0  0  0  0  0  0
    7.4722   -0.4833   21.1498 C   0  0  0  0  0  0  0  0  0  0  0  0
    6.7085    0.2066   20.0368 C   0  0  0  0  0  0  0  0  0  0  0  0
    5.4488    0.7907   20.2412 C   0  0  0  0  0  0  0  0  0  0  0  0
    4.7781    1.3613   19.1551 C   0  0  0  0  0  0  0  0  0  0  0  0
    5.3825    1.3504   17.8939 C   0  0  0  0  0  0  0  0  0  0  0  0
    6.5950    0.8246   17.6711 N   0  0  0  0  0  0  0  0  0  0  0  0
    7.2351    0.2966   18.7199 C   0  0  0  0  0  0  0  0  0  0  0  0
    8.2354   -0.0653   18.4924 H   0  0  0  0  0  0  0  0  0  0  0  0
    4.8842    1.7924   17.0336 H   0  0  0  0  0  0  0  0  0  0  0  0
    3.8090    1.8332   19.2686 H   0  0  0  0  0  0  0  0  0  0  0  0
    5.0146    0.8274   21.2446 H   0  0  0  0  0  0  0  0  0  0  0  0
    8.4975   -1.5247   20.7445 C   0  0  0  0  0  0  0  0  0  0  0  0
    8.9731   -0.2224   21.2767 C   0  0  0  0  0  0  0  0  0  0  0  0
    9.3783   -0.1972   22.2846 H   0  0  0  0  0  0  0  0  0  0  0  0
    9.4221    0.5117   20.6157 H   0  0  0  0  0  0  0  0  0  0  0  0
    8.5906   -2.4316   21.3355 H   0  0  0  0  0  0  0  0  0  0  0  0
    8.6464   -1.6662   19.6848 H   0  0  0  0  0  0  0  0  0  0  0  0
    6.5635   -1.8112   23.0561 N   0  0  0  0  0  0  0  0  0  0  0  0
    6.1944   -1.4779   24.3489 O   0  0  0  0  0  0  0  0  0  0  0  0
    5.2877    0.0300   26.3044 H   0  0  0  0  0  0  0  0  0  0  0  0
    6.0364    1.5285   25.7368 H   0  0  0  0  0  0  0  0  0  0  0  0
    8.3075    0.6210   26.2822 H   0  0  0  0  0  0  0  0  0  0  0  0
    7.2681    0.5738   27.7116 H   0  0  0  0  0  0  0  0  0  0  0  0
    9.6222   -1.3620   26.0940 H   0  0  0  0  0  0  0  0  0  0  0  0
    8.3792   -1.9248   24.9463 H   0  0  0  0  0  0  0  0  0  0  0  0
    9.1034   -4.0384   25.7079 H   0  0  0  0  0  0  0  0  0  0  0  0
    9.5496   -3.4382   27.3242 H   0  0  0  0  0  0  0  0  0  0  0  0
  1  2  2  0
  2  3  1  0
  3  4  1  0
  4  5  1  0
  5  6  1  0
  6  7  1  0
  7  8  1  0
  8  9  1  0
  9 10  2  0
 10 11  1  0
 11 12  1  0
 12 13  1  0
 13 14  2  0
 14 15  1  0
 15 16  2  0
 16 17  1  0
 17 18  2  0
 18 19  1  0
 16 20  1  0
 15 21  1  0
 14 22  1  0
 12 23  1  0
 23 24  1  0
 24 25  1  0
 24 26  1  0
 23 27  1  0
 23 28  1  0
 11 29  2  0
 29 30  1  0
  8 31  1  0
  8 32  1  0
  7 33  1  0
  7 34  1  0
  5 35  1  0
  5 36  1  0
  4 37  1  0
  4 38  1  0
  6  2  1  0
 30  9  1  0
 24 12  1  0
 18 13  1  0
M  END
>  <plip>  (1) 
-0.03571428571428571

>  <filename>  (1) 
[H][c]1[n][c]([H])[c]([C]2([c]3[n][o][c]([C]([H])([H])[C]([H])([H])[N]4[C](=[O])[S][C]([H])([H])[C]4([H])[H])[n]3)[C]([H])([H])[C]2([H])[H])[c]([H])[c]1[H]

$$$$
