
     RDKit          3D

 29 30  0  0  0  0  0  0  0  0999 V2000
   11.5368    1.7251   20.9499 N   0  0  0  0  0  0  0  0  0  0  0  0
   11.3588    0.4913   21.4964 C   0  0  0  0  0  0  0  0  0  0  0  0
   11.6084   -0.5003   20.8287 O   0  0  0  0  0  0  0  0  0  0  0  0
   10.7722    0.3363   22.8863 C   0  0  0  0  0  0  0  0  0  0  0  0
   11.0833    1.2034   23.8845 N   0  0  0  0  0  0  0  0  0  0  0  0
   10.6955    0.8629   25.1230 C   0  0  0  0  0  0  0  0  0  0  0  0
    9.9975   -0.3366   25.3702 C   0  0  0  0  0  0  0  0  0  0  0  0
    9.6489   -1.1674   24.3680 N   0  0  0  0  0  0  0  0  0  0  0  0
    9.9680   -0.8078   23.1099 C   0  0  0  0  0  0  0  0  0  0  0  0
    9.4074   -1.6547   21.9619 C   0  0  0  0  0  0  0  0  0  0  0  0
    8.7127   -0.8806   20.9272 O   0  0  0  0  0  0  0  0  0  0  0  0
    7.4062   -0.5967   21.1385 C   0  0  0  0  0  0  0  0  0  0  0  0
    6.8262   -0.8332   22.1728 O   0  0  0  0  0  0  0  0  0  0  0  0
    6.7382    0.0471   19.9861 C   0  0  0  0  0  0  0  0  0  0  0  0
    5.4906    0.6686   20.1710 C   0  0  0  0  0  0  0  0  0  0  0  0
    4.8934    1.2773   19.0733 C   0  0  0  0  0  0  0  0  0  0  0  0
    5.5489    1.2171   17.8373 C   0  0  0  0  0  0  0  0  0  0  0  0
    6.7177    0.5875   17.6470 N   0  0  0  0  0  0  0  0  0  0  0  0
    7.2988    0.0161   18.7091 C   0  0  0  0  0  0  0  0  0  0  0  0
    8.2383   -0.5031   18.5216 H   0  0  0  0  0  0  0  0  0  0  0  0
    5.1086    1.6813   16.9565 H   0  0  0  0  0  0  0  0  0  0  0  0
    3.9423    1.7932   19.1530 H   0  0  0  0  0  0  0  0  0  0  0  0
    5.0094    0.6574   21.1515 H   0  0  0  0  0  0  0  0  0  0  0  0
    8.7290   -2.3888   22.3954 H   0  0  0  0  0  0  0  0  0  0  0  0
   10.2134   -2.1458   21.4166 H   0  0  0  0  0  0  0  0  0  0  0  0
    9.7213   -0.6273   26.3820 H   0  0  0  0  0  0  0  0  0  0  0  0
   10.9635    1.5539   25.9216 H   0  0  0  0  0  0  0  0  0  0  0  0
   11.6428    2.5255   21.5562 H   0  0  0  0  0  0  0  0  0  0  0  0
   12.1691    1.6584   20.1662 H   0  0  0  0  0  0  0  0  0  0  0  0
  1  2  1  0
  2  3  2  0
  2  4  1  0
  4  5  2  0
  5  6  1  0
  6  7  2  0
  7  8  1  0
  8  9  2  0
  9 10  1  0
 10 11  1  0
 11 12  1  0
 12 13  2  0
 12 14  1  0
 14 15  2  0
 15 16  1  0
 16 17  2  0
 17 18  1  0
 18 19  2  0
 19 20  1  0
 17 21  1  0
 16 22  1  0
 15 23  1  0
 10 24  1  0
 10 25  1  0
  7 26  1  0
  6 27  1  0
  1 28  1  0
  1 29  1  0
  9  4  1  0
 19 14  1  0
M  END
>  <plip>  (1) 
-0.10714285714285714

>  <filename>  (1) 
[H][c]1[n][c]([C](=[O])[N]([H])[H])[c]([C]([H])([H])[O][C](=[O])[c]2[c]([H])[n][c]([H])[c]([H])[c]2[H])[n][c]1[H]

$$$$
