
     RDKit          3D

 51 53  0  0  0  0  0  0  0  0999 V2000
    1.4045   -7.6977   26.9514 C   0  0  0  0  0  0  0  0  0  0  0  0
    0.5856   -6.6402   26.4971 O   0  0  0  0  0  0  0  0  0  0  0  0
    1.1329   -5.6172   25.7857 C   0  0  0  0  0  0  0  0  0  0  0  0
    0.2228   -4.6140   25.4144 C   0  0  0  0  0  0  0  0  0  0  0  0
    0.6900   -3.4669   24.7813 C   0  0  0  0  0  0  0  0  0  0  0  0
    2.0559   -3.3157   24.5355 C   0  0  0  0  0  0  0  0  0  0  0  0
    2.9660   -4.3521   24.7858 C   0  0  0  0  0  0  0  0  0  0  0  0
    4.3610   -4.1997   24.2983 C   0  0  0  0  0  0  0  0  0  0  0  0
    4.7964   -3.3233   23.4226 N   0  0  0  0  0  0  0  0  0  0  0  0
    6.1665   -3.5002   23.3327 C   0  0  0  0  0  0  0  0  0  0  0  0
    7.1278   -2.6748   22.5061 C   0  0  0  0  0  0  0  0  0  0  0  0
    8.3358   -2.9039   22.5170 O   0  0  0  0  0  0  0  0  0  0  0  0
    6.6065   -1.6761   21.7412 N   0  0  0  0  0  0  0  0  0  0  0  0
    7.4412   -0.7296   21.0037 C   0  0  0  0  0  0  0  0  0  0  0  0
    6.6333   -0.0457   19.9211 C   0  0  0  0  0  0  0  0  0  0  0  0
    5.4165    0.6187   20.1575 C   0  0  0  0  0  0  0  0  0  0  0  0
    4.7942    1.2944   19.1032 C   0  0  0  0  0  0  0  0  0  0  0  0
    5.4020    1.2845   17.8440 C   0  0  0  0  0  0  0  0  0  0  0  0
    6.5605    0.6598   17.5898 N   0  0  0  0  0  0  0  0  0  0  0  0
    7.1476    0.0261   18.6147 C   0  0  0  0  0  0  0  0  0  0  0  0
    8.1015   -0.4494   18.3769 H   0  0  0  0  0  0  0  0  0  0  0  0
    4.9433    1.7963   17.0006 H   0  0  0  0  0  0  0  0  0  0  0  0
    3.8688    1.8422   19.2464 H   0  0  0  0  0  0  0  0  0  0  0  0
    4.9778    0.6479   21.1595 H   0  0  0  0  0  0  0  0  0  0  0  0
    8.2006    0.2599   21.9528 C   0  0  0  0  0  0  0  0  0  0  0  0
    9.2111    1.1188   21.1741 C   0  0  0  0  0  0  0  0  0  0  0  0
    8.6906    1.8145   20.5027 H   0  0  0  0  0  0  0  0  0  0  0  0
    9.8233    1.7157   21.8606 H   0  0  0  0  0  0  0  0  0  0  0  0
    9.8888    0.5036   20.5698 H   0  0  0  0  0  0  0  0  0  0  0  0
    7.2799    1.1505   22.8011 C   0  0  0  0  0  0  0  0  0  0  0  0
    6.7844    1.9131   22.1861 H   0  0  0  0  0  0  0  0  0  0  0  0
    6.5056    0.5696   23.3172 H   0  0  0  0  0  0  0  0  0  0  0  0
    7.8640    1.6782   23.5638 H   0  0  0  0  0  0  0  0  0  0  0  0
    8.7528   -0.4062   22.6262 H   0  0  0  0  0  0  0  0  0  0  0  0
    8.2331   -1.3225   20.5199 H   0  0  0  0  0  0  0  0  0  0  0  0
    5.6003   -1.5561   21.7609 H   0  0  0  0  0  0  0  0  0  0  0  0
    6.5567   -4.5385   24.1527 C   0  0  0  0  0  0  0  0  0  0  0  0
    7.8954   -5.1370   24.4330 C   0  0  0  0  0  0  0  0  0  0  0  0
    7.8381   -5.9804   25.1281 H   0  0  0  0  0  0  0  0  0  0  0  0
    8.5741   -4.3875   24.8489 H   0  0  0  0  0  0  0  0  0  0  0  0
    8.3589   -5.4768   23.5042 H   0  0  0  0  0  0  0  0  0  0  0  0
    5.4009   -4.9754   24.7379 N   0  0  0  0  0  0  0  0  0  0  0  0
    5.3291   -5.7040   25.4251 H   0  0  0  0  0  0  0  0  0  0  0  0
    2.4905   -5.5060   25.4524 C   0  0  0  0  0  0  0  0  0  0  0  0
    3.1500   -6.3210   25.7344 H   0  0  0  0  0  0  0  0  0  0  0  0
    2.4498   -2.3796   24.1580 H   0  0  0  0  0  0  0  0  0  0  0  0
   -0.0076   -2.7062   24.4390 H   0  0  0  0  0  0  0  0  0  0  0  0
   -0.8199   -4.7556   25.6793 H   0  0  0  0  0  0  0  0  0  0  0  0
    2.1960   -7.3411   27.6269 H   0  0  0  0  0  0  0  0  0  0  0  0
    1.8689   -8.2267   26.1081 H   0  0  0  0  0  0  0  0  0  0  0  0
    0.7310   -8.3699   27.4902 H   0  0  0  0  0  0  0  0  0  0  0  0
  1  2  1  0
  2  3  1  0
  3  4  2  0
  4  5  1  0
  5  6  2  0
  6  7  1  0
  7  8  1  0
  8  9  2  0
  9 10  1  0
 10 11  1  0
 11 12  2  0
 11 13  1  0
 13 14  1  0
 14 15  1  0
 15 16  2  0
 16 17  1  0
 17 18  2  0
 18 19  1  0
 19 20  2  0
 20 21  1  0
 18 22  1  0
 17 23  1  0
 16 24  1  0
 14 25  1  0
 25 26  1  0
 26 27  1  0
 26 28  1  0
 26 29  1  0
 25 30  1  0
 30 31  1  0
 30 32  1  0
 30 33  1  0
 25 34  1  0
 14 35  1  0
 13 36  1  0
 10 37  2  0
 37 38  1  0
 38 39  1  0
 38 40  1  0
 38 41  1  0
 37 42  1  0
 42 43  1  0
  7 44  2  0
 44 45  1  0
  6 46  1  0
  5 47  1  0
  4 48  1  0
  1 49  1  0
  1 50  1  0
  1 51  1  0
 44  3  1  0
 42  8  1  0
 20 15  1  0
M  END
>  <plip>  (1) 
-0.1

>  <filename>  (1) 
[H][c]1[n][c]([H])[c]([C]([H])([N]([H])[C](=[O])[c]2[n][c](-[c]3[c]([H])[c]([H])[c]([H])[c]([O][C]([H])([H])[H])[c]3[H])[n]([H])[c]2[C]([H])([H])[H])[C]([H])([C]([H])([H])[H])[C]([H])([H])[H])[c]([H])[c]1[H]

$$$$
