
     RDKit          3D

 40 41  0  0  0  0  0  0  0  0999 V2000
    6.8451   -2.1326   24.3307 C   0  0  0  0  0  0  0  0  0  0  0  0
    7.1393   -0.8694   24.0153 C   0  0  0  0  0  0  0  0  0  0  0  0
    8.3705   -0.4695   23.2534 C   0  0  0  0  0  0  0  0  0  0  0  0
    8.0028    0.2169   21.9535 N   0  0  0  0  0  4  0  0  0  0  0  0
    9.2042    0.9228   21.3405 C   0  0  0  0  0  0  0  0  0  0  0  0
    9.6073    2.1199   22.1578 C   0  0  0  0  0  0  0  0  0  0  0  0
   10.7642    2.0960   22.9525 C   0  0  0  0  0  0  0  0  0  0  0  0
   11.1420    3.2217   23.6851 C   0  0  0  0  0  0  0  0  0  0  0  0
   10.3757    4.3956   23.6459 C   0  0  0  0  0  0  0  0  0  0  0  0
   10.8035    5.6180   24.4139 C   0  0  0  0  0  0  0  0  0  0  0  0
   11.4619    6.2494   23.8071 H   0  0  0  0  0  0  0  0  0  0  0  0
    9.9473    6.2329   24.7086 H   0  0  0  0  0  0  0  0  0  0  0  0
   11.3552    5.3557   25.3222 H   0  0  0  0  0  0  0  0  0  0  0  0
    9.2187    4.4127   22.8528 C   0  0  0  0  0  0  0  0  0  0  0  0
    8.8330    3.2886   22.1235 C   0  0  0  0  0  0  0  0  0  0  0  0
    7.9370    3.3213   21.5031 H   0  0  0  0  0  0  0  0  0  0  0  0
    8.6277    5.3236   22.7971 H   0  0  0  0  0  0  0  0  0  0  0  0
   12.0435    3.1957   24.2900 H   0  0  0  0  0  0  0  0  0  0  0  0
   11.3704    1.1905   22.9927 H   0  0  0  0  0  0  0  0  0  0  0  0
   10.0340    0.2051   21.2794 H   0  0  0  0  0  0  0  0  0  0  0  0
    8.9439    1.2292   20.3251 H   0  0  0  0  0  0  0  0  0  0  0  0
    7.3645   -0.7471   20.9741 C   0  0  0  0  0  0  0  0  0  0  0  0
    6.6531    0.0144   19.8979 C   0  0  0  0  0  0  0  0  0  0  0  0
    5.4394    0.6645   20.1599 C   0  0  0  0  0  0  0  0  0  0  0  0
    4.8047    1.3163   19.1024 C   0  0  0  0  0  0  0  0  0  0  0  0
    5.3990    1.2975   17.8355 C   0  0  0  0  0  0  0  0  0  0  0  0
    6.5623    0.6842   17.5710 N   0  0  0  0  0  0  0  0  0  0  0  0
    7.1685    0.0743   18.5959 C   0  0  0  0  0  0  0  0  0  0  0  0
    8.1155   -0.4200   18.3731 H   0  0  0  0  0  0  0  0  0  0  0  0
    4.9178    1.7865   16.9920 H   0  0  0  0  0  0  0  0  0  0  0  0
    3.8728    1.8466   19.2523 H   0  0  0  0  0  0  0  0  0  0  0  0
    5.0114    0.6367   21.1699 H   0  0  0  0  0  0  0  0  0  0  0  0
    8.1520   -1.3920   20.5568 H   0  0  0  0  0  0  0  0  0  0  0  0
    6.6599   -1.3783   21.5244 H   0  0  0  0  0  0  0  0  0  0  0  0
    7.2968    0.9648   22.1718 H   0  0  0  0  0  0  0  0  0  0  0  0
    8.9642   -1.3640   23.0186 H   0  0  0  0  0  0  0  0  0  0  0  0
    9.0058    0.2012   23.8394 H   0  0  0  0  0  0  0  0  0  0  0  0
    6.4870   -0.0522   24.3305 H   0  0  0  0  0  0  0  0  0  0  0  0
    5.9655   -2.3980   24.9149 H   0  0  0  0  0  0  0  0  0  0  0  0
    7.4837   -2.9571   24.0102 H   0  0  0  0  0  0  0  0  0  0  0  0
  1  2  2  3
  2  3  1  0
  3  4  1  0
  4  5  1  0
  5  6  1  0
  6  7  2  0
  7  8  1  0
  8  9  2  0
  9 10  1  0
 10 11  1  0
 10 12  1  0
 10 13  1  0
  9 14  1  0
 14 15  2  0
 15 16  1  0
 14 17  1  0
  8 18  1  0
  7 19  1  0
  5 20  1  0
  5 21  1  0
  4 22  1  0
 22 23  1  0
 23 24  2  0
 24 25  1  0
 25 26  2  0
 26 27  1  0
 27 28  2  0
 28 29  1  0
 26 30  1  0
 25 31  1  0
 24 32  1  0
 22 33  1  0
 22 34  1  0
  4 35  1  0
  3 36  1  0
  3 37  1  0
  2 38  1  0
  1 39  1  0
  1 40  1  0
 15  6  1  0
 28 23  1  0
M  CHG  1   4   1
M  END
>  <plip>  (1) 
-0.0

>  <filename>  (1) 
[H][C]([H])=[C]([H])[C]([H])([H])[N+]([H])([C]([H])([H])[c]1[c]([H])[n][c]([H])[c]([H])[c]1[H])[C]([H])([H])[c]1[c]([H])[c]([H])[c]([C]([H])([H])[H])[c]([H])[c]1[H]

$$$$
