
     RDKit          3D

 35 36  0  0  0  0  0  0  0  0999 V2000
    8.9121   -1.7927   23.9333 N   0  0  0  0  0  0  0  0  0  0  0  0
    9.1236   -3.2078   24.0137 C   0  0  0  0  0  0  0  0  0  0  0  0
    9.7354   -3.7927   25.1170 C   0  0  0  0  0  0  0  0  0  0  0  0
    9.8738   -5.1794   25.1906 C   0  0  0  0  0  0  0  0  0  0  0  0
    9.3307   -5.9822   24.1920 C   0  0  0  0  0  0  0  0  0  0  0  0
    8.7062   -5.4006   23.0828 C   0  0  0  0  0  0  0  0  0  0  0  0
    8.6240   -4.0086   22.9673 C   0  0  0  0  0  0  0  0  0  0  0  0
    8.0354   -3.3284   21.7764 C   0  0  0  0  0  0  0  0  0  0  0  0
    6.9837   -2.4032   22.2830 N   0  0  0  0  0  4  0  0  0  0  0  0
    6.3990   -1.5157   21.2371 C   0  0  0  0  0  0  0  0  0  0  0  0
    7.1084   -0.1730   20.8643 C   0  0  0  0  0  0  0  0  0  0  0  0
    8.4460   -0.4109   20.6277 F   0  0  0  0  0  0  0  0  0  0  0  0
    7.0724    0.6624   21.9517 F   0  0  0  0  0  0  0  0  0  0  0  0
    6.4889    0.5137   19.6631 C   0  0  0  0  0  0  0  0  0  0  0  0
    5.2931    1.2452   19.7447 C   0  0  0  0  0  0  0  0  0  0  0  0
    4.7997    1.8475   18.5854 C   0  0  0  0  0  0  0  0  0  0  0  0
    5.5066    1.7014   17.3906 C   0  0  0  0  0  0  0  0  0  0  0  0
    6.6427    0.9968   17.2972 N   0  0  0  0  0  0  0  0  0  0  0  0
    7.1173    0.4349   18.4127 C   0  0  0  0  0  0  0  0  0  0  0  0
    8.0533   -0.1046   18.3012 H   0  0  0  0  0  0  0  0  0  0  0  0
    5.1522    2.1767   16.4752 H   0  0  0  0  0  0  0  0  0  0  0  0
    3.8979    2.4475   18.5957 H   0  0  0  0  0  0  0  0  0  0  0  0
    4.7629    1.3723   20.6890 H   0  0  0  0  0  0  0  0  0  0  0  0
    6.3300   -2.0609   20.2868 H   0  0  0  0  0  0  0  0  0  0  0  0
    5.3911   -1.2159   21.5215 H   0  0  0  0  0  0  0  0  0  0  0  0
    6.2642   -3.0164   22.7584 H   0  0  0  0  0  0  0  0  0  0  0  0
    7.4788   -1.8939   23.1159 H   0  0  0  0  0  0  0  0  0  0  0  0
    8.7927   -2.7438   21.2434 H   0  0  0  0  0  0  0  0  0  0  0  0
    7.6163   -4.0450   21.0597 H   0  0  0  0  0  0  0  0  0  0  0  0
    8.3036   -6.0433   22.2978 H   0  0  0  0  0  0  0  0  0  0  0  0
    9.5116   -7.0463   24.2099 H   0  0  0  0  0  0  0  0  0  0  0  0
   10.3985   -5.6422   26.0257 H   0  0  0  0  0  0  0  0  0  0  0  0
   10.0553   -3.1553   25.9276 H   0  0  0  0  0  0  0  0  0  0  0  0
    9.5099   -1.3585   23.2334 H   0  0  0  0  0  0  0  0  0  0  0  0
    9.0635   -1.3533   24.8336 H   0  0  0  0  0  0  0  0  0  0  0  0
  1  2  1  0
  2  3  2  0
  3  4  1  0
  4  5  2  0
  5  6  1  0
  6  7  2  0
  7  8  1  0
  8  9  1  0
  9 10  1  0
 10 11  1  0
 11 12  1  0
 11 13  1  0
 11 14  1  0
 14 15  2  0
 15 16  1  0
 16 17  2  0
 17 18  1  0
 18 19  2  0
 19 20  1  0
 17 21  1  0
 16 22  1  0
 15 23  1  0
 10 24  1  0
 10 25  1  0
  9 26  1  0
  9 27  1  0
  8 28  1  0
  8 29  1  0
  6 30  1  0
  5 31  1  0
  4 32  1  0
  3 33  1  0
  1 34  1  0
  1 35  1  0
  7  2  1  0
 19 14  1  0
M  CHG  1   9   1
M  END
>  <plip>  (1) 
-0.06896551724137931

>  <filename>  (1) 
[H][c]1[n][c]([H])[c]([C]([F])([F])[C]([H])([H])[N+]([H])([H])[C]([H])([H])[c]2[c]([H])[c]([H])[c]([H])[c]([H])[c]2[N]([H])[H])[c]([H])[c]1[H]

$$$$
