
     RDKit          3D

 27 28  0  0  0  0  0  0  0  0999 V2000
    6.7276   -0.3845   24.2312 H   0  0  0  0  0  0  0  0  0  0  0  0
    6.5295    0.4570   24.6808 O   0  0  0  0  0  0  0  0  0  0  0  0
    6.9179    1.4259   23.8067 C   0  0  0  0  0  0  0  0  0  0  0  0
    6.7661    2.7557   24.2066 C   0  0  0  0  0  0  0  0  0  0  0  0
    6.3370    2.9201   25.1895 H   0  0  0  0  0  0  0  0  0  0  0  0
    7.1513    3.8003   23.3594 C   0  0  0  0  0  0  0  0  0  0  0  0
    7.0143    4.8321   23.6733 H   0  0  0  0  0  0  0  0  0  0  0  0
    7.7101    3.5237   22.1110 C   0  0  0  0  0  0  0  0  0  0  0  0
    8.0165    4.3391   21.4593 H   0  0  0  0  0  0  0  0  0  0  0  0
    7.8588    2.1954   21.7053 C   0  0  0  0  0  0  0  0  0  0  0  0
    8.2485    1.9490   20.7245 H   0  0  0  0  0  0  0  0  0  0  0  0
    7.4586    1.1304   22.5275 C   0  0  0  0  0  0  0  0  0  0  0  0
    7.6344   -0.2376   22.1593 N   0  0  0  0  0  0  0  0  0  0  0  0
    7.4093   -0.6463   20.9792 C   0  0  0  0  0  0  0  0  0  0  0  0
    6.6168   -0.0020   19.9130 C   0  0  0  0  0  0  0  0  0  0  0  0
    7.1530    0.0039   18.6274 C   0  0  0  0  0  0  0  0  0  0  0  0
    8.1030   -0.4923   18.4211 H   0  0  0  0  0  0  0  0  0  0  0  0
    6.5799    0.6269   17.5940 N   0  0  0  0  0  0  0  0  0  0  0  0
    5.4216    1.2634   17.8276 C   0  0  0  0  0  0  0  0  0  0  0  0
    4.9855    1.7850   16.9788 H   0  0  0  0  0  0  0  0  0  0  0  0
    4.7919    1.2937   19.0770 C   0  0  0  0  0  0  0  0  0  0  0  0
    3.8640    1.8364   19.1993 H   0  0  0  0  0  0  0  0  0  0  0  0
    5.3987    0.6519   20.1539 C   0  0  0  0  0  0  0  0  0  0  0  0
    4.9624    0.6721   21.1561 H   0  0  0  0  0  0  0  0  0  0  0  0
    7.9425   -1.8584   20.6327 N   0  0  0  0  0  0  0  0  0  0  0  0
    8.1435   -2.3593   21.4866 H   0  0  0  0  0  0  0  0  0  0  0  0
    7.3679   -2.3436   19.9639 H   0  0  0  0  0  0  0  0  0  0  0  0
  1  2  1  0
  2  3  1  0
  3  4  2  0
  4  5  1  0
  4  6  1  0
  6  7  1  0
  6  8  2  0
  8  9  1  0
  8 10  1  0
 10 11  1  0
 10 12  2  0
 12 13  1  0
 13 14  2  3
 14 15  1  0
 15 16  2  0
 16 17  1  0
 16 18  1  0
 18 19  2  0
 19 20  1  0
 19 21  1  0
 21 22  1  0
 21 23  2  0
 23 24  1  0
 14 25  1  0
 25 26  1  0
 25 27  1  0
 12  3  1  0
 23 15  1  0
M  END
>  <plip>  (1) 
-0.06896551724137931

>  <filename>  (1) 
[H][O][c]1[c]([H])[c]([H])[c]([H])[c]([H])[c]1[N]=[C]([c]1[c]([H])[n][c]([H])[c]([H])[c]1[H])[N]([H])[H]

$$$$
