
     RDKit          3D

 38 40  0  0  0  0  0  0  0  0999 V2000
    4.8008    1.3003   19.0398 C   0  0  0  0  0  0  0  0  0  0  0  0
    5.4288    1.3120   17.7924 C   0  0  0  0  0  0  0  0  0  0  0  0
    6.5880    0.6829   17.5436 N   0  0  0  0  0  0  0  0  0  0  0  0
    7.1630    0.0385   18.5670 C   0  0  0  0  0  0  0  0  0  0  0  0
    6.6316   -0.0257   19.8669 C   0  0  0  0  0  0  0  0  0  0  0  0
    7.3706   -0.7616   20.9531 C   0  0  0  0  0  0  0  0  0  0  0  0
    8.8220    0.1239   21.6202 S   0  0  0  0  0  0  0  0  0  0  0  0
    8.0045    1.4376   22.5910 C   0  0  0  0  0  0  0  0  0  0  0  0
    9.0211    2.3861   23.2582 C   0  0  0  0  0  0  0  0  0  0  0  0
    9.7290    3.2546   22.2130 C   0  0  0  0  0  0  0  0  0  0  0  0
   10.8369    4.1060   22.8410 C   0  0  0  0  0  0  0  0  0  0  0  0
   10.3391    4.9143   24.0286 C   0  0  0  0  0  0  0  0  0  0  0  0
   11.0308    6.0711   24.4242 C   0  0  0  0  0  0  0  0  0  0  0  0
   10.6523    6.7834   25.5647 C   0  0  0  0  0  0  0  0  0  0  0  0
    9.5494    6.3513   26.3133 C   0  0  0  0  0  0  0  0  0  0  0  0
    8.8240    5.2284   25.9038 C   0  0  0  0  0  0  0  0  0  0  0  0
    9.1968    4.5034   24.7552 C   0  0  0  0  0  0  0  0  0  0  0  0
    8.3224    3.3527   24.2525 C   0  0  0  0  0  0  0  0  0  0  0  0
    7.4533    3.8083   23.7432 H   0  0  0  0  0  0  0  0  0  0  0  0
    7.9127    2.7958   25.1059 H   0  0  0  0  0  0  0  0  0  0  0  0
    7.9344    4.9351   26.4625 H   0  0  0  0  0  0  0  0  0  0  0  0
    9.2458    6.9064   27.1969 H   0  0  0  0  0  0  0  0  0  0  0  0
   11.2106    7.6648   25.8682 H   0  0  0  0  0  0  0  0  0  0  0  0
   11.8814    6.4055   23.8321 H   0  0  0  0  0  0  0  0  0  0  0  0
   11.2799    4.7798   22.0938 H   0  0  0  0  0  0  0  0  0  0  0  0
   11.6630    3.4539   23.1726 H   0  0  0  0  0  0  0  0  0  0  0  0
    8.9501    3.9117   21.7901 H   0  0  0  0  0  0  0  0  0  0  0  0
   10.1323    2.6522   21.3917 H   0  0  0  0  0  0  0  0  0  0  0  0
    9.7694    1.7882   23.8037 H   0  0  0  0  0  0  0  0  0  0  0  0
    7.3457    2.0127   21.9240 H   0  0  0  0  0  0  0  0  0  0  0  0
    7.3735    0.9525   23.3437 H   0  0  0  0  0  0  0  0  0  0  0  0
    7.7606   -1.7089   20.5584 H   0  0  0  0  0  0  0  0  0  0  0  0
    6.6930   -1.0150   21.7753 H   0  0  0  0  0  0  0  0  0  0  0  0
    5.4106    0.6172   20.0965 C   0  0  0  0  0  0  0  0  0  0  0  0
    4.9399    0.5833   21.0816 H   0  0  0  0  0  0  0  0  0  0  0  0
    8.0993   -0.4738   18.3443 H   0  0  0  0  0  0  0  0  0  0  0  0
    4.9795    1.8415   16.9524 H   0  0  0  0  0  0  0  0  0  0  0  0
    3.8623    1.8246   19.1773 H   0  0  0  0  0  0  0  0  0  0  0  0
  1  2  2  0
  2  3  1  0
  3  4  2  0
  4  5  1  0
  5  6  1  0
  6  7  1  0
  7  8  1  0
  8  9  1  0
  9 10  1  0
 10 11  1  0
 11 12  1  0
 12 13  2  0
 13 14  1  0
 14 15  2  0
 15 16  1  0
 16 17  2  0
 17 18  1  0
 18 19  1  0
 18 20  1  0
 16 21  1  0
 15 22  1  0
 14 23  1  0
 13 24  1  0
 11 25  1  0
 11 26  1  0
 10 27  1  0
 10 28  1  0
  9 29  1  0
  8 30  1  0
  8 31  1  0
  6 32  1  0
  6 33  1  0
  5 34  2  0
 34 35  1  0
  4 36  1  0
  2 37  1  0
  1 38  1  0
 34  1  1  0
 18  9  1  0
 17 12  1  0
M  END
>  <plip>  (1) 
-0.07142857142857142

>  <filename>  (1) 
[H][c]1[n][c]([H])[c]([C]([H])([H])[S][C]([H])([H])[C]2([H])[C]([H])([H])[c]3[c]([H])[c]([H])[c]([H])[c]([H])[c]3[C]([H])([H])[C]2([H])[H])[c]([H])[c]1[H]

$$$$
