
     RDKit          3D

 50 52  0  0  0  0  0  0  0  0999 V2000
    6.6648   -2.0369   21.3161 C   0  0  0  0  0  0  0  0  0  0  0  0
    7.4080   -0.7297   21.0077 C   0  0  0  0  0  0  0  0  0  0  0  0
    7.6124    0.1084   22.3057 C   0  0  0  0  0  0  0  0  0  0  0  0
    6.7720    0.1672   23.1892 O   0  0  0  0  0  0  0  0  0  0  0  0
    8.8311    0.7426   22.4285 N   0  0  0  0  0  0  0  0  0  0  0  0
    9.7009    1.0282   21.2831 C   0  0  0  0  0  0  0  0  0  0  0  0
   10.2130    2.4570   21.3768 C   0  0  0  0  0  0  0  0  0  0  0  0
   10.9486    2.6881   22.6897 C   0  0  0  0  0  0  0  0  0  0  0  0
   11.4975    4.0910   22.7674 N   0  0  0  0  0  4  0  0  0  0  0  0
   12.5626    4.4740   21.7481 C   0  0  0  0  0  0  0  0  0  0  0  0
   13.4694    5.5131   22.4323 C   0  0  0  0  0  0  0  0  0  0  0  0
   13.2237    5.4273   23.9418 C   0  0  1  0  0  0  0  0  0  0  0  0
   12.8570    6.7972   24.4856 N   0  0  0  0  0  4  0  0  0  0  0  0
   13.6153    7.4594   24.2442 H   0  0  0  0  0  0  0  0  0  0  0  0
   11.9856    7.1264   24.0303 H   0  0  0  0  0  0  0  0  0  0  0  0
   12.7204    6.8100   25.5091 H   0  0  0  0  0  0  0  0  0  0  0  0
   12.1072    4.3955   24.1195 C   0  0  0  0  0  0  0  0  0  0  0  0
   11.3530    4.7271   24.8390 H   0  0  0  0  0  0  0  0  0  0  0  0
   12.5348    3.4511   24.4538 H   0  0  0  0  0  0  0  0  0  0  0  0
   14.1225    5.0729   24.4553 H   0  0  0  0  0  0  0  0  0  0  0  0
   14.5169    5.3070   22.1982 H   0  0  0  0  0  0  0  0  0  0  0  0
   13.2718    6.5253   22.0719 H   0  0  0  0  0  0  0  0  0  0  0  0
   13.1328    3.5777   21.4674 H   0  0  0  0  0  0  0  0  0  0  0  0
   12.0958    4.8660   20.8388 H   0  0  0  0  0  0  0  0  0  0  0  0
   10.6506    4.6920   22.5963 H   0  0  0  0  0  0  0  0  0  0  0  0
    9.9564    2.4286   23.8339 C   0  0  0  0  0  0  0  0  0  0  0  0
    9.3809    1.0176   23.7675 C   0  0  0  0  0  0  0  0  0  0  0  0
   10.1610    0.2776   24.0230 H   0  0  0  0  0  0  0  0  0  0  0  0
    8.5851    0.8948   24.5101 H   0  0  0  0  0  0  0  0  0  0  0  0
   10.4326    2.5775   24.8067 H   0  0  0  0  0  0  0  0  0  0  0  0
    9.1410    3.1648   23.7523 H   0  0  0  0  0  0  0  0  0  0  0  0
   11.8001    1.9832   22.7638 H   0  0  0  0  0  0  0  0  0  0  0  0
    9.3422    3.1279   21.3479 H   0  0  0  0  0  0  0  0  0  0  0  0
   10.8628    2.6802   20.5258 H   0  0  0  0  0  0  0  0  0  0  0  0
   10.5442    0.3161   21.2436 H   0  0  0  0  0  0  0  0  0  0  0  0
    9.1285    0.9227   20.3569 H   0  0  0  0  0  0  0  0  0  0  0  0
    6.7215    0.0589   19.8830 C   0  0  0  0  0  0  0  0  0  0  0  0
    5.5130    0.7255   20.1220 C   0  0  0  0  0  0  0  0  0  0  0  0
    4.8532    1.3468   19.0541 C   0  0  0  0  0  0  0  0  0  0  0  0
    5.4311    1.3041   17.7797 C   0  0  0  0  0  0  0  0  0  0  0  0
    6.5821    0.6684   17.5200 N   0  0  0  0  0  0  0  0  0  0  0  0
    7.1937    0.0609   18.5496 C   0  0  0  0  0  0  0  0  0  0  0  0
    8.1133   -0.4567   18.2861 H   0  0  0  0  0  0  0  0  0  0  0  0
    4.9506    1.8039   16.9362 H   0  0  0  0  0  0  0  0  0  0  0  0
    3.9088    1.8606   19.1912 H   0  0  0  0  0  0  0  0  0  0  0  0
    5.1052    0.7494   21.1367 H   0  0  0  0  0  0  0  0  0  0  0  0
    8.4086   -1.0139   20.6618 H   0  0  0  0  0  0  0  0  0  0  0  0
    6.5798   -2.6560   20.4170 H   0  0  0  0  0  0  0  0  0  0  0  0
    5.6564   -1.8336   21.6866 H   0  0  0  0  0  0  0  0  0  0  0  0
    7.1965   -2.6051   22.0858 H   0  0  0  0  0  0  0  0  0  0  0  0
  1  2  1  0
  2  3  1  0
  3  4  2  0
  3  5  1  0
  5  6  1  0
  6  7  1  0
  7  8  1  0
  8  9  1  0
  9 10  1  0
 10 11  1  0
 11 12  1  0
 12 13  1  0
 13 14  1  0
 13 15  1  0
 13 16  1  0
 12 17  1  0
 17 18  1  0
 17 19  1  0
 12 20  1  1
 11 21  1  0
 11 22  1  0
 10 23  1  0
 10 24  1  0
  9 25  1  0
  8 26  1  0
 26 27  1  0
 27 28  1  0
 27 29  1  0
 26 30  1  0
 26 31  1  0
  8 32  1  0
  7 33  1  0
  7 34  1  0
  6 35  1  0
  6 36  1  0
  2 37  1  0
 37 38  2  0
 38 39  1  0
 39 40  2  0
 40 41  1  0
 41 42  2  0
 42 43  1  0
 40 44  1  0
 39 45  1  0
 38 46  1  0
  2 47  1  0
  1 48  1  0
  1 49  1  0
  1 50  1  0
 27  5  1  0
 42 37  1  0
 17  9  1  0
M  CHG  2   9   1  13   1
M  END
>  <plip>  (1) 
-0.03333333333333333

>  <filename>  (1) 
[H][c]1[n][c]([H])[c]([C]([H])([C](=[O])[N]2[C]([H])([H])[C]([H])([H])[C]([H])([N+]3([H])[C]([H])([H])[C]([H])([H])[C@@]([H])([N+]([H])([H])[H])[C]3([H])[H])[C]([H])([H])[C]2([H])[H])[C]([H])([H])[H])[c]([H])[c]1[H]

$$$$
