
     RDKit          3D

 41 43  0  0  0  0  0  0  0  0999 V2000
    7.5321    1.8458   23.8762 C   0  0  0  0  0  0  0  0  0  0  0  0
    7.1596    0.8594   23.0595 C   0  0  0  0  0  0  0  0  0  0  0  0
    8.0667    0.2617   22.0007 C   0  0  0  0  0  0  0  0  0  0  0  0
    7.4386   -0.7548   21.0088 C   0  0  1  0  0  0  0  0  0  0  0  0
    6.6624   -1.8092   21.6513 N   0  0  0  0  0  0  0  0  0  0  0  0
    7.2020   -2.7468   22.4786 C   0  0  0  0  0  0  0  0  0  0  0  0
    8.3897   -2.7965   22.7546 O   0  0  0  0  0  0  0  0  0  0  0  0
    6.2383   -3.7485   23.0215 C   0  0  0  0  0  0  0  0  0  0  0  0
    5.0352   -4.1160   22.4498 C   0  0  0  0  0  0  0  0  0  0  0  0
    4.2626   -5.1417   23.0416 C   0  0  0  0  0  0  0  0  0  0  0  0
    3.0016   -5.5718   22.5239 C   0  0  0  0  0  0  0  0  0  0  0  0
    2.3154   -6.5764   23.1453 C   0  0  0  0  0  0  0  0  0  0  0  0
    2.8331   -7.1802   24.3210 C   0  0  0  0  0  0  0  0  0  0  0  0
    2.0521   -8.1481   24.8531 O   0  0  0  0  0  0  0  0  0  0  0  0
    2.4653   -8.4499   25.6664 H   0  0  0  0  0  0  0  0  0  0  0  0
    4.0307   -6.7922   24.8664 C   0  0  0  0  0  0  0  0  0  0  0  0
    4.7740   -5.7652   24.2278 C   0  0  0  0  0  0  0  0  0  0  0  0
    5.9697   -5.3949   24.7819 N   0  0  0  0  0  0  0  0  0  0  0  0
    6.6561   -4.4401   24.1950 C   0  0  0  0  0  0  0  0  0  0  0  0
    7.6149   -4.1789   24.6361 H   0  0  0  0  0  0  0  0  0  0  0  0
    4.4293   -7.2264   25.7762 H   0  0  0  0  0  0  0  0  0  0  0  0
    1.3584   -6.9497   22.8008 H   0  0  0  0  0  0  0  0  0  0  0  0
    2.5588   -5.0892   21.6598 H   0  0  0  0  0  0  0  0  0  0  0  0
    4.6613   -3.6920   21.5200 H   0  0  0  0  0  0  0  0  0  0  0  0
    5.6623   -1.7047   21.6773 H   0  0  0  0  0  0  0  0  0  0  0  0
    6.6210   -0.0736   19.9183 C   0  0  0  0  0  0  0  0  0  0  0  0
    5.4123    0.6061   20.1547 C   0  0  0  0  0  0  0  0  0  0  0  0
    4.7954    1.2895   19.1018 C   0  0  0  0  0  0  0  0  0  0  0  0
    5.4048    1.2818   17.8434 C   0  0  0  0  0  0  0  0  0  0  0  0
    6.5600    0.6513   17.5920 N   0  0  0  0  0  0  0  0  0  0  0  0
    7.1413    0.0079   18.6146 C   0  0  0  0  0  0  0  0  0  0  0  0
    8.1028   -0.4516   18.3776 H   0  0  0  0  0  0  0  0  0  0  0  0
    4.9548    1.8031   16.9992 H   0  0  0  0  0  0  0  0  0  0  0  0
    3.8744    1.8462   19.2442 H   0  0  0  0  0  0  0  0  0  0  0  0
    4.9671    0.6546   21.1515 H   0  0  0  0  0  0  0  0  0  0  0  0
    8.3003   -1.2443   20.5331 H   0  0  0  0  0  0  0  0  0  0  0  0
    8.5006    1.0664   21.3888 H   0  0  0  0  0  0  0  0  0  0  0  0
    8.9027   -0.2528   22.4915 H   0  0  0  0  0  0  0  0  0  0  0  0
    6.1487    0.4527   23.1804 H   0  0  0  0  0  0  0  0  0  0  0  0
    6.8723    2.2399   24.6460 H   0  0  0  0  0  0  0  0  0  0  0  0
    8.5162    2.3086   23.8244 H   0  0  0  0  0  0  0  0  0  0  0  0
  1  2  2  3
  2  3  1  0
  3  4  1  0
  4  5  1  0
  5  6  1  0
  6  7  2  0
  6  8  1  0
  8  9  2  0
  9 10  1  0
 10 11  2  0
 11 12  1  0
 12 13  2  0
 13 14  1  0
 14 15  1  0
 13 16  1  0
 16 17  2  0
 17 18  1  0
 18 19  2  0
 19 20  1  0
 16 21  1  0
 12 22  1  0
 11 23  1  0
  9 24  1  0
  5 25  1  0
  4 26  1  0
 26 27  2  0
 27 28  1  0
 28 29  2  0
 29 30  1  0
 30 31  2  0
 31 32  1  0
 29 33  1  0
 28 34  1  0
 27 35  1  0
  4 36  1  6
  3 37  1  0
  3 38  1  0
  2 39  1  0
  1 40  1  0
  1 41  1  0
 19  8  1  0
 31 26  1  0
 17 10  1  0
M  END
>  <plip>  (1) 
-0.03125

>  <filename>  (1) 
[H][O][c]1[c]([H])[c]([H])[c]2[c]([H])[c]([C](=[O])[N]([H])[C@@]([H])([c]3[c]([H])[n][c]([H])[c]([H])[c]3[H])[C]([H])([H])[C]([H])=[C]([H])[H])[c]([H])[n][c]2[c]1[H]

$$$$
