
     RDKit          3D

 25 26  0  0  0  0  0  0  0  0999 V2000
    4.9083    1.7735   17.0034 H   0  0  0  0  0  0  0  0  0  0  0  0
    5.4012    1.2920   17.8436 C   0  0  0  0  0  0  0  0  0  0  0  0
    6.5689    0.6819   17.5749 N   0  0  0  0  0  0  0  0  0  0  0  0
    7.1799    0.0628   18.5938 C   0  0  0  0  0  0  0  0  0  0  0  0
    8.1283   -0.4326   18.3756 H   0  0  0  0  0  0  0  0  0  0  0  0
    6.6612    0.0070   19.9084 C   0  0  0  0  0  0  0  0  0  0  0  0
    7.3607   -0.6881   20.9542 C   0  0  0  0  0  0  0  0  0  0  0  0
    7.9649   -1.2788   21.8201 C   0  0  0  0  0  0  0  0  0  0  0  0
    8.6466   -1.9667   22.8814 C   0  0  0  0  0  0  0  0  0  0  0  0
    9.8127   -2.5618   22.5625 N   0  0  0  0  0  0  0  0  0  0  0  0
   10.4698   -3.2076   23.5324 C   0  0  0  0  0  0  0  0  0  0  0  0
   11.4107   -3.6748   23.2620 H   0  0  0  0  0  0  0  0  0  0  0  0
   10.0074   -3.3033   24.8451 C   0  0  0  0  0  0  0  0  0  0  0  0
   10.5757   -3.8426   25.5981 H   0  0  0  0  0  0  0  0  0  0  0  0
    8.8001   -2.6869   25.1675 C   0  0  0  0  0  0  0  0  0  0  0  0
    8.4169   -2.7436   26.1852 H   0  0  0  0  0  0  0  0  0  0  0  0
    8.0830   -1.9983   24.1881 C   0  0  0  0  0  0  0  0  0  0  0  0
    6.7708   -1.3253   24.5238 C   0  0  0  0  0  0  0  0  0  0  0  0
    5.9680   -1.7431   23.9135 H   0  0  0  0  0  0  0  0  0  0  0  0
    6.8285   -0.2528   24.3209 H   0  0  0  0  0  0  0  0  0  0  0  0
    6.5140   -1.4670   25.5757 H   0  0  0  0  0  0  0  0  0  0  0  0
    5.4397    0.6538   20.1595 C   0  0  0  0  0  0  0  0  0  0  0  0
    5.0097    0.6289   21.1596 H   0  0  0  0  0  0  0  0  0  0  0  0
    4.8017    1.3132   19.1096 C   0  0  0  0  0  0  0  0  0  0  0  0
    3.8673    1.8480   19.2654 H   0  0  0  0  0  0  0  0  0  0  0  0
  1  2  1  0
  2  3  2  0
  3  4  1  0
  4  5  1  0
  4  6  2  0
  6  7  1  0
  7  8  3  0
  8  9  1  0
  9 10  2  0
 10 11  1  0
 11 12  1  0
 11 13  2  0
 13 14  1  0
 13 15  1  0
 15 16  1  0
 15 17  2  0
 17 18  1  0
 18 19  1  0
 18 20  1  0
 18 21  1  0
  6 22  1  0
 22 23  1  0
 22 24  2  0
 24 25  1  0
 24  2  1  0
 17  9  1  0
M  END
>  <plip>  (1) 
-0.03571428571428571

>  <filename>  (1) 
[H][c]1[n][c]([H])[c]([C]#[C][c]2[n][c]([H])[c]([H])[c]([H])[c]2[C]([H])([H])[H])[c]([H])[c]1[H]

$$$$
