
     RDKit          3D

 43 46  0  0  0  0  0  0  0  0999 V2000
    7.5880    2.2613   20.7213 H   0  0  0  0  0  0  0  0  0  0  0  0
    8.5464    2.1930   20.6193 O   0  0  0  0  0  0  0  0  0  0  0  0
    9.0277    1.3265   21.6267 C   0  0  1  0  0  0  0  0  0  0  0  0
   10.1148    1.4374   21.5358 H   0  0  0  0  0  0  0  0  0  0  0  0
    8.6285    1.7333   23.0412 C   0  0  0  0  0  0  0  0  0  0  0  0
    7.2936    2.0385   23.3694 C   0  0  0  0  0  0  0  0  0  0  0  0
    6.5261    2.0279   22.5928 H   0  0  0  0  0  0  0  0  0  0  0  0
    6.9209    2.3250   24.6821 C   0  0  0  0  0  0  0  0  0  0  0  0
    5.8790    2.5422   24.9042 H   0  0  0  0  0  0  0  0  0  0  0  0
    7.8761    2.3182   25.7042 C   0  0  0  0  0  0  0  0  0  0  0  0
    7.5875    2.5478   26.7248 H   0  0  0  0  0  0  0  0  0  0  0  0
    9.2118    2.0250   25.3956 C   0  0  0  0  0  0  0  0  0  0  0  0
    9.9566    2.0060   26.1843 H   0  0  0  0  0  0  0  0  0  0  0  0
    9.5838    1.7380   24.0794 C   0  0  0  0  0  0  0  0  0  0  0  0
   10.6257    1.4983   23.8573 H   0  0  0  0  0  0  0  0  0  0  0  0
    8.7066   -0.1558   21.2752 C   0  0  2  0  0  0  0  0  0  0  0  0
    9.1665   -0.2691   20.2888 H   0  0  0  0  0  0  0  0  0  0  0  0
    7.1817   -0.5143   21.1545 C   0  0  1  0  0  0  0  0  0  0  0  0
    6.7184   -0.2164   22.1036 H   0  0  0  0  0  0  0  0  0  0  0  0
    6.5053    0.2278   20.0075 C   0  0  0  0  0  0  0  0  0  0  0  0
    7.0843    0.2047   18.7248 C   0  0  0  0  0  0  0  0  0  0  0  0
    8.0302   -0.3218   18.5709 H   0  0  0  0  0  0  0  0  0  0  0  0
    6.5575    0.7737   17.6349 N   0  0  0  0  0  0  0  0  0  0  0  0
    5.3814    1.4015   17.7799 C   0  0  0  0  0  0  0  0  0  0  0  0
    4.9835    1.8671   16.8830 H   0  0  0  0  0  0  0  0  0  0  0  0
    4.6882    1.4601   18.9933 C   0  0  0  0  0  0  0  0  0  0  0  0
    3.7376    1.9784   19.0317 H   0  0  0  0  0  0  0  0  0  0  0  0
    5.2572    0.8630   20.1245 C   0  0  0  0  0  0  0  0  0  0  0  0
    4.7339    0.8989   21.0822 H   0  0  0  0  0  0  0  0  0  0  0  0
    6.8691   -2.0326   20.9903 C   0  0  0  0  0  0  0  0  0  0  0  0
    5.8440   -2.2112   21.3397 H   0  0  0  0  0  0  0  0  0  0  0  0
    6.8707   -2.2952   19.9300 H   0  0  0  0  0  0  0  0  0  0  0  0
    7.7834   -3.0030   21.7485 C   0  0  1  0  0  0  0  0  0  0  0  0
    7.5141   -4.0414   21.5153 H   0  0  0  0  0  0  0  0  0  0  0  0
    9.5125   -2.7228   21.2548 S   0  0  0  0  0  0  0  0  0  0  0  0
    9.4570   -1.1611   22.1802 C   0  0  2  0  0  0  0  0  0  0  0  0
   10.4822   -0.8174   22.3526 H   0  0  0  0  0  0  0  0  0  0  0  0
    8.7753   -1.5498   23.5165 C   0  0  0  0  0  0  0  0  0  0  0  0
    8.2524   -0.6960   23.9549 H   0  0  0  0  0  0  0  0  0  0  0  0
    9.5515   -1.8503   24.2302 H   0  0  0  0  0  0  0  0  0  0  0  0
    7.8146   -2.7445   23.2626 C   0  0  0  0  0  0  0  0  0  0  0  0
    8.2031   -3.6408   23.7559 H   0  0  0  0  0  0  0  0  0  0  0  0
    6.8037   -2.5729   23.6563 H   0  0  0  0  0  0  0  0  0  0  0  0
  1  2  1  0
  2  3  1  0
  3  4  1  1
  3  5  1  0
  5  6  2  0
  6  7  1  0
  6  8  1  0
  8  9  1  0
  8 10  2  0
 10 11  1  0
 10 12  1  0
 12 13  1  0
 12 14  2  0
 14 15  1  0
  3 16  1  0
 16 17  1  6
 16 18  1  0
 18 19  1  1
 18 20  1  0
 20 21  2  0
 21 22  1  0
 21 23  1  0
 23 24  2  0
 24 25  1  0
 24 26  1  0
 26 27  1  0
 26 28  2  0
 28 29  1  0
 18 30  1  0
 30 31  1  0
 30 32  1  0
 30 33  1  0
 33 34  1  1
 33 35  1  0
 35 36  1  0
 36 37  1  1
 36 38  1  0
 38 39  1  0
 38 40  1  0
 38 41  1  0
 41 42  1  0
 41 43  1  0
 14  5  1  0
 36 16  1  0
 28 20  1  0
 41 33  1  0
M  END
>  <plip>  (1) 
-0.10714285714285714

>  <filename>  (1) 
[H][O][C@@]([H])([c]1[c]([H])[c]([H])[c]([H])[c]([H])[c]1[H])[C@]1([H])[C@@]([H])([c]2[c]([H])[n][c]([H])[c]([H])[c]2[H])[C]([H])([H])[C@@]2([H])[S][C@]1([H])[C]([H])([H])[C]2([H])[H]

$$$$
