
     RDKit          3D

 29 30  0  0  0  0  0  0  0  0999 V2000
    9.1114   -0.9849   21.5896 H   0  0  0  0  0  0  0  0  0  0  0  0
    8.7210   -0.8415   20.7182 O   0  0  0  0  0  0  0  0  0  0  0  0
    7.3473   -0.7362   21.0147 C   0  0  1  0  0  0  0  0  0  0  0  0
    7.2312   -0.2336   22.3374 O   0  0  0  0  0  0  0  0  0  0  0  0
    7.6222    1.0316   22.6754 C   0  0  0  0  0  0  0  0  0  0  0  0
    7.2561    1.4341   23.9653 C   0  0  0  0  0  0  0  0  0  0  0  0
    6.6775    0.7369   24.5630 H   0  0  0  0  0  0  0  0  0  0  0  0
    7.6307    2.6905   24.4432 C   0  0  0  0  0  0  0  0  0  0  0  0
    7.3623    3.0103   25.4408 H   0  0  0  0  0  0  0  0  0  0  0  0
    8.3688    3.5454   23.6199 C   0  0  0  0  0  0  0  0  0  0  0  0
    8.9001    5.1067   24.1788 Cl  0  0  0  0  0  0  0  0  0  0  0  0
    8.7117    3.1470   22.3323 C   0  0  0  0  0  0  0  0  0  0  0  0
    9.2714    3.8314   21.7248 H   0  0  0  0  0  0  0  0  0  0  0  0
    8.3458    1.8907   21.8462 C   0  0  0  0  0  0  0  0  0  0  0  0
    8.6007    1.5829   20.8398 H   0  0  0  0  0  0  0  0  0  0  0  0
    6.6383    0.0746   19.9488 C   0  0  0  0  0  0  0  0  0  0  0  0
    7.1748    0.0830   18.6587 C   0  0  0  0  0  0  0  0  0  0  0  0
    8.1310   -0.3966   18.4600 H   0  0  0  0  0  0  0  0  0  0  0  0
    6.5878    0.6733   17.6079 N   0  0  0  0  0  0  0  0  0  0  0  0
    5.4229    1.2992   17.8275 C   0  0  0  0  0  0  0  0  0  0  0  0
    4.9696    1.7784   16.9613 H   0  0  0  0  0  0  0  0  0  0  0  0
    4.7867    1.3408   19.0741 C   0  0  0  0  0  0  0  0  0  0  0  0
    3.8357    1.8541   19.1748 H   0  0  0  0  0  0  0  0  0  0  0  0
    5.4030    0.7117   20.1584 C   0  0  0  0  0  0  0  0  0  0  0  0
    4.9436    0.7342   21.1506 H   0  0  0  0  0  0  0  0  0  0  0  0
    6.7588   -2.1208   21.1108 C   0  0  0  0  0  0  0  0  0  0  0  0
    6.8840   -2.6482   20.1678 H   0  0  0  0  0  0  0  0  0  0  0  0
    7.2753   -2.6541   21.9080 H   0  0  0  0  0  0  0  0  0  0  0  0
    5.7003   -2.0603   21.3695 H   0  0  0  0  0  0  0  0  0  0  0  0
  1  2  1  0
  3  2  1  6
  3  4  1  0
  4  5  1  0
  5  6  2  0
  6  7  1  0
  6  8  1  0
  8  9  1  0
  8 10  2  0
 10 11  1  0
 10 12  1  0
 12 13  1  0
 12 14  2  0
 14 15  1  0
  3 16  1  0
 16 17  2  0
 17 18  1  0
 17 19  1  0
 19 20  2  0
 20 21  1  0
 20 22  1  0
 22 23  1  0
 22 24  2  0
 24 25  1  0
  3 26  1  0
 26 27  1  0
 26 28  1  0
 26 29  1  0
 14  5  1  0
 24 16  1  0
M  END
>  <plip>  (1) 
-0.03571428571428571

>  <filename>  (1) 
[H][O][C@@]([O][c]1[c]([H])[c]([H])[c]([Cl])[c]([H])[c]1[H])([c]1[c]([H])[n][c]([H])[c]([H])[c]1[H])[C]([H])([H])[H]

$$$$
