
     RDKit          3D

 37 39  0  0  0  0  0  0  0  0999 V2000
    6.4569   -1.2670   27.3604 C   0  0  0  0  0  0  0  0  0  0  0  0
    7.4943   -2.0341   26.5142 C   0  0  2  0  0  0  0  0  0  0  0  0
    7.1402   -1.8862   25.0362 C   0  0  0  0  0  0  0  0  0  0  0  0
    5.9906   -1.7897   24.6517 O   0  0  0  0  0  0  0  0  0  0  0  0
    8.1945   -1.8835   24.1674 N   0  0  0  0  0  0  0  0  0  0  0  0
    8.0507   -1.5412   22.8380 C   0  0  0  0  0  0  0  0  0  0  0  0
    8.9483   -1.9001   21.9625 N   0  0  0  0  0  0  0  0  0  0  0  0
    8.4937   -1.3566   20.7566 O   0  0  0  0  0  0  0  0  0  0  0  0
    7.3503   -0.6852   20.9850 C   0  0  0  0  0  0  0  0  0  0  0  0
    6.6675   -0.0052   19.8868 C   0  0  0  0  0  0  0  0  0  0  0  0
    5.4512    0.6482   20.1289 C   0  0  0  0  0  0  0  0  0  0  0  0
    4.8290    1.3014   19.0701 C   0  0  0  0  0  0  0  0  0  0  0  0
    5.4470    1.2801   17.8142 C   0  0  0  0  0  0  0  0  0  0  0  0
    6.6079    0.6525   17.5678 N   0  0  0  0  0  0  0  0  0  0  0  0
    7.2025    0.0281   18.5892 C   0  0  0  0  0  0  0  0  0  0  0  0
    8.1469   -0.4688   18.3729 H   0  0  0  0  0  0  0  0  0  0  0  0
    4.9887    1.7877   16.9674 H   0  0  0  0  0  0  0  0  0  0  0  0
    3.8949    1.8323   19.2057 H   0  0  0  0  0  0  0  0  0  0  0  0
    5.0077    0.6493   21.1264 H   0  0  0  0  0  0  0  0  0  0  0  0
    7.0095   -0.7722   22.2902 C   0  0  0  0  0  0  0  0  0  0  0  0
    6.1688   -0.4096   22.8503 H   0  0  0  0  0  0  0  0  0  0  0  0
    9.0460   -2.3469   24.4145 H   0  0  0  0  0  0  0  0  0  0  0  0
    7.5791   -3.5189   26.8427 C   0  0  0  0  0  0  0  0  0  0  0  0
    8.7811   -4.0540   27.3234 C   0  0  0  0  0  0  0  0  0  0  0  0
    8.8213   -5.3682   27.8030 C   0  0  0  0  0  0  0  0  0  0  0  0
    7.6799   -6.1795   27.7378 C   0  0  0  0  0  0  0  0  0  0  0  0
    6.5100   -5.6840   27.1443 C   0  0  0  0  0  0  0  0  0  0  0  0
    6.4608   -4.3599   26.6932 C   0  0  0  0  0  0  0  0  0  0  0  0
    5.5598   -3.9856   26.2038 H   0  0  0  0  0  0  0  0  0  0  0  0
    5.6446   -6.3334   27.0348 H   0  0  0  0  0  0  0  0  0  0  0  0
    7.6923   -7.1832   28.1531 H   0  0  0  0  0  0  0  0  0  0  0  0
    9.7373   -5.7402   28.2422 H   0  0  0  0  0  0  0  0  0  0  0  0
    9.6866   -3.4470   27.3064 H   0  0  0  0  0  0  0  0  0  0  0  0
    8.4881   -1.5871   26.6600 H   0  0  0  0  0  0  0  0  0  0  0  0
    6.4996   -0.2002   27.1172 H   0  0  0  0  0  0  0  0  0  0  0  0
    6.6190   -1.3832   28.4279 H   0  0  0  0  0  0  0  0  0  0  0  0
    5.4479   -1.6301   27.1304 H   0  0  0  0  0  0  0  0  0  0  0  0
  1  2  1  0
  2  3  1  0
  3  4  2  0
  3  5  1  0
  5  6  1  0
  6  7  2  0
  7  8  1  0
  8  9  1  0
  9 10  1  0
 10 11  2  0
 11 12  1  0
 12 13  2  0
 13 14  1  0
 14 15  2  0
 15 16  1  0
 13 17  1  0
 12 18  1  0
 11 19  1  0
  9 20  2  0
 20 21  1  0
  5 22  1  0
  2 23  1  0
 23 24  2  0
 24 25  1  0
 25 26  2  0
 26 27  1  0
 27 28  2  0
 28 29  1  0
 27 30  1  0
 26 31  1  0
 25 32  1  0
 24 33  1  0
  2 34  1  6
  1 35  1  0
  1 36  1  0
  1 37  1  0
 20  6  1  0
 28 23  1  0
 15 10  1  0
M  END
>  <plip>  (1) 
-0.03571428571428571

>  <filename>  (1) 
[H][c]1[n][c]([H])[c](-[c]2[o][n][c]([N]([H])[C](=[O])[C@]([H])([c]3[c]([H])[c]([H])[c]([H])[c]([H])[c]3[H])[C]([H])([H])[H])[c]2[H])[c]([H])[c]1[H]

$$$$
