
     RDKit          3D

 39 40  0  0  0  0  0  0  0  0999 V2000
    4.2943   -0.8474   27.1175 C   0  0  0  0  0  0  0  0  0  0  0  0
    5.7223   -0.8979   27.1329 O   0  0  0  0  0  0  0  0  0  0  0  0
    6.4571   -0.7188   26.0408 C   0  0  0  0  0  0  0  0  0  0  0  0
    6.0077   -0.6368   24.8984 O   0  0  0  0  0  0  0  0  0  0  0  0
    7.9034   -0.5983   26.3386 C   0  0  0  0  0  0  0  0  0  0  0  0
    8.9396   -0.0256   25.6329 C   0  0  0  0  0  0  0  0  0  0  0  0
    8.8213    0.7030   24.3254 C   0  0  0  0  0  0  0  0  0  0  0  0
    8.1044   -0.1398   23.3406 N   0  0  0  0  0  4  0  0  0  0  0  0
    7.8816    0.4374   21.9806 C   0  0  0  0  0  0  0  0  0  0  0  0
    9.1335    1.0504   21.3563 C   0  0  0  0  0  0  0  0  0  0  0  0
    8.8500    1.5274   20.4146 H   0  0  0  0  0  0  0  0  0  0  0  0
    9.8912    0.2882   21.1346 H   0  0  0  0  0  0  0  0  0  0  0  0
    9.5841    1.8197   21.9885 H   0  0  0  0  0  0  0  0  0  0  0  0
    7.2910   -0.6608   21.0656 C   0  0  0  0  0  0  0  0  0  0  0  0
    6.5776   -0.0873   19.8491 C   0  0  0  0  0  0  0  0  0  0  0  0
    5.3788    0.6250   20.0338 C   0  0  0  0  0  0  0  0  0  0  0  0
    4.8120    1.2973   18.9526 C   0  0  0  0  0  0  0  0  0  0  0  0
    5.4529    1.2354   17.7135 C   0  0  0  0  0  0  0  0  0  0  0  0
    6.5742    0.5319   17.4960 N   0  0  0  0  0  0  0  0  0  0  0  0
    7.1101   -0.1085   18.5447 C   0  0  0  0  0  0  0  0  0  0  0  0
    8.0310   -0.6587   18.3348 H   0  0  0  0  0  0  0  0  0  0  0  0
    5.0531    1.7830   16.8626 H   0  0  0  0  0  0  0  0  0  0  0  0
    3.9120    1.8937   19.0678 H   0  0  0  0  0  0  0  0  0  0  0  0
    4.9156    0.6706   21.0229 H   0  0  0  0  0  0  0  0  0  0  0  0
    8.1042   -1.3390   20.7718 H   0  0  0  0  0  0  0  0  0  0  0  0
    6.5924   -1.2495   21.6750 H   0  0  0  0  0  0  0  0  0  0  0  0
    7.1399    1.2464   22.0711 H   0  0  0  0  0  0  0  0  0  0  0  0
    7.1666   -0.3902   23.7671 H   0  0  0  0  0  0  0  0  0  0  0  0
    8.6331   -1.0359   23.2543 H   0  0  0  0  0  0  0  0  0  0  0  0
    9.8233    0.9814   23.9778 H   0  0  0  0  0  0  0  0  0  0  0  0
    8.2841    1.6496   24.4807 H   0  0  0  0  0  0  0  0  0  0  0  0
   10.0839   -0.1165   26.4965 C   0  0  0  0  0  0  0  0  0  0  0  0
    9.6608   -0.7265   27.6340 C   0  0  0  0  0  0  0  0  0  0  0  0
    8.3587   -1.0307   27.5542 O   0  0  0  0  0  0  0  0  0  0  0  0
   10.1375   -1.0376   28.5530 H   0  0  0  0  0  0  0  0  0  0  0  0
   11.0906    0.2419   26.3106 H   0  0  0  0  0  0  0  0  0  0  0  0
    3.9468    0.1865   27.2040 H   0  0  0  0  0  0  0  0  0  0  0  0
    3.8781   -1.3019   26.2182 H   0  0  0  0  0  0  0  0  0  0  0  0
    3.9904   -1.4048   28.0039 H   0  0  0  0  0  0  0  0  0  0  0  0
  1  2  1  0
  2  3  1  0
  3  4  2  0
  3  5  1  0
  5  6  2  0
  6  7  1  0
  7  8  1  0
  8  9  1  0
  9 10  1  0
 10 11  1  0
 10 12  1  0
 10 13  1  0
  9 14  1  0
 14 15  1  0
 15 16  2  0
 16 17  1  0
 17 18  2  0
 18 19  1  0
 19 20  2  0
 20 21  1  0
 18 22  1  0
 17 23  1  0
 16 24  1  0
 14 25  1  0
 14 26  1  0
  9 27  1  0
  8 28  1  0
  8 29  1  0
  7 30  1  0
  7 31  1  0
  6 32  1  0
 32 33  2  0
 33 34  1  0
 33 35  1  0
 32 36  1  0
  1 37  1  0
  1 38  1  0
  1 39  1  0
 34  5  1  0
 20 15  1  0
M  CHG  1   8   1
M  END
>  <plip>  (1) 
-0.13793103448275862

>  <filename>  (1) 
[H][c]1[n][c]([H])[c]([C]([H])([H])[C]([H])([C]([H])([H])[H])[N+]([H])([H])[C]([H])([H])[c]2[c]([C](=[O])[O][C]([H])([H])[H])[o][c]([H])[c]2[H])[c]([H])[c]1[H]

$$$$
