
     RDKit          3D

 30 32  0  0  0  0  0  0  0  0999 V2000
    4.9602    1.7900   16.9996 H   0  0  0  0  0  0  0  0  0  0  0  0
    5.4111    1.2755   17.8430 C   0  0  0  0  0  0  0  0  0  0  0  0
    6.5748    0.6518   17.6023 N   0  0  0  0  0  0  0  0  0  0  0  0
    7.1825    0.0516   18.6305 C   0  0  0  0  0  0  0  0  0  0  0  0
    8.1320   -0.4324   18.4002 H   0  0  0  0  0  0  0  0  0  0  0  0
    6.6645    0.0384   19.9402 C   0  0  0  0  0  0  0  0  0  0  0  0
    7.3787   -0.6262   20.9789 N   0  0  0  0  0  0  0  0  0  0  0  0
    7.7985   -1.9282   20.8675 C   0  0  0  0  0  0  0  0  0  0  0  0
    7.4639   -2.4584   19.9995 H   0  0  0  0  0  0  0  0  0  0  0  0
    8.4005   -2.3189   22.0347 C   0  0  0  0  0  0  0  0  0  0  0  0
    8.8855   -3.2613   22.2437 H   0  0  0  0  0  0  0  0  0  0  0  0
    8.2788   -1.2327   22.9315 C   0  0  0  0  0  0  0  0  0  0  0  0
    8.5553   -1.1925   23.9749 H   0  0  0  0  0  0  0  0  0  0  0  0
    7.6455   -0.2046   22.2739 C   0  0  0  0  0  0  0  0  0  0  0  0
    7.3022    1.1340   22.7732 C   0  0  0  0  0  0  0  0  0  0  0  0
    7.7041    2.2647   22.0375 C   0  0  0  0  0  0  0  0  0  0  0  0
    8.2104    2.0945   21.0924 H   0  0  0  0  0  0  0  0  0  0  0  0
    7.4400    3.5452   22.4975 C   0  0  0  0  0  0  0  0  0  0  0  0
    7.7761    4.3998   21.9185 H   0  0  0  0  0  0  0  0  0  0  0  0
    6.7494    3.7278   23.6999 C   0  0  0  0  0  0  0  0  0  0  0  0
    6.5510    4.7343   24.0573 H   0  0  0  0  0  0  0  0  0  0  0  0
    6.3188    2.6239   24.4334 C   0  0  0  0  0  0  0  0  0  0  0  0
    5.7776    2.7640   25.3633 H   0  0  0  0  0  0  0  0  0  0  0  0
    6.5893    1.3233   23.9825 C   0  0  0  0  0  0  0  0  0  0  0  0
    6.0703    0.2046   24.7499 C   0  0  0  0  0  0  0  0  0  0  0  0
    5.6924   -0.7034   25.3568 N   0  0  0  0  0  0  0  0  0  0  0  0
    5.4268    0.6586   20.1686 C   0  0  0  0  0  0  0  0  0  0  0  0
    4.9859    0.6524   21.1672 H   0  0  0  0  0  0  0  0  0  0  0  0
    4.7957    1.2954   19.0994 C   0  0  0  0  0  0  0  0  0  0  0  0
    3.8597    1.8307   19.2339 H   0  0  0  0  0  0  0  0  0  0  0  0
  1  2  1  0
  2  3  2  0
  3  4  1  0
  4  5  1  0
  4  6  2  0
  6  7  1  0
  7  8  1  0
  8  9  1  0
  8 10  2  0
 10 11  1  0
 10 12  1  0
 12 13  1  0
 12 14  2  0
 14 15  1  0
 15 16  2  0
 16 17  1  0
 16 18  1  0
 18 19  1  0
 18 20  2  0
 20 21  1  0
 20 22  1  0
 22 23  1  0
 22 24  2  0
 24 25  1  0
 25 26  3  0
  6 27  1  0
 27 28  1  0
 27 29  2  0
 29 30  1  0
 29  2  1  0
 14  7  1  0
 24 15  1  0
M  END
>  <plip>  (1) 
-0.03571428571428571

>  <filename>  (1) 
[H][c]1[n][c]([H])[c](-[n]2[c]([H])[c]([H])[c]([H])[c]2-[c]2[c]([H])[c]([H])[c]([H])[c]([H])[c]2[C]#[N])[c]([H])[c]1[H]

$$$$
