
     RDKit          3D

 32 34  0  0  0  0  0  0  0  0999 V2000
    7.7826    0.1588   22.1510 C   0  0  0  0  0  0  0  0  0  0  0  0
    7.3871   -0.8089   21.0312 C   0  0  0  0  0  0  0  0  0  0  0  0
    6.6703   -1.9855   21.4653 N   0  0  0  0  0  0  0  0  0  0  0  0
    7.2118   -2.9083   22.2668 C   0  0  0  0  0  0  0  0  0  0  0  0
    8.5067   -2.8637   22.4922 N   0  0  0  0  0  0  0  0  0  0  0  0
    8.9516   -3.8140   23.3242 C   0  0  0  0  0  0  0  0  0  0  0  0
    8.1537   -4.8261   23.8248 C   0  0  0  0  0  0  0  0  0  0  0  0
    9.0124   -5.8927   24.8768 S   0  0  0  0  0  0  0  0  0  0  0  0
   10.4523   -4.9523   24.6740 C   0  0  0  0  0  0  0  0  0  0  0  0
   10.2829   -3.8854   23.8519 C   0  0  0  0  0  0  0  0  0  0  0  0
   11.0553   -3.1832   23.5590 H   0  0  0  0  0  0  0  0  0  0  0  0
   11.3577   -5.2841   25.1708 H   0  0  0  0  0  0  0  0  0  0  0  0
    6.8203   -4.7604   23.4055 C   0  0  0  0  0  0  0  0  0  0  0  0
    5.9177   -5.7103   23.6730 N   0  0  0  0  0  0  0  0  0  0  0  0
    6.0902   -6.2600   24.4933 H   0  0  0  0  0  0  0  0  0  0  0  0
    5.0186   -5.2728   23.5396 H   0  0  0  0  0  0  0  0  0  0  0  0
    6.3103   -3.7819   22.7043 N   0  0  0  0  0  0  0  0  0  0  0  0
    5.6847   -1.9788   21.6465 H   0  0  0  0  0  0  0  0  0  0  0  0
    6.5907   -0.1197   19.9552 C   0  0  0  0  0  0  0  0  0  0  0  0
    5.3825    0.5555   20.1824 C   0  0  0  0  0  0  0  0  0  0  0  0
    4.8052    1.2505   19.1187 C   0  0  0  0  0  0  0  0  0  0  0  0
    5.4434    1.2393   17.8741 C   0  0  0  0  0  0  0  0  0  0  0  0
    6.5808    0.5716   17.6315 N   0  0  0  0  0  0  0  0  0  0  0  0
    7.1205   -0.0878   18.6628 C   0  0  0  0  0  0  0  0  0  0  0  0
    8.0602   -0.6054   18.4615 H   0  0  0  0  0  0  0  0  0  0  0  0
    5.0237    1.7763   17.0267 H   0  0  0  0  0  0  0  0  0  0  0  0
    3.8858    1.8120   19.2429 H   0  0  0  0  0  0  0  0  0  0  0  0
    4.9105    0.5589   21.1699 H   0  0  0  0  0  0  0  0  0  0  0  0
    8.3250   -1.1694   20.5832 H   0  0  0  0  0  0  0  0  0  0  0  0
    8.4362   -0.3461   22.8680 H   0  0  0  0  0  0  0  0  0  0  0  0
    6.9047    0.5503   22.6765 H   0  0  0  0  0  0  0  0  0  0  0  0
    8.3194    1.0031   21.7062 H   0  0  0  0  0  0  0  0  0  0  0  0
  1  2  1  0
  2  3  1  0
  3  4  1  0
  4  5  2  0
  5  6  1  0
  6  7  2  0
  7  8  1  0
  8  9  1  0
  9 10  2  0
 10 11  1  0
  9 12  1  0
  7 13  1  0
 13 14  1  0
 14 15  1  0
 14 16  1  0
 13 17  2  0
  3 18  1  0
  2 19  1  0
 19 20  2  0
 20 21  1  0
 21 22  2  0
 22 23  1  0
 23 24  2  0
 24 25  1  0
 22 26  1  0
 21 27  1  0
 20 28  1  0
  2 29  1  0
  1 30  1  0
  1 31  1  0
  1 32  1  0
 17  4  1  0
 24 19  1  0
 10  6  1  0
M  END
>  <plip>  (1) 
-0.06896551724137931

>  <filename>  (1) 
[H][c]1[n][c]([H])[c]([C]([H])([N]([H])[c]2[n][c]([N]([H])[H])[c]3[s][c]([H])[c]([H])[c]3[n]2)[C]([H])([H])[H])[c]([H])[c]1[H]

$$$$
