
     RDKit          3D

 39 41  0  0  0  0  0  0  0  0999 V2000
    5.0782    1.7495   17.1125 H   0  0  0  0  0  0  0  0  0  0  0  0
    5.5244    1.2109   17.9459 C   0  0  0  0  0  0  0  0  0  0  0  0
    6.6523    0.5283   17.6922 N   0  0  0  0  0  0  0  0  0  0  0  0
    7.2308   -0.1332   18.7002 C   0  0  0  0  0  0  0  0  0  0  0  0
    8.1346   -0.6868   18.4436 H   0  0  0  0  0  0  0  0  0  0  0  0
    6.7206   -0.1392   20.0094 C   0  0  0  0  0  0  0  0  0  0  0  0
    7.3716   -0.8203   21.0757 N   0  0  0  0  0  0  0  0  0  0  0  0
    6.6369   -1.1949   22.1647 N   0  0  0  0  0  0  0  0  0  0  0  0
    7.5482   -1.7246   22.9386 C   0  0  0  0  0  0  0  0  0  0  0  0
    7.3121   -2.3394   24.1279 N   0  0  0  0  0  0  0  0  0  0  0  0
    8.1654   -2.7166   24.4924 H   0  0  0  0  0  0  0  0  0  0  0  0
    6.3962   -1.7990   25.0147 C   0  0  0  0  0  0  0  0  0  0  0  0
    5.8749   -0.7205   24.8964 O   0  0  0  0  0  0  0  0  0  0  0  0
    6.1686   -2.6855   26.0375 N   0  0  0  0  0  0  0  0  0  0  0  0
    6.5625   -3.5833   25.8292 H   0  0  0  0  0  0  0  0  0  0  0  0
    4.8586   -2.7471   26.6977 C   0  0  0  0  0  0  0  0  0  0  0  0
    4.3487   -1.7879   26.5231 H   0  0  0  0  0  0  0  0  0  0  0  0
    4.0185   -3.9074   26.0927 C   0  0  0  0  0  0  0  0  0  0  0  0
    4.7049   -4.6810   25.7156 H   0  0  0  0  0  0  0  0  0  0  0  0
    3.4715   -3.5462   25.2179 H   0  0  0  0  0  0  0  0  0  0  0  0
    3.0789   -4.5461   27.1248 C   0  0  0  0  0  0  0  0  0  0  0  0
    2.4212   -3.7624   27.5204 H   0  0  0  0  0  0  0  0  0  0  0  0
    2.4317   -5.2939   26.6561 H   0  0  0  0  0  0  0  0  0  0  0  0
    3.8681   -5.1703   28.3016 C   0  0  0  0  0  0  0  0  0  0  0  0
    3.2118   -5.2219   29.1776 H   0  0  0  0  0  0  0  0  0  0  0  0
    4.1364   -6.2084   28.0690 H   0  0  0  0  0  0  0  0  0  0  0  0
    5.1555   -4.3747   28.6614 C   0  0  0  0  0  0  0  0  0  0  0  0
    6.0172   -4.8359   28.1576 H   0  0  0  0  0  0  0  0  0  0  0  0
    5.3609   -4.4284   29.7385 H   0  0  0  0  0  0  0  0  0  0  0  0
    5.0297   -2.9089   28.2187 C   0  0  0  0  0  0  0  0  0  0  0  0
    4.1553   -2.4760   28.7188 H   0  0  0  0  0  0  0  0  0  0  0  0
    5.8753   -2.2995   28.5237 H   0  0  0  0  0  0  0  0  0  0  0  0
    8.8158   -1.7244   22.4787 N   0  0  0  0  0  0  0  0  0  0  0  0
    8.6734   -1.1330   21.3059 C   0  0  0  0  0  0  0  0  0  0  0  0
    9.4634   -0.8967   20.6044 H   0  0  0  0  0  0  0  0  0  0  0  0
    5.5237    0.5544   20.2608 C   0  0  0  0  0  0  0  0  0  0  0  0
    5.1011    0.5279   21.2678 H   0  0  0  0  0  0  0  0  0  0  0  0
    4.9232    1.2463   19.2099 C   0  0  0  0  0  0  0  0  0  0  0  0
    4.0086    1.8113   19.3666 H   0  0  0  0  0  0  0  0  0  0  0  0
  1  2  1  0
  2  3  2  0
  3  4  1  0
  4  5  1  0
  4  6  2  0
  6  7  1  0
  7  8  1  0
  8  9  2  0
  9 10  1  0
 10 11  1  0
 10 12  1  0
 12 13  2  0
 12 14  1  0
 14 15  1  0
 14 16  1  0
 16 17  1  0
 16 18  1  0
 18 19  1  0
 18 20  1  0
 18 21  1  0
 21 22  1  0
 21 23  1  0
 21 24  1  0
 24 25  1  0
 24 26  1  0
 24 27  1  0
 27 28  1  0
 27 29  1  0
 27 30  1  0
 30 31  1  0
 30 32  1  0
  9 33  1  0
 33 34  2  0
 34 35  1  0
  6 36  1  0
 36 37  1  0
 36 38  2  0
 38 39  1  0
 38  2  1  0
 34  7  1  0
 30 16  1  0
M  END
>  <plip>  (1) 
-0.03571428571428571

>  <filename>  (1) 
[H][c]1[n][c]([H])[c](-[n]2[n][c]([N]([H])[C](=[O])[N]([H])[C]3([H])[C]([H])([H])[C]([H])([H])[C]([H])([H])[C]([H])([H])[C]3([H])[H])[n][c]2[H])[c]([H])[c]1[H]

$$$$
