
     RDKit          3D

 40 41  0  0  0  0  0  0  0  0999 V2000
    2.7544    6.2348   24.6247 C   0  0  0  0  0  0  0  0  0  0  0  0
    4.2174    6.6816   24.4908 C   0  0  0  0  0  0  0  0  0  0  0  0
    5.1107    5.6389   23.8517 C   0  0  0  0  0  0  0  0  0  0  0  0
    5.7201    4.6524   24.6429 C   0  0  0  0  0  0  0  0  0  0  0  0
    6.5299    3.6648   24.0831 C   0  0  0  0  0  0  0  0  0  0  0  0
    6.7905    3.6623   22.6985 C   0  0  0  0  0  0  0  0  0  0  0  0
    7.7706    2.6931   22.0758 C   0  0  0  0  0  0  0  0  0  0  0  0
    8.6057    3.0160   21.2533 O   0  0  0  0  0  0  0  0  0  0  0  0
    7.6493    1.3885   22.5156 N   0  0  0  0  0  0  0  0  0  0  0  0
    8.3669    0.2666   21.8564 C   0  0  0  0  0  0  0  0  0  0  0  0
    9.1914   -0.8456   22.6895 C   0  0  0  0  0  0  0  0  0  0  0  0
    8.5717   -1.3989   23.6360 O   0  0  0  0  0  0  0  0  0  0  0  0
   10.2550   -1.1525   22.1515 O   0  0  0  0  0  1  0  0  0  0  0  0
    7.4976   -0.7282   21.0100 C   0  0  0  0  0  0  0  0  0  0  0  0
    6.7059   -1.5146   21.8566 O   0  0  0  0  0  0  0  0  0  0  0  0
    7.2390   -1.6276   22.6921 H   0  0  0  0  0  0  0  0  0  0  0  0
    6.6660   -0.0646   19.9327 C   0  0  0  0  0  0  0  0  0  0  0  0
    5.4315    0.5627   20.1612 C   0  0  0  0  0  0  0  0  0  0  0  0
    4.8258    1.2425   19.1015 C   0  0  0  0  0  0  0  0  0  0  0  0
    5.4555    1.2516   17.8518 C   0  0  0  0  0  0  0  0  0  0  0  0
    6.6147    0.6276   17.6035 N   0  0  0  0  0  0  0  0  0  0  0  0
    7.1901   -0.0057   18.6328 C   0  0  0  0  0  0  0  0  0  0  0  0
    8.1289   -0.5128   18.4053 H   0  0  0  0  0  0  0  0  0  0  0  0
    5.0150    1.7807   17.0101 H   0  0  0  0  0  0  0  0  0  0  0  0
    3.8914    1.7749   19.2300 H   0  0  0  0  0  0  0  0  0  0  0  0
    4.9655    0.5053   21.1479 H   0  0  0  0  0  0  0  0  0  0  0  0
    8.2384   -1.3513   20.4677 H   0  0  0  0  0  0  0  0  0  0  0  0
    9.0963    0.7555   21.2118 H   0  0  0  0  0  0  0  0  0  0  0  0
    6.8536    1.2224   23.1107 H   0  0  0  0  0  0  0  0  0  0  0  0
    6.1794    4.6449   21.8980 C   0  0  0  0  0  0  0  0  0  0  0  0
    5.3406    5.6036   22.4684 C   0  0  0  0  0  0  0  0  0  0  0  0
    4.8673    6.3482   21.8334 H   0  0  0  0  0  0  0  0  0  0  0  0
    6.3672    4.6753   20.8265 H   0  0  0  0  0  0  0  0  0  0  0  0
    6.9762    2.9162   24.7387 H   0  0  0  0  0  0  0  0  0  0  0  0
    5.5442    4.6727   25.7147 H   0  0  0  0  0  0  0  0  0  0  0  0
    4.2630    7.6165   23.9170 H   0  0  0  0  0  0  0  0  0  0  0  0
    4.6107    6.9206   25.4883 H   0  0  0  0  0  0  0  0  0  0  0  0
    2.6740    5.3071   25.2011 H   0  0  0  0  0  0  0  0  0  0  0  0
    2.3011    6.0499   23.6452 H   0  0  0  0  0  0  0  0  0  0  0  0
    2.1610    7.0004   25.1347 H   0  0  0  0  0  0  0  0  0  0  0  0
  1  2  1  0
  2  3  1  0
  3  4  2  0
  4  5  1  0
  5  6  2  0
  6  7  1  0
  7  8  2  0
  7  9  1  0
  9 10  1  0
 10 11  1  0
 11 12  2  0
 11 13  1  0
 10 14  1  0
 14 15  1  0
 15 16  1  0
 14 17  1  0
 17 18  2  0
 18 19  1  0
 19 20  2  0
 20 21  1  0
 21 22  2  0
 22 23  1  0
 20 24  1  0
 19 25  1  0
 18 26  1  0
 14 27  1  0
 10 28  1  0
  9 29  1  0
  6 30  1  0
 30 31  2  0
 31 32  1  0
 30 33  1  0
  5 34  1  0
  4 35  1  0
  2 36  1  0
  2 37  1  0
  1 38  1  0
  1 39  1  0
  1 40  1  0
 31  3  1  0
 22 17  1  0
M  CHG  1  13  -1
M  END
>  <plip>  (1) 
-0.07142857142857142

>  <filename>  (1) 
[H][O][C]([H])([c]1[c]([H])[n][c]([H])[c]([H])[c]1[H])[C]([H])([C](=[O])[O-])[N]([H])[C](=[O])[c]1[c]([H])[c]([H])[c]([C]([H])([H])[C]([H])([H])[H])[c]([H])[c]1[H]

$$$$
