
     RDKit          3D

 22 23  0  0  0  0  0  0  0  0999 V2000
    4.9842    1.7534   16.8228 H   0  0  0  0  0  0  0  0  0  0  0  0
    5.3999    1.3328   17.7307 C   0  0  0  0  0  0  0  0  0  0  0  0
    6.5783    0.7027   17.5960 N   0  0  0  0  0  0  0  0  0  0  0  0
    7.1144    0.1661   18.6974 C   0  0  0  0  0  0  0  0  0  0  0  0
    8.0557   -0.3742   18.5706 H   0  0  0  0  0  0  0  0  0  0  0  0
    6.5355    0.2470   19.9787 C   0  0  0  0  0  0  0  0  0  0  0  0
    7.2409   -0.3425   21.1358 C   0  0  0  0  0  0  0  0  0  0  0  0
    6.7763    0.0796   22.7538 S   0  0  0  0  0  0  0  0  0  0  0  0
    7.8325   -1.0930   23.4300 C   0  0  0  0  0  0  0  0  0  0  0  0
    7.8745   -1.2380   24.4978 H   0  0  0  0  0  0  0  0  0  0  0  0
    8.5282   -1.7682   22.4784 C   0  0  0  0  0  0  0  0  0  0  0  0
    9.4394   -2.9568   22.7176 C   0  0  0  0  0  0  0  0  0  0  0  0
   10.1988   -2.9931   21.9310 H   0  0  0  0  0  0  0  0  0  0  0  0
    9.9585   -2.9241   23.6809 H   0  0  0  0  0  0  0  0  0  0  0  0
    8.6989   -4.2313   22.7125 C   0  0  0  0  0  0  0  0  0  0  0  0
    8.0942   -5.2170   22.7348 N   0  0  0  0  0  0  0  0  0  0  0  0
    8.2254   -1.2917   21.1665 C   0  0  0  0  0  0  0  0  0  0  0  0
    8.7554   -1.6738   20.3011 H   0  0  0  0  0  0  0  0  0  0  0  0
    5.2727    0.8724   20.0841 C   0  0  0  0  0  0  0  0  0  0  0  0
    4.7389    0.8968   21.0353 H   0  0  0  0  0  0  0  0  0  0  0  0
    4.7072    1.4301   18.9428 C   0  0  0  0  0  0  0  0  0  0  0  0
    3.7434    1.9259   18.9712 H   0  0  0  0  0  0  0  0  0  0  0  0
  1  2  1  0
  2  3  2  0
  3  4  1  0
  4  5  1  0
  4  6  2  0
  6  7  1  0
  7  8  1  0
  8  9  1  0
  9 10  1  0
  9 11  2  0
 11 12  1  0
 12 13  1  0
 12 14  1  0
 12 15  1  0
 15 16  3  0
 11 17  1  0
 17 18  1  0
  6 19  1  0
 19 20  1  0
 19 21  2  0
 21 22  1  0
 21  2  1  0
 17  7  2  0
M  END
>  <plip>  (1) 
-0.034482758620689655

>  <filename>  (1) 
[H][c]1[n][c]([H])[c](-[c]2[s][c]([H])[c]([C]([H])([H])[C]#[N])[c]2[H])[c]([H])[c]1[H]

$$$$
