
     RDKit          3D

 40 42  0  0  0  0  0  0  0  0999 V2000
    4.9140    1.7897   16.9879 H   0  0  0  0  0  0  0  0  0  0  0  0
    5.3967    1.2994   17.8286 C   0  0  0  0  0  0  0  0  0  0  0  0
    6.5558    0.6802   17.5582 N   0  0  0  0  0  0  0  0  0  0  0  0
    7.1567    0.0642   18.5820 C   0  0  0  0  0  0  0  0  0  0  0  0
    8.1071   -0.4193   18.3600 H   0  0  0  0  0  0  0  0  0  0  0  0
    6.6515   -0.0057   19.8946 C   0  0  0  0  0  0  0  0  0  0  0  0
    7.3751   -0.7563   20.9882 C   0  0  0  0  0  0  0  0  0  0  0  0
    6.6300   -1.2040   21.6623 H   0  0  0  0  0  0  0  0  0  0  0  0
    7.9393   -1.5923   20.5499 H   0  0  0  0  0  0  0  0  0  0  0  0
    8.3576    0.0894   21.8397 C   0  0  1  0  0  0  0  0  0  0  0  0
    9.1434   -1.0251   23.0788 S   0  0  0  0  0  0  0  0  0  0  0  0
    7.8026   -1.2815   24.2852 C   0  0  0  0  0  0  0  0  0  0  0  0
    6.8349   -1.1585   23.7865 H   0  0  0  0  0  0  0  0  0  0  0  0
    7.8775   -0.5008   25.0500 H   0  0  0  0  0  0  0  0  0  0  0  0
    7.9220   -2.6586   24.8836 C   0  0  0  0  0  0  0  0  0  0  0  0
    7.3385   -3.7630   24.2438 C   0  0  0  0  0  0  0  0  0  0  0  0
    6.7812   -3.6152   23.3180 H   0  0  0  0  0  0  0  0  0  0  0  0
    7.4789   -5.0470   24.7744 C   0  0  0  0  0  0  0  0  0  0  0  0
    7.0169   -5.8927   24.2702 H   0  0  0  0  0  0  0  0  0  0  0  0
    8.2091   -5.2367   25.9536 C   0  0  0  0  0  0  0  0  0  0  0  0
    8.3162   -6.2335   26.3746 H   0  0  0  0  0  0  0  0  0  0  0  0
    8.8031   -4.1420   26.5933 C   0  0  0  0  0  0  0  0  0  0  0  0
    9.3774   -4.2826   27.5063 H   0  0  0  0  0  0  0  0  0  0  0  0
    8.6605   -2.8594   26.0588 C   0  0  0  0  0  0  0  0  0  0  0  0
    9.1329   -2.0064   26.5449 H   0  0  0  0  0  0  0  0  0  0  0  0
    9.5064    0.7078   21.0201 C   0  0  0  0  0  0  0  0  0  0  0  0
    9.1037    1.0911   20.0788 H   0  0  0  0  0  0  0  0  0  0  0  0
   10.2841   -0.0198   20.7653 H   0  0  0  0  0  0  0  0  0  0  0  0
   10.0377    1.8414   21.7873 N   0  0  0  0  0  0  0  0  0  0  0  0
   10.8353    1.5187   22.3214 H   0  0  0  0  0  0  0  0  0  0  0  0
    8.9935    2.2630   22.7442 C   0  0  0  0  0  0  0  0  0  0  0  0
    8.7299    3.3159   22.5901 H   0  0  0  0  0  0  0  0  0  0  0  0
    9.3572    2.1680   23.7759 H   0  0  0  0  0  0  0  0  0  0  0  0
    7.7783    1.3510   22.5058 C   0  0  0  0  0  0  0  0  0  0  0  0
    7.2238    1.1387   23.4212 H   0  0  0  0  0  0  0  0  0  0  0  0
    7.0838    1.8419   21.8183 H   0  0  0  0  0  0  0  0  0  0  0  0
    5.4357    0.6468   20.1486 C   0  0  0  0  0  0  0  0  0  0  0  0
    5.0100    0.6331   21.1577 H   0  0  0  0  0  0  0  0  0  0  0  0
    4.8020    1.3123   19.0953 C   0  0  0  0  0  0  0  0  0  0  0  0
    3.8715    1.8468   19.2530 H   0  0  0  0  0  0  0  0  0  0  0  0
  1  2  1  0
  2  3  2  0
  3  4  1  0
  4  5  1  0
  4  6  2  0
  6  7  1  0
  7  8  1  0
  7  9  1  0
  7 10  1  0
 10 11  1  1
 11 12  1  0
 12 13  1  0
 12 14  1  0
 12 15  1  0
 15 16  2  0
 16 17  1  0
 16 18  1  0
 18 19  1  0
 18 20  2  0
 20 21  1  0
 20 22  1  0
 22 23  1  0
 22 24  2  0
 24 25  1  0
 10 26  1  0
 26 27  1  0
 26 28  1  0
 26 29  1  0
 29 30  1  0
 29 31  1  0
 31 32  1  0
 31 33  1  0
 31 34  1  0
 34 35  1  0
 34 36  1  0
  6 37  1  0
 37 38  1  0
 37 39  2  0
 39 40  1  0
 39  2  1  0
 34 10  1  0
 24 15  1  0
M  END
>  <plip>  (1) 
-0.10714285714285714

>  <filename>  (1) 
[H][c]1[n][c]([H])[c]([C]([H])([H])[C@@]2([S][C]([H])([H])[c]3[c]([H])[c]([H])[c]([H])[c]([H])[c]3[H])[C]([H])([H])[N]([H])[C]([H])([H])[C]2([H])[H])[c]([H])[c]1[H]

$$$$
