
     RDKit          3D

 37 39  0  0  0  0  0  0  0  0999 V2000
   11.5066    2.4104   24.8984 F   0  0  0  0  0  0  0  0  0  0  0  0
   11.7706    3.1641   23.8097 C   0  0  0  0  0  0  0  0  0  0  0  0
   12.1785    4.4856   23.9865 C   0  0  0  0  0  0  0  0  0  0  0  0
   12.4902    5.2413   22.8487 C   0  0  0  0  0  0  0  0  0  0  0  0
   12.3895    4.6661   21.5778 C   0  0  0  0  0  0  0  0  0  0  0  0
   11.9450    3.3408   21.4343 C   0  0  0  0  0  0  0  0  0  0  0  0
   11.6016    2.5668   22.5533 C   0  0  0  0  0  0  0  0  0  0  0  0
   10.9599    1.1947   22.4633 C   0  0  0  0  0  0  0  0  0  0  0  0
    9.4355    1.2807   22.5736 C   0  0  0  0  0  0  0  0  0  0  0  0
    8.8323   -0.0900   22.4434 N   0  0  0  0  0  4  0  0  0  0  0  0
    8.8680   -0.7348   21.0012 C   0  0  0  0  0  0  0  0  0  0  0  0
    7.3150   -0.8121   20.9250 C   0  0  0  0  0  0  0  0  0  0  0  0
    6.8766   -2.1379   20.8537 F   0  0  0  0  0  0  0  0  0  0  0  0
    6.6000   -0.0253   19.8594 C   0  0  0  0  0  0  0  0  0  0  0  0
    5.3827    0.6371   20.0912 C   0  0  0  0  0  0  0  0  0  0  0  0
    4.7884    1.3305   19.0380 C   0  0  0  0  0  0  0  0  0  0  0  0
    5.4060    1.3303   17.7836 C   0  0  0  0  0  0  0  0  0  0  0  0
    6.5420    0.6631   17.5307 N   0  0  0  0  0  0  0  0  0  0  0  0
    7.1045    0.0027   18.5462 C   0  0  0  0  0  0  0  0  0  0  0  0
    8.0176   -0.5391   18.3101 H   0  0  0  0  0  0  0  0  0  0  0  0
    4.9668    1.8760   16.9486 H   0  0  0  0  0  0  0  0  0  0  0  0
    3.8602    1.8728   19.1702 H   0  0  0  0  0  0  0  0  0  0  0  0
    4.8961    0.6050   21.0695 H   0  0  0  0  0  0  0  0  0  0  0  0
    7.2990   -0.2506   22.3791 C   0  0  0  0  0  0  0  0  0  0  0  0
    6.7879    0.6994   22.5060 H   0  0  0  0  0  0  0  0  0  0  0  0
    6.9723   -0.9879   23.1036 H   0  0  0  0  0  0  0  0  0  0  0  0
    9.3321   -0.0542   20.2934 H   0  0  0  0  0  0  0  0  0  0  0  0
    9.3463   -1.7065   21.0388 H   0  0  0  0  0  0  0  0  0  0  0  0
    9.2403   -0.6872   23.1946 H   0  0  0  0  0  0  0  0  0  0  0  0
    9.1424    1.7189   23.5325 H   0  0  0  0  0  0  0  0  0  0  0  0
    9.0223    1.9169   21.7835 H   0  0  0  0  0  0  0  0  0  0  0  0
   11.2438    0.6963   21.5273 H   0  0  0  0  0  0  0  0  0  0  0  0
   11.3163    0.5644   23.2883 H   0  0  0  0  0  0  0  0  0  0  0  0
   11.8392    2.9166   20.4365 H   0  0  0  0  0  0  0  0  0  0  0  0
   12.6305    5.2454   20.6923 H   0  0  0  0  0  0  0  0  0  0  0  0
   12.8045    6.2796   22.9576 H   0  0  0  0  0  0  0  0  0  0  0  0
   12.2272    4.9019   24.9880 H   0  0  0  0  0  0  0  0  0  0  0  0
  1  2  1  0
  2  3  2  0
  3  4  1  0
  4  5  2  0
  5  6  1  0
  6  7  2  0
  7  8  1  0
  8  9  1  0
  9 10  1  0
 10 11  1  0
 11 12  1  0
 12 13  1  0
 12 14  1  0
 14 15  2  0
 15 16  1  0
 16 17  2  0
 17 18  1  0
 18 19  2  0
 19 20  1  0
 17 21  1  0
 16 22  1  0
 15 23  1  0
 12 24  1  0
 24 25  1  0
 24 26  1  0
 11 27  1  0
 11 28  1  0
 10 29  1  0
  9 30  1  0
  9 31  1  0
  8 32  1  0
  8 33  1  0
  6 34  1  0
  5 35  1  0
  4 36  1  0
  3 37  1  0
  7  2  1  0
 24 10  1  0
 19 14  1  0
M  CHG  1  10   1
M  END
>  <plip>  (1) 
-0.10344827586206896

>  <filename>  (1) 
[H][c]1[n][c]([H])[c]([C]2([F])[C]([H])([H])[N+]([H])([C]([H])([H])[C]([H])([H])[c]3[c]([H])[c]([H])[c]([H])[c]([H])[c]3[F])[C]2([H])[H])[c]([H])[c]1[H]

$$$$
