
     RDKit          3D

 44 47  0  0  0  0  0  0  0  0999 V2000
    4.9549    1.8057   16.9998 H   0  0  0  0  0  0  0  0  0  0  0  0
    5.4156    1.3002   17.8426 C   0  0  0  0  0  0  0  0  0  0  0  0
    6.5821    0.6855   17.5890 N   0  0  0  0  0  0  0  0  0  0  0  0
    7.1999    0.0864   18.6157 C   0  0  0  0  0  0  0  0  0  0  0  0
    8.1505   -0.3983   18.3865 H   0  0  0  0  0  0  0  0  0  0  0  0
    6.6864    0.0652   19.9324 C   0  0  0  0  0  0  0  0  0  0  0  0
    7.3794   -0.5888   21.0137 N   0  0  0  0  0  0  0  0  0  0  0  0
    7.7971   -1.8960   21.0445 C   0  0  0  0  0  0  0  0  0  0  0  0
    7.6296   -2.5546   20.2190 H   0  0  0  0  0  0  0  0  0  0  0  0
    8.2561   -2.2484   22.2040 N   0  0  0  0  0  0  0  0  0  0  0  0
    8.0936   -1.1665   23.0449 N   0  0  0  0  0  0  0  0  0  0  0  0
    7.5433   -0.2058   22.3447 C   0  0  0  0  0  0  0  0  0  0  0  0
    7.0822    0.9869   22.8249 N   0  0  0  0  0  0  0  0  0  0  0  0
    7.4509    2.2407   22.1721 C   0  0  0  0  0  0  0  0  0  0  0  0
    6.5406    2.8005   21.9113 H   0  0  0  0  0  0  0  0  0  0  0  0
    7.9575    2.0183   21.2275 H   0  0  0  0  0  0  0  0  0  0  0  0
    8.3623    3.0540   23.0913 C   0  0  0  0  0  0  0  0  0  0  0  0
    9.3074    2.5205   23.2198 H   0  0  0  0  0  0  0  0  0  0  0  0
    8.6094    4.0184   22.6343 H   0  0  0  0  0  0  0  0  0  0  0  0
    7.7254    3.2376   24.4753 C   0  0  0  0  0  0  0  0  0  0  0  0
    8.4532    3.7630   25.1299 H   0  0  0  0  0  0  0  0  0  0  0  0
    6.5022    4.0294   24.3793 N   0  0  0  0  0  0  0  0  0  0  0  0
    6.7046    5.3470   23.7803 C   0  0  0  0  0  0  0  0  0  0  0  0
    6.7426    5.2732   22.6870 H   0  0  0  0  0  0  0  0  0  0  0  0
    7.6610    5.7960   24.1048 H   0  0  0  0  0  0  0  0  0  0  0  0
    5.5302    6.2053   24.2567 C   0  0  0  0  0  0  0  0  0  0  0  0
    4.7796    6.3015   23.4687 H   0  0  0  0  0  0  0  0  0  0  0  0
    5.8756    7.2145   24.4972 H   0  0  0  0  0  0  0  0  0  0  0  0
    4.9529    5.4704   25.4826 C   0  0  0  0  0  0  0  0  0  0  0  0
    4.9875    6.0795   26.3900 H   0  0  0  0  0  0  0  0  0  0  0  0
    3.9081    5.1975   25.3177 H   0  0  0  0  0  0  0  0  0  0  0  0
    5.8187    4.2191   25.6559 C   0  0  0  0  0  0  0  0  0  0  0  0
    6.5371    4.3644   26.4829 H   0  0  0  0  0  0  0  0  0  0  0  0
    5.2194    3.3358   25.9061 H   0  0  0  0  0  0  0  0  0  0  0  0
    7.4376    1.8586   25.0835 C   0  0  0  0  0  0  0  0  0  0  0  0
    7.0203    1.9486   26.0928 H   0  0  0  0  0  0  0  0  0  0  0  0
    8.3791    1.3137   25.1810 H   0  0  0  0  0  0  0  0  0  0  0  0
    6.5208    1.0470   24.1751 C   0  0  0  0  0  0  0  0  0  0  0  0
    6.4197    0.0258   24.5559 H   0  0  0  0  0  0  0  0  0  0  0  0
    5.5100    1.4801   24.1428 H   0  0  0  0  0  0  0  0  0  0  0  0
    5.4487    0.6819   20.1698 C   0  0  0  0  0  0  0  0  0  0  0  0
    5.0016    0.6552   21.1625 H   0  0  0  0  0  0  0  0  0  0  0  0
    4.8081    1.3147   19.1000 C   0  0  0  0  0  0  0  0  0  0  0  0
    3.8609    1.8259   19.2371 H   0  0  0  0  0  0  0  0  0  0  0  0
  1  2  1  0
  2  3  2  0
  3  4  1  0
  4  5  1  0
  4  6  2  0
  6  7  1  0
  7  8  1  0
  8  9  1  0
  8 10  2  0
 10 11  1  0
 11 12  2  0
 12 13  1  0
 13 14  1  0
 14 15  1  0
 14 16  1  0
 14 17  1  0
 17 18  1  0
 17 19  1  0
 17 20  1  0
 20 21  1  0
 20 22  1  0
 22 23  1  0
 23 24  1  0
 23 25  1  0
 23 26  1  0
 26 27  1  0
 26 28  1  0
 26 29  1  0
 29 30  1  0
 29 31  1  0
 29 32  1  0
 32 33  1  0
 32 34  1  0
 20 35  1  0
 35 36  1  0
 35 37  1  0
 35 38  1  0
 38 39  1  0
 38 40  1  0
  6 41  1  0
 41 42  1  0
 41 43  2  0
 43 44  1  0
 43  2  1  0
 12  7  1  0
 38 13  1  0
 32 22  1  0
M  END
>  <plip>  (1) 
-0.034482758620689655

>  <filename>  (1) 
[H][c]1[n][c]([H])[c](-[n]2[c]([H])[n][n][c]2[N]2[C]([H])([H])[C]([H])([H])[C]([H])([N]3[C]([H])([H])[C]([H])([H])[C]([H])([H])[C]3([H])[H])[C]([H])([H])[C]2([H])[H])[c]([H])[c]1[H]

$$$$
