
     RDKit          3D

 49 50  0  0  0  0  0  0  0  0999 V2000
    6.1512   -5.5925   24.1170 C   0  0  0  0  0  0  0  0  0  0  0  0
    6.0267   -4.6166   23.1005 O   0  0  0  0  0  0  0  0  0  0  0  0
    5.7288   -5.0299   21.8356 C   0  0  0  0  0  0  0  0  0  0  0  0
    5.4506   -6.3584   21.5165 C   0  0  0  0  0  0  0  0  0  0  0  0
    5.2883   -6.7121   20.1808 C   0  0  0  0  0  0  0  0  0  0  0  0
    5.4679   -5.7863   19.1633 C   0  0  0  0  0  0  0  0  0  0  0  0
    5.6622   -4.4435   19.5056 C   0  0  0  0  0  0  0  0  0  0  0  0
    5.7090   -3.2481   18.2285 Cl  0  0  0  0  0  0  0  0  0  0  0  0
    5.7324   -4.0228   20.8415 C   0  0  0  0  0  0  0  0  0  0  0  0
    5.8721   -2.5842   21.2516 C   0  0  0  0  0  0  0  0  0  0  0  0
    7.2854   -2.0916   20.8802 N   0  0  0  0  0  4  0  0  0  0  0  0
    8.3654   -2.8834   21.6059 C   0  0  0  0  0  0  0  0  0  0  0  0
    8.4605   -2.5416   23.1000 C   0  0  0  0  0  0  0  0  0  0  0  0
    9.3094   -3.5180   23.8856 N   0  0  0  0  0  4  0  0  0  0  0  0
   10.7637   -3.3811   23.5488 C   0  0  0  0  0  0  0  0  0  0  0  0
   11.0906   -2.3646   23.8033 H   0  0  0  0  0  0  0  0  0  0  0  0
   11.3670   -4.0980   24.1194 H   0  0  0  0  0  0  0  0  0  0  0  0
   10.9455   -3.5140   22.4813 H   0  0  0  0  0  0  0  0  0  0  0  0
    9.1606   -3.2794   25.3541 C   0  0  0  0  0  0  0  0  0  0  0  0
    9.5229   -2.2704   25.5982 H   0  0  0  0  0  0  0  0  0  0  0  0
    8.1092   -3.3328   25.6581 H   0  0  0  0  0  0  0  0  0  0  0  0
    9.7548   -3.9981   25.9296 H   0  0  0  0  0  0  0  0  0  0  0  0
    8.9588   -4.4853   23.6721 H   0  0  0  0  0  0  0  0  0  0  0  0
    8.8724   -1.5297   23.2134 H   0  0  0  0  0  0  0  0  0  0  0  0
    7.4570   -2.5284   23.5361 H   0  0  0  0  0  0  0  0  0  0  0  0
    9.3276   -2.7225   21.1004 H   0  0  0  0  0  0  0  0  0  0  0  0
    8.1261   -3.9427   21.5018 H   0  0  0  0  0  0  0  0  0  0  0  0
    7.4250   -0.6018   21.0001 C   0  0  0  0  0  0  0  0  0  0  0  0
    6.6478    0.0508   19.8911 C   0  0  0  0  0  0  0  0  0  0  0  0
    5.4281    0.6996   20.1176 C   0  0  0  0  0  0  0  0  0  0  0  0
    4.8021    1.3413   19.0450 C   0  0  0  0  0  0  0  0  0  0  0  0
    5.4107    1.3004   17.7886 C   0  0  0  0  0  0  0  0  0  0  0  0
    6.5543    0.6412   17.5508 N   0  0  0  0  0  0  0  0  0  0  0  0
    7.1406    0.0221   18.5810 C   0  0  0  0  0  0  0  0  0  0  0  0
    8.0649   -0.5111   18.3538 H   0  0  0  0  0  0  0  0  0  0  0  0
    4.9635    1.8099   16.9355 H   0  0  0  0  0  0  0  0  0  0  0  0
    3.8708    1.8781   19.1718 H   0  0  0  0  0  0  0  0  0  0  0  0
    4.9803    0.7046   21.1149 H   0  0  0  0  0  0  0  0  0  0  0  0
    8.4864   -0.3237   20.9522 H   0  0  0  0  0  0  0  0  0  0  0  0
    7.0421   -0.2579   21.9714 H   0  0  0  0  0  0  0  0  0  0  0  0
    7.3231   -2.3057   19.8551 H   0  0  0  0  0  0  0  0  0  0  0  0
    5.7265   -2.4937   22.3273 H   0  0  0  0  0  0  0  0  0  0  0  0
    5.1580   -1.9404   20.7386 H   0  0  0  0  0  0  0  0  0  0  0  0
    5.3715   -6.1144   18.1360 H   0  0  0  0  0  0  0  0  0  0  0  0
    4.9703   -7.7230   19.9376 H   0  0  0  0  0  0  0  0  0  0  0  0
    5.3655   -7.0997   22.2990 H   0  0  0  0  0  0  0  0  0  0  0  0
    6.3487   -5.0512   25.0440 H   0  0  0  0  0  0  0  0  0  0  0  0
    6.9888   -6.2624   23.8791 H   0  0  0  0  0  0  0  0  0  0  0  0
    5.2241   -6.1761   24.2287 H   0  0  0  0  0  0  0  0  0  0  0  0
  1  2  1  0
  2  3  1  0
  3  4  2  0
  4  5  1  0
  5  6  2  0
  6  7  1  0
  7  8  1  0
  7  9  2  0
  9 10  1  0
 10 11  1  0
 11 12  1  0
 12 13  1  0
 13 14  1  0
 14 15  1  0
 15 16  1  0
 15 17  1  0
 15 18  1  0
 14 19  1  0
 19 20  1  0
 19 21  1  0
 19 22  1  0
 14 23  1  0
 13 24  1  0
 13 25  1  0
 12 26  1  0
 12 27  1  0
 11 28  1  0
 28 29  1  0
 29 30  2  0
 30 31  1  0
 31 32  2  0
 32 33  1  0
 33 34  2  0
 34 35  1  0
 32 36  1  0
 31 37  1  0
 30 38  1  0
 28 39  1  0
 28 40  1  0
 11 41  1  0
 10 42  1  0
 10 43  1  0
  6 44  1  0
  5 45  1  0
  4 46  1  0
  1 47  1  0
  1 48  1  0
  1 49  1  0
  9  3  1  0
 34 29  1  0
M  CHG  2  11   1  14   1
M  END
>  <plip>  (1) 
-0.03333333333333333

>  <filename>  (1) 
[H][c]1[n][c]([H])[c]([C]([H])([H])[N+]([H])([C]([H])([H])[c]2[c]([Cl])[c]([H])[c]([H])[c]([H])[c]2[O][C]([H])([H])[H])[C]([H])([H])[C]([H])([H])[N+]([H])([C]([H])([H])[H])[C]([H])([H])[H])[c]([H])[c]1[H]

$$$$
