
     RDKit          3D

 35 37  0  0  0  0  0  0  0  0999 V2000
    8.7620   -0.0650   21.2980 C   0  0  0  0  0  0  0  0  0  0  0  0
    7.4008   -0.7153   21.0614 C   0  0  2  0  0  0  0  0  0  0  0  0
    7.5503   -2.1274   20.7590 N   0  0  0  0  0  0  0  0  0  0  0  0
    7.7992   -3.0517   21.7063 C   0  0  0  0  0  0  0  0  0  0  0  0
    7.9593   -2.7743   22.9738 N   0  0  0  0  0  0  0  0  0  0  0  0
    8.2205   -3.9482   23.6373 C   0  0  0  0  0  0  0  0  0  0  0  0
    8.4388   -3.8875   25.1248 C   0  0  0  0  0  0  0  0  0  0  0  0
    9.8642   -4.3352   25.5682 C   0  0  0  0  0  0  0  0  0  0  0  0
    9.7044   -5.8383   25.8706 C   0  0  0  0  0  0  0  0  0  0  0  0
    8.3177   -6.1034   25.9094 O   0  0  0  0  0  0  0  0  0  0  0  0
    7.5651   -4.9137   25.8760 C   0  0  0  0  0  0  0  0  0  0  0  0
    7.3336   -4.5438   26.8911 H   0  0  0  0  0  0  0  0  0  0  0  0
    6.6150   -5.1683   25.3894 H   0  0  0  0  0  0  0  0  0  0  0  0
   10.1401   -6.4904   25.1050 H   0  0  0  0  0  0  0  0  0  0  0  0
   10.1837   -6.0958   26.8238 H   0  0  0  0  0  0  0  0  0  0  0  0
   10.6483   -4.1485   24.8233 H   0  0  0  0  0  0  0  0  0  0  0  0
   10.1495   -3.7953   26.4798 H   0  0  0  0  0  0  0  0  0  0  0  0
    8.1985   -2.8558   25.3955 H   0  0  0  0  0  0  0  0  0  0  0  0
    8.2766   -5.0935   23.0059 N   0  0  0  0  0  0  0  0  0  0  0  0
    7.9468   -4.7636   21.3960 S   0  0  0  0  0  0  0  0  0  0  0  0
    7.4476   -2.4290   19.8035 H   0  0  0  0  0  0  0  0  0  0  0  0
    6.6382   -0.0508   19.9334 C   0  0  0  0  0  0  0  0  0  0  0  0
    5.4281    0.6234   20.1585 C   0  0  0  0  0  0  0  0  0  0  0  0
    4.8061    1.2912   19.0999 C   0  0  0  0  0  0  0  0  0  0  0  0
    5.4212    1.2679   17.8438 C   0  0  0  0  0  0  0  0  0  0  0  0
    6.5729    0.6255   17.6023 N   0  0  0  0  0  0  0  0  0  0  0  0
    7.1586   -0.0069   18.6303 C   0  0  0  0  0  0  0  0  0  0  0  0
    8.1180   -0.4599   18.3726 H   0  0  0  0  0  0  0  0  0  0  0  0
    4.9714    1.7886   16.9980 H   0  0  0  0  0  0  0  0  0  0  0  0
    3.8813    1.8463   19.2417 H   0  0  0  0  0  0  0  0  0  0  0  0
    4.9920    0.6432   21.1601 H   0  0  0  0  0  0  0  0  0  0  0  0
    6.8146   -0.6238   21.9889 H   0  0  0  0  0  0  0  0  0  0  0  0
    9.2456   -0.5265   22.1619 H   0  0  0  0  0  0  0  0  0  0  0  0
    9.4139   -0.2041   20.4311 H   0  0  0  0  0  0  0  0  0  0  0  0
    8.6399    1.0068   21.4769 H   0  0  0  0  0  0  0  0  0  0  0  0
  1  2  1  0
  2  3  1  0
  3  4  1  0
  4  5  2  0
  5  6  1  0
  6  7  1  0
  7  8  1  0
  8  9  1  0
  9 10  1  0
 10 11  1  0
 11 12  1  0
 11 13  1  0
  9 14  1  0
  9 15  1  0
  8 16  1  0
  8 17  1  0
  7 18  1  0
  6 19  2  0
 19 20  1  0
  3 21  1  0
  2 22  1  0
 22 23  2  0
 23 24  1  0
 24 25  2  0
 25 26  1  0
 26 27  2  0
 27 28  1  0
 25 29  1  0
 24 30  1  0
 23 31  1  0
  2 32  1  1
  1 33  1  0
  1 34  1  0
  1 35  1  0
 20  4  1  0
 27 22  1  0
 11  7  1  0
M  END
>  <plip>  (1) 
-0.034482758620689655

>  <filename>  (1) 
[H][c]1[n][c]([H])[c]([C@@]([H])([N]([H])[c]2[n][c]([C]3([H])[C]([H])([H])[O][C]([H])([H])[C]3([H])[H])[n][s]2)[C]([H])([H])[H])[c]([H])[c]1[H]

$$$$
