
     RDKit          3D

 30 32  0  0  0  0  0  0  0  0999 V2000
    9.0280   -2.5717   23.8839 H   0  0  0  0  0  0  0  0  0  0  0  0
    8.5513   -2.0632   23.0568 C   0  0  0  0  0  0  0  0  0  0  0  0
    9.3401   -1.4744   22.1388 N   0  0  0  0  0  0  0  0  0  0  0  0
    8.7201   -0.8353   21.1360 C   0  0  0  0  0  0  0  0  0  0  0  0
    9.3570   -0.3378   20.4093 H   0  0  0  0  0  0  0  0  0  0  0  0
    7.3031   -0.7744   21.0228 C   0  0  0  0  0  0  0  0  0  0  0  0
    6.6124   -0.0307   19.9289 C   0  0  0  0  0  0  0  0  0  0  0  0
    7.1506    0.0208   18.6307 C   0  0  0  0  0  0  0  0  0  0  0  0
    8.0912   -0.4823   18.4050 H   0  0  0  0  0  0  0  0  0  0  0  0
    6.5775    0.6536   17.6016 N   0  0  0  0  0  0  0  0  0  0  0  0
    5.4226    1.2960   17.8350 C   0  0  0  0  0  0  0  0  0  0  0  0
    4.9716    1.8059   16.9849 H   0  0  0  0  0  0  0  0  0  0  0  0
    4.8017    1.3187   19.0880 C   0  0  0  0  0  0  0  0  0  0  0  0
    3.8731    1.8651   19.2142 H   0  0  0  0  0  0  0  0  0  0  0  0
    5.3995    0.6419   20.1506 C   0  0  0  0  0  0  0  0  0  0  0  0
    4.9478    0.6308   21.1428 H   0  0  0  0  0  0  0  0  0  0  0  0
    6.5279   -1.3852   21.9474 N   0  0  0  0  0  0  0  0  0  0  0  0
    7.1519   -2.0251   22.9701 C   0  0  0  0  0  0  0  0  0  0  0  0
    6.4072   -2.7124   24.1260 C   0  0  0  0  0  0  0  0  0  0  0  0
    6.9968   -3.1004   25.1193 O   0  0  0  0  0  0  0  0  0  0  0  0
    5.0716   -2.9005   23.9589 N   0  0  0  0  0  0  0  0  0  0  0  0
    4.6689   -2.4191   23.1721 H   0  0  0  0  0  0  0  0  0  0  0  0
    4.1789   -3.2834   25.0052 C   0  0  0  0  0  0  0  0  0  0  0  0
    4.0724   -4.3510   25.1624 H   0  0  0  0  0  0  0  0  0  0  0  0
    2.9594   -2.4471   25.2268 C   0  0  0  0  0  0  0  0  0  0  0  0
    2.0357   -2.9633   25.4750 H   0  0  0  0  0  0  0  0  0  0  0  0
    2.8282   -1.5469   24.6354 H   0  0  0  0  0  0  0  0  0  0  0  0
    4.0754   -2.4236   26.2306 C   0  0  0  0  0  0  0  0  0  0  0  0
    4.7031   -1.5346   26.2391 H   0  0  0  0  0  0  0  0  0  0  0  0
    3.9342   -2.9238   27.1867 H   0  0  0  0  0  0  0  0  0  0  0  0
  1  2  1  0
  2  3  2  0
  3  4  1  0
  4  5  1  0
  4  6  2  0
  6  7  1  0
  7  8  2  0
  8  9  1  0
  8 10  1  0
 10 11  2  0
 11 12  1  0
 11 13  1  0
 13 14  1  0
 13 15  2  0
 15 16  1  0
  6 17  1  0
 17 18  2  0
 18 19  1  0
 19 20  2  0
 19 21  1  0
 21 22  1  0
 21 23  1  0
 23 24  1  0
 23 25  1  0
 25 26  1  0
 25 27  1  0
 25 28  1  0
 28 29  1  0
 28 30  1  0
 18  2  1  0
 28 23  1  0
 15  7  1  0
M  END
>  <plip>  (1) 
-0.06896551724137931

>  <filename>  (1) 
[H][c]1[n][c]([H])[c](-[c]2[c]([H])[n][c]([H])[c]([H])[c]2[H])[n][c]1[C](=[O])[N]([H])[C]1([H])[C]([H])([H])[C]1([H])[H]

$$$$
