
     RDKit          3D

 35 38  0  0  0  0  0  0  0  0999 V2000
    5.0284    1.7782   16.9495 H   0  0  0  0  0  0  0  0  0  0  0  0
    5.4755    1.2838   17.8097 C   0  0  0  0  0  0  0  0  0  0  0  0
    6.6487    0.6595   17.6002 N   0  0  0  0  0  0  0  0  0  0  0  0
    7.2255    0.0419   18.6405 C   0  0  0  0  0  0  0  0  0  0  0  0
    8.1879   -0.4380   18.4750 H   0  0  0  0  0  0  0  0  0  0  0  0
    6.6484   -0.0190   19.9200 C   0  0  0  0  0  0  0  0  0  0  0  0
    7.3166   -0.7263   20.9657 N   0  0  0  0  0  0  0  0  0  0  0  0
    8.6807   -0.5789   21.0064 N   0  0  0  0  0  0  0  0  0  0  0  0
    9.3461   -1.1450   21.9890 C   0  0  0  0  0  0  0  0  0  0  0  0
   10.8194   -0.8957   22.0545 C   0  0  0  0  0  0  0  0  0  0  0  0
   11.6691   -1.9890   22.0411 C   0  0  0  0  0  0  0  0  0  0  0  0
   11.2392   -2.9837   22.0985 H   0  0  0  0  0  0  0  0  0  0  0  0
   13.0787   -1.8422   22.0513 C   0  0  0  0  0  0  0  0  0  0  0  0
   13.7078   -2.7230   21.9556 H   0  0  0  0  0  0  0  0  0  0  0  0
   13.6460   -0.6066   22.2450 C   0  0  0  0  0  0  0  0  0  0  0  0
   14.7190   -0.4568   22.3220 H   0  0  0  0  0  0  0  0  0  0  0  0
   12.8170    0.5452   22.3489 C   0  0  0  0  0  0  0  0  0  0  0  0
   13.4446    1.7331   22.6126 N   0  0  0  0  0  0  0  0  0  0  0  0
   12.7268    2.8277   22.5789 C   0  0  0  0  0  0  0  0  0  0  0  0
   13.2529    3.7628   22.7863 H   0  0  0  0  0  0  0  0  0  0  0  0
   11.3316    2.8429   22.3086 C   0  0  0  0  0  0  0  0  0  0  0  0
   10.8249    3.7967   22.2531 H   0  0  0  0  0  0  0  0  0  0  0  0
   10.6645    1.6526   22.1138 C   0  0  0  0  0  0  0  0  0  0  0  0
    9.5899    1.6319   21.9462 H   0  0  0  0  0  0  0  0  0  0  0  0
   11.3943    0.4247   22.1453 C   0  0  0  0  0  0  0  0  0  0  0  0
    8.7114   -2.1034   22.9645 C   0  0  0  0  0  0  0  0  0  0  0  0
    9.3252   -2.7670   23.7952 O   0  0  0  0  0  0  0  0  0  0  0  0
    7.2593   -2.1871   22.8409 C   0  0  0  0  0  0  0  0  0  0  0  0
    6.7333   -2.7918   23.5671 H   0  0  0  0  0  0  0  0  0  0  0  0
    6.6298   -1.5033   21.8704 C   0  0  0  0  0  0  0  0  0  0  0  0
    5.5485   -1.5492   21.7185 H   0  0  0  0  0  0  0  0  0  0  0  0
    5.4317    0.6486   20.1323 C   0  0  0  0  0  0  0  0  0  0  0  0
    4.9974    0.6788   21.1303 H   0  0  0  0  0  0  0  0  0  0  0  0
    4.8376    1.3103   19.0543 C   0  0  0  0  0  0  0  0  0  0  0  0
    3.9017    1.8485   19.1703 H   0  0  0  0  0  0  0  0  0  0  0  0
  1  2  1  0
  2  3  2  0
  3  4  1  0
  4  5  1  0
  4  6  2  0
  6  7  1  0
  7  8  1  0
  8  9  2  0
  9 10  1  0
 10 11  2  0
 11 12  1  0
 11 13  1  0
 13 14  1  0
 13 15  2  0
 15 16  1  0
 15 17  1  0
 17 18  2  0
 18 19  1  0
 19 20  1  0
 19 21  2  0
 21 22  1  0
 21 23  1  0
 23 24  1  0
 23 25  2  0
  9 26  1  0
 26 27  2  0
 26 28  1  0
 28 29  1  0
 28 30  2  0
 30 31  1  0
  6 32  1  0
 32 33  1  0
 32 34  2  0
 34 35  1  0
 34  2  1  0
 30  7  1  0
 25 10  1  0
 25 17  1  0
M  END
>  <plip>  (1) 
-0.10344827586206896

>  <filename>  (1) 
[H][c]1[n][c]([H])[c](-[n]2[n][c](-[c]3[c]([H])[c]([H])[c]([H])[c]4[n][c]([H])[c]([H])[c]([H])[c]34)[c](=[O])[c]([H])[c]2[H])[c]([H])[c]1[H]

$$$$
