
     RDKit          3D

 32 34  0  0  0  0  0  0  0  0999 V2000
    4.9133    1.7876   16.9906 H   0  0  0  0  0  0  0  0  0  0  0  0
    5.3989    1.2997   17.8324 C   0  0  0  0  0  0  0  0  0  0  0  0
    6.5617    0.6848   17.5654 N   0  0  0  0  0  0  0  0  0  0  0  0
    7.1729    0.0787   18.5858 C   0  0  0  0  0  0  0  0  0  0  0  0
    8.1126   -0.4239   18.3607 H   0  0  0  0  0  0  0  0  0  0  0  0
    6.6624    0.0184   19.9004 C   0  0  0  0  0  0  0  0  0  0  0  0
    7.3470   -0.6955   20.9782 C   0  0  0  0  0  0  0  0  0  0  0  0
    8.6013   -0.4494   21.4575 C   0  0  0  0  0  0  0  0  0  0  0  0
    9.4279    0.7220   21.0270 C   0  0  1  0  0  0  0  0  0  0  0  0
    9.4221    0.7409   19.9341 H   0  0  0  0  0  0  0  0  0  0  0  0
    8.8861    2.0670   21.5725 C   0  0  0  0  0  0  0  0  0  0  0  0
    7.7933    2.0773   21.6776 H   0  0  0  0  0  0  0  0  0  0  0  0
    9.1334    2.8907   20.8867 H   0  0  0  0  0  0  0  0  0  0  0  0
    9.5398    2.2714   22.8669 N   0  0  0  0  0  0  0  0  0  0  0  0
    8.9467    1.9194   23.6072 H   0  0  0  0  0  0  0  0  0  0  0  0
   10.8215    1.5522   22.8601 C   0  0  0  0  0  0  0  0  0  0  0  0
   10.9157    0.9184   23.7532 H   0  0  0  0  0  0  0  0  0  0  0  0
   11.6628    2.2584   22.8910 H   0  0  0  0  0  0  0  0  0  0  0  0
   10.8717    0.7225   21.5615 C   0  0  0  0  0  0  0  0  0  0  0  0
   11.2456   -0.2922   21.7202 H   0  0  0  0  0  0  0  0  0  0  0  0
   11.5488    1.1991   20.8440 H   0  0  0  0  0  0  0  0  0  0  0  0
    8.8944   -1.3636   22.6177 C   0  0  0  0  0  0  0  0  0  0  0  0
    9.7901   -1.9782   22.4347 H   0  0  0  0  0  0  0  0  0  0  0  0
    9.0783   -0.8003   23.5487 H   0  0  0  0  0  0  0  0  0  0  0  0
    7.6819   -2.1362   22.6868 N   0  0  0  0  0  0  0  0  0  0  0  0
    7.4709   -2.8731   23.3343 H   0  0  0  0  0  0  0  0  0  0  0  0
    6.7276   -1.8092   21.7626 C   0  0  0  0  0  0  0  0  0  0  0  0
    5.6639   -2.3916   21.6489 O   0  0  0  0  0  0  0  0  0  0  0  0
    5.4337    0.6469   20.1495 C   0  0  0  0  0  0  0  0  0  0  0  0
    5.0113    0.6132   21.1570 H   0  0  0  0  0  0  0  0  0  0  0  0
    4.8063    1.3136   19.1000 C   0  0  0  0  0  0  0  0  0  0  0  0
    3.8738    1.8444   19.2527 H   0  0  0  0  0  0  0  0  0  0  0  0
  1  2  1  0
  2  3  2  0
  3  4  1  0
  4  5  1  0
  4  6  2  0
  6  7  1  0
  7  8  2  0
  8  9  1  0
  9 10  1  6
  9 11  1  0
 11 12  1  0
 11 13  1  0
 11 14  1  0
 14 15  1  0
 14 16  1  0
 16 17  1  0
 16 18  1  0
 16 19  1  0
 19 20  1  0
 19 21  1  0
  8 22  1  0
 22 23  1  0
 22 24  1  0
 22 25  1  0
 25 26  1  0
 25 27  1  0
 27 28  2  0
  6 29  1  0
 29 30  1  0
 29 31  2  0
 31 32  1  0
 31  2  1  0
 27  7  1  0
 19  9  1  0
M  END
>  <plip>  (1) 
-0.10714285714285714

>  <filename>  (1) 
[H][c]1[n][c]([H])[c]([C]2=[C]([C@@]3([H])[C]([H])([H])[N]([H])[C]([H])([H])[C]3([H])[H])[C]([H])([H])[N]([H])[C]2=[O])[c]([H])[c]1[H]

$$$$
