
     RDKit          3D

 19 20  0  0  0  0  0  0  0  0999 V2000
    6.4567    1.6565   23.5311 N   0  0  0  0  0  0  0  0  0  0  0  0
    6.8937    0.7418   22.9672 C   0  0  0  0  0  0  0  0  0  0  0  0
    7.4638   -0.3957   22.3171 C   0  0  0  0  0  0  0  0  0  0  0  0
    7.3625   -0.6779   20.9720 C   0  0  0  0  0  0  0  0  0  0  0  0
    6.6490   -0.0108   19.8918 C   0  0  0  0  0  0  0  0  0  0  0  0
    5.4343    0.6552   20.1561 C   0  0  0  0  0  0  0  0  0  0  0  0
    4.8084    1.3092   19.1004 C   0  0  0  0  0  0  0  0  0  0  0  0
    5.4066    1.2904   17.8356 C   0  0  0  0  0  0  0  0  0  0  0  0
    6.5692    0.6714   17.5690 N   0  0  0  0  0  0  0  0  0  0  0  0
    7.1674    0.0416   18.5830 C   0  0  0  0  0  0  0  0  0  0  0  0
    8.1212   -0.4283   18.3531 H   0  0  0  0  0  0  0  0  0  0  0  0
    4.9269    1.7833   16.9952 H   0  0  0  0  0  0  0  0  0  0  0  0
    3.8778    1.8429   19.2555 H   0  0  0  0  0  0  0  0  0  0  0  0
    4.9976    0.6406   21.1603 H   0  0  0  0  0  0  0  0  0  0  0  0
    8.1281   -1.7615   20.7004 O   0  0  0  0  0  0  0  0  0  0  0  0
    8.6688   -2.2031   21.8676 C   0  0  0  0  0  0  0  0  0  0  0  0
    8.3091   -1.4044   22.8975 C   0  0  0  0  0  0  0  0  0  0  0  0
    8.5996   -1.4881   23.9386 H   0  0  0  0  0  0  0  0  0  0  0  0
    9.2870   -3.0869   21.7931 H   0  0  0  0  0  0  0  0  0  0  0  0
  1  2  3  0
  2  3  1  0
  3  4  2  0
  4  5  1  0
  5  6  2  0
  6  7  1  0
  7  8  2  0
  8  9  1  0
  9 10  2  0
 10 11  1  0
  8 12  1  0
  7 13  1  0
  6 14  1  0
  4 15  1  0
 15 16  1  0
 16 17  2  0
 17 18  1  0
 16 19  1  0
 17  3  1  0
 10  5  1  0
M  END
>  <plip>  (1) 
-0.034482758620689655

>  <filename>  (1) 
[H][c]1[n][c]([H])[c](-[c]2[o][c]([H])[c]([H])[c]2[C]#[N])[c]([H])[c]1[H]

$$$$
