
     RDKit          3D

 52 56  0  0  0  0  0  0  0  0999 V2000
   10.1848    8.1333   26.4223 O   0  0  0  0  0  0  0  0  0  0  0  0
    9.1381    7.8483   25.8735 C   0  0  0  0  0  0  0  0  0  0  0  0
    7.9156    8.7477   26.0255 C   0  0  0  0  0  0  0  0  0  0  0  0
    6.5779    8.0270   25.8249 C   0  0  0  0  0  0  0  0  0  0  0  0
    6.5817    7.2639   24.4936 C   0  0  0  0  0  0  0  0  0  0  0  0
    7.7829    6.3449   24.3549 C   0  0  0  0  0  0  0  0  0  0  0  0
    7.6903    5.2034   23.5660 C   0  0  0  0  0  0  0  0  0  0  0  0
    8.7829    4.3431   23.4281 C   0  0  0  0  0  0  0  0  0  0  0  0
    8.5506    3.2238   22.6950 O   0  0  0  0  0  0  0  0  0  0  0  0
    9.6344    2.3648   22.3757 C   0  0  0  0  0  0  0  0  0  0  0  0
    9.1017    1.2295   21.5163 C   0  0  0  0  0  0  0  0  0  0  0  0
    9.6050    0.9598   20.4357 O   0  0  0  0  0  0  0  0  0  0  0  0
    8.0516    0.5216   22.0405 N   0  0  0  0  0  0  0  0  0  0  0  0
    7.8253    0.2939   23.4722 C   0  0  0  0  0  0  0  0  0  0  0  0
    6.7265   -0.7715   23.5403 C   0  0  0  0  0  0  0  0  0  0  0  0
    6.6243   -1.3720   22.1372 C   0  0  2  0  0  0  0  0  0  0  0  0
    7.5635   -2.5478   21.7648 C   0  0  0  0  0  0  0  0  0  0  0  0
    8.3469   -1.6220   20.8132 C   0  0  0  0  0  0  0  0  0  0  0  0
    7.4133   -0.4548   21.1772 C   0  0  2  0  0  0  0  0  0  0  0  0
    6.6600    0.1602   20.0093 C   0  0  0  0  0  0  0  0  0  0  0  0
    5.4062    0.7617   20.1702 C   0  0  0  0  0  0  0  0  0  0  0  0
    4.7811    1.3402   19.0646 C   0  0  0  0  0  0  0  0  0  0  0  0
    5.4267    1.2948   17.8230 C   0  0  0  0  0  0  0  0  0  0  0  0
    6.6265    0.7268   17.6362 N   0  0  0  0  0  0  0  0  0  0  0  0
    7.2195    0.1958   18.7135 C   0  0  0  0  0  0  0  0  0  0  0  0
    8.2028   -0.2382   18.5365 H   0  0  0  0  0  0  0  0  0  0  0  0
    4.9678    1.7412   16.9436 H   0  0  0  0  0  0  0  0  0  0  0  0
    3.8200    1.8370   19.1497 H   0  0  0  0  0  0  0  0  0  0  0  0
    4.9261    0.7737   21.1517 H   0  0  0  0  0  0  0  0  0  0  0  0
    9.3976   -1.4559   21.0628 H   0  0  0  0  0  0  0  0  0  0  0  0
    8.2550   -1.8364   19.7597 H   0  0  0  0  0  0  0  0  0  0  0  0
    7.0509   -3.3671   21.2553 H   0  0  0  0  0  0  0  0  0  0  0  0
    8.1508   -2.9594   22.5908 H   0  0  0  0  0  0  0  0  0  0  0  0
    5.6066   -1.5677   21.8028 H   0  0  0  0  0  0  0  0  0  0  0  0
    6.9487   -1.5320   24.2973 H   0  0  0  0  0  0  0  0  0  0  0  0
    5.7984   -0.2796   23.8354 H   0  0  0  0  0  0  0  0  0  0  0  0
    8.7417   -0.0509   23.9734 H   0  0  0  0  0  0  0  0  0  0  0  0
    7.5166    1.2325   23.9393 H   0  0  0  0  0  0  0  0  0  0  0  0
   10.0873    1.9552   23.2899 H   0  0  0  0  0  0  0  0  0  0  0  0
   10.4063    2.8805   21.7961 H   0  0  0  0  0  0  0  0  0  0  0  0
   10.0028    4.6436   24.0502 C   0  0  0  0  0  0  0  0  0  0  0  0
   10.1093    5.7819   24.8303 C   0  0  0  0  0  0  0  0  0  0  0  0
    9.0064    6.6377   25.0032 C   0  0  0  0  0  0  0  0  0  0  0  0
   11.0508    6.0200   25.3238 H   0  0  0  0  0  0  0  0  0  0  0  0
   10.8573    3.9898   23.9091 H   0  0  0  0  0  0  0  0  0  0  0  0
    6.7713    4.9571   23.0428 H   0  0  0  0  0  0  0  0  0  0  0  0
    5.6576    6.6831   24.3793 H   0  0  0  0  0  0  0  0  0  0  0  0
    6.6018    7.9830   23.6609 H   0  0  0  0  0  0  0  0  0  0  0  0
    5.7573    8.7554   25.8381 H   0  0  0  0  0  0  0  0  0  0  0  0
    6.3946    7.3237   26.6522 H   0  0  0  0  0  0  0  0  0  0  0  0
    8.0337    9.5320   25.2631 H   0  0  0  0  0  0  0  0  0  0  0  0
    7.9887    9.2293   27.0043 H   0  0  0  0  0  0  0  0  0  0  0  0
  1  2  2  0
  2  3  1  0
  3  4  1  0
  4  5  1  0
  5  6  1  0
  6  7  2  0
  7  8  1  0
  8  9  1  0
  9 10  1  0
 10 11  1  0
 11 12  2  0
 11 13  1  0
 13 14  1  0
 14 15  1  0
 15 16  1  0
 16 17  1  0
 17 18  1  0
 18 19  1  0
 19 20  1  6
 20 21  2  0
 21 22  1  0
 22 23  2  0
 23 24  1  0
 24 25  2  0
 25 26  1  0
 23 27  1  0
 22 28  1  0
 21 29  1  0
 18 30  1  0
 18 31  1  0
 17 32  1  0
 17 33  1  0
 16 34  1  6
 15 35  1  0
 15 36  1  0
 14 37  1  0
 14 38  1  0
 10 39  1  0
 10 40  1  0
  8 41  2  0
 41 42  1  0
 42 43  2  0
 42 44  1  0
 41 45  1  0
  7 46  1  0
  5 47  1  0
  5 48  1  0
  4 49  1  0
  4 50  1  0
  3 51  1  0
  3 52  1  0
 43  2  1  0
 43  6  1  0
 19 13  1  0
 25 20  1  0
 19 16  1  0
M  END
>  <plip>  (1) 
-0.10714285714285714

>  <filename>  (1) 
[H][c]1[n][c]([H])[c]([C@@]23[N]([C](=[O])[C]([H])([H])[O][c]4[c]([H])[c]([H])[c]5[c]([c]4[H])[C]([H])([H])[C]([H])([H])[C]([H])([H])[C]5=[O])[C]([H])([H])[C]([H])([H])[C@]2([H])[C]([H])([H])[C]3([H])[H])[c]([H])[c]1[H]

$$$$
