
     RDKit          3D

 36 38  0  0  0  0  0  0  0  0999 V2000
    8.7234   -0.8396   21.4769 C   0  0  0  0  0  0  0  0  0  0  0  0
    7.2571   -1.2503   21.4356 C   0  0  0  0  0  0  0  0  0  0  0  0
    7.2094   -2.7151   21.3668 N   0  0  0  0  0  0  0  0  0  0  0  0
    7.6703   -3.5233   22.4199 C   0  0  0  0  0  0  0  0  0  0  0  0
    7.9553   -2.9636   23.6725 C   0  0  0  0  0  0  0  0  0  0  0  0
    8.4977   -3.7612   24.6931 C   0  0  0  0  0  0  0  0  0  0  0  0
    8.7963   -5.0929   24.4662 C   0  0  0  0  0  0  0  0  0  0  0  0
    8.4632   -5.6804   23.2459 C   0  0  0  0  0  0  0  0  0  0  0  0
    7.8642   -4.9087   22.2386 C   0  0  0  0  0  0  0  0  0  0  0  0
    7.2553   -5.8115   20.6735 Br  0  0  0  0  0  0  0  0  0  0  0  0
    8.6533   -6.7368   23.0752 H   0  0  0  0  0  0  0  0  0  0  0  0
    9.4561   -5.7301   25.6533 C   0  0  0  0  0  0  0  0  0  0  0  0
    9.2343   -4.7006   26.7740 C   0  0  0  0  0  0  0  0  0  0  0  0
    8.8133   -3.3813   26.1013 C   0  0  0  0  0  0  0  0  0  0  0  0
    9.6079   -2.6370   26.1272 H   0  0  0  0  0  0  0  0  0  0  0  0
    7.9411   -2.9561   26.5977 H   0  0  0  0  0  0  0  0  0  0  0  0
    8.4310   -5.0425   27.4349 H   0  0  0  0  0  0  0  0  0  0  0  0
   10.1330   -4.5658   27.3826 H   0  0  0  0  0  0  0  0  0  0  0  0
    9.0154   -6.7037   25.9006 H   0  0  0  0  0  0  0  0  0  0  0  0
   10.5246   -5.8730   25.4632 H   0  0  0  0  0  0  0  0  0  0  0  0
    7.7645   -1.9096   23.8326 H   0  0  0  0  0  0  0  0  0  0  0  0
    7.3030   -3.1154   20.4391 H   0  0  0  0  0  0  0  0  0  0  0  0
    6.6269   -0.6242   20.2169 C   0  0  0  0  0  0  0  0  0  0  0  0
    5.4651    0.1450   20.3298 C   0  0  0  0  0  0  0  0  0  0  0  0
    5.0090    0.8117   19.1940 C   0  0  0  0  0  0  0  0  0  0  0  0
    5.6978    0.6887   17.9847 C   0  0  0  0  0  0  0  0  0  0  0  0
    6.8071   -0.0626   17.8669 N   0  0  0  0  0  0  0  0  0  0  0  0
    7.2563   -0.7020   18.9637 C   0  0  0  0  0  0  0  0  0  0  0  0
    8.1836   -1.2560   18.8723 H   0  0  0  0  0  0  0  0  0  0  0  0
    5.3307    1.2277   17.1162 H   0  0  0  0  0  0  0  0  0  0  0  0
    4.1328    1.4480   19.2432 H   0  0  0  0  0  0  0  0  0  0  0  0
    4.9523    0.2489   21.2836 H   0  0  0  0  0  0  0  0  0  0  0  0
    6.7353   -0.9097   22.3405 H   0  0  0  0  0  0  0  0  0  0  0  0
    8.8115    0.2389   21.6370 H   0  0  0  0  0  0  0  0  0  0  0  0
    9.2406   -1.3725   22.2809 H   0  0  0  0  0  0  0  0  0  0  0  0
    9.2023   -1.0967   20.5250 H   0  0  0  0  0  0  0  0  0  0  0  0
  1  2  1  0
  2  3  1  0
  3  4  1  0
  4  5  2  0
  5  6  1  0
  6  7  2  0
  7  8  1  0
  8  9  2  0
  9 10  1  0
  8 11  1  0
  7 12  1  0
 12 13  1  0
 13 14  1  0
 14 15  1  0
 14 16  1  0
 13 17  1  0
 13 18  1  0
 12 19  1  0
 12 20  1  0
  5 21  1  0
  3 22  1  0
  2 23  1  0
 23 24  2  0
 24 25  1  0
 25 26  2  0
 26 27  1  0
 27 28  2  0
 28 29  1  0
 26 30  1  0
 25 31  1  0
 24 32  1  0
  2 33  1  0
  1 34  1  0
  1 35  1  0
  1 36  1  0
  9  4  1  0
 28 23  1  0
 14  6  1  0
M  END
>  <plip>  (1) 
-0.034482758620689655

>  <filename>  (1) 
[H][c]1[n][c]([H])[c]([C]([H])([N]([H])[c]2[c]([H])[c]3[c]([c]([H])[c]2[Br])[C]([H])([H])[C]([H])([H])[C]3([H])[H])[C]([H])([H])[H])[c]([H])[c]1[H]

$$$$
