
     RDKit          3D

 37 39  0  0  0  0  0  0  0  0999 V2000
    4.9285    1.7756   17.0025 H   0  0  0  0  0  0  0  0  0  0  0  0
    5.4071    1.2844   17.8473 C   0  0  0  0  0  0  0  0  0  0  0  0
    6.5670    0.6642   17.5893 N   0  0  0  0  0  0  0  0  0  0  0  0
    7.1889    0.0652   18.6097 C   0  0  0  0  0  0  0  0  0  0  0  0
    8.1305   -0.4203   18.3723 H   0  0  0  0  0  0  0  0  0  0  0  0
    6.6780    0.0162   19.9149 C   0  0  0  0  0  0  0  0  0  0  0  0
    7.4329   -0.7103   20.9616 C   0  0  0  0  0  0  0  0  0  0  0  0
    8.7712   -0.6889   20.8863 N   0  0  0  0  0  0  0  0  0  0  0  0
    9.4420   -1.3055   21.8673 C   0  0  0  0  0  0  0  0  0  0  0  0
   10.5248   -1.2643   21.7999 H   0  0  0  0  0  0  0  0  0  0  0  0
    8.8422   -2.0053   22.9150 C   0  0  0  0  0  0  0  0  0  0  0  0
    9.4495   -2.4898   23.6679 H   0  0  0  0  0  0  0  0  0  0  0  0
    7.4457   -2.0718   22.9845 C   0  0  0  0  0  0  0  0  0  0  0  0
    6.7526   -2.8184   24.0786 C   0  0  0  0  0  0  0  0  0  0  0  0
    7.2120   -4.0673   24.5153 C   0  0  0  0  0  0  0  0  0  0  0  0
    8.0999   -4.4817   24.0432 H   0  0  0  0  0  0  0  0  0  0  0  0
    6.5652   -4.7688   25.5381 C   0  0  0  0  0  0  0  0  0  0  0  0
    6.9659   -5.7203   25.8587 H   0  0  0  0  0  0  0  0  0  0  0  0
    5.4161   -4.2347   26.1403 C   0  0  0  0  0  0  0  0  0  0  0  0
    4.6846   -4.8236   27.1227 O   0  0  0  0  0  0  0  0  0  0  0  0
    5.1361   -6.0111   27.7680 C   0  0  0  0  0  0  0  0  0  0  0  0
    5.4042   -6.7778   27.0287 H   0  0  0  0  0  0  0  0  0  0  0  0
    4.2469   -6.3675   28.2873 H   0  0  0  0  0  0  0  0  0  0  0  0
    6.2624   -5.7681   28.7612 C   0  0  0  0  0  0  0  0  0  0  0  0
    7.1640   -5.3946   28.2666 H   0  0  0  0  0  0  0  0  0  0  0  0
    5.9536   -5.0358   29.5128 H   0  0  0  0  0  0  0  0  0  0  0  0
    6.5195   -6.6995   29.2779 H   0  0  0  0  0  0  0  0  0  0  0  0
    4.9418   -2.9829   25.7122 C   0  0  0  0  0  0  0  0  0  0  0  0
    4.0482   -2.5649   26.1615 H   0  0  0  0  0  0  0  0  0  0  0  0
    5.6334   -2.2782   24.7364 C   0  0  0  0  0  0  0  0  0  0  0  0
    5.3708   -1.2468   24.5373 H   0  0  0  0  0  0  0  0  0  0  0  0
    6.7511   -1.4016   21.9720 C   0  0  0  0  0  0  0  0  0  0  0  0
    5.6786   -1.4502   21.9194 H   0  0  0  0  0  0  0  0  0  0  0  0
    5.4476    0.6471   20.1649 C   0  0  0  0  0  0  0  0  0  0  0  0
    5.0051    0.6429   21.1649 H   0  0  0  0  0  0  0  0  0  0  0  0
    4.8139    1.3056   19.1135 C   0  0  0  0  0  0  0  0  0  0  0  0
    3.8817    1.8361   19.2592 H   0  0  0  0  0  0  0  0  0  0  0  0
  1  2  1  0
  2  3  2  0
  3  4  1  0
  4  5  1  0
  4  6  2  0
  6  7  1  0
  7  8  2  0
  8  9  1  0
  9 10  1  0
  9 11  2  0
 11 12  1  0
 11 13  1  0
 13 14  1  0
 14 15  2  0
 15 16  1  0
 15 17  1  0
 17 18  1  0
 17 19  2  0
 19 20  1  0
 20 21  1  0
 21 22  1  0
 21 23  1  0
 21 24  1  0
 24 25  1  0
 24 26  1  0
 24 27  1  0
 19 28  1  0
 28 29  1  0
 28 30  2  0
 30 31  1  0
 13 32  2  0
 32 33  1  0
  6 34  1  0
 34 35  1  0
 34 36  2  0
 36 37  1  0
 36  2  1  0
 32  7  1  0
 30 14  1  0
M  END
>  <plip>  (1) 
-0.03571428571428571

>  <filename>  (1) 
[H][c]1[n][c]([H])[c](-[c]2[n][c]([H])[c]([H])[c](-[c]3[c]([H])[c]([H])[c]([O][C]([H])([H])[C]([H])([H])[H])[c]([H])[c]3[H])[c]2[H])[c]([H])[c]1[H]

$$$$
