
     RDKit          3D

 27 29  0  0  0  0  0  0  0  0999 V2000
    4.9126    1.8351   16.9563 H   0  0  0  0  0  0  0  0  0  0  0  0
    5.3784    1.3201   17.7921 C   0  0  0  0  0  0  0  0  0  0  0  0
    6.5389    0.6984   17.5230 N   0  0  0  0  0  0  0  0  0  0  0  0
    7.1528    0.0837   18.5416 C   0  0  0  0  0  0  0  0  0  0  0  0
    8.0955   -0.4120   18.3047 H   0  0  0  0  0  0  0  0  0  0  0  0
    6.6466    0.0249   19.8573 C   0  0  0  0  0  0  0  0  0  0  0  0
    7.3713   -0.6839   20.9456 C   0  0  0  0  0  0  0  0  0  0  0  0
    6.6942   -1.5128   21.8630 C   0  0  0  0  0  0  0  0  0  0  0  0
    5.6247   -1.6823   21.7506 H   0  0  0  0  0  0  0  0  0  0  0  0
    7.2907   -2.1690   22.8544 N   0  0  0  0  0  0  0  0  0  0  0  0
    8.6353   -2.0453   22.9966 C   0  0  0  0  0  0  0  0  0  0  0  0
    9.2720   -2.8760   24.0659 C   0  0  0  0  0  0  0  0  0  0  0  0
   10.5540   -3.1485   24.2327 N   0  0  0  0  0  0  0  0  0  0  0  0
   10.6112   -4.0435   25.2630 C   0  0  0  0  0  0  0  0  0  0  0  0
   11.5495   -4.5001   25.5388 H   0  0  0  0  0  0  0  0  0  0  0  0
    9.3617   -4.2936   25.7667 C   0  0  0  0  0  0  0  0  0  0  0  0
    9.0451   -4.8839   26.6207 H   0  0  0  0  0  0  0  0  0  0  0  0
    8.5162   -3.5446   24.9874 N   0  0  0  0  0  0  0  0  0  0  0  0
    7.5132   -3.5880   24.8773 H   0  0  0  0  0  0  0  0  0  0  0  0
    9.4018   -1.2281   22.1438 C   0  0  0  0  0  0  0  0  0  0  0  0
   10.4766   -1.1722   22.2966 H   0  0  0  0  0  0  0  0  0  0  0  0
    8.7601   -0.5545   21.1090 C   0  0  0  0  0  0  0  0  0  0  0  0
    9.3160    0.0831   20.4245 H   0  0  0  0  0  0  0  0  0  0  0  0
    5.4219    0.6671   20.1031 C   0  0  0  0  0  0  0  0  0  0  0  0
    5.0084    0.6637   21.1125 H   0  0  0  0  0  0  0  0  0  0  0  0
    4.7792    1.3304   19.0565 C   0  0  0  0  0  0  0  0  0  0  0  0
    3.8435    1.8608   19.2082 H   0  0  0  0  0  0  0  0  0  0  0  0
  1  2  1  0
  2  3  2  0
  3  4  1  0
  4  5  1  0
  4  6  2  0
  6  7  1  0
  7  8  2  0
  8  9  1  0
  8 10  1  0
 10 11  2  0
 11 12  1  0
 12 13  2  0
 13 14  1  0
 14 15  1  0
 14 16  2  0
 16 17  1  0
 16 18  1  0
 18 19  1  0
 11 20  1  0
 20 21  1  0
 20 22  2  0
 22 23  1  0
  6 24  1  0
 24 25  1  0
 24 26  2  0
 26 27  1  0
 26  2  1  0
 22  7  1  0
 18 12  1  0
M  END
>  <plip>  (1) 
-0.03571428571428571

>  <filename>  (1) 
[H][c]1[n][c]([H])[c](-[c]2[c]([H])[n][c](-[c]3[n][c]([H])[c]([H])[n]3[H])[c]([H])[c]2[H])[c]([H])[c]1[H]

$$$$
