
     RDKit          3D

 33 36  0  0  0  0  0  0  0  0999 V2000
   10.0509   -1.4601   22.8390 H   0  0  0  0  0  0  0  0  0  0  0  0
    9.0719   -1.3127   22.4007 C   0  0  0  0  0  0  0  0  0  0  0  0
    7.9021   -1.7567   22.9143 C   0  0  0  0  0  0  0  0  0  0  0  0
    7.6650   -2.3820   24.2190 C   0  0  0  0  0  0  0  0  0  0  0  0
    6.6684   -2.0444   25.0828 C   0  0  0  0  0  0  0  0  0  0  0  0
    5.8996   -1.3004   24.9196 H   0  0  0  0  0  0  0  0  0  0  0  0
    6.7035   -2.9198   26.5757 S   0  0  0  0  0  0  0  0  0  0  0  0
    8.0939   -3.8341   26.0652 C   0  0  0  0  0  0  0  0  0  0  0  0
    8.7690   -4.8438   26.7803 C   0  0  0  0  0  0  0  0  0  0  0  0
    8.4653   -5.1340   27.7839 H   0  0  0  0  0  0  0  0  0  0  0  0
    9.8483   -5.4648   26.1664 C   0  0  0  0  0  0  0  0  0  0  0  0
   10.3947   -6.2464   26.6769 H   0  0  0  0  0  0  0  0  0  0  0  0
   10.2579   -5.1025   24.8710 C   0  0  0  0  0  0  0  0  0  0  0  0
   11.1258   -5.5964   24.4514 H   0  0  0  0  0  0  0  0  0  0  0  0
    9.5815   -4.1214   24.1651 C   0  0  0  0  0  0  0  0  0  0  0  0
    9.8609   -3.8597   23.1502 H   0  0  0  0  0  0  0  0  0  0  0  0
    8.4999   -3.4461   24.7697 C   0  0  0  0  0  0  0  0  0  0  0  0
    6.8332   -1.4960   21.8988 C   0  0  0  0  0  0  0  0  0  0  0  0
    5.7367   -2.0016   21.7916 O   0  0  0  0  0  0  0  0  0  0  0  0
    7.4246   -0.6401   20.9485 N   0  0  0  0  0  0  0  0  0  0  0  0
    6.7097    0.0167   19.9149 C   0  0  0  0  0  0  0  0  0  0  0  0
    7.2035    0.0672   18.5894 C   0  0  0  0  0  0  0  0  0  0  0  0
    8.1448   -0.4261   18.3522 H   0  0  0  0  0  0  0  0  0  0  0  0
    6.5733    0.6685   17.5739 N   0  0  0  0  0  0  0  0  0  0  0  0
    5.4104    1.2827   17.8420 C   0  0  0  0  0  0  0  0  0  0  0  0
    4.9312    1.7855   17.0066 H   0  0  0  0  0  0  0  0  0  0  0  0
    4.8286    1.2929   19.1138 C   0  0  0  0  0  0  0  0  0  0  0  0
    3.8932    1.8199   19.2690 H   0  0  0  0  0  0  0  0  0  0  0  0
    5.4727    0.6374   20.1675 C   0  0  0  0  0  0  0  0  0  0  0  0
    5.0280    0.5992   21.1592 H   0  0  0  0  0  0  0  0  0  0  0  0
    8.8808   -0.6402   21.0835 C   0  0  0  0  0  0  0  0  0  0  0  0
    9.3654   -1.2091   20.2696 H   0  0  0  0  0  0  0  0  0  0  0  0
    9.3217    0.3675   21.0584 H   0  0  0  0  0  0  0  0  0  0  0  0
  1  2  1  0
  2  3  2  0
  3  4  1  0
  4  5  2  0
  5  6  1  0
  5  7  1  0
  7  8  1  0
  8  9  2  0
  9 10  1  0
  9 11  1  0
 11 12  1  0
 11 13  2  0
 13 14  1  0
 13 15  1  0
 15 16  1  0
 15 17  2  0
  3 18  1  0
 18 19  2  0
 18 20  1  0
 20 21  1  0
 21 22  2  0
 22 23  1  0
 22 24  1  0
 24 25  2  0
 25 26  1  0
 25 27  1  0
 27 28  1  0
 27 29  2  0
 29 30  1  0
 20 31  1  0
 31 32  1  0
 31 33  1  0
 31  2  1  0
 17  4  1  0
 29 21  1  0
 17  8  1  0
M  END
>  <plip>  (1) 
-0.10714285714285714

>  <filename>  (1) 
[H][C]1=[C]([c]2[c]([H])[s][c]3[c]([H])[c]([H])[c]([H])[c]([H])[c]23)[C](=[O])[N]([c]2[c]([H])[n][c]([H])[c]([H])[c]2[H])[C]1([H])[H]

$$$$
