
     RDKit          3D

 23 25  0  0  0  0  0  0  0  0999 V2000
    4.9304    1.7759   17.0013 H   0  0  0  0  0  0  0  0  0  0  0  0
    5.4093    1.2851   17.8490 C   0  0  0  0  0  0  0  0  0  0  0  0
    6.5741    0.6625   17.6043 N   0  0  0  0  0  0  0  0  0  0  0  0
    7.1846    0.0478   18.6211 C   0  0  0  0  0  0  0  0  0  0  0  0
    8.1297   -0.4321   18.3766 H   0  0  0  0  0  0  0  0  0  0  0  0
    6.6643    0.0002   19.9274 C   0  0  0  0  0  0  0  0  0  0  0  0
    7.3548   -0.6872   20.9742 N   0  0  0  0  0  0  0  0  0  0  0  0
    8.5021   -1.3140   20.7944 N   0  0  0  0  0  0  0  0  0  0  0  0
    8.8394   -1.8247   21.9379 N   0  0  0  0  0  0  0  0  0  0  0  0
    7.8519   -1.4760   22.7995 C   0  0  0  0  0  0  0  0  0  0  0  0
    7.8652   -1.8476   24.1358 N   0  0  0  0  0  0  0  0  0  0  0  0
    6.8867   -1.5237   25.0511 C   0  0  0  0  0  0  0  0  0  0  0  0
    6.0023   -0.9413   24.8124 H   0  0  0  0  0  0  0  0  0  0  0  0
    7.1651   -2.0062   26.2266 N   0  0  0  0  0  0  0  0  0  0  0  0
    8.3641   -2.6731   26.1030 C   0  0  0  0  0  0  0  0  0  0  0  0
    8.8261   -3.1736   26.9472 H   0  0  0  0  0  0  0  0  0  0  0  0
    8.8239   -2.5952   24.8242 C   0  0  0  0  0  0  0  0  0  0  0  0
    9.7157   -2.9867   24.3446 H   0  0  0  0  0  0  0  0  0  0  0  0
    6.8977   -0.7599   22.2237 N   0  0  0  0  0  0  0  0  0  0  0  0
    5.4441    0.6445   20.1788 C   0  0  0  0  0  0  0  0  0  0  0  0
    5.0072    0.6305   21.1788 H   0  0  0  0  0  0  0  0  0  0  0  0
    4.8169    1.3002   19.1168 C   0  0  0  0  0  0  0  0  0  0  0  0
    3.8852    1.8341   19.2649 H   0  0  0  0  0  0  0  0  0  0  0  0
  1  2  1  0
  2  3  2  0
  3  4  1  0
  4  5  1  0
  4  6  2  0
  6  7  1  0
  7  8  1  0
  8  9  2  0
  9 10  1  0
 10 11  1  0
 11 12  1  0
 12 13  1  0
 12 14  2  0
 14 15  1  0
 15 16  1  0
 15 17  2  0
 17 18  1  0
 10 19  2  0
  6 20  1  0
 20 21  1  0
 20 22  2  0
 22 23  1  0
 22  2  1  0
 19  7  1  0
 17 11  1  0
M  END
>  <plip>  (1) 
-0.06896551724137931

>  <filename>  (1) 
[H][c]1[n][c]([H])[c](-[n]2[n][n][c](-[n]3[c]([H])[n][c]([H])[c]3[H])[n]2)[c]([H])[c]1[H]

$$$$
