
     RDKit          3D

 42 44  0  0  0  0  0  0  0  0999 V2000
    8.7422    0.0214   21.3098 C   0  0  0  0  0  0  0  0  0  0  0  0
    7.3971   -0.6613   21.0484 C   0  0  0  0  0  0  0  0  0  0  0  0
    7.6216   -2.1000   20.7093 N   0  0  0  0  0  4  0  0  0  0  0  0
    7.2252   -3.1298   21.7571 C   0  0  0  0  0  0  0  0  0  0  0  0
    8.0817   -2.9243   23.0210 C   0  0  0  0  0  0  0  0  0  0  0  0
    7.8827   -3.8966   24.1621 C   0  0  0  0  0  0  0  0  0  0  0  0
    8.6515   -5.0645   24.2888 C   0  0  0  0  0  0  0  0  0  0  0  0
    8.4425   -5.9276   25.3614 C   0  0  0  0  0  0  0  0  0  0  0  0
    7.4426   -5.5789   26.2735 C   0  0  0  0  0  0  0  0  0  0  0  0
    7.2062   -6.5822   27.6669 Cl  0  0  0  0  0  0  0  0  0  0  0  0
    6.6695   -4.5119   26.1732 N   0  0  0  0  0  0  0  0  0  0  0  0
    6.8993   -3.6910   25.1424 C   0  0  0  0  0  0  0  0  0  0  0  0
    6.2699   -2.8041   25.0733 H   0  0  0  0  0  0  0  0  0  0  0  0
    9.0172   -6.8320   25.5096 H   0  0  0  0  0  0  0  0  0  0  0  0
    9.4069   -5.2861   23.5426 H   0  0  0  0  0  0  0  0  0  0  0  0
    7.8733   -1.9033   23.3597 H   0  0  0  0  0  0  0  0  0  0  0  0
    9.1254   -2.9409   22.6700 H   0  0  0  0  0  0  0  0  0  0  0  0
    7.1877   -4.5675   21.2189 C   0  0  0  0  0  0  0  0  0  0  0  0
    5.6581   -4.6466   21.4798 C   0  0  0  0  0  0  0  0  0  0  0  0
    5.6920   -3.1601   21.9442 C   0  0  0  0  0  0  0  0  0  0  0  0
    5.3492   -2.9678   22.9601 H   0  0  0  0  0  0  0  0  0  0  0  0
    5.2035   -2.4266   21.2981 H   0  0  0  0  0  0  0  0  0  0  0  0
    5.3289   -5.3606   22.2432 H   0  0  0  0  0  0  0  0  0  0  0  0
    5.0975   -4.8565   20.5680 H   0  0  0  0  0  0  0  0  0  0  0  0
    7.4456   -4.6452   20.1686 H   0  0  0  0  0  0  0  0  0  0  0  0
    7.8120   -5.2834   21.7562 H   0  0  0  0  0  0  0  0  0  0  0  0
    8.6388   -2.2143   20.5143 H   0  0  0  0  0  0  0  0  0  0  0  0
    7.0744   -2.2817   19.8380 H   0  0  0  0  0  0  0  0  0  0  0  0
    6.6247   -0.0241   19.9120 C   0  0  0  0  0  0  0  0  0  0  0  0
    5.4109    0.6403   20.1336 C   0  0  0  0  0  0  0  0  0  0  0  0
    4.7946    1.3032   19.0719 C   0  0  0  0  0  0  0  0  0  0  0  0
    5.4134    1.2780   17.8200 C   0  0  0  0  0  0  0  0  0  0  0  0
    6.5576    0.6223   17.5781 N   0  0  0  0  0  0  0  0  0  0  0  0
    7.1378   -0.0143   18.6049 C   0  0  0  0  0  0  0  0  0  0  0  0
    8.0814   -0.5097   18.3579 H   0  0  0  0  0  0  0  0  0  0  0  0
    4.9765    1.8167   16.9804 H   0  0  0  0  0  0  0  0  0  0  0  0
    3.8755    1.8600   19.2096 H   0  0  0  0  0  0  0  0  0  0  0  0
    4.9691    0.6490   21.1324 H   0  0  0  0  0  0  0  0  0  0  0  0
    6.7874   -0.6034   21.9577 H   0  0  0  0  0  0  0  0  0  0  0  0
    8.6079    1.0781   21.5582 H   0  0  0  0  0  0  0  0  0  0  0  0
    9.2773   -0.4577   22.1390 H   0  0  0  0  0  0  0  0  0  0  0  0
    9.3721   -0.0463   20.4163 H   0  0  0  0  0  0  0  0  0  0  0  0
  1  2  1  0
  2  3  1  0
  3  4  1  0
  4  5  1  0
  5  6  1  0
  6  7  2  0
  7  8  1  0
  8  9  2  0
  9 10  1  0
  9 11  1  0
 11 12  2  0
 12 13  1  0
  8 14  1  0
  7 15  1  0
  5 16  1  0
  5 17  1  0
  4 18  1  0
 18 19  1  0
 19 20  1  0
 20 21  1  0
 20 22  1  0
 19 23  1  0
 19 24  1  0
 18 25  1  0
 18 26  1  0
  3 27  1  0
  3 28  1  0
  2 29  1  0
 29 30  2  0
 30 31  1  0
 31 32  2  0
 32 33  1  0
 33 34  2  0
 34 35  1  0
 32 36  1  0
 31 37  1  0
 30 38  1  0
  2 39  1  0
  1 40  1  0
  1 41  1  0
  1 42  1  0
 20  4  1  0
 34 29  1  0
 12  6  1  0
M  CHG  1   3   1
M  END
>  <plip>  (1) 
-0.03333333333333333

>  <filename>  (1) 
[H][c]1[n][c]([H])[c]([C]([H])([C]([H])([H])[H])[N+]([H])([H])[C]2([C]([H])([H])[c]3[c]([H])[n][c]([Cl])[c]([H])[c]3[H])[C]([H])([H])[C]([H])([H])[C]2([H])[H])[c]([H])[c]1[H]

$$$$
