
     RDKit          3D

 34 36  0  0  0  0  0  0  0  0999 V2000
    6.3751    3.2274   26.9245 N   0  0  0  0  0  0  0  0  0  0  0  0
    6.8132    2.1664   26.7638 C   0  0  0  0  0  0  0  0  0  0  0  0
    7.4248    0.8454   26.5989 C   0  0  0  0  0  0  0  0  0  0  0  0
    7.1576    0.2118   25.4496 N   0  0  0  0  0  0  0  0  0  0  0  0
    7.7021   -0.9885   25.2613 C   0  0  0  0  0  0  0  0  0  0  0  0
    7.3599   -1.6034   24.0890 N   0  0  0  0  0  0  0  0  0  0  0  0
    6.8049   -0.8701   22.9799 C   0  0  1  0  0  0  0  0  0  0  0  0
    7.7530    0.0748   22.1979 C   0  0  0  0  0  0  0  0  0  0  0  0
    7.4566   -0.7176   20.9016 C   0  0  2  0  0  0  0  0  0  0  0  0
    8.6024   -1.3768   20.4118 O   0  0  0  0  0  0  0  0  0  0  0  0
    9.3062   -0.7190   20.3640 H   0  0  0  0  0  0  0  0  0  0  0  0
    6.7088    0.0224   19.8273 C   0  0  0  0  0  0  0  0  0  0  0  0
    5.4990    0.6973   20.0721 C   0  0  0  0  0  0  0  0  0  0  0  0
    4.8712    1.3508   19.0126 C   0  0  0  0  0  0  0  0  0  0  0  0
    5.4773    1.3198   17.7508 C   0  0  0  0  0  0  0  0  0  0  0  0
    6.6174    0.6649   17.4923 N   0  0  0  0  0  0  0  0  0  0  0  0
    7.2005    0.0313   18.5146 C   0  0  0  0  0  0  0  0  0  0  0  0
    8.1119   -0.5117   18.2831 H   0  0  0  0  0  0  0  0  0  0  0  0
    5.0211    1.8323   16.9079 H   0  0  0  0  0  0  0  0  0  0  0  0
    3.9344    1.8805   19.1455 H   0  0  0  0  0  0  0  0  0  0  0  0
    5.0571    0.7279   21.0715 H   0  0  0  0  0  0  0  0  0  0  0  0
    6.5954   -1.7114   21.7120 C   0  0  0  0  0  0  0  0  0  0  0  0
    7.0998   -2.6756   21.7868 H   0  0  0  0  0  0  0  0  0  0  0  0
    5.5697   -1.8923   21.3768 H   0  0  0  0  0  0  0  0  0  0  0  0
    7.4923    1.1342   22.1994 H   0  0  0  0  0  0  0  0  0  0  0  0
    8.7905   -0.0048   22.5253 H   0  0  0  0  0  0  0  0  0  0  0  0
    5.9255   -0.3121   23.3183 H   0  0  0  0  0  0  0  0  0  0  0  0
    7.9219   -2.4011   23.8636 H   0  0  0  0  0  0  0  0  0  0  0  0
    8.5465   -1.6200   26.1975 C   0  0  0  0  0  0  0  0  0  0  0  0
    8.8492   -0.9261   27.3624 C   0  0  0  0  0  0  0  0  0  0  0  0
    8.2569    0.3238   27.5886 C   0  0  0  0  0  0  0  0  0  0  0  0
    8.4301    0.8804   28.5012 H   0  0  0  0  0  0  0  0  0  0  0  0
    9.5436   -1.3390   28.0940 H   0  0  0  0  0  0  0  0  0  0  0  0
    8.9027   -2.6313   26.0199 H   0  0  0  0  0  0  0  0  0  0  0  0
  1  2  3  0
  2  3  1  0
  3  4  2  0
  4  5  1  0
  5  6  1  0
  6  7  1  0
  7  8  1  0
  8  9  1  0
  9 10  1  6
 10 11  1  0
  9 12  1  0
 12 13  2  0
 13 14  1  0
 14 15  2  0
 15 16  1  0
 16 17  2  0
 17 18  1  0
 15 19  1  0
 14 20  1  0
 13 21  1  0
  9 22  1  0
 22 23  1  0
 22 24  1  0
  8 25  1  0
  8 26  1  0
  7 27  1  1
  6 28  1  0
  5 29  2  0
 29 30  1  0
 30 31  2  0
 31 32  1  0
 30 33  1  0
 29 34  1  0
 31  3  1  0
 22  7  1  0
 17 12  1  0
M  END
>  <plip>  (1) 
-0.03333333333333333

>  <filename>  (1) 
[H][O][C@]1([c]2[c]([H])[n][c]([H])[c]([H])[c]2[H])[C]([H])([H])[C@]([H])([N]([H])[c]2[n][c]([C]#[N])[c]([H])[c]([H])[c]2[H])[C]1([H])[H]

$$$$
