
     RDKit          3D

 41 43  0  0  0  0  0  0  0  0999 V2000
    9.5441    5.3497   23.0176 C   0  0  0  0  0  0  0  0  0  0  0  0
    9.8474    3.9398   23.1558 N   0  0  0  0  0  0  0  0  0  0  0  0
    8.8761    3.0660   23.5266 N   0  0  0  0  0  0  0  0  0  0  0  0
    9.4721    1.9356   23.8286 C   0  0  0  0  0  0  0  0  0  0  0  0
    8.7045    0.7555   24.2696 C   0  0  0  0  0  0  0  0  0  0  0  0
    8.6114   -0.2172   23.1164 C   0  0  0  0  0  0  0  0  0  0  0  0
    9.3446   -1.1842   23.0249 O   0  0  0  0  0  0  0  0  0  0  0  0
    7.6416    0.0629   22.1981 N   0  0  0  0  0  0  0  0  0  0  0  0
    7.4558   -0.7421   20.9861 C   0  0  0  0  0  0  0  0  0  0  0  0
    6.8774   -2.1659   21.2514 C   0  0  0  0  0  0  0  0  0  0  0  0
    5.5597   -2.2698   21.7502 O   0  0  0  0  0  0  0  0  0  0  0  0
    5.4666   -1.7092   22.5412 H   0  0  0  0  0  0  0  0  0  0  0  0
    6.8440   -2.6718   20.2825 H   0  0  0  0  0  0  0  0  0  0  0  0
    7.6223   -2.6931   21.8670 H   0  0  0  0  0  0  0  0  0  0  0  0
    6.6939    0.0358   19.9327 C   0  0  0  0  0  0  0  0  0  0  0  0
    5.4581    0.6600   20.1655 C   0  0  0  0  0  0  0  0  0  0  0  0
    4.8206    1.3074   19.1051 C   0  0  0  0  0  0  0  0  0  0  0  0
    5.4270    1.2991   17.8458 C   0  0  0  0  0  0  0  0  0  0  0  0
    6.5955    0.6900   17.5937 N   0  0  0  0  0  0  0  0  0  0  0  0
    7.1975    0.0809   18.6232 C   0  0  0  0  0  0  0  0  0  0  0  0
    8.1519   -0.3946   18.3878 H   0  0  0  0  0  0  0  0  0  0  0  0
    4.9425    1.7830   16.9997 H   0  0  0  0  0  0  0  0  0  0  0  0
    3.8792    1.8264   19.2497 H   0  0  0  0  0  0  0  0  0  0  0  0
    5.0018    0.6396   21.1573 H   0  0  0  0  0  0  0  0  0  0  0  0
    8.4488   -0.9742   20.5763 H   0  0  0  0  0  0  0  0  0  0  0  0
    7.2779    1.0060   22.1993 H   0  0  0  0  0  0  0  0  0  0  0  0
    7.7098    1.0587   24.6049 H   0  0  0  0  0  0  0  0  0  0  0  0
    9.2237    0.2366   25.0785 H   0  0  0  0  0  0  0  0  0  0  0  0
   10.8810    2.0310   23.6417 C   0  0  0  0  0  0  0  0  0  0  0  0
   11.9727    1.1467   23.8069 C   0  0  0  0  0  0  0  0  0  0  0  0
   13.2349    1.6104   23.4921 C   0  0  0  0  0  0  0  0  0  0  0  0
   13.4316    2.9367   23.0118 C   0  0  0  0  0  0  0  0  0  0  0  0
   12.3767    3.8213   22.8600 C   0  0  0  0  0  0  0  0  0  0  0  0
   11.0824    3.3548   23.1895 C   0  0  0  0  0  0  0  0  0  0  0  0
   12.5314    4.8327   22.4919 H   0  0  0  0  0  0  0  0  0  0  0  0
   14.4377    3.2509   22.7407 H   0  0  0  0  0  0  0  0  0  0  0  0
   14.0897    0.9490   23.6031 H   0  0  0  0  0  0  0  0  0  0  0  0
   11.8010    0.1287   24.1515 H   0  0  0  0  0  0  0  0  0  0  0  0
    8.4684    5.4700   23.1590 H   0  0  0  0  0  0  0  0  0  0  0  0
    9.8172    5.7138   22.0267 H   0  0  0  0  0  0  0  0  0  0  0  0
   10.0851    5.9418   23.7666 H   0  0  0  0  0  0  0  0  0  0  0  0
  1  2  1  0
  2  3  1  0
  3  4  2  0
  4  5  1  0
  5  6  1  0
  6  7  2  0
  6  8  1  0
  8  9  1  0
  9 10  1  0
 10 11  1  0
 11 12  1  0
 10 13  1  0
 10 14  1  0
  9 15  1  0
 15 16  2  0
 16 17  1  0
 17 18  2  0
 18 19  1  0
 19 20  2  0
 20 21  1  0
 18 22  1  0
 17 23  1  0
 16 24  1  0
  9 25  1  0
  8 26  1  0
  5 27  1  0
  5 28  1  0
  4 29  1  0
 29 30  2  0
 30 31  1  0
 31 32  2  0
 32 33  1  0
 33 34  2  0
 33 35  1  0
 32 36  1  0
 31 37  1  0
 30 38  1  0
  1 39  1  0
  1 40  1  0
  1 41  1  0
 34  2  1  0
 20 15  1  0
 34 29  1  0
M  END
>  <plip>  (1) 
-0.14285714285714285

>  <filename>  (1) 
[H][O][C]([H])([H])[C]([H])([c]1[c]([H])[n][c]([H])[c]([H])[c]1[H])[N]([H])[C](=[O])[C]([H])([H])[c]1[n][n]([C]([H])([H])[H])[c]2[c]([H])[c]([H])[c]([H])[c]([H])[c]12

$$$$
