
     RDKit          3D

 44 47  0  0  0  0  0  0  0  0999 V2000
    4.9104    1.8201   16.9778 H   0  0  0  0  0  0  0  0  0  0  0  0
    5.3808    1.3088   17.8145 C   0  0  0  0  0  0  0  0  0  0  0  0
    6.5390    0.6837   17.5450 N   0  0  0  0  0  0  0  0  0  0  0  0
    7.1458    0.0660   18.5664 C   0  0  0  0  0  0  0  0  0  0  0  0
    8.0909   -0.4283   18.3378 H   0  0  0  0  0  0  0  0  0  0  0  0
    6.6470   -0.0045   19.8851 C   0  0  0  0  0  0  0  0  0  0  0  0
    7.3991   -0.7219   20.9304 C   0  0  0  0  0  0  0  0  0  0  0  0
    8.6882   -0.5758   21.4037 C   0  0  0  0  0  0  0  0  0  0  0  0
    9.7637    0.2739   20.8397 C   0  0  0  0  0  0  0  0  0  0  0  0
   10.5091   -0.4132   20.4250 H   0  0  0  0  0  0  0  0  0  0  0  0
    9.3697    0.8936   20.0311 H   0  0  0  0  0  0  0  0  0  0  0  0
   10.4176    1.1496   21.8888 C   0  0  0  0  0  0  0  0  0  0  0  0
   11.3370    1.5561   21.4486 H   0  0  0  0  0  0  0  0  0  0  0  0
   10.7177    0.5105   22.7404 H   0  0  0  0  0  0  0  0  0  0  0  0
    9.5742    2.2594   22.3015 N   0  0  0  0  0  0  0  0  0  0  0  0
    8.3861    1.9193   23.0927 C   0  0  0  0  0  0  0  0  0  0  0  0
    7.5540    1.6377   22.4348 H   0  0  0  0  0  0  0  0  0  0  0  0
    8.5738    1.0518   23.7459 H   0  0  0  0  0  0  0  0  0  0  0  0
    8.0636    3.1761   23.9257 C   0  0  0  0  0  0  0  0  0  0  0  0
    8.1109    2.9412   24.9945 H   0  0  0  0  0  0  0  0  0  0  0  0
    7.0532    3.5452   23.7234 H   0  0  0  0  0  0  0  0  0  0  0  0
    9.1298    4.2110   23.5309 C   0  0  0  0  0  0  0  0  0  0  0  0
    9.4687    4.8144   24.3806 H   0  0  0  0  0  0  0  0  0  0  0  0
    8.7457    4.9034   22.7754 H   0  0  0  0  0  0  0  0  0  0  0  0
   10.2756    3.3831   22.9380 C   0  0  1  0  0  0  0  0  0  0  0  0
   10.8073    3.9609   22.1690 H   0  0  0  0  0  0  0  0  0  0  0  0
   11.3065    2.9574   23.9924 C   0  0  0  0  0  0  0  0  0  0  0  0
   12.1484    2.4392   23.5221 H   0  0  0  0  0  0  0  0  0  0  0  0
   11.7036    3.8313   24.5150 H   0  0  0  0  0  0  0  0  0  0  0  0
   10.8574    2.2802   24.7294 H   0  0  0  0  0  0  0  0  0  0  0  0
    8.9543   -1.4516   22.4360 N   0  0  0  0  0  0  0  0  0  0  0  0
    7.8547   -2.1451   22.5493 C   0  0  0  0  0  0  0  0  0  0  0  0
    6.8674   -1.7336   21.7032 N   0  0  0  0  0  0  0  0  0  0  0  0
    5.9422   -2.7515   21.2673 C   0  0  0  0  0  0  0  0  0  0  0  0
    5.0170   -2.2383   21.0892 H   0  0  0  0  0  0  0  0  0  0  0  0
    6.2945   -3.1860   20.3278 H   0  0  0  0  0  0  0  0  0  0  0  0
    5.8469   -3.7967   22.3870 C   0  0  0  0  0  0  0  0  0  0  0  0
    5.8114   -4.8170   21.9937 H   0  0  0  0  0  0  0  0  0  0  0  0
    4.9439   -3.6378   22.9803 H   0  0  0  0  0  0  0  0  0  0  0  0
    7.3660   -3.6032   23.4245 S   0  0  0  0  0  0  0  0  0  0  0  0
    5.4209    0.6447   20.1299 C   0  0  0  0  0  0  0  0  0  0  0  0
    4.9882    0.6287   21.1327 H   0  0  0  0  0  0  0  0  0  0  0  0
    4.7870    1.3175   19.0822 C   0  0  0  0  0  0  0  0  0  0  0  0
    3.8561    1.8574   19.2321 H   0  0  0  0  0  0  0  0  0  0  0  0
  1  2  1  0
  2  3  2  0
  3  4  1  0
  4  5  1  0
  4  6  2  0
  6  7  1  0
  7  8  2  0
  8  9  1  0
  9 10  1  0
  9 11  1  0
  9 12  1  0
 12 13  1  0
 12 14  1  0
 12 15  1  0
 15 16  1  0
 16 17  1  0
 16 18  1  0
 16 19  1  0
 19 20  1  0
 19 21  1  0
 19 22  1  0
 22 23  1  0
 22 24  1  0
 22 25  1  0
 25 26  1  6
 25 27  1  0
 27 28  1  0
 27 29  1  0
 27 30  1  0
  8 31  1  0
 31 32  2  0
 32 33  1  0
 33 34  1  0
 34 35  1  0
 34 36  1  0
 34 37  1  0
 37 38  1  0
 37 39  1  0
 37 40  1  0
  6 41  1  0
 41 42  1  0
 41 43  2  0
 43 44  1  0
 43  2  1  0
 33  7  1  0
 25 15  1  0
 40 32  1  0
M  END
>  <plip>  (1) 
-0.07142857142857142

>  <filename>  (1) 
[H][c]1[n][c]([H])[c](-[c]2[c]([C]([H])([H])[C]([H])([H])[N]3[C]([H])([H])[C]([H])([H])[C]([H])([H])[C@@]3([H])[C]([H])([H])[H])[n][c]3[n]2[C]([H])([H])[C]([H])([H])[S]3)[c]([H])[c]1[H]

$$$$
