
     RDKit          3D

 27 28  0  0  0  0  0  0  0  0999 V2000
    9.2696    0.2577   20.5234 H   0  0  0  0  0  0  0  0  0  0  0  0
    8.7149   -0.4509   21.1342 C   0  0  0  0  0  0  0  0  0  0  0  0
    9.2910   -0.9387   21.9233 H   0  0  0  0  0  0  0  0  0  0  0  0
    7.4061   -0.6822   20.9617 C   0  0  0  0  0  0  0  0  0  0  0  0
    6.6558    0.0213   19.8710 C   0  0  0  0  0  0  0  0  0  0  0  0
    7.1672    0.0798   18.5564 C   0  0  0  0  0  0  0  0  0  0  0  0
    8.1104   -0.4112   18.3125 H   0  0  0  0  0  0  0  0  0  0  0  0
    6.5552    0.6937   17.5342 N   0  0  0  0  0  0  0  0  0  0  0  0
    5.3941    1.3143   17.7971 C   0  0  0  0  0  0  0  0  0  0  0  0
    4.9252    1.8281   16.9616 H   0  0  0  0  0  0  0  0  0  0  0  0
    4.7892    1.3245   19.0580 C   0  0  0  0  0  0  0  0  0  0  0  0
    3.8513    1.8519   19.2062 H   0  0  0  0  0  0  0  0  0  0  0  0
    5.4274    0.6605   20.1054 C   0  0  0  0  0  0  0  0  0  0  0  0
    4.9976    0.6653   21.1068 H   0  0  0  0  0  0  0  0  0  0  0  0
    6.6521   -1.6459   21.9006 C   0  0  1  0  0  0  0  0  0  0  0  0
    5.5920   -1.6534   21.5981 H   0  0  0  0  0  0  0  0  0  0  0  0
    7.1772   -3.0223   21.8239 N   0  0  0  0  0  0  0  0  0  0  0  0
    8.1921   -2.9069   21.8536 H   0  0  0  0  0  0  0  0  0  0  0  0
    6.7671   -3.6805   23.0658 C   0  0  0  0  0  0  0  0  0  0  0  0
    5.7738   -4.1314   22.9303 H   0  0  0  0  0  0  0  0  0  0  0  0
    7.4609   -4.4995   23.2877 H   0  0  0  0  0  0  0  0  0  0  0  0
    6.7112   -2.5995   24.1755 C   0  0  0  0  0  0  0  0  0  0  0  0
    7.5575   -2.6906   24.8668 H   0  0  0  0  0  0  0  0  0  0  0  0
    5.7977   -2.6879   24.7765 H   0  0  0  0  0  0  0  0  0  0  0  0
    6.7951   -1.2718   23.3969 C   0  0  0  0  0  0  0  0  0  0  0  0
    7.7844   -0.8307   23.5446 H   0  0  0  0  0  0  0  0  0  0  0  0
    6.0645   -0.5183   23.6920 H   0  0  0  0  0  0  0  0  0  0  0  0
  1  2  1  0
  2  3  1  0
  2  4  2  3
  4  5  1  0
  5  6  2  0
  6  7  1  0
  6  8  1  0
  8  9  2  0
  9 10  1  0
  9 11  1  0
 11 12  1  0
 11 13  2  0
 13 14  1  0
  4 15  1  0
 15 16  1  6
 15 17  1  0
 17 18  1  0
 17 19  1  0
 19 20  1  0
 19 21  1  0
 19 22  1  0
 22 23  1  0
 22 24  1  0
 22 25  1  0
 25 26  1  0
 25 27  1  0
 13  5  1  0
 25 15  1  0
M  END
>  <plip>  (1) 
-0.034482758620689655

>  <filename>  (1) 
[H][C]([H])=[C]([c]1[c]([H])[n][c]([H])[c]([H])[c]1[H])[C@@]1([H])[N]([H])[C]([H])([H])[C]([H])([H])[C]1([H])[H]

$$$$
