
     RDKit          3D

 31 33  0  0  0  0  0  0  0  0999 V2000
   12.6891    5.5278   22.7242 O   0  0  0  0  0  0  0  0  0  0  0  0
   11.7650    4.7616   22.6095 C   0  0  0  0  0  0  0  0  0  0  0  0
   10.3091    4.9402   23.0345 C   0  0  0  0  0  0  0  0  0  0  0  0
    9.6762    3.6373   22.6270 C   0  0  0  0  0  0  0  0  0  0  0  0
    8.3769    3.1773   22.7192 C   0  0  0  0  0  0  0  0  0  0  0  0
    8.0586    1.9035   22.2299 C   0  0  0  0  0  0  0  0  0  0  0  0
    9.0524    1.0938   21.6349 C   0  0  0  0  0  0  0  0  0  0  0  0
    8.7575   -0.1688   21.1722 N   0  0  0  0  0  0  0  0  0  0  0  0
    7.4249   -0.7033   20.9881 C   0  0  0  0  0  0  0  0  0  0  0  0
    6.6393    0.0022   19.9039 C   0  0  0  0  0  0  0  0  0  0  0  0
    5.4226    0.6492   20.1475 C   0  0  0  0  0  0  0  0  0  0  0  0
    4.7918    1.3116   19.0938 C   0  0  0  0  0  0  0  0  0  0  0  0
    5.3942    1.2962   17.8342 C   0  0  0  0  0  0  0  0  0  0  0  0
    6.5587    0.6815   17.5817 N   0  0  0  0  0  0  0  0  0  0  0  0
    7.1629    0.0671   18.6044 C   0  0  0  0  0  0  0  0  0  0  0  0
    8.1130   -0.4157   18.3667 H   0  0  0  0  0  0  0  0  0  0  0  0
    4.9263    1.7915   16.9861 H   0  0  0  0  0  0  0  0  0  0  0  0
    3.8656    1.8499   19.2404 H   0  0  0  0  0  0  0  0  0  0  0  0
    4.9843    0.6435   21.1496 H   0  0  0  0  0  0  0  0  0  0  0  0
    6.8602   -0.6652   21.9332 H   0  0  0  0  0  0  0  0  0  0  0  0
    7.5345   -1.7671   20.7474 H   0  0  0  0  0  0  0  0  0  0  0  0
    9.5529   -0.6859   20.8382 H   0  0  0  0  0  0  0  0  0  0  0  0
   10.3808    1.5581   21.5312 C   0  0  0  0  0  0  0  0  0  0  0  0
   10.6602    2.8184   22.0318 C   0  0  0  0  0  0  0  0  0  0  0  0
   11.8674    3.5090   22.0552 N   0  0  0  0  0  0  0  0  0  0  0  0
   12.7604    3.2227   21.6943 H   0  0  0  0  0  0  0  0  0  0  0  0
   11.1524    0.9326   21.0822 H   0  0  0  0  0  0  0  0  0  0  0  0
    7.0437    1.5314   22.3035 H   0  0  0  0  0  0  0  0  0  0  0  0
    7.6151    3.8086   23.1673 H   0  0  0  0  0  0  0  0  0  0  0  0
   10.2795    5.1312   24.1095 H   0  0  0  0  0  0  0  0  0  0  0  0
    9.9017    5.8157   22.5213 H   0  0  0  0  0  0  0  0  0  0  0  0
  1  2  2  0
  2  3  1  0
  3  4  1  0
  4  5  2  0
  5  6  1  0
  6  7  2  0
  7  8  1  0
  8  9  1  0
  9 10  1  0
 10 11  2  0
 11 12  1  0
 12 13  2  0
 13 14  1  0
 14 15  2  0
 15 16  1  0
 13 17  1  0
 12 18  1  0
 11 19  1  0
  9 20  1  0
  9 21  1  0
  8 22  1  0
  7 23  1  0
 23 24  2  0
 24 25  1  0
 25 26  1  0
 23 27  1  0
  6 28  1  0
  5 29  1  0
  3 30  1  0
  3 31  1  0
 25  2  1  0
 24  4  1  0
 15 10  1  0
M  END
>  <plip>  (1) 
-0.034482758620689655

>  <filename>  (1) 
[H][c]1[n][c]([H])[c]([C]([H])([H])[N]([H])[c]2[c]([H])[c]([H])[c]3[c]([c]2[H])[N]([H])[C](=[O])[C]3([H])[H])[c]([H])[c]1[H]

$$$$
