
     RDKit          3D

 30 31  0  0  0  0  0  0  0  0999 V2000
    7.1274    2.5677   28.8916 H   0  0  0  0  0  0  0  0  0  0  0  0
    6.5060    1.8088   28.4107 C   0  0  0  0  0  0  0  0  0  0  0  0
    6.6865    1.6442   27.0922 N   0  0  0  0  0  0  0  0  0  0  0  0
    6.0222    0.6405   26.4742 C   0  0  0  0  0  0  0  0  0  0  0  0
    6.3851    0.2100   25.0218 C   0  0  0  0  0  0  0  0  0  0  0  0
    6.0748   -0.9127   24.6283 O   0  0  0  0  0  0  0  0  0  0  0  0
    7.0701    1.0659   24.2124 N   0  0  0  0  0  0  0  0  0  0  0  0
    7.1969    2.0220   24.4975 H   0  0  0  0  0  0  0  0  0  0  0  0
    7.3143    0.9619   22.8312 C   0  0  0  0  0  0  0  0  0  0  0  0
    7.6008    1.9876   22.2621 O   0  0  0  0  0  0  0  0  0  0  0  0
    7.2072   -0.3043   22.3150 N   0  0  0  0  0  0  0  0  0  0  0  0
    6.6882   -0.9251   22.9319 H   0  0  0  0  0  0  0  0  0  0  0  0
    7.3750   -0.6240   20.9741 N   0  0  0  0  0  0  0  0  0  0  0  0
    8.0084   -1.3909   20.7664 H   0  0  0  0  0  0  0  0  0  0  0  0
    6.6562    0.0007   19.9544 C   0  0  0  0  0  0  0  0  0  0  0  0
    7.1701    0.0320   18.6321 C   0  0  0  0  0  0  0  0  0  0  0  0
    8.1204   -0.4623   18.4160 H   0  0  0  0  0  0  0  0  0  0  0  0
    6.5799    0.6429   17.5978 N   0  0  0  0  0  0  0  0  0  0  0  0
    5.4179    1.2775   17.8336 C   0  0  0  0  0  0  0  0  0  0  0  0
    4.9662    1.7965   16.9902 H   0  0  0  0  0  0  0  0  0  0  0  0
    4.8027    1.2796   19.0869 C   0  0  0  0  0  0  0  0  0  0  0  0
    3.8720    1.8139   19.2287 H   0  0  0  0  0  0  0  0  0  0  0  0
    5.4120    0.6211   20.1589 C   0  0  0  0  0  0  0  0  0  0  0  0
    4.9534    0.5906   21.1465 H   0  0  0  0  0  0  0  0  0  0  0  0
    5.0296   -0.1064   27.1435 C   0  0  0  0  0  0  0  0  0  0  0  0
    4.4435   -0.8417   26.6061 H   0  0  0  0  0  0  0  0  0  0  0  0
    4.8430    0.0761   28.5128 C   0  0  0  0  0  0  0  0  0  0  0  0
    4.1394   -0.5354   29.0798 H   0  0  0  0  0  0  0  0  0  0  0  0
    5.6180    1.0367   29.1655 C   0  0  0  0  0  0  0  0  0  0  0  0
    5.5773    1.1703   30.2409 H   0  0  0  0  0  0  0  0  0  0  0  0
  1  2  1  0
  2  3  2  0
  3  4  1  0
  4  5  1  0
  5  6  2  0
  5  7  1  0
  7  8  1  0
  7  9  1  0
  9 10  2  0
  9 11  1  0
 11 12  1  0
 11 13  1  0
 13 14  1  0
 13 15  1  0
 15 16  2  0
 16 17  1  0
 16 18  1  0
 18 19  2  0
 19 20  1  0
 19 21  1  0
 21 22  1  0
 21 23  2  0
 23 24  1  0
  4 25  2  0
 25 26  1  0
 25 27  1  0
 27 28  1  0
 27 29  2  0
 29 30  1  0
 29  2  1  0
 23 15  1  0
M  END
>  <plip>  (1) 
-0.03571428571428571

>  <filename>  (1) 
[H][c]1[n][c]([C](=[O])[N]([H])[C](=[O])[N]([H])[N]([H])[c]2[c]([H])[n][c]([H])[c]([H])[c]2[H])[c]([H])[c]([H])[c]1[H]

$$$$
