
     RDKit          3D

 33 35  0  0  0  0  0  0  0  0999 V2000
    6.4582   -3.2522   19.3427 H   0  0  0  0  0  0  0  0  0  0  0  0
    5.6978   -2.7407   19.6545 O   0  0  0  0  0  0  0  0  0  0  0  0
    5.7683   -2.6054   21.0810 C   0  0  2  0  0  0  0  0  0  0  0  0
    4.9987   -1.8686   21.3182 H   0  0  0  0  0  0  0  0  0  0  0  0
    7.0535   -1.9197   21.6047 C   0  0  0  0  0  0  0  0  0  0  0  0
    7.7440   -2.4643   22.6211 N   0  0  0  0  0  0  0  0  0  0  0  0
    8.8643   -1.8629   22.9986 C   0  0  0  0  0  0  0  0  0  0  0  0
    9.4372   -2.3339   23.8006 H   0  0  0  0  0  0  0  0  0  0  0  0
    9.3553   -0.7410   22.4744 N   0  0  0  0  0  0  0  0  0  0  0  0
    8.6453   -0.1819   21.4898 C   0  0  0  0  0  0  0  0  0  0  0  0
    9.0306    0.7499   21.0734 H   0  0  0  0  0  0  0  0  0  0  0  0
    7.4516   -0.7049   20.9867 C   0  0  0  0  0  0  0  0  0  0  0  0
    6.6784    0.0021   19.8873 C   0  0  0  0  0  0  0  0  0  0  0  0
    7.1617    0.0678   18.5625 C   0  0  0  0  0  0  0  0  0  0  0  0
    8.1097   -0.4133   18.3216 H   0  0  0  0  0  0  0  0  0  0  0  0
    6.5431    0.6826   17.5446 N   0  0  0  0  0  0  0  0  0  0  0  0
    5.3844    1.3026   17.8136 C   0  0  0  0  0  0  0  0  0  0  0  0
    4.9161    1.8180   16.9750 H   0  0  0  0  0  0  0  0  0  0  0  0
    4.7957    1.3134   19.0814 C   0  0  0  0  0  0  0  0  0  0  0  0
    3.8615    1.8497   19.2304 H   0  0  0  0  0  0  0  0  0  0  0  0
    5.4495    0.6462   20.1281 C   0  0  0  0  0  0  0  0  0  0  0  0
    5.0276    0.6348   21.1339 H   0  0  0  0  0  0  0  0  0  0  0  0
    5.3989   -3.8894   21.8145 C   0  0  0  0  0  0  0  0  0  0  0  0
    4.4114   -3.8632   22.8091 C   0  0  0  0  0  0  0  0  0  0  0  0
    3.9632   -2.9334   23.1291 H   0  0  0  0  0  0  0  0  0  0  0  0
    4.0149   -5.0173   23.4818 C   0  0  0  0  0  0  0  0  0  0  0  0
    3.1852   -4.9580   24.1815 H   0  0  0  0  0  0  0  0  0  0  0  0
    4.6882   -6.2159   23.2419 C   0  0  0  0  0  0  0  0  0  0  0  0
    4.4276   -7.0967   23.8184 H   0  0  0  0  0  0  0  0  0  0  0  0
    5.7314   -6.2521   22.3117 C   0  0  0  0  0  0  0  0  0  0  0  0
    6.3137   -7.1620   22.1972 H   0  0  0  0  0  0  0  0  0  0  0  0
    6.0728   -5.0991   21.5933 C   0  0  0  0  0  0  0  0  0  0  0  0
    6.9071   -5.1282   20.9000 H   0  0  0  0  0  0  0  0  0  0  0  0
  1  2  1  0
  2  3  1  0
  3  4  1  1
  3  5  1  0
  5  6  2  0
  6  7  1  0
  7  8  1  0
  7  9  2  0
  9 10  1  0
 10 11  1  0
 10 12  2  0
 12 13  1  0
 13 14  2  0
 14 15  1  0
 14 16  1  0
 16 17  2  0
 17 18  1  0
 17 19  1  0
 19 20  1  0
 19 21  2  0
 21 22  1  0
  3 23  1  0
 23 24  2  0
 24 25  1  0
 24 26  1  0
 26 27  1  0
 26 28  2  0
 28 29  1  0
 28 30  1  0
 30 31  1  0
 30 32  2  0
 32 33  1  0
 12  5  1  0
 21 13  1  0
 32 23  1  0
M  END
>  <plip>  (1) 
-0.13333333333333333

>  <filename>  (1) 
[H][O][C@]([H])([c]1[n][c]([H])[n][c]([H])[c]1-[c]1[c]([H])[n][c]([H])[c]([H])[c]1[H])[c]1[c]([H])[c]([H])[c]([H])[c]([H])[c]1[H]

$$$$
