
     RDKit          3D

 49 51  0  0  0  0  0  0  0  0999 V2000
   12.7724    6.3446   26.5586 N   0  0  0  0  0  0  0  0  0  0  0  0
   12.5736    6.1198   25.4416 C   0  0  0  0  0  0  0  0  0  0  0  0
   12.2906    5.8635   24.0275 C   0  0  0  0  0  0  0  0  0  0  0  0
   10.9270    5.2316   23.7916 C   0  0  0  0  0  0  0  0  0  0  0  0
    9.7392    5.8891   24.1593 C   0  0  0  0  0  0  0  0  0  0  0  0
    8.5233    5.2712   23.8619 C   0  0  0  0  0  0  0  0  0  0  0  0
    8.4039    4.0775   23.2616 N   0  0  0  0  0  0  0  0  0  0  0  0
    9.5264    3.4630   22.9318 C   0  0  0  0  0  0  0  0  0  0  0  0
    9.4445    2.2589   22.2643 N   0  0  0  0  0  0  0  0  0  0  0  0
    8.3369    1.4427   22.2341 C   0  0  0  0  0  0  0  0  0  0  0  0
    7.2638    1.6634   22.7315 O   0  0  0  0  0  0  0  0  0  0  0  0
    8.6885    0.2662   21.5648 N   0  0  0  0  0  0  0  0  0  0  0  0
    7.6072   -0.5934   21.0279 C   0  0  0  0  0  0  0  0  0  0  0  0
    6.6960   -1.1530   22.1445 C   0  0  0  0  0  0  0  0  0  0  0  0
    7.3981   -2.0903   23.0736 N   0  0  0  0  0  4  0  0  0  0  0  0
    7.7150   -3.4449   22.4942 C   0  0  0  0  0  0  0  0  0  0  0  0
    7.8769   -4.3766   23.7042 C   0  0  0  0  0  0  0  0  0  0  0  0
    7.3431   -3.5883   24.9174 C   0  0  0  0  0  0  0  0  0  0  0  0
    6.6178   -2.3921   24.3182 C   0  0  0  0  0  0  0  0  0  0  0  0
    6.5731   -1.5139   24.9674 H   0  0  0  0  0  0  0  0  0  0  0  0
    5.5929   -2.6570   24.0262 H   0  0  0  0  0  0  0  0  0  0  0  0
    8.1662   -3.2409   25.5500 H   0  0  0  0  0  0  0  0  0  0  0  0
    6.6759   -4.1801   25.5482 H   0  0  0  0  0  0  0  0  0  0  0  0
    8.9230   -4.6598   23.8475 H   0  0  0  0  0  0  0  0  0  0  0  0
    7.3100   -5.2961   23.5359 H   0  0  0  0  0  0  0  0  0  0  0  0
    6.8644   -3.7551   21.8762 H   0  0  0  0  0  0  0  0  0  0  0  0
    8.6033   -3.3985   21.8605 H   0  0  0  0  0  0  0  0  0  0  0  0
    8.2920   -1.6068   23.3496 H   0  0  0  0  0  0  0  0  0  0  0  0
    5.8395   -1.6631   21.6790 H   0  0  0  0  0  0  0  0  0  0  0  0
    6.3107   -0.3089   22.7217 H   0  0  0  0  0  0  0  0  0  0  0  0
    6.8254    0.1063   19.9214 C   0  0  0  0  0  0  0  0  0  0  0  0
    5.5930    0.7493   20.1254 C   0  0  0  0  0  0  0  0  0  0  0  0
    4.9378    1.3176   19.0315 C   0  0  0  0  0  0  0  0  0  0  0  0
    5.5443    1.2607   17.7753 C   0  0  0  0  0  0  0  0  0  0  0  0
    6.7358    0.6832   17.5596 N   0  0  0  0  0  0  0  0  0  0  0  0
    7.3513    0.1377   18.6159 C   0  0  0  0  0  0  0  0  0  0  0  0
    8.3132   -0.3284   18.3934 H   0  0  0  0  0  0  0  0  0  0  0  0
    5.0564    1.7039   16.9094 H   0  0  0  0  0  0  0  0  0  0  0  0
    3.9728    1.7974   19.1459 H   0  0  0  0  0  0  0  0  0  0  0  0
    5.1534    0.8161   21.1241 H   0  0  0  0  0  0  0  0  0  0  0  0
    8.1137   -1.4628   20.5785 H   0  0  0  0  0  0  0  0  0  0  0  0
    9.2999    0.5658   20.8221 H   0  0  0  0  0  0  0  0  0  0  0  0
   10.2996    1.7407   22.2223 H   0  0  0  0  0  0  0  0  0  0  0  0
   10.8076    3.9853   23.1935 C   0  0  0  0  0  0  0  0  0  0  0  0
   11.6726    3.4042   22.9016 H   0  0  0  0  0  0  0  0  0  0  0  0
    7.5885    5.7613   24.1343 H   0  0  0  0  0  0  0  0  0  0  0  0
    9.7578    6.8529   24.6576 H   0  0  0  0  0  0  0  0  0  0  0  0
   12.3535    6.8264   23.5148 H   0  0  0  0  0  0  0  0  0  0  0  0
   13.0876    5.2377   23.6186 H   0  0  0  0  0  0  0  0  0  0  0  0
  1  2  3  0
  2  3  1  0
  3  4  1  0
  4  5  2  0
  5  6  1  0
  6  7  2  0
  7  8  1  0
  8  9  1  0
  9 10  1  0
 10 11  2  0
 10 12  1  0
 12 13  1  0
 13 14  1  0
 14 15  1  0
 15 16  1  0
 16 17  1  0
 17 18  1  0
 18 19  1  0
 19 20  1  0
 19 21  1  0
 18 22  1  0
 18 23  1  0
 17 24  1  0
 17 25  1  0
 16 26  1  0
 16 27  1  0
 15 28  1  0
 14 29  1  0
 14 30  1  0
 13 31  1  0
 31 32  2  0
 32 33  1  0
 33 34  2  0
 34 35  1  0
 35 36  2  0
 36 37  1  0
 34 38  1  0
 33 39  1  0
 32 40  1  0
 13 41  1  0
 12 42  1  0
  9 43  1  0
  8 44  2  0
 44 45  1  0
  6 46  1  0
  5 47  1  0
  3 48  1  0
  3 49  1  0
 44  4  1  0
 19 15  1  0
 36 31  1  0
M  CHG  1  15   1
M  END
>  <plip>  (1) 
-0.10714285714285714

>  <filename>  (1) 
[H][c]1[n][c]([H])[c]([C]([H])([N]([H])[C](=[O])[N]([H])[c]2[n][c]([H])[c]([H])[c]([C]([H])([H])[C]#[N])[c]2[H])[C]([H])([H])[N+]2([H])[C]([H])([H])[C]([H])([H])[C]([H])([H])[C]2([H])[H])[c]([H])[c]1[H]

$$$$
