
     RDKit          3D

 45 48  0  0  0  0  0  0  0  0999 V2000
   10.1634    0.9590   22.4281 O   0  0  0  0  0  0  0  0  0  0  0  0
    9.2559    0.8775   21.6225 C   0  0  0  0  0  0  0  0  0  0  0  0
    8.6601    1.9973   21.0820 N   0  0  0  0  0  0  0  0  0  0  0  0
    8.3771    3.1345   21.9571 C   0  0  0  0  0  0  0  0  0  0  0  0
    6.9555    3.0345   22.4771 C   0  0  0  0  0  0  0  0  0  0  0  0
    6.6236    2.1833   23.5676 C   0  0  0  0  0  0  0  0  0  0  0  0
    5.3164    2.0438   23.9949 C   0  0  0  0  0  0  0  0  0  0  0  0
    4.2555    2.7336   23.3273 C   0  0  0  0  0  0  0  0  0  0  0  0
    2.8808    2.6815   23.7128 C   0  0  0  0  0  0  0  0  0  0  0  0
    1.9348    3.3021   22.9241 C   0  0  0  0  0  0  0  0  0  0  0  0
    2.3635    4.0144   21.7726 C   0  0  0  0  0  0  0  0  0  0  0  0
    3.6199    4.1411   21.4093 N   0  0  0  0  0  0  0  0  0  0  0  0
    4.5768    3.5343   22.1806 C   0  0  0  0  0  0  0  0  0  0  0  0
    5.9333    3.6919   21.8131 C   0  0  0  0  0  0  0  0  0  0  0  0
    6.1134    4.3063   20.9388 H   0  0  0  0  0  0  0  0  0  0  0  0
    1.6265    4.4991   21.1333 H   0  0  0  0  0  0  0  0  0  0  0  0
    0.8763    3.2588   23.1619 H   0  0  0  0  0  0  0  0  0  0  0  0
    2.5928    2.1321   24.6100 H   0  0  0  0  0  0  0  0  0  0  0  0
    5.0826    1.4100   24.8486 H   0  0  0  0  0  0  0  0  0  0  0  0
    7.4148    1.6250   24.0662 H   0  0  0  0  0  0  0  0  0  0  0  0
    8.4802    4.0657   21.3864 H   0  0  0  0  0  0  0  0  0  0  0  0
    9.1130    3.1584   22.7674 H   0  0  0  0  0  0  0  0  0  0  0  0
    7.8691    1.7348   20.5227 H   0  0  0  0  0  0  0  0  0  0  0  0
    8.7473   -0.3181   21.1265 N   0  0  0  0  0  0  0  0  0  0  0  0
    9.5405   -1.5337   21.3485 C   0  0  0  0  0  0  0  0  0  0  0  0
    8.5215   -2.6544   21.5539 C   0  0  0  0  0  0  0  0  0  0  0  0
    7.1988   -2.0993   21.0188 C   0  0  0  0  0  0  0  0  0  0  0  0
    7.2905   -0.5729   21.1128 C   0  0  0  0  0  0  0  0  0  0  0  0
    6.5589    0.1303   19.9783 C   0  0  0  0  0  0  0  0  0  0  0  0
    5.3348    0.7966   20.1585 C   0  0  0  0  0  0  0  0  0  0  0  0
    4.7422    1.4137   19.0545 C   0  0  0  0  0  0  0  0  0  0  0  0
    5.3707    1.3262   17.8094 C   0  0  0  0  0  0  0  0  0  0  0  0
    6.5193    0.6656   17.6133 N   0  0  0  0  0  0  0  0  0  0  0  0
    7.0930    0.0927   18.6792 C   0  0  0  0  0  0  0  0  0  0  0  0
    8.0394   -0.4165   18.4933 H   0  0  0  0  0  0  0  0  0  0  0  0
    4.9348    1.8036   16.9341 H   0  0  0  0  0  0  0  0  0  0  0  0
    3.8317    1.9929   19.1495 H   0  0  0  0  0  0  0  0  0  0  0  0
    4.8828    0.8927   21.1498 H   0  0  0  0  0  0  0  0  0  0  0  0
    6.8456   -0.2280   22.0618 H   0  0  0  0  0  0  0  0  0  0  0  0
    6.3350   -2.4869   21.5607 H   0  0  0  0  0  0  0  0  0  0  0  0
    7.0622   -2.3655   19.9702 H   0  0  0  0  0  0  0  0  0  0  0  0
    8.4680   -2.8821   22.6239 H   0  0  0  0  0  0  0  0  0  0  0  0
    8.8011   -3.5796   21.0413 H   0  0  0  0  0  0  0  0  0  0  0  0
   10.1951   -1.4213   22.2190 H   0  0  0  0  0  0  0  0  0  0  0  0
   10.2031   -1.7039   20.4996 H   0  0  0  0  0  0  0  0  0  0  0  0
  1  2  2  0
  2  3  1  0
  3  4  1  0
  4  5  1  0
  5  6  2  0
  6  7  1  0
  7  8  2  0
  8  9  1  0
  9 10  2  0
 10 11  1  0
 11 12  2  0
 12 13  1  0
 13 14  2  0
 14 15  1  0
 11 16  1  0
 10 17  1  0
  9 18  1  0
  7 19  1  0
  6 20  1  0
  4 21  1  0
  4 22  1  0
  3 23  1  0
  2 24  1  0
 24 25  1  0
 25 26  1  0
 26 27  1  0
 27 28  1  0
 28 29  1  0
 29 30  2  0
 30 31  1  0
 31 32  2  0
 32 33  1  0
 33 34  2  0
 34 35  1  0
 32 36  1  0
 31 37  1  0
 30 38  1  0
 28 39  1  0
 27 40  1  0
 27 41  1  0
 26 42  1  0
 26 43  1  0
 25 44  1  0
 25 45  1  0
 14  5  1  0
 28 24  1  0
 34 29  1  0
 13  8  1  0
M  END
>  <plip>  (1) 
-0.03571428571428571

>  <filename>  (1) 
[H][c]1[n][c]([H])[c]([C]2([H])[N]([C](=[O])[N]([H])[C]([H])([H])[c]3[c]([H])[c]([H])[c]4[c]([H])[c]([H])[c]([H])[n][c]4[c]3[H])[C]([H])([H])[C]([H])([H])[C]2([H])[H])[c]([H])[c]1[H]

$$$$
