
     RDKit          3D

 24 25  0  0  0  0  0  0  0  0999 V2000
    5.0863    1.8269   16.9655 H   0  0  0  0  0  0  0  0  0  0  0  0
    5.5074    1.2886   17.8123 C   0  0  0  0  0  0  0  0  0  0  0  0
    6.6644    0.6479   17.5895 N   0  0  0  0  0  0  0  0  0  0  0  0
    7.2139   -0.0102   18.6185 C   0  0  0  0  0  0  0  0  0  0  0  0
    8.1466   -0.5285   18.4119 H   0  0  0  0  0  0  0  0  0  0  0  0
    6.6291   -0.0741   19.8901 C   0  0  0  0  0  0  0  0  0  0  0  0
    7.2787   -0.8361   20.9619 C   0  0  0  0  0  0  0  0  0  0  0  0
    6.6776   -1.6263   21.8119 N   0  0  0  0  0  0  0  0  0  0  0  0
    7.6230   -2.1852   22.6341 N   0  0  0  0  0  0  0  0  0  0  0  0
    8.7835   -1.7103   22.2758 C   0  0  0  0  0  0  0  0  0  0  0  0
    9.7408   -1.9754   22.6995 H   0  0  0  0  0  0  0  0  0  0  0  0
    8.6240   -0.8402   21.2414 N   0  0  0  0  0  0  0  0  0  0  0  0
    9.6357   -0.0918   20.6937 O   0  0  0  0  0  0  0  0  0  0  0  0
    9.6103    1.2988   21.0957 C   0  0  0  0  0  0  0  0  0  0  0  0
   10.4840    1.7198   20.5955 H   0  0  0  0  0  0  0  0  0  0  0  0
    8.7029    1.7935   20.7252 H   0  0  0  0  0  0  0  0  0  0  0  0
    9.7036    1.5194   22.6014 C   0  0  0  0  0  0  0  0  0  0  0  0
   10.6193    1.0908   23.0179 H   0  0  0  0  0  0  0  0  0  0  0  0
    8.8361    1.0859   23.1152 H   0  0  0  0  0  0  0  0  0  0  0  0
    9.7050    2.8882   22.8149 F   0  0  0  0  0  0  0  0  0  0  0  0
    5.4125    0.5858   20.1074 C   0  0  0  0  0  0  0  0  0  0  0  0
    4.9359    0.5449   21.0896 H   0  0  0  0  0  0  0  0  0  0  0  0
    4.8476    1.2905   19.0472 C   0  0  0  0  0  0  0  0  0  0  0  0
    3.9261    1.8483   19.1694 H   0  0  0  0  0  0  0  0  0  0  0  0
  1  2  1  0
  2  3  2  0
  3  4  1  0
  4  5  1  0
  4  6  2  0
  6  7  1  0
  7  8  2  0
  8  9  1  0
  9 10  2  0
 10 11  1  0
 10 12  1  0
 12 13  1  0
 13 14  1  0
 14 15  1  0
 14 16  1  0
 14 17  1  0
 17 18  1  0
 17 19  1  0
 17 20  1  0
  6 21  1  0
 21 22  1  0
 21 23  2  0
 23 24  1  0
 23  2  1  0
 12  7  1  0
M  END
>  <plip>  (1) 
-0.07142857142857142

>  <filename>  (1) 
[H][c]1[n][c]([H])[c](-[c]2[n][n][c]([H])[n]2[O][C]([H])([H])[C]([H])([H])[F])[c]([H])[c]1[H]

$$$$
