
     RDKit          3D

 48 50  0  0  0  0  0  0  0  0999 V2000
    5.5806   -2.5741   21.5436 S   0  0  0  0  0  0  0  0  0  0  0  0
    6.8394   -1.5632   21.9020 C   0  0  0  0  0  0  0  0  0  0  0  0
    7.5359   -1.6234   23.0654 N   0  0  0  0  0  0  0  0  0  0  0  0
    7.0360   -2.2095   24.3103 C   0  0  0  0  0  0  0  0  0  0  0  0
    6.0609   -1.2913   25.0716 C   0  0  0  0  0  0  0  0  0  0  0  0
    5.5567   -1.8809   26.3633 N   0  0  0  0  0  4  0  0  0  0  0  0
    4.7357   -0.8856   27.1726 C   0  0  0  0  0  0  0  0  0  0  0  0
    4.4167   -1.4205   28.5851 C   0  0  0  0  0  0  0  0  0  0  0  0
    4.0905   -2.8438   28.5749 N   0  0  0  0  0  0  0  0  0  0  0  0
    4.1787   -3.5857   29.7558 C   0  0  0  0  0  0  0  0  0  0  0  0
    4.7794   -4.8574   29.7500 C   0  0  0  0  0  0  0  0  0  0  0  0
    4.8635   -5.5828   30.9364 C   0  0  0  0  0  0  0  0  0  0  0  0
    5.6257   -7.1499   30.9177 Cl  0  0  0  0  0  0  0  0  0  0  0  0
    4.3460   -5.0858   32.1351 C   0  0  0  0  0  0  0  0  0  0  0  0
    3.7456   -3.8198   32.1394 C   0  0  0  0  0  0  0  0  0  0  0  0
    3.6735   -3.0713   30.9618 C   0  0  0  0  0  0  0  0  0  0  0  0
    3.2191   -2.0863   30.9436 H   0  0  0  0  0  0  0  0  0  0  0  0
    3.3377   -3.4139   33.0647 H   0  0  0  0  0  0  0  0  0  0  0  0
    4.4259   -5.6812   33.0382 H   0  0  0  0  0  0  0  0  0  0  0  0
    5.2027   -5.2506   28.8351 H   0  0  0  0  0  0  0  0  0  0  0  0
    3.6890   -3.4224   27.3029 C   0  0  0  0  0  0  0  0  0  0  0  0
    4.7251   -3.1770   26.1709 C   0  0  0  0  0  0  0  0  0  0  0  0
    4.1950   -3.0915   25.2148 H   0  0  0  0  0  0  0  0  0  0  0  0
    5.4121   -4.0255   26.0991 H   0  0  0  0  0  0  0  0  0  0  0  0
    3.5135   -4.4944   27.4240 H   0  0  0  0  0  0  0  0  0  0  0  0
    2.7280   -2.9808   26.9895 H   0  0  0  0  0  0  0  0  0  0  0  0
    5.2929   -1.2682   29.2347 H   0  0  0  0  0  0  0  0  0  0  0  0
    3.5957   -0.8147   29.0032 H   0  0  0  0  0  0  0  0  0  0  0  0
    3.7991   -0.6982   26.6298 H   0  0  0  0  0  0  0  0  0  0  0  0
    5.2795    0.0605   27.2460 H   0  0  0  0  0  0  0  0  0  0  0  0
    6.3828   -2.1384   26.9568 H   0  0  0  0  0  0  0  0  0  0  0  0
    6.5408   -0.3272   25.2811 H   0  0  0  0  0  0  0  0  0  0  0  0
    5.1970   -1.0653   24.4425 H   0  0  0  0  0  0  0  0  0  0  0  0
    7.8850   -2.4419   24.9680 H   0  0  0  0  0  0  0  0  0  0  0  0
    6.5261   -3.1489   24.0729 H   0  0  0  0  0  0  0  0  0  0  0  0
    8.3860   -1.0879   23.0675 H   0  0  0  0  0  0  0  0  0  0  0  0
    7.3737   -0.6161   21.0456 N   0  0  0  0  0  0  0  0  0  0  0  0
    6.6980    0.0171   19.9488 C   0  0  0  0  0  0  0  0  0  0  0  0
    5.4630    0.6436   20.1774 C   0  0  0  0  0  0  0  0  0  0  0  0
    4.8236    1.2946   19.1163 C   0  0  0  0  0  0  0  0  0  0  0  0
    5.4209    1.2736   17.8529 C   0  0  0  0  0  0  0  0  0  0  0  0
    6.5828    0.6490   17.6044 N   0  0  0  0  0  0  0  0  0  0  0  0
    7.2049    0.0489   18.6280 C   0  0  0  0  0  0  0  0  0  0  0  0
    8.1474   -0.4423   18.3842 H   0  0  0  0  0  0  0  0  0  0  0  0
    4.9550    1.7758   17.0060 H   0  0  0  0  0  0  0  0  0  0  0  0
    3.8863    1.8285   19.2562 H   0  0  0  0  0  0  0  0  0  0  0  0
    5.0282    0.6186   21.1762 H   0  0  0  0  0  0  0  0  0  0  0  0
    8.3813   -0.6145   21.0671 H   0  0  0  0  0  0  0  0  0  0  0  0
  1  2  2  0
  2  3  1  0
  3  4  1  0
  4  5  1  0
  5  6  1  0
  6  7  1  0
  7  8  1  0
  8  9  1  0
  9 10  1  0
 10 11  2  0
 11 12  1  0
 12 13  1  0
 12 14  2  0
 14 15  1  0
 15 16  2  0
 16 17  1  0
 15 18  1  0
 14 19  1  0
 11 20  1  0
  9 21  1  0
 21 22  1  0
 22 23  1  0
 22 24  1  0
 21 25  1  0
 21 26  1  0
  8 27  1  0
  8 28  1  0
  7 29  1  0
  7 30  1  0
  6 31  1  0
  5 32  1  0
  5 33  1  0
  4 34  1  0
  4 35  1  0
  3 36  1  0
  2 37  1  0
 37 38  1  0
 38 39  2  0
 39 40  1  0
 40 41  2  0
 41 42  1  0
 42 43  2  0
 43 44  1  0
 41 45  1  0
 40 46  1  0
 39 47  1  0
 37 48  1  0
 22  6  1  0
 43 38  1  0
 16 10  1  0
M  CHG  1   6   1
M  END
>  <plip>  (1) 
-0.034482758620689655

>  <filename>  (1) 
[H][c]1[n][c]([H])[c]([N]([H])[C](=[S])[N]([H])[C]([H])([H])[C]([H])([H])[N+]2([H])[C]([H])([H])[C]([H])([H])[N]([c]3[c]([H])[c]([H])[c]([H])[c]([Cl])[c]3[H])[C]([H])([H])[C]2([H])[H])[c]([H])[c]1[H]

$$$$
