
     RDKit          3D

 39 40  0  0  0  0  0  0  0  0999 V2000
    8.0987   -2.0399   21.9994 H   0  0  0  0  0  0  0  0  0  0  0  0
    7.6207   -1.8787   22.8291 O   0  0  0  0  0  0  0  0  0  0  0  0
    6.8510   -0.8641   22.2802 C   0  0  1  0  0  0  0  0  0  0  0  0
    5.7921   -1.1513   22.1995 H   0  0  0  0  0  0  0  0  0  0  0  0
    7.0517    0.3342   22.9519 O   0  0  0  0  0  0  0  0  0  0  0  0
    6.2921    0.5101   24.1348 C   0  0  0  0  0  0  0  0  0  0  0  0
    5.2220    0.3392   23.9440 H   0  0  0  0  0  0  0  0  0  0  0  0
    6.6005   -0.1931   24.9204 H   0  0  0  0  0  0  0  0  0  0  0  0
    6.4590    1.9527   24.5973 C   0  0  0  0  0  0  0  0  0  0  0  0
    6.1670    2.6305   23.7873 H   0  0  0  0  0  0  0  0  0  0  0  0
    7.5203    2.1416   24.7963 H   0  0  0  0  0  0  0  0  0  0  0  0
    5.6181    2.2646   25.8353 C   0  0  0  0  0  0  0  0  0  0  0  0
    4.5592    2.0634   25.6032 H   0  0  0  0  0  0  0  0  0  0  0  0
    5.6865    3.3466   26.0789 H   0  0  0  0  0  0  0  0  0  0  0  0
    6.0090    1.4411   26.9694 N   0  0  0  0  0  0  0  0  0  0  0  0
    7.3095    1.7827   27.5519 C   0  0  0  0  0  0  0  0  0  0  0  0
    8.1241    1.3259   26.9772 H   0  0  0  0  0  0  0  0  0  0  0  0
    7.4822    2.8756   27.5392 H   0  0  0  0  0  0  0  0  0  0  0  0
    7.2592    1.2681   29.0078 C   0  0  0  0  0  0  0  0  0  0  0  0
    8.0109    0.4927   29.1824 H   0  0  0  0  0  0  0  0  0  0  0  0
    7.4596    2.0910   29.7032 H   0  0  0  0  0  0  0  0  0  0  0  0
    5.8271    0.7251   29.1830 C   0  0  0  0  0  0  0  0  0  0  0  0
    5.4060    0.9343   30.1710 H   0  0  0  0  0  0  0  0  0  0  0  0
    5.8037   -0.3575   29.0285 H   0  0  0  0  0  0  0  0  0  0  0  0
    5.0478    1.4064   28.0628 C   0  0  0  0  0  0  0  0  0  0  0  0
    4.1477    0.8517   27.7703 H   0  0  0  0  0  0  0  0  0  0  0  0
    4.7264    2.4191   28.3784 H   0  0  0  0  0  0  0  0  0  0  0  0
    7.4748   -0.6628   20.9862 N   0  0  0  0  0  0  0  0  0  0  0  0
    8.1716   -0.0086   21.3320 H   0  0  0  0  0  0  0  0  0  0  0  0
    6.7270   -0.0731   19.9208 C   0  0  0  0  0  0  0  0  0  0  0  0
    7.2102   -0.0974   18.5860 C   0  0  0  0  0  0  0  0  0  0  0  0
    8.1189   -0.6627   18.3873 H   0  0  0  0  0  0  0  0  0  0  0  0
    6.6427    0.5437   17.5549 N   0  0  0  0  0  0  0  0  0  0  0  0
    5.5179    1.2386   17.8050 C   0  0  0  0  0  0  0  0  0  0  0  0
    5.0861    1.7783   16.9662 H   0  0  0  0  0  0  0  0  0  0  0  0
    4.9096    1.2743   19.0663 C   0  0  0  0  0  0  0  0  0  0  0  0
    3.9967    1.8390   19.2067 H   0  0  0  0  0  0  0  0  0  0  0  0
    5.5124    0.5968   20.1378 C   0  0  0  0  0  0  0  0  0  0  0  0
    5.0613    0.5994   21.1268 H   0  0  0  0  0  0  0  0  0  0  0  0
  1  2  1  0
  2  3  1  0
  3  4  1  6
  3  5  1  0
  5  6  1  0
  6  7  1  0
  6  8  1  0
  6  9  1  0
  9 10  1  0
  9 11  1  0
  9 12  1  0
 12 13  1  0
 12 14  1  0
 12 15  1  0
 15 16  1  0
 16 17  1  0
 16 18  1  0
 16 19  1  0
 19 20  1  0
 19 21  1  0
 19 22  1  0
 22 23  1  0
 22 24  1  0
 22 25  1  0
 25 26  1  0
 25 27  1  0
  3 28  1  0
 28 29  1  0
 28 30  1  0
 30 31  2  0
 31 32  1  0
 31 33  1  0
 33 34  2  0
 34 35  1  0
 34 36  1  0
 36 37  1  0
 36 38  2  0
 38 39  1  0
 25 15  1  0
 38 30  1  0
M  END
>  <plip>  (1) 
-0.07142857142857142

>  <filename>  (1) 
[H][O][C@@]([H])([O][C]([H])([H])[C]([H])([H])[C]([H])([H])[N]1[C]([H])([H])[C]([H])([H])[C]([H])([H])[C]1([H])[H])[N]([H])[c]1[c]([H])[n][c]([H])[c]([H])[c]1[H]

$$$$
