
     RDKit          3D

 42 44  0  0  0  0  0  0  0  0999 V2000
    5.2624   -0.6310   25.7573 C   0  0  0  0  0  0  0  0  0  0  0  0
    5.7001   -2.0690   25.8331 C   0  0  0  0  0  0  0  0  0  0  0  0
    5.5783   -2.8085   26.9849 C   0  0  0  0  0  0  0  0  0  0  0  0
    6.0022   -4.1704   27.0183 C   0  0  0  0  0  0  0  0  0  0  0  0
    6.5153   -4.8097   25.9885 N   0  0  0  0  0  0  0  0  0  0  0  0
    6.6648   -4.0971   24.8295 C   0  0  0  0  0  0  0  0  0  0  0  0
    7.2301   -4.7635   23.7026 C   0  0  0  0  0  0  0  0  0  0  0  0
    7.3956   -4.1176   22.4986 C   0  0  0  0  0  0  0  0  0  0  0  0
    7.0205   -2.7421   22.3734 C   0  0  0  0  0  0  0  0  0  0  0  0
    6.9493   -2.0644   21.0315 C   0  0  0  0  0  0  0  0  0  0  0  0
    6.4839   -2.6506   20.0693 O   0  0  0  0  0  0  0  0  0  0  0  0
    7.3242   -0.7068   20.9582 N   0  0  0  0  0  0  0  0  0  0  0  0
    6.6842    0.0358   19.9024 C   0  0  0  0  0  0  0  0  0  0  0  0
    5.4591    0.6638   20.1503 C   0  0  0  0  0  0  0  0  0  0  0  0
    4.8094    1.3178   19.0964 C   0  0  0  0  0  0  0  0  0  0  0  0
    5.4084    1.3020   17.8307 C   0  0  0  0  0  0  0  0  0  0  0  0
    6.5731    0.6879   17.5653 N   0  0  0  0  0  0  0  0  0  0  0  0
    7.1861    0.0706   18.5861 C   0  0  0  0  0  0  0  0  0  0  0  0
    8.1139   -0.4540   18.3549 H   0  0  0  0  0  0  0  0  0  0  0  0
    4.9331    1.8004   16.9893 H   0  0  0  0  0  0  0  0  0  0  0  0
    3.8675    1.8384   19.2456 H   0  0  0  0  0  0  0  0  0  0  0  0
    5.0335    0.6323   21.1563 H   0  0  0  0  0  0  0  0  0  0  0  0
    8.3775   -0.0264   21.7579 C   0  0  0  0  0  0  0  0  0  0  0  0
    9.6458    0.1688   20.9214 C   0  0  0  0  0  0  0  0  0  0  0  0
   10.4588    0.5750   21.5337 H   0  0  0  0  0  0  0  0  0  0  0  0
    9.4692    0.8761   20.1048 H   0  0  0  0  0  0  0  0  0  0  0  0
    9.9911   -0.7748   20.4892 H   0  0  0  0  0  0  0  0  0  0  0  0
    7.8797    1.3110   22.3167 C   0  0  0  0  0  0  0  0  0  0  0  0
    8.6244    1.7647   22.9800 H   0  0  0  0  0  0  0  0  0  0  0  0
    6.9546    1.1890   22.8883 H   0  0  0  0  0  0  0  0  0  0  0  0
    7.6748    2.0246   21.5105 H   0  0  0  0  0  0  0  0  0  0  0  0
    8.6191   -0.6827   22.6031 H   0  0  0  0  0  0  0  0  0  0  0  0
    6.5027   -2.0705   23.4614 C   0  0  0  0  0  0  0  0  0  0  0  0
    6.2865   -2.7245   24.6990 C   0  0  0  0  0  0  0  0  0  0  0  0
    6.1970   -1.0305   23.3675 H   0  0  0  0  0  0  0  0  0  0  0  0
    7.7794   -4.6557   21.6328 H   0  0  0  0  0  0  0  0  0  0  0  0
    7.4795   -5.8084   23.8550 H   0  0  0  0  0  0  0  0  0  0  0  0
    5.9095   -4.7403   27.9427 H   0  0  0  0  0  0  0  0  0  0  0  0
    5.1670   -2.3639   27.8864 H   0  0  0  0  0  0  0  0  0  0  0  0
    6.0935    0.0158   25.4552 H   0  0  0  0  0  0  0  0  0  0  0  0
    4.4593   -0.4797   25.0290 H   0  0  0  0  0  0  0  0  0  0  0  0
    4.8932   -0.2707   26.7204 H   0  0  0  0  0  0  0  0  0  0  0  0
  1  2  1  0
  2  3  2  0
  3  4  1  0
  4  5  2  0
  5  6  1  0
  6  7  2  0
  7  8  1  0
  8  9  2  0
  9 10  1  0
 10 11  2  0
 10 12  1  0
 12 13  1  0
 13 14  2  0
 14 15  1  0
 15 16  2  0
 16 17  1  0
 17 18  2  0
 18 19  1  0
 16 20  1  0
 15 21  1  0
 14 22  1  0
 12 23  1  0
 23 24  1  0
 24 25  1  0
 24 26  1  0
 24 27  1  0
 23 28  1  0
 28 29  1  0
 28 30  1  0
 28 31  1  0
 23 32  1  0
  9 33  1  0
 33 34  2  0
 33 35  1  0
  8 36  1  0
  7 37  1  0
  4 38  1  0
  3 39  1  0
  1 40  1  0
  1 41  1  0
  1 42  1  0
 34  2  1  0
 34  6  1  0
 18 13  1  0
M  END
>  <plip>  (1) 
-0.07142857142857142

>  <filename>  (1) 
[H][c]1[n][c]([H])[c]([N]([C](=[O])[c]2[c]([H])[c]([H])[c]3[n][c]([H])[c]([H])[c]([C]([H])([H])[H])[c]3[c]2[H])[C]([H])([C]([H])([H])[H])[C]([H])([H])[H])[c]([H])[c]1[H]

$$$$
