
     RDKit          3D

 33 35  0  0  0  0  0  0  0  0999 V2000
    6.7501   -1.4746   21.8380 C   0  0  0  0  0  0  0  0  0  0  0  0
    7.3945   -0.6730   20.9845 C   0  0  0  0  0  0  0  0  0  0  0  0
    6.6725    0.0349   19.9018 C   0  0  0  0  0  0  0  0  0  0  0  0
    5.4387    0.6627   20.1432 C   0  0  0  0  0  0  0  0  0  0  0  0
    4.8015    1.3195   19.0923 C   0  0  0  0  0  0  0  0  0  0  0  0
    5.3944    1.3001   17.8242 C   0  0  0  0  0  0  0  0  0  0  0  0
    6.5546    0.6799   17.5648 N   0  0  0  0  0  0  0  0  0  0  0  0
    7.1707    0.0776   18.5868 C   0  0  0  0  0  0  0  0  0  0  0  0
    8.1126   -0.4162   18.3470 H   0  0  0  0  0  0  0  0  0  0  0  0
    4.9216    1.7986   16.9809 H   0  0  0  0  0  0  0  0  0  0  0  0
    3.8680    1.8464   19.2404 H   0  0  0  0  0  0  0  0  0  0  0  0
    5.0167    0.6382   21.1496 H   0  0  0  0  0  0  0  0  0  0  0  0
    8.9121   -0.5700   21.0550 C   0  0  0  0  0  0  0  0  0  0  0  0
    9.4056   -0.6176   22.4597 N   0  0  0  0  0  0  0  0  0  0  0  0
   10.5411   -0.0131   22.8038 C   0  0  0  0  0  0  0  0  0  0  0  0
   11.0062    0.1809   24.0438 N   0  0  0  0  0  4  0  0  0  0  0  0
   12.2919    0.8807   24.0644 C   0  0  0  0  0  0  0  0  0  0  0  0
   12.5307    1.0526   22.5419 C   0  0  0  0  0  0  0  0  0  0  0  0
   11.3650    0.4693   21.8975 O   0  0  0  0  0  0  0  0  0  0  0  0
   12.5843    2.0965   22.2254 H   0  0  0  0  0  0  0  0  0  0  0  0
   13.4093    0.5140   22.1798 H   0  0  0  0  0  0  0  0  0  0  0  0
   13.0798    0.2851   24.5412 H   0  0  0  0  0  0  0  0  0  0  0  0
   12.2481    1.8447   24.5865 H   0  0  0  0  0  0  0  0  0  0  0  0
   10.4455   -0.0663   24.8462 H   0  0  0  0  0  0  0  0  0  0  0  0
    8.6197   -1.3367   23.4918 C   0  0  0  0  0  0  0  0  0  0  0  0
    7.5296   -2.2302   22.8792 C   0  0  0  0  0  0  0  0  0  0  0  0
    6.8700   -2.5940   23.6743 H   0  0  0  0  0  0  0  0  0  0  0  0
    7.9879   -3.1204   22.4214 H   0  0  0  0  0  0  0  0  0  0  0  0
    8.1242   -0.6103   24.1557 H   0  0  0  0  0  0  0  0  0  0  0  0
    9.2872   -1.9590   24.1091 H   0  0  0  0  0  0  0  0  0  0  0  0
    9.3667   -1.3913   20.4795 H   0  0  0  0  0  0  0  0  0  0  0  0
    9.2106    0.3651   20.5733 H   0  0  0  0  0  0  0  0  0  0  0  0
    5.6764   -1.6353   21.7315 H   0  0  0  0  0  0  0  0  0  0  0  0
  1  2  2  0
  2  3  1  0
  3  4  2  0
  4  5  1  0
  5  6  2  0
  6  7  1  0
  7  8  2  0
  8  9  1  0
  6 10  1  0
  5 11  1  0
  4 12  1  0
  2 13  1  0
 13 14  1  0
 14 15  1  0
 15 16  2  0
 16 17  1  0
 17 18  1  0
 18 19  1  0
 18 20  1  0
 18 21  1  0
 17 22  1  0
 17 23  1  0
 16 24  1  0
 14 25  1  0
 25 26  1  0
 26 27  1  0
 26 28  1  0
 25 29  1  0
 25 30  1  0
 13 31  1  0
 13 32  1  0
  1 33  1  0
 26  1  1  0
  8  3  1  0
 19 15  1  0
M  CHG  1  16   1
M  END
>  <plip>  (1) 
-0.03571428571428571

>  <filename>  (1) 
[H][C]1=[C]([c]2[c]([H])[n][c]([H])[c]([H])[c]2[H])[C]([H])([H])[N]([C]2=[N+]([H])[C]([H])([H])[C]([H])([H])[O]2)[C]([H])([H])[C]1([H])[H]

$$$$
