
     RDKit          3D

 31 32  0  0  0  0  0  0  0  0999 V2000
    6.4986   -1.2155   21.7269 O   0  0  0  0  0  0  0  0  0  0  0  0
    7.1707   -0.6851   20.8550 C   0  0  0  0  0  0  0  0  0  0  0  0
    8.6524   -0.7882   20.8544 C   0  0  0  0  0  0  0  0  0  0  0  0
    9.2748   -1.5942   21.7314 C   0  0  0  0  0  0  0  0  0  0  0  0
   10.7103   -1.7722   21.9416 C   0  0  0  0  0  0  0  0  0  0  0  0
   11.2043   -2.5970   22.8772 C   0  0  0  0  0  0  0  0  0  0  0  0
   10.5692   -2.9013   24.1762 C   0  0  0  0  0  0  0  0  0  0  0  0
    9.7371   -1.9643   24.8217 C   0  0  0  0  0  0  0  0  0  0  0  0
    9.1038   -2.2809   26.0269 C   0  0  0  0  0  0  0  0  0  0  0  0
    9.3255   -3.5307   26.6180 C   0  0  0  0  0  0  0  0  0  0  0  0
   10.1701   -4.4623   25.9943 C   0  0  0  0  0  0  0  0  0  0  0  0
   10.8084   -4.1378   24.7929 C   0  0  0  0  0  0  0  0  0  0  0  0
   11.4815   -4.8456   24.3139 H   0  0  0  0  0  0  0  0  0  0  0  0
   10.3097   -5.4481   26.4290 H   0  0  0  0  0  0  0  0  0  0  0  0
    8.8603   -3.7971   27.5631 H   0  0  0  0  0  0  0  0  0  0  0  0
    8.4434   -1.5505   26.4931 H   0  0  0  0  0  0  0  0  0  0  0  0
    9.6284   -0.9792   24.3745 H   0  0  0  0  0  0  0  0  0  0  0  0
   12.1680   -3.0607   22.6792 H   0  0  0  0  0  0  0  0  0  0  0  0
   11.8539   -0.8969   20.9658 Cl  0  0  0  0  0  0  0  0  0  0  0  0
    8.6732   -2.2191   22.3958 H   0  0  0  0  0  0  0  0  0  0  0  0
    9.2157   -0.1613   20.1767 H   0  0  0  0  0  0  0  0  0  0  0  0
    6.5029    0.0815   19.7705 C   0  0  0  0  0  0  0  0  0  0  0  0
    5.2842    0.7401   20.0014 C   0  0  0  0  0  0  0  0  0  0  0  0
    4.7009    1.4271   18.9422 C   0  0  0  0  0  0  0  0  0  0  0  0
    5.3385    1.4068   17.6959 C   0  0  0  0  0  0  0  0  0  0  0  0
    6.4796    0.7443   17.4589 N   0  0  0  0  0  0  0  0  0  0  0  0
    7.0454    0.1035   18.4833 C   0  0  0  0  0  0  0  0  0  0  0  0
    7.9611   -0.4394   18.2442 H   0  0  0  0  0  0  0  0  0  0  0  0
    4.9140    1.9399   16.8493 H   0  0  0  0  0  0  0  0  0  0  0  0
    3.7750    1.9780   19.0658 H   0  0  0  0  0  0  0  0  0  0  0  0
    4.8203    0.7044   20.9899 H   0  0  0  0  0  0  0  0  0  0  0  0
  1  2  2  0
  2  3  1  0
  3  4  2  3
  4  5  1  0
  5  6  2  3
  6  7  1  0
  7  8  2  0
  8  9  1  0
  9 10  2  0
 10 11  1  0
 11 12  2  0
 12 13  1  0
 11 14  1  0
 10 15  1  0
  9 16  1  0
  8 17  1  0
  6 18  1  0
  5 19  1  0
  4 20  1  0
  3 21  1  0
  2 22  1  0
 22 23  2  0
 23 24  1  0
 24 25  2  0
 25 26  1  0
 26 27  2  0
 27 28  1  0
 25 29  1  0
 24 30  1  0
 23 31  1  0
 12  7  1  0
 27 22  1  0
M  END
>  <plip>  (1) 
-0.03571428571428571

>  <filename>  (1) 
[H][C]([C](=[O])[c]1[c]([H])[n][c]([H])[c]([H])[c]1[H])=[C]([H])[C]([Cl])=[C]([H])[c]1[c]([H])[c]([H])[c]([H])[c]([H])[c]1[H]

$$$$
