
     RDKit          3D

 29 30  0  0  0  0  0  0  0  0999 V2000
    4.9148    1.7908   16.9930 H   0  0  0  0  0  0  0  0  0  0  0  0
    5.3923    1.2970   17.8365 C   0  0  0  0  0  0  0  0  0  0  0  0
    6.5543    0.6782   17.5738 N   0  0  0  0  0  0  0  0  0  0  0  0
    7.1579    0.0411   18.5828 C   0  0  0  0  0  0  0  0  0  0  0  0
    8.1206   -0.4236   18.3675 H   0  0  0  0  0  0  0  0  0  0  0  0
    6.6257   -0.0281   19.8837 C   0  0  0  0  0  0  0  0  0  0  0  0
    7.5439   -0.8328   21.2023 S   0  0  0  0  0  0  0  0  0  0  0  0
    8.5401    0.5614   21.6387 C   0  0  0  0  0  0  0  0  0  0  0  0
    9.6931    0.8534   21.0889 N   0  0  0  0  0  0  0  0  0  0  0  0
   10.0331    2.0745   21.5660 N   0  0  0  0  0  0  0  0  0  0  0  0
    9.1478    2.5389   22.3568 N   0  0  0  0  0  0  0  0  0  0  0  0
    8.1729    1.5900   22.4392 N   0  0  0  0  0  0  0  0  0  0  0  0
    6.9397    1.7527   23.1637 C   0  0  0  0  0  0  0  0  0  0  0  0
    6.4574    0.9124   23.9911 N   0  0  0  0  0  0  0  0  0  0  0  0
    7.1271   -0.2189   24.4162 N   0  0  0  0  0  0  0  0  0  0  0  0
    8.0991   -0.4297   24.2351 H   0  0  0  0  0  0  0  0  0  0  0  0
    6.6034   -1.1703   25.2451 C   0  0  0  0  0  0  0  0  0  0  0  0
    7.5395   -2.4684   25.7132 S   0  0  0  0  0  0  0  0  0  0  0  0
    5.3466   -1.0344   25.6607 N   0  0  0  0  0  0  0  0  0  0  0  0
    5.0167   -1.7833   26.2484 H   0  0  0  0  0  0  0  0  0  0  0  0
    4.7925   -0.2546   25.3493 H   0  0  0  0  0  0  0  0  0  0  0  0
    6.1455    2.9983   22.8950 C   0  0  0  0  0  0  0  0  0  0  0  0
    6.4565    3.7946   23.5776 H   0  0  0  0  0  0  0  0  0  0  0  0
    6.2891    3.3553   21.8733 H   0  0  0  0  0  0  0  0  0  0  0  0
    5.0846    2.8016   23.0727 H   0  0  0  0  0  0  0  0  0  0  0  0
    5.4245    0.6372   20.1509 C   0  0  0  0  0  0  0  0  0  0  0  0
    5.0070    0.6286   21.1619 H   0  0  0  0  0  0  0  0  0  0  0  0
    4.7982    1.3131   19.1020 C   0  0  0  0  0  0  0  0  0  0  0  0
    3.8704    1.8497   19.2516 H   0  0  0  0  0  0  0  0  0  0  0  0
  1  2  1  0
  2  3  2  0
  3  4  1  0
  4  5  1  0
  4  6  2  0
  6  7  1  0
  7  8  1  0
  8  9  2  0
  9 10  1  0
 10 11  2  0
 11 12  1  0
 12 13  1  0
 13 14  2  3
 14 15  1  0
 15 16  1  0
 15 17  1  0
 17 18  2  0
 17 19  1  0
 19 20  1  0
 19 21  1  0
 13 22  1  0
 22 23  1  0
 22 24  1  0
 22 25  1  0
  6 26  1  0
 26 27  1  0
 26 28  2  0
 28 29  1  0
 28  2  1  0
 12  8  1  0
M  END
>  <plip>  (1) 
-0.03571428571428571

>  <filename>  (1) 
[H][c]1[n][c]([H])[c]([S][c]2[n][n][n][n]2[C](=[N][N]([H])[C](=[S])[N]([H])[H])[C]([H])([H])[H])[c]([H])[c]1[H]

$$$$
