
     RDKit          3D

 33 34  0  0  0  0  0  0  0  0999 V2000
    8.2586   -2.1110   20.0803 H   0  0  0  0  0  0  0  0  0  0  0  0
    8.5892   -1.3106   20.5124 O   0  0  0  0  0  0  0  0  0  0  0  0
    7.4273   -0.7071   21.0254 C   0  0  2  0  0  0  0  0  0  0  0  0
    6.6464   -0.0207   19.9114 C   0  0  0  0  0  0  0  0  0  0  0  0
    7.1647    0.0502   18.6109 C   0  0  0  0  0  0  0  0  0  0  0  0
    8.1180   -0.4161   18.3807 H   0  0  0  0  0  0  0  0  0  0  0  0
    6.5655    0.6742   17.5866 N   0  0  0  0  0  0  0  0  0  0  0  0
    5.4021    1.2900   17.8374 C   0  0  0  0  0  0  0  0  0  0  0  0
    4.9259    1.7838   16.9935 H   0  0  0  0  0  0  0  0  0  0  0  0
    4.8044    1.3065   19.1016 C   0  0  0  0  0  0  0  0  0  0  0  0
    3.8766    1.8417   19.2525 H   0  0  0  0  0  0  0  0  0  0  0  0
    5.4305    0.6412   20.1540 C   0  0  0  0  0  0  0  0  0  0  0  0
    4.9863    0.6502   21.1528 H   0  0  0  0  0  0  0  0  0  0  0  0
    7.8752    0.3409   22.0488 C   0  0  0  0  0  0  0  0  0  0  0  0
    8.4305    1.1280   21.5353 H   0  0  0  0  0  0  0  0  0  0  0  0
    8.5215   -0.0973   22.8156 H   0  0  0  0  0  0  0  0  0  0  0  0
    7.0156    0.8149   22.5419 H   0  0  0  0  0  0  0  0  0  0  0  0
    6.5400   -1.7864   21.6714 C   0  0  0  0  0  0  0  0  0  0  0  0
    5.7443   -1.2380   22.1412 H   0  0  0  0  0  0  0  0  0  0  0  0
    6.0859   -2.4298   20.9132 H   0  0  0  0  0  0  0  0  0  0  0  0
    7.2377   -2.6358   22.6884 C   0  0  0  0  0  0  0  0  0  0  0  0
    7.8659   -3.7223   22.2241 N   0  0  0  0  0  0  0  0  0  0  0  0
    8.5151   -4.4724   23.1204 C   0  0  0  0  0  0  0  0  0  0  0  0
    9.0222   -5.3422   22.7198 H   0  0  0  0  0  0  0  0  0  0  0  0
    8.5733   -4.1989   24.4834 C   0  0  0  0  0  0  0  0  0  0  0  0
    9.1332   -4.8460   25.1444 H   0  0  0  0  0  0  0  0  0  0  0  0
    7.9040   -3.0820   24.9849 C   0  0  0  0  0  0  0  0  0  0  0  0
    7.9596   -2.7209   26.4452 C   0  0  0  0  0  0  0  0  0  0  0  0
    7.0482   -2.2046   26.7627 H   0  0  0  0  0  0  0  0  0  0  0  0
    8.0852   -3.6088   27.0734 H   0  0  0  0  0  0  0  0  0  0  0  0
    8.8075   -2.0550   26.6452 H   0  0  0  0  0  0  0  0  0  0  0  0
    7.2166   -2.3010   24.0526 C   0  0  0  0  0  0  0  0  0  0  0  0
    6.6907   -1.4127   24.3826 H   0  0  0  0  0  0  0  0  0  0  0  0
  1  2  1  0
  3  2  1  6
  3  4  1  0
  4  5  2  0
  5  6  1  0
  5  7  1  0
  7  8  2  0
  8  9  1  0
  8 10  1  0
 10 11  1  0
 10 12  2  0
 12 13  1  0
  3 14  1  0
 14 15  1  0
 14 16  1  0
 14 17  1  0
  3 18  1  0
 18 19  1  0
 18 20  1  0
 18 21  1  0
 21 22  2  0
 22 23  1  0
 23 24  1  0
 23 25  2  0
 25 26  1  0
 25 27  1  0
 27 28  1  0
 28 29  1  0
 28 30  1  0
 28 31  1  0
 27 32  2  0
 32 33  1  0
 12  4  1  0
 32 21  1  0
M  END
>  <plip>  (1) 
-0.0

>  <filename>  (1) 
[H][O][C@]([c]1[c]([H])[n][c]([H])[c]([H])[c]1[H])([C]([H])([H])[H])[C]([H])([H])[c]1[n][c]([H])[c]([H])[c]([C]([H])([H])[H])[c]1[H]

$$$$
