
     RDKit          3D

 37 38  0  0  0  0  0  0  0  0999 V2000
    8.7374   -6.4815   23.4954 C   0  0  0  0  0  0  0  0  0  0  0  0
    8.6993   -5.0569   23.3394 O   0  0  0  0  0  0  0  0  0  0  0  0
    7.9567   -4.6161   22.3081 C   0  0  0  0  0  0  0  0  0  0  0  0
    7.4908   -5.3452   21.4665 O   0  0  0  0  0  0  0  0  0  0  0  0
    7.8765   -3.0846   22.3355 C   0  0  0  0  0  0  0  0  0  0  0  0
    6.8121   -2.4604   20.9776 S   0  0  0  0  0  0  0  0  0  0  0  0
    7.3824   -0.7268   20.9837 C   0  0  0  0  0  0  0  0  0  0  0  0
    6.6611    0.0241   19.9004 C   0  0  0  0  0  0  0  0  0  0  0  0
    5.4401    0.6633   20.1446 C   0  0  0  0  0  0  0  0  0  0  0  0
    4.7966    1.3191   19.0908 C   0  0  0  0  0  0  0  0  0  0  0  0
    5.3922    1.2986   17.8256 C   0  0  0  0  0  0  0  0  0  0  0  0
    6.5532    0.6799   17.5686 N   0  0  0  0  0  0  0  0  0  0  0  0
    7.1637    0.0629   18.5892 C   0  0  0  0  0  0  0  0  0  0  0  0
    8.1102   -0.4211   18.3486 H   0  0  0  0  0  0  0  0  0  0  0  0
    4.9211    1.7975   16.9801 H   0  0  0  0  0  0  0  0  0  0  0  0
    3.8642    1.8477   19.2391 H   0  0  0  0  0  0  0  0  0  0  0  0
    4.9997    0.6468   21.1409 H   0  0  0  0  0  0  0  0  0  0  0  0
    8.4675   -0.7151   20.8222 H   0  0  0  0  0  0  0  0  0  0  0  0
    7.1812   -0.2815   21.9648 H   0  0  0  0  0  0  0  0  0  0  0  0
    7.5133   -2.4709   23.6923 C   0  0  0  0  0  0  0  0  0  0  0  0
    8.3779   -1.5037   24.2390 C   0  0  0  0  0  0  0  0  0  0  0  0
    8.0980   -0.8857   25.4620 C   0  0  0  0  0  0  0  0  0  0  0  0
    6.9380   -1.2365   26.1555 C   0  0  0  0  0  0  0  0  0  0  0  0
    6.0728   -2.1929   25.6137 C   0  0  0  0  0  0  0  0  0  0  0  0
    6.3355   -2.8237   24.3863 C   0  0  0  0  0  0  0  0  0  0  0  0
    5.3575   -3.8663   23.8827 C   0  0  0  0  0  0  0  0  0  0  0  0
    5.7320   -4.8785   24.0719 H   0  0  0  0  0  0  0  0  0  0  0  0
    4.3985   -3.7728   24.3989 H   0  0  0  0  0  0  0  0  0  0  0  0
    5.1695   -3.7805   22.8086 H   0  0  0  0  0  0  0  0  0  0  0  0
    5.1644   -2.4712   26.1432 H   0  0  0  0  0  0  0  0  0  0  0  0
    6.7070   -0.7737   27.1142 H   0  0  0  0  0  0  0  0  0  0  0  0
    8.7777   -0.1404   25.8705 H   0  0  0  0  0  0  0  0  0  0  0  0
    9.2746   -1.2190   23.6899 H   0  0  0  0  0  0  0  0  0  0  0  0
    8.9087   -2.7912   22.1094 H   0  0  0  0  0  0  0  0  0  0  0  0
    9.2497   -6.6575   24.4439 H   0  0  0  0  0  0  0  0  0  0  0  0
    7.7184   -6.8676   23.4807 H   0  0  0  0  0  0  0  0  0  0  0  0
    9.2735   -6.9467   22.6627 H   0  0  0  0  0  0  0  0  0  0  0  0
  1  2  1  0
  2  3  1  0
  3  4  2  0
  3  5  1  0
  5  6  1  0
  6  7  1  0
  7  8  1  0
  8  9  2  0
  9 10  1  0
 10 11  2  0
 11 12  1  0
 12 13  2  0
 13 14  1  0
 11 15  1  0
 10 16  1  0
  9 17  1  0
  7 18  1  0
  7 19  1  0
  5 20  1  0
 20 21  2  0
 21 22  1  0
 22 23  2  0
 23 24  1  0
 24 25  2  0
 25 26  1  0
 26 27  1  0
 26 28  1  0
 26 29  1  0
 24 30  1  0
 23 31  1  0
 22 32  1  0
 21 33  1  0
  5 34  1  0
  1 35  1  0
  1 36  1  0
  1 37  1  0
 13  8  1  0
 25 20  1  0
M  END
>  <plip>  (1) 
-0.03571428571428571

>  <filename>  (1) 
[H][c]1[n][c]([H])[c]([C]([H])([H])[S][C]([H])([C](=[O])[O][C]([H])([H])[H])[c]2[c]([H])[c]([H])[c]([H])[c]([H])[c]2[C]([H])([H])[H])[c]([H])[c]1[H]

$$$$
