
     RDKit          3D

 41 43  0  0  0  0  0  0  0  0999 V2000
    6.3005   -3.0936   19.9902 O   0  0  0  0  0  0  0  0  0  0  0  0
    6.0519   -2.7847   21.1395 C   0  0  0  0  0  0  0  0  0  0  0  0
    5.2349   -3.7004   22.0318 C   0  0  0  0  0  0  0  0  0  0  0  0
    6.0980   -4.6634   22.8700 C   0  0  0  0  0  0  0  0  0  0  0  0
    6.9773   -3.8483   23.6588 O   0  0  0  0  0  0  0  0  0  0  0  0
    7.4469   -4.3342   24.8528 C   0  0  0  0  0  0  0  0  0  0  0  0
    8.5143   -3.6624   25.4462 C   0  0  0  0  0  0  0  0  0  0  0  0
    8.9895   -4.0948   26.6907 C   0  0  0  0  0  0  0  0  0  0  0  0
    8.3921   -5.1841   27.3361 C   0  0  0  0  0  0  0  0  0  0  0  0
    7.3124   -5.8470   26.7452 C   0  0  0  0  0  0  0  0  0  0  0  0
    6.8362   -5.4281   25.5045 C   0  0  0  0  0  0  0  0  0  0  0  0
    5.7481   -6.0560   24.8863 N   0  0  0  0  0  0  0  0  0  0  0  0
    5.2508   -5.7127   23.6744 C   0  0  0  0  0  0  0  0  0  0  0  0
    4.2693   -6.2752   23.2308 O   0  0  0  0  0  0  0  0  0  0  0  0
    5.1801   -6.7576   25.3363 H   0  0  0  0  0  0  0  0  0  0  0  0
    6.8334   -6.6910   27.2337 H   0  0  0  0  0  0  0  0  0  0  0  0
    8.7656   -5.5263   28.2974 H   0  0  0  0  0  0  0  0  0  0  0  0
    9.8214   -3.5779   27.1592 H   0  0  0  0  0  0  0  0  0  0  0  0
    8.9342   -2.8111   24.9135 H   0  0  0  0  0  0  0  0  0  0  0  0
    6.7131   -5.2889   22.2059 H   0  0  0  0  0  0  0  0  0  0  0  0
    4.5747   -3.1196   22.6856 H   0  0  0  0  0  0  0  0  0  0  0  0
    4.6315   -4.3223   21.3795 H   0  0  0  0  0  0  0  0  0  0  0  0
    6.4802   -1.6347   21.7125 N   0  0  0  0  0  0  0  0  0  0  0  0
    7.3806   -0.7270   21.0128 C   0  0  0  0  0  0  0  0  0  0  0  0
    8.0539    0.2942   21.9574 C   0  0  0  0  0  0  0  0  0  0  0  0
    8.8449   -0.2799   22.9891 O   0  0  0  0  0  0  0  0  0  0  0  0
    9.6269   -0.6868   22.5961 H   0  0  0  0  0  0  0  0  0  0  0  0
    7.2720    0.8855   22.4523 H   0  0  0  0  0  0  0  0  0  0  0  0
    8.6498    0.9876   21.3432 H   0  0  0  0  0  0  0  0  0  0  0  0
    6.6332   -0.0148   19.8950 C   0  0  0  0  0  0  0  0  0  0  0  0
    5.4249    0.6510   20.1377 C   0  0  0  0  0  0  0  0  0  0  0  0
    4.7987    1.3188   19.0866 C   0  0  0  0  0  0  0  0  0  0  0  0
    5.4012    1.3021   17.8234 C   0  0  0  0  0  0  0  0  0  0  0  0
    6.5614    0.6814   17.5692 N   0  0  0  0  0  0  0  0  0  0  0  0
    7.1504    0.0445   18.5941 C   0  0  0  0  0  0  0  0  0  0  0  0
    8.1040   -0.4348   18.3610 H   0  0  0  0  0  0  0  0  0  0  0  0
    4.9303    1.8018   16.9781 H   0  0  0  0  0  0  0  0  0  0  0  0
    3.8690    1.8538   19.2367 H   0  0  0  0  0  0  0  0  0  0  0  0
    4.9853    0.6455   21.1374 H   0  0  0  0  0  0  0  0  0  0  0  0
    8.1834   -1.3286   20.5533 H   0  0  0  0  0  0  0  0  0  0  0  0
    6.2321   -1.4851   22.6779 H   0  0  0  0  0  0  0  0  0  0  0  0
  1  2  2  0
  2  3  1  0
  3  4  1  0
  4  5  1  0
  5  6  1  0
  6  7  2  0
  7  8  1  0
  8  9  2  0
  9 10  1  0
 10 11  2  0
 11 12  1  0
 12 13  1  0
 13 14  2  0
 12 15  1  0
 10 16  1  0
  9 17  1  0
  8 18  1  0
  7 19  1  0
  4 20  1  0
  3 21  1  0
  3 22  1  0
  2 23  1  0
 23 24  1  0
 24 25  1  0
 25 26  1  0
 26 27  1  0
 25 28  1  0
 25 29  1  0
 24 30  1  0
 30 31  2  0
 31 32  1  0
 32 33  2  0
 33 34  1  0
 34 35  2  0
 35 36  1  0
 33 37  1  0
 32 38  1  0
 31 39  1  0
 24 40  1  0
 23 41  1  0
 13  4  1  0
 35 30  1  0
 11  6  1  0
M  END
>  <plip>  (1) 
-0.20689655172413793

>  <filename>  (1) 
[H][O][C]([H])([H])[C]([H])([c]1[c]([H])[n][c]([H])[c]([H])[c]1[H])[N]([H])[C](=[O])[C]([H])([H])[C]1([H])[O][c]2[c]([H])[c]([H])[c]([H])[c]([H])[c]2[N]([H])[C]1=[O]

$$$$
