
     RDKit          3D

 43 45  0  0  0  0  0  0  0  0999 V2000
    4.9803    1.7700   17.0336 H   0  0  0  0  0  0  0  0  0  0  0  0
    5.4356    1.2621   17.8809 C   0  0  0  0  0  0  0  0  0  0  0  0
    6.5961    0.6323   17.6445 N   0  0  0  0  0  0  0  0  0  0  0  0
    7.1904    0.0211   18.6784 C   0  0  0  0  0  0  0  0  0  0  0  0
    8.1377   -0.4758   18.4716 H   0  0  0  0  0  0  0  0  0  0  0  0
    6.6700   -0.0091   19.9925 C   0  0  0  0  0  0  0  0  0  0  0  0
    7.3556   -0.6525   21.0225 N   0  0  0  0  0  0  0  0  0  0  0  0
    6.8226   -0.7115   22.2702 N   0  0  0  0  0  0  0  0  0  0  0  0
    7.6495   -1.3718   23.0312 C   0  0  0  0  0  0  0  0  0  0  0  0
    7.4588   -1.5890   24.3618 N   0  0  0  0  0  0  0  0  0  0  0  0
    8.2165   -2.6262   25.0784 C   0  0  0  0  0  0  0  0  0  0  0  0
    9.2245   -2.7056   24.6589 H   0  0  0  0  0  0  0  0  0  0  0  0
    7.7383   -3.6147   24.9653 H   0  0  0  0  0  0  0  0  0  0  0  0
    8.3344   -2.2554   26.5544 C   0  0  0  0  0  0  0  0  0  0  0  0
    8.8985   -1.3203   26.6425 H   0  0  0  0  0  0  0  0  0  0  0  0
    8.9143   -3.0065   27.0976 H   0  0  0  0  0  0  0  0  0  0  0  0
    6.9519   -2.0534   27.1851 C   0  0  0  0  0  0  0  0  0  0  0  0
    7.0905   -1.6259   28.1897 H   0  0  0  0  0  0  0  0  0  0  0  0
    6.1677   -3.2998   27.2261 N   0  0  0  0  0  0  0  0  0  0  0  0
    6.8243   -4.5001   27.7517 C   0  0  0  0  0  0  0  0  0  0  0  0
    7.6984   -4.7738   27.1495 H   0  0  0  0  0  0  0  0  0  0  0  0
    7.1329   -4.4398   28.8106 H   0  0  0  0  0  0  0  0  0  0  0  0
    6.1194   -5.3380   27.6763 H   0  0  0  0  0  0  0  0  0  0  0  0
    4.8389   -3.1069   27.8002 C   0  0  0  0  0  0  0  0  0  0  0  0
    4.3233   -4.0672   27.8919 H   0  0  0  0  0  0  0  0  0  0  0  0
    4.8374   -2.6380   28.8048 H   0  0  0  0  0  0  0  0  0  0  0  0
    4.2223   -2.4964   27.1316 H   0  0  0  0  0  0  0  0  0  0  0  0
    6.2475   -0.9501   26.3737 C   0  0  0  0  0  0  0  0  0  0  0  0
    6.8526   -0.0382   26.4454 H   0  0  0  0  0  0  0  0  0  0  0  0
    5.2670   -0.6927   26.7874 H   0  0  0  0  0  0  0  0  0  0  0  0
    6.1244   -1.3021   24.8989 C   0  0  0  0  0  0  0  0  0  0  0  0
    5.4466   -2.1565   24.7284 H   0  0  0  0  0  0  0  0  0  0  0  0
    5.7074   -0.4475   24.3596 H   0  0  0  0  0  0  0  0  0  0  0  0
    8.8707   -1.8547   22.3139 C   0  0  0  0  0  0  0  0  0  0  0  0
    9.7832   -1.4792   22.7890 H   0  0  0  0  0  0  0  0  0  0  0  0
    8.8961   -2.9506   22.3223 H   0  0  0  0  0  0  0  0  0  0  0  0
    8.6502   -1.2911   20.9075 C   0  0  0  0  0  0  0  0  0  0  0  0
    8.6096   -2.0819   20.1533 H   0  0  0  0  0  0  0  0  0  0  0  0
    9.4273   -0.5740   20.5920 H   0  0  0  0  0  0  0  0  0  0  0  0
    5.4392    0.6386   20.2165 C   0  0  0  0  0  0  0  0  0  0  0  0
    5.0010    0.6362   21.2141 H   0  0  0  0  0  0  0  0  0  0  0  0
    4.8216    1.2833   19.1411 C   0  0  0  0  0  0  0  0  0  0  0  0
    3.8845    1.8145   19.2701 H   0  0  0  0  0  0  0  0  0  0  0  0
  1  2  1  0
  2  3  2  0
  3  4  1  0
  4  5  1  0
  4  6  2  0
  6  7  1  0
  7  8  1  0
  8  9  2  0
  9 10  1  0
 10 11  1  0
 11 12  1  0
 11 13  1  0
 11 14  1  0
 14 15  1  0
 14 16  1  0
 14 17  1  0
 17 18  1  0
 17 19  1  0
 19 20  1  0
 20 21  1  0
 20 22  1  0
 20 23  1  0
 19 24  1  0
 24 25  1  0
 24 26  1  0
 24 27  1  0
 17 28  1  0
 28 29  1  0
 28 30  1  0
 28 31  1  0
 31 32  1  0
 31 33  1  0
  9 34  1  0
 34 35  1  0
 34 36  1  0
 34 37  1  0
 37 38  1  0
 37 39  1  0
  6 40  1  0
 40 41  1  0
 40 42  2  0
 42 43  1  0
 42  2  1  0
 37  7  1  0
 31 10  1  0
M  END
>  <plip>  (1) 
-0.0

>  <filename>  (1) 
[H][c]1[n][c]([H])[c]([N]2[N]=[C]([N]3[C]([H])([H])[C]([H])([H])[C]([H])([N]([C]([H])([H])[H])[C]([H])([H])[H])[C]([H])([H])[C]3([H])[H])[C]([H])([H])[C]2([H])[H])[c]([H])[c]1[H]

$$$$
