
     RDKit          3D

 49 50  0  0  0  0  0  0  0  0999 V2000
   10.9281    1.2499   23.1476 C   0  0  0  0  0  0  0  0  0  0  0  0
   10.1007    1.9666   22.0938 C   0  0  0  0  0  0  0  0  0  0  0  0
    9.2703    1.0178   21.2287 C   0  0  0  0  0  0  0  0  0  0  0  0
    8.1335    0.2759   21.9394 C   0  0  0  0  0  0  0  0  0  0  0  0
    7.3894   -0.7107   21.0215 C   0  0  0  0  0  0  0  0  0  0  0  0
    6.6416   -0.0253   19.8892 C   0  0  0  0  0  0  0  0  0  0  0  0
    5.4290    0.6445   20.1257 C   0  0  0  0  0  0  0  0  0  0  0  0
    4.7916    1.3141   19.0773 C   0  0  0  0  0  0  0  0  0  0  0  0
    5.3966    1.3057   17.8159 C   0  0  0  0  0  0  0  0  0  0  0  0
    6.5528    0.6801   17.5549 N   0  0  0  0  0  0  0  0  0  0  0  0
    7.1478    0.0409   18.5745 C   0  0  0  0  0  0  0  0  0  0  0  0
    8.0942   -0.4428   18.3249 H   0  0  0  0  0  0  0  0  0  0  0  0
    4.9332    1.8266   16.9791 H   0  0  0  0  0  0  0  0  0  0  0  0
    3.8588    1.8542   19.2226 H   0  0  0  0  0  0  0  0  0  0  0  0
    4.9955    0.6465   21.1274 H   0  0  0  0  0  0  0  0  0  0  0  0
    6.6856   -1.2974   21.6267 H   0  0  0  0  0  0  0  0  0  0  0  0
    8.1039   -1.4337   20.6059 H   0  0  0  0  0  0  0  0  0  0  0  0
    8.5091   -0.2627   22.8187 H   0  0  0  0  0  0  0  0  0  0  0  0
    7.4077    1.0048   22.3255 H   0  0  0  0  0  0  0  0  0  0  0  0
    8.8411    1.6043   20.4110 H   0  0  0  0  0  0  0  0  0  0  0  0
    9.9608    0.2998   20.7697 H   0  0  0  0  0  0  0  0  0  0  0  0
    9.2212    2.9554   22.8179 N   0  0  0  0  0  4  0  0  0  0  0  0
    8.2883    3.7730   21.9977 C   0  0  0  0  0  0  0  0  0  0  0  0
    7.7561    5.0191   22.6926 C   0  0  0  0  0  0  0  0  0  0  0  0
    8.8026    5.9973   23.1559 C   0  0  0  0  0  0  0  0  0  0  0  0
    8.8663    6.5546   24.3705 C   0  0  0  0  0  0  0  0  0  0  0  0
    8.0050    6.1485   25.5084 C   0  0  0  0  0  0  0  0  0  0  0  0
    7.1763    7.0958   26.1315 C   0  0  0  0  0  0  0  0  0  0  0  0
    6.3037    6.7124   27.1545 C   0  0  0  0  0  0  0  0  0  0  0  0
    6.2561    5.3769   27.5711 C   0  0  0  0  0  0  0  0  0  0  0  0
    7.0759    4.4255   26.9593 C   0  0  0  0  0  0  0  0  0  0  0  0
    7.9403    4.8091   25.9292 C   0  0  0  0  0  0  0  0  0  0  0  0
    8.5552    4.0651   25.4258 H   0  0  0  0  0  0  0  0  0  0  0  0
    7.0316    3.3847   27.2621 H   0  0  0  0  0  0  0  0  0  0  0  0
    5.5769    5.0779   28.3659 H   0  0  0  0  0  0  0  0  0  0  0  0
    5.6570    7.4538   27.6170 H   0  0  0  0  0  0  0  0  0  0  0  0
    7.1922    8.1290   25.7873 H   0  0  0  0  0  0  0  0  0  0  0  0
    9.5346    7.3969   24.5488 H   0  0  0  0  0  0  0  0  0  0  0  0
    9.5193    6.3081   22.3933 H   0  0  0  0  0  0  0  0  0  0  0  0
    7.0691    4.7646   23.5056 H   0  0  0  0  0  0  0  0  0  0  0  0
    7.1371    5.5276   21.9415 H   0  0  0  0  0  0  0  0  0  0  0  0
    7.4435    3.1668   21.6647 H   0  0  0  0  0  0  0  0  0  0  0  0
    8.7858    4.0982   21.0804 H   0  0  0  0  0  0  0  0  0  0  0  0
    9.8242    3.6245   23.3511 H   0  0  0  0  0  0  0  0  0  0  0  0
    8.6796    2.3969   23.5154 H   0  0  0  0  0  0  0  0  0  0  0  0
   10.7579    2.5334   21.4185 H   0  0  0  0  0  0  0  0  0  0  0  0
   11.5445    0.4639   22.7043 H   0  0  0  0  0  0  0  0  0  0  0  0
   11.5928    1.9462   23.6653 H   0  0  0  0  0  0  0  0  0  0  0  0
   10.2813    0.7789   23.8958 H   0  0  0  0  0  0  0  0  0  0  0  0
  1  2  1  0
  2  3  1  0
  3  4  1  0
  4  5  1  0
  5  6  1  0
  6  7  2  0
  7  8  1  0
  8  9  2  0
  9 10  1  0
 10 11  2  0
 11 12  1  0
  9 13  1  0
  8 14  1  0
  7 15  1  0
  5 16  1  0
  5 17  1  0
  4 18  1  0
  4 19  1  0
  3 20  1  0
  3 21  1  0
  2 22  1  0
 22 23  1  0
 23 24  1  0
 24 25  1  0
 25 26  2  3
 26 27  1  0
 27 28  2  0
 28 29  1  0
 29 30  2  0
 30 31  1  0
 31 32  2  0
 32 33  1  0
 31 34  1  0
 30 35  1  0
 29 36  1  0
 28 37  1  0
 26 38  1  0
 25 39  1  0
 24 40  1  0
 24 41  1  0
 23 42  1  0
 23 43  1  0
 22 44  1  0
 22 45  1  0
  2 46  1  0
  1 47  1  0
  1 48  1  0
  1 49  1  0
 11  6  1  0
 32 27  1  0
M  CHG  1  22   1
M  END
>  <plip>  (1) 
-0.0

>  <filename>  (1) 
[H][C](=[C]([H])[C]([H])([H])[C]([H])([H])[N+]([H])([H])[C]([H])([C]([H])([H])[H])[C]([H])([H])[C]([H])([H])[C]([H])([H])[c]1[c]([H])[n][c]([H])[c]([H])[c]1[H])[c]1[c]([H])[c]([H])[c]([H])[c]([H])[c]1[H]

$$$$
