
     RDKit          3D

 34 36  0  0  0  0  0  0  0  0999 V2000
    4.9605    1.7914   16.9840 H   0  0  0  0  0  0  0  0  0  0  0  0
    5.4185    1.2852   17.8301 C   0  0  0  0  0  0  0  0  0  0  0  0
    6.5835    0.6600   17.5861 N   0  0  0  0  0  0  0  0  0  0  0  0
    7.1943    0.0511   18.6107 C   0  0  0  0  0  0  0  0  0  0  0  0
    8.1547   -0.4216   18.4203 H   0  0  0  0  0  0  0  0  0  0  0  0
    6.6557   -0.0065   19.9082 C   0  0  0  0  0  0  0  0  0  0  0  0
    7.3592   -0.7200   20.9298 N   0  0  0  0  0  0  0  0  0  0  0  0
    8.7315   -0.6295   20.8976 N   0  0  0  0  0  0  0  0  0  0  0  0
    9.4210   -1.1478   21.8874 C   0  0  0  0  0  0  0  0  0  0  0  0
   10.8940   -0.9499   21.9065 C   0  0  0  0  0  0  0  0  0  0  0  0
   11.7517   -2.0454   22.0537 C   0  0  0  0  0  0  0  0  0  0  0  0
   11.3037   -3.0215   22.2190 H   0  0  0  0  0  0  0  0  0  0  0  0
   13.1356   -1.8812   22.0037 C   0  0  0  0  0  0  0  0  0  0  0  0
   13.7871   -2.7482   21.9823 H   0  0  0  0  0  0  0  0  0  0  0  0
   13.6725   -0.5921   22.0365 C   0  0  0  0  0  0  0  0  0  0  0  0
   14.7460   -0.4445   22.0855 H   0  0  0  0  0  0  0  0  0  0  0  0
   12.8328    0.5243   22.0372 C   0  0  0  0  0  0  0  0  0  0  0  0
   13.2516    1.5251   22.1194 H   0  0  0  0  0  0  0  0  0  0  0  0
   11.4512    0.3438   21.8681 C   0  0  0  0  0  0  0  0  0  0  0  0
   10.5619    1.3475   21.7461 O   0  0  0  0  0  0  0  0  0  0  0  0
   11.0101    2.6647   21.5399 C   0  0  0  0  0  0  0  0  0  0  0  0
   11.4841    2.7860   20.5553 H   0  0  0  0  0  0  0  0  0  0  0  0
   10.1011    3.2554   21.6058 H   0  0  0  0  0  0  0  0  0  0  0  0
   11.7050    2.9837   22.3249 H   0  0  0  0  0  0  0  0  0  0  0  0
    8.7991   -1.9969   22.9611 C   0  0  0  0  0  0  0  0  0  0  0  0
    9.4245   -2.5619   23.8527 O   0  0  0  0  0  0  0  0  0  0  0  0
    7.3493   -2.1213   22.8546 C   0  0  0  0  0  0  0  0  0  0  0  0
    6.8514   -2.7321   23.5978 H   0  0  0  0  0  0  0  0  0  0  0  0
    6.6975   -1.4792   21.8707 C   0  0  0  0  0  0  0  0  0  0  0  0
    5.6195   -1.5443   21.7248 H   0  0  0  0  0  0  0  0  0  0  0  0
    5.4360    0.6491   20.1548 C   0  0  0  0  0  0  0  0  0  0  0  0
    5.0240    0.6718   21.1631 H   0  0  0  0  0  0  0  0  0  0  0  0
    4.8121    1.3079   19.0902 C   0  0  0  0  0  0  0  0  0  0  0  0
    3.8770    1.8413   19.2275 H   0  0  0  0  0  0  0  0  0  0  0  0
  1  2  1  0
  2  3  2  0
  3  4  1  0
  4  5  1  0
  4  6  2  0
  6  7  1  0
  7  8  1  0
  8  9  2  0
  9 10  1  0
 10 11  2  0
 11 12  1  0
 11 13  1  0
 13 14  1  0
 13 15  2  0
 15 16  1  0
 15 17  1  0
 17 18  1  0
 17 19  2  0
 19 20  1  0
 20 21  1  0
 21 22  1  0
 21 23  1  0
 21 24  1  0
  9 25  1  0
 25 26  2  0
 25 27  1  0
 27 28  1  0
 27 29  2  0
 29 30  1  0
  6 31  1  0
 31 32  1  0
 31 33  2  0
 33 34  1  0
 33  2  1  0
 29  7  1  0
 19 10  1  0
M  END
>  <plip>  (1) 
-0.17857142857142858

>  <filename>  (1) 
[H][c]1[n][c]([H])[c](-[n]2[n][c](-[c]3[c]([H])[c]([H])[c]([H])[c]([H])[c]3[O][C]([H])([H])[H])[c](=[O])[c]([H])[c]2[H])[c]([H])[c]1[H]

$$$$
