
     RDKit          3D

 31 32  0  0  0  0  0  0  0  0999 V2000
    9.6074   -0.6114   25.1034 C   0  0  0  0  0  0  0  0  0  0  0  0
    9.6237   -0.1842   23.7424 O   0  0  0  0  0  0  0  0  0  0  0  0
   10.5581    0.7117   23.3492 C   0  0  0  0  0  0  0  0  0  0  0  0
   11.5869    0.9315   24.1560 N   0  0  0  0  0  0  0  0  0  0  0  0
   12.4924    1.8521   23.7962 C   0  0  0  0  0  0  0  0  0  0  0  0
   12.3931    2.5952   22.6288 C   0  0  0  0  0  0  0  0  0  0  0  0
   11.3159    2.3532   21.7622 C   0  0  0  0  0  0  0  0  0  0  0  0
   10.3634    1.3774   22.0995 C   0  0  0  0  0  0  0  0  0  0  0  0
    9.2279    1.1406   21.2942 N   0  0  0  0  0  0  0  0  0  0  0  0
    8.9031   -0.2481   21.0408 N   0  0  0  0  0  0  0  0  0  0  0  0
    7.3305   -0.9259   21.2479 S   0  0  0  0  0  0  0  0  0  0  0  0
    7.5474   -2.3080   20.8919 O   0  0  0  0  0  0  0  0  0  0  0  0
    6.7730   -0.5600   22.5265 O   0  0  0  0  0  0  0  0  0  0  0  0
    6.4987   -0.0704   20.0030 C   0  0  0  0  0  0  0  0  0  0  0  0
    5.3210    0.6551   20.1987 C   0  0  0  0  0  0  0  0  0  0  0  0
    4.8226    1.3131   19.0786 C   0  0  0  0  0  0  0  0  0  0  0  0
    5.5156    1.2322   17.8677 C   0  0  0  0  0  0  0  0  0  0  0  0
    6.6437    0.5239   17.7145 N   0  0  0  0  0  0  0  0  0  0  0  0
    7.1357   -0.1179   18.7697 C   0  0  0  0  0  0  0  0  0  0  0  0
    8.0714   -0.6575   18.6010 H   0  0  0  0  0  0  0  0  0  0  0  0
    5.1435    1.7452   16.9813 H   0  0  0  0  0  0  0  0  0  0  0  0
    3.9229    1.9100   19.1301 H   0  0  0  0  0  0  0  0  0  0  0  0
    4.8284    0.7294   21.1724 H   0  0  0  0  0  0  0  0  0  0  0  0
    9.3278   -0.8677   21.7282 H   0  0  0  0  0  0  0  0  0  0  0  0
    9.2936    1.6760   20.4248 H   0  0  0  0  0  0  0  0  0  0  0  0
   11.2289    2.9268   20.8319 H   0  0  0  0  0  0  0  0  0  0  0  0
   13.1518    3.3424   22.4120 H   0  0  0  0  0  0  0  0  0  0  0  0
   13.3169    1.9902   24.4879 H   0  0  0  0  0  0  0  0  0  0  0  0
    9.4344    0.2282   25.7850 H   0  0  0  0  0  0  0  0  0  0  0  0
   10.5593   -1.0750   25.3652 H   0  0  0  0  0  0  0  0  0  0  0  0
    8.7832   -1.3175   25.1579 H   0  0  0  0  0  0  0  0  0  0  0  0
  1  2  1  0
  2  3  1  0
  3  4  2  0
  4  5  1  0
  5  6  2  0
  6  7  1  0
  7  8  2  0
  8  9  1  0
  9 10  1  0
 10 11  1  0
 11 12  2  0
 11 13  2  0
 11 14  1  0
 14 15  2  0
 15 16  1  0
 16 17  2  0
 17 18  1  0
 18 19  2  0
 19 20  1  0
 17 21  1  0
 16 22  1  0
 15 23  1  0
 10 24  1  0
  9 25  1  0
  7 26  1  0
  6 27  1  0
  5 28  1  0
  1 29  1  0
  1 30  1  0
  1 31  1  0
  8  3  1  0
 19 14  1  0
M  END
>  <plip>  (1) 
-0.13793103448275862

>  <filename>  (1) 
[H][c]1[n][c]([O][C]([H])([H])[H])[c]([N]([H])[N]([H])[S](=[O])(=[O])[c]2[c]([H])[n][c]([H])[c]([H])[c]2[H])[c]([H])[c]1[H]

$$$$
