
     RDKit          3D

 37 39  0  0  0  0  0  0  0  0999 V2000
    4.9207    1.8038   16.9713 H   0  0  0  0  0  0  0  0  0  0  0  0
    5.3871    1.3033   17.8178 C   0  0  0  0  0  0  0  0  0  0  0  0
    6.5514    0.6846   17.5596 N   0  0  0  0  0  0  0  0  0  0  0  0
    7.1569    0.0686   18.5799 C   0  0  0  0  0  0  0  0  0  0  0  0
    8.1024   -0.4184   18.3423 H   0  0  0  0  0  0  0  0  0  0  0  0
    6.6597    0.0066   19.8950 C   0  0  0  0  0  0  0  0  0  0  0  0
    7.4030   -0.6982   20.9538 C   0  0  0  0  0  0  0  0  0  0  0  0
    8.7938   -1.0223   21.0083 C   0  0  0  0  0  0  0  0  0  0  0  0
    9.5233   -0.7493   20.2574 H   0  0  0  0  0  0  0  0  0  0  0  0
    9.0338   -1.6542   22.2014 C   0  0  0  0  0  0  0  0  0  0  0  0
    9.9421   -2.0799   22.6162 H   0  0  0  0  0  0  0  0  0  0  0  0
    7.8475   -1.7342   22.9004 N   0  0  0  0  0  0  0  0  0  0  0  0
    7.6191   -2.4483   24.1486 C   0  0  0  0  0  0  0  0  0  0  0  0
    6.7945   -1.9500   24.6756 H   0  0  0  0  0  0  0  0  0  0  0  0
    8.5331   -2.3429   24.7464 H   0  0  0  0  0  0  0  0  0  0  0  0
    7.2965   -3.8609   24.0298 N   0  0  0  0  0  0  0  0  0  0  0  0
    6.0053   -4.1158   23.3743 C   0  0  0  0  0  0  0  0  0  0  0  0
    5.2264   -3.5029   23.8528 H   0  0  0  0  0  0  0  0  0  0  0  0
    6.0381   -3.8229   22.3050 H   0  0  0  0  0  0  0  0  0  0  0  0
    5.6285   -5.5983   23.4721 C   0  0  0  0  0  0  0  0  0  0  0  0
    4.6749   -5.7624   22.9551 H   0  0  0  0  0  0  0  0  0  0  0  0
    5.4681   -5.8535   24.5305 H   0  0  0  0  0  0  0  0  0  0  0  0
    6.7326   -6.4830   22.8652 C   0  0  0  0  0  0  0  0  0  0  0  0
    6.4586   -7.5433   22.9416 H   0  0  0  0  0  0  0  0  0  0  0  0
    6.8081   -6.2992   21.7800 H   0  0  0  0  0  0  0  0  0  0  0  0
    8.0879   -6.1455   23.5288 C   0  0  0  0  0  0  0  0  0  0  0  0
    8.0920   -6.4067   24.5980 H   0  0  0  0  0  0  0  0  0  0  0  0
    8.9053   -6.7074   23.0612 H   0  0  0  0  0  0  0  0  0  0  0  0
    8.3833   -4.6432   23.4255 C   0  0  0  0  0  0  0  0  0  0  0  0
    9.3232   -4.4097   23.9492 H   0  0  0  0  0  0  0  0  0  0  0  0
    8.5295   -4.3639   22.3633 H   0  0  0  0  0  0  0  0  0  0  0  0
    6.8726   -1.1652   22.1266 C   0  0  0  0  0  0  0  0  0  0  0  0
    5.8485   -1.1988   22.4361 H   0  0  0  0  0  0  0  0  0  0  0  0
    5.4344    0.6572   20.1381 C   0  0  0  0  0  0  0  0  0  0  0  0
    5.0011    0.6641   21.1401 H   0  0  0  0  0  0  0  0  0  0  0  0
    4.7985    1.3156   19.0865 C   0  0  0  0  0  0  0  0  0  0  0  0
    3.8672    1.8481   19.2349 H   0  0  0  0  0  0  0  0  0  0  0  0
  1  2  1  0
  2  3  2  0
  3  4  1  0
  4  5  1  0
  4  6  2  0
  6  7  1  0
  7  8  1  0
  8  9  1  0
  8 10  2  0
 10 11  1  0
 10 12  1  0
 12 13  1  0
 13 14  1  0
 13 15  1  0
 13 16  1  0
 16 17  1  0
 17 18  1  0
 17 19  1  0
 17 20  1  0
 20 21  1  0
 20 22  1  0
 20 23  1  0
 23 24  1  0
 23 25  1  0
 23 26  1  0
 26 27  1  0
 26 28  1  0
 26 29  1  0
 29 30  1  0
 29 31  1  0
 12 32  1  0
 32 33  1  0
  6 34  1  0
 34 35  1  0
 34 36  2  0
 36 37  1  0
 36  2  1  0
 32  7  2  0
 29 16  1  0
M  END
>  <plip>  (1) 
-0.07142857142857142

>  <filename>  (1) 
[H][c]1[n][c]([H])[c](-[c]2[c]([H])[c]([H])[n]([C]([H])([H])[N]3[C]([H])([H])[C]([H])([H])[C]([H])([H])[C]([H])([H])[C]3([H])[H])[c]2[H])[c]([H])[c]1[H]

$$$$
