
     RDKit          3D

 31 33  0  0  0  0  0  0  0  0999 V2000
    5.2877    1.5452   16.9599 H   0  0  0  0  0  0  0  0  0  0  0  0
    5.6550    0.9763   17.8123 C   0  0  0  0  0  0  0  0  0  0  0  0
    6.8126    0.3177   17.6400 N   0  0  0  0  0  0  0  0  0  0  0  0
    7.3007   -0.3835   18.6724 C   0  0  0  0  0  0  0  0  0  0  0  0
    8.2242   -0.9327   18.4835 H   0  0  0  0  0  0  0  0  0  0  0  0
    6.6845   -0.4322   19.9368 C   0  0  0  0  0  0  0  0  0  0  0  0
    7.2829   -1.1104   21.0444 N   0  0  0  0  0  0  0  0  0  0  0  0
    6.6560   -2.1198   21.7526 C   0  0  0  0  0  0  0  0  0  0  0  0
    5.6643   -2.4321   21.4612 H   0  0  0  0  0  0  0  0  0  0  0  0
    7.4851   -2.5389   22.7584 C   0  0  0  0  0  0  0  0  0  0  0  0
    7.2834   -3.3191   23.4798 H   0  0  0  0  0  0  0  0  0  0  0  0
    8.6641   -1.7453   22.6825 C   0  0  0  0  0  0  0  0  0  0  0  0
    9.5359   -1.7794   23.3258 H   0  0  0  0  0  0  0  0  0  0  0  0
    8.5208   -0.8730   21.6368 C   0  0  0  0  0  0  0  0  0  0  0  0
    9.4429    0.2434   21.2355 C   0  0  0  0  0  0  0  0  0  0  0  0
   10.4135    0.0427   21.7188 H   0  0  0  0  0  0  0  0  0  0  0  0
    9.6302    0.1937   20.1491 H   0  0  0  0  0  0  0  0  0  0  0  0
    8.8377    1.6541   21.6316 C   0  0  0  0  0  0  0  0  0  0  0  0
    9.0322    2.1746   22.8326 N   0  0  0  0  0  0  0  0  0  0  0  0
    7.9285    4.1489   22.3212 C   0  0  0  0  0  0  0  0  0  0  0  0
    8.4401    3.0399   23.0918 H   0  0  0  0  0  0  0  0  0  0  0  0
    9.0903    4.7065   22.5460 H   0  0  0  0  0  0  0  0  0  0  0  0
    7.8627    4.2392   22.5530 C   0  0  0  0  0  0  0  0  0  0  0  0
    6.7071    3.6633   22.2783 H   0  0  0  0  0  0  0  0  0  0  0  0
    7.4495    5.2879   21.8318 H   0  0  0  0  0  0  0  0  0  0  0  0
    8.0938    2.3329   20.7770 N   0  0  0  0  0  0  0  0  0  0  0  0
    8.0116    1.8046   19.9146 H   0  0  0  0  0  0  0  0  0  0  0  0
    5.4441    0.2098   20.0855 C   0  0  0  0  0  0  0  0  0  0  0  0
    4.9214    0.1623   21.0414 H   0  0  0  0  0  0  0  0  0  0  0  0
    4.9324    0.9367   19.0081 C   0  0  0  0  0  0  0  0  0  0  0  0
    3.9966    1.4800   19.0901 H   0  0  0  0  0  0  0  0  0  0  0  0
  1  2  1  0
  2  3  2  0
  3  4  1  0
  4  5  1  0
  4  6  2  0
  6  7  1  0
  7  8  1  0
  8  9  1  0
  8 10  2  0
 10 11  1  0
 10 12  1  0
 12 13  1  0
 12 14  2  0
 14 15  1  0
 15 16  1  0
 15 17  1  0
 15 18  1  0
 18 19  2  0
 19 20  1  0
 20 21  1  0
 20 22  1  0
 20 23  1  0
 23 24  1  0
 23 25  1  0
 23 26  1  0
 26 27  1  0
  6 28  1  0
 28 29  1  0
 28 30  2  0
 30 31  1  0
 30  2  1  0
 14  7  1  0
 26 18  1  0
M  END
>  <plip>  (1) 
-0.03571428571428571

>  <filename>  (1) 
[H][c]1[n][c]([H])[c](-[n]2[c]([H])[c]([H])[c]([H])[c]2[C]([H])([H])[C]2=[N][C]([H])([H])[C]([H])([H])[N]2[H])[c]([H])[c]1[H]

$$$$
