
     RDKit          3D

 30 32  0  0  0  0  0  0  0  0999 V2000
    4.9223    1.7794   16.9496 H   0  0  0  0  0  0  0  0  0  0  0  0
    5.3977    1.3283   17.8239 C   0  0  0  0  0  0  0  0  0  0  0  0
    6.5756    0.7161   17.6164 N   0  0  0  0  0  0  0  0  0  0  0  0
    7.1571    0.1269   18.6700 C   0  0  0  0  0  0  0  0  0  0  0  0
    8.1125   -0.3620   18.4829 H   0  0  0  0  0  0  0  0  0  0  0  0
    6.6346    0.1226   19.9801 C   0  0  0  0  0  0  0  0  0  0  0  0
    7.3416   -0.5887   21.0707 C   0  0  0  0  0  0  0  0  0  0  0  0
    7.6904   -0.0599   22.2954 C   0  0  0  0  0  0  0  0  0  0  0  0
    7.2847    1.1502   22.8016 N   0  0  0  0  0  0  0  0  0  0  0  0
    7.0487    1.8662   22.1266 H   0  0  0  0  0  0  0  0  0  0  0  0
    7.0162    1.4707   24.1458 C   0  0  0  0  0  0  0  0  0  0  0  0
    7.3535    2.7577   24.5767 C   0  0  0  0  0  0  0  0  0  0  0  0
    7.7929    3.4348   23.8513 H   0  0  0  0  0  0  0  0  0  0  0  0
    7.1543    3.1404   25.9055 C   0  0  0  0  0  0  0  0  0  0  0  0
    7.4313    4.1262   26.2596 H   0  0  0  0  0  0  0  0  0  0  0  0
    6.5930    2.2238   26.7900 C   0  0  0  0  0  0  0  0  0  0  0  0
    6.4194    2.5785   28.0753 F   0  0  0  0  0  0  0  0  0  0  0  0
    6.2081    0.9510   26.3746 C   0  0  0  0  0  0  0  0  0  0  0  0
    5.7725    0.2737   27.1001 H   0  0  0  0  0  0  0  0  0  0  0  0
    6.4107    0.5740   25.0393 C   0  0  0  0  0  0  0  0  0  0  0  0
    6.0967   -0.4051   24.6814 H   0  0  0  0  0  0  0  0  0  0  0  0
    8.6734   -1.1679   23.2174 S   0  0  0  0  0  0  0  0  0  0  0  0
    8.4777   -2.3957   22.0123 C   0  0  0  0  0  0  0  0  0  0  0  0
    8.9391   -3.3619   22.1395 H   0  0  0  0  0  0  0  0  0  0  0  0
    7.7309   -1.9576   20.9665 C   0  0  0  0  0  0  0  0  0  0  0  0
    7.3559   -2.5697   20.1601 H   0  0  0  0  0  0  0  0  0  0  0  0
    5.4092    0.7774   20.1726 C   0  0  0  0  0  0  0  0  0  0  0  0
    4.9547    0.7850   21.1644 H   0  0  0  0  0  0  0  0  0  0  0  0
    4.7771    1.3757   19.0772 C   0  0  0  0  0  0  0  0  0  0  0  0
    3.8121    1.8578   19.1755 H   0  0  0  0  0  0  0  0  0  0  0  0
  1  2  1  0
  2  3  2  0
  3  4  1  0
  4  5  1  0
  4  6  2  0
  6  7  1  0
  7  8  2  0
  8  9  1  0
  9 10  1  0
  9 11  1  0
 11 12  2  0
 12 13  1  0
 12 14  1  0
 14 15  1  0
 14 16  2  0
 16 17  1  0
 16 18  1  0
 18 19  1  0
 18 20  2  0
 20 21  1  0
  8 22  1  0
 22 23  1  0
 23 24  1  0
 23 25  2  0
 25 26  1  0
  6 27  1  0
 27 28  1  0
 27 29  2  0
 29 30  1  0
 29  2  1  0
 25  7  1  0
 20 11  1  0
M  END
>  <plip>  (1) 
-0.03571428571428571

>  <filename>  (1) 
[H][c]1[n][c]([H])[c](-[c]2[c]([N]([H])[c]3[c]([H])[c]([H])[c]([F])[c]([H])[c]3[H])[s][c]([H])[c]2[H])[c]([H])[c]1[H]

$$$$
