
     RDKit          3D

 35 37  0  0  0  0  0  0  0  0999 V2000
    7.7511   -1.9595   20.5906 O   0  0  0  0  0  0  0  0  0  0  0  0
    7.1400   -0.7288   20.9338 C   0  0  0  0  0  0  0  0  0  0  0  0
    8.2761    0.2430   21.3003 C   0  0  0  0  0  0  0  0  0  0  0  0
    9.1192   -0.1626   22.4720 N   0  0  0  0  0  4  0  0  0  0  0  0
    8.4451    0.2033   23.8141 C   0  0  0  0  0  0  0  0  0  0  0  0
    9.2251   -0.4775   24.9342 C   0  0  0  0  0  0  0  0  0  0  0  0
   10.6508   -0.0424   24.8062 C   0  0  0  0  0  0  0  0  0  0  0  0
   11.2763    0.2509   23.6254 C   0  0  0  0  0  0  0  0  0  0  0  0
   12.6061    0.5406   23.9764 C   0  0  0  0  0  0  0  0  0  0  0  0
   12.7868    0.4705   25.2863 N   0  0  0  0  0  0  0  0  0  0  0  0
   11.5766    0.1287   25.7715 N   0  0  0  0  0  0  0  0  0  0  0  0
   11.4147    0.1327   26.7709 H   0  0  0  0  0  0  0  0  0  0  0  0
   13.4354    0.8137   23.3316 H   0  0  0  0  0  0  0  0  0  0  0  0
   10.5521    0.3962   22.3284 C   0  0  0  0  0  0  0  0  0  0  0  0
   10.4734    1.4552   22.0291 H   0  0  0  0  0  0  0  0  0  0  0  0
   11.0837   -0.1260   21.5215 H   0  0  0  0  0  0  0  0  0  0  0  0
    8.8131   -0.2369   25.9145 H   0  0  0  0  0  0  0  0  0  0  0  0
    9.1547   -1.5659   24.8041 H   0  0  0  0  0  0  0  0  0  0  0  0
    7.3921   -0.1041   23.8082 H   0  0  0  0  0  0  0  0  0  0  0  0
    8.4698    1.2954   23.9291 H   0  0  0  0  0  0  0  0  0  0  0  0
    9.2200   -1.2111   22.4430 H   0  0  0  0  0  0  0  0  0  0  0  0
    8.9025    0.3100   20.4033 H   0  0  0  0  0  0  0  0  0  0  0  0
    7.8446    1.2399   21.4662 H   0  0  0  0  0  0  0  0  0  0  0  0
    6.3736   -0.1452   19.7742 C   0  0  0  0  0  0  0  0  0  0  0  0
    5.2150    0.6169   19.9755 C   0  0  0  0  0  0  0  0  0  0  0  0
    4.7069    1.3624   18.9099 C   0  0  0  0  0  0  0  0  0  0  0  0
    5.3647    1.3088   17.6778 C   0  0  0  0  0  0  0  0  0  0  0  0
    6.4509    0.5527   17.4557 N   0  0  0  0  0  0  0  0  0  0  0  0
    6.9321   -0.1546   18.4828 C   0  0  0  0  0  0  0  0  0  0  0  0
    7.8318   -0.7366   18.2751 H   0  0  0  0  0  0  0  0  0  0  0  0
    5.0103    1.8961   16.8310 H   0  0  0  0  0  0  0  0  0  0  0  0
    3.8405    2.0037   19.0239 H   0  0  0  0  0  0  0  0  0  0  0  0
    4.7217    0.6299   20.9505 H   0  0  0  0  0  0  0  0  0  0  0  0
    6.4758   -0.8647   21.8078 H   0  0  0  0  0  0  0  0  0  0  0  0
    7.1866   -2.3561   19.9076 H   0  0  0  0  0  0  0  0  0  0  0  0
  1  2  1  0
  2  3  1  0
  3  4  1  0
  4  5  1  0
  5  6  1  0
  6  7  1  0
  7  8  2  0
  8  9  1  0
  9 10  2  0
 10 11  1  0
 11 12  1  0
  9 13  1  0
  8 14  1  0
 14 15  1  0
 14 16  1  0
  6 17  1  0
  6 18  1  0
  5 19  1  0
  5 20  1  0
  4 21  1  0
  3 22  1  0
  3 23  1  0
  2 24  1  0
 24 25  2  0
 25 26  1  0
 26 27  2  0
 27 28  1  0
 28 29  2  0
 29 30  1  0
 27 31  1  0
 26 32  1  0
 25 33  1  0
  2 34  1  0
  1 35  1  0
 14  4  1  0
 29 24  1  0
 11  7  1  0
M  CHG  1   4   1
M  END
>  <plip>  (1) 
-0.07142857142857142

>  <filename>  (1) 
[H][O][C]([H])([c]1[c]([H])[n][c]([H])[c]([H])[c]1[H])[C]([H])([H])[N+]1([H])[C]([H])([H])[c]2[c]([H])[n][n]([H])[c]2[C]([H])([H])[C]1([H])[H]

$$$$
