
     RDKit          3D

 41 44  0  0  0  0  0  0  0  0999 V2000
    4.9731    1.8203   16.9597 H   0  0  0  0  0  0  0  0  0  0  0  0
    5.4082    1.2842   17.8004 C   0  0  0  0  0  0  0  0  0  0  0  0
    6.5545    0.6279   17.5582 N   0  0  0  0  0  0  0  0  0  0  0  0
    7.1334   -0.0089   18.5790 C   0  0  0  0  0  0  0  0  0  0  0  0
    8.0693   -0.5204   18.3597 H   0  0  0  0  0  0  0  0  0  0  0  0
    6.6209   -0.0096   19.8869 C   0  0  0  0  0  0  0  0  0  0  0  0
    7.3852   -0.6472   20.9561 C   0  0  0  0  0  0  0  0  0  0  0  0
    8.1447   -1.7764   20.7553 N   0  0  0  0  0  0  0  0  0  0  0  0
    8.6322   -2.0393   21.9333 C   0  0  0  0  0  0  0  0  0  0  0  0
    8.2890   -1.1456   22.8859 N   0  0  0  0  0  0  0  0  0  0  0  0
    7.4701   -0.2367   22.2848 C   0  0  0  0  0  0  0  0  0  0  0  0
    7.0520    0.9703   22.9724 C   0  0  0  0  0  0  0  0  0  0  0  0
    7.3324    2.2042   22.3688 C   0  0  0  0  0  0  0  0  0  0  0  0
    7.8313    2.2086   21.4032 H   0  0  0  0  0  0  0  0  0  0  0  0
    6.9981    3.3911   22.9872 C   0  0  0  0  0  0  0  0  0  0  0  0
    7.2134    4.3643   22.5656 H   0  0  0  0  0  0  0  0  0  0  0  0
    6.3412    3.3629   24.2198 C   0  0  0  0  0  0  0  0  0  0  0  0
    6.0545    4.5979   24.7050 O   0  0  0  0  0  0  0  0  0  0  0  0
    5.3769    4.7227   25.9331 C   0  0  0  0  0  0  0  0  0  0  0  0
    5.9535    4.2800   26.7546 H   0  0  0  0  0  0  0  0  0  0  0  0
    4.3845    4.2561   25.8956 H   0  0  0  0  0  0  0  0  0  0  0  0
    5.2639    5.7921   26.1094 H   0  0  0  0  0  0  0  0  0  0  0  0
    6.0255    2.1530   24.8509 C   0  0  0  0  0  0  0  0  0  0  0  0
    5.4924    2.1396   25.7937 H   0  0  0  0  0  0  0  0  0  0  0  0
    6.4062    0.9512   24.2353 C   0  0  0  0  0  0  0  0  0  0  0  0
    6.1863   -0.2758   24.7843 O   0  0  0  0  0  0  0  0  0  0  0  0
    5.4484   -0.4123   25.9829 C   0  0  0  0  0  0  0  0  0  0  0  0
    5.3424   -1.4852   26.1512 H   0  0  0  0  0  0  0  0  0  0  0  0
    4.4487    0.0334   25.9007 H   0  0  0  0  0  0  0  0  0  0  0  0
    5.9749    0.0310   26.8380 H   0  0  0  0  0  0  0  0  0  0  0  0
    8.9294   -1.2399   24.1888 C   0  0  0  0  0  0  0  0  0  0  0  0
    8.2462   -1.7068   24.9011 H   0  0  0  0  0  0  0  0  0  0  0  0
    9.1968   -0.2450   24.5552 H   0  0  0  0  0  0  0  0  0  0  0  0
   10.1726   -2.0979   23.9139 C   0  0  0  0  0  0  0  0  0  0  0  0
   10.9887   -1.4864   23.5164 H   0  0  0  0  0  0  0  0  0  0  0  0
   10.5256   -2.6690   24.7736 H   0  0  0  0  0  0  0  0  0  0  0  0
    9.6682   -3.2702   22.6199 S   0  0  0  0  0  0  0  0  0  0  0  0
    5.3984    0.6508   20.1146 C   0  0  0  0  0  0  0  0  0  0  0  0
    4.9607    0.6775   21.1146 H   0  0  0  0  0  0  0  0  0  0  0  0
    4.7854    1.3043   19.0515 C   0  0  0  0  0  0  0  0  0  0  0  0
    3.8588    1.8503   19.1820 H   0  0  0  0  0  0  0  0  0  0  0  0
  1  2  1  0
  2  3  2  0
  3  4  1  0
  4  5  1  0
  4  6  2  0
  6  7  1  0
  7  8  1  0
  8  9  2  0
  9 10  1  0
 10 11  1  0
 11 12  1  0
 12 13  2  0
 13 14  1  0
 13 15  1  0
 15 16  1  0
 15 17  2  0
 17 18  1  0
 18 19  1  0
 19 20  1  0
 19 21  1  0
 19 22  1  0
 17 23  1  0
 23 24  1  0
 23 25  2  0
 25 26  1  0
 26 27  1  0
 27 28  1  0
 27 29  1  0
 27 30  1  0
 10 31  1  0
 31 32  1  0
 31 33  1  0
 31 34  1  0
 34 35  1  0
 34 36  1  0
 34 37  1  0
  6 38  1  0
 38 39  1  0
 38 40  2  0
 40 41  1  0
 40  2  1  0
 11  7  2  0
 25 12  1  0
 37  9  1  0
M  END
>  <plip>  (1) 
-0.034482758620689655

>  <filename>  (1) 
[H][c]1[n][c]([H])[c](-[c]2[n][c]3[n]([c]2-[c]2[c]([H])[c]([H])[c]([O][C]([H])([H])[H])[c]([H])[c]2[O][C]([H])([H])[H])[C]([H])([H])[C]([H])([H])[S]3)[c]([H])[c]1[H]

$$$$
