
     RDKit          3D

 38 39  0  0  0  0  0  0  0  0999 V2000
    7.6922   -2.0803   20.6734 O   0  0  0  0  0  0  0  0  0  0  0  0
    7.4163   -0.7163   20.9654 C   0  0  0  0  0  0  0  0  0  0  0  0
    8.7559   -0.0064   21.2713 C   0  0  0  0  0  0  0  0  0  0  0  0
    9.4256   -0.6126   22.4890 N   0  0  0  0  0  4  0  0  0  0  0  0
    8.9184    0.0366   23.7606 C   0  0  0  0  0  0  0  0  0  0  0  0
    9.5936    1.3899   24.0436 C   0  0  0  0  0  0  0  0  0  0  0  0
   10.9589    1.0807   24.3096 O   0  0  0  0  0  0  0  0  0  0  0  0
   11.3477    1.8542   24.7347 H   0  0  0  0  0  0  0  0  0  0  0  0
    8.8889    2.0946   25.1792 C   0  0  0  0  0  0  0  0  0  0  0  0
    8.1925    3.2996   24.9750 C   0  0  0  0  0  0  0  0  0  0  0  0
    7.4996    3.9304   26.0134 C   0  0  0  0  0  0  0  0  0  0  0  0
    7.4879    3.3359   27.2726 C   0  0  0  0  0  0  0  0  0  0  0  0
    6.8557    3.9573   28.2821 F   0  0  0  0  0  0  0  0  0  0  0  0
    8.1047    2.1078   27.5055 C   0  0  0  0  0  0  0  0  0  0  0  0
    8.7887    1.5158   26.4505 C   0  0  0  0  0  0  0  0  0  0  0  0
    9.3418    0.3057   26.6783 F   0  0  0  0  0  0  0  0  0  0  0  0
    8.0735    1.5918   28.4573 H   0  0  0  0  0  0  0  0  0  0  0  0
    6.9544    4.8515   25.8412 H   0  0  0  0  0  0  0  0  0  0  0  0
    8.1525    3.7350   23.9752 H   0  0  0  0  0  0  0  0  0  0  0  0
    9.5338    2.0449   23.1521 H   0  0  0  0  0  0  0  0  0  0  0  0
    9.1278   -0.5906   24.6196 H   0  0  0  0  0  0  0  0  0  0  0  0
    7.8349    0.1813   23.7088 H   0  0  0  0  0  0  0  0  0  0  0  0
   10.4759   -0.4821   22.4866 H   0  0  0  0  0  0  0  0  0  0  0  0
    9.1953   -1.6470   22.4661 H   0  0  0  0  0  0  0  0  0  0  0  0
    9.4233   -0.1013   20.4141 H   0  0  0  0  0  0  0  0  0  0  0  0
    8.5708    1.0555   21.4426 H   0  0  0  0  0  0  0  0  0  0  0  0
    6.6481   -0.0525   19.8571 C   0  0  0  0  0  0  0  0  0  0  0  0
    5.4501    0.6328   20.1123 C   0  0  0  0  0  0  0  0  0  0  0  0
    4.8314    1.3073   19.0603 C   0  0  0  0  0  0  0  0  0  0  0  0
    5.4286    1.2858   17.7973 C   0  0  0  0  0  0  0  0  0  0  0  0
    6.5661    0.6236   17.5304 N   0  0  0  0  0  0  0  0  0  0  0  0
    7.1413   -0.0339   18.5433 C   0  0  0  0  0  0  0  0  0  0  0  0
    8.0710   -0.5535   18.2943 H   0  0  0  0  0  0  0  0  0  0  0  0
    4.9810    1.8283   16.9639 H   0  0  0  0  0  0  0  0  0  0  0  0
    3.9152    1.8658   19.2088 H   0  0  0  0  0  0  0  0  0  0  0  0
    5.0122    0.6435   21.1156 H   0  0  0  0  0  0  0  0  0  0  0  0
    6.7973   -0.7133   21.8766 H   0  0  0  0  0  0  0  0  0  0  0  0
    7.7878   -2.1496   19.7147 H   0  0  0  0  0  0  0  0  0  0  0  0
  1  2  1  0
  2  3  1  0
  3  4  1  0
  4  5  1  0
  5  6  1  0
  6  7  1  0
  7  8  1  0
  6  9  1  0
  9 10  2  0
 10 11  1  0
 11 12  2  0
 12 13  1  0
 12 14  1  0
 14 15  2  0
 15 16  1  0
 14 17  1  0
 11 18  1  0
 10 19  1  0
  6 20  1  0
  5 21  1  0
  5 22  1  0
  4 23  1  0
  4 24  1  0
  3 25  1  0
  3 26  1  0
  2 27  1  0
 27 28  2  0
 28 29  1  0
 29 30  2  0
 30 31  1  0
 31 32  2  0
 32 33  1  0
 30 34  1  0
 29 35  1  0
 28 36  1  0
  2 37  1  0
  1 38  1  0
 15  9  1  0
 32 27  1  0
M  CHG  1   4   1
M  END
>  <plip>  (1) 
-0.06666666666666667

>  <filename>  (1) 
[H][O][C]([H])([c]1[c]([H])[n][c]([H])[c]([H])[c]1[H])[C]([H])([H])[N+]([H])([H])[C]([H])([H])[C]([H])([O][H])[c]1[c]([H])[c]([H])[c]([F])[c]([H])[c]1[F]

$$$$
