
     RDKit          3D

 44 45  0  0  0  0  0  0  0  0999 V2000
    9.6252    0.4509   20.7926 C   0  0  0  0  0  0  0  0  0  0  0  0
    8.4913    0.1567   21.7791 C   0  0  0  0  0  0  0  0  0  0  0  0
    7.9441    1.4447   22.4023 C   0  0  0  0  0  0  0  0  0  0  0  0
    8.7388    1.9867   22.9277 H   0  0  0  0  0  0  0  0  0  0  0  0
    7.1542    1.2325   23.1337 H   0  0  0  0  0  0  0  0  0  0  0  0
    7.5300    2.1161   21.6398 H   0  0  0  0  0  0  0  0  0  0  0  0
    7.3483   -0.6880   21.1264 C   0  0  0  0  0  0  0  0  0  0  0  0
    7.8412   -2.1112   20.7565 C   0  0  0  0  0  0  0  0  0  0  0  0
    8.2714   -2.9378   21.8778 N   0  0  0  0  0  0  0  0  0  0  0  0
    7.3868   -3.4131   22.7975 C   0  0  0  0  0  0  0  0  0  0  0  0
    6.0973   -3.4237   22.4560 N   0  0  0  0  0  0  0  0  0  0  0  0
    5.2106   -3.8413   23.3654 C   0  0  0  0  0  0  0  0  0  0  0  0
    5.5788   -4.3198   24.6201 C   0  0  0  0  0  0  0  0  0  0  0  0
    4.3597   -4.8659   25.7272 Cl  0  0  0  0  0  0  0  0  0  0  0  0
    6.9302   -4.3493   24.9774 C   0  0  0  0  0  0  0  0  0  0  0  0
    7.8747   -3.9118   24.0504 C   0  0  0  0  0  0  0  0  0  0  0  0
    9.3614   -3.8711   24.3201 C   0  0  1  0  0  0  0  0  0  0  0  0
    9.8240   -2.5242   24.1632 O   0  0  0  0  0  0  0  0  0  0  0  0
    9.3395   -2.0146   24.8320 H   0  0  0  0  0  0  0  0  0  0  0  0
    9.8288   -4.4622   25.6493 C   0  0  0  0  0  0  0  0  0  0  0  0
    9.2868   -3.7786   26.7373 F   0  0  0  0  0  0  0  0  0  0  0  0
   10.9183   -4.3915   25.7159 H   0  0  0  0  0  0  0  0  0  0  0  0
    9.5246   -5.5129   25.7073 H   0  0  0  0  0  0  0  0  0  0  0  0
    9.8869   -4.4463   23.5505 H   0  0  0  0  0  0  0  0  0  0  0  0
    7.1988   -4.6873   25.9814 H   0  0  0  0  0  0  0  0  0  0  0  0
    4.1575   -3.7828   23.0916 H   0  0  0  0  0  0  0  0  0  0  0  0
    9.1073   -2.6233   22.3506 H   0  0  0  0  0  0  0  0  0  0  0  0
    7.0380   -2.6492   20.2349 H   0  0  0  0  0  0  0  0  0  0  0  0
    8.7068   -2.0051   20.0916 H   0  0  0  0  0  0  0  0  0  0  0  0
    6.6331   -0.0031   19.9533 C   0  0  0  0  0  0  0  0  0  0  0  0
    5.4177    0.6765   20.1536 C   0  0  0  0  0  0  0  0  0  0  0  0
    4.7972    1.3224   19.0794 C   0  0  0  0  0  0  0  0  0  0  0  0
    5.4080    1.2792   17.8227 C   0  0  0  0  0  0  0  0  0  0  0  0
    6.5538    0.6243   17.5889 N   0  0  0  0  0  0  0  0  0  0  0  0
    7.1346    0.0102   18.6321 C   0  0  0  0  0  0  0  0  0  0  0  0
    8.0750   -0.4918   18.3993 H   0  0  0  0  0  0  0  0  0  0  0  0
    4.9583    1.7869   16.9701 H   0  0  0  0  0  0  0  0  0  0  0  0
    3.8645    1.8620   19.2039 H   0  0  0  0  0  0  0  0  0  0  0  0
    4.9675    0.7131   21.1487 H   0  0  0  0  0  0  0  0  0  0  0  0
    6.5860   -0.8391   21.9035 H   0  0  0  0  0  0  0  0  0  0  0  0
    8.9095   -0.4427   22.6044 H   0  0  0  0  0  0  0  0  0  0  0  0
   10.0854   -0.4718   20.4180 H   0  0  0  0  0  0  0  0  0  0  0  0
    9.2291    0.9951   19.9327 H   0  0  0  0  0  0  0  0  0  0  0  0
   10.4148    1.0575   21.2512 H   0  0  0  0  0  0  0  0  0  0  0  0
  1  2  1  0
  2  3  1  0
  3  4  1  0
  3  5  1  0
  3  6  1  0
  2  7  1  0
  7  8  1  0
  8  9  1  0
  9 10  1  0
 10 11  2  0
 11 12  1  0
 12 13  2  0
 13 14  1  0
 13 15  1  0
 15 16  2  0
 16 17  1  0
 17 18  1  0
 18 19  1  0
 17 20  1  0
 20 21  1  0
 20 22  1  0
 20 23  1  0
 17 24  1  6
 15 25  1  0
 12 26  1  0
  9 27  1  0
  8 28  1  0
  8 29  1  0
  7 30  1  0
 30 31  2  0
 31 32  1  0
 32 33  2  0
 33 34  1  0
 34 35  2  0
 35 36  1  0
 33 37  1  0
 32 38  1  0
 31 39  1  0
  7 40  1  0
  2 41  1  0
  1 42  1  0
  1 43  1  0
  1 44  1  0
 16 10  1  0
 35 30  1  0
M  END
>  <plip>  (1) 
-0.06896551724137931

>  <filename>  (1) 
[H][O][C@]([H])([c]1[c]([N]([H])[C]([H])([H])[C]([H])([c]2[c]([H])[n][c]([H])[c]([H])[c]2[H])[C]([H])([C]([H])([H])[H])[C]([H])([H])[H])[n][c]([H])[c]([Cl])[c]1[H])[C]([H])([H])[F]

$$$$
