
     RDKit          3D

 29 30  0  0  0  0  0  0  0  0999 V2000
    6.0997    4.0944   25.1718 H   0  0  0  0  0  0  0  0  0  0  0  0
    6.5499    3.1245   24.9583 C   0  0  0  0  0  0  0  0  0  0  0  0
    6.1751    2.5323   23.8464 N   0  0  0  0  0  0  0  0  0  0  0  0
    6.7562    1.3593   23.5312 C   0  0  0  0  0  0  0  0  0  0  0  0
    6.4136    0.8241   22.3494 N   0  0  0  0  0  0  0  0  0  0  0  0
    7.0079   -0.2332   21.9766 C   0  0  0  0  0  0  0  0  0  0  0  0
    7.5911   -1.2030   22.7280 N   0  0  0  0  0  0  0  0  0  0  0  0
    7.6867   -0.8140   23.6624 H   0  0  0  0  0  0  0  0  0  0  0  0
    8.4989   -1.3139   22.2992 H   0  0  0  0  0  0  0  0  0  0  0  0
    7.1139   -0.6443   20.6795 N   0  0  0  0  0  0  0  0  0  0  0  0
    7.0926   -1.6436   20.7914 H   0  0  0  0  0  0  0  0  0  0  0  0
    6.4915   -0.0269   19.5462 C   0  0  0  0  0  0  0  0  0  0  0  0
    7.1210    0.0008   18.2783 C   0  0  0  0  0  0  0  0  0  0  0  0
    8.0803   -0.5009   18.1615 H   0  0  0  0  0  0  0  0  0  0  0  0
    6.6187    0.6208   17.2032 N   0  0  0  0  0  0  0  0  0  0  0  0
    5.4401    1.2496   17.3480 C   0  0  0  0  0  0  0  0  0  0  0  0
    5.0640    1.7697   16.4723 H   0  0  0  0  0  0  0  0  0  0  0  0
    4.7227    1.2598   18.5473 C   0  0  0  0  0  0  0  0  0  0  0  0
    3.7838    1.8016   18.6110 H   0  0  0  0  0  0  0  0  0  0  0  0
    5.2490    0.6107   19.6683 C   0  0  0  0  0  0  0  0  0  0  0  0
    4.7479    0.6230   20.6358 H   0  0  0  0  0  0  0  0  0  0  0  0
    7.6569    0.7750   24.3321 N   0  0  0  0  0  0  0  0  0  0  0  0
    7.9699    1.3181   25.5006 C   0  0  0  0  0  0  0  0  0  0  0  0
    8.9534    0.4814   26.3468 C   0  0  0  0  0  0  0  0  0  0  0  0
    8.9714   -0.8085   25.9674 F   0  0  0  0  0  0  0  0  0  0  0  0
   10.2106    0.9397   26.2264 F   0  0  0  0  0  0  0  0  0  0  0  0
    8.6046    0.5120   27.6440 F   0  0  0  0  0  0  0  0  0  0  0  0
    7.4649    2.5577   25.8631 C   0  0  0  0  0  0  0  0  0  0  0  0
    7.7543    3.0483   26.7772 H   0  0  0  0  0  0  0  0  0  0  0  0
  1  2  1  0
  2  3  2  0
  3  4  1  0
  4  5  1  0
  5  6  2  3
  6  7  1  0
  7  8  1  0
  7  9  1  0
  6 10  1  0
 10 11  1  0
 10 12  1  0
 12 13  2  0
 13 14  1  0
 13 15  1  0
 15 16  2  0
 16 17  1  0
 16 18  1  0
 18 19  1  0
 18 20  2  0
 20 21  1  0
  4 22  2  0
 22 23  1  0
 23 24  1  0
 24 25  1  0
 24 26  1  0
 24 27  1  0
 23 28  2  0
 28 29  1  0
 28  2  1  0
 20 12  1  0
M  END
>  <plip>  (1) 
-0.03571428571428571

>  <filename>  (1) 
[H][c]1[n][c]([N]=[C]([N]([H])[H])[N]([H])[c]2[c]([H])[n][c]([H])[c]([H])[c]2[H])[n][c]([C]([F])([F])[F])[c]1[H]

$$$$
