
     RDKit          3D

 36 38  0  0  0  0  0  0  0  0999 V2000
    9.0757    0.4973   24.5814 C   0  0  0  0  0  0  0  0  0  0  0  0
    8.5724   -0.7903   23.8950 C   0  0  0  0  0  0  0  0  0  0  0  0
    8.8925   -2.0410   24.7239 C   0  0  0  0  0  0  0  0  0  0  0  0
    8.2136   -2.2974   25.9217 C   0  0  0  0  0  0  0  0  0  0  0  0
    8.5264   -3.2728   26.7858 N   0  0  0  0  0  0  0  0  0  0  0  0
    9.5561   -4.0657   26.4605 C   0  0  0  0  0  0  0  0  0  0  0  0
   10.2777   -3.9344   25.2758 C   0  0  0  0  0  0  0  0  0  0  0  0
    9.9263   -2.9288   24.3718 C   0  0  0  0  0  0  0  0  0  0  0  0
   10.5929   -2.7962   23.0255 C   0  0  0  0  0  0  0  0  0  0  0  0
   10.5720   -1.3480   22.5623 C   0  0  0  0  0  0  0  0  0  0  0  0
    9.1649   -0.9090   22.5485 N   0  0  0  0  0  0  0  0  0  0  0  0
    8.6972   -0.3505   21.3623 C   0  0  0  0  0  0  0  0  0  0  0  0
    9.4512    0.1177   20.5246 O   0  0  0  0  0  0  0  0  0  0  0  0
    7.3329   -0.4393   21.1382 N   0  0  0  0  0  0  0  0  0  0  0  0
    6.6456    0.0937   20.0032 C   0  0  0  0  0  0  0  0  0  0  0  0
    5.3782    0.6665   20.1791 C   0  0  0  0  0  0  0  0  0  0  0  0
    4.7429    1.2523   19.0745 C   0  0  0  0  0  0  0  0  0  0  0  0
    5.3761    1.2280   17.8292 C   0  0  0  0  0  0  0  0  0  0  0  0
    6.5673    0.6409   17.6269 N   0  0  0  0  0  0  0  0  0  0  0  0
    7.1784    0.0933   18.6852 C   0  0  0  0  0  0  0  0  0  0  0  0
    8.1462   -0.3648   18.5063 H   0  0  0  0  0  0  0  0  0  0  0  0
    4.9178    1.6890   16.9559 H   0  0  0  0  0  0  0  0  0  0  0  0
    3.7772    1.7391   19.1680 H   0  0  0  0  0  0  0  0  0  0  0  0
    4.9123    0.6858   21.1639 H   0  0  0  0  0  0  0  0  0  0  0  0
    6.7852   -0.7352   21.9243 H   0  0  0  0  0  0  0  0  0  0  0  0
   11.0131   -1.2181   21.5696 H   0  0  0  0  0  0  0  0  0  0  0  0
   11.1709   -0.7277   23.2468 H   0  0  0  0  0  0  0  0  0  0  0  0
   11.6177   -3.1858   23.0597 H   0  0  0  0  0  0  0  0  0  0  0  0
   10.0121   -3.3759   22.3018 H   0  0  0  0  0  0  0  0  0  0  0  0
   11.1227   -4.5825   25.0651 H   0  0  0  0  0  0  0  0  0  0  0  0
    9.8002   -4.8551   27.1679 H   0  0  0  0  0  0  0  0  0  0  0  0
    7.3710   -1.6769   26.2258 H   0  0  0  0  0  0  0  0  0  0  0  0
    7.4748   -0.7288   23.8245 H   0  0  0  0  0  0  0  0  0  0  0  0
   10.1713    0.4868   24.6482 H   0  0  0  0  0  0  0  0  0  0  0  0
    8.6852    0.5746   25.6020 H   0  0  0  0  0  0  0  0  0  0  0  0
    8.7701    1.3854   24.0177 H   0  0  0  0  0  0  0  0  0  0  0  0
  1  2  1  0
  2  3  1  0
  3  4  2  0
  4  5  1  0
  5  6  2  0
  6  7  1  0
  7  8  2  0
  8  9  1  0
  9 10  1  0
 10 11  1  0
 11 12  1  0
 12 13  2  0
 12 14  1  0
 14 15  1  0
 15 16  2  0
 16 17  1  0
 17 18  2  0
 18 19  1  0
 19 20  2  0
 20 21  1  0
 18 22  1  0
 17 23  1  0
 16 24  1  0
 14 25  1  0
 10 26  1  0
 10 27  1  0
  9 28  1  0
  9 29  1  0
  7 30  1  0
  6 31  1  0
  4 32  1  0
  2 33  1  0
  1 34  1  0
  1 35  1  0
  1 36  1  0
 11  2  1  0
 20 15  1  0
  8  3  1  0
M  END
>  <plip>  (1) 
-0.07142857142857142

>  <filename>  (1) 
[H][c]1[n][c]([H])[c]([N]([H])[C](=[O])[N]2[C]([H])([H])[C]([H])([H])[c]3[c]([H])[c]([H])[n][c]([H])[c]3[C]2([H])[C]([H])([H])[H])[c]([H])[c]1[H]

$$$$
