
     RDKit          3D

 46 47  0  0  0  0  0  0  0  0999 V2000
    9.0557   -0.4899   25.6955 C   0  0  0  0  0  0  0  0  0  0  0  0
    8.8021    0.3240   24.4250 C   0  0  0  0  0  0  0  0  0  0  0  0
    8.3932   -0.5750   23.2711 C   0  0  0  0  0  0  0  0  0  0  0  0
    7.8491    0.1565   22.0706 N   0  0  0  0  0  4  0  0  0  0  0  0
    8.8257    1.2312   21.5690 C   0  0  0  0  0  0  0  0  0  0  0  0
    8.6194    2.6017   22.1857 C   0  0  0  0  0  0  0  0  0  0  0  0
    7.4075    3.2840   22.0441 C   0  0  0  0  0  0  0  0  0  0  0  0
    7.2320    4.5771   22.5597 C   0  0  0  0  0  0  0  0  0  0  0  0
    8.2853    5.2071   23.2380 C   0  0  0  0  0  0  0  0  0  0  0  0
    8.2335    6.4497   23.7948 O   0  0  0  0  0  0  0  0  0  0  0  0
    7.0460    7.2167   23.7140 C   0  0  0  0  0  0  0  0  0  0  0  0
    6.1951    6.7350   24.2139 H   0  0  0  0  0  0  0  0  0  0  0  0
    7.2700    8.1479   24.2314 H   0  0  0  0  0  0  0  0  0  0  0  0
    6.7596    7.4500   22.6799 H   0  0  0  0  0  0  0  0  0  0  0  0
    9.5121    4.5382   23.3748 C   0  0  0  0  0  0  0  0  0  0  0  0
    9.6718    3.2589   22.8474 C   0  0  0  0  0  0  0  0  0  0  0  0
   10.6365    2.7615   22.9427 H   0  0  0  0  0  0  0  0  0  0  0  0
   10.3227    5.0401   23.8907 H   0  0  0  0  0  0  0  0  0  0  0  0
    6.2864    5.0915   22.4272 H   0  0  0  0  0  0  0  0  0  0  0  0
    6.5952    2.8155   21.4846 H   0  0  0  0  0  0  0  0  0  0  0  0
    8.6887    1.3020   20.4900 H   0  0  0  0  0  0  0  0  0  0  0  0
    9.8407    0.8662   21.7499 H   0  0  0  0  0  0  0  0  0  0  0  0
    7.4005   -0.7684   20.9526 C   0  0  0  0  0  0  0  0  0  0  0  0
    6.5323   -1.9240   21.4452 C   0  0  0  0  0  0  0  0  0  0  0  0
    6.0429   -2.4044   20.5926 H   0  0  0  0  0  0  0  0  0  0  0  0
    5.7522   -1.5446   22.1012 H   0  0  0  0  0  0  0  0  0  0  0  0
    7.1089   -2.6703   22.0018 H   0  0  0  0  0  0  0  0  0  0  0  0
    6.6668    0.0313   19.9112 C   0  0  0  0  0  0  0  0  0  0  0  0
    5.4465    0.6722   20.1644 C   0  0  0  0  0  0  0  0  0  0  0  0
    4.8082    1.3208   19.1052 C   0  0  0  0  0  0  0  0  0  0  0  0
    5.3989    1.2956   17.8362 C   0  0  0  0  0  0  0  0  0  0  0  0
    6.5566    0.6755   17.5727 N   0  0  0  0  0  0  0  0  0  0  0  0
    7.1661    0.0734   18.6033 C   0  0  0  0  0  0  0  0  0  0  0  0
    8.1110   -0.4199   18.3729 H   0  0  0  0  0  0  0  0  0  0  0  0
    4.9193    1.7867   16.9928 H   0  0  0  0  0  0  0  0  0  0  0  0
    3.8741    1.8451   19.2512 H   0  0  0  0  0  0  0  0  0  0  0  0
    4.9957    0.6413   21.1621 H   0  0  0  0  0  0  0  0  0  0  0  0
    8.3128   -1.1872   20.5101 H   0  0  0  0  0  0  0  0  0  0  0  0
    7.0109    0.6989   22.3680 H   0  0  0  0  0  0  0  0  0  0  0  0
    7.6312   -1.2771   23.6284 H   0  0  0  0  0  0  0  0  0  0  0  0
    9.2594   -1.1774   22.9559 H   0  0  0  0  0  0  0  0  0  0  0  0
    9.7095    0.8770   24.1659 H   0  0  0  0  0  0  0  0  0  0  0  0
    8.0248    1.0804   24.5836 H   0  0  0  0  0  0  0  0  0  0  0  0
    8.1492   -1.0115   26.0261 H   0  0  0  0  0  0  0  0  0  0  0  0
    9.8274   -1.2534   25.5324 H   0  0  0  0  0  0  0  0  0  0  0  0
    9.3911    0.1429   26.5236 H   0  0  0  0  0  0  0  0  0  0  0  0
  1  2  1  0
  2  3  1  0
  3  4  1  0
  4  5  1  0
  5  6  1  0
  6  7  2  0
  7  8  1  0
  8  9  2  0
  9 10  1  0
 10 11  1  0
 11 12  1  0
 11 13  1  0
 11 14  1  0
  9 15  1  0
 15 16  2  0
 16 17  1  0
 15 18  1  0
  8 19  1  0
  7 20  1  0
  5 21  1  0
  5 22  1  0
  4 23  1  0
 23 24  1  0
 24 25  1  0
 24 26  1  0
 24 27  1  0
 23 28  1  0
 28 29  2  0
 29 30  1  0
 30 31  2  0
 31 32  1  0
 32 33  2  0
 33 34  1  0
 31 35  1  0
 30 36  1  0
 29 37  1  0
 23 38  1  0
  4 39  1  0
  3 40  1  0
  3 41  1  0
  2 42  1  0
  2 43  1  0
  1 44  1  0
  1 45  1  0
  1 46  1  0
 16  6  1  0
 33 28  1  0
M  CHG  1   4   1
M  END
>  <plip>  (1) 
-0.07142857142857142

>  <filename>  (1) 
[H][c]1[n][c]([H])[c]([C]([H])([C]([H])([H])[H])[N+]([H])([C]([H])([H])[c]2[c]([H])[c]([H])[c]([O][C]([H])([H])[H])[c]([H])[c]2[H])[C]([H])([H])[C]([H])([H])[C]([H])([H])[H])[c]([H])[c]1[H]

$$$$
