
     RDKit          3D

 47 50  0  0  0  0  0  0  0  0999 V2000
    9.6954    3.7777   24.0482 C   0  0  0  0  0  0  0  0  0  0  0  0
    9.3986    2.3230   24.4058 C   0  0  0  0  0  0  0  0  0  0  0  0
   10.4385    1.8313   25.2370 O   0  0  0  0  0  0  0  0  0  0  0  0
   10.0723    0.8249   26.1768 C   0  0  0  0  0  0  0  0  0  0  0  0
    9.5585   -0.5334   25.6883 C   0  0  0  0  0  0  0  0  0  0  0  0
    9.2972   -1.4605   26.8951 C   0  0  0  0  0  0  0  0  0  0  0  0
    8.9747   -2.9083   26.4714 C   0  0  0  0  0  0  0  0  0  0  0  0
    9.7978   -3.4142   25.2657 C   0  0  0  0  0  0  0  0  0  0  0  0
   10.0497   -2.3182   24.2264 C   0  0  0  0  0  0  0  0  0  0  0  0
   10.5227   -1.1228   24.8265 O   0  0  0  0  0  0  0  0  0  0  0  0
    9.1364   -2.0852   23.6543 H   0  0  0  0  0  0  0  0  0  0  0  0
   10.8204   -2.6434   23.5134 H   0  0  0  0  0  0  0  0  0  0  0  0
   10.7710   -3.7971   25.5995 H   0  0  0  0  0  0  0  0  0  0  0  0
    9.2847   -4.2565   24.7817 H   0  0  0  0  0  0  0  0  0  0  0  0
    9.1701   -3.5672   27.3238 H   0  0  0  0  0  0  0  0  0  0  0  0
    7.8997   -2.9930   26.2591 H   0  0  0  0  0  0  0  0  0  0  0  0
    8.4643   -1.0449   27.4779 H   0  0  0  0  0  0  0  0  0  0  0  0
   10.1714   -1.4458   27.5620 H   0  0  0  0  0  0  0  0  0  0  0  0
    8.6140   -0.3819   25.1342 H   0  0  0  0  0  0  0  0  0  0  0  0
   10.9822    0.6425   26.7547 H   0  0  0  0  0  0  0  0  0  0  0  0
    9.2852    1.2220   26.8386 H   0  0  0  0  0  0  0  0  0  0  0  0
    9.1558    1.4179   23.2003 C   0  0  0  0  0  0  0  0  0  0  0  0
    8.0668    0.7398   22.9651 N   0  0  0  0  0  0  0  0  0  0  0  0
    8.3465    0.1432   21.7589 C   0  0  0  0  0  0  0  0  0  0  0  0
    7.3237   -0.6942   21.0482 C   0  0  0  0  0  0  0  0  0  0  0  0
    6.6077    0.0169   19.9286 C   0  0  0  0  0  0  0  0  0  0  0  0
    5.4093    0.7074   20.1430 C   0  0  0  0  0  0  0  0  0  0  0  0
    4.8021    1.3510   19.0650 C   0  0  0  0  0  0  0  0  0  0  0  0
    5.4271    1.3028   17.8116 C   0  0  0  0  0  0  0  0  0  0  0  0
    6.5868    0.6638   17.5860 N   0  0  0  0  0  0  0  0  0  0  0  0
    7.1520    0.0480   18.6317 C   0  0  0  0  0  0  0  0  0  0  0  0
    8.0971   -0.4670   18.4525 H   0  0  0  0  0  0  0  0  0  0  0  0
    4.9777    1.8000   16.9541 H   0  0  0  0  0  0  0  0  0  0  0  0
    3.8693    1.8913   19.1833 H   0  0  0  0  0  0  0  0  0  0  0  0
    4.9739    0.7219   21.1441 H   0  0  0  0  0  0  0  0  0  0  0  0
    6.5643   -1.6675   21.9182 C   0  0  0  0  0  0  0  0  0  0  0  0
    7.5049   -2.1939   20.8891 C   0  0  0  0  0  0  0  0  0  0  0  0
    7.0160   -2.6400   20.0277 H   0  0  0  0  0  0  0  0  0  0  0  0
    8.4433   -2.6391   21.2086 H   0  0  0  0  0  0  0  0  0  0  0  0
    6.8864   -1.7283   22.9548 H   0  0  0  0  0  0  0  0  0  0  0  0
    5.5031   -1.8008   21.7425 H   0  0  0  0  0  0  0  0  0  0  0  0
    9.5272    0.4312   21.2743 N   0  0  0  0  0  0  0  0  0  0  0  0
   10.0668    1.2835   22.2356 O   0  0  0  0  0  0  0  0  0  0  0  0
    8.4462    2.3016   24.9599 H   0  0  0  0  0  0  0  0  0  0  0  0
    8.8480    4.1978   23.4935 H   0  0  0  0  0  0  0  0  0  0  0  0
    9.8242    4.3541   24.9695 H   0  0  0  0  0  0  0  0  0  0  0  0
   10.6086    3.8847   23.4551 H   0  0  0  0  0  0  0  0  0  0  0  0
  1  2  1  0
  2  3  1  0
  3  4  1  0
  4  5  1  0
  5  6  1  0
  6  7  1  0
  7  8  1  0
  8  9  1  0
  9 10  1  0
  9 11  1  0
  9 12  1  0
  8 13  1  0
  8 14  1  0
  7 15  1  0
  7 16  1  0
  6 17  1  0
  6 18  1  0
  5 19  1  0
  4 20  1  0
  4 21  1  0
  2 22  1  0
 22 23  2  0
 23 24  1  0
 24 25  1  0
 25 26  1  0
 26 27  2  0
 27 28  1  0
 28 29  2  0
 29 30  1  0
 30 31  2  0
 31 32  1  0
 29 33  1  0
 28 34  1  0
 27 35  1  0
 25 36  1  0
 36 37  1  0
 37 38  1  0
 37 39  1  0
 36 40  1  0
 36 41  1  0
 24 42  2  0
 42 43  1  0
  2 44  1  0
  1 45  1  0
  1 46  1  0
  1 47  1  0
 10  5  1  0
 43 22  1  0
 37 25  1  0
 31 26  1  0
M  END
>  <plip>  (1) 
-0.10344827586206896

>  <filename>  (1) 
[H][c]1[n][c]([H])[c]([C]2([c]3[n][o][c]([C]([H])([O][C]([H])([H])[C]4([H])[O][C]([H])([H])[C]([H])([H])[C]([H])([H])[C]4([H])[H])[C]([H])([H])[H])[n]3)[C]([H])([H])[C]2([H])[H])[c]([H])[c]1[H]

$$$$
