
     RDKit          3D

 28 30  0  0  0  0  0  0  0  0999 V2000
    6.9914    0.9033   22.6226 O   0  0  0  0  0  0  0  0  0  0  0  0
    7.4494   -0.1707   22.2854 C   0  0  0  0  0  0  0  0  0  0  0  0
    7.3401   -0.6729   21.0011 N   0  0  0  0  0  0  0  0  0  0  0  0
    6.6777   -0.0268   19.9210 C   0  0  0  0  0  0  0  0  0  0  0  0
    5.4611    0.6289   20.1565 C   0  0  0  0  0  0  0  0  0  0  0  0
    4.8215    1.2810   19.0980 C   0  0  0  0  0  0  0  0  0  0  0  0
    5.4225    1.2713   17.8360 C   0  0  0  0  0  0  0  0  0  0  0  0
    6.5791    0.6374   17.5829 N   0  0  0  0  0  0  0  0  0  0  0  0
    7.1868    0.0036   18.5983 C   0  0  0  0  0  0  0  0  0  0  0  0
    8.1400   -0.4676   18.3521 H   0  0  0  0  0  0  0  0  0  0  0  0
    4.9574    1.7935   17.0022 H   0  0  0  0  0  0  0  0  0  0  0  0
    3.8928    1.8219   19.2560 H   0  0  0  0  0  0  0  0  0  0  0  0
    5.0619    0.6465   21.1665 H   0  0  0  0  0  0  0  0  0  0  0  0
    8.0189   -1.3916   20.8004 H   0  0  0  0  0  0  0  0  0  0  0  0
    8.1406   -1.0711   23.2535 C   0  0  0  0  0  0  0  0  0  0  0  0
    9.3228   -1.7774   22.9430 C   0  0  0  0  0  0  0  0  0  0  0  0
   10.0753   -1.7108   21.7869 N   0  0  0  0  0  0  0  0  0  0  0  0
   11.1656   -2.3722   22.0509 C   0  0  0  0  0  0  0  0  0  0  0  0
   11.1516   -2.9603   23.2810 N   0  0  0  0  0  0  0  0  0  0  0  0
    9.9811   -2.5657   23.9057 C   0  0  0  0  0  0  0  0  0  0  0  0
    9.4878   -2.6772   25.2121 C   0  0  0  0  0  0  0  0  0  0  0  0
    8.3622   -1.9278   25.5419 C   0  0  0  0  0  0  0  0  0  0  0  0
    7.7111   -1.1441   24.5772 C   0  0  0  0  0  0  0  0  0  0  0  0
    6.6301   -0.4671   24.9744 F   0  0  0  0  0  0  0  0  0  0  0  0
    7.9780   -1.8939   26.5523 H   0  0  0  0  0  0  0  0  0  0  0  0
    9.9843   -3.2869   25.9597 H   0  0  0  0  0  0  0  0  0  0  0  0
   11.8856   -3.5404   23.6506 H   0  0  0  0  0  0  0  0  0  0  0  0
   12.0230   -2.4341   21.3920 H   0  0  0  0  0  0  0  0  0  0  0  0
  1  2  2  0
  2  3  1  0
  3  4  1  0
  4  5  2  0
  5  6  1  0
  6  7  2  0
  7  8  1  0
  8  9  2  0
  9 10  1  0
  7 11  1  0
  6 12  1  0
  5 13  1  0
  3 14  1  0
  2 15  1  0
 15 16  2  0
 16 17  1  0
 17 18  2  0
 18 19  1  0
 19 20  1  0
 20 21  2  0
 21 22  1  0
 22 23  2  0
 23 24  1  0
 22 25  1  0
 21 26  1  0
 19 27  1  0
 18 28  1  0
  9  4  1  0
 23 15  1  0
 20 16  1  0
M  END
>  <plip>  (1) 
-0.0

>  <filename>  (1) 
[H][c]1[n][c]([H])[c]([N]([H])[C](=[O])[c]2[c]([F])[c]([H])[c]([H])[c]3[c]2[n][c]([H])[n]3[H])[c]([H])[c]1[H]

$$$$
