
     RDKit          3D

 45 47  0  0  0  0  0  0  0  0999 V2000
    5.0168    1.7659   16.9565 H   0  0  0  0  0  0  0  0  0  0  0  0
    5.4370    1.2980   17.8442 C   0  0  0  0  0  0  0  0  0  0  0  0
    6.5980    0.6538   17.6644 N   0  0  0  0  0  0  0  0  0  0  0  0
    7.1468    0.0660   18.7388 C   0  0  0  0  0  0  0  0  0  0  0  0
    8.0781   -0.4698   18.5396 H   0  0  0  0  0  0  0  0  0  0  0  0
    6.6068    0.0878   20.0449 C   0  0  0  0  0  0  0  0  0  0  0  0
    7.3093   -0.6253   21.2212 C   0  0  1  0  0  0  0  0  0  0  0  0
    6.6342   -0.6128   22.0892 H   0  0  0  0  0  0  0  0  0  0  0  0
    7.6160   -2.0819   20.8252 C   0  0  0  0  0  0  0  0  0  0  0  0
    8.3329   -1.9706   20.0120 H   0  0  0  0  0  0  0  0  0  0  0  0
    6.7329   -2.5911   20.4335 H   0  0  0  0  0  0  0  0  0  0  0  0
    8.3059   -2.8990   21.9148 C   0  0  0  0  0  0  0  0  0  0  0  0
    7.6715   -2.9304   22.8242 H   0  0  0  0  0  0  0  0  0  0  0  0
    8.4431   -3.9350   21.5792 H   0  0  0  0  0  0  0  0  0  0  0  0
    9.6123   -2.2904   22.1372 N   0  0  0  0  0  0  0  0  0  0  0  0
   10.1916   -2.8463   22.7586 H   0  0  0  0  0  0  0  0  0  0  0  0
    9.4969   -0.9047   22.6276 C   0  0  0  0  0  0  0  0  0  0  0  0
    9.0370   -0.8242   23.6310 H   0  0  0  0  0  0  0  0  0  0  0  0
   10.5041   -0.4693   22.6754 H   0  0  0  0  0  0  0  0  0  0  0  0
    8.6722    0.0186   21.6848 C   0  0  2  0  0  0  0  0  0  0  0  0
    9.2893    0.1156   20.7787 H   0  0  0  0  0  0  0  0  0  0  0  0
    8.5685    1.3447   22.3116 N   0  0  0  0  0  0  0  0  0  0  0  0
    7.6742    1.4353   22.7917 H   0  0  0  0  0  0  0  0  0  0  0  0
    8.7118    2.4488   21.3631 C   0  0  0  0  0  0  0  0  0  0  0  0
    8.0659    2.3097   20.4806 H   0  0  0  0  0  0  0  0  0  0  0  0
    9.7540    2.4104   21.0037 H   0  0  0  0  0  0  0  0  0  0  0  0
    8.4329    3.7881   21.9984 C   0  0  0  0  0  0  0  0  0  0  0  0
    9.4213    4.4428   22.7596 C   0  0  0  0  0  0  0  0  0  0  0  0
   10.3475    3.9180   23.0004 H   0  0  0  0  0  0  0  0  0  0  0  0
    9.2363    5.7555   23.1915 C   0  0  0  0  0  0  0  0  0  0  0  0
   10.0136    6.2999   23.7178 H   0  0  0  0  0  0  0  0  0  0  0  0
    8.0199    6.4148   22.9283 C   0  0  0  0  0  0  0  0  0  0  0  0
    7.9338    7.7011   23.3627 O   0  0  0  0  0  0  0  0  0  0  0  0
    6.8045    8.4737   22.9951 C   0  0  0  0  0  0  0  0  0  0  0  0
    6.9640    9.4615   23.4277 H   0  0  0  0  0  0  0  0  0  0  0  0
    6.7024    8.5613   21.9036 H   0  0  0  0  0  0  0  0  0  0  0  0
    5.8766    8.0491   23.3987 H   0  0  0  0  0  0  0  0  0  0  0  0
    6.9860    5.7311   22.2758 C   0  0  0  0  0  0  0  0  0  0  0  0
    6.0208    6.2030   22.1239 H   0  0  0  0  0  0  0  0  0  0  0  0
    7.2032    4.4330   21.8107 C   0  0  0  0  0  0  0  0  0  0  0  0
    6.3867    3.9389   21.2801 H   0  0  0  0  0  0  0  0  0  0  0  0
    5.3708    0.7507   20.1893 C   0  0  0  0  0  0  0  0  0  0  0  0
    4.8711    0.7833   21.1584 H   0  0  0  0  0  0  0  0  0  0  0  0
    4.7800    1.3653   19.0750 C   0  0  0  0  0  0  0  0  0  0  0  0
    3.8341    1.8957   19.1421 H   0  0  0  0  0  0  0  0  0  0  0  0
  1  2  1  0
  2  3  2  0
  3  4  1  0
  4  5  1  0
  4  6  2  0
  6  7  1  0
  7  8  1  1
  7  9  1  0
  9 10  1  0
  9 11  1  0
  9 12  1  0
 12 13  1  0
 12 14  1  0
 12 15  1  0
 15 16  1  0
 15 17  1  0
 17 18  1  0
 17 19  1  0
 17 20  1  0
 20 21  1  6
 20 22  1  0
 22 23  1  0
 22 24  1  0
 24 25  1  0
 24 26  1  0
 24 27  1  0
 27 28  2  0
 28 29  1  0
 28 30  1  0
 30 31  1  0
 30 32  2  0
 32 33  1  0
 33 34  1  0
 34 35  1  0
 34 36  1  0
 34 37  1  0
 32 38  1  0
 38 39  1  0
 38 40  2  0
 40 41  1  0
  6 42  1  0
 42 43  1  0
 42 44  2  0
 44 45  1  0
 44  2  1  0
 20  7  1  0
 40 27  1  0
M  END
>  <plip>  (1) 
-0.06896551724137931

>  <filename>  (1) 
[H][c]1[n][c]([H])[c]([C@@]2([H])[C]([H])([H])[C]([H])([H])[N]([H])[C]([H])([H])[C@]2([H])[N]([H])[C]([H])([H])[c]2[c]([H])[c]([H])[c]([O][C]([H])([H])[H])[c]([H])[c]2[H])[c]([H])[c]1[H]

$$$$
