
     RDKit          3D

 24 25  0  0  0  0  0  0  0  0999 V2000
    4.9284    1.7771   17.0036 H   0  0  0  0  0  0  0  0  0  0  0  0
    5.4109    1.2852   17.8427 C   0  0  0  0  0  0  0  0  0  0  0  0
    6.5754    0.6684   17.5806 N   0  0  0  0  0  0  0  0  0  0  0  0
    7.1963    0.0458   18.5918 C   0  0  0  0  0  0  0  0  0  0  0  0
    8.1450   -0.4342   18.3403 H   0  0  0  0  0  0  0  0  0  0  0  0
    6.6636    0.0091   19.8985 C   0  0  0  0  0  0  0  0  0  0  0  0
    7.2753   -0.6175   20.9982 N   0  0  0  0  0  0  0  0  0  0  0  0
    8.2724   -1.3108   20.8077 N   0  0  0  0  0  0  0  0  0  0  0  0
    9.2271   -2.0291   22.0318 S   0  0  0  0  0  0  0  0  0  0  0  0
   10.1644   -0.6099   22.6202 C   0  0  0  0  0  0  0  0  0  0  0  0
   11.4226   -0.3905   22.0434 C   0  0  0  0  0  0  0  0  0  0  0  0
   11.7953   -1.1262   21.3331 H   0  0  0  0  0  0  0  0  0  0  0  0
   12.1390    0.7623   22.3689 C   0  0  0  0  0  0  0  0  0  0  0  0
   13.1217    0.9244   21.9345 H   0  0  0  0  0  0  0  0  0  0  0  0
   11.5934    1.6959   23.2590 C   0  0  0  0  0  0  0  0  0  0  0  0
   12.1599    2.5879   23.5134 H   0  0  0  0  0  0  0  0  0  0  0  0
   10.3258    1.4861   23.8167 C   0  0  0  0  0  0  0  0  0  0  0  0
    9.9008    2.2168   24.5024 H   0  0  0  0  0  0  0  0  0  0  0  0
    9.6017    0.3297   23.4960 C   0  0  0  0  0  0  0  0  0  0  0  0
    8.6034    0.1581   23.8929 H   0  0  0  0  0  0  0  0  0  0  0  0
    5.4486    0.6469   20.1654 C   0  0  0  0  0  0  0  0  0  0  0  0
    5.0311    0.6187   21.1734 H   0  0  0  0  0  0  0  0  0  0  0  0
    4.8173    1.3010   19.1118 C   0  0  0  0  0  0  0  0  0  0  0  0
    3.8863    1.8326   19.2639 H   0  0  0  0  0  0  0  0  0  0  0  0
  1  2  1  0
  2  3  2  0
  3  4  1  0
  4  5  1  0
  4  6  2  0
  6  7  1  0
  7  8  2  3
  8  9  1  0
  9 10  1  0
 10 11  2  0
 11 12  1  0
 11 13  1  0
 13 14  1  0
 13 15  2  0
 15 16  1  0
 15 17  1  0
 17 18  1  0
 17 19  2  0
 19 20  1  0
  6 21  1  0
 21 22  1  0
 21 23  2  0
 23 24  1  0
 23  2  1  0
 19 10  1  0
M  END
>  <plip>  (1) 
-0.03571428571428571

>  <filename>  (1) 
[H][c]1[n][c]([H])[c]([N]=[N][S][c]2[c]([H])[c]([H])[c]([H])[c]([H])[c]2[H])[c]([H])[c]1[H]

$$$$
