
     RDKit          3D

 26 27  0  0  0  0  0  0  0  0999 V2000
    5.0026    1.7590   16.8934 H   0  0  0  0  0  0  0  0  0  0  0  0
    5.4714    1.2989   17.7614 C   0  0  0  0  0  0  0  0  0  0  0  0
    6.6433    0.6824   17.5385 N   0  0  0  0  0  0  0  0  0  0  0  0
    7.2290    0.0730   18.5762 C   0  0  0  0  0  0  0  0  0  0  0  0
    8.1639   -0.4476   18.3728 H   0  0  0  0  0  0  0  0  0  0  0  0
    6.6835    0.0561   19.8690 C   0  0  0  0  0  0  0  0  0  0  0  0
    7.5655   -0.7704   21.1822 S   0  0  0  0  0  0  0  0  0  0  0  0
    8.3569    0.5173   21.9257 N   0  0  0  0  0  0  0  0  0  0  0  0
    9.2203    0.8086   21.4840 H   0  0  0  0  0  0  0  0  0  0  0  0
    7.8759    1.3186   22.9827 C   0  0  0  0  0  0  0  0  0  0  0  0
    8.1911    2.7104   23.1915 C   0  0  0  0  0  0  0  0  0  0  0  0
    9.0612    3.5626   22.3216 C   0  0  0  0  0  0  0  0  0  0  0  0
   10.1178    3.3846   22.5521 H   0  0  0  0  0  0  0  0  0  0  0  0
    8.8473    4.6281   22.4511 H   0  0  0  0  0  0  0  0  0  0  0  0
    8.9083    3.2929   21.2707 H   0  0  0  0  0  0  0  0  0  0  0  0
    7.6380    3.1669   24.2848 N   0  0  0  0  0  0  0  0  0  0  0  0
    6.9541    2.1001   24.8336 O   0  0  0  0  0  0  0  0  0  0  0  0
    7.0994    0.9964   24.0697 C   0  0  0  0  0  0  0  0  0  0  0  0
    6.5152   -0.2731   24.6032 C   0  0  0  0  0  0  0  0  0  0  0  0
    7.2985   -0.8908   25.0643 H   0  0  0  0  0  0  0  0  0  0  0  0
    6.0995   -0.8706   23.7875 H   0  0  0  0  0  0  0  0  0  0  0  0
    5.7422   -0.0631   25.3524 H   0  0  0  0  0  0  0  0  0  0  0  0
    5.4605    0.6928   20.0956 C   0  0  0  0  0  0  0  0  0  0  0  0
    5.0236    0.6957   21.0980 H   0  0  0  0  0  0  0  0  0  0  0  0
    4.8384    1.3181   19.0128 C   0  0  0  0  0  0  0  0  0  0  0  0
    3.8850    1.8197   19.1244 H   0  0  0  0  0  0  0  0  0  0  0  0
  1  2  1  0
  2  3  2  0
  3  4  1  0
  4  5  1  0
  4  6  2  0
  6  7  1  0
  7  8  1  0
  8  9  1  0
  8 10  1  0
 10 11  1  0
 11 12  1  0
 12 13  1  0
 12 14  1  0
 12 15  1  0
 11 16  2  0
 16 17  1  0
 17 18  1  0
 18 19  1  0
 19 20  1  0
 19 21  1  0
 19 22  1  0
  6 23  1  0
 23 24  1  0
 23 25  2  0
 25 26  1  0
 25  2  1  0
 18 10  2  0
M  END
>  <plip>  (1) 
-0.0

>  <filename>  (1) 
[H][c]1[n][c]([H])[c]([S][N]([H])[c]2[c]([C]([H])([H])[H])[n][o][c]2[C]([H])([H])[H])[c]([H])[c]1[H]

$$$$
