
     RDKit          3D

 41 44  0  0  0  0  0  0  0  0999 V2000
    5.0068    1.8405   17.2517 H   0  0  0  0  0  0  0  0  0  0  0  0
    5.4947    1.1932   17.9797 C   0  0  0  0  0  0  0  0  0  0  0  0
    6.5916    0.5428   17.5604 N   0  0  0  0  0  0  0  0  0  0  0  0
    7.2394   -0.2123   18.4560 C   0  0  0  0  0  0  0  0  0  0  0  0
    8.1278   -0.7204   18.0786 H   0  0  0  0  0  0  0  0  0  0  0  0
    6.8418   -0.3665   19.8030 C   0  0  0  0  0  0  0  0  0  0  0  0
    7.7276   -1.0018   20.7926 C   0  0  0  0  0  0  0  0  0  0  0  0
    9.0809   -0.8502   21.0131 C   0  0  0  0  0  0  0  0  0  0  0  0
    9.7614   -0.3087   20.3621 H   0  0  0  0  0  0  0  0  0  0  0  0
    9.5001   -1.4096   22.1926 N   0  0  0  0  0  0  0  0  0  0  0  0
    8.3922   -1.8980   22.7007 C   0  0  0  0  0  0  0  0  0  0  0  0
    7.8709   -2.6298   24.1899 S   0  0  0  0  0  0  0  0  0  0  0  0
    6.2256   -2.5817   23.5582 C   0  0  0  0  0  0  0  0  0  0  0  0
    5.0388   -2.9724   24.3870 C   0  0  0  0  0  0  0  0  0  0  0  0
    4.4694   -2.0864   24.6774 H   0  0  0  0  0  0  0  0  0  0  0  0
    5.3879   -3.3913   25.3307 H   0  0  0  0  0  0  0  0  0  0  0  0
    4.0977   -3.9425   23.6683 C   0  0  0  0  0  0  0  0  0  0  0  0
    3.0825   -3.8841   24.1077 H   0  0  0  0  0  0  0  0  0  0  0  0
    4.0036   -3.6456   22.6169 H   0  0  0  0  0  0  0  0  0  0  0  0
    4.6158   -5.2917   23.7659 N   0  0  0  0  0  0  0  0  0  0  0  0
    4.1575   -6.2748   22.7773 C   0  0  0  0  0  0  0  0  0  0  0  0
    3.1622   -6.0377   22.3602 H   0  0  0  0  0  0  0  0  0  0  0  0
    4.8511   -6.2993   21.9239 H   0  0  0  0  0  0  0  0  0  0  0  0
    4.1261   -7.6177   23.5238 C   0  0  0  0  0  0  0  0  0  0  0  0
    5.0836   -8.1363   23.4057 H   0  0  0  0  0  0  0  0  0  0  0  0
    3.3357   -8.2842   23.1545 H   0  0  0  0  0  0  0  0  0  0  0  0
    3.9083   -7.2206   24.9814 C   0  0  0  0  0  0  0  0  0  0  0  0
    4.2863   -7.9456   25.7076 H   0  0  0  0  0  0  0  0  0  0  0  0
    2.8373   -7.1033   25.1842 H   0  0  0  0  0  0  0  0  0  0  0  0
    4.6050   -5.8580   25.1239 C   0  0  1  0  0  0  0  0  0  0  0  0
    4.0057   -5.2355   25.8088 H   0  0  0  0  0  0  0  0  0  0  0  0
    6.0239   -5.9203   25.6925 C   0  0  0  0  0  0  0  0  0  0  0  0
    6.0582   -6.5147   26.6118 H   0  0  0  0  0  0  0  0  0  0  0  0
    6.7161   -6.3227   24.9519 H   0  0  0  0  0  0  0  0  0  0  0  0
    6.3963   -4.9254   25.9488 H   0  0  0  0  0  0  0  0  0  0  0  0
    6.0973   -2.1223   22.3545 N   0  0  0  0  0  0  0  0  0  0  0  0
    7.3060   -1.7112   21.9043 N   0  0  0  0  0  0  0  0  0  0  0  0
    5.6290    0.2351   20.1802 C   0  0  0  0  0  0  0  0  0  0  0  0
    5.2330    0.0518   21.1773 H   0  0  0  0  0  0  0  0  0  0  0  0
    4.9673    1.0537   19.2671 C   0  0  0  0  0  0  0  0  0  0  0  0
    4.0678    1.5922   19.5426 H   0  0  0  0  0  0  0  0  0  0  0  0
  1  2  1  0
  2  3  2  0
  3  4  1  0
  4  5  1  0
  4  6  2  0
  6  7  1  0
  7  8  2  0
  8  9  1  0
  8 10  1  0
 10 11  2  0
 11 12  1  0
 12 13  1  0
 13 14  1  0
 14 15  1  0
 14 16  1  0
 14 17  1  0
 17 18  1  0
 17 19  1  0
 17 20  1  0
 20 21  1  0
 21 22  1  0
 21 23  1  0
 21 24  1  0
 24 25  1  0
 24 26  1  0
 24 27  1  0
 27 28  1  0
 27 29  1  0
 27 30  1  0
 30 31  1  1
 30 32  1  0
 32 33  1  0
 32 34  1  0
 32 35  1  0
 13 36  2  0
 36 37  1  0
  6 38  1  0
 38 39  1  0
 38 40  2  0
 40 41  1  0
 40  2  1  0
 37  7  1  0
 37 11  1  0
 30 20  1  0
M  END
>  <plip>  (1) 
-0.034482758620689655

>  <filename>  (1) 
[H][c]1[n][c]([H])[c](-[c]2[c]([H])[n][c]3[s][c]([C]([H])([H])[C]([H])([H])[N]4[C]([H])([H])[C]([H])([H])[C]([H])([H])[C@@]4([H])[C]([H])([H])[H])[n][n]23)[c]([H])[c]1[H]

$$$$
