
     RDKit          3D

 53 56  0  0  0  0  0  0  0  0999 V2000
    7.0008    3.4104   23.1469 C   0  0  0  0  0  0  0  0  0  0  0  0
    7.2423    2.1550   23.9708 C   0  0  0  0  0  0  0  0  0  0  0  0
    6.9548    0.9444   23.2183 O   0  0  0  0  0  0  0  0  0  0  0  0
    7.8052    0.6230   22.2320 C   0  0  0  0  0  0  0  0  0  0  0  0
    8.8235    1.2302   21.9887 O   0  0  0  0  0  0  0  0  0  0  0  0
    7.3610   -0.6301   21.3242 C   0  0  0  0  0  0  0  0  0  0  0  0
    8.6651   -1.3703   20.9418 C   0  0  0  0  0  0  0  0  0  0  0  0
    9.3378   -0.7174   20.3789 H   0  0  0  0  0  0  0  0  0  0  0  0
    8.3945   -2.2533   20.3704 H   0  0  0  0  0  0  0  0  0  0  0  0
    9.1761   -1.7169   21.8411 H   0  0  0  0  0  0  0  0  0  0  0  0
    6.4561   -1.6324   21.9159 N   0  0  0  0  0  0  0  0  0  0  0  0
    6.7362   -2.3345   23.0446 C   0  0  0  0  0  0  0  0  0  0  0  0
    7.8007   -2.2227   23.6330 O   0  0  0  0  0  0  0  0  0  0  0  0
    5.6490   -3.2129   23.5493 C   0  0  0  0  0  0  0  0  0  0  0  0
    4.4671   -3.6502   23.0002 C   0  0  0  0  0  0  0  0  0  0  0  0
    3.6536   -4.3388   23.9308 C   0  0  0  0  0  0  0  0  0  0  0  0
    4.2369   -4.4993   25.1695 C   0  0  0  0  0  0  0  0  0  0  0  0
    3.7002   -5.2601   26.3144 C   0  0  0  0  0  0  0  0  0  0  0  0
    4.4090   -5.4559   27.5237 C   0  0  0  0  0  0  0  0  0  0  0  0
    3.8795   -6.2478   28.5423 C   0  0  0  0  0  0  0  0  0  0  0  0
    2.6377   -6.8623   28.3806 C   0  0  0  0  0  0  0  0  0  0  0  0
    2.1363   -7.6314   29.3963 O   0  0  0  0  0  0  0  0  0  0  0  0
    1.0812   -8.5146   28.9980 C   0  0  0  0  0  0  0  0  0  0  0  0
    0.0668   -7.7636   28.1399 C   0  0  0  0  0  0  0  0  0  0  0  0
    0.6976   -7.2572   26.9621 O   0  0  0  0  0  0  0  0  0  0  0  0
    1.9093   -6.6577   27.1842 C   0  0  0  0  0  0  0  0  0  0  0  0
    2.4378   -5.8624   26.1831 C   0  0  0  0  0  0  0  0  0  0  0  0
    1.8376   -5.7305   25.2907 H   0  0  0  0  0  0  0  0  0  0  0  0
   -0.3591   -6.9311   28.7164 H   0  0  0  0  0  0  0  0  0  0  0  0
   -0.7364   -8.4165   27.7932 H   0  0  0  0  0  0  0  0  0  0  0  0
    1.5032   -9.3516   28.4251 H   0  0  0  0  0  0  0  0  0  0  0  0
    0.6274   -8.8875   29.9183 H   0  0  0  0  0  0  0  0  0  0  0  0
    4.4214   -6.4083   29.4683 H   0  0  0  0  0  0  0  0  0  0  0  0
    5.3769   -4.9918   27.6768 H   0  0  0  0  0  0  0  0  0  0  0  0
    5.8011   -3.7548   25.1813 S   0  0  0  0  0  0  0  0  0  0  0  0
    2.6524   -4.6762   23.6766 H   0  0  0  0  0  0  0  0  0  0  0  0
    4.2003   -3.5542   21.9506 H   0  0  0  0  0  0  0  0  0  0  0  0
    5.5063   -1.6667   21.5787 H   0  0  0  0  0  0  0  0  0  0  0  0
    6.5975   -0.0629   20.1068 C   0  0  0  0  0  0  0  0  0  0  0  0
    5.3676    0.6126   20.2489 C   0  0  0  0  0  0  0  0  0  0  0  0
    4.8028    1.2409   19.1353 C   0  0  0  0  0  0  0  0  0  0  0  0
    5.4695    1.1623   17.9066 C   0  0  0  0  0  0  0  0  0  0  0  0
    6.6019    0.4737   17.7333 N   0  0  0  0  0  0  0  0  0  0  0  0
    7.1275   -0.1277   18.8092 C   0  0  0  0  0  0  0  0  0  0  0  0
    8.0393   -0.6873   18.6137 H   0  0  0  0  0  0  0  0  0  0  0  0
    5.0721    1.6642   17.0253 H   0  0  0  0  0  0  0  0  0  0  0  0
    3.8762    1.8033   19.2008 H   0  0  0  0  0  0  0  0  0  0  0  0
    4.8619    0.6720   21.2171 H   0  0  0  0  0  0  0  0  0  0  0  0
    8.2729    2.1100   24.3422 H   0  0  0  0  0  0  0  0  0  0  0  0
    6.5556    2.0838   24.8183 H   0  0  0  0  0  0  0  0  0  0  0  0
    7.1666    4.2952   23.7715 H   0  0  0  0  0  0  0  0  0  0  0  0
    7.6876    3.4647   22.2966 H   0  0  0  0  0  0  0  0  0  0  0  0
    5.9732    3.4273   22.7698 H   0  0  0  0  0  0  0  0  0  0  0  0
  1  2  1  0
  2  3  1  0
  3  4  1  0
  4  5  2  0
  4  6  1  0
  6  7  1  0
  7  8  1  0
  7  9  1  0
  7 10  1  0
  6 11  1  0
 11 12  1  0
 12 13  2  0
 12 14  1  0
 14 15  2  0
 15 16  1  0
 16 17  2  0
 17 18  1  0
 18 19  2  0
 19 20  1  0
 20 21  2  0
 21 22  1  0
 22 23  1  0
 23 24  1  0
 24 25  1  0
 25 26  1  0
 26 27  2  0
 27 28  1  0
 24 29  1  0
 24 30  1  0
 23 31  1  0
 23 32  1  0
 20 33  1  0
 19 34  1  0
 17 35  1  0
 16 36  1  0
 15 37  1  0
 11 38  1  0
  6 39  1  0
 39 40  2  0
 40 41  1  0
 41 42  2  0
 42 43  1  0
 43 44  2  0
 44 45  1  0
 42 46  1  0
 41 47  1  0
 40 48  1  0
  2 49  1  0
  2 50  1  0
  1 51  1  0
  1 52  1  0
  1 53  1  0
 35 14  1  0
 44 39  1  0
 27 18  1  0
 26 21  1  0
M  END
>  <plip>  (1) 
-0.10344827586206896

>  <filename>  (1) 
[H][c]1[n][c]([H])[c]([C]([C](=[O])[O][C]([H])([H])[C]([H])([H])[H])([N]([H])[C](=[O])[c]2[s][c](-[c]3[c]([H])[c]([H])[c]4[c]([c]3[H])[O][C]([H])([H])[C]([H])([H])[O]4)[c]([H])[c]2[H])[C]([H])([H])[H])[c]([H])[c]1[H]

$$$$
