
     RDKit          3D

 37 39  0  0  0  0  0  0  0  0999 V2000
    4.9278    1.8203   16.9736 H   0  0  0  0  0  0  0  0  0  0  0  0
    5.3811    1.3066   17.8216 C   0  0  0  0  0  0  0  0  0  0  0  0
    6.5403    0.6824   17.5728 N   0  0  0  0  0  0  0  0  0  0  0  0
    7.1379    0.0570   18.5933 C   0  0  0  0  0  0  0  0  0  0  0  0
    8.0870   -0.4198   18.3498 H   0  0  0  0  0  0  0  0  0  0  0  0
    6.6214   -0.0069   19.8977 C   0  0  0  0  0  0  0  0  0  0  0  0
    7.4083   -0.6988   21.0051 C   0  0  0  0  0  0  0  0  0  0  0  0
    6.7747   -0.8386   21.8883 H   0  0  0  0  0  0  0  0  0  0  0  0
    7.6973   -1.7118   20.7009 H   0  0  0  0  0  0  0  0  0  0  0  0
    8.6609    0.0404   21.3624 C   0  0  0  0  0  0  0  0  0  0  0  0
    9.9634   -0.2558   21.0421 C   0  0  0  0  0  0  0  0  0  0  0  0
   10.2727   -1.1707   20.5580 H   0  0  0  0  0  0  0  0  0  0  0  0
   10.7755    0.8497   21.4129 C   0  0  0  0  0  0  0  0  0  0  0  0
   11.8514    0.9301   21.3078 H   0  0  0  0  0  0  0  0  0  0  0  0
    9.9339    1.7878   21.9513 C   0  0  0  0  0  0  0  0  0  0  0  0
   10.1169    2.7623   22.3781 H   0  0  0  0  0  0  0  0  0  0  0  0
    8.6456    1.2953   21.9521 N   0  0  0  0  0  0  0  0  0  0  0  0
    7.5123    2.0316   22.4501 C   0  0  0  0  0  0  0  0  0  0  0  0
    6.6368    1.4991   23.4167 C   0  0  0  0  0  0  0  0  0  0  0  0
    6.8530    0.5395   23.8821 H   0  0  0  0  0  0  0  0  0  0  0  0
    5.5238    2.2390   23.8237 C   0  0  0  0  0  0  0  0  0  0  0  0
    4.8821    1.8553   24.6173 H   0  0  0  0  0  0  0  0  0  0  0  0
    5.2578    3.4849   23.2483 C   0  0  0  0  0  0  0  0  0  0  0  0
    4.3789    4.0430   23.5628 H   0  0  0  0  0  0  0  0  0  0  0  0
    6.1256    4.0443   22.2906 C   0  0  0  0  0  0  0  0  0  0  0  0
    5.8630    5.4262   21.6906 C   0  0  0  0  0  0  0  0  0  0  0  0
    4.7831    5.6150   21.6012 H   0  0  0  0  0  0  0  0  0  0  0  0
    6.2704    5.4788   20.6736 H   0  0  0  0  0  0  0  0  0  0  0  0
    6.4813    6.5258   22.4417 N   0  0  0  0  0  0  0  0  0  0  0  0
    6.1951    6.4784   23.4177 H   0  0  0  0  0  0  0  0  0  0  0  0
    7.4841    6.3522   22.4253 H   0  0  0  0  0  0  0  0  0  0  0  0
    7.2939    3.3301   21.9667 C   0  0  0  0  0  0  0  0  0  0  0  0
    8.0748    3.7792   21.3511 H   0  0  0  0  0  0  0  0  0  0  0  0
    5.4124    0.6583   20.1361 C   0  0  0  0  0  0  0  0  0  0  0  0
    5.0062    0.6806   21.1486 H   0  0  0  0  0  0  0  0  0  0  0  0
    4.7733    1.3209   19.0801 C   0  0  0  0  0  0  0  0  0  0  0  0
    3.8411    1.8639   19.2096 H   0  0  0  0  0  0  0  0  0  0  0  0
  1  2  1  0
  2  3  2  0
  3  4  1  0
  4  5  1  0
  4  6  2  0
  6  7  1  0
  7  8  1  0
  7  9  1  0
  7 10  1  0
 10 11  2  0
 11 12  1  0
 11 13  1  0
 13 14  1  0
 13 15  2  0
 15 16  1  0
 15 17  1  0
 17 18  1  0
 18 19  2  0
 19 20  1  0
 19 21  1  0
 21 22  1  0
 21 23  2  0
 23 24  1  0
 23 25  1  0
 25 26  1  0
 26 27  1  0
 26 28  1  0
 26 29  1  0
 29 30  1  0
 29 31  1  0
 25 32  2  0
 32 33  1  0
  6 34  1  0
 34 35  1  0
 34 36  2  0
 36 37  1  0
 36  2  1  0
 17 10  1  0
 32 18  1  0
M  END
>  <plip>  (1) 
-0.10714285714285714

>  <filename>  (1) 
[H][c]1[n][c]([H])[c]([C]([H])([H])[c]2[c]([H])[c]([H])[c]([H])[n]2-[c]2[c]([H])[c]([H])[c]([H])[c]([C]([H])([H])[N]([H])[H])[c]2[H])[c]([H])[c]1[H]

$$$$
