
     RDKit          3D

 32 33  0  0  0  0  0  0  0  0999 V2000
    6.1742    4.5584   23.6953 N   0  0  0  0  0  0  0  0  0  0  0  0
    6.9304    3.7350   22.9440 C   0  0  0  0  0  0  0  0  0  0  0  0
    6.3566    3.1582   22.0185 O   0  0  0  0  0  0  0  0  0  0  0  0
    8.3504    3.4669   23.3124 C   0  0  0  0  0  0  0  0  0  0  0  0
    9.2170    4.4217   23.8672 C   0  0  0  0  0  0  0  0  0  0  0  0
    8.7952    6.1183   23.9597 Cl  0  0  0  0  0  0  0  0  0  0  0  0
   10.4739    4.0749   24.3587 C   0  0  0  0  0  0  0  0  0  0  0  0
   10.9015    2.7482   24.2933 C   0  0  0  0  0  0  0  0  0  0  0  0
   10.1041    1.7855   23.6811 C   0  0  0  0  0  0  0  0  0  0  0  0
    8.8828    2.1623   23.1153 C   0  0  0  0  0  0  0  0  0  0  0  0
    8.1278    1.2678   22.3664 N   0  0  0  0  0  0  0  0  0  0  0  0
    8.5672    0.1965   21.6308 C   0  0  0  0  0  0  0  0  0  0  0  0
    9.7305   -0.1194   21.4802 O   0  0  0  0  0  0  0  0  0  0  0  0
    7.4070   -0.6045   20.9976 C   0  0  0  0  0  0  0  0  0  0  0  0
    6.6556    0.0746   19.8552 C   0  0  0  0  0  0  0  0  0  0  0  0
    5.4739    0.7933   20.0815 C   0  0  0  0  0  0  0  0  0  0  0  0
    4.8300    1.3953   18.9974 C   0  0  0  0  0  0  0  0  0  0  0  0
    5.4024    1.2912   17.7303 C   0  0  0  0  0  0  0  0  0  0  0  0
    6.5388    0.6223   17.4885 N   0  0  0  0  0  0  0  0  0  0  0  0
    7.1360    0.0349   18.5304 C   0  0  0  0  0  0  0  0  0  0  0  0
    8.0732   -0.4789   18.3177 H   0  0  0  0  0  0  0  0  0  0  0  0
    4.9267    1.7547   16.8711 H   0  0  0  0  0  0  0  0  0  0  0  0
    3.9084    1.9470   19.1276 H   0  0  0  0  0  0  0  0  0  0  0  0
    5.0919    0.9284   21.0941 H   0  0  0  0  0  0  0  0  0  0  0  0
    7.8501   -1.5499   20.6730 H   0  0  0  0  0  0  0  0  0  0  0  0
    6.6934   -0.8582   21.7939 H   0  0  0  0  0  0  0  0  0  0  0  0
    7.2804    1.7068   22.0129 H   0  0  0  0  0  0  0  0  0  0  0  0
   10.4156    0.7519   23.6116 H   0  0  0  0  0  0  0  0  0  0  0  0
   11.8714    2.4786   24.7025 H   0  0  0  0  0  0  0  0  0  0  0  0
   11.0851    4.8535   24.7898 H   0  0  0  0  0  0  0  0  0  0  0  0
    5.3181    4.7252   23.1938 H   0  0  0  0  0  0  0  0  0  0  0  0
    6.5713    5.2809   24.2618 H   0  0  0  0  0  0  0  0  0  0  0  0
  1  2  1  0
  2  3  2  0
  2  4  1  0
  4  5  2  0
  5  6  1  0
  5  7  1  0
  7  8  2  0
  8  9  1  0
  9 10  2  0
 10 11  1  0
 11 12  1  0
 12 13  2  0
 12 14  1  0
 14 15  1  0
 15 16  2  0
 16 17  1  0
 17 18  2  0
 18 19  1  0
 19 20  2  0
 20 21  1  0
 18 22  1  0
 17 23  1  0
 16 24  1  0
 14 25  1  0
 14 26  1  0
 11 27  1  0
  9 28  1  0
  8 29  1  0
  7 30  1  0
  1 31  1  0
  1 32  1  0
 10  4  1  0
 20 15  1  0
M  END
>  <plip>  (1) 
-0.17857142857142858

>  <filename>  (1) 
[H][c]1[n][c]([H])[c]([C]([H])([H])[C](=[O])[N]([H])[c]2[c]([H])[c]([H])[c]([H])[c]([Cl])[c]2[C](=[O])[N]([H])[H])[c]([H])[c]1[H]

$$$$
