
     RDKit          3D

 21 22  0  0  0  0  0  0  0  0999 V2000
    9.4148   -2.4223   24.9696 H   0  0  0  0  0  0  0  0  0  0  0  0
    9.4925   -2.8232   23.9414 C   0  0  0  0  0  0  0  0  0  0  0  0
   10.1413   -3.8130   23.6908 O   0  0  0  0  0  0  0  0  0  0  0  0
    8.7390   -2.0582   22.9022 C   0  0  0  0  0  0  0  0  0  0  0  0
    8.0459   -0.9597   23.2946 N   0  0  0  0  0  0  0  0  0  0  0  0
    7.3822   -0.3133   22.3229 C   0  0  0  0  0  0  0  0  0  0  0  0
    6.8367    0.5823   22.5996 H   0  0  0  0  0  0  0  0  0  0  0  0
    7.4068   -0.7312   20.9606 C   0  0  0  0  0  0  0  0  0  0  0  0
    6.6626   -0.0083   19.9042 C   0  0  0  0  0  0  0  0  0  0  0  0
    7.1760    0.0458   18.5962 C   0  0  0  0  0  0  0  0  0  0  0  0
    8.1237   -0.4359   18.3722 H   0  0  0  0  0  0  0  0  0  0  0  0
    6.5709    0.6776   17.5870 N   0  0  0  0  0  0  0  0  0  0  0  0
    5.4053    1.2886   17.8470 C   0  0  0  0  0  0  0  0  0  0  0  0
    4.9186    1.7765   17.0041 H   0  0  0  0  0  0  0  0  0  0  0  0
    4.8109    1.3047   19.1125 C   0  0  0  0  0  0  0  0  0  0  0  0
    3.8796    1.8398   19.2628 H   0  0  0  0  0  0  0  0  0  0  0  0
    5.4494    0.6480   20.1633 C   0  0  0  0  0  0  0  0  0  0  0  0
    4.9988    0.6313   21.1591 H   0  0  0  0  0  0  0  0  0  0  0  0
    8.1322   -1.8055   20.5847 N   0  0  0  0  0  0  0  0  0  0  0  0
    8.7708   -2.4746   21.5563 C   0  0  0  0  0  0  0  0  0  0  0  0
    9.3364   -3.3468   21.2656 H   0  0  0  0  0  0  0  0  0  0  0  0
  1  2  1  0
  2  3  2  0
  2  4  1  0
  4  5  2  0
  5  6  1  0
  6  7  1  0
  6  8  2  0
  8  9  1  0
  9 10  2  0
 10 11  1  0
 10 12  1  0
 12 13  2  0
 13 14  1  0
 13 15  1  0
 15 16  1  0
 15 17  2  0
 17 18  1  0
  8 19  1  0
 19 20  2  0
 20 21  1  0
 20  4  1  0
 17  9  1  0
M  END
>  <plip>  (1) 
-0.034482758620689655

>  <filename>  (1) 
[H][C](=[O])[c]1[n][c]([H])[c](-[c]2[c]([H])[n][c]([H])[c]([H])[c]2[H])[n][c]1[H]

$$$$
