
     RDKit          3D

 38 42  0  0  0  0  0  0  0  0999 V2000
    5.2983    2.5180   16.4283 H   0  0  0  0  0  0  0  0  0  0  0  0
    5.4286    1.7564   17.1908 C   0  0  0  0  0  0  0  0  0  0  0  0
    6.4347    0.8948   16.9818 N   0  0  0  0  0  0  0  0  0  0  0  0
    6.6487   -0.0248   17.9223 C   0  0  0  0  0  0  0  0  0  0  0  0
    7.4611   -0.7257   17.7391 H   0  0  0  0  0  0  0  0  0  0  0  0
    5.8931   -0.1300   19.1004 C   0  0  0  0  0  0  0  0  0  0  0  0
    6.3684   -1.0327   20.1650 C   0  0  0  0  0  0  0  0  0  0  0  0
    5.6233   -1.7080   20.9866 N   0  0  0  0  0  0  0  0  0  0  0  0
    6.3437   -2.3362   21.9682 N   0  0  0  0  0  0  0  0  0  0  0  0
    7.6195   -2.0822   21.8962 C   0  0  0  0  0  0  0  0  0  0  0  0
    8.6595   -2.5273   22.8761 C   0  0  0  0  0  0  0  0  0  0  0  0
    9.8954   -1.6697   22.9217 C   0  0  0  0  0  0  0  0  0  0  0  0
   10.8854   -1.8169   21.9719 C   0  0  0  0  0  0  0  0  0  0  0  0
   10.6835   -2.4645   21.1317 H   0  0  0  0  0  0  0  0  0  0  0  0
   12.1275   -1.1296   22.0654 C   0  0  0  0  0  0  0  0  0  0  0  0
   12.8727   -1.2728   21.2837 H   0  0  0  0  0  0  0  0  0  0  0  0
   12.3956   -0.3371   23.1587 C   0  0  0  0  0  0  0  0  0  0  0  0
   13.3449    0.1667   23.3042 H   0  0  0  0  0  0  0  0  0  0  0  0
   11.4370   -0.2499   24.2157 C   0  0  0  0  0  0  0  0  0  0  0  0
   11.8381    0.2273   25.4324 N   0  0  0  0  0  0  0  0  0  0  0  0
   10.9295    0.2973   26.3809 C   0  0  0  0  0  0  0  0  0  0  0  0
   11.3084    0.5162   27.3720 H   0  0  0  0  0  0  0  0  0  0  0  0
    9.5489    0.0441   26.1966 C   0  0  0  0  0  0  0  0  0  0  0  0
    8.8631    0.2223   27.0136 H   0  0  0  0  0  0  0  0  0  0  0  0
    9.1350   -0.4288   24.9774 C   0  0  0  0  0  0  0  0  0  0  0  0
    8.0863   -0.5964   24.7577 H   0  0  0  0  0  0  0  0  0  0  0  0
   10.1224   -0.7664   24.0072 C   0  0  0  0  0  0  0  0  0  0  0  0
    8.8996   -4.0230   23.0862 C   0  0  0  0  0  0  0  0  0  0  0  0
    9.9346   -4.2842   23.2789 H   0  0  0  0  0  0  0  0  0  0  0  0
    8.3460   -4.7594   22.5092 H   0  0  0  0  0  0  0  0  0  0  0  0
    8.2234   -3.2301   24.1503 C   0  0  0  0  0  0  0  0  0  0  0  0
    8.7905   -2.9838   25.0468 H   0  0  0  0  0  0  0  0  0  0  0  0
    7.1594   -3.3739   24.3132 H   0  0  0  0  0  0  0  0  0  0  0  0
    8.0601   -1.1267   20.5198 S   0  0  0  0  0  0  0  0  0  0  0  0
    4.8095    0.7413   19.2810 C   0  0  0  0  0  0  0  0  0  0  0  0
    4.1824    0.6761   20.1717 H   0  0  0  0  0  0  0  0  0  0  0  0
    4.5865    1.7129   18.3050 C   0  0  0  0  0  0  0  0  0  0  0  0
    3.8102    2.4618   18.4064 H   0  0  0  0  0  0  0  0  0  0  0  0
  1  2  1  0
  2  3  2  0
  3  4  1  0
  4  5  1  0
  4  6  2  0
  6  7  1  0
  7  8  2  0
  8  9  1  0
  9 10  2  0
 10 11  1  0
 11 12  1  0
 12 13  2  0
 13 14  1  0
 13 15  1  0
 15 16  1  0
 15 17  2  0
 17 18  1  0
 17 19  1  0
 19 20  2  0
 20 21  1  0
 21 22  1  0
 21 23  2  0
 23 24  1  0
 23 25  1  0
 25 26  1  0
 25 27  2  0
 11 28  1  0
 28 29  1  0
 28 30  1  0
 28 31  1  0
 31 32  1  0
 31 33  1  0
 10 34  1  0
  6 35  1  0
 35 36  1  0
 35 37  2  0
 37 38  1  0
 37  2  1  0
 34  7  1  0
 31 11  1  0
 27 12  1  0
 27 19  1  0
M  END
>  <plip>  (1) 
-0.1

>  <filename>  (1) 
[H][c]1[n][c]([H])[c](-[c]2[n][n][c]([C]3([c]4[c]([H])[c]([H])[c]([H])[c]5[n][c]([H])[c]([H])[c]([H])[c]45)[C]([H])([H])[C]3([H])[H])[s]2)[c]([H])[c]1[H]

$$$$
