
     RDKit          3D

 40 40  0  0  0  0  0  0  0  0999 V2000
    2.4883   -5.5890   23.6146 C   0  0  0  0  0  0  0  0  0  0  0  0
    3.2060   -6.4306   22.8703 C   0  0  0  0  0  0  0  0  0  0  0  0
    4.7121   -6.5408   22.9233 C   0  0  0  0  0  0  0  0  0  0  0  0
    5.3114   -6.0594   21.7266 O   0  0  0  0  0  0  0  0  0  0  0  0
    5.5062   -4.6547   21.7326 C   0  0  0  0  0  0  0  0  0  0  0  0
    6.0242   -4.2030   20.3623 C   0  0  0  0  0  0  0  0  0  0  0  0
    6.2980   -2.7621   20.3400 N   0  0  0  0  0  0  0  0  0  0  0  0
    7.3502   -2.1504   20.9402 C   0  0  0  0  0  0  0  0  0  0  0  0
    8.5952   -3.0372   21.6362 S   0  0  0  0  0  0  0  0  0  0  0  0
    7.3089   -0.7595   20.9135 N   0  0  0  0  0  0  0  0  0  0  0  0
    6.6161   -0.0376   19.8653 C   0  0  0  0  0  0  0  0  0  0  0  0
    5.4182    0.6358   20.1194 C   0  0  0  0  0  0  0  0  0  0  0  0
    4.7826    1.3216   19.0759 C   0  0  0  0  0  0  0  0  0  0  0  0
    5.3844    1.3189   17.8152 C   0  0  0  0  0  0  0  0  0  0  0  0
    6.5490    0.6975   17.5583 N   0  0  0  0  0  0  0  0  0  0  0  0
    7.1522    0.0531   18.5680 C   0  0  0  0  0  0  0  0  0  0  0  0
    8.1110   -0.4171   18.3496 H   0  0  0  0  0  0  0  0  0  0  0  0
    4.9199    1.8264   16.9727 H   0  0  0  0  0  0  0  0  0  0  0  0
    3.8537    1.8627   19.2326 H   0  0  0  0  0  0  0  0  0  0  0  0
    5.0071    0.6186   21.1284 H   0  0  0  0  0  0  0  0  0  0  0  0
    7.9921   -0.0042   22.0005 C   0  0  0  0  0  0  0  0  0  0  0  0
    7.1530   -0.0143   23.2881 C   0  0  0  0  0  0  0  0  0  0  0  0
    6.8959   -1.0326   23.5964 H   0  0  0  0  0  0  0  0  0  0  0  0
    7.7181    0.4541   24.1038 H   0  0  0  0  0  0  0  0  0  0  0  0
    6.2230    0.5539   23.1538 H   0  0  0  0  0  0  0  0  0  0  0  0
    8.3794    1.4269   21.6088 C   0  0  0  0  0  0  0  0  0  0  0  0
    7.4902    2.0577   21.4652 H   0  0  0  0  0  0  0  0  0  0  0  0
    8.9738    1.8634   22.4201 H   0  0  0  0  0  0  0  0  0  0  0  0
    8.9757    1.4535   20.6888 H   0  0  0  0  0  0  0  0  0  0  0  0
    8.9089   -0.5796   22.1775 H   0  0  0  0  0  0  0  0  0  0  0  0
    5.6235   -2.1163   19.9608 H   0  0  0  0  0  0  0  0  0  0  0  0
    5.3051   -4.4353   19.5690 H   0  0  0  0  0  0  0  0  0  0  0  0
    6.9522   -4.7487   20.1457 H   0  0  0  0  0  0  0  0  0  0  0  0
    4.5653   -4.1365   21.9771 H   0  0  0  0  0  0  0  0  0  0  0  0
    6.2544   -4.3757   22.4925 H   0  0  0  0  0  0  0  0  0  0  0  0
    5.0208   -7.5892   23.0152 H   0  0  0  0  0  0  0  0  0  0  0  0
    5.1044   -6.0135   23.8142 H   0  0  0  0  0  0  0  0  0  0  0  0
    2.7118   -7.0697   22.1371 H   0  0  0  0  0  0  0  0  0  0  0  0
    2.9454   -4.9139   24.3346 H   0  0  0  0  0  0  0  0  0  0  0  0
    1.4070   -5.5199   23.5347 H   0  0  0  0  0  0  0  0  0  0  0  0
  1  2  2  3
  2  3  1  0
  3  4  1  0
  4  5  1  0
  5  6  1  0
  6  7  1  0
  7  8  1  0
  8  9  2  0
  8 10  1  0
 10 11  1  0
 11 12  2  0
 12 13  1  0
 13 14  2  0
 14 15  1  0
 15 16  2  0
 16 17  1  0
 14 18  1  0
 13 19  1  0
 12 20  1  0
 10 21  1  0
 21 22  1  0
 22 23  1  0
 22 24  1  0
 22 25  1  0
 21 26  1  0
 26 27  1  0
 26 28  1  0
 26 29  1  0
 21 30  1  0
  7 31  1  0
  6 32  1  0
  6 33  1  0
  5 34  1  0
  5 35  1  0
  3 36  1  0
  3 37  1  0
  2 38  1  0
  1 39  1  0
  1 40  1  0
 16 11  1  0
M  END
>  <plip>  (1) 
-0.07142857142857142

>  <filename>  (1) 
[H][C]([H])=[C]([H])[C]([H])([H])[O][C]([H])([H])[C]([H])([H])[N]([H])[C](=[S])[N]([c]1[c]([H])[n][c]([H])[c]([H])[c]1[H])[C]([H])([C]([H])([H])[H])[C]([H])([H])[H]

$$$$
