
     RDKit          3D

 35 37  0  0  0  0  0  0  0  0999 V2000
    7.9004    0.7408   24.7425 H   0  0  0  0  0  0  0  0  0  0  0  0
    7.4266    1.4132   24.2251 O   0  0  0  0  0  0  0  0  0  0  0  0
    7.7047    1.1346   22.8532 C   0  0  1  0  0  0  0  0  0  0  0  0
    7.1250    1.8680   22.2857 H   0  0  0  0  0  0  0  0  0  0  0  0
    9.1844    1.3042   22.5166 C   0  0  0  0  0  0  0  0  0  0  0  0
   10.1758    0.6088   23.2349 C   0  0  0  0  0  0  0  0  0  0  0  0
    9.9033   -0.0937   24.0208 H   0  0  0  0  0  0  0  0  0  0  0  0
   11.5247    0.8028   22.9370 C   0  0  0  0  0  0  0  0  0  0  0  0
   12.2808    0.2320   23.4755 H   0  0  0  0  0  0  0  0  0  0  0  0
   11.8950    1.6890   21.9170 C   0  0  0  0  0  0  0  0  0  0  0  0
   12.9488    1.8775   21.7313 H   0  0  0  0  0  0  0  0  0  0  0  0
   10.9226    2.3226   21.1417 C   0  0  0  0  0  0  0  0  0  0  0  0
   11.2234    2.9684   20.3124 H   0  0  0  0  0  0  0  0  0  0  0  0
    9.5676    2.1230   21.4377 C   0  0  0  0  0  0  0  0  0  0  0  0
    8.8028    2.6182   20.8342 H   0  0  0  0  0  0  0  0  0  0  0  0
    7.1862   -0.2811   22.4496 C   0  0  2  0  0  0  0  0  0  0  0  0
    6.1365   -0.3498   22.7831 H   0  0  0  0  0  0  0  0  0  0  0  0
    7.9406   -1.2635   23.1365 O   0  0  0  0  0  0  0  0  0  0  0  0
    8.4632   -2.2370   22.2529 C   0  0  0  0  0  0  0  0  0  0  0  0
    8.0165   -3.2019   22.5039 H   0  0  0  0  0  0  0  0  0  0  0  0
    9.5504   -2.2928   22.3701 H   0  0  0  0  0  0  0  0  0  0  0  0
    8.0968   -1.8039   20.8351 C   0  0  0  0  0  0  0  0  0  0  0  0
    8.9843   -1.5990   20.2255 H   0  0  0  0  0  0  0  0  0  0  0  0
    7.4883   -2.5653   20.3372 H   0  0  0  0  0  0  0  0  0  0  0  0
    7.3188   -0.5998   21.0403 N   0  0  0  0  0  0  0  0  0  0  0  0
    6.6657    0.0517   19.9905 C   0  0  0  0  0  0  0  0  0  0  0  0
    7.1801    0.0484   18.6631 C   0  0  0  0  0  0  0  0  0  0  0  0
    8.1033   -0.4836   18.4569 H   0  0  0  0  0  0  0  0  0  0  0  0
    6.6134    0.6634   17.6146 N   0  0  0  0  0  0  0  0  0  0  0  0
    5.4582    1.3132   17.8309 C   0  0  0  0  0  0  0  0  0  0  0  0
    5.0050    1.8065   16.9714 H   0  0  0  0  0  0  0  0  0  0  0  0
    4.8398    1.3529   19.0856 C   0  0  0  0  0  0  0  0  0  0  0  0
    3.8903    1.8673   19.1958 H   0  0  0  0  0  0  0  0  0  0  0  0
    5.4481    0.7306   20.1821 C   0  0  0  0  0  0  0  0  0  0  0  0
    4.9937    0.7461   21.1729 H   0  0  0  0  0  0  0  0  0  0  0  0
  1  2  1  0
  2  3  1  0
  3  4  1  6
  3  5  1  0
  5  6  2  0
  6  7  1  0
  6  8  1  0
  8  9  1  0
  8 10  2  0
 10 11  1  0
 10 12  1  0
 12 13  1  0
 12 14  2  0
 14 15  1  0
  3 16  1  0
 16 17  1  1
 16 18  1  0
 18 19  1  0
 19 20  1  0
 19 21  1  0
 19 22  1  0
 22 23  1  0
 22 24  1  0
 22 25  1  0
 25 26  1  0
 26 27  2  0
 27 28  1  0
 27 29  1  0
 29 30  2  0
 30 31  1  0
 30 32  1  0
 32 33  1  0
 32 34  2  0
 34 35  1  0
 14  5  1  0
 25 16  1  0
 34 26  1  0
M  END
>  <plip>  (1) 
-0.03571428571428571

>  <filename>  (1) 
[H][O][C@@]([H])([c]1[c]([H])[c]([H])[c]([H])[c]([H])[c]1[H])[C@]1([H])[O][C]([H])([H])[C]([H])([H])[N]1[c]1[c]([H])[n][c]([H])[c]([H])[c]1[H]

$$$$
