
     RDKit          3D

 20 21  0  0  0  0  0  0  0  0999 V2000
    4.9155    1.7904   16.9908 H   0  0  0  0  0  0  0  0  0  0  0  0
    5.3928    1.3001   17.8334 C   0  0  0  0  0  0  0  0  0  0  0  0
    6.5580    0.6877   17.5622 N   0  0  0  0  0  0  0  0  0  0  0  0
    7.1682    0.0657   18.5736 C   0  0  0  0  0  0  0  0  0  0  0  0
    8.1214   -0.4113   18.3518 H   0  0  0  0  0  0  0  0  0  0  0  0
    6.6626    0.0095   19.8933 C   0  0  0  0  0  0  0  0  0  0  0  0
    7.3667   -0.7046   20.9662 C   0  0  0  0  0  0  0  0  0  0  0  0
    8.0544   -2.2512   20.8410 S   0  0  0  0  0  0  0  0  0  0  0  0
    8.5567   -2.3228   22.4242 N   0  0  0  0  0  0  0  0  0  0  0  0
    8.2396   -1.2525   23.0534 N   0  0  0  0  0  0  0  0  0  0  0  0
    7.5838   -0.3306   22.2906 C   0  0  0  0  0  0  0  0  0  0  0  0
    7.2133    0.8600   22.8501 N   0  0  0  0  0  0  0  0  0  0  0  0
    6.9378    1.5835   22.2028 H   0  0  0  0  0  0  0  0  0  0  0  0
    7.3667    1.2101   24.2063 N   0  0  0  0  0  0  0  0  0  0  0  0
    6.8398    0.5289   24.7618 H   0  0  0  0  0  0  0  0  0  0  0  0
    8.3415    1.0513   24.4881 H   0  0  0  0  0  0  0  0  0  0  0  0
    5.4397    0.6583   20.1534 C   0  0  0  0  0  0  0  0  0  0  0  0
    5.0207    0.6123   21.1602 H   0  0  0  0  0  0  0  0  0  0  0  0
    4.7998    1.3133   19.1000 C   0  0  0  0  0  0  0  0  0  0  0  0
    3.8710    1.8432   19.2534 H   0  0  0  0  0  0  0  0  0  0  0  0
  1  2  1  0
  2  3  2  0
  3  4  1  0
  4  5  1  0
  4  6  2  0
  6  7  1  0
  7  8  1  0
  8  9  1  0
  9 10  2  0
 10 11  1  0
 11 12  1  0
 12 13  1  0
 12 14  1  0
 14 15  1  0
 14 16  1  0
  6 17  1  0
 17 18  1  0
 17 19  2  0
 19 20  1  0
 19  2  1  0
 11  7  2  0
M  END
>  <plip>  (1) 
-0.06896551724137931

>  <filename>  (1) 
[H][c]1[n][c]([H])[c](-[c]2[s][n][n][c]2[N]([H])[N]([H])[H])[c]([H])[c]1[H]

$$$$
