
     RDKit          3D

 27 29  0  0  0  0  0  0  0  0999 V2000
    5.7254   -2.2190   21.5513 O   0  0  0  0  0  0  0  0  0  0  0  0
    6.7552   -1.5945   21.6780 C   0  0  0  0  0  0  0  0  0  0  0  0
    7.6030   -1.8596   22.7236 N   0  0  0  0  0  0  0  0  0  0  0  0
    8.9485   -1.4199   22.3645 C   0  0  0  0  0  0  0  0  0  0  0  0
    9.5960   -0.5059   23.3719 C   0  0  0  0  0  0  0  0  0  0  0  0
    8.9777    0.3486   24.2538 C   0  0  0  0  0  0  0  0  0  0  0  0
   10.1189    1.2535   25.2422 S   0  0  0  0  0  0  0  0  0  0  0  0
   11.4552    0.4353   24.4503 C   0  0  0  0  0  0  0  0  0  0  0  0
   13.2982    0.6319   24.8324 Br  0  0  0  0  0  0  0  0  0  0  0  0
   11.0376   -0.4365   23.4891 C   0  0  0  0  0  0  0  0  0  0  0  0
   11.7176   -1.0323   22.8908 H   0  0  0  0  0  0  0  0  0  0  0  0
    7.9058    0.4741   24.3459 H   0  0  0  0  0  0  0  0  0  0  0  0
    8.6567   -0.6919   21.0491 C   0  0  0  0  0  0  0  0  0  0  0  0
    9.4566   -0.0373   20.3938 O   0  0  0  0  0  0  0  0  0  0  0  0
    7.3409   -0.8385   20.6859 N   0  0  0  0  0  0  0  0  0  0  0  0
    6.6710   -0.0978   19.6887 C   0  0  0  0  0  0  0  0  0  0  0  0
    5.4455    0.4937   19.9911 C   0  0  0  0  0  0  0  0  0  0  0  0
    4.8093    1.2451   19.0005 C   0  0  0  0  0  0  0  0  0  0  0  0
    5.3978    1.3727   17.7363 C   0  0  0  0  0  0  0  0  0  0  0  0
    6.5851    0.8188   17.4321 N   0  0  0  0  0  0  0  0  0  0  0  0
    7.2120    0.1145   18.3967 C   0  0  0  0  0  0  0  0  0  0  0  0
    8.1814   -0.3226   18.1757 H   0  0  0  0  0  0  0  0  0  0  0  0
    4.8743    1.9366   16.9725 H   0  0  0  0  0  0  0  0  0  0  0  0
    3.8695    1.7433   19.2033 H   0  0  0  0  0  0  0  0  0  0  0  0
    5.0314    0.3911   20.9930 H   0  0  0  0  0  0  0  0  0  0  0  0
    9.6060   -2.2700   22.1685 H   0  0  0  0  0  0  0  0  0  0  0  0
    7.4399   -2.7295   23.2289 H   0  0  0  0  0  0  0  0  0  0  0  0
  1  2  2  0
  2  3  1  0
  3  4  1  0
  4  5  1  0
  5  6  2  0
  6  7  1  0
  7  8  1  0
  8  9  1  0
  8 10  2  0
 10 11  1  0
  6 12  1  0
  4 13  1  0
 13 14  2  0
 13 15  1  0
 15 16  1  0
 16 17  2  0
 17 18  1  0
 18 19  2  0
 19 20  1  0
 20 21  2  0
 21 22  1  0
 19 23  1  0
 18 24  1  0
 17 25  1  0
  4 26  1  0
  3 27  1  0
 15  2  1  0
 21 16  1  0
 10  5  1  0
M  END
>  <plip>  (1) 
-0.07142857142857142

>  <filename>  (1) 
[H][c]1[n][c]([H])[c]([N]2[C](=[O])[N]([H])[C]([H])([c]3[c]([H])[s][c]([Br])[c]3[H])[C]2=[O])[c]([H])[c]1[H]

$$$$
