
     RDKit          3D

 43 46  0  0  0  0  0  0  0  0999 V2000
    8.4607   -3.7119   22.2047 C   0  0  0  0  0  0  0  0  0  0  0  0
    8.2610   -3.6301   22.0037 C   0  0  0  0  0  0  0  0  0  0  0  0
    7.4475   -1.5728   20.7464 N   0  0  0  0  0  4  0  0  0  0  0  0
    6.9753   -0.2231   21.0979 C   0  0  0  0  0  0  0  0  0  0  0  0
    6.3534    0.4493   19.8844 C   0  0  0  0  0  0  0  0  0  0  0  0
    5.1066    1.0925   19.9544 C   0  0  0  0  0  0  0  0  0  0  0  0
    4.6126    1.7399   18.8186 C   0  0  0  0  0  0  0  0  0  0  0  0
    5.3784    1.7261   17.6488 C   0  0  0  0  0  0  0  0  0  0  0  0
    6.5657    1.1109   17.5532 N   0  0  0  0  0  0  0  0  0  0  0  0
    7.0299    0.4987   18.6508 C   0  0  0  0  0  0  0  0  0  0  0  0
    8.0196    0.0568   18.5323 H   0  0  0  0  0  0  0  0  0  0  0  0
    5.0213    2.2228   16.7470 H   0  0  0  0  0  0  0  0  0  0  0  0
    3.6606    2.2618   18.8269 H   0  0  0  0  0  0  0  0  0  0  0  0
    4.5337    1.0915   20.8851 H   0  0  0  0  0  0  0  0  0  0  0  0
    8.1363    0.5372   21.7405 C   0  0  0  0  0  0  0  0  0  0  0  0
    9.3785    1.0151   21.0212 C   0  0  0  0  0  0  0  0  0  0  0  0
    8.3876    2.0069   21.5679 C   0  0  0  0  0  0  0  0  0  0  0  0
    8.6696    2.5914   22.4412 H   0  0  0  0  0  0  0  0  0  0  0  0
    7.7579    2.5324   20.8536 H   0  0  0  0  0  0  0  0  0  0  0  0
    9.4485    0.8645   19.9460 H   0  0  0  0  0  0  0  0  0  0  0  0
   10.3346    0.9053   21.5334 H   0  0  0  0  0  0  0  0  0  0  0  0
    8.3332    0.1469   22.7382 H   0  0  0  0  0  0  0  0  0  0  0  0
    6.1941   -0.2864   21.8683 H   0  0  0  0  0  0  0  0  0  0  0  0
    6.6866   -2.2400   20.8712 H   0  0  0  0  0  0  0  0  0  0  0  0
    7.5685   -1.4890   19.7292 H   0  0  0  0  0  0  0  0  0  0  0  0
    6.8480   -3.8020   22.8042 C   0  0  0  0  0  0  0  0  0  0  0  0
    6.3265   -3.1580   23.7952 C   0  0  0  0  0  0  0  0  0  0  0  0
    4.9973   -3.7704   23.9486 C   0  0  0  0  0  0  0  0  0  0  0  0
    3.9640   -3.6908   24.8955 C   0  0  0  0  0  0  0  0  0  0  0  0
    2.8431   -4.5031   24.7167 C   0  0  0  0  0  0  0  0  0  0  0  0
    2.7432   -5.3809   23.6164 C   0  0  0  0  0  0  0  0  0  0  0  0
    3.7646   -5.4820   22.6680 C   0  0  0  0  0  0  0  0  0  0  0  0
    4.8833   -4.6690   22.8757 C   0  0  0  0  0  0  0  0  0  0  0  0
    6.0380   -4.6422   22.1215 O   0  0  0  0  0  0  0  0  0  0  0  0
    3.7174   -6.1720   21.8304 H   0  0  0  0  0  0  0  0  0  0  0  0
    1.8500   -5.9944   23.5079 H   0  0  0  0  0  0  0  0  0  0  0  0
    2.0363   -4.4598   25.4422 H   0  0  0  0  0  0  0  0  0  0  0  0
    4.0499   -3.0317   25.7583 H   0  0  0  0  0  0  0  0  0  0  0  0
    6.7391   -2.3820   24.4216 H   0  0  0  0  0  0  0  0  0  0  0  0
    8.4505   -2.5495   22.6835 H   0  0  0  0  0  0  0  0  0  0  0  0
    9.3481   -4.3275   23.4279 H   0  0  0  0  0  0  0  0  0  0  0  0
    9.3111   -3.2892   21.3496 H   0  0  0  0  0  0  0  0  0  0  0  0
    8.4633   -4.8116   21.6063 H   0  0  0  0  0  0  0  0  0  0  0  0
  1  2  1  0
  2  3  1  0
  3  4  1  0
  4  5  1  0
  5  6  2  0
  6  7  1  0
  7  8  2  0
  8  9  1  0
  9 10  2  0
 10 11  1  0
  8 12  1  0
  7 13  1  0
  6 14  1  0
  4 15  1  0
 15 16  1  0
 16 17  1  0
 17 18  1  0
 17 19  1  0
 16 20  1  0
 16 21  1  0
 15 22  1  0
  4 23  1  0
  3 24  1  0
  3 25  1  0
  2 26  1  0
 26 27  2  0
 27 28  1  0
 28 29  2  0
 29 30  1  0
 30 31  2  0
 31 32  1  0
 32 33  2  0
 33 34  1  0
 32 35  1  0
 31 36  1  0
 30 37  1  0
 29 38  1  0
 27 39  1  0
  2 40  1  0
  1 41  1  0
  1 42  1  0
  1 43  1  0
 10  5  1  0
 17 15  1  0
 34 26  1  0
 33 28  1  0
M  CHG  1   3   1
M  END
>  <plip>  (1) 
-0.06896551724137931

>  <filename>  (1) 
[H][c]1[n][c]([H])[c]([C]([H])([C]2([H])[C]([H])([H])[C]2([H])[H])[N+]([H])([H])[C]([H])([c]2[o][c]3[c]([H])[c]([H])[c]([H])[c]([H])[c]3[c]2[H])[C]([H])([H])[H])[c]([H])[c]1[H]

$$$$
