
     RDKit          3D

 46 48  0  0  0  0  0  0  0  0999 V2000
    4.8570    1.7319   16.9711 H   0  0  0  0  0  0  0  0  0  0  0  0
    5.3678    1.2895   17.8232 C   0  0  0  0  0  0  0  0  0  0  0  0
    6.5142    0.6458   17.5486 N   0  0  0  0  0  0  0  0  0  0  0  0
    7.1845    0.1081   18.5761 C   0  0  0  0  0  0  0  0  0  0  0  0
    8.1168   -0.3946   18.3246 H   0  0  0  0  0  0  0  0  0  0  0  0
    6.7906    0.1822   19.9444 C   0  0  0  0  0  0  0  0  0  0  0  0
    7.6221   -0.3084   20.9784 N   0  0  0  0  0  0  0  0  0  0  0  0
    7.6155    0.2255   22.3401 C   0  0  0  0  0  0  0  0  0  0  0  0
    7.3518    1.2880   22.2969 H   0  0  0  0  0  0  0  0  0  0  0  0
    8.6557    0.1770   22.6835 H   0  0  0  0  0  0  0  0  0  0  0  0
    6.7371   -0.4516   23.4494 C   0  0  0  0  0  0  0  0  0  0  0  0
    7.1696   -0.1526   24.4171 H   0  0  0  0  0  0  0  0  0  0  0  0
    5.7533    0.0489   23.4080 H   0  0  0  0  0  0  0  0  0  0  0  0
    6.6427   -1.9115   23.4333 N   0  0  0  0  0  0  0  0  0  0  0  0
    6.3362   -2.6013   24.6639 C   0  0  0  0  0  0  0  0  0  0  0  0
    7.0088   -2.2279   25.4604 H   0  0  0  0  0  0  0  0  0  0  0  0
    6.5770   -3.6658   24.5205 H   0  0  0  0  0  0  0  0  0  0  0  0
    4.9437   -2.4613   25.0405 N   0  0  0  0  0  0  0  0  0  0  0  0
    4.7091   -1.5105   24.7745 H   0  0  0  0  0  0  0  0  0  0  0  0
    4.6004   -2.6920   26.4514 C   0  0  0  0  0  0  0  0  0  0  0  0
    5.3023   -2.1933   27.1454 H   0  0  0  0  0  0  0  0  0  0  0  0
    4.6647   -3.7713   26.6712 H   0  0  0  0  0  0  0  0  0  0  0  0
    3.1741   -2.2465   26.7643 C   0  0  0  0  0  0  0  0  0  0  0  0
    2.8804   -1.2029   27.6624 C   0  0  0  0  0  0  0  0  0  0  0  0
    3.6902   -0.6807   28.1723 H   0  0  0  0  0  0  0  0  0  0  0  0
    1.5544   -0.8198   27.9123 C   0  0  0  0  0  0  0  0  0  0  0  0
    1.3440   -0.0032   28.6006 H   0  0  0  0  0  0  0  0  0  0  0  0
    0.5007   -1.4839   27.2744 C   0  0  0  0  0  0  0  0  0  0  0  0
   -0.5286   -1.1871   27.4626 H   0  0  0  0  0  0  0  0  0  0  0  0
    0.7771   -2.5359   26.3943 C   0  0  0  0  0  0  0  0  0  0  0  0
   -0.0355   -3.0612   25.8969 H   0  0  0  0  0  0  0  0  0  0  0  0
    2.1000   -2.9100   26.1436 C   0  0  0  0  0  0  0  0  0  0  0  0
    2.3175   -3.7232   25.4536 H   0  0  0  0  0  0  0  0  0  0  0  0
    6.1096   -2.4804   22.1938 C   0  0  0  0  0  0  0  0  0  0  0  0
    5.4189   -1.7673   21.7020 H   0  0  0  0  0  0  0  0  0  0  0  0
    5.5432   -3.3978   22.4197 H   0  0  0  0  0  0  0  0  0  0  0  0
    7.2148   -2.8091   21.1720 C   0  0  0  0  0  0  0  0  0  0  0  0
    7.7919   -3.6824   21.5038 H   0  0  0  0  0  0  0  0  0  0  0  0
    6.7168   -3.0962   20.2395 H   0  0  0  0  0  0  0  0  0  0  0  0
    8.1974   -1.6471   20.8984 C   0  0  0  0  0  0  0  0  0  0  0  0
    8.6667   -1.7701   19.9204 H   0  0  0  0  0  0  0  0  0  0  0  0
    9.0377   -1.6733   21.6031 H   0  0  0  0  0  0  0  0  0  0  0  0
    5.5581    0.8293   20.1896 C   0  0  0  0  0  0  0  0  0  0  0  0
    5.1732    0.8905   21.2079 H   0  0  0  0  0  0  0  0  0  0  0  0
    4.8433    1.3792   19.1165 C   0  0  0  0  0  0  0  0  0  0  0  0
    3.9009    1.8978   19.2682 H   0  0  0  0  0  0  0  0  0  0  0  0
  1  2  1  0
  2  3  2  0
  3  4  1  0
  4  5  1  0
  4  6  2  0
  6  7  1  0
  7  8  1  0
  8  9  1  0
  8 10  1  0
  8 11  1  0
 11 12  1  0
 11 13  1  0
 11 14  1  0
 14 15  1  0
 15 16  1  0
 15 17  1  0
 15 18  1  0
 18 19  1  0
 18 20  1  0
 20 21  1  0
 20 22  1  0
 20 23  1  0
 23 24  2  0
 24 25  1  0
 24 26  1  0
 26 27  1  0
 26 28  2  0
 28 29  1  0
 28 30  1  0
 30 31  1  0
 30 32  2  0
 32 33  1  0
 14 34  1  0
 34 35  1  0
 34 36  1  0
 34 37  1  0
 37 38  1  0
 37 39  1  0
 37 40  1  0
 40 41  1  0
 40 42  1  0
  6 43  1  0
 43 44  1  0
 43 45  2  0
 45 46  1  0
 45  2  1  0
 40  7  1  0
 32 23  1  0
M  END
>  <plip>  (1) 
-0.10714285714285714

>  <filename>  (1) 
[H][c]1[n][c]([H])[c]([N]2[C]([H])([H])[C]([H])([H])[N]([C]([H])([H])[N]([H])[C]([H])([H])[c]3[c]([H])[c]([H])[c]([H])[c]([H])[c]3[H])[C]([H])([H])[C]([H])([H])[C]2([H])[H])[c]([H])[c]1[H]

$$$$
