
     RDKit          3D

 41 43  0  0  0  0  0  0  0  0999 V2000
   11.2044    0.7897   23.2222 C   0  0  0  0  0  0  0  0  0  0  0  0
   10.5273   -0.4779   22.7256 C   0  0  0  0  0  0  0  0  0  0  0  0
    9.0805   -0.3960   22.7662 N   0  0  0  0  0  0  0  0  0  0  0  0
    8.3498    0.2812   21.7204 C   0  0  0  0  0  0  0  0  0  0  0  0
    7.3986   -0.6826   20.9986 C   0  0  0  0  0  0  0  0  0  0  0  0
    6.6418   -0.0091   19.8852 C   0  0  0  0  0  0  0  0  0  0  0  0
    5.4349    0.6494   20.1461 C   0  0  0  0  0  0  0  0  0  0  0  0
    4.8014    1.3157   19.0963 C   0  0  0  0  0  0  0  0  0  0  0  0
    5.3967    1.2996   17.8292 C   0  0  0  0  0  0  0  0  0  0  0  0
    6.5601    0.6884   17.5615 N   0  0  0  0  0  0  0  0  0  0  0  0
    7.1584    0.0622   18.5814 C   0  0  0  0  0  0  0  0  0  0  0  0
    8.1098   -0.4195   18.3590 H   0  0  0  0  0  0  0  0  0  0  0  0
    4.9120    1.7883   16.9885 H   0  0  0  0  0  0  0  0  0  0  0  0
    3.8689    1.8481   19.2537 H   0  0  0  0  0  0  0  0  0  0  0  0
    5.0118    0.6324   21.1567 H   0  0  0  0  0  0  0  0  0  0  0  0
    7.9937   -1.5185   20.6094 H   0  0  0  0  0  0  0  0  0  0  0  0
    6.7128   -1.1062   21.7452 H   0  0  0  0  0  0  0  0  0  0  0  0
    9.0490    0.7078   20.9896 H   0  0  0  0  0  0  0  0  0  0  0  0
    7.7740    1.1298   22.1186 H   0  0  0  0  0  0  0  0  0  0  0  0
    8.3915   -0.7160   23.9685 C   0  0  0  0  0  0  0  0  0  0  0  0
    7.9564    0.2752   24.8313 C   0  0  0  0  0  0  0  0  0  0  0  0
    7.2785   -0.0474   26.0424 C   0  0  0  0  0  0  0  0  0  0  0  0
    7.0275   -1.3587   26.3741 C   0  0  0  0  0  0  0  0  0  0  0  0
    7.4439   -2.4151   25.5042 C   0  0  0  0  0  0  0  0  0  0  0  0
    7.1911   -3.7853   25.8222 C   0  0  0  0  0  0  0  0  0  0  0  0
    7.5844   -4.7954   24.9760 C   0  0  0  0  0  0  0  0  0  0  0  0
    8.2541   -4.4899   23.7574 C   0  0  0  0  0  0  0  0  0  0  0  0
    8.5176   -3.1793   23.4201 C   0  0  0  0  0  0  0  0  0  0  0  0
    8.1298   -2.1030   24.2818 C   0  0  0  0  0  0  0  0  0  0  0  0
    9.0256   -2.9333   22.4877 H   0  0  0  0  0  0  0  0  0  0  0  0
    8.5605   -5.2962   23.0963 H   0  0  0  0  0  0  0  0  0  0  0  0
    7.3855   -5.8360   25.2322 H   0  0  0  0  0  0  0  0  0  0  0  0
    6.6735   -4.0099   26.7554 H   0  0  0  0  0  0  0  0  0  0  0  0
    6.5080   -1.6215   27.2975 H   0  0  0  0  0  0  0  0  0  0  0  0
    6.9549    0.7550   26.7038 H   0  0  0  0  0  0  0  0  0  0  0  0
    8.1492    1.3163   24.5800 H   0  0  0  0  0  0  0  0  0  0  0  0
   10.8325   -1.3419   23.3252 H   0  0  0  0  0  0  0  0  0  0  0  0
   10.8394   -0.7011   21.6952 H   0  0  0  0  0  0  0  0  0  0  0  0
   10.9045    0.9825   24.2568 H   0  0  0  0  0  0  0  0  0  0  0  0
   12.2936    0.7014   23.1725 H   0  0  0  0  0  0  0  0  0  0  0  0
   10.8896    1.6438   22.6135 H   0  0  0  0  0  0  0  0  0  0  0  0
  1  2  1  0
  2  3  1  0
  3  4  1  0
  4  5  1  0
  5  6  1  0
  6  7  2  0
  7  8  1  0
  8  9  2  0
  9 10  1  0
 10 11  2  0
 11 12  1  0
  9 13  1  0
  8 14  1  0
  7 15  1  0
  5 16  1  0
  5 17  1  0
  4 18  1  0
  4 19  1  0
  3 20  1  0
 20 21  2  0
 21 22  1  0
 22 23  2  0
 23 24  1  0
 24 25  2  0
 25 26  1  0
 26 27  2  0
 27 28  1  0
 28 29  2  0
 28 30  1  0
 27 31  1  0
 26 32  1  0
 25 33  1  0
 23 34  1  0
 22 35  1  0
 21 36  1  0
  2 37  1  0
  2 38  1  0
  1 39  1  0
  1 40  1  0
  1 41  1  0
 11  6  1  0
 29 20  1  0
 29 24  1  0
M  END
>  <plip>  (1) 
-0.07142857142857142

>  <filename>  (1) 
[H][c]1[n][c]([H])[c]([C]([H])([H])[C]([H])([H])[N]([c]2[c]([H])[c]([H])[c]([H])[c]3[c]([H])[c]([H])[c]([H])[c]([H])[c]23)[C]([H])([H])[C]([H])([H])[H])[c]([H])[c]1[H]

$$$$
