
     RDKit          3D

 26 27  0  0  0  0  0  0  0  0999 V2000
   11.1273    1.9794   21.1647 H   0  0  0  0  0  0  0  0  0  0  0  0
   10.5915    1.0426   21.3415 C   0  0  0  0  0  0  0  0  0  0  0  0
   11.3206    0.0807   21.8939 N   0  0  0  0  0  0  0  0  0  0  0  0
   10.6712   -1.0604   22.0532 C   0  0  0  0  0  0  0  0  0  0  0  0
   11.4300   -2.0757   22.4491 N   0  0  0  0  0  0  0  0  0  0  0  0
   12.2410   -1.6811   22.8718 H   0  0  0  0  0  0  0  0  0  0  0  0
   10.8788   -2.7658   22.9115 H   0  0  0  0  0  0  0  0  0  0  0  0
    9.4033   -1.3402   21.8906 N   0  0  0  0  0  0  0  0  0  0  0  0
    8.7290   -0.3764   21.2828 C   0  0  0  0  0  0  0  0  0  0  0  0
    7.4299   -0.6682   20.9568 N   0  0  0  0  0  0  0  0  0  0  0  0
    6.7498   -0.0067   19.8807 C   0  0  0  0  0  0  0  0  0  0  0  0
    7.2174    0.0393   18.5389 C   0  0  0  0  0  0  0  0  0  0  0  0
    8.1649   -0.4408   18.2802 H   0  0  0  0  0  0  0  0  0  0  0  0
    6.5722    0.6681   17.5461 N   0  0  0  0  0  0  0  0  0  0  0  0
    5.4193    1.2908   17.8474 C   0  0  0  0  0  0  0  0  0  0  0  0
    4.9205    1.7926   17.0230 H   0  0  0  0  0  0  0  0  0  0  0  0
    4.8614    1.2908   19.1289 C   0  0  0  0  0  0  0  0  0  0  0  0
    3.9197    1.7960   19.3062 H   0  0  0  0  0  0  0  0  0  0  0  0
    5.5316    0.6234   20.1583 C   0  0  0  0  0  0  0  0  0  0  0  0
    5.1544    0.5910   21.1791 H   0  0  0  0  0  0  0  0  0  0  0  0
    6.7800   -1.8150   21.5950 C   0  0  0  0  0  0  0  0  0  0  0  0
    7.2048   -2.7587   21.2319 H   0  0  0  0  0  0  0  0  0  0  0  0
    5.7068   -1.8037   21.3900 H   0  0  0  0  0  0  0  0  0  0  0  0
    6.9329   -1.7897   22.6779 H   0  0  0  0  0  0  0  0  0  0  0  0
    9.2741    0.8826   20.9840 C   0  0  0  0  0  0  0  0  0  0  0  0
    8.6498    1.6393   20.5408 H   0  0  0  0  0  0  0  0  0  0  0  0
  1  2  1  0
  2  3  2  0
  3  4  1  0
  4  5  1  0
  5  6  1  0
  5  7  1  0
  4  8  2  0
  8  9  1  0
  9 10  1  0
 10 11  1  0
 11 12  2  0
 12 13  1  0
 12 14  1  0
 14 15  2  0
 15 16  1  0
 15 17  1  0
 17 18  1  0
 17 19  2  0
 19 20  1  0
 10 21  1  0
 21 22  1  0
 21 23  1  0
 21 24  1  0
  9 25  2  0
 25 26  1  0
 25  2  1  0
 19 11  1  0
M  END
>  <plip>  (1) 
-0.034482758620689655

>  <filename>  (1) 
[H][c]1[n][c]([N]([H])[H])[n][c]([N]([c]2[c]([H])[n][c]([H])[c]([H])[c]2[H])[C]([H])([H])[H])[c]1[H]

$$$$
