
     RDKit          3D

 23 24  0  0  0  0  0  0  0  0999 V2000
    5.7440   -1.4281   21.9085 H   0  0  0  0  0  0  0  0  0  0  0  0
    6.8177   -1.3485   21.9506 C   0  0  0  0  0  0  0  0  0  0  0  0
    7.3903   -0.6935   20.9363 C   0  0  0  0  0  0  0  0  0  0  0  0
    8.7355   -0.6958   20.7896 F   0  0  0  0  0  0  0  0  0  0  0  0
    6.6761    0.0394   19.8936 C   0  0  0  0  0  0  0  0  0  0  0  0
    7.1906    0.0826   18.5861 C   0  0  0  0  0  0  0  0  0  0  0  0
    8.1272   -0.4225   18.3636 H   0  0  0  0  0  0  0  0  0  0  0  0
    6.5676    0.6742   17.5639 N   0  0  0  0  0  0  0  0  0  0  0  0
    5.4047    1.2905   17.8363 C   0  0  0  0  0  0  0  0  0  0  0  0
    4.9196    1.7790   16.9965 H   0  0  0  0  0  0  0  0  0  0  0  0
    4.8054    1.3107   19.1030 C   0  0  0  0  0  0  0  0  0  0  0  0
    3.8721    1.8421   19.2577 H   0  0  0  0  0  0  0  0  0  0  0  0
    5.4392    0.6547   20.1528 C   0  0  0  0  0  0  0  0  0  0  0  0
    5.0083    0.6439   21.1598 H   0  0  0  0  0  0  0  0  0  0  0  0
    7.4500   -2.0547   23.0356 C   0  0  0  0  0  0  0  0  0  0  0  0
    6.9066   -3.0527   23.8035 C   0  0  0  0  0  0  0  0  0  0  0  0
    5.9059   -3.4382   23.6744 H   0  0  0  0  0  0  0  0  0  0  0  0
    7.8906   -3.4384   24.7404 C   0  0  0  0  0  0  0  0  0  0  0  0
    7.7834   -4.1927   25.4999 H   0  0  0  0  0  0  0  0  0  0  0  0
    9.0064   -2.6691   24.5220 C   0  0  0  0  0  0  0  0  0  0  0  0
    9.9605   -2.6439   25.0360 H   0  0  0  0  0  0  0  0  0  0  0  0
    8.7289   -1.8430   23.4681 N   0  0  0  0  0  0  0  0  0  0  0  0
    9.3245   -1.1374   23.0781 H   0  0  0  0  0  0  0  0  0  0  0  0
  1  2  1  0
  2  3  2  3
  3  4  1  0
  3  5  1  0
  5  6  2  0
  6  7  1  0
  6  8  1  0
  8  9  2  0
  9 10  1  0
  9 11  1  0
 11 12  1  0
 11 13  2  0
 13 14  1  0
  2 15  1  0
 15 16  2  0
 16 17  1  0
 16 18  1  0
 18 19  1  0
 18 20  2  0
 20 21  1  0
 20 22  1  0
 22 23  1  0
 13  5  1  0
 22 15  1  0
M  END
>  <plip>  (1) 
-0.034482758620689655

>  <filename>  (1) 
[H][C](=[C]([F])[c]1[c]([H])[n][c]([H])[c]([H])[c]1[H])[c]1[c]([H])[c]([H])[c]([H])[n]1[H]

$$$$
