
     RDKit          3D

 32 33  0  0  0  0  0  0  0  0999 V2000
    8.3926   -1.8354   26.9988 C   0  0  0  0  0  0  0  0  0  0  0  0
    8.9647   -0.8367   26.0248 C   0  0  0  0  0  0  0  0  0  0  0  0
   10.2769   -0.3732   26.2188 C   0  0  0  0  0  0  0  0  0  0  0  0
   10.8519    0.5061   25.3073 C   0  0  0  0  0  0  0  0  0  0  0  0
   10.0525    0.9490   24.2547 C   0  0  0  0  0  0  0  0  0  0  0  0
    8.7404    0.4828   24.1691 C   0  0  0  0  0  0  0  0  0  0  0  0
    7.8179    0.9141   23.0637 C   0  0  0  0  0  0  0  0  0  0  0  0
    7.7598    2.3704   22.9322 C   0  0  0  0  0  0  0  0  0  0  0  0
    7.7609    3.5175   22.8188 N   0  0  0  0  0  0  0  0  0  0  0  0
    8.3099    0.2998   21.7480 C   0  0  0  0  0  0  0  0  0  0  0  0
    9.3720    0.6297   21.2750 O   0  0  0  0  0  0  0  0  0  0  0  0
    7.4070   -0.6916   21.0224 C   0  0  0  0  0  0  0  0  0  0  0  0
    6.6428   -0.0103   19.8939 C   0  0  0  0  0  0  0  0  0  0  0  0
    5.4366    0.6495   20.1415 C   0  0  0  0  0  0  0  0  0  0  0  0
    4.8002    1.3180   19.0930 C   0  0  0  0  0  0  0  0  0  0  0  0
    5.3900    1.3012   17.8254 C   0  0  0  0  0  0  0  0  0  0  0  0
    6.5497    0.6826   17.5641 N   0  0  0  0  0  0  0  0  0  0  0  0
    7.1520    0.0554   18.5842 C   0  0  0  0  0  0  0  0  0  0  0  0
    8.1114   -0.4115   18.3633 H   0  0  0  0  0  0  0  0  0  0  0  0
    4.9153    1.7997   16.9813 H   0  0  0  0  0  0  0  0  0  0  0  0
    3.8716    1.8485   19.2452 H   0  0  0  0  0  0  0  0  0  0  0  0
    5.0153    0.6433   21.1509 H   0  0  0  0  0  0  0  0  0  0  0  0
    6.7130   -1.1549   21.7343 H   0  0  0  0  0  0  0  0  0  0  0  0
    8.0553   -1.4837   20.6338 H   0  0  0  0  0  0  0  0  0  0  0  0
    6.8185    0.5551   23.3033 H   0  0  0  0  0  0  0  0  0  0  0  0
    8.2061   -0.4134   25.0050 N   0  0  0  0  0  0  0  0  0  0  0  0
   10.4125    1.6431   23.5073 H   0  0  0  0  0  0  0  0  0  0  0  0
   11.8892    0.8348   25.4143 H   0  0  0  0  0  0  0  0  0  0  0  0
   10.7953   -0.7129   27.0982 H   0  0  0  0  0  0  0  0  0  0  0  0
    7.3284   -2.0065   26.8273 H   0  0  0  0  0  0  0  0  0  0  0  0
    8.5412   -1.4715   28.0172 H   0  0  0  0  0  0  0  0  0  0  0  0
    8.9211   -2.7937   26.9445 H   0  0  0  0  0  0  0  0  0  0  0  0
  1  2  1  0
  2  3  2  0
  3  4  1  0
  4  5  2  0
  5  6  1  0
  6  7  1  0
  7  8  1  0
  8  9  3  0
  7 10  1  0
 10 11  2  0
 10 12  1  0
 12 13  1  0
 13 14  2  0
 14 15  1  0
 15 16  2  0
 16 17  1  0
 17 18  2  0
 18 19  1  0
 16 20  1  0
 15 21  1  0
 14 22  1  0
 12 23  1  0
 12 24  1  0
  7 25  1  0
  6 26  2  0
  5 27  1  0
  4 28  1  0
  3 29  1  0
  1 30  1  0
  1 31  1  0
  1 32  1  0
 26  2  1  0
 18 13  1  0
M  END
>  <plip>  (1) 
-0.10344827586206896

>  <filename>  (1) 
[H][c]1[n][c]([H])[c]([C]([H])([H])[C](=[O])[C]([H])([C]#[N])[c]2[n][c]([C]([H])([H])[H])[c]([H])[c]([H])[c]2[H])[c]([H])[c]1[H]

$$$$
