
     RDKit          3D

 24 25  0  0  0  0  0  0  0  0999 V2000
    6.4914    1.3017   24.9959 H   0  0  0  0  0  0  0  0  0  0  0  0
    7.2130    1.2613   24.1807 C   0  0  0  0  0  0  0  0  0  0  0  0
    6.8862    0.4126   23.2091 N   0  0  0  0  0  0  0  0  0  0  0  0
    7.7497    0.2898   22.1948 C   0  0  0  0  0  0  0  0  0  0  0  0
    7.3974   -0.7197   21.0366 C   0  0  2  0  0  0  0  0  0  0  0  0
    8.3881   -1.0162   20.6589 H   0  0  0  0  0  0  0  0  0  0  0  0
    6.6418   -0.0035   19.9189 C   0  0  0  0  0  0  0  0  0  0  0  0
    7.1435    0.0204   18.6077 C   0  0  0  0  0  0  0  0  0  0  0  0
    8.0969   -0.4509   18.3678 H   0  0  0  0  0  0  0  0  0  0  0  0
    6.5491    0.6420   17.5806 N   0  0  0  0  0  0  0  0  0  0  0  0
    5.3996    1.2823   17.8300 C   0  0  0  0  0  0  0  0  0  0  0  0
    4.9480    1.7982   16.9839 H   0  0  0  0  0  0  0  0  0  0  0  0
    4.8002    1.3097   19.0937 C   0  0  0  0  0  0  0  0  0  0  0  0
    3.8717    1.8445   19.2325 H   0  0  0  0  0  0  0  0  0  0  0  0
    5.4274    0.6593   20.1549 C   0  0  0  0  0  0  0  0  0  0  0  0
    4.9959    0.6771   21.1600 H   0  0  0  0  0  0  0  0  0  0  0  0
    6.6196   -1.9622   21.3412 N   0  0  0  0  0  0  0  0  0  0  0  0
    7.0707   -2.5291   22.0633 H   0  0  0  0  0  0  0  0  0  0  0  0
    5.7434   -1.6619   21.7830 H   0  0  0  0  0  0  0  0  0  0  0  0
    8.8963    0.9783   22.0767 N   0  0  0  0  0  0  0  0  0  0  0  0
    9.1895    1.8442   23.0499 C   0  0  0  0  0  0  0  0  0  0  0  0
   10.1254    2.3970   22.9192 H   0  0  0  0  0  0  0  0  0  0  0  0
    8.3723    2.0263   24.1611 C   0  0  0  0  0  0  0  0  0  0  0  0
    8.6116    2.7139   24.9647 H   0  0  0  0  0  0  0  0  0  0  0  0
  1  2  1  0
  2  3  2  0
  3  4  1  0
  4  5  1  0
  5  6  1  6
  5  7  1  0
  7  8  2  0
  8  9  1  0
  8 10  1  0
 10 11  2  0
 11 12  1  0
 11 13  1  0
 13 14  1  0
 13 15  2  0
 15 16  1  0
  5 17  1  0
 17 18  1  0
 17 19  1  0
  4 20  2  0
 20 21  1  0
 21 22  1  0
 21 23  2  0
 23 24  1  0
 23  2  1  0
 15  7  1  0
M  END
>  <plip>  (1) 
-0.07142857142857142

>  <filename>  (1) 
[H][c]1[n][c]([C@]([H])([c]2[c]([H])[n][c]([H])[c]([H])[c]2[H])[N]([H])[H])[n][c]([H])[c]1[H]

$$$$
