
     RDKit          3D

 39 40  0  0  0  0  0  0  0  0999 V2000
    8.1799   -3.0558   23.0881 C   0  0  0  0  0  0  0  0  0  0  0  0
    6.9780   -2.0989   23.0756 C   0  0  0  0  0  0  0  0  0  0  0  0
    7.2452   -0.9862   24.0284 N   0  0  0  0  0  0  0  0  0  0  0  0
    7.4057   -1.2453   25.6625 S   0  0  0  0  0  0  0  0  0  0  0  0
    7.1386    0.1077   26.1174 O   0  0  0  0  0  0  0  0  0  0  0  0
    8.6276   -1.9719   25.9316 O   0  0  0  0  0  0  0  0  0  0  0  0
    6.0065   -2.2515   26.0936 C   0  0  0  0  0  0  0  0  0  0  0  0
    6.2160   -3.5838   26.4783 C   0  0  0  0  0  0  0  0  0  0  0  0
    5.1284   -4.3706   26.8514 C   0  0  0  0  0  0  0  0  0  0  0  0
    3.8539   -3.8148   26.8418 C   0  0  0  0  0  0  0  0  0  0  0  0
    2.8110   -4.5704   27.2230 F   0  0  0  0  0  0  0  0  0  0  0  0
    3.6275   -2.4959   26.4594 C   0  0  0  0  0  0  0  0  0  0  0  0
    4.7102   -1.7003   26.0836 C   0  0  0  0  0  0  0  0  0  0  0  0
    4.5143   -0.6625   25.8033 H   0  0  0  0  0  0  0  0  0  0  0  0
    2.6131   -2.1143   26.4850 H   0  0  0  0  0  0  0  0  0  0  0  0
    5.2508   -5.3995   27.1674 H   0  0  0  0  0  0  0  0  0  0  0  0
    7.2159   -4.0190   26.4987 H   0  0  0  0  0  0  0  0  0  0  0  0
    6.6457   -0.1688   24.1266 H   0  0  0  0  0  0  0  0  0  0  0  0
    6.5935   -1.7138   21.5957 C   0  0  0  0  0  0  0  0  0  0  0  0
    5.6749   -2.3211   21.0666 O   0  0  0  0  0  0  0  0  0  0  0  0
    7.3218   -0.7206   20.9271 N   0  0  0  0  0  0  0  0  0  0  0  0
    8.7542   -0.4972   21.1433 C   0  0  0  0  0  0  0  0  0  0  0  0
    9.3638   -1.3506   20.8101 H   0  0  0  0  0  0  0  0  0  0  0  0
    9.0602    0.3845   20.5713 H   0  0  0  0  0  0  0  0  0  0  0  0
    8.9600   -0.3117   22.2023 H   0  0  0  0  0  0  0  0  0  0  0  0
    6.6553   -0.0063   19.8794 C   0  0  0  0  0  0  0  0  0  0  0  0
    5.4380    0.6431   20.1359 C   0  0  0  0  0  0  0  0  0  0  0  0
    4.8059    1.3186   19.0870 C   0  0  0  0  0  0  0  0  0  0  0  0
    5.4010    1.3074   17.8187 C   0  0  0  0  0  0  0  0  0  0  0  0
    6.5675    0.6930   17.5533 N   0  0  0  0  0  0  0  0  0  0  0  0
    7.1765    0.0731   18.5732 C   0  0  0  0  0  0  0  0  0  0  0  0
    8.1240   -0.4174   18.3538 H   0  0  0  0  0  0  0  0  0  0  0  0
    4.9223    1.8048   16.9779 H   0  0  0  0  0  0  0  0  0  0  0  0
    3.8689    1.8501   19.2408 H   0  0  0  0  0  0  0  0  0  0  0  0
    5.0068    0.6127   21.1364 H   0  0  0  0  0  0  0  0  0  0  0  0
    6.0833   -2.6669   23.3801 H   0  0  0  0  0  0  0  0  0  0  0  0
    8.0931   -3.8013   22.2920 H   0  0  0  0  0  0  0  0  0  0  0  0
    9.1337   -2.5341   22.9791 H   0  0  0  0  0  0  0  0  0  0  0  0
    8.2275   -3.5903   24.0393 H   0  0  0  0  0  0  0  0  0  0  0  0
  1  2  1  0
  2  3  1  0
  3  4  1  0
  4  5  2  0
  4  6  2  0
  4  7  1  0
  7  8  2  0
  8  9  1  0
  9 10  2  0
 10 11  1  0
 10 12  1  0
 12 13  2  0
 13 14  1  0
 12 15  1  0
  9 16  1  0
  8 17  1  0
  3 18  1  0
  2 19  1  0
 19 20  2  0
 19 21  1  0
 21 22  1  0
 22 23  1  0
 22 24  1  0
 22 25  1  0
 21 26  1  0
 26 27  2  0
 27 28  1  0
 28 29  2  0
 29 30  1  0
 30 31  2  0
 31 32  1  0
 29 33  1  0
 28 34  1  0
 27 35  1  0
  2 36  1  0
  1 37  1  0
  1 38  1  0
  1 39  1  0
 13  7  1  0
 31 26  1  0
M  END
>  <plip>  (1) 
-0.10714285714285714

>  <filename>  (1) 
[H][c]1[n][c]([H])[c]([N]([C](=[O])[C]([H])([N]([H])[S](=[O])(=[O])[c]2[c]([H])[c]([H])[c]([F])[c]([H])[c]2[H])[C]([H])([H])[H])[C]([H])([H])[H])[c]([H])[c]1[H]

$$$$
