
     RDKit          3D

 37 38  0  0  0  0  0  0  0  0999 V2000
    7.3585   -0.6608   24.1013 C   0  0  0  0  0  0  0  0  0  0  0  0
    8.5731   -0.1898   23.3187 C   0  0  0  0  0  0  0  0  0  0  0  0
    8.1547    0.3307   21.9531 N   0  0  0  0  0  4  0  0  0  0  0  0
    9.3287    0.9152   21.1993 C   0  0  0  0  0  0  0  0  0  0  0  0
    9.7062    2.1825   21.8880 C   0  0  0  0  0  0  0  0  0  0  0  0
   10.8358    2.5105   22.5784 C   0  0  0  0  0  0  0  0  0  0  0  0
   11.9836    1.5792   22.8059 C   0  0  0  0  0  0  0  0  0  0  0  0
   11.5985    0.6760   23.2977 H   0  0  0  0  0  0  0  0  0  0  0  0
   12.7343    2.0476   23.4438 H   0  0  0  0  0  0  0  0  0  0  0  0
   12.4447    1.2669   21.8635 H   0  0  0  0  0  0  0  0  0  0  0  0
   10.7778    3.7343   23.1886 N   0  0  0  0  0  0  0  0  0  0  0  0
    9.6753    4.3571   23.0393 N   0  0  0  0  0  0  0  0  0  0  0  0
    8.5868    3.4572   22.1068 S   0  0  0  0  0  0  0  0  0  0  0  0
    9.0347    1.1008   20.1586 H   0  0  0  0  0  0  0  0  0  0  0  0
   10.1645    0.1975   21.1732 H   0  0  0  0  0  0  0  0  0  0  0  0
    7.2765   -0.6233   21.1511 C   0  0  0  0  0  0  0  0  0  0  0  0
    8.0300   -1.8827   20.7628 C   0  0  0  0  0  0  0  0  0  0  0  0
    8.8112   -1.6554   20.0318 H   0  0  0  0  0  0  0  0  0  0  0  0
    7.3132   -2.5952   20.3465 H   0  0  0  0  0  0  0  0  0  0  0  0
    8.5245   -2.3451   21.6209 H   0  0  0  0  0  0  0  0  0  0  0  0
    6.6184    0.0961   19.9939 C   0  0  0  0  0  0  0  0  0  0  0  0
    5.3968    0.7638   20.1770 C   0  0  0  0  0  0  0  0  0  0  0  0
    4.7903    1.3767   19.0806 C   0  0  0  0  0  0  0  0  0  0  0  0
    5.4247    1.3208   17.8336 C   0  0  0  0  0  0  0  0  0  0  0  0
    6.5890    0.6880   17.6392 N   0  0  0  0  0  0  0  0  0  0  0  0
    7.1583    0.1015   18.6999 C   0  0  0  0  0  0  0  0  0  0  0  0
    8.0996   -0.4085   18.5027 H   0  0  0  0  0  0  0  0  0  0  0  0
    4.9706    1.7869   16.9591 H   0  0  0  0  0  0  0  0  0  0  0  0
    3.8476    1.9029   19.1762 H   0  0  0  0  0  0  0  0  0  0  0  0
    4.9358    0.8106   21.1673 H   0  0  0  0  0  0  0  0  0  0  0  0
    6.4406   -0.9126   21.7981 H   0  0  0  0  0  0  0  0  0  0  0  0
    7.5688    1.1774   22.1577 H   0  0  0  0  0  0  0  0  0  0  0  0
    9.3123   -1.0052   23.2274 H   0  0  0  0  0  0  0  0  0  0  0  0
    9.0702    0.6305   23.8551 H   0  0  0  0  0  0  0  0  0  0  0  0
    7.6208   -0.8327   25.1457 H   0  0  0  0  0  0  0  0  0  0  0  0
    6.5682    0.0992   24.0742 H   0  0  0  0  0  0  0  0  0  0  0  0
    6.9550   -1.5922   23.6907 H   0  0  0  0  0  0  0  0  0  0  0  0
  1  2  1  0
  2  3  1  0
  3  4  1  0
  4  5  1  0
  5  6  2  0
  6  7  1  0
  7  8  1  0
  7  9  1  0
  7 10  1  0
  6 11  1  0
 11 12  2  0
 12 13  1  0
  4 14  1  0
  4 15  1  0
  3 16  1  0
 16 17  1  0
 17 18  1  0
 17 19  1  0
 17 20  1  0
 16 21  1  0
 21 22  2  0
 22 23  1  0
 23 24  2  0
 24 25  1  0
 25 26  2  0
 26 27  1  0
 24 28  1  0
 23 29  1  0
 22 30  1  0
 16 31  1  0
  3 32  1  0
  2 33  1  0
  2 34  1  0
  1 35  1  0
  1 36  1  0
  1 37  1  0
 13  5  1  0
 26 21  1  0
M  CHG  1   3   1
M  END
>  <plip>  (1) 
-0.03571428571428571

>  <filename>  (1) 
[H][c]1[n][c]([H])[c]([C]([H])([C]([H])([H])[H])[N+]([H])([C]([H])([H])[c]2[s][n][n][c]2[C]([H])([H])[H])[C]([H])([H])[C]([H])([H])[H])[c]([H])[c]1[H]

$$$$
