
     RDKit          3D

 42 45  0  0  0  0  0  0  0  0999 V2000
    4.9260    1.7469   16.8467 H   0  0  0  0  0  0  0  0  0  0  0  0
    5.4450    1.3068   17.6952 C   0  0  0  0  0  0  0  0  0  0  0  0
    6.5852    0.6536   17.4140 N   0  0  0  0  0  0  0  0  0  0  0  0
    7.2544    0.1080   18.4380 C   0  0  0  0  0  0  0  0  0  0  0  0
    8.1867   -0.3995   18.1974 H   0  0  0  0  0  0  0  0  0  0  0  0
    6.8161    0.1574   19.7808 C   0  0  0  0  0  0  0  0  0  0  0  0
    7.5261   -0.5134   20.8426 N   0  0  0  0  0  0  0  0  0  0  0  0
    8.8735   -0.2871   21.0693 C   0  0  0  0  0  0  0  0  0  0  0  0
    9.5490    0.5173   20.4634 O   0  0  0  0  0  0  0  0  0  0  0  0
    9.4340   -1.1849   22.1506 C   0  0  0  0  0  0  0  0  0  0  0  0
    9.9116   -0.5523   22.8978 H   0  0  0  0  0  0  0  0  0  0  0  0
   10.1976   -1.8161   21.6942 H   0  0  0  0  0  0  0  0  0  0  0  0
    8.0917   -2.1635   22.8564 S   0  0  0  0  0  0  0  0  0  0  0  0
    6.8293   -1.4949   21.6864 C   0  0  2  0  0  0  0  0  0  0  0  0
    6.0571   -1.0033   22.2901 H   0  0  0  0  0  0  0  0  0  0  0  0
    6.1654   -2.5929   20.8260 C   0  0  0  0  0  0  0  0  0  0  0  0
    6.9718   -3.0222   20.2260 H   0  0  0  0  0  0  0  0  0  0  0  0
    5.4735   -2.1021   20.1203 H   0  0  0  0  0  0  0  0  0  0  0  0
    5.5604   -3.6556   21.6143 N   0  0  0  0  0  0  0  0  0  0  0  0
    4.7221   -3.4177   22.1263 H   0  0  0  0  0  0  0  0  0  0  0  0
    5.6572   -4.9831   21.1214 C   0  0  1  0  0  0  0  0  0  0  0  0
    5.0605   -5.2596   20.2437 H   0  0  0  0  0  0  0  0  0  0  0  0
    7.0218   -5.5873   21.1612 C   0  0  0  0  0  0  0  0  0  0  0  0
    7.4083   -6.1870   20.3446 H   0  0  0  0  0  0  0  0  0  0  0  0
    7.7492   -5.0221   21.7417 H   0  0  0  0  0  0  0  0  0  0  0  0
    5.9057   -6.2238   22.0647 C   0  0  1  0  0  0  0  0  0  0  0  0
    5.4607   -7.0858   21.5186 H   0  0  0  0  0  0  0  0  0  0  0  0
    5.8008   -6.4420   23.6103 C   0  0  0  0  0  0  0  0  0  0  0  0
    6.0377   -6.2289   23.7375 C   0  0  0  0  0  0  0  0  0  0  0  0
    7.1913   -6.1402   23.9459 H   0  0  0  0  0  0  0  0  0  0  0  0
    6.3661   -5.5541   25.7000 C   0  0  0  0  0  0  0  0  0  0  0  0
    7.3012   -5.9095   26.1219 H   0  0  0  0  0  0  0  0  0  0  0  0
    5.2444   -4.9783   26.1243 C   0  0  0  0  0  0  0  0  0  0  0  0
    5.1064   -4.5198   27.0990 H   0  0  0  0  0  0  0  0  0  0  0  0
    4.1408   -5.0799   25.1315 C   0  0  0  0  0  0  0  0  0  0  0  0
    3.1400   -4.7032   25.2790 H   0  0  0  0  0  0  0  0  0  0  0  0
    4.4995   -5.7427   23.9685 C   0  0  0  0  0  0  0  0  0  0  0  0
    3.7097   -6.0753   23.2767 H   0  0  0  0  0  0  0  0  0  0  0  0
    5.6252    0.8389   20.0540 C   0  0  0  0  0  0  0  0  0  0  0  0
    5.2688    0.9135   21.0819 H   0  0  0  0  0  0  0  0  0  0  0  0
    4.9306    1.4279   18.9902 C   0  0  0  0  0  0  0  0  0  0  0  0
    4.0120    1.9803   19.1561 H   0  0  0  0  0  0  0  0  0  0  0  0
  1  2  1  0
  2  3  2  0
  3  4  1  0
  4  5  1  0
  4  6  2  0
  6  7  1  0
  7  8  1  0
  8  9  2  0
  8 10  1  0
 10 11  1  0
 10 12  1  0
 10 13  1  0
 13 14  1  0
 14 15  1  1
 14 16  1  0
 16 17  1  0
 16 18  1  0
 16 19  1  0
 19 20  1  0
 19 21  1  0
 21 22  1  6
 21 23  1  0
 23 24  1  0
 23 25  1  0
 23 26  1  0
 26 27  1  6
 26 28  1  0
 28 29  2  0
 29 30  1  0
 29 31  1  0
 31 32  1  0
 31 33  2  0
 33 34  1  0
 33 35  1  0
 35 36  1  0
 35 37  2  0
 37 38  1  0
  6 39  1  0
 39 40  1  0
 39 41  2  0
 41 42  1  0
 41  2  1  0
 14  7  1  0
 26 21  1  0
 37 28  1  0
M  END
>  <plip>  (1) 
-0.2

>  <filename>  (1) 
[H][c]1[n][c]([H])[c]([N]2[C](=[O])[C]([H])([H])[S][C@]2([H])[C]([H])([H])[N]([H])[C@@]2([H])[C]([H])([H])[C@@]2([H])[c]2[c]([H])[c]([H])[c]([H])[c]([H])[c]2[H])[c]([H])[c]1[H]

$$$$
