
     RDKit          3D

 25 26  0  0  0  0  0  0  0  0999 V2000
    4.9161    1.7954   16.9842 H   0  0  0  0  0  0  0  0  0  0  0  0
    5.3941    1.3022   17.8272 C   0  0  0  0  0  0  0  0  0  0  0  0
    6.5576    0.6918   17.5562 N   0  0  0  0  0  0  0  0  0  0  0  0
    7.1735    0.0893   18.5802 C   0  0  0  0  0  0  0  0  0  0  0  0
    8.1108   -0.4175   18.3446 H   0  0  0  0  0  0  0  0  0  0  0  0
    6.6615    0.0287   19.8953 C   0  0  0  0  0  0  0  0  0  0  0  0
    7.3496   -0.7007   20.9696 C   0  0  0  0  0  0  0  0  0  0  0  0
    8.6214   -0.5426   21.3824 C   0  0  0  0  0  0  0  0  0  0  0  0
    9.5689    0.5315   20.9796 C   0  0  0  0  0  0  0  0  0  0  0  0
   10.5999    0.3337   21.2953 H   0  0  0  0  0  0  0  0  0  0  0  0
    9.5658    0.6627   19.8957 H   0  0  0  0  0  0  0  0  0  0  0  0
    9.2268    1.8897   21.5541 C   0  0  0  0  0  0  0  0  0  0  0  0
    9.1398    1.8780   22.8994 F   0  0  0  0  0  0  0  0  0  0  0  0
   10.2156    2.7303   21.2155 F   0  0  0  0  0  0  0  0  0  0  0  0
    8.0685    2.3778   21.0826 F   0  0  0  0  0  0  0  0  0  0  0  0
    8.8826   -1.4742   22.5209 C   0  0  0  0  0  0  0  0  0  0  0  0
    9.1137   -0.9445   23.4585 H   0  0  0  0  0  0  0  0  0  0  0  0
    9.7127   -2.1573   22.3043 H   0  0  0  0  0  0  0  0  0  0  0  0
    7.6850   -2.2115   22.6740 O   0  0  0  0  0  0  0  0  0  0  0  0
    6.7414   -1.7982   21.7831 C   0  0  0  0  0  0  0  0  0  0  0  0
    5.6694   -2.3327   21.7066 O   0  0  0  0  0  0  0  0  0  0  0  0
    5.4297    0.6469   20.1428 C   0  0  0  0  0  0  0  0  0  0  0  0
    5.0050    0.6046   21.1495 H   0  0  0  0  0  0  0  0  0  0  0  0
    4.7989    1.3113   19.0921 C   0  0  0  0  0  0  0  0  0  0  0  0
    3.8726    1.8450   19.2439 H   0  0  0  0  0  0  0  0  0  0  0  0
  1  2  1  0
  2  3  2  0
  3  4  1  0
  4  5  1  0
  4  6  2  0
  6  7  1  0
  7  8  2  0
  8  9  1  0
  9 10  1  0
  9 11  1  0
  9 12  1  0
 12 13  1  0
 12 14  1  0
 12 15  1  0
  8 16  1  0
 16 17  1  0
 16 18  1  0
 16 19  1  0
 19 20  1  0
 20 21  2  0
  6 22  1  0
 22 23  1  0
 22 24  2  0
 24 25  1  0
 24  2  1  0
 20  7  1  0
M  END
>  <plip>  (1) 
-0.03571428571428571

>  <filename>  (1) 
[H][c]1[n][c]([H])[c]([C]2=[C]([C]([H])([H])[C]([F])([F])[F])[C]([H])([H])[O][C]2=[O])[c]([H])[c]1[H]

$$$$
