
     RDKit          3D

 29 31  0  0  0  0  0  0  0  0999 V2000
    4.9162    1.7812   16.9933 H   0  0  0  0  0  0  0  0  0  0  0  0
    5.4011    1.2938   17.8365 C   0  0  0  0  0  0  0  0  0  0  0  0
    6.5653    0.6750   17.5826 N   0  0  0  0  0  0  0  0  0  0  0  0
    7.1780    0.0632   18.5989 C   0  0  0  0  0  0  0  0  0  0  0  0
    8.1159   -0.4334   18.3680 H   0  0  0  0  0  0  0  0  0  0  0  0
    6.6639    0.0096   19.9065 C   0  0  0  0  0  0  0  0  0  0  0  0
    7.3667   -0.6753   20.9299 N   0  0  0  0  0  0  0  0  0  0  0  0
    8.7446   -0.7967   21.0528 C   0  0  0  0  0  0  0  0  0  0  0  0
    9.4030   -0.3239   20.3355 H   0  0  0  0  0  0  0  0  0  0  0  0
    9.0202   -1.5224   22.1751 C   0  0  0  0  0  0  0  0  0  0  0  0
    9.9973   -1.7674   22.5655 H   0  0  0  0  0  0  0  0  0  0  0  0
    7.7744   -1.8757   22.7865 C   0  0  0  0  0  0  0  0  0  0  0  0
    7.5662   -2.6367   24.0267 C   0  0  0  0  0  0  0  0  0  0  0  0
    6.4367   -2.4043   24.8311 C   0  0  0  0  0  0  0  0  0  0  0  0
    5.7248   -1.6471   24.5219 H   0  0  0  0  0  0  0  0  0  0  0  0
    6.2157   -3.0997   26.0133 C   0  0  0  0  0  0  0  0  0  0  0  0
    5.3408   -2.9176   26.6267 H   0  0  0  0  0  0  0  0  0  0  0  0
    7.1543   -4.0518   26.3979 C   0  0  0  0  0  0  0  0  0  0  0  0
    6.9588   -4.7306   27.5323 F   0  0  0  0  0  0  0  0  0  0  0  0
    8.2913   -4.3332   25.6494 C   0  0  0  0  0  0  0  0  0  0  0  0
    9.0122   -5.0799   25.9612 H   0  0  0  0  0  0  0  0  0  0  0  0
    8.4660   -3.6167   24.4751 C   0  0  0  0  0  0  0  0  0  0  0  0
    9.5557   -3.8995   23.7397 F   0  0  0  0  0  0  0  0  0  0  0  0
    6.7921   -1.3389   21.9905 C   0  0  0  0  0  0  0  0  0  0  0  0
    5.7179   -1.4098   22.0723 H   0  0  0  0  0  0  0  0  0  0  0  0
    5.4378    0.6489   20.1624 C   0  0  0  0  0  0  0  0  0  0  0  0
    5.0087    0.6427   21.1670 H   0  0  0  0  0  0  0  0  0  0  0  0
    4.8089    1.3100   19.1049 C   0  0  0  0  0  0  0  0  0  0  0  0
    3.8755    1.8415   19.2614 H   0  0  0  0  0  0  0  0  0  0  0  0
  1  2  1  0
  2  3  2  0
  3  4  1  0
  4  5  1  0
  4  6  2  0
  6  7  1  0
  7  8  1  0
  8  9  1  0
  8 10  2  0
 10 11  1  0
 10 12  1  0
 12 13  1  0
 13 14  2  0
 14 15  1  0
 14 16  1  0
 16 17  1  0
 16 18  2  0
 18 19  1  0
 18 20  1  0
 20 21  1  0
 20 22  2  0
 22 23  1  0
 12 24  2  0
 24 25  1  0
  6 26  1  0
 26 27  1  0
 26 28  2  0
 28 29  1  0
 28  2  1  0
 24  7  1  0
 22 13  1  0
M  END
>  <plip>  (1) 
-0.03571428571428571

>  <filename>  (1) 
[H][c]1[n][c]([H])[c](-[n]2[c]([H])[c]([H])[c](-[c]3[c]([H])[c]([H])[c]([F])[c]([H])[c]3[F])[c]2[H])[c]([H])[c]1[H]

$$$$
