
     RDKit          3D

 41 43  0  0  0  0  0  0  0  0999 V2000
    8.8520   -0.4266   21.1370 C   0  0  0  0  0  0  0  0  0  0  0  0
    7.3842   -0.7153   20.9613 C   0  0  0  0  0  0  0  0  0  0  0  0
    6.7609   -1.6081   21.7463 C   0  0  0  0  0  0  0  0  0  0  0  0
    7.3944   -2.4302   22.8020 C   0  0  0  0  0  0  0  0  0  0  0  0
    8.5891   -2.4733   23.0691 O   0  0  0  0  0  0  0  0  0  0  0  0
    6.4773   -3.1915   23.4713 N   0  0  0  0  0  0  0  0  0  0  0  0
    6.8193   -4.0012   24.6239 C   0  0  0  0  0  0  0  0  0  0  0  0
    7.1884   -3.1883   25.8844 C   0  0  0  0  0  0  0  0  0  0  0  0
    7.6548   -4.0981   26.9785 C   0  0  0  0  0  0  0  0  0  0  0  0
    8.9248   -4.5431   27.2333 C   0  0  0  0  0  0  0  0  0  0  0  0
    8.8854   -5.4665   28.2616 N   0  0  0  0  0  0  0  0  0  0  0  0
    7.5878   -5.5975   28.7165 C   0  0  0  0  0  0  0  0  0  0  0  0
    6.9847   -6.2830   29.7917 C   0  0  0  0  0  0  0  0  0  0  0  0
    5.6137   -6.1002   29.9416 C   0  0  0  0  0  0  0  0  0  0  0  0
    4.8923   -5.2794   29.0386 C   0  0  0  0  0  0  0  0  0  0  0  0
    5.4370   -4.6231   28.0213 N   0  0  0  0  0  0  0  0  0  0  0  0
    6.7807   -4.7649   27.8943 C   0  0  0  0  0  0  0  0  0  0  0  0
    3.8206   -5.1419   29.1789 H   0  0  0  0  0  0  0  0  0  0  0  0
    5.0730   -6.5704   30.7569 H   0  0  0  0  0  0  0  0  0  0  0  0
    7.5366   -6.9200   30.4783 H   0  0  0  0  0  0  0  0  0  0  0  0
    9.6935   -5.9150   28.6652 H   0  0  0  0  0  0  0  0  0  0  0  0
    9.8626   -4.2487   26.7634 H   0  0  0  0  0  0  0  0  0  0  0  0
    6.3201   -2.5994   26.2219 H   0  0  0  0  0  0  0  0  0  0  0  0
    7.9928   -2.4895   25.6245 H   0  0  0  0  0  0  0  0  0  0  0  0
    7.6844   -4.6232   24.3599 H   0  0  0  0  0  0  0  0  0  0  0  0
    5.9816   -4.6746   24.8508 H   0  0  0  0  0  0  0  0  0  0  0  0
    5.5278   -2.9006   23.3259 H   0  0  0  0  0  0  0  0  0  0  0  0
    5.6975   -1.7769   21.6117 H   0  0  0  0  0  0  0  0  0  0  0  0
    6.6146   -0.0130   19.9025 C   0  0  0  0  0  0  0  0  0  0  0  0
    5.3838    0.6298   20.1239 C   0  0  0  0  0  0  0  0  0  0  0  0
    4.7877    1.3074   19.0604 C   0  0  0  0  0  0  0  0  0  0  0  0
    5.4130    1.3001   17.8083 C   0  0  0  0  0  0  0  0  0  0  0  0
    6.5699    0.6649   17.5668 N   0  0  0  0  0  0  0  0  0  0  0  0
    7.1451    0.0441   18.6019 C   0  0  0  0  0  0  0  0  0  0  0  0
    8.0916   -0.4575   18.4046 H   0  0  0  0  0  0  0  0  0  0  0  0
    4.9689    1.8307   16.9681 H   0  0  0  0  0  0  0  0  0  0  0  0
    3.8598    1.8506   19.1877 H   0  0  0  0  0  0  0  0  0  0  0  0
    4.9270    0.6308   21.1150 H   0  0  0  0  0  0  0  0  0  0  0  0
    9.0461   -0.1939   22.1886 H   0  0  0  0  0  0  0  0  0  0  0  0
    9.1974    0.4031   20.5148 H   0  0  0  0  0  0  0  0  0  0  0  0
    9.4432   -1.3249   20.9315 H   0  0  0  0  0  0  0  0  0  0  0  0
  1  2  1  0
  2  3  2  3
  3  4  1  0
  4  5  2  0
  4  6  1  0
  6  7  1  0
  7  8  1  0
  8  9  1  0
  9 10  2  0
 10 11  1  0
 11 12  1  0
 12 13  2  0
 13 14  1  0
 14 15  2  0
 15 16  1  0
 16 17  2  0
 15 18  1  0
 14 19  1  0
 13 20  1  0
 11 21  1  0
 10 22  1  0
  8 23  1  0
  8 24  1  0
  7 25  1  0
  7 26  1  0
  6 27  1  0
  3 28  1  0
  2 29  1  0
 29 30  2  0
 30 31  1  0
 31 32  2  0
 32 33  1  0
 33 34  2  0
 34 35  1  0
 32 36  1  0
 31 37  1  0
 30 38  1  0
  1 39  1  0
  1 40  1  0
  1 41  1  0
 17  9  1  0
 34 29  1  0
 17 12  1  0
M  END
>  <plip>  (1) 
-0.10714285714285714

>  <filename>  (1) 
[H][C]([C](=[O])[N]([H])[C]([H])([H])[C]([H])([H])[c]1[c]([H])[n]([H])[c]2[c]([H])[c]([H])[c]([H])[n][c]12)=[C]([c]1[c]([H])[n][c]([H])[c]([H])[c]1[H])[C]([H])([H])[H]

$$$$
