
     RDKit          3D

 33 34  0  0  0  0  0  0  0  0999 V2000
    6.6701   -2.3871   20.4860 H   0  0  0  0  0  0  0  0  0  0  0  0
    7.5663   -2.0658   20.6176 O   0  0  0  0  0  0  0  0  0  0  0  0
    7.4886   -0.6982   20.9581 C   0  0  2  0  0  0  0  0  0  0  0  0
    6.6335    0.0423   19.9384 C   0  0  0  0  0  0  0  0  0  0  0  0
    7.1338    0.0417   18.6278 C   0  0  0  0  0  0  0  0  0  0  0  0
    8.0686   -0.4719   18.4241 H   0  0  0  0  0  0  0  0  0  0  0  0
    6.5493    0.6407   17.5845 N   0  0  0  0  0  0  0  0  0  0  0  0
    5.3928    1.2788   17.8153 C   0  0  0  0  0  0  0  0  0  0  0  0
    4.9427    1.7821   16.9592 H   0  0  0  0  0  0  0  0  0  0  0  0
    4.7801    1.3168   19.0716 C   0  0  0  0  0  0  0  0  0  0  0  0
    3.8361    1.8415   19.1803 H   0  0  0  0  0  0  0  0  0  0  0  0
    5.4027    0.6815   20.1546 C   0  0  0  0  0  0  0  0  0  0  0  0
    4.9183    0.7046   21.1349 H   0  0  0  0  0  0  0  0  0  0  0  0
    8.8781   -0.4005   20.8000 N   0  0  0  0  0  0  0  0  0  0  0  0
    9.3858   -1.2652   20.8569 H   0  0  0  0  0  0  0  0  0  0  0  0
    9.5298    0.7424   21.2071 C   0  0  0  0  0  0  0  0  0  0  0  0
   10.9288    0.7209   21.3558 C   0  0  0  0  0  0  0  0  0  0  0  0
   11.4727   -0.2007   21.1604 H   0  0  0  0  0  0  0  0  0  0  0  0
   11.6058    1.8753   21.7429 C   0  0  0  0  0  0  0  0  0  0  0  0
   12.6944    1.8830   21.7949 H   0  0  0  0  0  0  0  0  0  0  0  0
   10.9118    3.0603   22.0196 C   0  0  0  0  0  0  0  0  0  0  0  0
   11.6605    4.3344   22.3063 C   0  0  0  0  0  0  0  0  0  0  0  0
   12.4637    4.1670   23.0261 H   0  0  0  0  0  0  0  0  0  0  0  0
   10.9980    5.1225   22.6769 H   0  0  0  0  0  0  0  0  0  0  0  0
   12.1180    4.7065   21.3814 H   0  0  0  0  0  0  0  0  0  0  0  0
    9.5152    3.0519   21.9105 C   0  0  0  0  0  0  0  0  0  0  0  0
    8.9759    3.9641   22.1523 H   0  0  0  0  0  0  0  0  0  0  0  0
    8.8280    1.9320   21.4475 C   0  0  0  0  0  0  0  0  0  0  0  0
    7.7664    1.9740   21.2117 H   0  0  0  0  0  0  0  0  0  0  0  0
    7.0157   -0.5580   22.4066 C   0  0  0  0  0  0  0  0  0  0  0  0
    6.0299   -1.0107   22.5070 H   0  0  0  0  0  0  0  0  0  0  0  0
    7.7169   -1.1047   23.0444 H   0  0  0  0  0  0  0  0  0  0  0  0
    6.9676    0.4798   22.7442 H   0  0  0  0  0  0  0  0  0  0  0  0
  1  2  1  0
  3  2  1  6
  3  4  1  0
  4  5  2  0
  5  6  1  0
  5  7  1  0
  7  8  2  0
  8  9  1  0
  8 10  1  0
 10 11  1  0
 10 12  2  0
 12 13  1  0
  3 14  1  0
 14 15  1  0
 14 16  1  0
 16 17  2  0
 17 18  1  0
 17 19  1  0
 19 20  1  0
 19 21  2  0
 21 22  1  0
 22 23  1  0
 22 24  1  0
 22 25  1  0
 21 26  1  0
 26 27  1  0
 26 28  2  0
 28 29  1  0
  3 30  1  0
 30 31  1  0
 30 32  1  0
 30 33  1  0
 12  4  1  0
 28 16  1  0
M  END
>  <plip>  (1) 
-0.10344827586206896

>  <filename>  (1) 
[H][O][C@]([c]1[c]([H])[n][c]([H])[c]([H])[c]1[H])([N]([H])[c]1[c]([H])[c]([H])[c]([C]([H])([H])[H])[c]([H])[c]1[H])[C]([H])([H])[H]

$$$$
