
     RDKit          3D

 39 41  0  0  0  0  0  0  0  0999 V2000
    4.9358    1.7859   17.0040 H   0  0  0  0  0  0  0  0  0  0  0  0
    5.4055    1.3649   17.8897 C   0  0  0  0  0  0  0  0  0  0  0  0
    6.6033    0.7892   17.7043 N   0  0  0  0  0  0  0  0  0  0  0  0
    7.2035    0.2390   18.7638 C   0  0  0  0  0  0  0  0  0  0  0  0
    8.2076   -0.1558   18.6099 H   0  0  0  0  0  0  0  0  0  0  0  0
    6.6207    0.1919   20.0422 C   0  0  0  0  0  0  0  0  0  0  0  0
    7.2251   -0.5412   21.1017 N   0  0  0  0  0  0  0  0  0  0  0  0
    7.2264    0.0661   22.3259 N   0  0  0  0  0  0  0  0  0  0  0  0
    7.8415   -0.5232   23.3227 C   0  0  0  0  0  0  0  0  0  0  0  0
    7.7457    0.2343   24.4920 N   0  0  0  0  0  0  0  0  0  0  0  0
    7.3740    1.1145   24.1415 H   0  0  0  0  0  0  0  0  0  0  0  0
    8.8892    0.3425   25.4035 C   0  0  0  0  0  0  0  0  0  0  0  0
    8.5673    0.9883   26.2301 H   0  0  0  0  0  0  0  0  0  0  0  0
    9.0722   -0.6449   25.8355 H   0  0  0  0  0  0  0  0  0  0  0  0
   10.1570    0.8747   24.7657 C   0  0  0  0  0  0  0  0  0  0  0  0
   11.2626    0.0388   24.5303 C   0  0  0  0  0  0  0  0  0  0  0  0
   11.1793   -1.0083   24.8064 H   0  0  0  0  0  0  0  0  0  0  0  0
   12.4195    0.5336   23.9377 C   0  0  0  0  0  0  0  0  0  0  0  0
   13.2974   -0.0807   23.7700 H   0  0  0  0  0  0  0  0  0  0  0  0
   12.4781    1.8760   23.5393 C   0  0  0  0  0  0  0  0  0  0  0  0
   13.6298    2.2427   22.9167 O   0  0  0  0  0  0  0  0  0  0  0  0
   13.9002    3.6117   22.7007 C   0  0  0  0  0  0  0  0  0  0  0  0
   14.9414    3.6601   22.3766 H   0  0  0  0  0  0  0  0  0  0  0  0
   13.7779    4.1902   23.6254 H   0  0  0  0  0  0  0  0  0  0  0  0
   13.2522    4.0344   21.9205 H   0  0  0  0  0  0  0  0  0  0  0  0
   11.3820    2.7172   23.7537 C   0  0  0  0  0  0  0  0  0  0  0  0
   11.4120    3.7463   23.4253 H   0  0  0  0  0  0  0  0  0  0  0  0
   10.2296    2.2127   24.3631 C   0  0  0  0  0  0  0  0  0  0  0  0
    9.3679    2.8594   24.5075 H   0  0  0  0  0  0  0  0  0  0  0  0
    8.5284   -1.8926   23.2160 C   0  0  0  0  0  0  0  0  0  0  0  0
    9.1637   -2.4636   24.0996 O   0  0  0  0  0  0  0  0  0  0  0  0
    8.3442   -2.4832   21.9026 C   0  0  0  0  0  0  0  0  0  0  0  0
    8.7714   -3.4656   21.7664 H   0  0  0  0  0  0  0  0  0  0  0  0
    7.6912   -1.8150   20.9280 C   0  0  0  0  0  0  0  0  0  0  0  0
    7.4582   -2.2420   19.9591 H   0  0  0  0  0  0  0  0  0  0  0  0
    5.4131    0.8670   20.2501 C   0  0  0  0  0  0  0  0  0  0  0  0
    5.0201    0.9298   21.2635 H   0  0  0  0  0  0  0  0  0  0  0  0
    4.7855    1.4422   19.1428 C   0  0  0  0  0  0  0  0  0  0  0  0
    3.8380    1.9546   19.2392 H   0  0  0  0  0  0  0  0  0  0  0  0
  1  2  1  0
  2  3  2  0
  3  4  1  0
  4  5  1  0
  4  6  2  0
  6  7  1  0
  7  8  1  0
  8  9  2  0
  9 10  1  0
 10 11  1  0
 10 12  1  0
 12 13  1  0
 12 14  1  0
 12 15  1  0
 15 16  2  0
 16 17  1  0
 16 18  1  0
 18 19  1  0
 18 20  2  0
 20 21  1  0
 21 22  1  0
 22 23  1  0
 22 24  1  0
 22 25  1  0
 20 26  1  0
 26 27  1  0
 26 28  2  0
 28 29  1  0
  9 30  1  0
 30 31  2  0
 30 32  1  0
 32 33  1  0
 32 34  2  0
 34 35  1  0
  6 36  1  0
 36 37  1  0
 36 38  2  0
 38 39  1  0
 38  2  1  0
 34  7  1  0
 28 15  1  0
M  END
>  <plip>  (1) 
-0.06451612903225806

>  <filename>  (1) 
[H][c]1[n][c]([H])[c](-[n]2[n][c]([N]([H])[C]([H])([H])[c]3[c]([H])[c]([H])[c]([O][C]([H])([H])[H])[c]([H])[c]3[H])[c](=[O])[c]([H])[c]2[H])[c]([H])[c]1[H]

$$$$
