
     RDKit          3D

 31 33  0  0  0  0  0  0  0  0999 V2000
    4.9433    1.7887   17.0075 H   0  0  0  0  0  0  0  0  0  0  0  0
    5.4070    1.2853   17.8512 C   0  0  0  0  0  0  0  0  0  0  0  0
    6.5727    0.6696   17.5963 N   0  0  0  0  0  0  0  0  0  0  0  0
    7.1745    0.0426   18.6119 C   0  0  0  0  0  0  0  0  0  0  0  0
    8.1240   -0.4496   18.4096 H   0  0  0  0  0  0  0  0  0  0  0  0
    6.6499   -0.0029   19.9156 C   0  0  0  0  0  0  0  0  0  0  0  0
    7.3724   -0.7204   20.8423 O   0  0  0  0  0  0  0  0  0  0  0  0
    7.3107   -0.3679   22.1753 C   0  0  0  0  0  0  0  0  0  0  0  0
    7.2682   -1.2984   23.2316 C   0  0  0  0  0  0  0  0  0  0  0  0
    7.3248   -2.3826   23.1811 H   0  0  0  0  0  0  0  0  0  0  0  0
    7.1940   -0.6932   24.4143 N   0  0  0  0  0  0  0  0  0  0  0  0
    7.2024    0.6201   24.1100 N   0  0  0  0  0  0  0  0  0  0  0  0
    7.2674    1.3175   24.8369 H   0  0  0  0  0  0  0  0  0  0  0  0
    7.3147    0.8833   22.7860 C   0  0  0  0  0  0  0  0  0  0  0  0
    7.5532    2.1663   22.3082 N   0  0  0  0  0  0  0  0  0  0  0  0
    7.5419    2.1667   21.2944 H   0  0  0  0  0  0  0  0  0  0  0  0
    6.8939    3.3402   22.8719 C   0  0  0  0  0  0  0  0  0  0  0  0
    7.3033    4.2054   22.3417 H   0  0  0  0  0  0  0  0  0  0  0  0
    7.1912    3.4511   23.9244 H   0  0  0  0  0  0  0  0  0  0  0  0
    5.3797    3.3415   22.8193 C   0  0  0  0  0  0  0  0  0  0  0  0
    4.5179    4.0839   21.5189 S   0  0  0  0  0  0  0  0  0  0  0  0
    2.9909    3.6337   22.1704 C   0  0  0  0  0  0  0  0  0  0  0  0
    2.0940    3.8936   21.6210 H   0  0  0  0  0  0  0  0  0  0  0  0
    3.1279    2.9729   23.3567 C   0  0  0  0  0  0  0  0  0  0  0  0
    2.2825    2.6158   23.9388 H   0  0  0  0  0  0  0  0  0  0  0  0
    4.5004    2.8206   23.7299 C   0  0  0  0  0  0  0  0  0  0  0  0
    4.8400    2.3291   24.6364 H   0  0  0  0  0  0  0  0  0  0  0  0
    5.4379    0.6385   20.1784 C   0  0  0  0  0  0  0  0  0  0  0  0
    5.0433    0.6343   21.1989 H   0  0  0  0  0  0  0  0  0  0  0  0
    4.8028    1.2974   19.1142 C   0  0  0  0  0  0  0  0  0  0  0  0
    3.8659    1.8284   19.2410 H   0  0  0  0  0  0  0  0  0  0  0  0
  1  2  1  0
  2  3  2  0
  3  4  1  0
  4  5  1  0
  4  6  2  0
  6  7  1  0
  7  8  1  0
  8  9  1  0
  9 10  1  0
  9 11  2  0
 11 12  1  0
 12 13  1  0
 12 14  1  0
 14 15  1  0
 15 16  1  0
 15 17  1  0
 17 18  1  0
 17 19  1  0
 17 20  1  0
 20 21  1  0
 21 22  1  0
 22 23  1  0
 22 24  2  0
 24 25  1  0
 24 26  1  0
 26 27  1  0
  6 28  1  0
 28 29  1  0
 28 30  2  0
 30 31  1  0
 30  2  1  0
 14  8  2  0
 26 20  2  0
M  END
>  <plip>  (1) 
-0.03571428571428571

>  <filename>  (1) 
[H][c]1[n][c]([H])[c]([O][c]2[c]([H])[n][n]([H])[c]2[N]([H])[C]([H])([H])[c]2[s][c]([H])[c]([H])[c]2[H])[c]([H])[c]1[H]

$$$$
