
     RDKit          3D

 32 34  0  0  0  0  0  0  0  0999 V2000
    4.9155    1.8147   16.9672 H   0  0  0  0  0  0  0  0  0  0  0  0
    5.3860    1.3082   17.8084 C   0  0  0  0  0  0  0  0  0  0  0  0
    6.5466    0.6843   17.5474 N   0  0  0  0  0  0  0  0  0  0  0  0
    7.1535    0.0571   18.5625 C   0  0  0  0  0  0  0  0  0  0  0  0
    8.1110   -0.4008   18.3232 H   0  0  0  0  0  0  0  0  0  0  0  0
    6.6533    0.0022   19.8810 C   0  0  0  0  0  0  0  0  0  0  0  0
    7.3764   -0.6798   20.9579 C   0  0  0  0  0  0  0  0  0  0  0  0
    7.6387   -0.3228   22.2671 C   0  0  0  0  0  0  0  0  0  0  0  0
    7.2742    0.9896   22.9136 C   0  0  0  0  0  0  0  0  0  0  0  0
    6.3971    0.8682   23.5553 H   0  0  0  0  0  0  0  0  0  0  0  0
    7.0410    1.7300   22.1344 H   0  0  0  0  0  0  0  0  0  0  0  0
    8.2390    1.5287   23.7945 O   0  0  0  0  0  0  0  0  0  0  0  0
    9.4489    1.9337   23.3148 C   0  0  0  0  0  0  0  0  0  0  0  0
   10.3579    2.2759   24.3177 C   0  0  0  0  0  0  0  0  0  0  0  0
   10.0585    2.1618   25.3553 H   0  0  0  0  0  0  0  0  0  0  0  0
   11.6070    2.7530   23.9663 C   0  0  0  0  0  0  0  0  0  0  0  0
   12.2479    3.0376   24.7712 H   0  0  0  0  0  0  0  0  0  0  0  0
   11.9893    2.8830   22.6282 C   0  0  0  0  0  0  0  0  0  0  0  0
   12.9761    3.2622   22.3809 H   0  0  0  0  0  0  0  0  0  0  0  0
   11.0840    2.5258   21.6279 C   0  0  0  0  0  0  0  0  0  0  0  0
   11.3607    2.6409   20.5810 H   0  0  0  0  0  0  0  0  0  0  0  0
    9.8076    2.0458   21.9621 C   0  0  0  0  0  0  0  0  0  0  0  0
    9.0974    1.7617   21.1920 H   0  0  0  0  0  0  0  0  0  0  0  0
    8.3086   -1.3318   22.9066 N   0  0  0  0  0  0  0  0  0  0  0  0
    8.4952   -2.2607   22.0106 C   0  0  0  0  0  0  0  0  0  0  0  0
    9.0137   -3.1975   22.1744 H   0  0  0  0  0  0  0  0  0  0  0  0
    7.9690   -1.9066   20.8070 N   0  0  0  0  0  0  0  0  0  0  0  0
    7.9148   -2.4735   19.9776 H   0  0  0  0  0  0  0  0  0  0  0  0
    5.4307    0.6562   20.1231 C   0  0  0  0  0  0  0  0  0  0  0  0
    4.9920    0.6293   21.1222 H   0  0  0  0  0  0  0  0  0  0  0  0
    4.7902    1.3193   19.0739 C   0  0  0  0  0  0  0  0  0  0  0  0
    3.8608    1.8532   19.2315 H   0  0  0  0  0  0  0  0  0  0  0  0
  1  2  1  0
  2  3  2  0
  3  4  1  0
  4  5  1  0
  4  6  2  0
  6  7  1  0
  7  8  2  0
  8  9  1  0
  9 10  1  0
  9 11  1  0
  9 12  1  0
 12 13  1  0
 13 14  2  0
 14 15  1  0
 14 16  1  0
 16 17  1  0
 16 18  2  0
 18 19  1  0
 18 20  1  0
 20 21  1  0
 20 22  2  0
 22 23  1  0
  8 24  1  0
 24 25  2  0
 25 26  1  0
 25 27  1  0
 27 28  1  0
  6 29  1  0
 29 30  1  0
 29 31  2  0
 31 32  1  0
 31  2  1  0
 27  7  1  0
 22 13  1  0
M  END
>  <plip>  (1) 
-0.06896551724137931

>  <filename>  (1) 
[H][c]1[n][c]([H])[c](-[c]2[c]([C]([H])([H])[O][c]3[c]([H])[c]([H])[c]([H])[c]([H])[c]3[H])[n][c]([H])[n]2[H])[c]([H])[c]1[H]

$$$$
