
     RDKit          3D

 26 28  0  0  0  0  0  0  0  0999 V2000
    7.4310    1.1991   27.1357 H   0  0  0  0  0  0  0  0  0  0  0  0
    7.8829    0.3404   26.6403 C   0  0  0  0  0  0  0  0  0  0  0  0
    7.6590    0.2131   25.3349 N   0  0  0  0  0  0  0  0  0  0  0  0
    8.2132   -0.8453   24.7322 C   0  0  0  0  0  0  0  0  0  0  0  0
    8.0253   -0.9632   23.2876 C   0  0  0  0  0  0  0  0  0  0  0  0
    8.8436   -2.2109   22.4170 S   0  0  0  0  0  0  0  0  0  0  0  0
    8.2655   -1.5847   20.9340 C   0  0  0  0  0  0  0  0  0  0  0  0
    8.6487   -1.9814   20.0139 H   0  0  0  0  0  0  0  0  0  0  0  0
    7.3944   -0.5345   21.0845 C   0  0  0  0  0  0  0  0  0  0  0  0
    6.6428    0.0953   19.9741 C   0  0  0  0  0  0  0  0  0  0  0  0
    7.1629    0.0921   18.6678 C   0  0  0  0  0  0  0  0  0  0  0  0
    8.1095   -0.4073   18.4735 H   0  0  0  0  0  0  0  0  0  0  0  0
    6.5841    0.6730   17.6093 N   0  0  0  0  0  0  0  0  0  0  0  0
    5.4133    1.3007   17.8107 C   0  0  0  0  0  0  0  0  0  0  0  0
    4.9657    1.7877   16.9413 H   0  0  0  0  0  0  0  0  0  0  0  0
    4.7764    1.3295   19.0570 C   0  0  0  0  0  0  0  0  0  0  0  0
    3.8269    1.8435   19.1559 H   0  0  0  0  0  0  0  0  0  0  0  0
    5.3942    0.7177   20.1491 C   0  0  0  0  0  0  0  0  0  0  0  0
    4.9171    0.7021   21.1297 H   0  0  0  0  0  0  0  0  0  0  0  0
    7.2998   -0.1522   22.4606 C   0  0  0  0  0  0  0  0  0  0  0  0
    6.7719    0.7241   22.8356 H   0  0  0  0  0  0  0  0  0  0  0  0
    8.9341   -1.7942   25.3388 N   0  0  0  0  0  0  0  0  0  0  0  0
    9.1374   -1.6530   26.6429 C   0  0  0  0  0  0  0  0  0  0  0  0
    9.7117   -2.4403   27.1213 H   0  0  0  0  0  0  0  0  0  0  0  0
    8.6465   -0.5696   27.3570 C   0  0  0  0  0  0  0  0  0  0  0  0
    8.8630   -0.4352   28.4044 H   0  0  0  0  0  0  0  0  0  0  0  0
  1  2  1  0
  2  3  2  0
  3  4  1  0
  4  5  1  0
  5  6  1  0
  6  7  1  0
  7  8  1  0
  7  9  2  0
  9 10  1  0
 10 11  2  0
 11 12  1  0
 11 13  1  0
 13 14  2  0
 14 15  1  0
 14 16  1  0
 16 17  1  0
 16 18  2  0
 18 19  1  0
  9 20  1  0
 20 21  1  0
  4 22  2  0
 22 23  1  0
 23 24  1  0
 23 25  2  0
 25 26  1  0
 25  2  1  0
 20  5  2  0
 18 10  1  0
M  END
>  <plip>  (1) 
-0.0

>  <filename>  (1) 
[H][c]1[n][c](-[c]2[s][c]([H])[c](-[c]3[c]([H])[n][c]([H])[c]([H])[c]3[H])[c]2[H])[n][c]([H])[c]1[H]

$$$$
