
     RDKit          3D

 27 29  0  0  0  0  0  0  0  0999 V2000
    5.0089    1.8315   16.8447 H   0  0  0  0  0  0  0  0  0  0  0  0
    5.4287    1.3430   17.7189 C   0  0  0  0  0  0  0  0  0  0  0  0
    6.5895    0.6996   17.5257 N   0  0  0  0  0  0  0  0  0  0  0  0
    7.1329    0.0811   18.5773 C   0  0  0  0  0  0  0  0  0  0  0  0
    8.0727   -0.4435   18.4073 H   0  0  0  0  0  0  0  0  0  0  0  0
    6.5499    0.0806   19.8512 C   0  0  0  0  0  0  0  0  0  0  0  0
    7.2114   -0.6545   20.9226 C   0  0  0  0  0  0  0  0  0  0  0  0
    6.6858   -0.7523   22.1707 N   0  0  0  0  0  0  0  0  0  0  0  0
    7.5375   -1.5286   22.7961 C   0  0  0  0  0  0  0  0  0  0  0  0
    7.4639   -1.8696   23.8192 H   0  0  0  0  0  0  0  0  0  0  0  0
    8.5389   -1.8727   21.9783 N   0  0  0  0  0  0  0  0  0  0  0  0
    9.7335   -2.6463   22.3100 C   0  0  2  0  0  0  0  0  0  0  0  0
   10.1678   -2.8779   21.3417 H   0  0  0  0  0  0  0  0  0  0  0  0
    9.4845   -3.8710   23.0833 N   0  0  0  0  0  0  0  0  0  0  0  0
    9.9923   -3.6390   24.2192 C   0  0  0  0  0  0  0  0  0  0  0  0
    9.9546   -4.4941   25.2585 N   0  0  0  0  0  0  0  0  0  0  0  0
   10.7007   -4.2573   25.8868 H   0  0  0  0  0  0  0  0  0  0  0  0
   10.0262   -5.4281   24.8909 H   0  0  0  0  0  0  0  0  0  0  0  0
   10.6391   -2.4875   24.4619 O   0  0  0  0  0  0  0  0  0  0  0  0
   10.7256   -1.8323   23.1786 C   0  0  0  0  0  0  0  0  0  0  0  0
   11.7378   -1.9310   22.7729 H   0  0  0  0  0  0  0  0  0  0  0  0
   10.4794   -0.7693   23.2835 H   0  0  0  0  0  0  0  0  0  0  0  0
    8.3521   -1.3073   20.7578 N   0  0  0  0  0  0  0  0  0  0  0  0
    5.3393    0.7633   20.0482 C   0  0  0  0  0  0  0  0  0  0  0  0
    4.8819    0.7892   21.0412 H   0  0  0  0  0  0  0  0  0  0  0  0
    4.7645    1.3950   18.9511 C   0  0  0  0  0  0  0  0  0  0  0  0
    3.8219    1.9234   19.0344 H   0  0  0  0  0  0  0  0  0  0  0  0
  1  2  1  0
  2  3  2  0
  3  4  1  0
  4  5  1  0
  4  6  2  0
  6  7  1  0
  7  8  1  0
  8  9  2  0
  9 10  1  0
  9 11  1  0
 11 12  1  0
 12 13  1  6
 12 14  1  0
 14 15  2  0
 15 16  1  0
 16 17  1  0
 16 18  1  0
 15 19  1  0
 19 20  1  0
 20 21  1  0
 20 22  1  0
 11 23  1  0
  6 24  1  0
 24 25  1  0
 24 26  2  0
 26 27  1  0
 26  2  1  0
 23  7  2  0
 20 12  1  0
M  END
>  <plip>  (1) 
-0.06666666666666667

>  <filename>  (1) 
[H][c]1[n][c]([H])[c](-[c]2[n][c]([H])[n]([C@]3([H])[N]=[C]([N]([H])[H])[O][C]3([H])[H])[n]2)[c]([H])[c]1[H]

$$$$
