
     RDKit          3D

 23 24  0  0  0  0  0  0  0  0999 V2000
    4.9212    1.8139   16.9769 H   0  0  0  0  0  0  0  0  0  0  0  0
    5.3868    1.2977   17.8196 C   0  0  0  0  0  0  0  0  0  0  0  0
    6.5376    0.6672   17.5579 N   0  0  0  0  0  0  0  0  0  0  0  0
    7.1426    0.0381   18.5742 C   0  0  0  0  0  0  0  0  0  0  0  0
    8.1045   -0.4107   18.3314 H   0  0  0  0  0  0  0  0  0  0  0  0
    6.6352   -0.0286   19.8900 C   0  0  0  0  0  0  0  0  0  0  0  0
    7.4137   -0.6868   21.0148 C   0  0  0  0  0  0  0  0  0  0  0  0
    8.0747   -1.4888   20.6657 H   0  0  0  0  0  0  0  0  0  0  0  0
    6.7805   -1.0912   21.8128 H   0  0  0  0  0  0  0  0  0  0  0  0
    8.5433    0.5311   21.8244 S   0  0  0  0  0  4  0  0  0  0  0  0
    9.6870    0.7122   20.8986 O   0  0  0  0  0  0  0  0  0  0  0  0
    9.0913   -0.4497   23.1202 N   0  0  0  0  0  0  0  0  0  0  0  0
    9.9300   -1.5364   22.9814 C   0  0  0  0  0  0  0  0  0  0  0  0
   10.2164   -1.9649   22.0292 H   0  0  0  0  0  0  0  0  0  0  0  0
   10.3272   -1.9812   24.1329 N   0  0  0  0  0  0  0  0  0  0  0  0
    9.7771   -1.1527   25.0779 C   0  0  0  0  0  0  0  0  0  0  0  0
    9.9533   -1.3081   26.1345 H   0  0  0  0  0  0  0  0  0  0  0  0
    9.0251   -0.1836   24.4927 C   0  0  0  0  0  0  0  0  0  0  0  0
    8.5114    0.6706   24.9070 H   0  0  0  0  0  0  0  0  0  0  0  0
    5.4322    0.6387   20.1402 C   0  0  0  0  0  0  0  0  0  0  0  0
    5.0043    0.6446   21.1448 H   0  0  0  0  0  0  0  0  0  0  0  0
    4.7989    1.3130   19.0890 C   0  0  0  0  0  0  0  0  0  0  0  0
    3.8732    1.8518   19.2347 H   0  0  0  0  0  0  0  0  0  0  0  0
  1  2  1  0
  2  3  2  0
  3  4  1  0
  4  5  1  0
  4  6  2  0
  6  7  1  0
  7  8  1  0
  7  9  1  0
 10  7  1  1
 10 11  2  0
 10 12  1  0
 12 13  1  0
 13 14  1  0
 13 15  2  0
 15 16  1  0
 16 17  1  0
 16 18  2  0
 18 19  1  0
  6 20  1  0
 20 21  1  0
 20 22  2  0
 22 23  1  0
 22  2  1  0
 18 12  1  0
M  END
>  <plip>  (1) 
-0.10714285714285714

>  <filename>  (1) 
[H][c]1[n][c]([H])[c]([C]([H])([H])[S@@](=[O])[n]2[c]([H])[n][c]([H])[c]2[H])[c]([H])[c]1[H]

$$$$
