
     RDKit          3D

 42 42  0  0  0  0  0  0  0  0999 V2000
    7.7348   -6.8566   22.4039 C   0  0  0  0  0  0  0  0  0  0  0  0
    6.7858   -5.8752   23.0888 C   0  0  0  0  0  0  0  0  0  0  0  0
    7.4915   -4.5628   23.4853 C   0  0  0  0  0  0  0  0  0  0  0  0
    6.5977   -3.3091   23.5230 C   0  0  0  0  0  0  0  0  0  0  0  0
    5.6595   -3.2810   24.7296 C   0  0  0  0  0  0  0  0  0  0  0  0
    5.1240   -2.3267   24.7799 H   0  0  0  0  0  0  0  0  0  0  0  0
    6.2342   -3.3841   25.6562 H   0  0  0  0  0  0  0  0  0  0  0  0
    4.9220   -4.0930   24.6985 H   0  0  0  0  0  0  0  0  0  0  0  0
    5.7642   -3.1135   22.2439 C   0  0  0  0  0  0  0  0  0  0  0  0
    6.5291   -3.2222   20.6682 S   0  0  0  0  0  0  0  0  0  0  0  0
    7.3672   -4.4023   20.6217 O   0  0  0  0  0  0  0  0  0  0  0  0
    5.4904   -2.9664   19.7000 O   0  0  0  0  0  0  0  0  0  0  0  0
    7.5978   -2.0027   20.6950 N   0  0  0  0  0  0  0  0  0  0  0  0
    7.2738   -0.6328   21.0072 C   0  0  1  0  0  0  0  0  0  0  0  0
    8.6207    0.0022   21.3282 C   0  0  0  0  0  0  0  0  0  0  0  0
    9.1235   -0.8840   22.4814 C   0  0  0  0  0  0  0  0  0  0  0  0
    9.8352   -1.8585   22.1574 O   0  0  0  0  0  0  0  0  0  0  0  0
    8.6200   -0.6093   23.5896 O   0  0  0  0  0  1  0  0  0  0  0  0
    9.2791   -0.0371   20.4610 H   0  0  0  0  0  0  0  0  0  0  0  0
    8.5100    1.0313   21.6592 H   0  0  0  0  0  0  0  0  0  0  0  0
    6.5102    0.0052   19.8733 C   0  0  0  0  0  0  0  0  0  0  0  0
    5.3291    0.7504   20.0449 C   0  0  0  0  0  0  0  0  0  0  0  0
    4.7784    1.4016   18.9370 C   0  0  0  0  0  0  0  0  0  0  0  0
    5.4215    1.2855   17.6987 C   0  0  0  0  0  0  0  0  0  0  0  0
    6.5276    0.5545   17.5053 N   0  0  0  0  0  0  0  0  0  0  0  0
    7.0320   -0.0811   18.5743 C   0  0  0  0  0  0  0  0  0  0  0  0
    7.9147   -0.6864   18.3731 H   0  0  0  0  0  0  0  0  0  0  0  0
    5.0250    1.8037   16.8274 H   0  0  0  0  0  0  0  0  0  0  0  0
    3.8746    1.9971   19.0208 H   0  0  0  0  0  0  0  0  0  0  0  0
    4.8466    0.8315   21.0245 H   0  0  0  0  0  0  0  0  0  0  0  0
    6.6729   -0.5251   21.9295 H   0  0  0  0  0  0  0  0  0  0  0  0
    8.4553   -2.3901   21.0735 H   0  0  0  0  0  0  0  0  0  0  0  0
    5.3622   -2.1132   22.1648 H   0  0  0  0  0  0  0  0  0  0  0  0
    4.9111   -3.7878   22.1354 H   0  0  0  0  0  0  0  0  0  0  0  0
    7.2790   -2.4444   23.6358 H   0  0  0  0  0  0  0  0  0  0  0  0
    7.9640   -4.6825   24.4729 H   0  0  0  0  0  0  0  0  0  0  0  0
    8.3165   -4.3551   22.7909 H   0  0  0  0  0  0  0  0  0  0  0  0
    6.2951   -6.3151   23.9679 H   0  0  0  0  0  0  0  0  0  0  0  0
    5.9826   -5.6714   22.3700 H   0  0  0  0  0  0  0  0  0  0  0  0
    8.5863   -7.1346   23.0398 H   0  0  0  0  0  0  0  0  0  0  0  0
    7.2088   -7.7713   22.1058 H   0  0  0  0  0  0  0  0  0  0  0  0
    8.0944   -6.3583   21.4980 H   0  0  0  0  0  0  0  0  0  0  0  0
  1  2  1  0
  2  3  1  0
  3  4  1  0
  4  5  1  0
  5  6  1  0
  5  7  1  0
  5  8  1  0
  4  9  1  0
  9 10  1  0
 10 11  2  0
 10 12  2  0
 10 13  1  0
 13 14  1  0
 14 15  1  0
 15 16  1  0
 16 17  2  0
 16 18  1  0
 15 19  1  0
 15 20  1  0
 14 21  1  0
 21 22  2  0
 22 23  1  0
 23 24  2  0
 24 25  1  0
 25 26  2  0
 26 27  1  0
 24 28  1  0
 23 29  1  0
 22 30  1  0
 14 31  1  1
 13 32  1  0
  9 33  1  0
  9 34  1  0
  4 35  1  0
  3 36  1  0
  3 37  1  0
  2 38  1  0
  2 39  1  0
  1 40  1  0
  1 41  1  0
  1 42  1  0
 26 21  1  0
M  CHG  1  18  -1
M  END
>  <plip>  (1) 
-0.1935483870967742

>  <filename>  (1) 
[H][c]1[n][c]([H])[c]([C@@]([H])([N]([H])[S](=[O])(=[O])[C]([H])([H])[C]([H])([C]([H])([H])[H])[C]([H])([H])[C]([H])([H])[C]([H])([H])[H])[C]([H])([H])[C](=[O])[O-])[c]([H])[c]1[H]

$$$$
