
     RDKit          3D

 36 38  0  0  0  0  0  0  0  0999 V2000
    9.8097    4.1682   23.5721 H   0  0  0  0  0  0  0  0  0  0  0  0
   10.0029    3.3016   23.9522 O   0  0  0  0  0  0  0  0  0  0  0  0
    8.7672    2.5805   23.9933 C   0  0  2  0  0  0  0  0  0  0  0  0
    8.3108    2.7153   24.9860 H   0  0  0  0  0  0  0  0  0  0  0  0
    9.0473    1.0426   23.8242 C   0  0  0  0  0  0  0  0  0  0  0  0
    8.4897    0.4874   24.5890 H   0  0  0  0  0  0  0  0  0  0  0  0
   10.1167    0.9140   24.0447 H   0  0  0  0  0  0  0  0  0  0  0  0
    8.7729    0.4241   22.4918 N   0  0  0  0  0  0  0  0  0  0  0  0
    7.4892   -0.2473   22.3564 C   0  0  1  0  0  0  0  0  0  0  0  0
    6.6588    0.4376   22.6131 H   0  0  0  0  0  0  0  0  0  0  0  0
    7.2544   -0.8229   21.0391 N   0  0  0  0  0  0  0  0  0  0  0  0
    6.6453   -0.0465   19.9846 C   0  0  0  0  0  0  0  0  0  0  0  0
    7.2132    0.0216   18.6917 C   0  0  0  0  0  0  0  0  0  0  0  0
    8.1593   -0.4924   18.4925 H   0  0  0  0  0  0  0  0  0  0  0  0
    6.6597    0.6987   17.6720 N   0  0  0  0  0  0  0  0  0  0  0  0
    5.5069    1.3483   17.9022 C   0  0  0  0  0  0  0  0  0  0  0  0
    5.0893    1.8989   17.0619 H   0  0  0  0  0  0  0  0  0  0  0  0
    4.8525    1.3328   19.1380 C   0  0  0  0  0  0  0  0  0  0  0  0
    3.9230    1.8794   19.2603 H   0  0  0  0  0  0  0  0  0  0  0  0
    5.4277    0.6190   20.1961 C   0  0  0  0  0  0  0  0  0  0  0  0
    4.9447    0.5806   21.1734 H   0  0  0  0  0  0  0  0  0  0  0  0
    6.8476   -2.1570   21.1746 C   0  0  0  0  0  0  0  0  0  0  0  0
    6.4209   -2.8646   20.3094 O   0  0  0  0  0  0  0  0  0  0  0  0
    6.9794   -2.5565   22.4610 O   0  0  0  0  0  0  0  0  0  0  0  0
    7.4448   -1.4890   23.2712 C   0  0  0  0  0  0  0  0  0  0  0  0
    6.7717   -1.3468   24.1227 H   0  0  0  0  0  0  0  0  0  0  0  0
    8.4490   -1.7384   23.6300 H   0  0  0  0  0  0  0  0  0  0  0  0
    9.1117    1.4005   21.4584 C   0  0  0  0  0  0  0  0  0  0  0  0
    9.1147    0.9292   20.4717 H   0  0  0  0  0  0  0  0  0  0  0  0
   10.1436    1.7135   21.6647 H   0  0  0  0  0  0  0  0  0  0  0  0
    8.2040    2.6460   21.4815 C   0  0  0  0  0  0  0  0  0  0  0  0
    8.7299    3.4443   20.9608 H   0  0  0  0  0  0  0  0  0  0  0  0
    7.2965    2.4260   20.9106 H   0  0  0  0  0  0  0  0  0  0  0  0
    7.8152    3.1094   22.9117 C   0  0  0  0  0  0  0  0  0  0  0  0
    6.7969    2.7831   23.1519 H   0  0  0  0  0  0  0  0  0  0  0  0
    7.7992    4.2070   22.9728 H   0  0  0  0  0  0  0  0  0  0  0  0
  1  2  1  0
  2  3  1  0
  3  4  1  1
  3  5  1  0
  5  6  1  0
  5  7  1  0
  5  8  1  0
  8  9  1  0
  9 10  1  1
  9 11  1  0
 11 12  1  0
 12 13  2  0
 13 14  1  0
 13 15  1  0
 15 16  2  0
 16 17  1  0
 16 18  1  0
 18 19  1  0
 18 20  2  0
 20 21  1  0
 11 22  1  0
 22 23  2  0
 22 24  1  0
 24 25  1  0
 25 26  1  0
 25 27  1  0
  8 28  1  0
 28 29  1  0
 28 30  1  0
 28 31  1  0
 31 32  1  0
 31 33  1  0
 31 34  1  0
 34 35  1  0
 34 36  1  0
 34  3  1  0
 25  9  1  0
 20 12  1  0
M  END
>  <plip>  (1) 
-0.07142857142857142

>  <filename>  (1) 
[H][O][C@]1([H])[C]([H])([H])[N]([C@@]2([H])[N]([c]3[c]([H])[n][c]([H])[c]([H])[c]3[H])[C](=[O])[O][C]2([H])[H])[C]([H])([H])[C]([H])([H])[C]1([H])[H]

$$$$
