
     RDKit          3D

 17 18  0  0  0  0  0  0  0  0999 V2000
    4.9575    1.7898   17.0337 H   0  0  0  0  0  0  0  0  0  0  0  0
    5.4285    1.2657   17.8635 C   0  0  0  0  0  0  0  0  0  0  0  0
    6.5933    0.6473   17.5936 N   0  0  0  0  0  0  0  0  0  0  0  0
    7.2109    0.0223   18.6027 C   0  0  0  0  0  0  0  0  0  0  0  0
    8.1703   -0.4548   18.4024 H   0  0  0  0  0  0  0  0  0  0  0  0
    6.6904   -0.0314   19.9069 C   0  0  0  0  0  0  0  0  0  0  0  0
    7.5005   -0.5989   20.8996 O   0  0  0  0  0  0  0  0  0  0  0  0
    6.9971   -1.4866   21.7690 C   0  0  0  0  0  0  0  0  0  0  0  0
    5.9863   -2.3157   21.6955 N   0  0  0  0  0  0  0  0  0  0  0  0
    6.0286   -3.0156   22.8661 N   0  0  0  0  0  0  0  0  0  0  0  0
    7.0094   -2.6552   23.6057 N   0  0  0  0  0  0  0  0  0  0  0  0
    7.6337   -1.6690   22.9292 N   0  0  0  0  0  0  0  0  0  0  0  0
    8.5106   -1.2652   23.2088 H   0  0  0  0  0  0  0  0  0  0  0  0
    5.4664    0.5902   20.1838 C   0  0  0  0  0  0  0  0  0  0  0  0
    5.0405    0.5589   21.1900 H   0  0  0  0  0  0  0  0  0  0  0  0
    4.8296    1.2686   19.1287 C   0  0  0  0  0  0  0  0  0  0  0  0
    3.8978    1.8140   19.2817 H   0  0  0  0  0  0  0  0  0  0  0  0
  1  2  1  0
  2  3  2  0
  3  4  1  0
  4  5  1  0
  4  6  2  0
  6  7  1  0
  7  8  1  0
  8  9  2  0
  9 10  1  0
 10 11  2  0
 11 12  1  0
 12 13  1  0
  6 14  1  0
 14 15  1  0
 14 16  2  0
 16 17  1  0
 16  2  1  0
 12  8  1  0
M  END
>  <plip>  (1) 
-0.03571428571428571

>  <filename>  (1) 
[H][c]1[n][c]([H])[c]([O][c]2[n][n][n][n]2[H])[c]([H])[c]1[H]

$$$$
