
     RDKit          3D

 22 23  0  0  0  0  0  0  0  0999 V2000
    4.9397    1.7809   16.9991 H   0  0  0  0  0  0  0  0  0  0  0  0
    5.4111    1.2831   17.8447 C   0  0  0  0  0  0  0  0  0  0  0  0
    6.5723    0.6581   17.5930 N   0  0  0  0  0  0  0  0  0  0  0  0
    7.1889    0.0494   18.6095 C   0  0  0  0  0  0  0  0  0  0  0  0
    8.1338   -0.4272   18.3728 H   0  0  0  0  0  0  0  0  0  0  0  0
    6.6673    0.0037   19.9155 C   0  0  0  0  0  0  0  0  0  0  0  0
    7.3793   -0.6780   20.9308 N   0  0  0  0  0  0  0  0  0  0  0  0
    8.6952   -0.9410   20.8147 N   0  0  0  0  0  0  0  0  0  0  0  0
    9.0267   -1.5322   21.9487 C   0  0  0  0  0  0  0  0  0  0  0  0
   10.0234   -1.9205   22.1077 H   0  0  0  0  0  0  0  0  0  0  0  0
    7.9061   -1.6926   22.8081 C   0  0  0  0  0  0  0  0  0  0  0  0
    7.7699   -2.5790   24.3294 S   0  0  0  0  0  0  0  0  0  0  0  0
    7.3553   -4.2657   23.6916 C   0  0  0  0  0  0  0  0  0  0  0  0
    8.3250   -4.7314   22.9076 F   0  0  0  0  0  0  0  0  0  0  0  0
    6.2237   -4.2461   22.9913 F   0  0  0  0  0  0  0  0  0  0  0  0
    7.2165   -5.0726   24.7371 F   0  0  0  0  0  0  0  0  0  0  0  0
    6.8756   -1.1257   22.1035 C   0  0  0  0  0  0  0  0  0  0  0  0
    5.8241   -1.0709   22.2984 H   0  0  0  0  0  0  0  0  0  0  0  0
    5.4474    0.6433   20.1742 C   0  0  0  0  0  0  0  0  0  0  0  0
    5.0054    0.6560   21.1745 H   0  0  0  0  0  0  0  0  0  0  0  0
    4.8215    1.2986   19.1128 C   0  0  0  0  0  0  0  0  0  0  0  0
    3.8908    1.8286   19.2621 H   0  0  0  0  0  0  0  0  0  0  0  0
  1  2  1  0
  2  3  2  0
  3  4  1  0
  4  5  1  0
  4  6  2  0
  6  7  1  0
  7  8  1  0
  8  9  2  0
  9 10  1  0
  9 11  1  0
 11 12  1  0
 12 13  1  0
 13 14  1  0
 13 15  1  0
 13 16  1  0
 11 17  2  0
 17 18  1  0
  6 19  1  0
 19 20  1  0
 19 21  2  0
 21 22  1  0
 21  2  1  0
 17  7  1  0
M  END
>  <plip>  (1) 
-0.03571428571428571

>  <filename>  (1) 
[H][c]1[n][c]([H])[c](-[n]2[n][c]([H])[c]([S][C]([F])([F])[F])[c]2[H])[c]([H])[c]1[H]

$$$$
