
     RDKit          3D

 30 32  0  0  0  0  0  0  0  0999 V2000
    4.9426    1.8072   16.9885 H   0  0  0  0  0  0  0  0  0  0  0  0
    5.3985    1.2892   17.8316 C   0  0  0  0  0  0  0  0  0  0  0  0
    6.5610    0.6624   17.5810 N   0  0  0  0  0  0  0  0  0  0  0  0
    7.1706    0.0490   18.5997 C   0  0  0  0  0  0  0  0  0  0  0  0
    8.1241   -0.4205   18.3582 H   0  0  0  0  0  0  0  0  0  0  0  0
    6.6661    0.0177   19.9197 C   0  0  0  0  0  0  0  0  0  0  0  0
    7.3922   -0.6496   21.0238 C   0  0  0  0  0  0  0  0  0  0  0  0
    7.7669   -2.3312   20.8414 S   0  0  0  0  0  0  0  0  0  0  0  0
    8.7055   -2.5243   22.6518 S   0  0  0  0  0  0  0  0  0  0  0  0
    8.3602   -0.9295   23.2472 C   0  0  0  0  0  0  0  0  0  0  0  0
    8.8290   -0.5507   24.7769 S   0  0  0  0  0  0  0  0  0  0  0  0
    7.6893   -0.1015   22.2551 C   0  0  0  0  0  0  0  0  0  0  0  0
    7.3537    1.2961   22.5852 C   0  0  0  0  0  0  0  0  0  0  0  0
    6.4897    1.6042   23.6571 C   0  0  0  0  0  0  0  0  0  0  0  0
    6.0672    0.8013   24.2646 H   0  0  0  0  0  0  0  0  0  0  0  0
    6.1392    2.8497   23.9793 N   0  0  0  0  0  0  0  0  0  0  0  0
    6.6599    3.8635   23.2665 C   0  0  0  0  0  0  0  0  0  0  0  0
    6.3622    4.8733   23.5549 H   0  0  0  0  0  0  0  0  0  0  0  0
    7.5510    3.6615   22.1945 C   0  0  0  0  0  0  0  0  0  0  0  0
    8.1592    4.6333   21.4838 O   0  0  0  0  0  0  0  0  0  0  0  0
    7.8034    5.9890   21.6442 C   0  0  0  0  0  0  0  0  0  0  0  0
    6.7239    6.1427   21.5145 H   0  0  0  0  0  0  0  0  0  0  0  0
    8.1005    6.3676   22.6320 H   0  0  0  0  0  0  0  0  0  0  0  0
    8.3559    6.4939   20.8543 H   0  0  0  0  0  0  0  0  0  0  0  0
    7.8704    2.3487   21.8302 C   0  0  0  0  0  0  0  0  0  0  0  0
    8.5179    2.1746   20.9709 H   0  0  0  0  0  0  0  0  0  0  0  0
    5.4305    0.6556   20.1487 C   0  0  0  0  0  0  0  0  0  0  0  0
    4.9936    0.6489   21.1465 H   0  0  0  0  0  0  0  0  0  0  0  0
    4.7918    1.3020   19.0896 C   0  0  0  0  0  0  0  0  0  0  0  0
    3.8588    1.8389   19.2273 H   0  0  0  0  0  0  0  0  0  0  0  0
  1  2  1  0
  2  3  2  0
  3  4  1  0
  4  5  1  0
  4  6  2  0
  6  7  1  0
  7  8  1  0
  8  9  1  0
  9 10  1  0
 10 11  2  0
 10 12  1  0
 12 13  1  0
 13 14  2  0
 14 15  1  0
 14 16  1  0
 16 17  2  0
 17 18  1  0
 17 19  1  0
 19 20  1  0
 20 21  1  0
 21 22  1  0
 21 23  1  0
 21 24  1  0
 19 25  2  0
 25 26  1  0
  6 27  1  0
 27 28  1  0
 27 29  2  0
 29 30  1  0
 29  2  1  0
 12  7  2  0
 25 13  1  0
M  END
>  <plip>  (1) 
-0.10714285714285714

>  <filename>  (1) 
[H][c]1[n][c]([H])[c](-[c]2[s][s][c](=[S])[c]2-[c]2[c]([H])[n][c]([H])[c]([O][C]([H])([H])[H])[c]2[H])[c]([H])[c]1[H]

$$$$
