
     RDKit          3D

 51 53  0  0  0  0  0  0  0  0999 V2000
    8.5104    2.3254   21.2519 C   0  0  0  0  0  0  0  0  0  0  0  0
    8.9079    0.9765   21.3875 O   0  0  0  0  0  0  0  0  0  0  0  0
    7.9588    0.1747   22.0528 C   0  0  0  0  0  0  0  0  0  0  0  0
    8.5813   -0.5328   23.0832 O   0  0  0  0  0  0  0  0  0  0  0  0
    9.1056    0.3037   24.0998 C   0  0  0  0  0  0  0  0  0  0  0  0
    8.3013    0.8541   24.6116 H   0  0  0  0  0  0  0  0  0  0  0  0
    9.8337    1.0256   23.7050 H   0  0  0  0  0  0  0  0  0  0  0  0
    9.6039   -0.3487   24.8189 H   0  0  0  0  0  0  0  0  0  0  0  0
    7.3188   -0.8308   21.0567 C   0  0  0  0  0  0  0  0  0  0  0  0
    6.3823   -1.7119   21.7564 N   0  0  0  0  0  0  0  0  0  0  0  0
    5.8649   -2.8456   21.2471 C   0  0  0  0  0  0  0  0  0  0  0  0
    6.0710   -3.2408   20.1031 O   0  0  0  0  0  0  0  0  0  0  0  0
    5.1079   -3.7069   22.2120 C   0  0  0  0  0  0  0  0  0  0  0  0
    6.0406   -4.7988   22.7608 C   0  0  0  0  0  0  0  0  0  0  0  0
    6.6327   -5.4531   21.6648 O   0  0  0  0  0  0  0  0  0  0  0  0
    6.5318   -4.8688   20.8914 H   0  0  0  0  0  0  0  0  0  0  0  0
    7.1462   -4.2390   23.6604 C   0  0  0  0  0  0  0  0  0  0  0  0
    6.5696   -3.7421   24.9833 C   0  0  0  0  0  0  0  0  0  0  0  0
    5.8507   -4.7645   25.6763 O   0  0  0  0  0  0  0  0  0  0  0  0
    5.0817   -5.6308   24.9538 C   0  0  0  0  0  0  0  0  0  0  0  0
    4.1714   -6.4204   25.6747 C   0  0  0  0  0  0  0  0  0  0  0  0
    3.3978   -7.3728   25.0095 C   0  0  0  0  0  0  0  0  0  0  0  0
    3.5366   -7.5574   23.6267 C   0  0  0  0  0  0  0  0  0  0  0  0
    4.4406   -6.7671   22.9201 C   0  0  0  0  0  0  0  0  0  0  0  0
    5.2036   -5.7811   23.5616 C   0  0  0  0  0  0  0  0  0  0  0  0
    4.5772   -6.9005   21.8510 H   0  0  0  0  0  0  0  0  0  0  0  0
    2.9425   -8.2987   23.0991 H   0  0  0  0  0  0  0  0  0  0  0  0
    2.6871   -7.9781   25.5676 H   0  0  0  0  0  0  0  0  0  0  0  0
    4.1132   -6.2764   26.7496 H   0  0  0  0  0  0  0  0  0  0  0  0
    7.3680   -3.4373   25.6657 H   0  0  0  0  0  0  0  0  0  0  0  0
    5.9055   -2.8729   24.8479 H   0  0  0  0  0  0  0  0  0  0  0  0
    7.6922   -3.4546   23.1308 H   0  0  0  0  0  0  0  0  0  0  0  0
    7.8442   -5.0633   23.8483 H   0  0  0  0  0  0  0  0  0  0  0  0
    4.3176   -4.2031   21.6505 H   0  0  0  0  0  0  0  0  0  0  0  0
    4.6458   -3.1454   23.0193 H   0  0  0  0  0  0  0  0  0  0  0  0
    6.2873   -1.5902   22.7514 H   0  0  0  0  0  0  0  0  0  0  0  0
    6.6096   -0.1228   19.9153 C   0  0  0  0  0  0  0  0  0  0  0  0
    5.4169    0.5826   20.1283 C   0  0  0  0  0  0  0  0  0  0  0  0
    4.8634    1.3017   19.0699 C   0  0  0  0  0  0  0  0  0  0  0  0
    5.5107    1.2846   17.8284 C   0  0  0  0  0  0  0  0  0  0  0  0
    6.6377    0.5980   17.5948 N   0  0  0  0  0  0  0  0  0  0  0  0
    7.1587   -0.0865   18.6265 C   0  0  0  0  0  0  0  0  0  0  0  0
    8.0674   -0.6495   18.4024 H   0  0  0  0  0  0  0  0  0  0  0  0
    5.0966    1.8318   16.9819 H   0  0  0  0  0  0  0  0  0  0  0  0
    3.9537    1.8750   19.1964 H   0  0  0  0  0  0  0  0  0  0  0  0
    4.9198    0.5502   21.1022 H   0  0  0  0  0  0  0  0  0  0  0  0
    8.1626   -1.4063   20.6554 H   0  0  0  0  0  0  0  0  0  0  0  0
    7.1423    0.7997   22.4755 H   0  0  0  0  0  0  0  0  0  0  0  0
    9.2763    2.8276   20.6656 H   0  0  0  0  0  0  0  0  0  0  0  0
    8.4313    2.8478   22.2212 H   0  0  0  0  0  0  0  0  0  0  0  0
    7.5486    2.3981   20.7243 H   0  0  0  0  0  0  0  0  0  0  0  0
  1  2  1  0
  2  3  1  0
  3  4  1  0
  4  5  1  0
  5  6  1  0
  5  7  1  0
  5  8  1  0
  3  9  1  0
  9 10  1  0
 10 11  1  0
 11 12  2  0
 11 13  1  0
 13 14  1  0
 14 15  1  0
 15 16  1  0
 14 17  1  0
 17 18  1  0
 18 19  1  0
 19 20  1  0
 20 21  2  0
 21 22  1  0
 22 23  2  0
 23 24  1  0
 24 25  2  0
 24 26  1  0
 23 27  1  0
 22 28  1  0
 21 29  1  0
 18 30  1  0
 18 31  1  0
 17 32  1  0
 17 33  1  0
 13 34  1  0
 13 35  1  0
 10 36  1  0
  9 37  1  0
 37 38  2  0
 38 39  1  0
 39 40  2  0
 40 41  1  0
 41 42  2  0
 42 43  1  0
 40 44  1  0
 39 45  1  0
 38 46  1  0
  9 47  1  0
  3 48  1  0
  1 49  1  0
  1 50  1  0
  1 51  1  0
 25 14  1  0
 42 37  1  0
 25 20  1  0
M  END
>  <plip>  (1) 
-0.23333333333333334

>  <filename>  (1) 
[H][O][C]1([C]([H])([H])[C](=[O])[N]([H])[C]([H])([c]2[c]([H])[n][c]([H])[c]([H])[c]2[H])[C]([H])([O][C]([H])([H])[H])[O][C]([H])([H])[H])[c]2[c]([H])[c]([H])[c]([H])[c]([H])[c]2[O][C]([H])([H])[C]1([H])[H]

$$$$
