
     RDKit          3D

 33 34  0  0  0  0  0  0  0  0999 V2000
    9.0790   -1.7912   25.3603 C   0  0  0  0  0  0  0  0  0  0  0  0
    8.9559   -3.2953   25.3387 C   0  0  0  0  0  0  0  0  0  0  0  0
    9.1081   -3.9014   26.5319 N   0  0  0  0  0  0  0  0  0  0  0  0
    8.9788   -5.2422   26.5558 C   0  0  0  0  0  0  0  0  0  0  0  0
    8.6976   -5.9812   25.3980 C   0  0  0  0  0  0  0  0  0  0  0  0
    8.5425   -5.3962   24.1901 N   0  0  0  0  0  0  0  0  0  0  0  0
    8.6874   -4.0579   24.1488 C   0  0  0  0  0  0  0  0  0  0  0  0
    8.5143   -3.4405   22.7888 C   0  0  0  0  0  0  0  0  0  0  0  0
    7.0667   -3.1093   22.4157 C   0  0  0  0  0  0  0  0  0  0  0  0
    7.0516   -2.3995   21.1272 N   0  0  0  0  0  0  0  0  0  0  0  0
    7.6011   -0.8186   21.1914 S   0  0  0  0  0  0  0  0  0  0  0  0
    7.3707   -0.2179   22.4854 O   0  0  0  0  0  0  0  0  0  0  0  0
    8.9422   -0.9945   20.6427 O   0  0  0  0  0  0  0  0  0  0  0  0
    6.6026   -0.0589   20.0046 C   0  0  0  0  0  0  0  0  0  0  0  0
    5.3919    0.6034   20.2438 C   0  0  0  0  0  0  0  0  0  0  0  0
    4.8220    1.2484   19.1447 C   0  0  0  0  0  0  0  0  0  0  0  0
    5.4704    1.1952   17.9054 C   0  0  0  0  0  0  0  0  0  0  0  0
    6.6054    0.5155   17.6976 N   0  0  0  0  0  0  0  0  0  0  0  0
    7.1590   -0.1032   18.7344 C   0  0  0  0  0  0  0  0  0  0  0  0
    8.0960   -0.6194   18.5476 H   0  0  0  0  0  0  0  0  0  0  0  0
    5.0647    1.7169   17.0396 H   0  0  0  0  0  0  0  0  0  0  0  0
    3.9014    1.8151   19.2272 H   0  0  0  0  0  0  0  0  0  0  0  0
    4.9000    0.6372   21.2202 H   0  0  0  0  0  0  0  0  0  0  0  0
    7.8651   -2.6612   20.5716 H   0  0  0  0  0  0  0  0  0  0  0  0
    6.5458   -2.4996   23.1653 H   0  0  0  0  0  0  0  0  0  0  0  0
    6.4900   -4.0322   22.2802 H   0  0  0  0  0  0  0  0  0  0  0  0
    8.8845   -4.1657   22.0547 H   0  0  0  0  0  0  0  0  0  0  0  0
    9.1240   -2.5345   22.6911 H   0  0  0  0  0  0  0  0  0  0  0  0
    8.5939   -7.0598   25.4565 H   0  0  0  0  0  0  0  0  0  0  0  0
    9.0830   -5.7382   27.5222 H   0  0  0  0  0  0  0  0  0  0  0  0
    9.9988   -1.4579   24.8643 H   0  0  0  0  0  0  0  0  0  0  0  0
    9.1060   -1.4580   26.4023 H   0  0  0  0  0  0  0  0  0  0  0  0
    8.2352   -1.3193   24.8434 H   0  0  0  0  0  0  0  0  0  0  0  0
  1  2  1  0
  2  3  2  0
  3  4  1  0
  4  5  2  0
  5  6  1  0
  6  7  2  0
  7  8  1  0
  8  9  1  0
  9 10  1  0
 10 11  1  0
 11 12  2  0
 11 13  2  0
 11 14  1  0
 14 15  2  0
 15 16  1  0
 16 17  2  0
 17 18  1  0
 18 19  2  0
 19 20  1  0
 17 21  1  0
 16 22  1  0
 15 23  1  0
 10 24  1  0
  9 25  1  0
  9 26  1  0
  8 27  1  0
  8 28  1  0
  5 29  1  0
  4 30  1  0
  1 31  1  0
  1 32  1  0
  1 33  1  0
  7  2  1  0
 19 14  1  0
M  END
>  <plip>  (1) 
-0.0

>  <filename>  (1) 
[H][c]1[n][c]([C]([H])([H])[H])[c]([C]([H])([H])[C]([H])([H])[N]([H])[S](=[O])(=[O])[c]2[c]([H])[n][c]([H])[c]([H])[c]2[H])[n][c]1[H]

$$$$
