
     RDKit          3D

 39 41  0  0  0  0  0  0  0  0999 V2000
    5.4034   -3.6078   21.4436 O   0  0  0  0  0  0  0  0  0  0  0  0
    6.4934   -3.3968   21.9484 C   0  0  0  0  0  0  0  0  0  0  0  0
    7.3813   -2.4588   21.4916 N   0  0  0  0  0  0  0  0  0  0  0  0
    7.0967   -1.5380   20.4176 C   0  0  0  0  0  0  0  0  0  0  0  0
    7.0796   -0.0581   20.8465 C   0  0  0  0  0  0  0  0  0  0  0  0
    8.4396    0.4395   21.3613 C   0  0  0  0  0  0  0  0  0  0  0  0
    8.2217    1.6604   22.0431 O   0  0  0  0  0  0  0  0  0  0  0  0
    9.0255    2.1917   22.0184 H   0  0  0  0  0  0  0  0  0  0  0  0
    8.9002   -0.2963   22.0441 H   0  0  0  0  0  0  0  0  0  0  0  0
    9.1235    0.5507   20.5051 H   0  0  0  0  0  0  0  0  0  0  0  0
    6.5487    0.7424   19.6612 C   0  0  0  0  0  0  0  0  0  0  0  0
    5.2842    1.3378   19.7180 C   0  0  0  0  0  0  0  0  0  0  0  0
    4.7509    1.9065   18.5577 C   0  0  0  0  0  0  0  0  0  0  0  0
    5.4944    1.8410   17.3759 C   0  0  0  0  0  0  0  0  0  0  0  0
    6.7176    1.2927   17.2977 N   0  0  0  0  0  0  0  0  0  0  0  0
    7.2309    0.7850   18.4278 C   0  0  0  0  0  0  0  0  0  0  0  0
    8.2414    0.3739   18.3459 H   0  0  0  0  0  0  0  0  0  0  0  0
    5.1046    2.2636   16.4517 H   0  0  0  0  0  0  0  0  0  0  0  0
    3.7846    2.3963   18.5619 H   0  0  0  0  0  0  0  0  0  0  0  0
    4.7417    1.3543   20.6667 H   0  0  0  0  0  0  0  0  0  0  0  0
    6.3868    0.0549   21.6891 H   0  0  0  0  0  0  0  0  0  0  0  0
    7.8322   -1.6390   19.6084 H   0  0  0  0  0  0  0  0  0  0  0  0
    6.1252   -1.8229   19.9994 H   0  0  0  0  0  0  0  0  0  0  0  0
    8.0771   -2.1950   22.1723 H   0  0  0  0  0  0  0  0  0  0  0  0
    7.0206   -4.1188   23.1501 C   0  0  0  0  0  0  0  0  0  0  0  0
    8.3380   -4.3792   23.4232 C   0  0  0  0  0  0  0  0  0  0  0  0
    8.4226   -4.7773   24.7725 C   0  0  0  0  0  0  0  0  0  0  0  0
    9.5208   -4.9584   25.6328 C   0  0  0  0  0  0  0  0  0  0  0  0
   11.1008   -4.8724   24.9375 Cl  0  0  0  0  0  0  0  0  0  0  0  0
    9.2846   -5.1215   26.9949 C   0  0  0  0  0  0  0  0  0  0  0  0
   10.6028   -5.1145   28.1072 Cl  0  0  0  0  0  0  0  0  0  0  0  0
    7.9563   -5.1959   27.4919 C   0  0  0  0  0  0  0  0  0  0  0  0
    6.8584   -5.0575   26.6514 C   0  0  0  0  0  0  0  0  0  0  0  0
    7.1035   -4.8090   25.2904 C   0  0  0  0  0  0  0  0  0  0  0  0
    6.2597   -4.4484   24.2651 N   0  0  0  0  0  0  0  0  0  0  0  0
    5.2503   -4.4189   24.3238 H   0  0  0  0  0  0  0  0  0  0  0  0
    5.8445   -5.0923   27.0398 H   0  0  0  0  0  0  0  0  0  0  0  0
    7.8154   -5.3520   28.5560 H   0  0  0  0  0  0  0  0  0  0  0  0
    9.1878   -4.2858   22.7556 H   0  0  0  0  0  0  0  0  0  0  0  0
  1  2  2  0
  2  3  1  0
  3  4  1  0
  4  5  1  0
  5  6  1  0
  6  7  1  0
  7  8  1  0
  6  9  1  0
  6 10  1  0
  5 11  1  0
 11 12  2  0
 12 13  1  0
 13 14  2  0
 14 15  1  0
 15 16  2  0
 16 17  1  0
 14 18  1  0
 13 19  1  0
 12 20  1  0
  5 21  1  0
  4 22  1  0
  4 23  1  0
  3 24  1  0
  2 25  1  0
 25 26  2  0
 26 27  1  0
 27 28  2  0
 28 29  1  0
 28 30  1  0
 30 31  1  0
 30 32  2  0
 32 33  1  0
 33 34  2  0
 34 35  1  0
 35 36  1  0
 33 37  1  0
 32 38  1  0
 26 39  1  0
 16 11  1  0
 35 25  1  0
 34 27  1  0
M  END
>  <plip>  (1) 
-0.13333333333333333

>  <filename>  (1) 
[H][O][C]([H])([H])[C]([H])([c]1[c]([H])[n][c]([H])[c]([H])[c]1[H])[C]([H])([H])[N]([H])[C](=[O])[c]1[c]([H])[c]2[c]([Cl])[c]([Cl])[c]([H])[c]([H])[c]2[n]1[H]

$$$$
