
     RDKit          3D

 41 44  0  0  0  0  0  0  0  0999 V2000
    4.9859    1.7890   16.9747 H   0  0  0  0  0  0  0  0  0  0  0  0
    5.4264    1.2801   17.8350 C   0  0  0  0  0  0  0  0  0  0  0  0
    6.5845    0.6412   17.6163 N   0  0  0  0  0  0  0  0  0  0  0  0
    7.1449    0.0121   18.6604 C   0  0  0  0  0  0  0  0  0  0  0  0
    8.0890   -0.4929   18.4611 H   0  0  0  0  0  0  0  0  0  0  0  0
    6.6094   -0.0315   19.9614 C   0  0  0  0  0  0  0  0  0  0  0  0
    7.3664   -0.7156   21.0848 C   0  0  0  0  0  0  0  0  0  0  0  0
    7.1148   -2.1790   21.3599 C   0  0  0  0  0  0  0  0  0  0  0  0
    7.9562   -3.1593   21.2766 N   0  0  0  0  0  0  0  0  0  0  0  0
    7.3080   -4.2949   21.7271 N   0  0  0  0  0  0  0  0  0  0  0  0
    6.1160   -3.9264   22.0693 C   0  0  0  0  0  0  0  0  0  0  0  0
    5.0811   -4.8073   22.7431 C   0  0  0  0  0  0  0  0  0  0  0  0
    5.5415   -5.8096   22.7374 H   0  0  0  0  0  0  0  0  0  0  0  0
    5.0309   -4.4833   23.7922 H   0  0  0  0  0  0  0  0  0  0  0  0
    3.7120   -4.7937   22.2028 N   0  0  0  0  0  0  0  0  0  0  0  0
    3.7375   -5.0773   21.2220 H   0  0  0  0  0  0  0  0  0  0  0  0
    2.7468   -5.7091   22.8365 C   0  0  0  0  0  0  0  0  0  0  0  0
    2.6972   -5.5187   23.9269 H   0  0  0  0  0  0  0  0  0  0  0  0
    1.3569   -5.5374   22.2047 C   0  0  0  0  0  0  0  0  0  0  0  0
    0.8159   -4.6840   22.6220 H   0  0  0  0  0  0  0  0  0  0  0  0
    1.4861   -5.3401   21.1332 H   0  0  0  0  0  0  0  0  0  0  0  0
    0.6002   -6.8751   22.3777 C   0  0  0  0  0  0  0  0  0  0  0  0
    0.0157   -7.1051   21.4802 H   0  0  0  0  0  0  0  0  0  0  0  0
   -0.1088   -6.8264   23.2113 H   0  0  0  0  0  0  0  0  0  0  0  0
    1.6836   -7.9494   22.6397 C   0  0  0  0  0  0  0  0  0  0  0  0
    1.6479   -8.7582   21.9016 H   0  0  0  0  0  0  0  0  0  0  0  0
    1.5291   -8.4299   23.6116 H   0  0  0  0  0  0  0  0  0  0  0  0
    3.0293   -7.1977   22.5828 C   0  0  0  0  0  0  0  0  0  0  0  0
    3.7856   -7.6112   23.2556 H   0  0  0  0  0  0  0  0  0  0  0  0
    3.4348   -7.2508   21.5664 H   0  0  0  0  0  0  0  0  0  0  0  0
    5.9162   -2.5976   21.8579 O   0  0  0  0  0  0  0  0  0  0  0  0
    8.7976   -0.2639   21.3130 C   0  0  0  0  0  0  0  0  0  0  0  0
    9.4955   -1.0429   21.6079 H   0  0  0  0  0  0  0  0  0  0  0  0
    9.2081    0.5104   20.6671 H   0  0  0  0  0  0  0  0  0  0  0  0
    7.7496    0.1323   22.2954 C   0  0  0  0  0  0  0  0  0  0  0  0
    7.7419   -0.3564   23.2640 H   0  0  0  0  0  0  0  0  0  0  0  0
    7.4354    1.1752   22.3073 H   0  0  0  0  0  0  0  0  0  0  0  0
    5.3986    0.6468   20.1603 C   0  0  0  0  0  0  0  0  0  0  0  0
    4.9471    0.6669   21.1520 H   0  0  0  0  0  0  0  0  0  0  0  0
    4.7934    1.3054   19.0812 C   0  0  0  0  0  0  0  0  0  0  0  0
    3.8566    1.8402   19.1915 H   0  0  0  0  0  0  0  0  0  0  0  0
  1  2  1  0
  2  3  2  0
  3  4  1  0
  4  5  1  0
  4  6  2  0
  6  7  1  0
  7  8  1  0
  8  9  2  0
  9 10  1  0
 10 11  2  0
 11 12  1  0
 12 13  1  0
 12 14  1  0
 12 15  1  0
 15 16  1  0
 15 17  1  0
 17 18  1  0
 17 19  1  0
 19 20  1  0
 19 21  1  0
 19 22  1  0
 22 23  1  0
 22 24  1  0
 22 25  1  0
 25 26  1  0
 25 27  1  0
 25 28  1  0
 28 29  1  0
 28 30  1  0
 11 31  1  0
  7 32  1  0
 32 33  1  0
 32 34  1  0
 32 35  1  0
 35 36  1  0
 35 37  1  0
  6 38  1  0
 38 39  1  0
 38 40  2  0
 40 41  1  0
 40  2  1  0
 35  7  1  0
 31  8  1  0
 28 17  1  0
M  END
>  <plip>  (1) 
-0.03333333333333333

>  <filename>  (1) 
[H][c]1[n][c]([H])[c]([C]2([c]3[n][n][c]([C]([H])([H])[N]([H])[C]4([H])[C]([H])([H])[C]([H])([H])[C]([H])([H])[C]4([H])[H])[o]3)[C]([H])([H])[C]2([H])[H])[c]([H])[c]1[H]

$$$$
