
     RDKit          3D

 27 29  0  0  0  0  0  0  0  0999 V2000
    5.0995    1.8308   16.9771 H   0  0  0  0  0  0  0  0  0  0  0  0
    5.4734    1.3293   17.8673 C   0  0  0  0  0  0  0  0  0  0  0  0
    6.6455    0.6934   17.7328 N   0  0  0  0  0  0  0  0  0  0  0  0
    7.1438    0.1000   18.8267 C   0  0  0  0  0  0  0  0  0  0  0  0
    8.1128   -0.3904   18.7310 H   0  0  0  0  0  0  0  0  0  0  0  0
    6.4972    0.0651   20.0679 C   0  0  0  0  0  0  0  0  0  0  0  0
    7.1911   -0.6017   21.2042 C   0  0  0  0  0  0  0  0  0  0  0  0
    8.1450    0.2219   21.9077 N   0  0  0  0  0  0  0  0  0  0  0  0
    7.7874    1.1558   22.0344 H   0  0  0  0  0  0  0  0  0  0  0  0
    9.4523    0.3764   21.3502 C   0  0  0  0  0  0  0  0  0  0  0  0
   10.0882   -0.3241   20.5689 N   0  0  0  0  0  0  0  0  0  0  0  0
   11.5395    1.7528   21.7267 C   0  0  0  0  0  0  0  0  0  0  0  0
   11.8150    1.7073   20.5311 H   0  0  0  0  0  0  0  0  0  0  0  0
   11.5944    1.5831   21.8038 C   0  0  0  0  0  0  0  0  0  0  0  0
   12.1427    2.6370   22.3479 H   0  0  0  0  0  0  0  0  0  0  0  0
   10.0150    1.5241   22.0791 N   0  0  0  0  0  0  0  0  0  0  0  0
    9.9788    1.0849   22.9833 H   0  0  0  0  0  0  0  0  0  0  0  0
    6.4731   -1.6002   22.0587 C   0  0  0  0  0  0  0  0  0  0  0  0
    6.6966   -1.5761   23.1178 H   0  0  0  0  0  0  0  0  0  0  0  0
    5.4561   -1.8546   21.7900 H   0  0  0  0  0  0  0  0  0  0  0  0
    7.5379   -2.0581   21.1120 C   0  0  0  0  0  0  0  0  0  0  0  0
    8.5031   -2.3585   21.5068 H   0  0  0  0  0  0  0  0  0  0  0  0
    7.1976   -2.5710   20.2184 H   0  0  0  0  0  0  0  0  0  0  0  0
    5.2606    0.7193   20.1845 C   0  0  0  0  0  0  0  0  0  0  0  0
    4.7279    0.7217   21.1372 H   0  0  0  0  0  0  0  0  0  0  0  0
    4.7462    1.3689   19.0632 C   0  0  0  0  0  0  0  0  0  0  0  0
    3.8125    1.9176   19.1027 H   0  0  0  0  0  0  0  0  0  0  0  0
  1  2  1  0
  2  3  2  0
  3  4  1  0
  4  5  1  0
  4  6  2  0
  6  7  1  0
  7  8  1  0
  8  9  1  0
  8 10  1  0
 10 11  2  0
 11 12  1  0
 12 13  1  0
 12 14  2  0
 14 15  1  0
 14 16  1  0
 16 17  1  0
  7 18  1  0
 18 19  1  0
 18 20  1  0
 18 21  1  0
 21 22  1  0
 21 23  1  0
  6 24  1  0
 24 25  1  0
 24 26  2  0
 26 27  1  0
 26  2  1  0
 21  7  1  0
 16 10  1  0
M  END
>  <plip>  (1) 
-0.10344827586206896

>  <filename>  (1) 
[H][c]1[n][c]([H])[c]([C]2([N]([H])[c]3[n][c]([H])[c]([H])[n]3[H])[C]([H])([H])[C]2([H])[H])[c]([H])[c]1[H]

$$$$
