
     RDKit          3D

 46 48  0  0  0  0  0  0  0  0999 V2000
    9.5082    1.6644   21.0380 O   0  0  0  0  0  0  0  0  0  0  0  0
    8.7252    1.5946   21.9713 C   0  0  0  0  0  0  0  0  0  0  0  0
    7.7959    0.6142   22.0866 N   0  0  0  0  0  0  0  0  0  0  0  0
    7.5367   -0.3983   21.0777 C   0  0  0  0  0  0  0  0  0  0  0  0
    6.8371   -1.5491   21.8308 C   0  0  0  0  0  0  0  0  0  0  0  0
    6.7834   -2.9248   21.1553 C   0  0  0  0  0  0  0  0  0  0  0  0
    5.7916   -3.0443   19.9984 C   0  0  0  0  0  0  0  0  0  0  0  0
    6.0197   -4.1702   19.1705 O   0  0  0  0  0  0  0  0  0  0  0  0
    6.8729   -4.0179   18.7312 H   0  0  0  0  0  0  0  0  0  0  0  0
    5.7132   -2.1221   19.4055 H   0  0  0  0  0  0  0  0  0  0  0  0
    4.8163   -3.2114   20.4481 H   0  0  0  0  0  0  0  0  0  0  0  0
    6.4821   -3.6775   21.8952 H   0  0  0  0  0  0  0  0  0  0  0  0
    7.7974   -3.2059   20.8488 H   0  0  0  0  0  0  0  0  0  0  0  0
    5.8234   -1.2143   22.0697 H   0  0  0  0  0  0  0  0  0  0  0  0
    7.3697   -1.6711   22.7836 H   0  0  0  0  0  0  0  0  0  0  0  0
    6.7627    0.2087   19.9032 C   0  0  0  0  0  0  0  0  0  0  0  0
    5.4637    0.7372   20.0214 C   0  0  0  0  0  0  0  0  0  0  0  0
    4.8604    1.3134   18.8997 C   0  0  0  0  0  0  0  0  0  0  0  0
    5.5675    1.3500   17.6934 C   0  0  0  0  0  0  0  0  0  0  0  0
    6.8028    0.8501   17.5476 N   0  0  0  0  0  0  0  0  0  0  0  0
    7.3743    0.3234   18.6428 C   0  0  0  0  0  0  0  0  0  0  0  0
    8.3921   -0.0404   18.5073 H   0  0  0  0  0  0  0  0  0  0  0  0
    5.1183    1.8041   16.8119 H   0  0  0  0  0  0  0  0  0  0  0  0
    3.8749    1.7658   18.9590 H   0  0  0  0  0  0  0  0  0  0  0  0
    4.9252    0.7321   20.9732 H   0  0  0  0  0  0  0  0  0  0  0  0
    8.5014   -0.7637   20.6979 H   0  0  0  0  0  0  0  0  0  0  0  0
    7.0262    0.8123   22.7075 H   0  0  0  0  0  0  0  0  0  0  0  0
    8.7151    2.5952   23.1677 C   0  0  0  0  0  0  0  0  0  0  0  0
    9.1821    2.0530   24.5391 C   0  0  0  0  0  0  0  0  0  0  0  0
    7.8680    2.0332   25.3019 C   0  0  0  0  0  0  0  0  0  0  0  0
    6.9167    2.5902   24.6494 N   0  0  0  0  0  0  0  0  0  0  0  0
    7.3611    3.0386   23.4234 O   0  0  0  0  0  0  0  0  0  0  0  0
    7.6470    1.5182   26.6755 C   0  0  0  0  0  0  0  0  0  0  0  0
    6.6158    2.0039   27.5140 C   0  0  0  0  0  0  0  0  0  0  0  0
    6.5480    1.6070   28.8451 C   0  0  0  0  0  0  0  0  0  0  0  0
    5.5591    2.0735   29.6247 F   0  0  0  0  0  0  0  0  0  0  0  0
    7.4920    0.7504   29.4016 C   0  0  0  0  0  0  0  0  0  0  0  0
    8.4972    0.2403   28.5760 C   0  0  0  0  0  0  0  0  0  0  0  0
    8.5231    0.5714   27.2264 C   0  0  0  0  0  0  0  0  0  0  0  0
    9.4403   -0.0383   26.4479 F   0  0  0  0  0  0  0  0  0  0  0  0
    9.2723   -0.4093   28.9686 H   0  0  0  0  0  0  0  0  0  0  0  0
    7.4195    0.4809   30.4500 H   0  0  0  0  0  0  0  0  0  0  0  0
    5.8609    2.6866   27.1442 H   0  0  0  0  0  0  0  0  0  0  0  0
    9.8779    2.7379   25.0409 H   0  0  0  0  0  0  0  0  0  0  0  0
    9.6743    1.0782   24.4921 H   0  0  0  0  0  0  0  0  0  0  0  0
    9.2732    3.4690   22.8285 H   0  0  0  0  0  0  0  0  0  0  0  0
  1  2  2  0
  2  3  1  0
  3  4  1  0
  4  5  1  0
  5  6  1  0
  6  7  1  0
  7  8  1  0
  8  9  1  0
  7 10  1  0
  7 11  1  0
  6 12  1  0
  6 13  1  0
  5 14  1  0
  5 15  1  0
  4 16  1  0
 16 17  2  0
 17 18  1  0
 18 19  2  0
 19 20  1  0
 20 21  2  0
 21 22  1  0
 19 23  1  0
 18 24  1  0
 17 25  1  0
  4 26  1  0
  3 27  1  0
  2 28  1  0
 28 29  1  0
 29 30  1  0
 30 31  2  0
 31 32  1  0
 30 33  1  0
 33 34  2  0
 34 35  1  0
 35 36  1  0
 35 37  2  0
 37 38  1  0
 38 39  2  0
 39 40  1  0
 38 41  1  0
 37 42  1  0
 34 43  1  0
 29 44  1  0
 29 45  1  0
 28 46  1  0
 21 16  1  0
 32 28  1  0
 39 33  1  0
M  END
>  <plip>  (1) 
-0.17857142857142858

>  <filename>  (1) 
[H][O][C]([H])([H])[C]([H])([H])[C]([H])([H])[C]([H])([c]1[c]([H])[n][c]([H])[c]([H])[c]1[H])[N]([H])[C](=[O])[C]1([H])[O][N]=[C]([c]2[c]([H])[c]([F])[c]([H])[c]([H])[c]2[F])[C]1([H])[H]

$$$$
