
     RDKit          3D

 26 27  0  0  0  0  0  0  0  0999 V2000
   11.4230    1.7362   23.9822 C   0  0  0  0  0  0  0  0  0  0  0  0
   10.5104    0.5476   23.9211 C   0  0  0  0  0  0  0  0  0  0  0  0
   10.6641   -0.6214   24.5985 C   0  0  0  0  0  0  0  0  0  0  0  0
    9.3740   -1.6999   24.2396 S   0  0  0  0  0  0  0  0  0  0  0  0
    8.7184   -0.5025   23.1909 C   0  0  0  0  0  0  0  0  0  0  0  0
    7.4477   -0.6431   22.4054 C   0  0  0  0  0  0  0  0  0  0  0  0
    6.6675   -1.8442   22.6961 C   0  0  0  0  0  0  0  0  0  0  0  0
    6.0231   -2.7887   22.8506 N   0  0  0  0  0  0  0  0  0  0  0  0
    7.7806   -0.6798   20.9051 C   0  0  0  0  0  0  0  0  0  0  0  0
    8.7704   -1.2756   20.5499 O   0  0  0  0  0  0  0  0  0  0  0  0
    6.8561   -0.0441   19.9359 C   0  0  0  0  0  0  0  0  0  0  0  0
    5.6388    0.5945   20.2340 C   0  0  0  0  0  0  0  0  0  0  0  0
    4.9751    1.2595   19.2032 C   0  0  0  0  0  0  0  0  0  0  0  0
    5.5276    1.2358   17.9192 C   0  0  0  0  0  0  0  0  0  0  0  0
    6.6467    0.5644   17.6085 N   0  0  0  0  0  0  0  0  0  0  0  0
    7.2794   -0.0671   18.5960 C   0  0  0  0  0  0  0  0  0  0  0  0
    8.1749   -0.6223   18.3241 H   0  0  0  0  0  0  0  0  0  0  0  0
    5.0435    1.7664   17.1009 H   0  0  0  0  0  0  0  0  0  0  0  0
    4.0633    1.8180   19.3872 H   0  0  0  0  0  0  0  0  0  0  0  0
    5.2120    0.5779   21.2389 H   0  0  0  0  0  0  0  0  0  0  0  0
    6.8601    0.2472   22.6467 H   0  0  0  0  0  0  0  0  0  0  0  0
    9.4018    0.5896   23.0989 N   0  0  0  0  0  0  0  0  0  0  0  0
   11.4660   -0.8612   25.2801 H   0  0  0  0  0  0  0  0  0  0  0  0
   12.0643    1.6888   24.8679 H   0  0  0  0  0  0  0  0  0  0  0  0
   12.0568    1.7893   23.0892 H   0  0  0  0  0  0  0  0  0  0  0  0
   10.8472    2.6649   24.0078 H   0  0  0  0  0  0  0  0  0  0  0  0
  1  2  1  0
  2  3  2  0
  3  4  1  0
  4  5  1  0
  5  6  1  0
  6  7  1  0
  7  8  3  0
  6  9  1  0
  9 10  2  0
  9 11  1  0
 11 12  2  0
 12 13  1  0
 13 14  2  0
 14 15  1  0
 15 16  2  0
 16 17  1  0
 14 18  1  0
 13 19  1  0
 12 20  1  0
  6 21  1  0
  5 22  2  0
  3 23  1  0
  1 24  1  0
  1 25  1  0
  1 26  1  0
 22  2  1  0
 16 11  1  0
M  END
>  <plip>  (1) 
-0.06896551724137931

>  <filename>  (1) 
[H][c]1[n][c]([H])[c]([C](=[O])[C]([H])([C]#[N])[c]2[n][c]([C]([H])([H])[H])[c]([H])[s]2)[c]([H])[c]1[H]

$$$$
