
     RDKit          3D

 23 25  0  0  0  0  0  0  0  0999 V2000
    4.9246    1.7744   17.0011 H   0  0  0  0  0  0  0  0  0  0  0  0
    5.4082    1.2865   17.8456 C   0  0  0  0  0  0  0  0  0  0  0  0
    6.5728    0.6685   17.5949 N   0  0  0  0  0  0  0  0  0  0  0  0
    7.1803    0.0533   18.6145 C   0  0  0  0  0  0  0  0  0  0  0  0
    8.1275   -0.4325   18.3812 H   0  0  0  0  0  0  0  0  0  0  0  0
    6.6534    0.0092   19.9170 C   0  0  0  0  0  0  0  0  0  0  0  0
    7.3671   -0.6985   20.9880 C   0  0  0  0  0  0  0  0  0  0  0  0
    8.5501   -1.3527   20.8358 N   0  0  0  0  0  0  0  0  0  0  0  0
    8.8618   -1.8499   21.9898 N   0  0  0  0  0  0  0  0  0  0  0  0
    7.8892   -1.5048   22.8237 N   0  0  0  0  0  0  0  0  0  0  0  0
    7.8613   -1.8633   24.2030 C   0  0  0  0  0  0  0  0  0  0  0  0
    8.8180   -2.5826   24.7841 N   0  0  0  0  0  0  0  0  0  0  0  0
    8.4129   -2.6896   26.0531 N   0  0  0  0  0  0  0  0  0  0  0  0
    8.9896   -3.2059   26.7006 H   0  0  0  0  0  0  0  0  0  0  0  0
    7.2355   -2.0713   26.3128 C   0  0  0  0  0  0  0  0  0  0  0  0
    6.7808   -2.0737   27.3013 H   0  0  0  0  0  0  0  0  0  0  0  0
    6.8441   -1.5188   25.1235 C   0  0  0  0  0  0  0  0  0  0  0  0
    5.9571   -0.9470   24.9219 H   0  0  0  0  0  0  0  0  0  0  0  0
    6.9305   -0.7841   22.2393 N   0  0  0  0  0  0  0  0  0  0  0  0
    5.4309    0.6557   20.1663 C   0  0  0  0  0  0  0  0  0  0  0  0
    4.9975    0.6370   21.1698 H   0  0  0  0  0  0  0  0  0  0  0  0
    4.8058    1.3094   19.1085 C   0  0  0  0  0  0  0  0  0  0  0  0
    3.8737    1.8438   19.2572 H   0  0  0  0  0  0  0  0  0  0  0  0
  1  2  1  0
  2  3  2  0
  3  4  1  0
  4  5  1  0
  4  6  2  0
  6  7  1  0
  7  8  1  0
  8  9  2  0
  9 10  1  0
 10 11  1  0
 11 12  2  0
 12 13  1  0
 13 14  1  0
 13 15  1  0
 15 16  1  0
 15 17  2  0
 17 18  1  0
 10 19  1  0
  6 20  1  0
 20 21  1  0
 20 22  2  0
 22 23  1  0
 22  2  1  0
 19  7  2  0
 17 11  1  0
M  END
>  <plip>  (1) 
-0.07142857142857142

>  <filename>  (1) 
[H][c]1[n][c]([H])[c](-[c]2[n][n][n](-[c]3[n][n]([H])[c]([H])[c]3[H])[n]2)[c]([H])[c]1[H]

$$$$
