
     RDKit          3D

 46 47  0  0  0  0  0  0  0  0999 V2000
    5.8068   -3.2588   20.3280 C   0  0  0  0  0  0  0  0  0  0  0  0
    7.0765   -2.6917   20.9396 C   0  0  0  0  0  0  0  0  0  0  0  0
    6.8272   -1.6488   21.9391 N   0  0  0  0  0  0  0  0  0  0  0  0
    7.2649   -0.3010   21.5687 C   0  0  0  0  0  0  0  0  0  0  0  0
    6.5828    0.2016   20.3110 C   0  0  0  0  0  0  0  0  0  0  0  0
    5.3286    0.8244   20.3537 C   0  0  0  0  0  0  0  0  0  0  0  0
    4.7844    1.3366   19.1759 C   0  0  0  0  0  0  0  0  0  0  0  0
    5.5050    1.1950   17.9853 C   0  0  0  0  0  0  0  0  0  0  0  0
    6.6841    0.5648   17.9080 N   0  0  0  0  0  0  0  0  0  0  0  0
    7.1959    0.0855   19.0484 C   0  0  0  0  0  0  0  0  0  0  0  0
    8.1729   -0.3937   18.9567 H   0  0  0  0  0  0  0  0  0  0  0  0
    5.1276    1.6193   17.0580 H   0  0  0  0  0  0  0  0  0  0  0  0
    3.8436    1.8752   19.1733 H   0  0  0  0  0  0  0  0  0  0  0  0
    4.7946    0.9321   21.3026 H   0  0  0  0  0  0  0  0  0  0  0  0
    7.0913    0.4145   22.3770 H   0  0  0  0  0  0  0  0  0  0  0  0
    8.3577   -0.3104   21.4279 H   0  0  0  0  0  0  0  0  0  0  0  0
    6.4526   -2.0816   23.1920 C   0  0  0  0  0  0  0  0  0  0  0  0
    6.2058   -3.2571   23.4311 O   0  0  0  0  0  0  0  0  0  0  0  0
    6.4140   -1.1021   24.1737 N   0  0  0  0  0  0  0  0  0  0  0  0
    5.9009   -1.4580   25.4956 C   0  0  0  0  0  0  0  0  0  0  0  0
    4.4065   -1.7990   25.4531 C   0  0  0  0  0  0  0  0  0  0  0  0
    3.7029   -1.9753   26.7710 N   0  0  0  0  0  4  0  0  0  0  0  0
    2.1959   -2.0841   26.5146 C   0  0  0  0  0  0  0  0  0  0  0  0
    1.7156   -3.5281   26.5038 C   0  0  0  0  0  0  0  0  0  0  0  0
    1.8260   -4.2998   28.1467 S   0  0  0  0  0  0  0  0  0  0  0  0
    3.2778   -3.3982   28.7769 C   0  0  0  0  0  0  0  0  0  0  0  0
    4.2756   -3.0706   27.6773 C   0  0  0  0  0  0  0  0  0  0  0  0
    5.2178   -2.7277   28.1200 H   0  0  0  0  0  0  0  0  0  0  0  0
    4.4880   -3.9611   27.0790 H   0  0  0  0  0  0  0  0  0  0  0  0
    2.9527   -2.4640   29.2451 H   0  0  0  0  0  0  0  0  0  0  0  0
    3.7141   -4.0275   29.5529 H   0  0  0  0  0  0  0  0  0  0  0  0
    0.6668   -3.5734   26.2115 H   0  0  0  0  0  0  0  0  0  0  0  0
    2.2932   -4.1068   25.7752 H   0  0  0  0  0  0  0  0  0  0  0  0
    1.6612   -1.5127   27.2760 H   0  0  0  0  0  0  0  0  0  0  0  0
    1.9800   -1.6205   25.5461 H   0  0  0  0  0  0  0  0  0  0  0  0
    3.8630   -1.0954   27.3039 H   0  0  0  0  0  0  0  0  0  0  0  0
    3.9003   -0.9880   24.9135 H   0  0  0  0  0  0  0  0  0  0  0  0
    4.3109   -2.6990   24.8389 H   0  0  0  0  0  0  0  0  0  0  0  0
    6.1153   -0.6376   26.1888 H   0  0  0  0  0  0  0  0  0  0  0  0
    6.4651   -2.3294   25.8368 H   0  0  0  0  0  0  0  0  0  0  0  0
    6.0817   -0.2367   23.7800 H   0  0  0  0  0  0  0  0  0  0  0  0
    7.6755   -3.4959   21.3803 H   0  0  0  0  0  0  0  0  0  0  0  0
    7.6899   -2.2434   20.1622 H   0  0  0  0  0  0  0  0  0  0  0  0
    5.2744   -2.4993   19.7457 H   0  0  0  0  0  0  0  0  0  0  0  0
    5.1537   -3.6322   21.1168 H   0  0  0  0  0  0  0  0  0  0  0  0
    6.0635   -4.0956   19.6682 H   0  0  0  0  0  0  0  0  0  0  0  0
  1  2  1  0
  2  3  1  0
  3  4  1  0
  4  5  1  0
  5  6  2  0
  6  7  1  0
  7  8  2  0
  8  9  1  0
  9 10  2  0
 10 11  1  0
  8 12  1  0
  7 13  1  0
  6 14  1  0
  4 15  1  0
  4 16  1  0
  3 17  1  0
 17 18  2  0
 17 19  1  0
 19 20  1  0
 20 21  1  0
 21 22  1  0
 22 23  1  0
 23 24  1  0
 24 25  1  0
 25 26  1  0
 26 27  1  0
 27 28  1  0
 27 29  1  0
 26 30  1  0
 26 31  1  0
 24 32  1  0
 24 33  1  0
 23 34  1  0
 23 35  1  0
 22 36  1  0
 21 37  1  0
 21 38  1  0
 20 39  1  0
 20 40  1  0
 19 41  1  0
  2 42  1  0
  2 43  1  0
  1 44  1  0
  1 45  1  0
  1 46  1  0
 10  5  1  0
 27 22  1  0
M  CHG  1  22   1
M  END
>  <plip>  (1) 
-0.0

>  <filename>  (1) 
[H][c]1[n][c]([H])[c]([C]([H])([H])[N]([C](=[O])[N]([H])[C]([H])([H])[C]([H])([H])[N+]2([H])[C]([H])([H])[C]([H])([H])[S][C]([H])([H])[C]2([H])[H])[C]([H])([H])[C]([H])([H])[H])[c]([H])[c]1[H]

$$$$
