
     RDKit          3D

 25 26  0  0  0  0  0  0  0  0999 V2000
    7.6549   -2.3854   20.4276 H   0  0  0  0  0  0  0  0  0  0  0  0
    8.2581   -1.6374   20.5798 O   0  0  0  0  0  0  0  0  0  0  0  0
    7.4239   -0.5932   21.0010 N   0  0  0  0  0  0  0  0  0  0  0  0
    6.7682    0.0540   19.9485 C   0  0  0  0  0  0  0  0  0  0  0  0
    7.2291   -0.0244   18.6080 C   0  0  0  0  0  0  0  0  0  0  0  0
    8.1297   -0.5903   18.3774 H   0  0  0  0  0  0  0  0  0  0  0  0
    6.6192    0.5671   17.5758 N   0  0  0  0  0  0  0  0  0  0  0  0
    5.4798    1.2373   17.8294 C   0  0  0  0  0  0  0  0  0  0  0  0
    5.0094    1.7023   16.9683 H   0  0  0  0  0  0  0  0  0  0  0  0
    4.9055    1.3282   19.1017 C   0  0  0  0  0  0  0  0  0  0  0  0
    3.9639    1.8557   19.2353 H   0  0  0  0  0  0  0  0  0  0  0  0
    5.5606    0.7394   20.1814 C   0  0  0  0  0  0  0  0  0  0  0  0
    5.1499    0.7501   21.1920 H   0  0  0  0  0  0  0  0  0  0  0  0
    7.6807   -0.0393   22.3291 C   0  0  2  0  0  0  0  0  0  0  0  0
    7.5007    1.0455   22.2842 H   0  0  0  0  0  0  0  0  0  0  0  0
    9.1009   -0.2976   22.8824 C   0  0  0  0  0  0  0  0  0  0  0  0
    9.8250    0.4583   22.5647 H   0  0  0  0  0  0  0  0  0  0  0  0
    9.4621   -1.2769   22.5388 H   0  0  0  0  0  0  0  0  0  0  0  0
    8.9663   -0.2473   24.2951 O   0  0  0  0  0  0  0  0  0  0  0  0
    7.7353   -0.8723   24.6410 C   0  0  0  0  0  0  0  0  0  0  0  0
    7.3980   -0.4560   25.6024 H   0  0  0  0  0  0  0  0  0  0  0  0
    7.8799   -1.9537   24.7948 H   0  0  0  0  0  0  0  0  0  0  0  0
    6.7799   -0.6424   23.4479 C   0  0  0  0  0  0  0  0  0  0  0  0
    5.9472    0.0278   23.6932 H   0  0  0  0  0  0  0  0  0  0  0  0
    6.3645   -1.6025   23.1142 H   0  0  0  0  0  0  0  0  0  0  0  0
  1  2  1  0
  2  3  1  0
  3  4  1  0
  4  5  2  0
  5  6  1  0
  5  7  1  0
  7  8  2  0
  8  9  1  0
  8 10  1  0
 10 11  1  0
 10 12  2  0
 12 13  1  0
  3 14  1  0
 14 15  1  6
 14 16  1  0
 16 17  1  0
 16 18  1  0
 16 19  1  0
 19 20  1  0
 20 21  1  0
 20 22  1  0
 20 23  1  0
 23 24  1  0
 23 25  1  0
 12  4  1  0
 23 14  1  0
M  END
>  <plip>  (1) 
-0.06896551724137931

>  <filename>  (1) 
[H][O][N]([c]1[c]([H])[n][c]([H])[c]([H])[c]1[H])[C@]1([H])[C]([H])([H])[O][C]([H])([H])[C]1([H])[H]

$$$$
