
     RDKit          3D

 44 46  0  0  0  0  0  0  0  0999 V2000
    6.3390    1.2647   26.4122 C   0  0  0  0  0  0  0  0  0  0  0  0
    7.5472    1.1561   25.8510 C   0  0  0  0  0  0  0  0  0  0  0  0
    7.9222    1.7245   24.4958 C   0  0  0  0  0  0  0  0  0  0  0  0
    8.0144    0.6616   23.4354 N   0  0  0  0  0  4  0  0  0  0  0  0
    6.6567    0.0162   23.1560 C   0  0  0  0  0  0  0  0  0  0  0  0
    6.8277   -1.1577   22.1950 C   0  0  0  0  0  0  0  0  0  0  0  0
    7.5405   -0.7896   20.8798 C   0  0  0  0  0  0  0  0  0  0  0  0
    6.6924   -0.0075   19.8676 C   0  0  0  0  0  0  0  0  0  0  0  0
    5.4681    0.6329   20.1132 C   0  0  0  0  0  0  0  0  0  0  0  0
    4.8338    1.3244   19.0762 C   0  0  0  0  0  0  0  0  0  0  0  0
    5.4236    1.3469   17.8108 C   0  0  0  0  0  0  0  0  0  0  0  0
    6.5768    0.7180   17.5349 N   0  0  0  0  0  0  0  0  0  0  0  0
    7.1698    0.0665   18.5414 C   0  0  0  0  0  0  0  0  0  0  0  0
    8.0948   -0.4545   18.2859 H   0  0  0  0  0  0  0  0  0  0  0  0
    4.9480    1.8778   16.9848 H   0  0  0  0  0  0  0  0  0  0  0  0
    3.8956    1.8498   19.2364 H   0  0  0  0  0  0  0  0  0  0  0  0
    4.9835    0.5906   21.0910 H   0  0  0  0  0  0  0  0  0  0  0  0
    8.8767   -0.0918   21.2460 C   0  0  0  0  0  0  0  0  0  0  0  0
    8.6500    1.1251   22.1372 C   0  0  0  0  0  0  0  0  0  0  0  0
    9.5897    1.6456   22.3614 H   0  0  0  0  0  0  0  0  0  0  0  0
    7.9852    1.8461   21.6385 H   0  0  0  0  0  0  0  0  0  0  0  0
    9.4964   -0.8072   21.8046 H   0  0  0  0  0  0  0  0  0  0  0  0
    9.4428    0.1865   20.3533 H   0  0  0  0  0  0  0  0  0  0  0  0
    7.7991   -1.7263   20.3672 H   0  0  0  0  0  0  0  0  0  0  0  0
    7.4442   -1.9134   22.7037 H   0  0  0  0  0  0  0  0  0  0  0  0
    5.8604   -1.6253   22.0003 H   0  0  0  0  0  0  0  0  0  0  0  0
    6.2197   -0.3163   24.1013 H   0  0  0  0  0  0  0  0  0  0  0  0
    5.9968    0.7942   22.7611 H   0  0  0  0  0  0  0  0  0  0  0  0
    8.6268   -0.1052   23.8015 H   0  0  0  0  0  0  0  0  0  0  0  0
    8.8991    2.2200   24.5910 H   0  0  0  0  0  0  0  0  0  0  0  0
    7.2053    2.4971   24.1846 H   0  0  0  0  0  0  0  0  0  0  0  0
    8.7124    0.5027   26.5623 C   0  0  0  0  0  0  0  0  0  0  0  0
    8.3252   -0.1967   27.8675 C   0  0  0  0  0  0  0  0  0  0  0  0
    7.2819    0.6385   28.5989 N   0  0  0  0  0  4  0  0  0  0  0  0
    5.9997    0.7169   27.7854 C   0  0  0  0  0  0  0  0  0  0  0  0
    5.2684    1.3543   28.2949 H   0  0  0  0  0  0  0  0  0  0  0  0
    5.5500   -0.2796   27.7081 H   0  0  0  0  0  0  0  0  0  0  0  0
    7.6565    1.6212   28.5753 H   0  0  0  0  0  0  0  0  0  0  0  0
    7.1346    0.3075   29.5720 H   0  0  0  0  0  0  0  0  0  0  0  0
    7.9098   -1.1832   27.6335 H   0  0  0  0  0  0  0  0  0  0  0  0
    9.2002   -0.3391   28.5107 H   0  0  0  0  0  0  0  0  0  0  0  0
    9.4602    1.2924   26.7378 H   0  0  0  0  0  0  0  0  0  0  0  0
    9.1864   -0.2190   25.8862 H   0  0  0  0  0  0  0  0  0  0  0  0
    5.5384    1.7882   25.8930 H   0  0  0  0  0  0  0  0  0  0  0  0
  1  2  2  0
  2  3  1  0
  3  4  1  0
  4  5  1  0
  5  6  1  0
  6  7  1  0
  7  8  1  0
  8  9  2  0
  9 10  1  0
 10 11  2  0
 11 12  1  0
 12 13  2  0
 13 14  1  0
 11 15  1  0
 10 16  1  0
  9 17  1  0
  7 18  1  0
 18 19  1  0
 19 20  1  0
 19 21  1  0
 18 22  1  0
 18 23  1  0
  7 24  1  0
  6 25  1  0
  6 26  1  0
  5 27  1  0
  5 28  1  0
  4 29  1  0
  3 30  1  0
  3 31  1  0
  2 32  1  0
 32 33  1  0
 33 34  1  0
 34 35  1  0
 35 36  1  0
 35 37  1  0
 34 38  1  0
 34 39  1  0
 33 40  1  0
 33 41  1  0
 32 42  1  0
 32 43  1  0
  1 44  1  0
 35  1  1  0
 19  4  1  0
 13  8  1  0
M  CHG  2   4   1  34   1
M  END
>  <plip>  (1) 
-0.06896551724137931

>  <filename>  (1) 
[H][C]1=[C]([C]([H])([H])[N+]2([H])[C]([H])([H])[C]([H])([H])[C]([H])([c]3[c]([H])[n][c]([H])[c]([H])[c]3[H])[C]([H])([H])[C]2([H])[H])[C]([H])([H])[C]([H])([H])[N+]([H])([H])[C]1([H])[H]

$$$$
