
     RDKit          3D

 42 44  0  0  0  0  0  0  0  0999 V2000
    8.7477    1.4576   21.4845 C   0  0  0  0  0  0  0  0  0  0  0  0
    7.9047    0.3275   22.1034 C   0  0  0  0  0  0  0  0  0  0  0  0
    8.6880   -0.3888   23.2229 C   0  0  0  0  0  0  0  0  0  0  0  0
    9.5453   -0.9442   22.8159 H   0  0  0  0  0  0  0  0  0  0  0  0
    8.0728   -1.1037   23.7855 H   0  0  0  0  0  0  0  0  0  0  0  0
    9.0769    0.3378   23.9490 H   0  0  0  0  0  0  0  0  0  0  0  0
    7.4354   -0.6547   20.9944 C   0  0  0  0  0  0  0  0  0  0  0  0
    6.5946   -1.7773   21.5253 N   0  0  0  0  0  4  0  0  0  0  0  0
    7.2765   -3.0990   21.7028 C   0  0  0  0  0  0  0  0  0  0  0  0
    6.3878   -4.0596   22.4226 C   0  0  0  0  0  0  0  0  0  0  0  0
    6.2861   -4.2391   23.7788 C   0  0  0  0  0  0  0  0  0  0  0  0
    5.3510   -5.2281   23.9552 N   0  0  0  0  0  0  0  0  0  0  0  0
    4.8454   -5.7842   25.1096 C   0  0  0  0  0  0  0  0  0  0  0  0
    3.8995   -6.7602   25.0238 C   0  0  0  0  0  0  0  0  0  0  0  0
    3.4421   -7.1989   23.7249 C   0  0  0  0  0  0  0  0  0  0  0  0
    3.9527   -6.6404   22.5864 C   0  0  0  0  0  0  0  0  0  0  0  0
    4.9371   -5.6111   22.6795 C   0  0  0  0  0  0  0  0  0  0  0  0
    5.5635   -4.9118   21.7449 N   0  0  0  0  0  0  0  0  0  0  0  0
    3.6480   -6.9584   21.5968 H   0  0  0  0  0  0  0  0  0  0  0  0
    2.6887   -7.9776   23.6584 H   0  0  0  0  0  0  0  0  0  0  0  0
    3.5015   -7.1974   25.9327 H   0  0  0  0  0  0  0  0  0  0  0  0
    5.2646   -5.3699   26.0191 H   0  0  0  0  0  0  0  0  0  0  0  0
    6.7655   -3.7634   24.6181 H   0  0  0  0  0  0  0  0  0  0  0  0
    8.2170   -2.9702   22.2546 H   0  0  0  0  0  0  0  0  0  0  0  0
    7.5398   -3.5266   20.7294 H   0  0  0  0  0  0  0  0  0  0  0  0
    5.7977   -1.8588   20.8434 H   0  0  0  0  0  0  0  0  0  0  0  0
    6.1924   -1.4628   22.4525 H   0  0  0  0  0  0  0  0  0  0  0  0
    6.6213    0.0108   19.9022 C   0  0  0  0  0  0  0  0  0  0  0  0
    5.4000    0.6635   20.1362 C   0  0  0  0  0  0  0  0  0  0  0  0
    4.7792    1.3238   19.0756 C   0  0  0  0  0  0  0  0  0  0  0  0
    5.3848    1.3012   17.8151 C   0  0  0  0  0  0  0  0  0  0  0  0
    6.5376    0.6660   17.5685 N   0  0  0  0  0  0  0  0  0  0  0  0
    7.1319    0.0505   18.5987 C   0  0  0  0  0  0  0  0  0  0  0  0
    8.0854   -0.4318   18.3758 H   0  0  0  0  0  0  0  0  0  0  0  0
    4.9358    1.8162   16.9662 H   0  0  0  0  0  0  0  0  0  0  0  0
    3.8523    1.8656   19.2142 H   0  0  0  0  0  0  0  0  0  0  0  0
    4.9497    0.6807   21.1324 H   0  0  0  0  0  0  0  0  0  0  0  0
    8.3357   -1.0984   20.5468 H   0  0  0  0  0  0  0  0  0  0  0  0
    6.9887    0.7565   22.5457 H   0  0  0  0  0  0  0  0  0  0  0  0
    9.6321    1.0530   20.9679 H   0  0  0  0  0  0  0  0  0  0  0  0
    8.1705    2.0343   20.7497 H   0  0  0  0  0  0  0  0  0  0  0  0
    9.1111    2.1498   22.2541 H   0  0  0  0  0  0  0  0  0  0  0  0
  1  2  1  0
  2  3  1  0
  3  4  1  0
  3  5  1  0
  3  6  1  0
  2  7  1  0
  7  8  1  0
  8  9  1  0
  9 10  1  0
 10 11  2  0
 11 12  1  0
 12 13  1  0
 13 14  2  0
 14 15  1  0
 15 16  2  0
 16 17  1  0
 17 18  2  0
 16 19  1  0
 15 20  1  0
 14 21  1  0
 13 22  1  0
 11 23  1  0
  9 24  1  0
  9 25  1  0
  8 26  1  0
  8 27  1  0
  7 28  1  0
 28 29  2  0
 29 30  1  0
 30 31  2  0
 31 32  1  0
 32 33  2  0
 33 34  1  0
 31 35  1  0
 30 36  1  0
 29 37  1  0
  7 38  1  0
  2 39  1  0
  1 40  1  0
  1 41  1  0
  1 42  1  0
 18 10  1  0
 33 28  1  0
 17 12  1  0
M  CHG  1   8   1
M  END
>  <plip>  (1) 
-0.10714285714285714

>  <filename>  (1) 
[H][c]1[n][c]([H])[c]([C]([H])([C]([H])([C]([H])([H])[H])[C]([H])([H])[H])[N+]([H])([H])[C]([H])([H])[c]2[n][c]3[c]([H])[c]([H])[c]([H])[c]([H])[n]3[c]2[H])[c]([H])[c]1[H]

$$$$
