
     RDKit          3D

 44 46  0  0  0  0  0  0  0  0999 V2000
    5.8951   -0.9703   21.1970 C   0  0  0  0  0  0  0  0  0  0  0  0
    6.9412   -0.0098   21.7387 C   0  0  0  0  0  0  0  0  0  0  0  0
    7.5116    0.8796   20.9075 C   0  0  0  0  0  0  0  0  0  0  0  0
    6.8998    1.2599   19.6099 C   0  0  0  0  0  0  0  0  0  0  0  0
    5.6118    1.8158   19.5418 C   0  0  0  0  0  0  0  0  0  0  0  0
    5.0646    2.1132   18.2944 C   0  0  0  0  0  0  0  0  0  0  0  0
    5.8204    1.8383   17.1522 C   0  0  0  0  0  0  0  0  0  0  0  0
    7.0384    1.2715   17.1860 N   0  0  0  0  0  0  0  0  0  0  0  0
    7.5539    1.0032   18.3948 C   0  0  0  0  0  0  0  0  0  0  0  0
    8.5483    0.5598   18.4071 H   0  0  0  0  0  0  0  0  0  0  0  0
    5.4357    2.0975   16.1694 H   0  0  0  0  0  0  0  0  0  0  0  0
    4.0829    2.5656   18.1994 H   0  0  0  0  0  0  0  0  0  0  0  0
    5.0745    2.0107   20.4704 H   0  0  0  0  0  0  0  0  0  0  0  0
    8.4800    1.3304   21.1592 H   0  0  0  0  0  0  0  0  0  0  0  0
    7.4496   -0.0781   23.1726 C   0  0  0  0  0  0  0  0  0  0  0  0
    8.4934    0.4586   23.5180 O   0  0  0  0  0  0  0  0  0  0  0  0
    6.6874   -0.7929   24.0552 N   0  0  0  0  0  0  0  0  0  0  0  0
    7.1783   -1.2562   25.3550 C   0  0  0  0  0  0  0  0  0  0  0  0
    7.5551   -2.8236   25.3947 C   0  0  0  0  0  0  0  0  0  0  0  0
    8.5074   -3.4694   24.3991 C   0  0  0  0  0  0  0  0  0  0  0  0
    8.8306   -3.6308   24.5550 C   0  0  0  0  0  0  0  0  0  0  0  0
    9.3509   -6.1822   24.4391 N   0  0  0  0  0  0  0  0  0  0  0  0
    8.3638   -5.9057   23.6155 C   0  0  0  0  0  0  0  0  0  0  0  0
    7.7777   -6.8740   22.6980 C   0  0  0  0  0  0  0  0  0  0  0  0
    6.5960   -6.5768   22.0535 C   0  0  0  0  0  0  0  0  0  0  0  0
    5.9754   -5.3247   22.1802 C   0  0  0  0  0  0  0  0  0  0  0  0
    6.6155   -4.3599   22.9777 C   0  0  0  0  0  0  0  0  0  0  0  0
    7.7988   -4.6014   23.6114 C   0  0  0  0  0  0  0  0  0  0  0  0
    6.1849   -3.3653   23.1089 H   0  0  0  0  0  0  0  0  0  0  0  0
    5.0170   -5.1332   21.7047 H   0  0  0  0  0  0  0  0  0  0  0  0
    6.1255   -7.3481   21.4490 H   0  0  0  0  0  0  0  0  0  0  0  0
    8.2507   -7.8446   22.5714 H   0  0  0  0  0  0  0  0  0  0  0  0
    9.6254   -7.1485   24.3032 H   0  0  0  0  0  0  0  0  0  0  0  0
   10.0261   -3.9957   24.2089 H   0  0  0  0  0  0  0  0  0  0  0  0
    9.3567   -4.3001   25.3546 H   0  0  0  0  0  0  0  0  0  0  0  0
    9.0138   -2.4821   23.7874 H   0  0  0  0  0  0  0  0  0  0  0  0
    7.7957   -2.9846   26.4635 H   0  0  0  0  0  0  0  0  0  0  0  0
    6.5462   -3.2684   25.2724 H   0  0  0  0  0  0  0  0  0  0  0  0
    6.4105   -1.0861   26.1165 H   0  0  0  0  0  0  0  0  0  0  0  0
    8.0430   -0.6359   25.6117 H   0  0  0  0  0  0  0  0  0  0  0  0
    5.7616   -1.0286   23.7366 H   0  0  0  0  0  0  0  0  0  0  0  0
    5.9473   -1.9625   21.6437 H   0  0  0  0  0  0  0  0  0  0  0  0
    4.8794   -0.5750   21.3081 H   0  0  0  0  0  0  0  0  0  0  0  0
    6.0380   -1.1010   20.1161 H   0  0  0  0  0  0  0  0  0  0  0  0
  1  2  1  0
  2  3  2  3
  3  4  1  0
  4  5  2  0
  5  6  1  0
  6  7  2  0
  7  8  1  0
  8  9  2  0
  9 10  1  0
  7 11  1  0
  6 12  1  0
  5 13  1  0
  3 14  1  0
  2 15  1  0
 15 16  2  0
 15 17  1  0
 17 18  1  0
 18 19  1  0
 19 20  1  0
 20 21  1  0
 21 22  1  0
 22 23  1  0
 23 24  2  0
 24 25  1  0
 25 26  2  0
 26 27  1  0
 27 28  2  0
 27 29  1  0
 26 30  1  0
 25 31  1  0
 24 32  1  0
 22 33  1  0
 21 34  1  0
 21 35  1  0
 20 36  1  0
 19 37  1  0
 19 38  1  0
 18 39  1  0
 18 40  1  0
 17 41  1  0
  1 42  1  0
  1 43  1  0
  1 44  1  0
  9  4  1  0
 28 20  1  0
 28 23  1  0
M  END
>  <plip>  (1) 
-0.16129032258064516

>  <filename>  (1) 
[H][C](=[C]([C](=[O])[N]([H])[C]([H])([H])[C]([H])([H])[C]1([H])[c]2[c]([H])[c]([H])[c]([H])[c]([H])[c]2[N]([H])[C]1([H])[H])[C]([H])([H])[H])[c]1[c]([H])[n][c]([H])[c]([H])[c]1[H]

$$$$
