
     RDKit          3D

 40 42  0  0  0  0  0  0  0  0999 V2000
    7.8146   -1.6060   20.6182 H   0  0  0  0  0  0  0  0  0  0  0  0
    7.4039   -0.6340   20.9264 C   0  0  0  0  0  0  0  0  0  0  0  0
    7.6385   -0.2144   22.1842 C   0  0  0  0  0  0  0  0  0  0  0  0
    7.5890    1.1393   22.7541 C   0  0  0  0  0  0  0  0  0  0  0  0
    7.5675    2.2794   21.9833 N   0  0  0  0  0  0  0  0  0  0  0  0
    7.0750    2.3097   21.1106 H   0  0  0  0  0  0  0  0  0  0  0  0
    6.9070    3.5977   22.7038 S   0  0  0  0  0  0  0  0  0  0  0  0
    6.6918    4.4167   21.5317 O   0  0  0  0  0  0  0  0  0  0  0  0
    5.7939    3.2429   23.5624 O   0  0  0  0  0  0  0  0  0  0  0  0
    8.2462    4.1725   23.7021 C   0  0  0  0  0  0  0  0  0  0  0  0
    7.9317    4.8727   24.8747 C   0  0  0  0  0  0  0  0  0  0  0  0
    6.8914    4.9962   25.1871 H   0  0  0  0  0  0  0  0  0  0  0  0
    8.9635    5.4126   25.6461 C   0  0  0  0  0  0  0  0  0  0  0  0
    8.7179    5.9657   26.5489 H   0  0  0  0  0  0  0  0  0  0  0  0
   10.3108    5.2578   25.2808 C   0  0  0  0  0  0  0  0  0  0  0  0
   11.4178    5.8764   26.0985 C   0  0  0  0  0  0  0  0  0  0  0  0
   11.1257    6.0080   27.1438 H   0  0  0  0  0  0  0  0  0  0  0  0
   12.3227    5.2632   26.0732 H   0  0  0  0  0  0  0  0  0  0  0  0
   11.6888    6.8633   25.7144 H   0  0  0  0  0  0  0  0  0  0  0  0
   10.5955    4.5086   24.1273 C   0  0  0  0  0  0  0  0  0  0  0  0
   11.6320    4.3346   23.8538 H   0  0  0  0  0  0  0  0  0  0  0  0
    9.5836    3.9771   23.3258 C   0  0  0  0  0  0  0  0  0  0  0  0
    9.8501    3.4123   22.4310 H   0  0  0  0  0  0  0  0  0  0  0  0
    7.7515    1.2261   24.0154 N   0  0  0  0  0  0  0  0  0  0  0  0
    7.9648   -0.1121   24.5564 C   0  0  0  0  0  0  0  0  0  0  0  0
    7.1276   -0.3933   25.2124 H   0  0  0  0  0  0  0  0  0  0  0  0
    8.8541   -0.1063   25.2021 H   0  0  0  0  0  0  0  0  0  0  0  0
    8.1094   -1.0788   23.3520 C   0  0  0  0  0  0  0  0  0  0  0  0
    9.1560   -1.3863   23.2216 H   0  0  0  0  0  0  0  0  0  0  0  0
    7.5281   -1.9999   23.4783 H   0  0  0  0  0  0  0  0  0  0  0  0
    6.6464    0.0829   19.8663 C   0  0  0  0  0  0  0  0  0  0  0  0
    7.1252    0.0788   18.5339 C   0  0  0  0  0  0  0  0  0  0  0  0
    8.0460   -0.4501   18.2928 H   0  0  0  0  0  0  0  0  0  0  0  0
    6.5299    0.6936   17.5074 N   0  0  0  0  0  0  0  0  0  0  0  0
    5.3829    1.3456   17.7626 C   0  0  0  0  0  0  0  0  0  0  0  0
    4.9233    1.8604   16.9186 H   0  0  0  0  0  0  0  0  0  0  0  0
    4.7886    1.3797   19.0260 C   0  0  0  0  0  0  0  0  0  0  0  0
    3.8469    1.8988   19.1571 H   0  0  0  0  0  0  0  0  0  0  0  0
    5.4285    0.7414   20.0977 C   0  0  0  0  0  0  0  0  0  0  0  0
    4.9686    0.7256   21.0871 H   0  0  0  0  0  0  0  0  0  0  0  0
  1  2  1  0
  2  3  2  3
  3  4  1  0
  4  5  1  0
  5  6  1  0
  5  7  1  0
  7  8  2  0
  7  9  2  0
  7 10  1  0
 10 11  2  0
 11 12  1  0
 11 13  1  0
 13 14  1  0
 13 15  2  0
 15 16  1  0
 16 17  1  0
 16 18  1  0
 16 19  1  0
 15 20  1  0
 20 21  1  0
 20 22  2  0
 22 23  1  0
  4 24  2  0
 24 25  1  0
 25 26  1  0
 25 27  1  0
 25 28  1  0
 28 29  1  0
 28 30  1  0
  2 31  1  0
 31 32  2  0
 32 33  1  0
 32 34  1  0
 34 35  2  0
 35 36  1  0
 35 37  1  0
 37 38  1  0
 37 39  2  0
 39 40  1  0
 28  3  1  0
 39 31  1  0
 22 10  1  0
M  END
>  <plip>  (1) 
-0.14285714285714285

>  <filename>  (1) 
[H][C](=[C]1[C]([N]([H])[S](=[O])(=[O])[c]2[c]([H])[c]([H])[c]([C]([H])([H])[H])[c]([H])[c]2[H])=[N][C]([H])([H])[C]1([H])[H])[c]1[c]([H])[n][c]([H])[c]([H])[c]1[H]

$$$$
