
     RDKit          3D

 32 34  0  0  0  0  0  0  0  0999 V2000
    4.9420    1.7254   16.8065 H   0  0  0  0  0  0  0  0  0  0  0  0
    5.3703    1.3504   17.7335 C   0  0  0  0  0  0  0  0  0  0  0  0
    6.5782    0.7752   17.6199 N   0  0  0  0  0  0  0  0  0  0  0  0
    7.1381    0.2895   18.7321 C   0  0  0  0  0  0  0  0  0  0  0  0
    8.1220   -0.1628   18.5966 H   0  0  0  0  0  0  0  0  0  0  0  0
    6.5394    0.3397   20.0049 C   0  0  0  0  0  0  0  0  0  0  0  0
    7.2102   -0.2983   21.1986 C   0  0  2  0  0  0  0  0  0  0  0  0
    6.7203   -0.0148   22.1330 H   0  0  0  0  0  0  0  0  0  0  0  0
    8.8852    0.3625   21.3256 Cl  0  0  0  0  0  0  0  0  0  0  0  0
    7.2292   -1.8385   21.0765 C   0  0  0  0  0  0  0  0  0  0  0  0
    7.8773   -2.0481   20.2250 H   0  0  0  0  0  0  0  0  0  0  0  0
    6.2126   -2.1536   20.7983 H   0  0  0  0  0  0  0  0  0  0  0  0
    7.6932   -2.6430   22.2770 C   0  0  0  0  0  0  0  0  0  0  0  0
    9.0724   -3.0065   22.4061 C   0  0  0  0  0  0  0  0  0  0  0  0
    9.7694   -2.6533   21.6444 H   0  0  0  0  0  0  0  0  0  0  0  0
    9.5755   -3.7551   23.3579 N   0  0  0  0  0  0  0  0  0  0  0  0
    8.7207   -4.1956   24.3346 C   0  0  0  0  0  0  0  0  0  0  0  0
    9.2756   -5.0007   25.3681 C   0  0  0  0  0  0  0  0  0  0  0  0
   10.3296   -5.2427   25.2686 H   0  0  0  0  0  0  0  0  0  0  0  0
    8.4929   -5.4200   26.4200 C   0  0  0  0  0  0  0  0  0  0  0  0
    8.9202   -6.0247   27.2151 H   0  0  0  0  0  0  0  0  0  0  0  0
    7.1127   -5.0623   26.4701 C   0  0  0  0  0  0  0  0  0  0  0  0
    6.5211   -5.3886   27.3237 H   0  0  0  0  0  0  0  0  0  0  0  0
    6.5408   -4.3234   25.4575 C   0  0  0  0  0  0  0  0  0  0  0  0
    5.4857   -4.0621   25.5068 H   0  0  0  0  0  0  0  0  0  0  0  0
    7.3261   -3.8741   24.3500 C   0  0  0  0  0  0  0  0  0  0  0  0
    6.8258   -3.1041   23.2476 C   0  0  0  0  0  0  0  0  0  0  0  0
    5.7559   -2.9103   23.1661 H   0  0  0  0  0  0  0  0  0  0  0  0
    5.2832    0.9573   20.1079 C   0  0  0  0  0  0  0  0  0  0  0  0
    4.7998    1.0550   21.0817 H   0  0  0  0  0  0  0  0  0  0  0  0
    4.6872    1.4627   18.9477 C   0  0  0  0  0  0  0  0  0  0  0  0
    3.7171    1.9488   18.9690 H   0  0  0  0  0  0  0  0  0  0  0  0
  1  2  1  0
  2  3  2  0
  3  4  1  0
  4  5  1  0
  4  6  2  0
  6  7  1  0
  7  8  1  1
  7  9  1  0
  7 10  1  0
 10 11  1  0
 10 12  1  0
 10 13  1  0
 13 14  2  0
 14 15  1  0
 14 16  1  0
 16 17  2  0
 17 18  1  0
 18 19  1  0
 18 20  2  0
 20 21  1  0
 20 22  1  0
 22 23  1  0
 22 24  2  0
 24 25  1  0
 24 26  1  0
 26 27  2  0
 27 28  1  0
  6 29  1  0
 29 30  1  0
 29 31  2  0
 31 32  1  0
 31  2  1  0
 27 13  1  0
 26 17  1  0
M  END
>  <plip>  (1) 
-0.07142857142857142

>  <filename>  (1) 
[H][c]1[n][c]([H])[c]([C@]([H])([Cl])[C]([H])([H])[c]2[c]([H])[n][c]3[c]([H])[c]([H])[c]([H])[c]([H])[c]3[c]2[H])[c]([H])[c]1[H]

$$$$
