
     RDKit          3D

 31 32  0  0  0  0  0  0  0  0999 V2000
    8.8196    5.3996   26.2133 H   0  0  0  0  0  0  0  0  0  0  0  0
    9.0379    4.4780   26.4490 O   0  0  0  0  0  0  0  0  0  0  0  0
    8.7542    3.8530   25.3003 C   0  0  0  0  0  0  0  0  0  0  0  0
    8.3206    4.4898   24.3695 O   0  0  0  0  0  0  0  0  0  0  0  0
    9.0451    2.2816   25.2871 C   0  0  0  0  0  0  0  0  0  0  0  0
    9.6598    1.7602   26.2181 O   0  0  0  0  0  0  0  0  0  0  0  0
    8.5975    1.5039   24.1717 C   0  0  0  0  0  0  0  0  0  0  0  0
    8.0415    2.0095   23.4020 H   0  0  0  0  0  0  0  0  0  0  0  0
    8.8221    0.1465   24.0780 C   0  0  0  0  0  0  0  0  0  0  0  0
    9.5667   -0.4556   24.9867 O   0  0  0  0  0  0  0  0  0  0  0  0
    9.7455    0.2657   25.6599 H   0  0  0  0  0  0  0  0  0  0  0  0
    8.2683   -0.6875   22.9969 C   0  0  0  0  0  0  0  0  0  0  0  0
    7.4374   -0.1290   21.9765 C   0  0  0  0  0  0  0  0  0  0  0  0
    7.2276    0.9397   21.9899 H   0  0  0  0  0  0  0  0  0  0  0  0
    6.9313   -0.8702   20.9350 C   0  0  0  0  0  0  0  0  0  0  0  0
    6.3478   -0.1696   19.7592 C   0  0  0  0  0  0  0  0  0  0  0  0
    6.9823   -0.1459   18.4976 C   0  0  0  0  0  0  0  0  0  0  0  0
    7.8918   -0.7268   18.3473 H   0  0  0  0  0  0  0  0  0  0  0  0
    6.5757    0.6021   17.4638 N   0  0  0  0  0  0  0  0  0  0  0  0
    5.4879    1.3647   17.6469 C   0  0  0  0  0  0  0  0  0  0  0  0
    5.1899    1.9607   16.7871 H   0  0  0  0  0  0  0  0  0  0  0  0
    4.7662    1.4050   18.8444 C   0  0  0  0  0  0  0  0  0  0  0  0
    3.9113    2.0664   18.9297 H   0  0  0  0  0  0  0  0  0  0  0  0
    5.2114    0.6359   19.9207 C   0  0  0  0  0  0  0  0  0  0  0  0
    4.7016    0.6706   20.8861 H   0  0  0  0  0  0  0  0  0  0  0  0
    6.9954   -2.3431   21.0240 C   0  0  0  0  0  0  0  0  0  0  0  0
    6.4080   -3.2010   20.3925 O   0  0  0  0  0  0  0  0  0  0  0  0
    7.8965   -2.7929   22.0035 N   0  0  0  0  0  0  0  0  0  0  0  0
    7.8739   -3.8014   21.9669 H   0  0  0  0  0  0  0  0  0  0  0  0
    8.5007   -2.0470   22.9645 C   0  0  0  0  0  0  0  0  0  0  0  0
    9.1431   -2.5623   23.6766 H   0  0  0  0  0  0  0  0  0  0  0  0
  1  2  1  0
  2  3  1  0
  3  4  2  0
  3  5  1  0
  5  6  2  0
  5  7  1  0
  7  8  1  0
  7  9  2  3
  9 10  1  0
 10 11  1  0
  9 12  1  0
 12 13  1  0
 13 14  1  0
 13 15  2  0
 15 16  1  0
 16 17  2  0
 17 18  1  0
 17 19  1  0
 19 20  2  0
 20 21  1  0
 20 22  1  0
 22 23  1  0
 22 24  2  0
 24 25  1  0
 15 26  1  0
 26 27  2  0
 26 28  1  0
 28 29  1  0
 28 30  1  0
 30 31  1  0
 30 12  2  0
 24 16  1  0
M  END
>  <plip>  (1) 
-0.1724137931034483

>  <filename>  (1) 
[H][O][C](=[O])[C](=[O])[C]([H])=[C]([O][H])[c]1[c]([H])[c](-[c]2[c]([H])[n][c]([H])[c]([H])[c]2[H])[c](=[O])[n]([H])[c]1[H]

$$$$
