
     RDKit          3D

 40 42  0  0  0  0  0  0  0  0999 V2000
    2.2448   -4.8151   28.8250 F   0  0  0  0  0  0  0  0  0  0  0  0
    2.8140   -3.9711   27.9433 C   0  0  0  0  0  0  0  0  0  0  0  0
    2.0080   -3.9243   26.8631 F   0  0  0  0  0  0  0  0  0  0  0  0
    2.7961   -2.7427   28.4963 F   0  0  0  0  0  0  0  0  0  0  0  0
    4.2117   -4.4070   27.5592 C   0  0  0  0  0  0  0  0  0  0  0  0
    4.5639   -5.7680   27.5583 C   0  0  0  0  0  0  0  0  0  0  0  0
    5.8445   -6.1615   27.1519 C   0  0  0  0  0  0  0  0  0  0  0  0
    6.7734   -5.2017   26.7419 C   0  0  0  0  0  0  0  0  0  0  0  0
    6.4287   -3.8406   26.7215 C   0  0  0  0  0  0  0  0  0  0  0  0
    7.4421   -2.8048   26.3171 C   0  0  0  0  0  0  0  0  0  0  0  0
    7.3496   -2.5513   24.8716 N   0  0  0  0  0  4  0  0  0  0  0  0
    8.2897   -1.5516   24.3577 C   0  0  0  0  0  0  0  0  0  0  0  0
    8.0382   -1.3965   22.9011 C   0  0  0  0  0  0  0  0  0  0  0  0
    7.2027   -0.5090   22.2751 C   0  0  0  0  0  0  0  0  0  0  0  0
    7.3567   -0.6782   20.9344 N   0  0  0  0  0  0  0  0  0  0  0  0
    6.6614    0.0007   19.9106 C   0  0  0  0  0  0  0  0  0  0  0  0
    5.4411    0.6437   20.1661 C   0  0  0  0  0  0  0  0  0  0  0  0
    4.8175    1.2995   19.1072 C   0  0  0  0  0  0  0  0  0  0  0  0
    5.4127    1.2849   17.8449 C   0  0  0  0  0  0  0  0  0  0  0  0
    6.5766    0.6626   17.5939 N   0  0  0  0  0  0  0  0  0  0  0  0
    7.1855    0.0407   18.6045 C   0  0  0  0  0  0  0  0  0  0  0  0
    8.1327   -0.4376   18.3641 H   0  0  0  0  0  0  0  0  0  0  0  0
    4.9466    1.7862   17.0003 H   0  0  0  0  0  0  0  0  0  0  0  0
    3.8887    1.8311   19.2584 H   0  0  0  0  0  0  0  0  0  0  0  0
    4.9817    0.6315   21.1554 H   0  0  0  0  0  0  0  0  0  0  0  0
    8.2751   -1.6241   20.6560 N   0  0  0  0  0  0  0  0  0  0  0  0
    8.6823   -2.0644   21.8339 C   0  0  0  0  0  0  0  0  0  0  0  0
    9.4556   -2.8272   21.8729 H   0  0  0  0  0  0  0  0  0  0  0  0
    6.5436    0.2581   22.6587 H   0  0  0  0  0  0  0  0  0  0  0  0
    9.3270   -1.8530   24.5566 H   0  0  0  0  0  0  0  0  0  0  0  0
    8.1587   -0.5941   24.8810 H   0  0  0  0  0  0  0  0  0  0  0  0
    7.4848   -3.4432   24.3316 H   0  0  0  0  0  0  0  0  0  0  0  0
    6.3741   -2.2380   24.6218 H   0  0  0  0  0  0  0  0  0  0  0  0
    7.2723   -1.8783   26.8839 H   0  0  0  0  0  0  0  0  0  0  0  0
    8.4515   -3.1472   26.5849 H   0  0  0  0  0  0  0  0  0  0  0  0
    5.1456   -3.4512   27.1344 C   0  0  0  0  0  0  0  0  0  0  0  0
    4.8874   -2.3931   27.1402 H   0  0  0  0  0  0  0  0  0  0  0  0
    7.7828   -5.4996   26.4549 H   0  0  0  0  0  0  0  0  0  0  0  0
    6.1224   -7.2145   27.1636 H   0  0  0  0  0  0  0  0  0  0  0  0
    3.8474   -6.5217   27.8771 H   0  0  0  0  0  0  0  0  0  0  0  0
  1  2  1  0
  2  3  1  0
  2  4  1  0
  2  5  1  0
  5  6  2  0
  6  7  1  0
  7  8  2  0
  8  9  1  0
  9 10  1  0
 10 11  1  0
 11 12  1  0
 12 13  1  0
 13 14  2  0
 14 15  1  0
 15 16  1  0
 16 17  2  0
 17 18  1  0
 18 19  2  0
 19 20  1  0
 20 21  2  0
 21 22  1  0
 19 23  1  0
 18 24  1  0
 17 25  1  0
 15 26  1  0
 26 27  2  0
 27 28  1  0
 14 29  1  0
 12 30  1  0
 12 31  1  0
 11 32  1  0
 11 33  1  0
 10 34  1  0
 10 35  1  0
  9 36  2  0
 36 37  1  0
  8 38  1  0
  7 39  1  0
  6 40  1  0
 36  5  1  0
 27 13  1  0
 21 16  1  0
M  CHG  1  11   1
M  END
>  <plip>  (1) 
-0.06896551724137931

>  <filename>  (1) 
[H][c]1[n][c]([H])[c](-[n]2[n][c]([H])[c]([C]([H])([H])[N+]([H])([H])[C]([H])([H])[c]3[c]([H])[c]([H])[c]([H])[c]([C]([F])([F])[F])[c]3[H])[c]2[H])[c]([H])[c]1[H]

$$$$
