
     RDKit          3D

 30 31  0  0  0  0  0  0  0  0999 V2000
    4.9314    1.7848   16.9883 H   0  0  0  0  0  0  0  0  0  0  0  0
    5.4000    1.2900   17.8371 C   0  0  0  0  0  0  0  0  0  0  0  0
    6.5650    0.6593   17.5936 N   0  0  0  0  0  0  0  0  0  0  0  0
    7.1696    0.0606   18.6230 C   0  0  0  0  0  0  0  0  0  0  0  0
    8.1125   -0.4366   18.4170 H   0  0  0  0  0  0  0  0  0  0  0  0
    6.6656    0.0580   19.9434 C   0  0  0  0  0  0  0  0  0  0  0  0
    7.4242   -0.6328   20.9403 N   0  0  0  0  0  0  0  0  0  0  0  0
    7.5069   -0.3409   22.1409 N   0  0  0  0  0  0  0  0  0  0  0  0
    7.1028    0.9722   22.4468 O   0  0  0  0  0  0  0  0  0  0  0  0
    7.2197    1.3155   23.8429 C   0  0  0  0  0  0  0  0  0  0  0  0
    6.6004    0.6396   24.4447 H   0  0  0  0  0  0  0  0  0  0  0  0
    8.2657    1.2193   24.1584 H   0  0  0  0  0  0  0  0  0  0  0  0
    6.7369    2.7565   24.0114 C   0  0  0  0  0  0  0  0  0  0  0  0
    6.8570    3.0304   25.0653 H   0  0  0  0  0  0  0  0  0  0  0  0
    7.4050    3.4182   23.4498 H   0  0  0  0  0  0  0  0  0  0  0  0
    5.3012    2.9570   23.5800 C   0  0  0  0  0  0  0  0  0  0  0  0
    5.0080    3.4476   22.2995 C   0  0  0  0  0  0  0  0  0  0  0  0
    5.8293    3.7086   21.6337 H   0  0  0  0  0  0  0  0  0  0  0  0
    3.6844    3.5731   21.8701 C   0  0  0  0  0  0  0  0  0  0  0  0
    3.4838    3.9684   20.8750 H   0  0  0  0  0  0  0  0  0  0  0  0
    2.6338    3.2012   22.7184 C   0  0  0  0  0  0  0  0  0  0  0  0
    1.6044    3.3025   22.3828 H   0  0  0  0  0  0  0  0  0  0  0  0
    2.9139    2.7026   23.9957 C   0  0  0  0  0  0  0  0  0  0  0  0
    2.1052    2.4031   24.6584 H   0  0  0  0  0  0  0  0  0  0  0  0
    4.2418    2.5773   24.4193 C   0  0  0  0  0  0  0  0  0  0  0  0
    4.4715    2.1738   25.4047 H   0  0  0  0  0  0  0  0  0  0  0  0
    5.4301    0.6745   20.1806 C   0  0  0  0  0  0  0  0  0  0  0  0
    4.9880    0.6551   21.1777 H   0  0  0  0  0  0  0  0  0  0  0  0
    4.7999    1.3037   19.1001 C   0  0  0  0  0  0  0  0  0  0  0  0
    3.8634    1.8329   19.2336 H   0  0  0  0  0  0  0  0  0  0  0  0
  1  2  1  0
  2  3  2  0
  3  4  1  0
  4  5  1  0
  4  6  2  0
  6  7  1  0
  7  8  2  3
  8  9  1  0
  9 10  1  0
 10 11  1  0
 10 12  1  0
 10 13  1  0
 13 14  1  0
 13 15  1  0
 13 16  1  0
 16 17  2  0
 17 18  1  0
 17 19  1  0
 19 20  1  0
 19 21  2  0
 21 22  1  0
 21 23  1  0
 23 24  1  0
 23 25  2  0
 25 26  1  0
  6 27  1  0
 27 28  1  0
 27 29  2  0
 29 30  1  0
 29  2  1  0
 25 16  1  0
M  END
>  <plip>  (1) 
-0.0

>  <filename>  (1) 
[H][c]1[n][c]([H])[c]([N]=[N][O][C]([H])([H])[C]([H])([H])[c]2[c]([H])[c]([H])[c]([H])[c]([H])[c]2[H])[c]([H])[c]1[H]

$$$$
