
     RDKit          3D

 20 21  0  0  0  0  0  0  0  0999 V2000
    4.9169    1.7872   16.9903 H   0  0  0  0  0  0  0  0  0  0  0  0
    5.3968    1.2966   17.8321 C   0  0  0  0  0  0  0  0  0  0  0  0
    6.5616    0.6813   17.5693 N   0  0  0  0  0  0  0  0  0  0  0  0
    7.1588    0.0455   18.5835 C   0  0  0  0  0  0  0  0  0  0  0  0
    8.1102   -0.4343   18.3693 H   0  0  0  0  0  0  0  0  0  0  0  0
    6.6268   -0.0193   19.8814 C   0  0  0  0  0  0  0  0  0  0  0  0
    7.5789   -0.7661   21.2043 S   0  0  0  0  0  0  0  0  0  0  0  0
    8.4625    0.5962   21.7039 N   0  0  0  0  0  0  0  0  0  0  0  0
    9.6674    0.9986   21.1583 C   0  0  0  0  0  0  0  0  0  0  0  0
   10.1320    0.3543   20.4257 H   0  0  0  0  0  0  0  0  0  0  0  0
   10.0229    2.1786   21.7390 C   0  0  0  0  0  0  0  0  0  0  0  0
   10.9354    2.7300   21.5468 H   0  0  0  0  0  0  0  0  0  0  0  0
    8.9866    2.5309   22.6588 C   0  0  0  0  0  0  0  0  0  0  0  0
    8.9576    3.4002   23.3007 H   0  0  0  0  0  0  0  0  0  0  0  0
    8.0341    1.5553   22.6051 C   0  0  0  0  0  0  0  0  0  0  0  0
    7.0853    1.4218   23.1118 H   0  0  0  0  0  0  0  0  0  0  0  0
    5.4209    0.6342   20.1483 C   0  0  0  0  0  0  0  0  0  0  0  0
    5.0026    0.6257   21.1591 H   0  0  0  0  0  0  0  0  0  0  0  0
    4.7971    1.3112   19.0988 C   0  0  0  0  0  0  0  0  0  0  0  0
    3.8701    1.8493   19.2548 H   0  0  0  0  0  0  0  0  0  0  0  0
  1  2  1  0
  2  3  2  0
  3  4  1  0
  4  5  1  0
  4  6  2  0
  6  7  1  0
  7  8  1  0
  8  9  1  0
  9 10  1  0
  9 11  2  0
 11 12  1  0
 11 13  1  0
 13 14  1  0
 13 15  2  0
 15 16  1  0
  6 17  1  0
 17 18  1  0
 17 19  2  0
 19 20  1  0
 19  2  1  0
 15  8  1  0
M  END
>  <plip>  (1) 
-0.0

>  <filename>  (1) 
[H][c]1[n][c]([H])[c]([S][n]2[c]([H])[c]([H])[c]([H])[c]2[H])[c]([H])[c]1[H]

$$$$
