
     RDKit          3D

 42 42  0  0  0  0  0  0  0  0999 V2000
   10.7905    5.7158   24.3275 C   0  0  0  0  0  0  0  0  0  0  0  0
   10.1501    5.0865   23.0921 C   0  0  0  0  0  0  0  0  0  0  0  0
    8.6825    4.6987   23.2994 C   0  0  0  0  0  0  0  0  0  0  0  0
    7.9843    4.1910   22.0270 C   0  0  0  0  0  0  0  0  0  0  0  0
    6.4531    4.1732   22.1781 C   0  0  0  0  0  0  0  0  0  0  0  0
    5.9694    3.6802   21.3227 H   0  0  0  0  0  0  0  0  0  0  0  0
    6.1387    3.6461   23.0839 H   0  0  0  0  0  0  0  0  0  0  0  0
    6.0667    5.1984   22.2242 H   0  0  0  0  0  0  0  0  0  0  0  0
    8.5272    2.8388   21.5295 C   0  0  0  0  0  0  0  0  0  0  0  0
    8.4561    1.4774   22.6503 S   0  0  0  0  0  0  0  0  0  0  0  0
    7.1837    1.4468   23.3478 O   0  0  0  0  0  0  0  0  0  0  0  0
    9.7178    1.3108   23.3488 O   0  0  0  0  0  0  0  0  0  0  0  0
    8.5333    0.2295   21.5715 N   0  0  0  0  0  0  0  0  0  0  0  0
    7.2944   -0.4236   21.1580 C   0  0  2  0  0  0  0  0  0  0  0  0
    7.7749   -1.8021   20.7748 C   0  0  0  0  0  0  0  0  0  0  0  0
    8.3278   -2.4143   22.0814 C   0  0  0  0  0  0  0  0  0  0  0  0
    7.4439   -2.5920   22.9401 O   0  0  0  0  0  0  0  0  0  0  0  0
    9.5486   -2.6398   22.1278 O   0  0  0  0  0  1  0  0  0  0  0  0
    8.5856   -1.7293   20.0513 H   0  0  0  0  0  0  0  0  0  0  0  0
    6.9758   -2.4333   20.3866 H   0  0  0  0  0  0  0  0  0  0  0  0
    6.6402    0.3138   20.0210 C   0  0  0  0  0  0  0  0  0  0  0  0
    5.3922    0.9420   20.1625 C   0  0  0  0  0  0  0  0  0  0  0  0
    4.7825    1.5037   19.0364 C   0  0  0  0  0  0  0  0  0  0  0  0
    5.4437    1.4221   17.8053 C   0  0  0  0  0  0  0  0  0  0  0  0
    6.6473    0.8505   17.6523 N   0  0  0  0  0  0  0  0  0  0  0  0
    7.2281    0.3357   18.7465 C   0  0  0  0  0  0  0  0  0  0  0  0
    8.2140   -0.1002   18.5828 H   0  0  0  0  0  0  0  0  0  0  0  0
    4.9898    1.8334   16.9064 H   0  0  0  0  0  0  0  0  0  0  0  0
    3.8221    2.0053   19.0951 H   0  0  0  0  0  0  0  0  0  0  0  0
    4.9208    0.9882   21.1472 H   0  0  0  0  0  0  0  0  0  0  0  0
    6.5704   -0.4887   21.9907 H   0  0  0  0  0  0  0  0  0  0  0  0
    9.1651   -0.3648   22.0834 H   0  0  0  0  0  0  0  0  0  0  0  0
    9.5823    2.8619   21.2452 H   0  0  0  0  0  0  0  0  0  0  0  0
    7.9609    2.4654   20.6741 H   0  0  0  0  0  0  0  0  0  0  0  0
    8.2207    4.9163   21.2293 H   0  0  0  0  0  0  0  0  0  0  0  0
    8.5867    3.9444   24.0955 H   0  0  0  0  0  0  0  0  0  0  0  0
    8.1317    5.5812   23.6571 H   0  0  0  0  0  0  0  0  0  0  0  0
   10.2002    5.8064   22.2632 H   0  0  0  0  0  0  0  0  0  0  0  0
   10.7212    4.1993   22.7779 H   0  0  0  0  0  0  0  0  0  0  0  0
   11.8428    5.9570   24.1545 H   0  0  0  0  0  0  0  0  0  0  0  0
   10.2878    6.6491   24.6098 H   0  0  0  0  0  0  0  0  0  0  0  0
   10.7438    5.0278   25.1774 H   0  0  0  0  0  0  0  0  0  0  0  0
  1  2  1  0
  2  3  1  0
  3  4  1  0
  4  5  1  0
  5  6  1  0
  5  7  1  0
  5  8  1  0
  4  9  1  0
  9 10  1  0
 10 11  2  0
 10 12  2  0
 10 13  1  0
 13 14  1  0
 14 15  1  0
 15 16  1  0
 16 17  2  0
 16 18  1  0
 15 19  1  0
 15 20  1  0
 14 21  1  0
 21 22  2  0
 22 23  1  0
 23 24  2  0
 24 25  1  0
 25 26  2  0
 26 27  1  0
 24 28  1  0
 23 29  1  0
 22 30  1  0
 14 31  1  1
 13 32  1  0
  9 33  1  0
  9 34  1  0
  4 35  1  0
  3 36  1  0
  3 37  1  0
  2 38  1  0
  2 39  1  0
  1 40  1  0
  1 41  1  0
  1 42  1  0
 26 21  1  0
M  CHG  1  18  -1
M  END
>  <plip>  (1) 
-0.14285714285714285

>  <filename>  (1) 
[H][c]1[n][c]([H])[c]([C@]([H])([N]([H])[S](=[O])(=[O])[C]([H])([H])[C]([H])([C]([H])([H])[H])[C]([H])([H])[C]([H])([H])[C]([H])([H])[H])[C]([H])([H])[C](=[O])[O-])[c]([H])[c]1[H]

$$$$
