
     RDKit          3D

 29 31  0  0  0  0  0  0  0  0999 V2000
    4.9045    1.8146   16.9573 H   0  0  0  0  0  0  0  0  0  0  0  0
    5.3681    1.2871   17.7904 C   0  0  0  0  0  0  0  0  0  0  0  0
    6.5085    0.6337   17.5174 N   0  0  0  0  0  0  0  0  0  0  0  0
    7.1204    0.0073   18.5314 C   0  0  0  0  0  0  0  0  0  0  0  0
    8.0621   -0.4894   18.3006 H   0  0  0  0  0  0  0  0  0  0  0  0
    6.6295   -0.0037   19.8516 C   0  0  0  0  0  0  0  0  0  0  0  0
    7.5645   -0.7467   21.1981 S   0  0  0  0  0  0  0  0  0  0  0  0
    8.6794    0.5787   21.6030 C   0  0  0  0  0  0  0  0  0  0  0  0
    9.6567    0.9086   20.7818 N   0  0  0  0  0  0  0  0  0  0  0  0
   10.3165    1.9235   21.3715 N   0  0  0  0  0  0  0  0  0  0  0  0
    9.8050    2.2236   22.5030 N   0  0  0  0  0  0  0  0  0  0  0  0
    8.7578    1.3888   22.6755 N   0  0  0  0  0  0  0  0  0  0  0  0
    7.9272    1.4014   23.8738 C   0  0  1  0  0  0  0  0  0  0  0  0
    8.1391    2.3600   24.3642 H   0  0  0  0  0  0  0  0  0  0  0  0
    6.5174    1.2583   23.4927 N   0  0  0  0  0  0  0  0  0  0  0  0
    6.0095    2.1218   23.6432 H   0  0  0  0  0  0  0  0  0  0  0  0
    5.9355    0.1162   24.2104 C   0  0  0  0  0  0  0  0  0  0  0  0
    6.0308   -0.7686   23.5564 H   0  0  0  0  0  0  0  0  0  0  0  0
    4.8769    0.2796   24.4509 H   0  0  0  0  0  0  0  0  0  0  0  0
    6.8408   -0.0865   25.4290 C   0  0  0  0  0  0  0  0  0  0  0  0
    6.7925   -1.0918   25.8521 H   0  0  0  0  0  0  0  0  0  0  0  0
    6.5748    0.6179   26.2301 H   0  0  0  0  0  0  0  0  0  0  0  0
    8.2047    0.1975   24.7903 C   0  0  0  0  0  0  0  0  0  0  0  0
    8.4771   -0.6555   24.1557 H   0  0  0  0  0  0  0  0  0  0  0  0
    9.0192    0.3643   25.4971 H   0  0  0  0  0  0  0  0  0  0  0  0
    5.4213    0.6487   20.1152 C   0  0  0  0  0  0  0  0  0  0  0  0
    5.0147    0.6601   21.1305 H   0  0  0  0  0  0  0  0  0  0  0  0
    4.7852    1.3081   19.0620 C   0  0  0  0  0  0  0  0  0  0  0  0
    3.8588    1.8455   19.2190 H   0  0  0  0  0  0  0  0  0  0  0  0
  1  2  1  0
  2  3  2  0
  3  4  1  0
  4  5  1  0
  4  6  2  0
  6  7  1  0
  7  8  1  0
  8  9  2  0
  9 10  1  0
 10 11  2  0
 11 12  1  0
 12 13  1  0
 13 14  1  1
 13 15  1  0
 15 16  1  0
 15 17  1  0
 17 18  1  0
 17 19  1  0
 17 20  1  0
 20 21  1  0
 20 22  1  0
 20 23  1  0
 23 24  1  0
 23 25  1  0
  6 26  1  0
 26 27  1  0
 26 28  2  0
 28 29  1  0
 28  2  1  0
 12  8  1  0
 23 13  1  0
M  END
>  <plip>  (1) 
-0.07142857142857142

>  <filename>  (1) 
[H][c]1[n][c]([H])[c]([S][c]2[n][n][n][n]2[C@@]2([H])[N]([H])[C]([H])([H])[C]([H])([H])[C]2([H])[H])[c]([H])[c]1[H]

$$$$
