
     RDKit          3D

 37 39  0  0  0  0  0  0  0  0999 V2000
    9.4565    0.7537   21.0008 C   0  0  0  0  0  0  0  0  0  0  0  0
    8.3304    0.2034   21.8612 C   0  0  0  0  0  0  0  0  0  0  0  0
    7.3880   -0.7089   21.0205 C   0  0  0  0  0  0  0  0  0  0  0  0
    6.6422   -0.0225   19.8925 C   0  0  0  0  0  0  0  0  0  0  0  0
    5.4333    0.6424   20.1397 C   0  0  0  0  0  0  0  0  0  0  0  0
    4.7984    1.3131   19.0904 C   0  0  0  0  0  0  0  0  0  0  0  0
    5.3902    1.2990   17.8243 C   0  0  0  0  0  0  0  0  0  0  0  0
    6.5469    0.6743   17.5608 N   0  0  0  0  0  0  0  0  0  0  0  0
    7.1493    0.0434   18.5787 C   0  0  0  0  0  0  0  0  0  0  0  0
    8.1106   -0.4206   18.3456 H   0  0  0  0  0  0  0  0  0  0  0  0
    4.9191    1.8069   16.9831 H   0  0  0  0  0  0  0  0  0  0  0  0
    3.8706    1.8511   19.2399 H   0  0  0  0  0  0  0  0  0  0  0  0
    5.0231    0.6431   21.1527 H   0  0  0  0  0  0  0  0  0  0  0  0
    6.6695   -1.1620   21.7119 H   0  0  0  0  0  0  0  0  0  0  0  0
    7.9979   -1.5295   20.6151 H   0  0  0  0  0  0  0  0  0  0  0  0
    7.6660    1.3250   22.5096 N   0  0  0  0  0  0  0  0  0  0  0  0
    6.7201    1.2384   23.4787 C   0  0  0  0  0  0  0  0  0  0  0  0
    5.9795    2.2325   23.8821 N   0  0  0  0  0  0  0  0  0  0  0  0
    5.2613    1.6950   24.9535 C   0  0  0  0  0  0  0  0  0  0  0  0
    4.3255    2.2834   25.8130 C   0  0  0  0  0  0  0  0  0  0  0  0
    3.7710    1.4884   26.8229 C   0  0  0  0  0  0  0  0  0  0  0  0
    2.7721    2.0746   27.7469 N   0  0  0  0  0  4  0  0  0  0  0  0
    2.4671    3.2432   27.5929 O   0  0  0  0  0  0  0  0  0  0  0  0
    2.3050    1.3556   28.6142 O   0  0  0  0  0  1  0  0  0  0  0  0
    4.1333    0.1322   26.9944 C   0  0  0  0  0  0  0  0  0  0  0  0
    5.0629   -0.4560   26.1493 C   0  0  0  0  0  0  0  0  0  0  0  0
    5.6069    0.3339   25.1426 C   0  0  0  0  0  0  0  0  0  0  0  0
    6.5310    0.0734   24.1544 N   0  0  0  0  0  0  0  0  0  0  0  0
    7.0569   -0.7508   23.9449 H   0  0  0  0  0  0  0  0  0  0  0  0
    5.3484   -1.4934   26.2720 H   0  0  0  0  0  0  0  0  0  0  0  0
    3.6755   -0.4409   27.7924 H   0  0  0  0  0  0  0  0  0  0  0  0
    4.0457    3.3245   25.6960 H   0  0  0  0  0  0  0  0  0  0  0  0
    7.5504    2.1970   22.0174 H   0  0  0  0  0  0  0  0  0  0  0  0
    8.7682   -0.4356   22.6462 H   0  0  0  0  0  0  0  0  0  0  0  0
   10.1544    1.3553   21.5916 H   0  0  0  0  0  0  0  0  0  0  0  0
    9.0153    1.3756   20.2192 H   0  0  0  0  0  0  0  0  0  0  0  0
   10.0168   -0.0628   20.5261 H   0  0  0  0  0  0  0  0  0  0  0  0
  1  2  1  0
  2  3  1  0
  3  4  1  0
  4  5  2  0
  5  6  1  0
  6  7  2  0
  7  8  1  0
  8  9  2  0
  9 10  1  0
  7 11  1  0
  6 12  1  0
  5 13  1  0
  3 14  1  0
  3 15  1  0
  2 16  1  0
 16 17  1  0
 17 18  2  0
 18 19  1  0
 19 20  2  0
 20 21  1  0
 21 22  1  0
 22 23  2  0
 22 24  1  0
 21 25  2  0
 25 26  1  0
 26 27  2  0
 27 28  1  0
 28 29  1  0
 26 30  1  0
 25 31  1  0
 20 32  1  0
 16 33  1  0
  2 34  1  0
  1 35  1  0
  1 36  1  0
  1 37  1  0
  9  4  1  0
 28 17  1  0
 27 19  1  0
M  CHG  2  22   1  24  -1
M  END
>  <plip>  (1) 
-0.03571428571428571

>  <filename>  (1) 
[H][c]1[n][c]([H])[c]([C]([H])([H])[C]([H])([N]([H])[c]2[n][c]3[c]([H])[c]([N+](=[O])[O-])[c]([H])[c]([H])[c]3[n]2[H])[C]([H])([H])[H])[c]([H])[c]1[H]

$$$$
