
     RDKit          3D

 29 29  0  0  0  0  0  0  0  0999 V2000
    4.9539    1.7779   16.9525 H   0  0  0  0  0  0  0  0  0  0  0  0
    5.3926    1.2814   17.8130 C   0  0  0  0  0  0  0  0  0  0  0  0
    6.5654    0.6569   17.6058 N   0  0  0  0  0  0  0  0  0  0  0  0
    7.1472    0.0723   18.6626 C   0  0  0  0  0  0  0  0  0  0  0  0
    8.1018   -0.4161   18.4751 H   0  0  0  0  0  0  0  0  0  0  0  0
    6.6036    0.0647   19.9701 C   0  0  0  0  0  0  0  0  0  0  0  0
    7.2344   -0.4718   21.0834 N   0  0  0  0  0  0  0  0  0  0  0  0
    6.6381   -0.7130   21.8700 H   0  0  0  0  0  0  0  0  0  0  0  0
    8.6117   -0.6241   21.2458 N   0  0  0  0  0  0  0  0  0  0  0  0
    9.1404   -1.7987   20.5711 C   0  0  0  0  0  0  0  0  0  0  0  0
    8.4681   -2.6368   20.7836 H   0  0  0  0  0  0  0  0  0  0  0  0
   10.1287   -2.0465   20.9741 H   0  0  0  0  0  0  0  0  0  0  0  0
    9.2186   -1.6723   19.4804 H   0  0  0  0  0  0  0  0  0  0  0  0
    9.3753    0.6069   21.0535 C   0  0  0  0  0  0  0  0  0  0  0  0
    8.8311    1.4163   21.5545 H   0  0  0  0  0  0  0  0  0  0  0  0
    9.4024    0.8559   19.9669 H   0  0  0  0  0  0  0  0  0  0  0  0
   10.6830    0.5394   21.6733 N   0  0  0  0  0  0  0  0  0  0  0  0
   11.2136   -0.2257   21.2809 H   0  0  0  0  0  0  0  0  0  0  0  0
   11.4168    1.7935   21.6076 C   0  0  0  0  0  0  0  0  0  0  0  0
   10.7872    2.5834   22.0454 H   0  0  0  0  0  0  0  0  0  0  0  0
   11.6485    2.1074   20.5698 H   0  0  0  0  0  0  0  0  0  0  0  0
   12.6963    1.7044   22.4232 C   0  0  0  0  0  0  0  0  0  0  0  0
   13.3789    0.9579   21.9997 H   0  0  0  0  0  0  0  0  0  0  0  0
   13.2137    2.6720   22.4376 H   0  0  0  0  0  0  0  0  0  0  0  0
   12.4605    1.4198   23.4544 H   0  0  0  0  0  0  0  0  0  0  0  0
    5.3448    0.6628   20.1489 C   0  0  0  0  0  0  0  0  0  0  0  0
    4.8805    0.6589   21.1389 H   0  0  0  0  0  0  0  0  0  0  0  0
    4.7478    1.2988   19.0607 C   0  0  0  0  0  0  0  0  0  0  0  0
    3.8024    1.8198   19.1689 H   0  0  0  0  0  0  0  0  0  0  0  0
  1  2  1  0
  2  3  2  0
  3  4  1  0
  4  5  1  0
  4  6  2  0
  6  7  1  0
  7  8  1  0
  7  9  1  0
  9 10  1  0
 10 11  1  0
 10 12  1  0
 10 13  1  0
  9 14  1  0
 14 15  1  0
 14 16  1  0
 14 17  1  0
 17 18  1  0
 17 19  1  0
 19 20  1  0
 19 21  1  0
 19 22  1  0
 22 23  1  0
 22 24  1  0
 22 25  1  0
  6 26  1  0
 26 27  1  0
 26 28  2  0
 28 29  1  0
 28  2  1  0
M  END
>  <plip>  (1) 
-0.06896551724137931

>  <filename>  (1) 
[H][c]1[n][c]([H])[c]([N]([H])[N]([C]([H])([H])[H])[C]([H])([H])[N]([H])[C]([H])([H])[C]([H])([H])[H])[c]([H])[c]1[H]

$$$$
