
     RDKit          3D

 36 38  0  0  0  0  0  0  0  0999 V2000
    5.8150   -1.3964   21.8266 H   0  0  0  0  0  0  0  0  0  0  0  0
    6.6367   -1.8046   21.5104 O   0  0  0  0  0  0  0  0  0  0  0  0
    7.4107   -0.7273   20.9977 C   0  0  1  0  0  0  0  0  0  0  0  0
    8.2863   -1.2035   20.5437 H   0  0  0  0  0  0  0  0  0  0  0  0
    6.6486   -0.0076   19.9031 C   0  0  0  0  0  0  0  0  0  0  0  0
    7.1596    0.0500   18.5979 C   0  0  0  0  0  0  0  0  0  0  0  0
    8.1119   -0.4284   18.3609 H   0  0  0  0  0  0  0  0  0  0  0  0
    6.5617    0.6758   17.5743 N   0  0  0  0  0  0  0  0  0  0  0  0
    5.4015    1.2935   17.8352 C   0  0  0  0  0  0  0  0  0  0  0  0
    4.9192    1.7850   16.9941 H   0  0  0  0  0  0  0  0  0  0  0  0
    4.8054    1.3110   19.1012 C   0  0  0  0  0  0  0  0  0  0  0  0
    3.8746    1.8404   19.2524 H   0  0  0  0  0  0  0  0  0  0  0  0
    5.4313    0.6438   20.1526 C   0  0  0  0  0  0  0  0  0  0  0  0
    4.9883    0.6342   21.1506 H   0  0  0  0  0  0  0  0  0  0  0  0
    7.9759    0.2591   22.1018 C   0  0  0  0  0  0  0  0  0  0  0  0
    7.0016    0.9701   22.9313 N   0  0  0  0  0  0  0  0  0  0  0  0
    6.7164    1.8817   22.6154 H   0  0  0  0  0  0  0  0  0  0  0  0
    6.2138    0.4635   23.9284 C   0  0  0  0  0  0  0  0  0  0  0  0
    6.3639   -0.8311   24.4283 C   0  0  0  0  0  0  0  0  0  0  0  0
    7.0703   -1.5202   24.0048 H   0  0  0  0  0  0  0  0  0  0  0  0
    5.5444   -1.2242   25.4756 C   0  0  0  0  0  0  0  0  0  0  0  0
    5.6379   -2.2205   25.8950 H   0  0  0  0  0  0  0  0  0  0  0  0
    4.6137   -0.4579   26.0460 N   0  0  0  0  0  0  0  0  0  0  0  0
    4.4783    0.7696   25.5418 C   0  0  0  0  0  0  0  0  0  0  0  0
    3.7184    1.3804   26.0222 H   0  0  0  0  0  0  0  0  0  0  0  0
    5.2274    1.2816   24.4925 C   0  0  0  0  0  0  0  0  0  0  0  0
    5.0597    2.2915   24.1472 H   0  0  0  0  0  0  0  0  0  0  0  0
    9.0153    1.2499   21.5003 C   0  0  0  0  0  0  0  0  0  0  0  0
    8.8221    2.3080   21.7003 H   0  0  0  0  0  0  0  0  0  0  0  0
    9.1618    1.1425   20.4246 H   0  0  0  0  0  0  0  0  0  0  0  0
   10.1511    0.5991   22.3323 C   0  0  0  0  0  0  0  0  0  0  0  0
   10.6310    1.2773   23.0420 H   0  0  0  0  0  0  0  0  0  0  0  0
   10.9408    0.1101   21.7487 H   0  0  0  0  0  0  0  0  0  0  0  0
    9.1150   -0.3658   22.9583 C   0  0  0  0  0  0  0  0  0  0  0  0
    8.9582   -0.2116   24.0281 H   0  0  0  0  0  0  0  0  0  0  0  0
    9.2838   -1.4270   22.7697 H   0  0  0  0  0  0  0  0  0  0  0  0
  1  2  1  0
  2  3  1  0
  3  4  1  6
  3  5  1  0
  5  6  2  0
  6  7  1  0
  6  8  1  0
  8  9  2  0
  9 10  1  0
  9 11  1  0
 11 12  1  0
 11 13  2  0
 13 14  1  0
  3 15  1  0
 15 16  1  0
 16 17  1  0
 16 18  1  0
 18 19  2  0
 19 20  1  0
 19 21  1  0
 21 22  1  0
 21 23  2  0
 23 24  1  0
 24 25  1  0
 24 26  2  0
 26 27  1  0
 15 28  1  0
 28 29  1  0
 28 30  1  0
 28 31  1  0
 31 32  1  0
 31 33  1  0
 31 34  1  0
 34 35  1  0
 34 36  1  0
 13  5  1  0
 34 15  1  0
 26 18  1  0
M  END
>  <plip>  (1) 
-0.10714285714285714

>  <filename>  (1) 
[H][O][C@@]([H])([c]1[c]([H])[n][c]([H])[c]([H])[c]1[H])[C]1([N]([H])[c]2[c]([H])[c]([H])[n][c]([H])[c]2[H])[C]([H])([H])[C]([H])([H])[C]1([H])[H]

$$$$
