
     RDKit          3D

 49 51  0  0  0  0  0  0  0  0999 V2000
    6.0700    3.4995   22.9577 C   0  0  0  0  0  0  0  0  0  0  0  0
    7.1305    2.8114   23.8139 C   0  0  0  0  0  0  0  0  0  0  0  0
    7.4930    1.4258   23.2815 C   0  0  0  0  0  0  0  0  0  0  0  0
    8.2776    1.4652   21.9626 N   0  0  0  0  0  4  0  0  0  0  0  0
    8.6252    0.0963   21.4651 C   0  0  0  0  0  0  0  0  0  0  0  0
    7.4121   -0.7095   20.9866 C   0  0  0  0  0  0  0  0  0  0  0  0
    6.6423   -0.0101   19.8930 C   0  0  0  0  0  0  0  0  0  0  0  0
    5.4341    0.6512   20.1469 C   0  0  0  0  0  0  0  0  0  0  0  0
    4.7981    1.3199   19.0973 C   0  0  0  0  0  0  0  0  0  0  0  0
    5.3941    1.3012   17.8307 C   0  0  0  0  0  0  0  0  0  0  0  0
    6.5584    0.6923   17.5689 N   0  0  0  0  0  0  0  0  0  0  0  0
    7.1595    0.0654   18.5872 C   0  0  0  0  0  0  0  0  0  0  0  0
    8.1107   -0.4172   18.3657 H   0  0  0  0  0  0  0  0  0  0  0  0
    4.9132    1.7912   16.9863 H   0  0  0  0  0  0  0  0  0  0  0  0
    3.8666    1.8503   19.2469 H   0  0  0  0  0  0  0  0  0  0  0  0
    5.0132    0.6353   21.1576 H   0  0  0  0  0  0  0  0  0  0  0  0
    7.7891   -1.6756   20.6289 H   0  0  0  0  0  0  0  0  0  0  0  0
    6.7536   -0.9195   21.8387 H   0  0  0  0  0  0  0  0  0  0  0  0
    9.1430   -0.4509   22.2674 H   0  0  0  0  0  0  0  0  0  0  0  0
    9.3352    0.2046   20.6371 H   0  0  0  0  0  0  0  0  0  0  0  0
    9.5221    2.3042   22.1533 C   0  0  0  0  0  0  0  0  0  0  0  0
    9.2125    3.6979   22.6776 C   0  0  0  0  0  0  0  0  0  0  0  0
    8.4032    3.6643   23.9648 N   0  0  0  0  0  4  0  0  0  0  0  0
    8.1721    5.0329   24.5242 C   0  0  0  0  0  0  0  0  0  0  0  0
    7.4187    5.0169   25.8478 C   0  0  0  0  0  0  0  0  0  0  0  0
    7.7654    6.3466   26.5400 C   0  0  0  0  0  0  0  0  0  0  0  0
    9.1154    6.8113   25.9282 C   0  0  0  0  0  0  0  0  0  0  0  0
    9.4646    5.7911   24.8230 C   0  0  0  0  0  0  0  0  0  0  0  0
   10.2154    5.0682   25.1642 H   0  0  0  0  0  0  0  0  0  0  0  0
    9.8683    6.2649   23.9214 H   0  0  0  0  0  0  0  0  0  0  0  0
    9.9111    6.8599   26.6776 H   0  0  0  0  0  0  0  0  0  0  0  0
    9.0204    7.8213   25.5137 H   0  0  0  0  0  0  0  0  0  0  0  0
    7.8198    6.2261   27.6262 H   0  0  0  0  0  0  0  0  0  0  0  0
    6.9829    7.0913   26.3523 H   0  0  0  0  0  0  0  0  0  0  0  0
    6.3422    4.8781   25.7028 H   0  0  0  0  0  0  0  0  0  0  0  0
    7.7741    4.1577   26.4300 H   0  0  0  0  0  0  0  0  0  0  0  0
    7.5984    5.6080   23.7899 H   0  0  0  0  0  0  0  0  0  0  0  0
    8.9927    3.2018   24.6877 H   0  0  0  0  0  0  0  0  0  0  0  0
   10.1565    4.2307   22.8357 H   0  0  0  0  0  0  0  0  0  0  0  0
    8.6559    4.2481   21.9105 H   0  0  0  0  0  0  0  0  0  0  0  0
   10.1679    1.8006   22.8861 H   0  0  0  0  0  0  0  0  0  0  0  0
   10.0754    2.3843   21.2112 H   0  0  0  0  0  0  0  0  0  0  0  0
    7.6637    1.9118   21.2298 H   0  0  0  0  0  0  0  0  0  0  0  0
    8.1074    0.9193   24.0357 H   0  0  0  0  0  0  0  0  0  0  0  0
    6.5721    0.8541   23.1438 H   0  0  0  0  0  0  0  0  0  0  0  0
    6.7116    2.6591   24.8169 H   0  0  0  0  0  0  0  0  0  0  0  0
    6.4589    3.7989   21.9803 H   0  0  0  0  0  0  0  0  0  0  0  0
    5.6850    4.3978   23.4475 H   0  0  0  0  0  0  0  0  0  0  0  0
    5.2288    2.8215   22.7813 H   0  0  0  0  0  0  0  0  0  0  0  0
  1  2  1  0
  2  3  1  0
  3  4  1  0
  4  5  1  0
  5  6  1  0
  6  7  1  0
  7  8  2  0
  8  9  1  0
  9 10  2  0
 10 11  1  0
 11 12  2  0
 12 13  1  0
 10 14  1  0
  9 15  1  0
  8 16  1  0
  6 17  1  0
  6 18  1  0
  5 19  1  0
  5 20  1  0
  4 21  1  0
 21 22  1  0
 22 23  1  0
 23 24  1  0
 24 25  1  0
 25 26  1  0
 26 27  1  0
 27 28  1  0
 28 29  1  0
 28 30  1  0
 27 31  1  0
 27 32  1  0
 26 33  1  0
 26 34  1  0
 25 35  1  0
 25 36  1  0
 24 37  1  0
 23 38  1  0
 22 39  1  0
 22 40  1  0
 21 41  1  0
 21 42  1  0
  4 43  1  0
  3 44  1  0
  3 45  1  0
  2 46  1  0
  1 47  1  0
  1 48  1  0
  1 49  1  0
 23  2  1  0
 28 24  1  0
 12  7  1  0
M  CHG  2   4   1  23   1
M  END
>  <plip>  (1) 
-0.07142857142857142

>  <filename>  (1) 
[H][c]1[n][c]([H])[c]([C]([H])([H])[C]([H])([H])[N+]2([H])[C]([H])([H])[C]([H])([H])[N+]([H])([C]3([H])[C]([H])([H])[C]([H])([H])[C]([H])([H])[C]3([H])[H])[C]([H])([C]([H])([H])[H])[C]2([H])[H])[c]([H])[c]1[H]

$$$$
