
     RDKit          3D

 46 47  0  0  0  0  0  0  0  0999 V2000
    6.2605   -3.2712   26.7564 C   0  0  0  0  0  0  0  0  0  0  0  0
    6.2296   -1.9055   26.0996 C   0  0  0  0  0  0  0  0  0  0  0  0
    7.3843   -1.7288   25.1155 C   0  0  0  0  0  0  0  0  0  0  0  0
    7.2798   -0.5086   24.2202 N   0  0  0  0  0  4  0  0  0  0  0  0
    8.4415   -0.4527   23.2772 C   0  0  0  0  0  0  0  0  0  0  0  0
    8.0887    0.2711   21.9711 C   0  0  0  0  0  0  0  0  0  0  0  0
    9.3201    0.9072   21.3122 C   0  0  0  0  0  0  0  0  0  0  0  0
    9.7245    2.1968   21.9997 N   0  0  0  0  0  4  0  0  0  0  0  0
   10.5445    2.6498   21.5615 H   0  0  0  0  0  0  0  0  0  0  0  0
    8.9383    2.8748   21.9659 H   0  0  0  0  0  0  0  0  0  0  0  0
    9.9429    2.0207   22.9961 H   0  0  0  0  0  0  0  0  0  0  0  0
   10.1421    0.1857   21.3373 H   0  0  0  0  0  0  0  0  0  0  0  0
    9.1172    1.1084   20.2596 H   0  0  0  0  0  0  0  0  0  0  0  0
    7.3820   -0.7125   21.0039 C   0  0  0  0  0  0  0  0  0  0  0  0
    6.6487   -0.0086   19.8908 C   0  0  0  0  0  0  0  0  0  0  0  0
    5.4372    0.6506   20.1434 C   0  0  0  0  0  0  0  0  0  0  0  0
    4.8017    1.3150   19.0947 C   0  0  0  0  0  0  0  0  0  0  0  0
    5.3953    1.3011   17.8268 C   0  0  0  0  0  0  0  0  0  0  0  0
    6.5571    0.6888   17.5621 N   0  0  0  0  0  0  0  0  0  0  0  0
    7.1602    0.0607   18.5805 C   0  0  0  0  0  0  0  0  0  0  0  0
    8.1119   -0.4191   18.3482 H   0  0  0  0  0  0  0  0  0  0  0  0
    4.9147    1.7955   16.9846 H   0  0  0  0  0  0  0  0  0  0  0  0
    3.8734    1.8467   19.2475 H   0  0  0  0  0  0  0  0  0  0  0  0
    5.0070    0.6365   21.1506 H   0  0  0  0  0  0  0  0  0  0  0  0
    6.6704   -1.3330   21.5764 H   0  0  0  0  0  0  0  0  0  0  0  0
    8.1289   -1.4095   20.5956 H   0  0  0  0  0  0  0  0  0  0  0  0
    7.3711    1.0642   22.2182 H   0  0  0  0  0  0  0  0  0  0  0  0
    9.2911    0.0102   23.8010 H   0  0  0  0  0  0  0  0  0  0  0  0
    8.7656   -1.4740   23.0353 H   0  0  0  0  0  0  0  0  0  0  0  0
    7.1795    0.7869   25.0323 C   0  0  0  0  0  0  0  0  0  0  0  0
    5.7864    0.9980   25.6205 C   0  0  0  0  0  0  0  0  0  0  0  0
    5.4801    0.2162   26.9264 C   0  0  0  0  0  0  0  0  0  0  0  0
    6.2800   -0.9328   27.1395 O   0  0  0  0  0  0  0  0  0  0  0  0
    5.6574    0.8369   27.8094 H   0  0  0  0  0  0  0  0  0  0  0  0
    4.4121   -0.0760   26.9449 H   0  0  0  0  0  0  0  0  0  0  0  0
    5.6478    2.0660   25.8230 H   0  0  0  0  0  0  0  0  0  0  0  0
    5.0572    0.7348   24.8446 H   0  0  0  0  0  0  0  0  0  0  0  0
    7.9174    0.7463   25.8373 H   0  0  0  0  0  0  0  0  0  0  0  0
    7.4559    1.6185   24.3735 H   0  0  0  0  0  0  0  0  0  0  0  0
    6.3915   -0.5833   23.6714 H   0  0  0  0  0  0  0  0  0  0  0  0
    8.3081   -1.6799   25.7030 H   0  0  0  0  0  0  0  0  0  0  0  0
    7.4497   -2.6284   24.4873 H   0  0  0  0  0  0  0  0  0  0  0  0
    5.3009   -1.7861   25.5198 H   0  0  0  0  0  0  0  0  0  0  0  0
    7.2043   -3.4195   27.2947 H   0  0  0  0  0  0  0  0  0  0  0  0
    5.4409   -3.3570   27.4767 H   0  0  0  0  0  0  0  0  0  0  0  0
    6.1492   -4.0637   26.0073 H   0  0  0  0  0  0  0  0  0  0  0  0
  1  2  1  0
  2  3  1  0
  3  4  1  0
  4  5  1  0
  5  6  1  0
  6  7  1  0
  7  8  1  0
  8  9  1  0
  8 10  1  0
  8 11  1  0
  7 12  1  0
  7 13  1  0
  6 14  1  0
 14 15  1  0
 15 16  2  0
 16 17  1  0
 17 18  2  0
 18 19  1  0
 19 20  2  0
 20 21  1  0
 18 22  1  0
 17 23  1  0
 16 24  1  0
 14 25  1  0
 14 26  1  0
  6 27  1  0
  5 28  1  0
  5 29  1  0
  4 30  1  0
 30 31  1  0
 31 32  1  0
 32 33  1  0
 32 34  1  0
 32 35  1  0
 31 36  1  0
 31 37  1  0
 30 38  1  0
 30 39  1  0
  4 40  1  0
  3 41  1  0
  3 42  1  0
  2 43  1  0
  1 44  1  0
  1 45  1  0
  1 46  1  0
 33  2  1  0
 20 15  1  0
M  CHG  2   4   1   8   1
M  END
>  <plip>  (1) 
-0.14285714285714285

>  <filename>  (1) 
[H][c]1[n][c]([H])[c]([C]([H])([H])[C]([H])([C]([H])([H])[N+]([H])([H])[H])[C]([H])([H])[N+]2([H])[C]([H])([H])[C]([H])([H])[C]([H])([H])[O][C]([H])([C]([H])([H])[H])[C]2([H])[H])[c]([H])[c]1[H]

$$$$
