
     RDKit          3D

 23 25  0  0  0  0  0  0  0  0999 V2000
    4.9205    1.7832   16.9973 H   0  0  0  0  0  0  0  0  0  0  0  0
    5.4044    1.2946   17.8409 C   0  0  0  0  0  0  0  0  0  0  0  0
    6.5729    0.6790   17.5865 N   0  0  0  0  0  0  0  0  0  0  0  0
    7.1781    0.0462   18.5940 C   0  0  0  0  0  0  0  0  0  0  0  0
    8.1266   -0.4409   18.3758 H   0  0  0  0  0  0  0  0  0  0  0  0
    6.6466    0.0029   19.8961 C   0  0  0  0  0  0  0  0  0  0  0  0
    7.3400   -0.6726   20.9494 N   0  0  0  0  0  0  0  0  0  0  0  0
    7.8269   -1.9214   20.7719 N   0  0  0  0  0  0  0  0  0  0  0  0
    8.2701   -2.3141   21.9014 N   0  0  0  0  0  0  0  0  0  0  0  0
    8.1034   -1.3775   22.8613 N   0  0  0  0  0  0  0  0  0  0  0  0
    7.5462   -0.3580   22.2566 C   0  0  0  0  0  0  0  0  0  0  0  0
    7.2795    0.8840   22.8061 N   0  0  0  0  0  0  0  0  0  0  0  0
    7.0119    1.1034   24.1388 C   0  0  0  0  0  0  0  0  0  0  0  0
    6.9385    0.2950   24.8615 H   0  0  0  0  0  0  0  0  0  0  0  0
    6.8745    2.3729   24.3932 N   0  0  0  0  0  0  0  0  0  0  0  0
    7.0727    3.0302   23.1987 C   0  0  0  0  0  0  0  0  0  0  0  0
    7.0349    4.1102   23.1278 H   0  0  0  0  0  0  0  0  0  0  0  0
    7.3305    2.1417   22.2024 C   0  0  0  0  0  0  0  0  0  0  0  0
    7.5512    2.2879   21.1520 H   0  0  0  0  0  0  0  0  0  0  0  0
    5.4315    0.6388   20.1616 C   0  0  0  0  0  0  0  0  0  0  0  0
    5.0084    0.6360   21.1691 H   0  0  0  0  0  0  0  0  0  0  0  0
    4.8054    1.3042   19.1048 C   0  0  0  0  0  0  0  0  0  0  0  0
    3.8765    1.8399   19.2593 H   0  0  0  0  0  0  0  0  0  0  0  0
  1  2  1  0
  2  3  2  0
  3  4  1  0
  4  5  1  0
  4  6  2  0
  6  7  1  0
  7  8  1  0
  8  9  2  0
  9 10  1  0
 10 11  2  0
 11 12  1  0
 12 13  1  0
 13 14  1  0
 13 15  2  0
 15 16  1  0
 16 17  1  0
 16 18  2  0
 18 19  1  0
  6 20  1  0
 20 21  1  0
 20 22  2  0
 22 23  1  0
 22  2  1  0
 11  7  1  0
 18 12  1  0
M  END
>  <plip>  (1) 
-0.0

>  <filename>  (1) 
[H][c]1[n][c]([H])[c](-[n]2[n][n][n][c]2-[n]2[c]([H])[n][c]([H])[c]2[H])[c]([H])[c]1[H]

$$$$
