
     RDKit          3D

 26 27  0  0  0  0  0  0  0  0999 V2000
    4.9449    1.7569   16.9754 H   0  0  0  0  0  0  0  0  0  0  0  0
    5.4006    1.2929   17.8499 C   0  0  0  0  0  0  0  0  0  0  0  0
    6.5768    0.6800   17.6542 N   0  0  0  0  0  0  0  0  0  0  0  0
    7.1582    0.1172   18.7154 C   0  0  0  0  0  0  0  0  0  0  0  0
    8.1132   -0.3628   18.5097 H   0  0  0  0  0  0  0  0  0  0  0  0
    6.6298    0.1414   20.0139 C   0  0  0  0  0  0  0  0  0  0  0  0
    7.4162   -0.4646   21.1084 C   0  0  0  0  0  0  0  0  0  0  0  0
    7.3578    0.1208   22.3181 N   0  0  0  0  0  0  0  0  0  0  0  0
    7.8860   -0.5522   23.3303 C   0  0  0  0  0  0  0  0  0  0  0  0
    7.8385   -0.0843   24.6194 O   0  0  0  0  0  0  0  0  0  0  0  0
    6.7689    1.1061   24.8853 S   0  0  0  0  0  0  0  0  0  0  0  0
    5.5094    0.8080   24.2794 O   0  0  0  0  0  0  0  0  0  0  0  0
    6.9827    1.3536   26.2723 O   0  0  0  0  0  0  0  0  0  0  0  0
    7.4898    2.2714   24.0280 N   0  0  0  0  0  0  0  0  0  0  0  0
    7.3365    1.9396   23.0782 H   0  0  0  0  0  0  0  0  0  0  0  0
    8.4501    2.1304   24.3231 H   0  0  0  0  0  0  0  0  0  0  0  0
    8.5691   -1.7622   23.2193 C   0  0  0  0  0  0  0  0  0  0  0  0
    8.9425   -2.1804   24.1384 H   0  0  0  0  0  0  0  0  0  0  0  0
    8.7432   -2.3089   21.9554 C   0  0  0  0  0  0  0  0  0  0  0  0
    9.2992   -3.2340   21.8047 H   0  0  0  0  0  0  0  0  0  0  0  0
    8.1718   -1.6137   20.8853 C   0  0  0  0  0  0  0  0  0  0  0  0
    8.2984   -1.9277   19.8756 H   0  0  0  0  0  0  0  0  0  0  0  0
    5.3841    0.7592   20.2005 C   0  0  0  0  0  0  0  0  0  0  0  0
    4.9307    0.7860   21.1941 H   0  0  0  0  0  0  0  0  0  0  0  0
    4.7649    1.3406   19.0951 C   0  0  0  0  0  0  0  0  0  0  0  0
    3.8127    1.8484   19.1860 H   0  0  0  0  0  0  0  0  0  0  0  0
  1  2  1  0
  2  3  2  0
  3  4  1  0
  4  5  1  0
  4  6  2  0
  6  7  1  0
  7  8  2  0
  8  9  1  0
  9 10  1  0
 10 11  1  0
 11 12  2  0
 11 13  2  0
 11 14  1  0
 14 15  1  0
 14 16  1  0
  9 17  2  0
 17 18  1  0
 17 19  1  0
 19 20  1  0
 19 21  2  0
 21 22  1  0
  6 23  1  0
 23 24  1  0
 23 25  2  0
 25 26  1  0
 25  2  1  0
 21  7  1  0
M  END
>  <plip>  (1) 
-0.03571428571428571

>  <filename>  (1) 
[H][c]1[n][c]([H])[c](-[c]2[n][c]([O][S](=[O])(=[O])[N]([H])[H])[c]([H])[c]([H])[c]2[H])[c]([H])[c]1[H]

$$$$
