
     RDKit          3D

 31 31  0  0  0  0  0  0  0  0999 V2000
    9.5881    0.6295   24.9835 C   0  0  0  0  0  0  0  0  0  0  0  0
    8.9200    0.8152   23.6301 C   0  0  1  0  0  0  0  0  0  0  0  0
    9.3422    2.0445   23.0446 O   0  0  0  0  0  0  0  0  0  0  0  0
    9.3470    2.7083   23.7478 H   0  0  0  0  0  0  0  0  0  0  0  0
    9.2309   -0.2806   22.5885 C   0  0  0  0  0  0  0  0  0  0  0  0
    8.4966   -0.0415   21.3094 N   0  0  0  0  0  4  0  0  0  0  0  0
    7.0379   -0.5099   21.2310 C   0  0  0  0  0  0  0  0  0  0  0  0
    6.8647   -2.0599   21.2454 C   0  0  0  0  0  0  0  0  0  0  0  0
    5.5190   -2.4949   21.3974 O   0  0  0  0  0  0  0  0  0  0  0  0
    5.2362   -2.4363   22.3211 H   0  0  0  0  0  0  0  0  0  0  0  0
    7.5292   -2.4774   22.0193 H   0  0  0  0  0  0  0  0  0  0  0  0
    7.1983   -2.4591   20.2811 H   0  0  0  0  0  0  0  0  0  0  0  0
    6.5036    0.2046   20.0126 C   0  0  0  0  0  0  0  0  0  0  0  0
    5.2661    0.8652   20.0618 C   0  0  0  0  0  0  0  0  0  0  0  0
    4.7942    1.5064   18.9171 C   0  0  0  0  0  0  0  0  0  0  0  0
    5.5599    1.4414   17.7511 C   0  0  0  0  0  0  0  0  0  0  0  0
    6.7388    0.8050   17.6733 N   0  0  0  0  0  0  0  0  0  0  0  0
    7.2011    0.2370   18.7939 C   0  0  0  0  0  0  0  0  0  0  0  0
    8.1879   -0.2164   18.6987 H   0  0  0  0  0  0  0  0  0  0  0  0
    5.1989    1.8974   16.8320 H   0  0  0  0  0  0  0  0  0  0  0  0
    3.8665    2.0681   18.9228 H   0  0  0  0  0  0  0  0  0  0  0  0
    4.6951    0.8873   20.9899 H   0  0  0  0  0  0  0  0  0  0  0  0
    6.5186   -0.1461   22.1320 H   0  0  0  0  0  0  0  0  0  0  0  0
    8.4905    1.0139   21.2062 H   0  0  0  0  0  0  0  0  0  0  0  0
    9.0129   -0.4058   20.4786 H   0  0  0  0  0  0  0  0  0  0  0  0
   10.3098   -0.2918   22.3970 H   0  0  0  0  0  0  0  0  0  0  0  0
    8.9584   -1.2505   23.0129 H   0  0  0  0  0  0  0  0  0  0  0  0
    7.8216    0.8373   23.7713 H   0  0  0  0  0  0  0  0  0  0  0  0
   10.6804    0.6441   24.8861 H   0  0  0  0  0  0  0  0  0  0  0  0
    9.2983    1.4534   25.6523 H   0  0  0  0  0  0  0  0  0  0  0  0
    9.2871   -0.3055   25.4689 H   0  0  0  0  0  0  0  0  0  0  0  0
  1  2  1  0
  2  3  1  0
  3  4  1  0
  2  5  1  0
  5  6  1  0
  6  7  1  0
  7  8  1  0
  8  9  1  0
  9 10  1  0
  8 11  1  0
  8 12  1  0
  7 13  1  0
 13 14  2  0
 14 15  1  0
 15 16  2  0
 16 17  1  0
 17 18  2  0
 18 19  1  0
 16 20  1  0
 15 21  1  0
 14 22  1  0
  7 23  1  0
  6 24  1  0
  6 25  1  0
  5 26  1  0
  5 27  1  0
  2 28  1  1
  1 29  1  0
  1 30  1  0
  1 31  1  0
 18 13  1  0
M  CHG  1   6   1
M  END
>  <plip>  (1) 
-0.13793103448275862

>  <filename>  (1) 
[H][O][C]([H])([H])[C]([H])([c]1[c]([H])[n][c]([H])[c]([H])[c]1[H])[N+]([H])([H])[C]([H])([H])[C@]([H])([O][H])[C]([H])([H])[H]

$$$$
