
     RDKit          3D

 34 36  0  0  0  0  0  0  0  0999 V2000
    8.4188   -0.8760   21.0561 O   0  0  0  0  0  0  0  0  0  0  0  0
    6.9980   -0.9199   20.9918 C   0  0  0  0  0  0  0  0  0  0  0  0
    6.4880   -0.0141   19.8953 C   0  0  0  0  0  0  0  0  0  0  0  0
    5.2860    0.6874   20.0540 C   0  0  0  0  0  0  0  0  0  0  0  0
    4.7700    1.4019   18.9709 C   0  0  0  0  0  0  0  0  0  0  0  0
    5.4833    1.4010   17.7669 C   0  0  0  0  0  0  0  0  0  0  0  0
    6.6623    0.7821   17.6130 N   0  0  0  0  0  0  0  0  0  0  0  0
    7.1542    0.1214   18.6688 C   0  0  0  0  0  0  0  0  0  0  0  0
    8.1442   -0.3095   18.5161 H   0  0  0  0  0  0  0  0  0  0  0  0
    5.0952    1.9069   16.8834 H   0  0  0  0  0  0  0  0  0  0  0  0
    3.8419    1.9557   19.0405 H   0  0  0  0  0  0  0  0  0  0  0  0
    4.7799    0.6948   21.0219 H   0  0  0  0  0  0  0  0  0  0  0  0
    6.4468   -2.3584   20.8984 C   0  0  0  0  0  0  0  0  0  0  0  0
    6.0795   -2.9966   19.8008 N   0  0  0  0  0  0  0  0  0  0  0  0
    5.9291   -4.3048   20.1623 C   0  0  0  0  0  0  0  0  0  0  0  0
    6.1339   -4.4546   21.5040 C   0  0  0  0  0  0  0  0  0  0  0  0
    6.4515   -3.2045   21.9827 N   0  0  0  0  0  0  0  0  0  0  0  0
    6.5420   -2.8154   23.3921 C   0  0  0  0  0  0  0  0  0  0  0  0
    7.9112   -2.3139   23.8069 C   0  0  0  0  0  0  0  0  0  0  0  0
    9.0071   -3.1776   23.7278 C   0  0  0  0  0  0  0  0  0  0  0  0
   10.2824   -2.6754   23.9572 C   0  0  0  0  0  0  0  0  0  0  0  0
   10.5256   -1.3989   24.2882 N   0  0  0  0  0  0  0  0  0  0  0  0
    9.4810   -0.6095   24.4453 C   0  0  0  0  0  0  0  0  0  0  0  0
    9.8168    1.0475   24.8760 Cl  0  0  0  0  0  0  0  0  0  0  0  0
    8.1505   -1.0114   24.2578 C   0  0  0  0  0  0  0  0  0  0  0  0
    7.3547   -0.3094   24.4620 H   0  0  0  0  0  0  0  0  0  0  0  0
   11.1587   -3.3103   23.8527 H   0  0  0  0  0  0  0  0  0  0  0  0
    8.8623   -4.2219   23.4856 H   0  0  0  0  0  0  0  0  0  0  0  0
    6.2782   -3.6901   23.9927 H   0  0  0  0  0  0  0  0  0  0  0  0
    5.7928   -2.0561   23.6134 H   0  0  0  0  0  0  0  0  0  0  0  0
    6.1102   -5.3193   22.1536 H   0  0  0  0  0  0  0  0  0  0  0  0
    5.6966   -5.0597   19.4256 H   0  0  0  0  0  0  0  0  0  0  0  0
    6.6521   -0.4943   21.9452 H   0  0  0  0  0  0  0  0  0  0  0  0
    8.7618   -1.2881   20.2485 H   0  0  0  0  0  0  0  0  0  0  0  0
  1  2  1  0
  2  3  1  0
  3  4  2  0
  4  5  1  0
  5  6  2  0
  6  7  1  0
  7  8  2  0
  8  9  1  0
  6 10  1  0
  5 11  1  0
  4 12  1  0
  2 13  1  0
 13 14  2  0
 14 15  1  0
 15 16  2  0
 16 17  1  0
 17 18  1  0
 18 19  1  0
 19 20  2  0
 20 21  1  0
 21 22  2  0
 22 23  1  0
 23 24  1  0
 23 25  2  0
 25 26  1  0
 21 27  1  0
 20 28  1  0
 18 29  1  0
 18 30  1  0
 16 31  1  0
 15 32  1  0
  2 33  1  0
  1 34  1  0
  8  3  1  0
 17 13  1  0
 25 19  1  0
M  END
>  <plip>  (1) 
-0.13793103448275862

>  <filename>  (1) 
[H][O][C]([H])([c]1[c]([H])[n][c]([H])[c]([H])[c]1[H])[c]1[n][c]([H])[c]([H])[n]1[C]([H])([H])[c]1[c]([H])[c]([H])[n][c]([Cl])[c]1[H]

$$$$
