
     RDKit          3D

 47 49  0  0  0  0  0  0  0  0999 V2000
    7.9358    1.2353   24.7866 O   0  0  0  0  0  0  0  0  0  0  0  0
    7.6641    0.0486   24.7549 C   0  0  0  0  0  0  0  0  0  0  0  0
    6.6557   -0.5339   25.7186 C   0  0  0  0  0  0  0  0  0  0  0  0
    7.2442   -0.8238   27.1043 C   0  0  0  0  0  0  0  0  0  0  0  0
    6.1747   -1.4732   27.9328 C   0  0  0  0  0  0  0  0  0  0  0  0
    5.8793   -2.8364   27.7751 C   0  0  0  0  0  0  0  0  0  0  0  0
    5.0173   -3.4719   28.6737 C   0  0  0  0  0  0  0  0  0  0  0  0
    4.3908   -2.7292   29.6862 C   0  0  0  0  0  0  0  0  0  0  0  0
    3.2716   -3.5878   30.9785 Br  0  0  0  0  0  0  0  0  0  0  0  0
    4.5718   -1.3423   29.7418 C   0  0  0  0  0  0  0  0  0  0  0  0
    5.4837   -0.7195   28.8912 C   0  0  0  0  0  0  0  0  0  0  0  0
    5.6504    0.3527   28.9628 H   0  0  0  0  0  0  0  0  0  0  0  0
    3.9998   -0.7489   30.4503 H   0  0  0  0  0  0  0  0  0  0  0  0
    4.8428   -4.5410   28.5974 H   0  0  0  0  0  0  0  0  0  0  0  0
    6.3642   -3.4118   26.9902 H   0  0  0  0  0  0  0  0  0  0  0  0
    7.9659    0.3438   27.8010 C   0  0  0  0  0  0  0  0  0  0  0  0
    9.2586   -0.3597   27.7226 N   0  0  0  0  0  4  0  0  0  0  0  0
    8.6067   -1.5424   27.1308 C   0  0  0  0  0  0  0  0  0  0  0  0
    8.9682   -1.8233   26.1350 H   0  0  0  0  0  0  0  0  0  0  0  0
    8.6064   -2.4334   27.7687 H   0  0  0  0  0  0  0  0  0  0  0  0
    9.6788   -0.5306   28.6419 H   0  0  0  0  0  0  0  0  0  0  0  0
    9.9114    0.1050   27.0809 H   0  0  0  0  0  0  0  0  0  0  0  0
    7.9049    1.2852   27.2405 H   0  0  0  0  0  0  0  0  0  0  0  0
    7.6065    0.5148   28.8253 H   0  0  0  0  0  0  0  0  0  0  0  0
    6.2833   -1.4659   25.2885 H   0  0  0  0  0  0  0  0  0  0  0  0
    5.8110    0.1546   25.8132 H   0  0  0  0  0  0  0  0  0  0  0  0
    8.3197   -0.8153   23.9058 N   0  0  0  0  0  0  0  0  0  0  0  0
    9.1773   -0.3762   22.8184 C   0  0  0  0  0  0  0  0  0  0  0  0
    8.3414    0.2909   21.7219 C   0  0  0  0  0  0  0  0  0  0  0  0
    7.4027   -0.6958   21.0111 C   0  0  0  0  0  0  0  0  0  0  0  0
    6.6637    0.0059   19.8900 C   0  0  0  0  0  0  0  0  0  0  0  0
    5.4472    0.6507   20.1388 C   0  0  0  0  0  0  0  0  0  0  0  0
    4.8247    1.2998   19.0716 C   0  0  0  0  0  0  0  0  0  0  0  0
    5.4246    1.2980   17.8061 C   0  0  0  0  0  0  0  0  0  0  0  0
    6.5892    0.6713   17.5574 N   0  0  0  0  0  0  0  0  0  0  0  0
    7.1943    0.0443   18.5839 C   0  0  0  0  0  0  0  0  0  0  0  0
    8.1405   -0.4525   18.3875 H   0  0  0  0  0  0  0  0  0  0  0  0
    4.9306    1.8270   16.9970 H   0  0  0  0  0  0  0  0  0  0  0  0
    3.8875    1.8265   19.2113 H   0  0  0  0  0  0  0  0  0  0  0  0
    5.0107    0.6612   21.1389 H   0  0  0  0  0  0  0  0  0  0  0  0
    7.9870   -1.5343   20.6150 H   0  0  0  0  0  0  0  0  0  0  0  0
    6.6829   -1.1044   21.7306 H   0  0  0  0  0  0  0  0  0  0  0  0
    9.0202    0.7356   20.9899 H   0  0  0  0  0  0  0  0  0  0  0  0
    7.7529    1.0997   22.1649 H   0  0  0  0  0  0  0  0  0  0  0  0
    9.9206    0.3325   23.2033 H   0  0  0  0  0  0  0  0  0  0  0  0
    9.7264   -1.2306   22.4063 H   0  0  0  0  0  0  0  0  0  0  0  0
    7.9675   -1.7649   23.8932 H   0  0  0  0  0  0  0  0  0  0  0  0
  1  2  2  0
  2  3  1  0
  3  4  1  0
  4  5  1  0
  5  6  2  0
  6  7  1  0
  7  8  2  0
  8  9  1  0
  8 10  1  0
 10 11  2  0
 11 12  1  0
 10 13  1  0
  7 14  1  0
  6 15  1  0
  4 16  1  0
 16 17  1  0
 17 18  1  0
 18 19  1  0
 18 20  1  0
 17 21  1  0
 17 22  1  0
 16 23  1  0
 16 24  1  0
  3 25  1  0
  3 26  1  0
  2 27  1  0
 27 28  1  0
 28 29  1  0
 29 30  1  0
 30 31  1  0
 31 32  2  0
 32 33  1  0
 33 34  2  0
 34 35  1  0
 35 36  2  0
 36 37  1  0
 34 38  1  0
 33 39  1  0
 32 40  1  0
 30 41  1  0
 30 42  1  0
 29 43  1  0
 29 44  1  0
 28 45  1  0
 28 46  1  0
 27 47  1  0
 18  4  1  0
 36 31  1  0
 11  5  1  0
M  CHG  1  17   1
M  END
>  <plip>  (1) 
-0.034482758620689655

>  <filename>  (1) 
[H][c]1[n][c]([H])[c]([C]([H])([H])[C]([H])([H])[C]([H])([H])[N]([H])[C](=[O])[C]([H])([H])[C]2([c]3[c]([H])[c]([H])[c]([Br])[c]([H])[c]3[H])[C]([H])([H])[N+]([H])([H])[C]2([H])[H])[c]([H])[c]1[H]

$$$$
