
     RDKit          3D

 26 26  0  0  0  0  0  0  0  0999 V2000
   13.6104   -0.4011   24.4427 H   0  0  0  0  0  0  0  0  0  0  0  0
   13.8303    0.3074   23.8203 O   0  0  0  0  0  0  0  0  0  0  0  0
   12.7373    0.4147   22.9168 C   0  0  0  0  0  0  0  0  0  0  0  0
   13.0897    0.9881   22.0485 H   0  0  0  0  0  0  0  0  0  0  0  0
   12.4536   -0.5843   22.5498 H   0  0  0  0  0  0  0  0  0  0  0  0
   11.5237    1.1152   23.5773 C   0  0  0  0  0  0  0  0  0  0  0  0
   11.8250    2.1421   23.8383 H   0  0  0  0  0  0  0  0  0  0  0  0
   11.3420    0.5981   24.5370 H   0  0  0  0  0  0  0  0  0  0  0  0
   10.2768    1.1555   22.8172 N   0  0  0  0  0  0  0  0  0  0  0  0
   10.2758    1.7854   22.0237 H   0  0  0  0  0  0  0  0  0  0  0  0
    9.7303   -0.0853   22.3366 C   0  0  0  0  0  0  0  0  0  0  0  0
    9.4065   -0.7198   23.1846 H   0  0  0  0  0  0  0  0  0  0  0  0
   10.4158   -0.6983   21.7242 H   0  0  0  0  0  0  0  0  0  0  0  0
    8.6470    0.4286   21.5332 N   0  0  0  0  0  0  0  0  0  0  0  0
    8.3620    1.2198   22.0988 H   0  0  0  0  0  0  0  0  0  0  0  0
    7.3485   -0.6828   21.3175 S   0  0  0  0  0  0  0  0  0  0  0  0
    6.5729    0.0995   19.9386 C   0  0  0  0  0  0  0  0  0  0  0  0
    7.1751    0.1079   18.6749 C   0  0  0  0  0  0  0  0  0  0  0  0
    8.1199   -0.4060   18.5097 H   0  0  0  0  0  0  0  0  0  0  0  0
    6.6186    0.6957   17.6034 N   0  0  0  0  0  0  0  0  0  0  0  0
    5.4374    1.3155   17.7764 C   0  0  0  0  0  0  0  0  0  0  0  0
    5.0073    1.7970   16.9004 H   0  0  0  0  0  0  0  0  0  0  0  0
    4.7567    1.3448   18.9999 C   0  0  0  0  0  0  0  0  0  0  0  0
    3.8032    1.8531   19.0816 H   0  0  0  0  0  0  0  0  0  0  0  0
    5.3273    0.7171   20.1052 C   0  0  0  0  0  0  0  0  0  0  0  0
    4.8424    0.6901   21.0800 H   0  0  0  0  0  0  0  0  0  0  0  0
  1  2  1  0
  2  3  1  0
  3  4  1  0
  3  5  1  0
  3  6  1  0
  6  7  1  0
  6  8  1  0
  6  9  1  0
  9 10  1  0
  9 11  1  0
 11 12  1  0
 11 13  1  0
 11 14  1  0
 14 15  1  0
 14 16  1  0
 16 17  1  0
 17 18  2  0
 18 19  1  0
 18 20  1  0
 20 21  2  0
 21 22  1  0
 21 23  1  0
 23 24  1  0
 23 25  2  0
 25 26  1  0
 25 17  1  0
M  END
>  <plip>  (1) 
-0.03571428571428571

>  <filename>  (1) 
[H][O][C]([H])([H])[C]([H])([H])[N]([H])[C]([H])([H])[N]([H])[S][c]1[c]([H])[n][c]([H])[c]([H])[c]1[H]

$$$$
