
     RDKit          3D

 32 35  0  0  0  0  0  0  0  0999 V2000
    8.9281   -3.1114   22.1929 H   0  0  0  0  0  0  0  0  0  0  0  0
    8.4073   -2.1924   21.9760 C   0  0  0  0  0  0  0  0  0  0  0  0
    7.9522   -1.8909   20.7285 N   0  0  0  0  0  0  0  0  0  0  0  0
    7.3837   -0.7254   20.9138 C   0  0  0  0  0  0  0  0  0  0  0  0
    6.6488    0.0169   19.8958 C   0  0  0  0  0  0  0  0  0  0  0  0
    7.1710    0.0509   18.5969 C   0  0  0  0  0  0  0  0  0  0  0  0
    8.1206   -0.4384   18.3808 H   0  0  0  0  0  0  0  0  0  0  0  0
    6.5720    0.6774   17.5828 N   0  0  0  0  0  0  0  0  0  0  0  0
    5.4055    1.2918   17.8427 C   0  0  0  0  0  0  0  0  0  0  0  0
    4.9168    1.7758   17.0018 H   0  0  0  0  0  0  0  0  0  0  0  0
    4.8001    1.3109   19.1061 C   0  0  0  0  0  0  0  0  0  0  0  0
    3.8695    1.8457   19.2602 H   0  0  0  0  0  0  0  0  0  0  0  0
    5.4273    0.6531   20.1557 C   0  0  0  0  0  0  0  0  0  0  0  0
    5.0027    0.6368   21.1647 H   0  0  0  0  0  0  0  0  0  0  0  0
    7.5149   -0.3290   22.2222 N   0  0  0  0  0  0  0  0  0  0  0  0
    7.1659    0.9256   22.8254 C   0  0  0  0  0  0  0  0  0  0  0  0
    7.4830    2.1210   22.1874 C   0  0  0  0  0  0  0  0  0  0  0  0
    7.9910    2.1184   21.2235 H   0  0  0  0  0  0  0  0  0  0  0  0
    7.1400    3.3695   22.7659 C   0  0  0  0  0  0  0  0  0  0  0  0
    7.3993    4.2924   22.2460 H   0  0  0  0  0  0  0  0  0  0  0  0
    6.4864    3.4317   23.9769 C   0  0  0  0  0  0  0  0  0  0  0  0
    6.2249    4.3892   24.4327 H   0  0  0  0  0  0  0  0  0  0  0  0
    6.1450    2.2290   24.6627 C   0  0  0  0  0  0  0  0  0  0  0  0
    5.4733    2.2462   25.9178 C   0  0  0  0  0  0  0  0  0  0  0  0
    5.2167    3.2047   26.3722 H   0  0  0  0  0  0  0  0  0  0  0  0
    5.1618    1.0583   26.5311 C   0  0  0  0  0  0  0  0  0  0  0  0
    4.6527    1.0290   27.4866 H   0  0  0  0  0  0  0  0  0  0  0  0
    5.5177   -0.1571   25.8849 C   0  0  0  0  0  0  0  0  0  0  0  0
    5.2779   -1.1060   26.3614 H   0  0  0  0  0  0  0  0  0  0  0  0
    6.1336   -0.2242   24.7306 N   0  0  0  0  0  0  0  0  0  0  0  0
    6.4834    0.9422   24.0978 C   0  0  0  0  0  0  0  0  0  0  0  0
    8.1870   -1.2901   22.9027 N   0  0  0  0  0  0  0  0  0  0  0  0
  1  2  1  0
  2  3  1  0
  3  4  2  0
  4  5  1  0
  5  6  2  0
  6  7  1  0
  6  8  1  0
  8  9  2  0
  9 10  1  0
  9 11  1  0
 11 12  1  0
 11 13  2  0
 13 14  1  0
  4 15  1  0
 15 16  1  0
 16 17  2  0
 17 18  1  0
 17 19  1  0
 19 20  1  0
 19 21  2  0
 21 22  1  0
 21 23  1  0
 23 24  2  0
 24 25  1  0
 24 26  1  0
 26 27  1  0
 26 28  2  0
 28 29  1  0
 28 30  1  0
 30 31  2  0
 15 32  1  0
 32  2  2  0
 13  5  1  0
 31 16  1  0
 31 23  1  0
M  END
>  <plip>  (1) 
-0.034482758620689655

>  <filename>  (1) 
[H][c]1[n][c](-[c]2[c]([H])[n][c]([H])[c]([H])[c]2[H])[n](-[c]2[c]([H])[c]([H])[c]([H])[c]3[c]([H])[c]([H])[c]([H])[n][c]23)[n]1

$$$$
