
     RDKit          3D

 44 46  0  0  0  0  0  0  0  0999 V2000
    6.8760    4.2055   27.7339 O   0  0  0  0  0  0  0  0  0  0  0  0
    7.0500    4.5139   26.2735 S   0  0  0  0  0  0  0  0  0  0  0  0
    8.4983    3.5216   25.7598 C   0  0  0  0  0  0  0  0  0  0  0  0
    8.2161    2.0109   25.7950 C   0  0  0  0  0  0  0  0  0  0  0  0
    7.1472    1.5041   24.7798 C   0  0  0  0  0  0  0  0  0  0  0  0
    7.7367    0.8700   23.5876 N   0  0  0  0  0  4  0  0  0  0  0  0
    8.1424   -0.5601   23.6628 C   0  0  0  0  0  0  0  0  0  0  0  0
    9.2425   -0.7211   22.6076 C   0  0  0  0  0  0  0  0  0  0  0  0
    8.7296   -0.3139   21.2007 C   0  0  0  0  0  0  0  0  0  0  0  0
    7.2495   -0.2688   21.1765 N   0  0  0  0  0  0  0  0  0  0  0  0
    6.6354    0.2120   19.9857 C   0  0  0  0  0  0  0  0  0  0  0  0
    5.3367    0.7499   20.0589 C   0  0  0  0  0  0  0  0  0  0  0  0
    4.7648    1.3200   18.9171 C   0  0  0  0  0  0  0  0  0  0  0  0
    5.4846    1.3023   17.7180 C   0  0  0  0  0  0  0  0  0  0  0  0
    6.6953    0.7372   17.6056 N   0  0  0  0  0  0  0  0  0  0  0  0
    7.2458    0.2098   18.7069 C   0  0  0  0  0  0  0  0  0  0  0  0
    8.2257   -0.2548   18.5864 H   0  0  0  0  0  0  0  0  0  0  0  0
    5.0728    1.7501   16.8161 H   0  0  0  0  0  0  0  0  0  0  0  0
    3.7881    1.7873   18.9427 H   0  0  0  0  0  0  0  0  0  0  0  0
    4.8139    0.7207   21.0142 H   0  0  0  0  0  0  0  0  0  0  0  0
    6.6895   -1.4998   21.7751 C   0  0  0  0  0  0  0  0  0  0  0  0
    6.9351   -1.4592   23.3023 C   0  0  0  0  0  0  0  0  0  0  0  0
    6.0687   -1.0469   23.8307 H   0  0  0  0  0  0  0  0  0  0  0  0
    7.1048   -2.4746   23.6762 H   0  0  0  0  0  0  0  0  0  0  0  0
    5.6293   -1.5941   21.5293 H   0  0  0  0  0  0  0  0  0  0  0  0
    7.1831   -2.3858   21.3377 H   0  0  0  0  0  0  0  0  0  0  0  0
    9.1096    0.6712   20.8936 H   0  0  0  0  0  0  0  0  0  0  0  0
    9.1026   -1.0394   20.4586 H   0  0  0  0  0  0  0  0  0  0  0  0
   10.1163   -0.1245   22.8875 H   0  0  0  0  0  0  0  0  0  0  0  0
    9.5566   -1.7732   22.5900 H   0  0  0  0  0  0  0  0  0  0  0  0
    8.5028   -0.8143   24.6693 H   0  0  0  0  0  0  0  0  0  0  0  0
    8.5803    1.4341   23.3417 H   0  0  0  0  0  0  0  0  0  0  0  0
    7.1221    0.9271   22.7287 H   0  0  0  0  0  0  0  0  0  0  0  0
    6.2109    2.6266   24.3033 C   0  0  0  0  0  0  0  0  0  0  0  0
    5.7300    3.5467   25.4310 C   0  0  0  0  0  0  0  0  0  0  0  0
    5.2936    2.9848   26.2642 H   0  0  0  0  0  0  0  0  0  0  0  0
    4.9830    4.2759   25.0989 H   0  0  0  0  0  0  0  0  0  0  0  0
    6.7266    3.2171   23.5396 H   0  0  0  0  0  0  0  0  0  0  0  0
    5.3621    2.1615   23.7920 H   0  0  0  0  0  0  0  0  0  0  0  0
    6.5405    0.7607   25.3175 H   0  0  0  0  0  0  0  0  0  0  0  0
    7.8761    1.7730   26.8049 H   0  0  0  0  0  0  0  0  0  0  0  0
    9.1474    1.4492   25.6501 H   0  0  0  0  0  0  0  0  0  0  0  0
    9.2471    3.8086   26.5019 H   0  0  0  0  0  0  0  0  0  0  0  0
    8.8300    3.8758   24.7799 H   0  0  0  0  0  0  0  0  0  0  0  0
  1  2  2  0
  2  3  1  0
  3  4  1  0
  4  5  1  0
  5  6  1  0
  6  7  1  0
  7  8  1  0
  8  9  1  0
  9 10  1  0
 10 11  1  0
 11 12  2  0
 12 13  1  0
 13 14  2  0
 14 15  1  0
 15 16  2  0
 16 17  1  0
 14 18  1  0
 13 19  1  0
 12 20  1  0
 10 21  1  0
 21 22  1  0
 22 23  1  0
 22 24  1  0
 21 25  1  0
 21 26  1  0
  9 27  1  0
  9 28  1  0
  8 29  1  0
  8 30  1  0
  7 31  1  0
  6 32  1  0
  6 33  1  0
  5 34  1  0
 34 35  1  0
 35 36  1  0
 35 37  1  0
 34 38  1  0
 34 39  1  0
  5 40  1  0
  4 41  1  0
  4 42  1  0
  3 43  1  0
  3 44  1  0
 35  2  1  0
 22  7  1  0
 16 11  1  0
M  CHG  1   6   1
M  END
>  <plip>  (1) 
-0.03571428571428571

>  <filename>  (1) 
[H][c]1[n][c]([H])[c]([N]2[C]([H])([H])[C]([H])([H])[C]([H])([N+]([H])([H])[C]3([H])[C]([H])([H])[C]([H])([H])[S](=[O])[C]([H])([H])[C]3([H])[H])[C]([H])([H])[C]2([H])[H])[c]([H])[c]1[H]

$$$$
