
     RDKit          3D

 41 44  0  0  0  0  0  0  0  0999 V2000
    7.6969    4.6337   23.5756 H   0  0  0  0  0  0  0  0  0  0  0  0
    7.8139    3.7170   23.3031 O   0  0  0  0  0  0  0  0  0  0  0  0
    9.0926    3.5627   22.8634 C   0  0  0  0  0  0  0  0  0  0  0  0
   10.0629    4.5272   23.1204 C   0  0  0  0  0  0  0  0  0  0  0  0
    9.8072    5.4134   23.6960 H   0  0  0  0  0  0  0  0  0  0  0  0
   11.3735    4.3348   22.6659 C   0  0  0  0  0  0  0  0  0  0  0  0
   12.5917    5.5186   23.0179 Cl  0  0  0  0  0  0  0  0  0  0  0  0
   11.7134    3.2058   21.9296 C   0  0  0  0  0  0  0  0  0  0  0  0
   12.7354    3.0898   21.5848 H   0  0  0  0  0  0  0  0  0  0  0  0
   10.7400    2.2301   21.6722 C   0  0  0  0  0  0  0  0  0  0  0  0
   11.0155    1.3422   21.1104 H   0  0  0  0  0  0  0  0  0  0  0  0
    9.4384    2.3643   22.1722 C   0  0  0  0  0  0  0  0  0  0  0  0
    8.4433    1.4317   22.0805 O   0  0  0  0  0  0  0  0  0  0  0  0
    8.6554    0.1577   21.4781 C   0  0  2  0  0  0  0  0  0  0  0  0
    9.1684    0.2860   20.5158 H   0  0  0  0  0  0  0  0  0  0  0  0
    7.2447   -0.4454   21.2116 C   0  0  1  0  0  0  0  0  0  0  0  0
    6.6831   -0.2724   22.1377 H   0  0  0  0  0  0  0  0  0  0  0  0
    6.5429    0.2524   20.0449 C   0  0  0  0  0  0  0  0  0  0  0  0
    7.1112    0.2099   18.7554 C   0  0  0  0  0  0  0  0  0  0  0  0
    8.0681   -0.2959   18.5914 H   0  0  0  0  0  0  0  0  0  0  0  0
    6.5612    0.7397   17.6572 N   0  0  0  0  0  0  0  0  0  0  0  0
    5.3769    1.3522   17.8013 C   0  0  0  0  0  0  0  0  0  0  0  0
    4.9592    1.7733   16.8901 H   0  0  0  0  0  0  0  0  0  0  0  0
    4.7063    1.4487   19.0223 C   0  0  0  0  0  0  0  0  0  0  0  0
    3.7494    1.9575   19.0618 H   0  0  0  0  0  0  0  0  0  0  0  0
    5.3019    0.8994   20.1646 C   0  0  0  0  0  0  0  0  0  0  0  0
    4.8085    0.9727   21.1355 H   0  0  0  0  0  0  0  0  0  0  0  0
    7.2737   -1.9696   20.9304 C   0  0  0  0  0  0  0  0  0  0  0  0
    6.2673   -2.3915   21.0408 H   0  0  0  0  0  0  0  0  0  0  0  0
    7.5283   -2.0931   19.8803 H   0  0  0  0  0  0  0  0  0  0  0  0
    8.2586   -2.7963   21.7773 C   0  0  1  0  0  0  0  0  0  0  0  0
    8.1923   -3.8552   21.5062 H   0  0  0  0  0  0  0  0  0  0  0  0
    9.9654   -2.2340   21.4484 S   0  0  0  0  0  0  0  0  0  0  0  0
    9.5506   -0.7322   22.3845 C   0  0  2  0  0  0  0  0  0  0  0  0
   10.4746   -0.1982   22.6258 H   0  0  0  0  0  0  0  0  0  0  0  0
    8.8691   -1.2716   23.6652 C   0  0  0  0  0  0  0  0  0  0  0  0
    8.2203   -0.5023   24.0995 H   0  0  0  0  0  0  0  0  0  0  0  0
    9.6453   -1.4892   24.4086 H   0  0  0  0  0  0  0  0  0  0  0  0
    8.1185   -2.5862   23.2966 C   0  0  0  0  0  0  0  0  0  0  0  0
    7.0641   -2.5712   23.5964 H   0  0  0  0  0  0  0  0  0  0  0  0
    8.5847   -3.4349   23.8141 H   0  0  0  0  0  0  0  0  0  0  0  0
  1  2  1  0
  2  3  1  0
  3  4  2  0
  4  5  1  0
  4  6  1  0
  6  7  1  0
  6  8  2  0
  8  9  1  0
  8 10  1  0
 10 11  1  0
 10 12  2  0
 12 13  1  0
 13 14  1  0
 14 15  1  6
 14 16  1  0
 16 17  1  1
 16 18  1  0
 18 19  2  0
 19 20  1  0
 19 21  1  0
 21 22  2  0
 22 23  1  0
 22 24  1  0
 24 25  1  0
 24 26  2  0
 26 27  1  0
 16 28  1  0
 28 29  1  0
 28 30  1  0
 28 31  1  0
 31 32  1  1
 31 33  1  0
 33 34  1  0
 34 35  1  1
 34 36  1  0
 36 37  1  0
 36 38  1  0
 36 39  1  0
 39 40  1  0
 39 41  1  0
 12  3  1  0
 34 14  1  0
 26 18  1  0
 39 31  1  0
M  END
>  <plip>  (1) 
-0.06896551724137931

>  <filename>  (1) 
[H][O][c]1[c]([H])[c]([Cl])[c]([H])[c]([H])[c]1[O][C@]1([H])[C@@]([H])([c]2[c]([H])[n][c]([H])[c]([H])[c]2[H])[C]([H])([H])[C@@]2([H])[S][C@]1([H])[C]([H])([H])[C]2([H])[H]

$$$$
