
     RDKit          3D

 29 31  0  0  0  0  0  0  0  0999 V2000
    4.9357    1.7970   16.9982 H   0  0  0  0  0  0  0  0  0  0  0  0
    5.4115    1.3134   17.8491 C   0  0  0  0  0  0  0  0  0  0  0  0
    6.5845    0.7020   17.6064 N   0  0  0  0  0  0  0  0  0  0  0  0
    7.1863    0.0759   18.6285 C   0  0  0  0  0  0  0  0  0  0  0  0
    8.1310   -0.4245   18.4099 H   0  0  0  0  0  0  0  0  0  0  0  0
    6.6498    0.0387   19.9395 C   0  0  0  0  0  0  0  0  0  0  0  0
    7.2739   -0.6564   21.0375 N   0  0  0  0  0  0  0  0  0  0  0  0
    7.8122   -0.1965   22.2369 C   0  0  0  0  0  0  0  0  0  0  0  0
    7.7171    1.1070   22.6564 N   0  0  0  0  0  0  0  0  0  0  0  0
    7.6770    1.4034   24.0130 C   0  0  0  0  0  0  0  0  0  0  0  0
    7.4165    0.6400   24.9075 O   0  0  0  0  0  0  0  0  0  0  0  0
    7.9668    2.8797   24.1734 C   0  0  0  0  0  0  0  0  0  0  0  0
    8.7600    2.9924   24.9161 H   0  0  0  0  0  0  0  0  0  0  0  0
    7.0703    3.3285   24.6073 H   0  0  0  0  0  0  0  0  0  0  0  0
    8.3149    3.3958   22.7718 C   0  0  0  0  0  0  0  0  0  0  0  0
    7.7849    4.3184   22.5234 H   0  0  0  0  0  0  0  0  0  0  0  0
    9.3863    3.5913   22.6766 H   0  0  0  0  0  0  0  0  0  0  0  0
    7.9017    2.2715   21.7984 C   0  0  0  0  0  0  0  0  0  0  0  0
    8.6662    2.0519   21.0455 H   0  0  0  0  0  0  0  0  0  0  0  0
    6.9725    2.5121   21.2698 H   0  0  0  0  0  0  0  0  0  0  0  0
    8.4097   -1.1208   22.9174 N   0  0  0  0  0  0  0  0  0  0  0  0
    8.1346   -2.2580   22.1894 N   0  0  0  0  0  0  0  0  0  0  0  0
    8.2887   -3.1830   22.5488 H   0  0  0  0  0  0  0  0  0  0  0  0
    7.2897   -2.0617   21.1438 C   0  0  0  0  0  0  0  0  0  0  0  0
    6.7009   -2.8817   20.4720 O   0  0  0  0  0  0  0  0  0  0  0  0
    5.4349    0.6826   20.1725 C   0  0  0  0  0  0  0  0  0  0  0  0
    5.0173    0.6523   21.1799 H   0  0  0  0  0  0  0  0  0  0  0  0
    4.7991    1.3354   19.1074 C   0  0  0  0  0  0  0  0  0  0  0  0
    3.8445    1.8364   19.2442 H   0  0  0  0  0  0  0  0  0  0  0  0
  1  2  1  0
  2  3  2  0
  3  4  1  0
  4  5  1  0
  4  6  2  0
  6  7  1  0
  7  8  1  0
  8  9  1  0
  9 10  1  0
 10 11  2  0
 10 12  1  0
 12 13  1  0
 12 14  1  0
 12 15  1  0
 15 16  1  0
 15 17  1  0
 15 18  1  0
 18 19  1  0
 18 20  1  0
  8 21  2  0
 21 22  1  0
 22 23  1  0
 22 24  1  0
 24 25  2  0
  6 26  1  0
 26 27  1  0
 26 28  2  0
 28 29  1  0
 28  2  1  0
 24  7  1  0
 18  9  1  0
M  END
>  <plip>  (1) 
-0.06896551724137931

>  <filename>  (1) 
[H][c]1[n][c]([H])[c](-[n]2[c]([N]3[C](=[O])[C]([H])([H])[C]([H])([H])[C]3([H])[H])[n][n]([H])[c]2=[O])[c]([H])[c]1[H]

$$$$
