
     RDKit          3D

 30 32  0  0  0  0  0  0  0  0999 V2000
    4.9439    1.8009   16.9721 H   0  0  0  0  0  0  0  0  0  0  0  0
    5.3929    1.2926   17.8245 C   0  0  0  0  0  0  0  0  0  0  0  0
    6.5588    0.6679   17.5908 N   0  0  0  0  0  0  0  0  0  0  0  0
    7.1545    0.0536   18.6169 C   0  0  0  0  0  0  0  0  0  0  0  0
    8.0966   -0.4450   18.3857 H   0  0  0  0  0  0  0  0  0  0  0  0
    6.6395    0.0434   19.9187 C   0  0  0  0  0  0  0  0  0  0  0  0
    7.3999   -0.6586   20.9513 C   0  0  0  0  0  0  0  0  0  0  0  0
    7.9088   -1.8463   20.7553 N   0  0  0  0  0  0  0  0  0  0  0  0
    8.3911   -2.2640   21.9649 C   0  0  0  0  0  0  0  0  0  0  0  0
    8.8378   -3.2439   22.0623 H   0  0  0  0  0  0  0  0  0  0  0  0
    8.2098   -1.3094   22.9157 C   0  0  0  0  0  0  0  0  0  0  0  0
    8.5134   -1.2545   23.9520 H   0  0  0  0  0  0  0  0  0  0  0  0
    7.5811   -0.2484   22.2568 N   0  0  0  0  0  0  0  0  0  0  0  0
    7.2948    1.0338   22.7751 C   0  0  0  0  0  0  0  0  0  0  0  0
    7.4078    2.0651   21.9400 N   0  0  0  0  0  0  0  0  0  0  0  0
    7.1601    3.2789   22.4481 C   0  0  0  0  0  0  0  0  0  0  0  0
    7.2442    4.1166   21.7559 H   0  0  0  0  0  0  0  0  0  0  0  0
    6.8090    3.5044   23.7787 C   0  0  0  0  0  0  0  0  0  0  0  0
    6.6312    4.5113   24.1276 H   0  0  0  0  0  0  0  0  0  0  0  0
    6.6887    2.4132   24.6574 C   0  0  0  0  0  0  0  0  0  0  0  0
    6.3558    2.5956   26.1171 C   0  0  0  0  0  0  0  0  0  0  0  0
    5.7399    3.4860   26.2760 H   0  0  0  0  0  0  0  0  0  0  0  0
    7.2669    2.7167   26.7169 H   0  0  0  0  0  0  0  0  0  0  0  0
    5.8121    1.7312   26.5137 H   0  0  0  0  0  0  0  0  0  0  0  0
    6.9330    1.1523   24.1239 C   0  0  0  0  0  0  0  0  0  0  0  0
    6.8561    0.2516   24.7169 H   0  0  0  0  0  0  0  0  0  0  0  0
    5.3960    0.6562   20.1402 C   0  0  0  0  0  0  0  0  0  0  0  0
    4.9486    0.6547   21.1336 H   0  0  0  0  0  0  0  0  0  0  0  0
    4.7741    1.3047   19.0776 C   0  0  0  0  0  0  0  0  0  0  0  0
    3.8503    1.8490   19.2218 H   0  0  0  0  0  0  0  0  0  0  0  0
  1  2  1  0
  2  3  2  0
  3  4  1  0
  4  5  1  0
  4  6  2  0
  6  7  1  0
  7  8  2  0
  8  9  1  0
  9 10  1  0
  9 11  2  0
 11 12  1  0
 11 13  1  0
 13 14  1  0
 14 15  2  0
 15 16  1  0
 16 17  1  0
 16 18  2  0
 18 19  1  0
 18 20  1  0
 20 21  1  0
 21 22  1  0
 21 23  1  0
 21 24  1  0
 20 25  2  0
 25 26  1  0
  6 27  1  0
 27 28  1  0
 27 29  2  0
 29 30  1  0
 29  2  1  0
 13  7  1  0
 25 14  1  0
M  END
>  <plip>  (1) 
-0.0

>  <filename>  (1) 
[H][c]1[n][c]([H])[c](-[c]2[n][c]([H])[c]([H])[n]2-[c]2[n][c]([H])[c]([H])[c]([C]([H])([H])[H])[c]2[H])[c]([H])[c]1[H]

$$$$
