
     RDKit          3D

 47 48  0  0  0  0  0  0  0  0999 V2000
    3.6741   -5.6131   31.1688 C   0  0  0  0  0  0  0  0  0  0  0  0
    5.1189   -5.3199   30.9134 N   0  0  0  0  0  4  0  0  0  0  0  0
    5.3559   -4.0984   30.0321 C   0  0  0  0  0  0  0  0  0  0  0  0
    5.4351   -4.4732   28.5394 C   0  0  0  0  0  0  0  0  0  0  0  0
    5.8002   -3.3254   27.5792 C   0  0  0  0  0  0  0  0  0  0  0  0
    5.7786   -3.7285   26.1059 C   0  0  0  0  0  0  0  0  0  0  0  0
    6.3671   -2.6640   25.1953 N   0  0  0  0  0  4  0  0  0  0  0  0
    5.5624   -1.3798   25.2297 C   0  0  0  0  0  0  0  0  0  0  0  0
    5.8954   -0.7166   24.4292 H   0  0  0  0  0  0  0  0  0  0  0  0
    5.6724   -0.8565   26.1822 H   0  0  0  0  0  0  0  0  0  0  0  0
    4.4978   -1.5901   25.0615 H   0  0  0  0  0  0  0  0  0  0  0  0
    6.4983   -3.1554   23.7684 C   0  0  0  0  0  0  0  0  0  0  0  0
    7.2607   -2.1980   22.8837 C   0  0  0  0  0  0  0  0  0  0  0  0
    8.6020   -1.8835   23.1371 C   0  0  0  0  0  0  0  0  0  0  0  0
    9.3425   -1.0927   22.3492 N   0  0  0  0  0  0  0  0  0  0  0  0
    8.7485   -0.5500   21.2798 C   0  0  0  0  0  0  0  0  0  0  0  0
    7.3948   -0.7406   20.9409 C   0  0  0  0  0  0  0  0  0  0  0  0
    6.7226   -0.0219   19.8127 C   0  0  0  0  0  0  0  0  0  0  0  0
    5.5265    0.6704   20.0600 C   0  0  0  0  0  0  0  0  0  0  0  0
    4.9128    1.3658   19.0181 C   0  0  0  0  0  0  0  0  0  0  0  0
    5.5008    1.3229   17.7513 C   0  0  0  0  0  0  0  0  0  0  0  0
    6.6324    0.6543   17.4804 N   0  0  0  0  0  0  0  0  0  0  0  0
    7.2247    0.0102   18.4954 C   0  0  0  0  0  0  0  0  0  0  0  0
    8.1490   -0.5169   18.2510 H   0  0  0  0  0  0  0  0  0  0  0  0
    5.0423    1.8509   16.9164 H   0  0  0  0  0  0  0  0  0  0  0  0
    4.0056    1.9389   19.1776 H   0  0  0  0  0  0  0  0  0  0  0  0
    5.1120    0.6774   21.0697 H   0  0  0  0  0  0  0  0  0  0  0  0
    6.6587   -1.5937   21.7710 C   0  0  0  0  0  0  0  0  0  0  0  0
    5.6098   -1.7806   21.5372 H   0  0  0  0  0  0  0  0  0  0  0  0
    9.3647    0.0964   20.6583 H   0  0  0  0  0  0  0  0  0  0  0  0
    9.1280   -2.3112   23.9883 H   0  0  0  0  0  0  0  0  0  0  0  0
    5.4864   -3.3073   23.3686 H   0  0  0  0  0  0  0  0  0  0  0  0
    6.9847   -4.1384   23.7943 H   0  0  0  0  0  0  0  0  0  0  0  0
    7.3396   -2.4575   25.5143 H   0  0  0  0  0  0  0  0  0  0  0  0
    6.3444   -4.6605   25.9663 H   0  0  0  0  0  0  0  0  0  0  0  0
    4.7473   -3.9389   25.7886 H   0  0  0  0  0  0  0  0  0  0  0  0
    6.8165   -2.9410   27.7293 H   0  0  0  0  0  0  0  0  0  0  0  0
    5.1182   -2.4842   27.7466 H   0  0  0  0  0  0  0  0  0  0  0  0
    6.1871   -5.2662   28.4451 H   0  0  0  0  0  0  0  0  0  0  0  0
    4.4744   -4.9156   28.2193 H   0  0  0  0  0  0  0  0  0  0  0  0
    6.2839   -3.6252   30.3615 H   0  0  0  0  0  0  0  0  0  0  0  0
    4.5468   -3.3825   30.2094 H   0  0  0  0  0  0  0  0  0  0  0  0
    5.6319   -5.2286   31.8294 H   0  0  0  0  0  0  0  0  0  0  0  0
    5.5393   -6.1374   30.3908 H   0  0  0  0  0  0  0  0  0  0  0  0
    3.5584   -6.2609   32.0394 H   0  0  0  0  0  0  0  0  0  0  0  0
    3.1155   -4.6868   31.3489 H   0  0  0  0  0  0  0  0  0  0  0  0
    3.2052   -6.1126   30.3136 H   0  0  0  0  0  0  0  0  0  0  0  0
  1  2  1  0
  2  3  1  0
  3  4  1  0
  4  5  1  0
  5  6  1  0
  6  7  1  0
  7  8  1  0
  8  9  1  0
  8 10  1  0
  8 11  1  0
  7 12  1  0
 12 13  1  0
 13 14  2  0
 14 15  1  0
 15 16  2  0
 16 17  1  0
 17 18  1  0
 18 19  2  0
 19 20  1  0
 20 21  2  0
 21 22  1  0
 22 23  2  0
 23 24  1  0
 21 25  1  0
 20 26  1  0
 19 27  1  0
 17 28  2  0
 28 29  1  0
 16 30  1  0
 14 31  1  0
 12 32  1  0
 12 33  1  0
  7 34  1  0
  6 35  1  0
  6 36  1  0
  5 37  1  0
  5 38  1  0
  4 39  1  0
  4 40  1  0
  3 41  1  0
  3 42  1  0
  2 43  1  0
  2 44  1  0
  1 45  1  0
  1 46  1  0
  1 47  1  0
 28 13  1  0
 23 18  1  0
M  CHG  2   2   1   7   1
M  END
>  <plip>  (1) 
-0.03571428571428571

>  <filename>  (1) 
[H][c]1[n][c]([H])[c](-[c]2[c]([H])[n][c]([H])[c]([C]([H])([H])[N+]([H])([C]([H])([H])[H])[C]([H])([H])[C]([H])([H])[C]([H])([H])[C]([H])([H])[N+]([H])([H])[C]([H])([H])[H])[c]2[H])[c]([H])[c]1[H]

$$$$
