
     RDKit          3D

 53 55  0  0  0  0  0  0  0  0999 V2000
   10.7033   -4.8483   25.4942 C   0  0  0  0  0  0  0  0  0  0  0  0
    9.8006   -5.0103   24.7133 C   0  0  0  0  0  0  0  0  0  0  0  0
    8.7506   -5.2712   23.7665 C   0  0  0  0  0  0  0  0  0  0  0  0
    8.6413   -6.5328   23.1557 C   0  0  0  0  0  0  0  0  0  0  0  0
    7.5628   -6.7690   22.3116 C   0  0  0  0  0  0  0  0  0  0  0  0
    6.6541   -5.8343   21.9942 N   0  0  0  0  0  0  0  0  0  0  0  0
    6.7815   -4.6369   22.5605 C   0  0  0  0  0  0  0  0  0  0  0  0
    5.8075   -3.6742   22.2051 N   0  0  0  0  0  0  0  0  0  0  0  0
    4.4178   -4.1327   22.3408 C   0  0  0  0  0  0  0  0  0  0  0  0
    4.0437   -4.3507   23.7931 C   0  0  0  0  0  0  0  0  0  0  0  0
    4.1743   -3.4573   24.4094 H   0  0  0  0  0  0  0  0  0  0  0  0
    2.9976   -4.6704   23.8323 H   0  0  0  0  0  0  0  0  0  0  0  0
    4.6620   -5.1388   24.2318 H   0  0  0  0  0  0  0  0  0  0  0  0
    4.2545   -5.0693   21.7841 H   0  0  0  0  0  0  0  0  0  0  0  0
    3.8124   -3.3698   21.8633 H   0  0  0  0  0  0  0  0  0  0  0  0
    6.1271   -3.0804   20.9884 C   0  0  0  0  0  0  0  0  0  0  0  0
    5.4073   -3.0740   20.0116 O   0  0  0  0  0  0  0  0  0  0  0  0
    7.4064   -2.5024   20.9011 N   0  0  0  0  0  0  0  0  0  0  0  0
    7.5530   -1.0254   20.9715 C   0  0  0  0  0  0  0  0  0  0  0  0
    7.4343   -0.4399   22.3991 C   0  0  0  0  0  0  0  0  0  0  0  0
    8.1968    0.8367   22.5773 N   0  0  0  0  0  4  0  0  0  0  0  0
    8.4446    1.2727   23.9937 C   0  0  0  0  0  0  0  0  0  0  0  0
    9.0318    2.6796   23.8429 C   0  0  0  0  0  0  0  0  0  0  0  0
    8.4934    3.1974   22.4883 C   0  0  0  0  0  0  0  0  0  0  0  0
    7.5907    2.0822   21.9643 C   0  0  0  0  0  0  0  0  0  0  0  0
    7.5568    2.0176   20.8761 H   0  0  0  0  0  0  0  0  0  0  0  0
    6.5630    2.1890   22.3339 H   0  0  0  0  0  0  0  0  0  0  0  0
    9.3196    3.3485   21.7869 H   0  0  0  0  0  0  0  0  0  0  0  0
    7.9618    4.1509   22.5613 H   0  0  0  0  0  0  0  0  0  0  0  0
   10.1259    2.6313   23.8252 H   0  0  0  0  0  0  0  0  0  0  0  0
    8.7569    3.3189   24.6868 H   0  0  0  0  0  0  0  0  0  0  0  0
    9.0954    0.5720   24.5242 H   0  0  0  0  0  0  0  0  0  0  0  0
    7.4797    1.3007   24.5149 H   0  0  0  0  0  0  0  0  0  0  0  0
    9.1420    0.7325   22.1422 H   0  0  0  0  0  0  0  0  0  0  0  0
    7.8116   -1.1997   23.0916 H   0  0  0  0  0  0  0  0  0  0  0  0
    6.3873   -0.2688   22.6783 H   0  0  0  0  0  0  0  0  0  0  0  0
    6.7113   -0.3267   19.9132 C   0  0  0  0  0  0  0  0  0  0  0  0
    5.4739    0.2844   20.1597 C   0  0  0  0  0  0  0  0  0  0  0  0
    4.8764    1.0324   19.1423 C   0  0  0  0  0  0  0  0  0  0  0  0
    5.5063    1.1021   17.8967 C   0  0  0  0  0  0  0  0  0  0  0  0
    6.6471    0.4548   17.6142 N   0  0  0  0  0  0  0  0  0  0  0  0
    7.2128   -0.2486   18.6015 C   0  0  0  0  0  0  0  0  0  0  0  0
    8.1326   -0.7767   18.3331 H   0  0  0  0  0  0  0  0  0  0  0  0
    5.0831    1.7009   17.0920 H   0  0  0  0  0  0  0  0  0  0  0  0
    3.9431    1.5571   19.3010 H   0  0  0  0  0  0  0  0  0  0  0  0
    4.9852    0.1655   21.1296 H   0  0  0  0  0  0  0  0  0  0  0  0
    8.6093   -0.8649   20.7066 H   0  0  0  0  0  0  0  0  0  0  0  0
    7.5307   -2.6856   19.9105 H   0  0  0  0  0  0  0  0  0  0  0  0
    7.7917   -4.3074   23.4606 C   0  0  0  0  0  0  0  0  0  0  0  0
    7.7906   -3.3422   23.9429 H   0  0  0  0  0  0  0  0  0  0  0  0
    7.4036   -7.7567   21.8819 H   0  0  0  0  0  0  0  0  0  0  0  0
    9.3875   -7.2994   23.3158 H   0  0  0  0  0  0  0  0  0  0  0  0
   11.4907   -4.6895   26.1962 H   0  0  0  0  0  0  0  0  0  0  0  0
  1  2  3  0
  2  3  1  0
  3  4  2  0
  4  5  1  0
  5  6  2  0
  6  7  1  0
  7  8  1  0
  8  9  1  0
  9 10  1  0
 10 11  1  0
 10 12  1  0
 10 13  1  0
  9 14  1  0
  9 15  1  0
  8 16  1  0
 16 17  2  0
 16 18  1  0
 18 19  1  0
 19 20  1  0
 20 21  1  0
 21 22  1  0
 22 23  1  0
 23 24  1  0
 24 25  1  0
 25 26  1  0
 25 27  1  0
 24 28  1  0
 24 29  1  0
 23 30  1  0
 23 31  1  0
 22 32  1  0
 22 33  1  0
 21 34  1  0
 20 35  1  0
 20 36  1  0
 19 37  1  0
 37 38  2  0
 38 39  1  0
 39 40  2  0
 40 41  1  0
 41 42  2  0
 42 43  1  0
 40 44  1  0
 39 45  1  0
 38 46  1  0
 19 47  1  0
 18 48  1  0
  7 49  2  0
 49 50  1  0
  5 51  1  0
  4 52  1  0
  1 53  1  0
 49  3  1  0
 25 21  1  0
 42 37  1  0
M  CHG  1  21   1
M  END
>  <plip>  (1) 
-0.22580645161290322

>  <filename>  (1) 
[H][C]#[C][c]1[c]([H])[c]([H])[n][c]([N]([C](=[O])[N]([H])[C]([H])([c]2[c]([H])[n][c]([H])[c]([H])[c]2[H])[C]([H])([H])[N+]2([H])[C]([H])([H])[C]([H])([H])[C]([H])([H])[C]2([H])[H])[C]([H])([H])[C]([H])([H])[H])[c]1[H]

$$$$
