
     RDKit          3D

 27 28  0  0  0  0  0  0  0  0999 V2000
    4.9223    1.7983   16.9887 H   0  0  0  0  0  0  0  0  0  0  0  0
    5.3926    1.3010   17.8342 C   0  0  0  0  0  0  0  0  0  0  0  0
    6.5533    0.6840   17.5667 N   0  0  0  0  0  0  0  0  0  0  0  0
    7.1528    0.0462   18.5766 C   0  0  0  0  0  0  0  0  0  0  0  0
    8.1142   -0.4198   18.3702 H   0  0  0  0  0  0  0  0  0  0  0  0
    6.6209   -0.0379   19.8744 C   0  0  0  0  0  0  0  0  0  0  0  0
    7.6042   -0.8403   21.1127 S   0  0  0  0  0  0  0  0  0  0  0  0
    8.7558    0.8144   21.6235 S   0  0  0  0  0  0  0  0  0  0  0  0
    7.6564    1.5448   22.9066 C   0  0  0  0  0  0  0  0  0  0  0  0
    7.6985    1.1027   24.0258 O   0  0  0  0  0  0  0  0  0  0  0  0
    6.8418    2.5574   22.4811 N   0  0  0  0  0  0  0  0  0  0  0  0
    6.8206    2.7623   21.4928 H   0  0  0  0  0  0  0  0  0  0  0  0
    5.8735    3.1781   23.3079 C   0  0  0  0  0  0  0  0  0  0  0  0
    4.6276    3.5340   22.7810 C   0  0  0  0  0  0  0  0  0  0  0  0
    4.4186    3.3358   21.7330 H   0  0  0  0  0  0  0  0  0  0  0  0
    3.6642    4.1385   23.6003 C   0  0  0  0  0  0  0  0  0  0  0  0
    2.6885    4.4381   23.2319 H   0  0  0  0  0  0  0  0  0  0  0  0
    3.9823    4.3870   24.9323 C   0  0  0  0  0  0  0  0  0  0  0  0
    3.0716    4.9694   25.7288 F   0  0  0  0  0  0  0  0  0  0  0  0
    5.2233    4.0567   25.4691 C   0  0  0  0  0  0  0  0  0  0  0  0
    5.4248    4.2657   26.5140 H   0  0  0  0  0  0  0  0  0  0  0  0
    6.1742    3.4476   24.6495 C   0  0  0  0  0  0  0  0  0  0  0  0
    7.1491    3.1666   25.0304 H   0  0  0  0  0  0  0  0  0  0  0  0
    5.4181    0.6173   20.1522 C   0  0  0  0  0  0  0  0  0  0  0  0
    5.0096    0.6123   21.1665 H   0  0  0  0  0  0  0  0  0  0  0  0
    4.8009    1.3081   19.1029 C   0  0  0  0  0  0  0  0  0  0  0  0
    3.8742    1.8490   19.2491 H   0  0  0  0  0  0  0  0  0  0  0  0
  1  2  1  0
  2  3  2  0
  3  4  1  0
  4  5  1  0
  4  6  2  0
  6  7  1  0
  7  8  1  0
  8  9  1  0
  9 10  2  0
  9 11  1  0
 11 12  1  0
 11 13  1  0
 13 14  2  0
 14 15  1  0
 14 16  1  0
 16 17  1  0
 16 18  2  0
 18 19  1  0
 18 20  1  0
 20 21  1  0
 20 22  2  0
 22 23  1  0
  6 24  1  0
 24 25  1  0
 24 26  2  0
 26 27  1  0
 26  2  1  0
 22 13  1  0
M  END
>  <plip>  (1) 
-0.0

>  <filename>  (1) 
[H][c]1[n][c]([H])[c]([S][S][C](=[O])[N]([H])[c]2[c]([H])[c]([H])[c]([F])[c]([H])[c]2[H])[c]([H])[c]1[H]

$$$$
