
     RDKit          3D

 28 29  0  0  0  0  0  0  0  0999 V2000
    5.0739    1.7612   16.9588 H   0  0  0  0  0  0  0  0  0  0  0  0
    5.4872    1.2184   17.8064 C   0  0  0  0  0  0  0  0  0  0  0  0
    6.6261    0.5400   17.5924 N   0  0  0  0  0  0  0  0  0  0  0  0
    7.1750   -0.1109   18.6302 C   0  0  0  0  0  0  0  0  0  0  0  0
    8.1183   -0.6193   18.4251 H   0  0  0  0  0  0  0  0  0  0  0  0
    6.6223   -0.1037   19.9330 C   0  0  0  0  0  0  0  0  0  0  0  0
    7.2108   -0.6889   21.0701 N   0  0  0  0  0  0  0  0  0  0  0  0
    7.9324   -1.8841   20.9129 N   0  0  0  0  0  0  0  0  0  0  0  0
    7.9131   -2.2943   19.9853 H   0  0  0  0  0  0  0  0  0  0  0  0
    7.6878   -2.8930   21.8454 C   0  0  0  0  0  0  0  0  0  0  0  0
    8.2317   -4.0892   21.6721 N   0  0  0  0  0  0  0  0  0  0  0  0
    7.8736   -4.7799   22.7764 N   0  0  0  0  0  0  0  0  0  0  0  0
    8.4151   -6.0959   23.0356 C   0  0  0  0  0  0  0  0  0  0  0  0
    8.8853   -6.4662   22.1240 H   0  0  0  0  0  0  0  0  0  0  0  0
    7.6086   -6.7720   23.3138 H   0  0  0  0  0  0  0  0  0  0  0  0
    9.1341   -6.0546   23.8634 H   0  0  0  0  0  0  0  0  0  0  0  0
    7.1186   -4.0391   23.6201 C   0  0  0  0  0  0  0  0  0  0  0  0
    6.8175   -4.3937   24.5994 H   0  0  0  0  0  0  0  0  0  0  0  0
    6.9306   -2.8170   23.0307 C   0  0  0  0  0  0  0  0  0  0  0  0
    6.3176   -1.9826   23.3374 H   0  0  0  0  0  0  0  0  0  0  0  0
    7.6414    0.1541   22.1934 C   0  0  0  0  0  0  0  0  0  0  0  0
    7.9792    1.1376   21.8473 H   0  0  0  0  0  0  0  0  0  0  0  0
    8.4753   -0.3445   22.7028 H   0  0  0  0  0  0  0  0  0  0  0  0
    6.8391    0.3159   22.9315 H   0  0  0  0  0  0  0  0  0  0  0  0
    5.4215    0.5927   20.1292 C   0  0  0  0  0  0  0  0  0  0  0  0
    4.9871    0.5821   21.1306 H   0  0  0  0  0  0  0  0  0  0  0  0
    4.8448    1.2584   19.0500 C   0  0  0  0  0  0  0  0  0  0  0  0
    3.9304    1.8225   19.1765 H   0  0  0  0  0  0  0  0  0  0  0  0
  1  2  1  0
  2  3  2  0
  3  4  1  0
  4  5  1  0
  4  6  2  0
  6  7  1  0
  7  8  1  0
  8  9  1  0
  8 10  1  0
 10 11  2  0
 11 12  1  0
 12 13  1  0
 13 14  1  0
 13 15  1  0
 13 16  1  0
 12 17  1  0
 17 18  1  0
 17 19  2  0
 19 20  1  0
  7 21  1  0
 21 22  1  0
 21 23  1  0
 21 24  1  0
  6 25  1  0
 25 26  1  0
 25 27  2  0
 27 28  1  0
 27  2  1  0
 19 10  1  0
M  END
>  <plip>  (1) 
-0.06666666666666667

>  <filename>  (1) 
[H][c]1[n][c]([H])[c]([N]([N]([H])[c]2[n][n]([C]([H])([H])[H])[c]([H])[c]2[H])[C]([H])([H])[H])[c]([H])[c]1[H]

$$$$
