
     RDKit          3D

 29 31  0  0  0  0  0  0  0  0999 V2000
    4.9138    1.8037   16.9827 H   0  0  0  0  0  0  0  0  0  0  0  0
    5.3893    1.3005   17.8243 C   0  0  0  0  0  0  0  0  0  0  0  0
    6.5493    0.6819   17.5567 N   0  0  0  0  0  0  0  0  0  0  0  0
    7.1511    0.0486   18.5719 C   0  0  0  0  0  0  0  0  0  0  0  0
    8.1117   -0.4175   18.3465 H   0  0  0  0  0  0  0  0  0  0  0  0
    6.6371   -0.0328   19.8754 C   0  0  0  0  0  0  0  0  0  0  0  0
    7.4022   -0.6974   20.9961 C   0  0  0  0  0  0  0  0  0  0  0  0
    6.7004   -1.1669   21.6996 H   0  0  0  0  0  0  0  0  0  0  0  0
    8.0479   -1.5046   20.6303 H   0  0  0  0  0  0  0  0  0  0  0  0
    8.2771    0.2691   21.7500 C   0  0  0  0  0  0  0  0  0  0  0  0
    8.6856    1.4521   21.3493 N   0  0  0  0  0  0  0  0  0  0  0  0
    9.4534    1.9483   22.3424 N   0  0  0  0  0  0  0  0  0  0  0  0
    9.5396    1.1230   23.3206 N   0  0  0  0  0  0  0  0  0  0  0  0
    8.8119    0.0445   22.9718 N   0  0  0  0  0  0  0  0  0  0  0  0
    8.6947   -1.1395   23.8134 C   0  0  2  0  0  0  0  0  0  0  0  0
    9.4623   -1.0263   24.5834 H   0  0  0  0  0  0  0  0  0  0  0  0
    8.9037   -2.3869   23.0740 N   0  0  0  0  0  0  0  0  0  0  0  0
    7.8734   -3.0878   23.3104 C   0  0  0  0  0  0  0  0  0  0  0  0
    7.6848   -4.2872   22.7806 N   0  0  0  0  0  0  0  0  0  0  0  0
    8.4951   -4.5983   22.2865 H   0  0  0  0  0  0  0  0  0  0  0  0
    6.8632   -4.7965   23.0318 H   0  0  0  0  0  0  0  0  0  0  0  0
    6.8724   -2.6120   24.0639 O   0  0  0  0  0  0  0  0  0  0  0  0
    7.2804   -1.2771   24.4383 C   0  0  0  0  0  0  0  0  0  0  0  0
    7.2964   -1.2085   25.5265 H   0  0  0  0  0  0  0  0  0  0  0  0
    6.5568   -0.5539   24.0425 H   0  0  0  0  0  0  0  0  0  0  0  0
    5.4348    0.6359   20.1352 C   0  0  0  0  0  0  0  0  0  0  0  0
    5.0255    0.6382   21.1472 H   0  0  0  0  0  0  0  0  0  0  0  0
    4.7967    1.3119   19.0906 C   0  0  0  0  0  0  0  0  0  0  0  0
    3.8696    1.8518   19.2456 H   0  0  0  0  0  0  0  0  0  0  0  0
  1  2  1  0
  2  3  2  0
  3  4  1  0
  4  5  1  0
  4  6  2  0
  6  7  1  0
  7  8  1  0
  7  9  1  0
  7 10  1  0
 10 11  2  0
 11 12  1  0
 12 13  2  0
 13 14  1  0
 14 15  1  0
 15 16  1  1
 15 17  1  0
 17 18  2  0
 18 19  1  0
 19 20  1  0
 19 21  1  0
 18 22  1  0
 22 23  1  0
 23 24  1  0
 23 25  1  0
  6 26  1  0
 26 27  1  0
 26 28  2  0
 28 29  1  0
 28  2  1  0
 14 10  1  0
 23 15  1  0
M  END
>  <plip>  (1) 
-0.034482758620689655

>  <filename>  (1) 
[H][c]1[n][c]([H])[c]([C]([H])([H])[c]2[n][n][n][n]2[C@]2([H])[N]=[C]([N]([H])[H])[O][C]2([H])[H])[c]([H])[c]1[H]

$$$$
