
     RDKit          3D

 31 32  0  0  0  0  0  0  0  0999 V2000
    9.8330   -4.7388   25.1669 H   0  0  0  0  0  0  0  0  0  0  0  0
    9.1333   -5.1126   24.4165 C   0  0  0  0  0  0  0  0  0  0  0  0
    8.3194   -4.2194   23.8542 N   0  0  0  0  0  0  0  0  0  0  0  0
    7.4659   -4.6120   22.8756 C   0  0  0  0  0  0  0  0  0  0  0  0
    6.6197   -3.4932   22.1965 C   0  0  0  0  0  0  0  0  0  0  0  0
    5.7181   -3.7204   21.4062 O   0  0  0  0  0  0  0  0  0  0  0  0
    7.0295   -2.2422   22.5425 N   0  0  0  0  0  0  0  0  0  0  0  0
    7.7166   -2.2145   23.2796 H   0  0  0  0  0  0  0  0  0  0  0  0
    6.6298   -0.9914   21.9693 C   0  0  2  0  0  0  0  0  0  0  0  0
    5.6116   -1.0900   21.5736 H   0  0  0  0  0  0  0  0  0  0  0  0
    7.4840   -0.4713   20.7212 C   0  0  0  0  0  0  0  0  0  0  0  0
    8.6841   -0.6494   20.6101 O   0  0  0  0  0  0  0  0  0  0  0  0
    6.7153    0.2503   19.6814 C   0  0  0  0  0  0  0  0  0  0  0  0
    7.2250    0.2273   18.3800 C   0  0  0  0  0  0  0  0  0  0  0  0
    8.1760   -0.2629   18.1817 H   0  0  0  0  0  0  0  0  0  0  0  0
    6.5922    0.7695   17.3412 N   0  0  0  0  0  0  0  0  0  0  0  0
    5.4297    1.3970   17.5823 C   0  0  0  0  0  0  0  0  0  0  0  0
    4.9422    1.8413   16.7184 H   0  0  0  0  0  0  0  0  0  0  0  0
    4.8655    1.5226   18.8557 C   0  0  0  0  0  0  0  0  0  0  0  0
    3.9321    2.0586   18.9849 H   0  0  0  0  0  0  0  0  0  0  0  0
    5.5223    0.9424   19.9374 C   0  0  0  0  0  0  0  0  0  0  0  0
    5.1390    1.0335   20.9581 H   0  0  0  0  0  0  0  0  0  0  0  0
    6.6566   -0.1139   23.1292 N   0  0  0  0  0  0  0  0  0  0  0  0
    7.6116   -0.0934   23.4819 H   0  0  0  0  0  0  0  0  0  0  0  0
    6.1222   -0.6112   23.8394 H   0  0  0  0  0  0  0  0  0  0  0  0
    7.4112   -5.9424   22.4230 C   0  0  0  0  0  0  0  0  0  0  0  0
    6.7206   -6.2145   21.6266 H   0  0  0  0  0  0  0  0  0  0  0  0
    8.2909   -6.8665   22.9965 C   0  0  0  0  0  0  0  0  0  0  0  0
    8.3027   -7.9050   22.6617 H   0  0  0  0  0  0  0  0  0  0  0  0
    9.1420   -6.4489   24.0277 C   0  0  0  0  0  0  0  0  0  0  0  0
    9.8563   -7.1140   24.5024 H   0  0  0  0  0  0  0  0  0  0  0  0
  1  2  1  0
  2  3  2  0
  3  4  1  0
  4  5  1  0
  5  6  2  0
  5  7  1  0
  7  8  1  0
  7  9  1  0
  9 10  1  6
  9 11  1  0
 11 12  2  0
 11 13  1  0
 13 14  2  0
 14 15  1  0
 14 16  1  0
 16 17  2  0
 17 18  1  0
 17 19  1  0
 19 20  1  0
 19 21  2  0
 21 22  1  0
  9 23  1  0
 23 24  1  0
 23 25  1  0
  4 26  2  0
 26 27  1  0
 26 28  1  0
 28 29  1  0
 28 30  2  0
 30 31  1  0
 30  2  1  0
 21 13  1  0
M  END
>  <plip>  (1) 
-0.20689655172413793

>  <filename>  (1) 
[H][c]1[n][c]([C](=[O])[N]([H])[C@]([H])([C](=[O])[c]2[c]([H])[n][c]([H])[c]([H])[c]2[H])[N]([H])[H])[c]([H])[c]([H])[c]1[H]

$$$$
