
     RDKit          3D

 33 35  0  0  0  0  0  0  0  0999 V2000
    4.9648    1.9153   16.9079 H   0  0  0  0  0  0  0  0  0  0  0  0
    5.3959    1.3437   17.7296 C   0  0  0  0  0  0  0  0  0  0  0  0
    6.5345    0.6877   17.4627 N   0  0  0  0  0  0  0  0  0  0  0  0
    7.0850   -0.0075   18.4667 C   0  0  0  0  0  0  0  0  0  0  0  0
    8.0350   -0.4871   18.2333 H   0  0  0  0  0  0  0  0  0  0  0  0
    6.5382   -0.1283   19.7613 C   0  0  0  0  0  0  0  0  0  0  0  0
    7.2885   -0.8838   20.8516 C   0  0  2  0  0  0  0  0  0  0  0  0
    8.1886   -1.3068   20.4065 H   0  0  0  0  0  0  0  0  0  0  0  0
    6.4878   -2.0283   21.5600 C   0  0  0  0  0  0  0  0  0  0  0  0
    7.0171   -2.9849   21.5001 H   0  0  0  0  0  0  0  0  0  0  0  0
    5.5019   -2.1672   21.0921 H   0  0  0  0  0  0  0  0  0  0  0  0
    6.4061   -1.6090   22.9504 N   0  0  0  0  0  0  0  0  0  0  0  0
    5.6657   -1.8748   23.5887 H   0  0  0  0  0  0  0  0  0  0  0  0
    6.8213   -0.3332   23.1619 C   0  0  0  0  0  0  0  0  0  0  0  0
    6.4885    0.3349   24.1191 O   0  0  0  0  0  0  0  0  0  0  0  0
    7.7326    0.0529   21.9891 C   0  0  1  0  0  0  0  0  0  0  0  0
    7.5873    1.1072   21.7385 H   0  0  0  0  0  0  0  0  0  0  0  0
    9.1147   -0.1905   22.2978 O   0  0  0  0  0  0  0  0  0  0  0  0
    9.7916    0.7231   23.0557 C   0  0  0  0  0  0  0  0  0  0  0  0
    9.2230    1.8725   23.6270 C   0  0  0  0  0  0  0  0  0  0  0  0
    8.1423    1.9837   23.6679 H   0  0  0  0  0  0  0  0  0  0  0  0
   10.0732    2.8169   24.2145 C   0  0  0  0  0  0  0  0  0  0  0  0
    9.6613    3.7565   24.5739 H   0  0  0  0  0  0  0  0  0  0  0  0
   11.4441    2.5869   24.3282 C   0  0  0  0  0  0  0  0  0  0  0  0
   12.0927    3.3499   24.7364 H   0  0  0  0  0  0  0  0  0  0  0  0
   11.9581    1.3641   23.8807 C   0  0  0  0  0  0  0  0  0  0  0  0
   13.6321    0.9704   24.1094 Cl  0  0  0  0  0  0  0  0  0  0  0  0
   11.1491    0.4368   23.2369 C   0  0  0  0  0  0  0  0  0  0  0  0
   11.5420   -0.5078   22.8747 H   0  0  0  0  0  0  0  0  0  0  0  0
    5.3501    0.5740   20.0156 C   0  0  0  0  0  0  0  0  0  0  0  0
    4.8915    0.5679   21.0067 H   0  0  0  0  0  0  0  0  0  0  0  0
    4.7691    1.3153   18.9792 C   0  0  0  0  0  0  0  0  0  0  0  0
    3.8598    1.8850   19.1332 H   0  0  0  0  0  0  0  0  0  0  0  0
  1  2  1  0
  2  3  2  0
  3  4  1  0
  4  5  1  0
  4  6  2  0
  6  7  1  0
  7  8  1  6
  7  9  1  0
  9 10  1  0
  9 11  1  0
  9 12  1  0
 12 13  1  0
 12 14  1  0
 14 15  2  0
 14 16  1  0
 16 17  1  6
 16 18  1  0
 18 19  1  0
 19 20  2  0
 20 21  1  0
 20 22  1  0
 22 23  1  0
 22 24  2  0
 24 25  1  0
 24 26  1  0
 26 27  1  0
 26 28  2  0
 28 29  1  0
  6 30  1  0
 30 31  1  0
 30 32  2  0
 32 33  1  0
 32  2  1  0
 16  7  1  0
 28 19  1  0
M  END
>  <plip>  (1) 
-0.10714285714285714

>  <filename>  (1) 
[H][c]1[n][c]([H])[c]([C@]2([H])[C]([H])([H])[N]([H])[C](=[O])[C@@]2([H])[O][c]2[c]([H])[c]([H])[c]([H])[c]([Cl])[c]2[H])[c]([H])[c]1[H]

$$$$
