
     RDKit          3D

 41 43  0  0  0  0  0  0  0  0999 V2000
    8.5680   -1.7248   26.8276 C   0  0  0  0  0  0  0  0  0  0  0  0
    8.2200   -3.1500   26.4499 C   0  0  0  0  0  0  0  0  0  0  0  0
    8.8671   -4.2174   27.0868 C   0  0  0  0  0  0  0  0  0  0  0  0
    8.4977   -5.5420   26.8450 C   0  0  0  0  0  0  0  0  0  0  0  0
    7.4947   -5.8314   25.9263 C   0  0  0  0  0  0  0  0  0  0  0  0
    6.8957   -4.7846   25.2264 C   0  0  0  0  0  0  0  0  0  0  0  0
    7.2313   -3.4455   25.4744 C   0  0  0  0  0  0  0  0  0  0  0  0
    6.4059   -2.3680   24.7787 C   0  0  0  0  0  0  0  0  0  0  0  0
    5.6252   -1.6882   25.7740 O   0  0  0  0  0  0  0  0  0  0  0  0
    5.4320   -2.3475   26.4599 H   0  0  0  0  0  0  0  0  0  0  0  0
    7.2368   -1.3160   24.0208 C   0  0  0  0  0  0  0  0  0  0  0  0
    6.6563   -0.7688   22.7144 N   0  0  0  0  0  4  0  0  0  0  0  0
    6.6458   -1.6518   21.4139 C   0  0  0  0  0  0  0  0  0  0  0  0
    7.3810   -0.5534   20.5715 C   0  0  0  0  0  0  0  0  0  0  0  0
    8.5968   -1.0127   20.0796 F   0  0  0  0  0  0  0  0  0  0  0  0
    6.6369    0.1431   19.4566 C   0  0  0  0  0  0  0  0  0  0  0  0
    5.4346    0.8083   19.7196 C   0  0  0  0  0  0  0  0  0  0  0  0
    4.8001    1.5074   18.6909 C   0  0  0  0  0  0  0  0  0  0  0  0
    5.3886    1.5122   17.4243 C   0  0  0  0  0  0  0  0  0  0  0  0
    6.5249    0.8592   17.1412 N   0  0  0  0  0  0  0  0  0  0  0  0
    7.1301    0.1990   18.1335 C   0  0  0  0  0  0  0  0  0  0  0  0
    8.0543   -0.3040   17.8617 H   0  0  0  0  0  0  0  0  0  0  0  0
    4.9341    2.0610   16.5999 H   0  0  0  0  0  0  0  0  0  0  0  0
    3.8864    2.0610   18.8620 H   0  0  0  0  0  0  0  0  0  0  0  0
    5.0127    0.7919   20.7270 H   0  0  0  0  0  0  0  0  0  0  0  0
    7.5487    0.2347   21.9174 C   0  0  0  0  0  0  0  0  0  0  0  0
    8.5797    0.2059   22.2680 H   0  0  0  0  0  0  0  0  0  0  0  0
    7.1659    1.2501   21.9384 H   0  0  0  0  0  0  0  0  0  0  0  0
    7.2623   -2.5371   21.5545 H   0  0  0  0  0  0  0  0  0  0  0  0
    5.6389   -1.9065   21.0986 H   0  0  0  0  0  0  0  0  0  0  0  0
    5.6918   -0.4193   22.9463 H   0  0  0  0  0  0  0  0  0  0  0  0
    7.3578   -0.4679   24.6915 H   0  0  0  0  0  0  0  0  0  0  0  0
    8.2205   -1.7372   23.7894 H   0  0  0  0  0  0  0  0  0  0  0  0
    5.7347   -2.8746   24.0641 H   0  0  0  0  0  0  0  0  0  0  0  0
    6.1413   -4.9978   24.4727 H   0  0  0  0  0  0  0  0  0  0  0  0
    7.1486   -6.8469   25.7953 H   0  0  0  0  0  0  0  0  0  0  0  0
    8.9885   -6.3523   27.3732 H   0  0  0  0  0  0  0  0  0  0  0  0
    9.6601   -4.0172   27.8017 H   0  0  0  0  0  0  0  0  0  0  0  0
    9.1932   -1.2575   26.0651 H   0  0  0  0  0  0  0  0  0  0  0  0
    7.6619   -1.1176   26.9434 H   0  0  0  0  0  0  0  0  0  0  0  0
    9.1408   -1.6712   27.7577 H   0  0  0  0  0  0  0  0  0  0  0  0
  1  2  1  0
  2  3  2  0
  3  4  1  0
  4  5  2  0
  5  6  1  0
  6  7  2  0
  7  8  1  0
  8  9  1  0
  9 10  1  0
  8 11  1  0
 11 12  1  0
 12 13  1  0
 13 14  1  0
 14 15  1  0
 14 16  1  0
 16 17  2  0
 17 18  1  0
 18 19  2  0
 19 20  1  0
 20 21  2  0
 21 22  1  0
 19 23  1  0
 18 24  1  0
 17 25  1  0
 14 26  1  0
 26 27  1  0
 26 28  1  0
 13 29  1  0
 13 30  1  0
 12 31  1  0
 11 32  1  0
 11 33  1  0
  8 34  1  0
  6 35  1  0
  5 36  1  0
  4 37  1  0
  3 38  1  0
  1 39  1  0
  1 40  1  0
  1 41  1  0
  7  2  1  0
 26 12  1  0
 21 16  1  0
M  CHG  1  12   1
M  END
>  <plip>  (1) 
-0.13793103448275862

>  <filename>  (1) 
[H][O][C]([H])([c]1[c]([H])[c]([H])[c]([H])[c]([H])[c]1[C]([H])([H])[H])[C]([H])([H])[N+]1([H])[C]([H])([H])[C]([F])([c]2[c]([H])[n][c]([H])[c]([H])[c]2[H])[C]1([H])[H]

$$$$
