
     RDKit          3D

 45 48  0  0  0  0  0  0  0  0999 V2000
    4.9261    1.7799   16.9984 H   0  0  0  0  0  0  0  0  0  0  0  0
    5.4019    1.2918   17.8454 C   0  0  0  0  0  0  0  0  0  0  0  0
    6.5642    0.6741   17.5867 N   0  0  0  0  0  0  0  0  0  0  0  0
    7.1693    0.0606   18.6056 C   0  0  0  0  0  0  0  0  0  0  0  0
    8.1168   -0.4263   18.3864 H   0  0  0  0  0  0  0  0  0  0  0  0
    6.6480    0.0168   19.9070 C   0  0  0  0  0  0  0  0  0  0  0  0
    7.4200   -0.6869   20.9181 C   0  0  0  0  0  0  0  0  0  0  0  0
    8.5575   -1.2940   20.7957 N   0  0  0  0  0  0  0  0  0  0  0  0
    8.8889   -1.7691   22.0551 N   0  0  0  0  0  0  0  0  0  0  0  0
    7.9407   -1.4106   22.8572 C   0  0  0  0  0  0  0  0  0  0  0  0
    7.8523   -1.6964   24.3218 C   0  0  0  0  0  0  0  0  0  0  0  0
    8.4444   -0.7662   25.1974 O   0  0  0  0  0  0  0  0  0  0  0  0
    7.8075    0.5102   25.1985 C   0  0  0  0  0  0  0  0  0  0  0  0
    6.7682    0.4408   24.8478 H   0  0  0  0  0  0  0  0  0  0  0  0
    7.7825    0.8536   26.2377 H   0  0  0  0  0  0  0  0  0  0  0  0
    8.5776    1.5228   24.3473 C   0  0  0  0  0  0  0  0  0  0  0  0
    9.5127    1.7427   24.8782 H   0  0  0  0  0  0  0  0  0  0  0  0
    8.8885    1.0699   23.3892 H   0  0  0  0  0  0  0  0  0  0  0  0
    7.8075    2.7537   24.1515 N   0  0  0  0  0  0  0  0  0  0  0  0
    6.8887    2.6368   23.0060 C   0  0  0  0  0  0  0  0  0  0  0  0
    7.4571    2.4870   22.0670 H   0  0  0  0  0  0  0  0  0  0  0  0
    6.2607    1.7487   23.1278 H   0  0  0  0  0  0  0  0  0  0  0  0
    6.0088    3.8745   22.8596 C   0  0  0  0  0  0  0  0  0  0  0  0
    5.3614    3.7581   21.9824 H   0  0  0  0  0  0  0  0  0  0  0  0
    5.3525    3.9455   23.7336 H   0  0  0  0  0  0  0  0  0  0  0  0
    6.8585    5.1453   22.7369 C   0  0  0  0  0  0  0  0  0  0  0  0
    7.4032    5.1290   21.7811 H   0  0  0  0  0  0  0  0  0  0  0  0
    6.2233    6.0378   22.7178 H   0  0  0  0  0  0  0  0  0  0  0  0
    7.8635    5.2173   23.8921 C   0  0  0  0  0  0  0  0  0  0  0  0
    8.5448    6.0658   23.7625 H   0  0  0  0  0  0  0  0  0  0  0  0
    7.3343    5.3774   24.8388 H   0  0  0  0  0  0  0  0  0  0  0  0
    8.6752    3.9278   23.9986 C   0  0  0  0  0  0  0  0  0  0  0  0
    9.3358    3.9853   24.8722 H   0  0  0  0  0  0  0  0  0  0  0  0
    9.3322    3.8350   23.1081 H   0  0  0  0  0  0  0  0  0  0  0  0
    8.0122   -3.1239   24.7485 C   0  0  0  0  0  0  0  0  0  0  0  0
    8.1275   -3.8692   23.9658 H   0  0  0  0  0  0  0  0  0  0  0  0
    8.6112   -3.3051   25.6371 H   0  0  0  0  0  0  0  0  0  0  0  0
    6.6791   -2.4500   24.8906 C   0  0  0  0  0  0  0  0  0  0  0  0
    5.8599   -2.7281   24.2368 H   0  0  0  0  0  0  0  0  0  0  0  0
    6.3910   -2.1642   25.8981 H   0  0  0  0  0  0  0  0  0  0  0  0
    6.9561   -0.7224   22.1972 O   0  0  0  0  0  0  0  0  0  0  0  0
    5.4275    0.6626   20.1686 C   0  0  0  0  0  0  0  0  0  0  0  0
    4.9911    0.6487   21.1720 H   0  0  0  0  0  0  0  0  0  0  0  0
    4.7998    1.3141   19.1091 C   0  0  0  0  0  0  0  0  0  0  0  0
    3.8667    1.8453   19.2522 H   0  0  0  0  0  0  0  0  0  0  0  0
  1  2  1  0
  2  3  2  0
  3  4  1  0
  4  5  1  0
  4  6  2  0
  6  7  1  0
  7  8  2  0
  8  9  1  0
  9 10  2  0
 10 11  1  0
 11 12  1  0
 12 13  1  0
 13 14  1  0
 13 15  1  0
 13 16  1  0
 16 17  1  0
 16 18  1  0
 16 19  1  0
 19 20  1  0
 20 21  1  0
 20 22  1  0
 20 23  1  0
 23 24  1  0
 23 25  1  0
 23 26  1  0
 26 27  1  0
 26 28  1  0
 26 29  1  0
 29 30  1  0
 29 31  1  0
 29 32  1  0
 32 33  1  0
 32 34  1  0
 11 35  1  0
 35 36  1  0
 35 37  1  0
 35 38  1  0
 38 39  1  0
 38 40  1  0
 10 41  1  0
  6 42  1  0
 42 43  1  0
 42 44  2  0
 44 45  1  0
 44  2  1  0
 41  7  1  0
 38 11  1  0
 32 19  1  0
M  END
>  <plip>  (1) 
-0.0

>  <filename>  (1) 
[H][c]1[n][c]([H])[c](-[c]2[n][n][c]([C]3([O][C]([H])([H])[C]([H])([H])[N]4[C]([H])([H])[C]([H])([H])[C]([H])([H])[C]([H])([H])[C]4([H])[H])[C]([H])([H])[C]3([H])[H])[o]2)[c]([H])[c]1[H]

$$$$
