
     RDKit          3D

 36 38  0  0  0  0  0  0  0  0999 V2000
    5.0276    1.5740   16.8753 H   0  0  0  0  0  0  0  0  0  0  0  0
    5.4677    1.1844   17.7913 C   0  0  0  0  0  0  0  0  0  0  0  0
    6.5982    0.4796   17.6507 N   0  0  0  0  0  0  0  0  0  0  0  0
    7.1668    0.0068   18.7684 C   0  0  0  0  0  0  0  0  0  0  0  0
    8.0710   -0.5837   18.6122 H   0  0  0  0  0  0  0  0  0  0  0  0
    6.6718    0.2034   20.0718 C   0  0  0  0  0  0  0  0  0  0  0  0
    7.5137   -0.2856   21.2648 C   0  0  0  0  0  0  0  0  0  0  0  0
    7.8138   -2.0621   20.8412 S   0  0  0  0  0  0  0  0  0  0  0  0
    8.9795   -2.6207   22.0415 C   0  0  0  0  0  0  0  0  0  0  0  0
    8.5676   -3.4602   23.0869 C   0  0  0  0  0  0  0  0  0  0  0  0
    7.5100   -3.6978   23.1771 H   0  0  0  0  0  0  0  0  0  0  0  0
    9.5057   -3.9550   24.0036 C   0  0  0  0  0  0  0  0  0  0  0  0
    9.1902   -4.6312   24.7937 H   0  0  0  0  0  0  0  0  0  0  0  0
   10.8513   -3.5845   23.8955 C   0  0  0  0  0  0  0  0  0  0  0  0
   11.5591   -3.9379   24.6395 H   0  0  0  0  0  0  0  0  0  0  0  0
   11.2650   -2.7659   22.8349 C   0  0  0  0  0  0  0  0  0  0  0  0
   12.3044   -2.4842   22.7178 H   0  0  0  0  0  0  0  0  0  0  0  0
   10.3392   -2.3097   21.8907 C   0  0  0  0  0  0  0  0  0  0  0  0
   10.6663   -1.7444   21.0205 H   0  0  0  0  0  0  0  0  0  0  0  0
    8.7882    0.5736   21.4122 C   0  0  0  0  0  0  0  0  0  0  0  0
    9.4259    0.5062   20.5258 H   0  0  0  0  0  0  0  0  0  0  0  0
    9.3691    0.2147   22.2684 H   0  0  0  0  0  0  0  0  0  0  0  0
    8.3890    2.0425   21.6619 C   0  0  0  0  0  0  0  0  0  0  0  0
    8.2260    2.5372   20.7012 H   0  0  0  0  0  0  0  0  0  0  0  0
    9.1929    2.5740   22.1977 H   0  0  0  0  0  0  0  0  0  0  0  0
    7.1539    2.1987   22.3546 O   0  0  0  0  0  0  0  0  0  0  0  0
    6.8577    1.1867   23.2925 C   0  0  0  0  0  0  0  0  0  0  0  0
    5.8978    1.4690   23.7401 H   0  0  0  0  0  0  0  0  0  0  0  0
    7.6065    1.1862   24.1022 H   0  0  0  0  0  0  0  0  0  0  0  0
    6.7726   -0.2048   22.6251 C   0  0  0  0  0  0  0  0  0  0  0  0
    5.7472   -0.4549   22.3994 H   0  0  0  0  0  0  0  0  0  0  0  0
    7.1409   -0.9616   23.3257 H   0  0  0  0  0  0  0  0  0  0  0  0
    5.4802    0.9369   20.1857 C   0  0  0  0  0  0  0  0  0  0  0  0
    5.0212    1.1436   21.1532 H   0  0  0  0  0  0  0  0  0  0  0  0
    4.8692    1.4272   19.0291 C   0  0  0  0  0  0  0  0  0  0  0  0
    3.9634    2.0202   19.0807 H   0  0  0  0  0  0  0  0  0  0  0  0
  1  2  1  0
  2  3  2  0
  3  4  1  0
  4  5  1  0
  4  6  2  0
  6  7  1  0
  7  8  1  0
  8  9  1  0
  9 10  2  0
 10 11  1  0
 10 12  1  0
 12 13  1  0
 12 14  2  0
 14 15  1  0
 14 16  1  0
 16 17  1  0
 16 18  2  0
 18 19  1  0
  7 20  1  0
 20 21  1  0
 20 22  1  0
 20 23  1  0
 23 24  1  0
 23 25  1  0
 23 26  1  0
 26 27  1  0
 27 28  1  0
 27 29  1  0
 27 30  1  0
 30 31  1  0
 30 32  1  0
  6 33  1  0
 33 34  1  0
 33 35  2  0
 35 36  1  0
 35  2  1  0
 30  7  1  0
 18  9  1  0
M  END
>  <plip>  (1) 
-0.10714285714285714

>  <filename>  (1) 
[H][c]1[n][c]([H])[c]([C]2([S][c]3[c]([H])[c]([H])[c]([H])[c]([H])[c]3[H])[C]([H])([H])[C]([H])([H])[O][C]([H])([H])[C]2([H])[H])[c]([H])[c]1[H]

$$$$
