
     RDKit          3D

 39 40  0  0  0  0  0  0  0  0999 V2000
    7.2315   -0.3577   24.2721 C   0  0  0  0  0  0  0  0  0  0  0  0
    8.1356   -0.5620   23.2025 O   0  0  0  0  0  0  0  0  0  0  0  0
    7.6991    0.2005   22.0971 N   0  0  0  0  0  0  0  0  0  0  0  0
    7.3795   -0.7159   21.0032 C   0  0  0  0  0  0  0  0  0  0  0  0
    6.6495   -0.0137   19.8735 C   0  0  0  0  0  0  0  0  0  0  0  0
    5.4391    0.6501   20.1230 C   0  0  0  0  0  0  0  0  0  0  0  0
    4.7961    1.3097   19.0704 C   0  0  0  0  0  0  0  0  0  0  0  0
    5.3980    1.3028   17.8081 C   0  0  0  0  0  0  0  0  0  0  0  0
    6.5588    0.6848   17.5509 N   0  0  0  0  0  0  0  0  0  0  0  0
    7.1640    0.0588   18.5722 C   0  0  0  0  0  0  0  0  0  0  0  0
    8.1121   -0.4185   18.3188 H   0  0  0  0  0  0  0  0  0  0  0  0
    4.9316    1.8183   16.9671 H   0  0  0  0  0  0  0  0  0  0  0  0
    3.8626    1.8478   19.2188 H   0  0  0  0  0  0  0  0  0  0  0  0
    5.0324    0.6595   21.1350 H   0  0  0  0  0  0  0  0  0  0  0  0
    6.7463   -1.4832   21.4657 H   0  0  0  0  0  0  0  0  0  0  0  0
    8.2770   -1.2339   20.6303 H   0  0  0  0  0  0  0  0  0  0  0  0
    8.6509    1.2619   21.8021 C   0  0  0  0  0  0  0  0  0  0  0  0
    9.9943    0.8938   21.1131 C   0  0  0  0  0  0  0  0  0  0  0  0
   10.8785   -0.1130   21.8632 C   0  0  0  0  0  0  0  0  0  0  0  0
   11.5033    0.5105   23.1291 C   0  0  0  0  0  0  0  0  0  0  0  0
   12.3296    1.7730   22.8073 C   0  0  0  0  0  0  0  0  0  0  0  0
   11.4753    2.8119   22.0616 C   0  0  0  0  0  0  0  0  0  0  0  0
   10.7766    2.1906   20.8456 C   0  0  0  0  0  0  0  0  0  0  0  0
   10.0234    2.8745   20.4726 H   0  0  0  0  0  0  0  0  0  0  0  0
   11.5477    2.0399   20.0810 H   0  0  0  0  0  0  0  0  0  0  0  0
   12.1002    3.6428   21.7060 H   0  0  0  0  0  0  0  0  0  0  0  0
   10.7269    3.2563   22.7341 H   0  0  0  0  0  0  0  0  0  0  0  0
   12.7743    2.2084   23.7154 H   0  0  0  0  0  0  0  0  0  0  0  0
   13.1802    1.4815   22.1726 H   0  0  0  0  0  0  0  0  0  0  0  0
   10.6841    0.7685   23.8195 H   0  0  0  0  0  0  0  0  0  0  0  0
   12.1244   -0.2337   23.6424 H   0  0  0  0  0  0  0  0  0  0  0  0
   11.6716   -0.4422   21.1736 H   0  0  0  0  0  0  0  0  0  0  0  0
   10.2949   -1.0035   22.1191 H   0  0  0  0  0  0  0  0  0  0  0  0
    9.6932    0.4664   20.1415 H   0  0  0  0  0  0  0  0  0  0  0  0
    8.1064    1.9297   21.1202 H   0  0  0  0  0  0  0  0  0  0  0  0
    8.8212    1.8092   22.7397 H   0  0  0  0  0  0  0  0  0  0  0  0
    6.2265   -0.7072   24.0077 H   0  0  0  0  0  0  0  0  0  0  0  0
    7.1771    0.7015   24.5538 H   0  0  0  0  0  0  0  0  0  0  0  0
    7.6220   -0.9460   25.1047 H   0  0  0  0  0  0  0  0  0  0  0  0
  1  2  1  0
  2  3  1  0
  3  4  1  0
  4  5  1  0
  5  6  2  0
  6  7  1  0
  7  8  2  0
  8  9  1  0
  9 10  2  0
 10 11  1  0
  8 12  1  0
  7 13  1  0
  6 14  1  0
  4 15  1  0
  4 16  1  0
  3 17  1  0
 17 18  1  0
 18 19  1  0
 19 20  1  0
 20 21  1  0
 21 22  1  0
 22 23  1  0
 23 24  1  0
 23 25  1  0
 22 26  1  0
 22 27  1  0
 21 28  1  0
 21 29  1  0
 20 30  1  0
 20 31  1  0
 19 32  1  0
 19 33  1  0
 18 34  1  0
 17 35  1  0
 17 36  1  0
  1 37  1  0
  1 38  1  0
  1 39  1  0
 10  5  1  0
 23 18  1  0
M  END
>  <plip>  (1) 
-0.03571428571428571

>  <filename>  (1) 
[H][c]1[n][c]([H])[c]([C]([H])([H])[N]([O][C]([H])([H])[H])[C]([H])([H])[C]2([H])[C]([H])([H])[C]([H])([H])[C]([H])([H])[C]([H])([H])[C]2([H])[H])[c]([H])[c]1[H]

$$$$
