
     RDKit          3D

 33 35  0  0  0  0  0  0  0  0999 V2000
    4.7905    1.3433   19.0435 C   0  0  0  0  0  0  0  0  0  0  0  0
    5.4249    1.2733   17.7991 C   0  0  0  0  0  0  0  0  0  0  0  0
    6.5712    0.6060   17.5999 N   0  0  0  0  0  0  0  0  0  0  0  0
    7.1349    0.0279   18.6680 C   0  0  0  0  0  0  0  0  0  0  0  0
    6.6388    0.1182   19.9807 C   0  0  0  0  0  0  0  0  0  0  0  0
    7.4082   -0.4765   21.1371 C   0  0  0  0  0  0  0  0  0  0  0  0
    8.8871   -0.0918   21.2982 C   0  0  0  0  0  0  0  0  0  0  0  0
    9.6827   -1.4027   21.4759 C   0  0  0  0  0  0  0  0  0  0  0  0
    8.6723   -2.5438   21.5927 C   0  0  0  0  0  0  0  0  0  0  0  0
    7.4608   -1.9787   20.9110 N   0  0  0  0  0  4  0  0  0  0  0  0
    6.1450   -2.6572   21.1793 C   0  0  0  0  0  0  0  0  0  0  0  0
    6.1044   -4.1296   20.8657 C   0  0  0  0  0  0  0  0  0  0  0  0
    5.5675   -4.5311   19.7375 N   0  0  0  0  0  0  0  0  0  0  0  0
    5.6819   -6.1731   19.6184 S   0  0  0  0  0  0  0  0  0  0  0  0
    6.4528   -6.3625   21.1302 C   0  0  0  0  0  0  0  0  0  0  0  0
    6.6137   -5.1481   21.7225 C   0  0  0  0  0  0  0  0  0  0  0  0
    7.0819   -4.9778   22.6918 H   0  0  0  0  0  0  0  0  0  0  0  0
    6.7293   -7.3415   21.4992 H   0  0  0  0  0  0  0  0  0  0  0  0
    5.8714   -2.5217   22.2342 H   0  0  0  0  0  0  0  0  0  0  0  0
    5.3777   -2.1690   20.5787 H   0  0  0  0  0  0  0  0  0  0  0  0
    7.6343   -2.0381   19.8746 H   0  0  0  0  0  0  0  0  0  0  0  0
    8.4555   -2.8059   22.6369 H   0  0  0  0  0  0  0  0  0  0  0  0
    9.0028   -3.4498   21.0735 H   0  0  0  0  0  0  0  0  0  0  0  0
   10.3230   -1.5709   20.6124 H   0  0  0  0  0  0  0  0  0  0  0  0
   10.3440   -1.3774   22.3426 H   0  0  0  0  0  0  0  0  0  0  0  0
    9.2454    0.4833   20.4398 H   0  0  0  0  0  0  0  0  0  0  0  0
    9.0067    0.5608   22.1632 H   0  0  0  0  0  0  0  0  0  0  0  0
    6.8645   -0.2839   22.0718 H   0  0  0  0  0  0  0  0  0  0  0  0
    5.3953    0.7446   20.1531 C   0  0  0  0  0  0  0  0  0  0  0  0
    4.9003    0.7466   21.1293 H   0  0  0  0  0  0  0  0  0  0  0  0
    8.0489   -0.5269   18.4540 H   0  0  0  0  0  0  0  0  0  0  0  0
    4.9973    1.7658   16.9244 H   0  0  0  0  0  0  0  0  0  0  0  0
    3.8489    1.8699   19.1287 H   0  0  0  0  0  0  0  0  0  0  0  0
  1  2  2  0
  2  3  1  0
  3  4  2  0
  4  5  1  0
  5  6  1  0
  6  7  1  0
  7  8  1  0
  8  9  1  0
  9 10  1  0
 10 11  1  0
 11 12  1  0
 12 13  2  0
 13 14  1  0
 14 15  1  0
 15 16  2  0
 16 17  1  0
 15 18  1  0
 11 19  1  0
 11 20  1  0
 10 21  1  0
  9 22  1  0
  9 23  1  0
  8 24  1  0
  8 25  1  0
  7 26  1  0
  7 27  1  0
  6 28  1  0
  5 29  2  0
 29 30  1  0
  4 31  1  0
  2 32  1  0
  1 33  1  0
 29  1  1  0
 10  6  1  0
 16 12  1  0
M  CHG  1  10   1
M  END
>  <plip>  (1) 
-0.10714285714285714

>  <filename>  (1) 
[H][c]1[n][c]([H])[c]([C]2([H])[C]([H])([H])[C]([H])([H])[C]([H])([H])[N+]2([H])[C]([H])([H])[c]2[n][s][c]([H])[c]2[H])[c]([H])[c]1[H]

$$$$
