
     RDKit          3D

 36 38  0  0  0  0  0  0  0  0999 V2000
    6.6060    1.2960   23.1638 O   0  0  0  0  0  0  0  0  0  0  0  0
    7.6787    1.2947   22.6121 C   0  0  0  0  0  0  0  0  0  0  0  0
    8.6260    2.2711   22.6927 N   0  0  0  0  0  0  0  0  0  0  0  0
    9.8108    1.9357   21.9214 C   0  0  0  0  0  0  0  0  0  0  0  0
   11.1568    1.9736   22.6311 C   0  0  0  0  0  0  0  0  0  0  0  0
   12.1269    2.9009   22.2026 C   0  0  0  0  0  0  0  0  0  0  0  0
   13.4674    2.7211   22.5406 C   0  0  0  0  0  0  0  0  0  0  0  0
   13.8529    1.5904   23.2645 C   0  0  0  0  0  0  0  0  0  0  0  0
   12.8842    0.7698   23.8364 C   0  0  0  0  0  0  0  0  0  0  0  0
   11.5229    1.0252   23.6112 C   0  0  0  0  0  0  0  0  0  0  0  0
   10.4978    0.3085   24.4849 C   0  0  0  0  0  0  0  0  0  0  0  0
    9.6069    1.1716   25.0171 F   0  0  0  0  0  0  0  0  0  0  0  0
   11.0674   -0.3382   25.5192 F   0  0  0  0  0  0  0  0  0  0  0  0
    9.7867   -0.6165   23.8046 F   0  0  0  0  0  0  0  0  0  0  0  0
   13.1771   -0.0157   24.5265 H   0  0  0  0  0  0  0  0  0  0  0  0
   14.9020    1.3445   23.3664 H   0  0  0  0  0  0  0  0  0  0  0  0
   14.2150    3.4135   22.1557 H   0  0  0  0  0  0  0  0  0  0  0  0
   11.8507    3.7296   21.5486 H   0  0  0  0  0  0  0  0  0  0  0  0
    9.4392    0.5403   21.3676 C   0  0  0  0  0  0  0  0  0  0  0  0
   10.1060   -0.2002   20.6956 O   0  0  0  0  0  0  0  0  0  0  0  0
    8.1522    0.2913   21.7768 N   0  0  0  0  0  0  0  0  0  0  0  0
    7.2672   -0.6608   21.1229 C   0  0  0  0  0  0  0  0  0  0  0  0
    6.5686    0.0133   19.9669 C   0  0  0  0  0  0  0  0  0  0  0  0
    5.3574    0.6992   20.1377 C   0  0  0  0  0  0  0  0  0  0  0  0
    4.7910    1.3336   19.0301 C   0  0  0  0  0  0  0  0  0  0  0  0
    5.4611    1.2764   17.8038 C   0  0  0  0  0  0  0  0  0  0  0  0
    6.6328    0.6489   17.6306 N   0  0  0  0  0  0  0  0  0  0  0  0
    7.1722    0.0512   18.7025 C   0  0  0  0  0  0  0  0  0  0  0  0
    8.1380   -0.4313   18.5508 H   0  0  0  0  0  0  0  0  0  0  0  0
    5.0420    1.7599   16.9215 H   0  0  0  0  0  0  0  0  0  0  0  0
    3.8635    1.8877   19.1065 H   0  0  0  0  0  0  0  0  0  0  0  0
    4.8965    0.7568   21.1261 H   0  0  0  0  0  0  0  0  0  0  0  0
    7.8734   -1.5201   20.8041 H   0  0  0  0  0  0  0  0  0  0  0  0
    6.5498   -1.0108   21.8737 H   0  0  0  0  0  0  0  0  0  0  0  0
    9.8836    2.5859   21.0357 H   0  0  0  0  0  0  0  0  0  0  0  0
    8.5945    2.8085   23.5447 H   0  0  0  0  0  0  0  0  0  0  0  0
  1  2  2  0
  2  3  1  0
  3  4  1  0
  4  5  1  0
  5  6  2  0
  6  7  1  0
  7  8  2  0
  8  9  1  0
  9 10  2  0
 10 11  1  0
 11 12  1  0
 11 13  1  0
 11 14  1  0
  9 15  1  0
  8 16  1  0
  7 17  1  0
  6 18  1  0
  4 19  1  0
 19 20  2  0
 19 21  1  0
 21 22  1  0
 22 23  1  0
 23 24  2  0
 24 25  1  0
 25 26  2  0
 26 27  1  0
 27 28  2  0
 28 29  1  0
 26 30  1  0
 25 31  1  0
 24 32  1  0
 22 33  1  0
 22 34  1  0
  4 35  1  0
  3 36  1  0
 21  2  1  0
 28 23  1  0
 10  5  1  0
M  END
>  <plip>  (1) 
-0.10714285714285714

>  <filename>  (1) 
[H][c]1[n][c]([H])[c]([C]([H])([H])[N]2[C](=[O])[N]([H])[C]([H])([c]3[c]([H])[c]([H])[c]([H])[c]([H])[c]3[C]([F])([F])[F])[C]2=[O])[c]([H])[c]1[H]

$$$$
