
     RDKit          3D

 39 41  0  0  0  0  0  0  0  0999 V2000
    6.4315    2.8696   27.2430 C   0  0  0  0  0  0  0  0  0  0  0  0
    7.5361    3.6177   26.5493 C   0  0  0  0  0  0  0  0  0  0  0  0
    8.1302    4.7591   27.1202 C   0  0  0  0  0  0  0  0  0  0  0  0
    9.1641    5.4488   26.4582 C   0  0  0  0  0  0  0  0  0  0  0  0
    9.6132    5.0044   25.2072 C   0  0  0  0  0  0  0  0  0  0  0  0
   11.0139    5.9306   24.2860 Br  0  0  0  0  0  0  0  0  0  0  0  0
    9.0137    3.8708   24.6476 C   0  0  0  0  0  0  0  0  0  0  0  0
    7.9957    3.1826   25.2991 C   0  0  0  0  0  0  0  0  0  0  0  0
    7.6148    2.0725   24.4254 C   0  0  0  0  0  0  0  0  0  0  0  0
    8.4003    2.1268   23.2814 C   0  0  0  0  0  0  0  0  0  0  0  0
    8.3679    1.2200   22.1084 C   0  0  0  0  0  0  0  0  0  0  0  0
    9.0672    1.4154   21.1143 O   0  0  0  0  0  0  0  0  0  0  0  0
    7.5418    0.1122   22.1255 N   0  0  0  0  0  0  0  0  0  0  0  0
    7.3910   -0.7717   20.9695 C   0  0  0  0  0  0  0  0  0  0  0  0
    6.6287   -2.0567   21.3615 C   0  0  0  0  0  0  0  0  0  0  0  0
    6.4653   -3.0204   20.3004 O   0  0  0  0  0  0  0  0  0  0  0  0
    5.9589   -2.6375   19.5621 H   0  0  0  0  0  0  0  0  0  0  0  0
    5.6410   -1.7731   21.7289 H   0  0  0  0  0  0  0  0  0  0  0  0
    7.1710   -2.5285   22.1851 H   0  0  0  0  0  0  0  0  0  0  0  0
    6.6534   -0.0017   19.8997 C   0  0  0  0  0  0  0  0  0  0  0  0
    5.4429    0.6500   20.1538 C   0  0  0  0  0  0  0  0  0  0  0  0
    4.8182    1.3045   19.0961 C   0  0  0  0  0  0  0  0  0  0  0  0
    5.4030    1.2984   17.8284 C   0  0  0  0  0  0  0  0  0  0  0  0
    6.5719    0.6841   17.5810 N   0  0  0  0  0  0  0  0  0  0  0  0
    7.1840    0.0598   18.6034 C   0  0  0  0  0  0  0  0  0  0  0  0
    8.1330   -0.4345   18.4168 H   0  0  0  0  0  0  0  0  0  0  0  0
    4.9015    1.8146   17.0172 H   0  0  0  0  0  0  0  0  0  0  0  0
    3.8820    1.8279   19.2367 H   0  0  0  0  0  0  0  0  0  0  0  0
    5.0001    0.6481   21.1478 H   0  0  0  0  0  0  0  0  0  0  0  0
    8.3847   -1.0670   20.6042 H   0  0  0  0  0  0  0  0  0  0  0  0
    6.9508   -0.0285   22.9434 H   0  0  0  0  0  0  0  0  0  0  0  0
    9.2486    3.2285   23.4384 N   0  0  0  0  0  0  0  0  0  0  0  0
    9.9324    3.5439   22.7495 H   0  0  0  0  0  0  0  0  0  0  0  0
    6.8341    1.3476   24.6511 H   0  0  0  0  0  0  0  0  0  0  0  0
    9.6187    6.3300   26.9075 H   0  0  0  0  0  0  0  0  0  0  0  0
    7.7774    5.0981   28.0875 H   0  0  0  0  0  0  0  0  0  0  0  0
    6.2047    3.3320   28.2075 H   0  0  0  0  0  0  0  0  0  0  0  0
    6.7335    1.8295   27.4108 H   0  0  0  0  0  0  0  0  0  0  0  0
    5.5273    2.8792   26.6237 H   0  0  0  0  0  0  0  0  0  0  0  0
  1  2  1  0
  2  3  2  0
  3  4  1  0
  4  5  2  0
  5  6  1  0
  5  7  1  0
  7  8  2  0
  8  9  1  0
  9 10  2  0
 10 11  1  0
 11 12  2  0
 11 13  1  0
 13 14  1  0
 14 15  1  0
 15 16  1  0
 16 17  1  0
 15 18  1  0
 15 19  1  0
 14 20  1  0
 20 21  2  0
 21 22  1  0
 22 23  2  0
 23 24  1  0
 24 25  2  0
 25 26  1  0
 23 27  1  0
 22 28  1  0
 21 29  1  0
 14 30  1  0
 13 31  1  0
 10 32  1  0
 32 33  1  0
  9 34  1  0
  4 35  1  0
  3 36  1  0
  1 37  1  0
  1 38  1  0
  1 39  1  0
  8  2  1  0
 25 20  1  0
 32  7  1  0
M  END
>  <plip>  (1) 
-0.25

>  <filename>  (1) 
[H][O][C]([H])([H])[C]([H])([c]1[c]([H])[n][c]([H])[c]([H])[c]1[H])[N]([H])[C](=[O])[c]1[c]([H])[c]2[c]([C]([H])([H])[H])[c]([H])[c]([H])[c]([Br])[c]2[n]1[H]

$$$$
