
     RDKit          3D

 41 42  0  0  0  0  0  0  0  0999 V2000
    4.1877    3.0213   24.3191 C   0  0  0  0  0  0  0  0  0  0  0  0
    4.5581    1.2564   24.1658 S   0  0  0  0  0  0  0  0  0  0  0  0
    5.0457    0.8373   25.8343 C   0  0  0  0  0  0  0  0  0  0  0  0
    4.0434    0.4501   26.7460 C   0  0  0  0  0  0  0  0  0  0  0  0
    4.3362    0.2649   28.1003 C   0  0  0  0  0  0  0  0  0  0  0  0
    5.6447    0.4446   28.5610 C   0  0  0  0  0  0  0  0  0  0  0  0
    6.6585    0.7724   27.6529 C   0  0  0  0  0  0  0  0  0  0  0  0
    6.3899    0.9173   26.2806 C   0  0  0  0  0  0  0  0  0  0  0  0
    7.4792    1.2230   25.3929 N   0  0  0  0  0  0  0  0  0  0  0  0
    8.0666    2.5662   25.4955 C   0  0  0  0  0  0  0  0  0  0  0  0
    9.1017    2.5258   25.8547 H   0  0  0  0  0  0  0  0  0  0  0  0
    8.0607    3.0515   24.5123 H   0  0  0  0  0  0  0  0  0  0  0  0
    7.4773    3.1716   26.1927 H   0  0  0  0  0  0  0  0  0  0  0  0
    7.8170    0.4582   24.2760 C   0  0  0  0  0  0  0  0  0  0  0  0
    8.5543    0.8681   23.3834 O   0  0  0  0  0  0  0  0  0  0  0  0
    7.2867   -0.7988   24.2255 N   0  0  0  0  0  0  0  0  0  0  0  0
    7.5606   -1.7779   23.1577 C   0  0  0  0  0  0  0  0  0  0  0  0
    6.8153   -1.6163   21.7905 C   0  0  0  0  0  0  0  0  0  0  0  0
    5.8592   -2.2944   21.4774 O   0  0  0  0  0  0  0  0  0  0  0  0
    7.4058   -0.6770   20.9541 N   0  0  0  0  0  0  0  0  0  0  0  0
    6.7097   -0.0301   19.8697 C   0  0  0  0  0  0  0  0  0  0  0  0
    5.4993    0.6191   20.1285 C   0  0  0  0  0  0  0  0  0  0  0  0
    4.8512    1.2876   19.0818 C   0  0  0  0  0  0  0  0  0  0  0  0
    5.4459    1.2967   17.8158 C   0  0  0  0  0  0  0  0  0  0  0  0
    6.6102    0.6868   17.5482 N   0  0  0  0  0  0  0  0  0  0  0  0
    7.2250    0.0441   18.5532 C   0  0  0  0  0  0  0  0  0  0  0  0
    8.1750   -0.4269   18.3125 H   0  0  0  0  0  0  0  0  0  0  0  0
    4.9652    1.8009   16.9788 H   0  0  0  0  0  0  0  0  0  0  0  0
    3.9142    1.8054   19.2338 H   0  0  0  0  0  0  0  0  0  0  0  0
    5.0956    0.6087   21.1463 H   0  0  0  0  0  0  0  0  0  0  0  0
    8.0745   -0.0864   21.4394 H   0  0  0  0  0  0  0  0  0  0  0  0
    7.2960   -2.7661   23.5373 H   0  0  0  0  0  0  0  0  0  0  0  0
    8.6333   -1.7931   22.9280 H   0  0  0  0  0  0  0  0  0  0  0  0
    6.6653   -1.0222   24.9840 H   0  0  0  0  0  0  0  0  0  0  0  0
    7.6784    0.9269   27.9973 H   0  0  0  0  0  0  0  0  0  0  0  0
    5.8690    0.3390   29.6220 H   0  0  0  0  0  0  0  0  0  0  0  0
    3.5411    0.0010   28.7964 H   0  0  0  0  0  0  0  0  0  0  0  0
    3.0250    0.3151   26.3832 H   0  0  0  0  0  0  0  0  0  0  0  0
    5.0653    3.5944   24.6273 H   0  0  0  0  0  0  0  0  0  0  0  0
    3.3645    3.2039   25.0131 H   0  0  0  0  0  0  0  0  0  0  0  0
    3.8836    3.3483   23.3215 H   0  0  0  0  0  0  0  0  0  0  0  0
  1  2  1  0
  2  3  1  0
  3  4  2  0
  4  5  1  0
  5  6  2  0
  6  7  1  0
  7  8  2  0
  8  9  1  0
  9 10  1  0
 10 11  1  0
 10 12  1  0
 10 13  1  0
  9 14  1  0
 14 15  2  0
 14 16  1  0
 16 17  1  0
 17 18  1  0
 18 19  2  0
 18 20  1  0
 20 21  1  0
 21 22  2  0
 22 23  1  0
 23 24  2  0
 24 25  1  0
 25 26  2  0
 26 27  1  0
 24 28  1  0
 23 29  1  0
 22 30  1  0
 20 31  1  0
 17 32  1  0
 17 33  1  0
 16 34  1  0
  7 35  1  0
  6 36  1  0
  5 37  1  0
  4 38  1  0
  1 39  1  0
  1 40  1  0
  1 41  1  0
  8  3  1  0
 26 21  1  0
M  END
>  <plip>  (1) 
-0.07142857142857142

>  <filename>  (1) 
[H][c]1[n][c]([H])[c]([N]([H])[C](=[O])[C]([H])([H])[N]([H])[C](=[O])[N]([c]2[c]([H])[c]([H])[c]([H])[c]([H])[c]2[S][C]([H])([H])[H])[C]([H])([H])[H])[c]([H])[c]1[H]

$$$$
