
     RDKit          3D

 43 44  0  0  0  0  0  0  0  0999 V2000
    8.4102   -0.2569   23.5529 C   0  0  0  0  0  0  0  0  0  0  0  0
    7.3993   -1.2937   23.2502 N   0  0  0  0  0  0  0  0  0  0  0  0
    7.0442   -2.2401   24.3331 C   0  0  0  0  0  0  0  0  0  0  0  0
    7.6724   -3.6135   24.1016 C   0  0  0  0  0  0  0  0  0  0  0  0
    7.5456   -4.5808   25.2725 C   0  0  0  0  0  0  0  0  0  0  0  0
    6.1361   -4.8583   25.6832 N   0  0  0  0  0  4  0  0  0  0  0  0
    6.1201   -5.7472   26.9237 C   0  0  0  0  0  0  0  0  0  0  0  0
    4.6948   -6.1443   27.3075 C   0  0  0  0  0  0  0  0  0  0  0  0
    4.0150   -6.7888   26.2353 O   0  0  0  0  0  0  0  0  0  0  0  0
    3.9334   -5.9393   25.0966 C   0  0  0  0  0  0  0  0  0  0  0  0
    5.3101   -5.5210   24.5774 C   0  0  0  0  0  0  0  0  0  0  0  0
    5.8441   -6.4140   24.2367 H   0  0  0  0  0  0  0  0  0  0  0  0
    5.2076   -4.8347   23.7338 H   0  0  0  0  0  0  0  0  0  0  0  0
    3.3650   -5.0289   25.3484 H   0  0  0  0  0  0  0  0  0  0  0  0
    3.3906   -6.4930   24.3287 H   0  0  0  0  0  0  0  0  0  0  0  0
    4.1474   -5.2367   27.6099 H   0  0  0  0  0  0  0  0  0  0  0  0
    4.7044   -6.8438   28.1451 H   0  0  0  0  0  0  0  0  0  0  0  0
    6.6835   -6.6615   26.7007 H   0  0  0  0  0  0  0  0  0  0  0  0
    6.6192   -5.2352   27.7522 H   0  0  0  0  0  0  0  0  0  0  0  0
    5.7126   -3.9340   25.9271 H   0  0  0  0  0  0  0  0  0  0  0  0
    8.0159   -5.5357   24.9990 H   0  0  0  0  0  0  0  0  0  0  0  0
    8.0981   -4.1994   26.1412 H   0  0  0  0  0  0  0  0  0  0  0  0
    7.2268   -4.0509   23.2054 H   0  0  0  0  0  0  0  0  0  0  0  0
    8.7394   -3.4820   23.8993 H   0  0  0  0  0  0  0  0  0  0  0  0
    5.9513   -2.3074   24.4340 H   0  0  0  0  0  0  0  0  0  0  0  0
    7.4103   -1.8239   25.2808 H   0  0  0  0  0  0  0  0  0  0  0  0
    6.8174   -1.4080   22.0153 C   0  0  0  0  0  0  0  0  0  0  0  0
    5.5972   -2.4913   21.6381 S   0  0  0  0  0  0  0  0  0  0  0  0
    7.3642   -0.5642   21.0430 N   0  0  0  0  0  0  0  0  0  0  0  0
    6.6717    0.0143   19.9392 C   0  0  0  0  0  0  0  0  0  0  0  0
    5.4413    0.6446   20.1658 C   0  0  0  0  0  0  0  0  0  0  0  0
    4.8167    1.3031   19.1054 C   0  0  0  0  0  0  0  0  0  0  0  0
    5.4050    1.2872   17.8397 C   0  0  0  0  0  0  0  0  0  0  0  0
    6.5689    0.6623   17.5950 N   0  0  0  0  0  0  0  0  0  0  0  0
    7.1847    0.0540   18.6175 C   0  0  0  0  0  0  0  0  0  0  0  0
    8.1299   -0.4294   18.3715 H   0  0  0  0  0  0  0  0  0  0  0  0
    4.9289    1.7833   16.9946 H   0  0  0  0  0  0  0  0  0  0  0  0
    3.8891    1.8325   19.2566 H   0  0  0  0  0  0  0  0  0  0  0  0
    5.0208    0.6128   21.1718 H   0  0  0  0  0  0  0  0  0  0  0  0
    8.3588   -0.7159   20.9636 H   0  0  0  0  0  0  0  0  0  0  0  0
    8.0366    0.7553   23.3472 H   0  0  0  0  0  0  0  0  0  0  0  0
    9.3428   -0.4022   22.9896 H   0  0  0  0  0  0  0  0  0  0  0  0
    8.6699   -0.2988   24.6143 H   0  0  0  0  0  0  0  0  0  0  0  0
  1  2  1  0
  2  3  1  0
  3  4  1  0
  4  5  1  0
  5  6  1  0
  6  7  1  0
  7  8  1  0
  8  9  1  0
  9 10  1  0
 10 11  1  0
 11 12  1  0
 11 13  1  0
 10 14  1  0
 10 15  1  0
  8 16  1  0
  8 17  1  0
  7 18  1  0
  7 19  1  0
  6 20  1  0
  5 21  1  0
  5 22  1  0
  4 23  1  0
  4 24  1  0
  3 25  1  0
  3 26  1  0
  2 27  1  0
 27 28  2  0
 27 29  1  0
 29 30  1  0
 30 31  2  0
 31 32  1  0
 32 33  2  0
 33 34  1  0
 34 35  2  0
 35 36  1  0
 33 37  1  0
 32 38  1  0
 31 39  1  0
 29 40  1  0
  1 41  1  0
  1 42  1  0
  1 43  1  0
 11  6  1  0
 35 30  1  0
M  CHG  1   6   1
M  END
>  <plip>  (1) 
-0.03571428571428571

>  <filename>  (1) 
[H][c]1[n][c]([H])[c]([N]([H])[C](=[S])[N]([C]([H])([H])[H])[C]([H])([H])[C]([H])([H])[C]([H])([H])[N+]2([H])[C]([H])([H])[C]([H])([H])[O][C]([H])([H])[C]2([H])[H])[c]([H])[c]1[H]

$$$$
