
     RDKit          3D

 38 40  0  0  0  0  0  0  0  0999 V2000
    8.8167   -1.9464   22.8174 O   0  0  0  0  0  0  0  0  0  0  0  0
    7.6421   -1.6597   22.7484 C   0  0  0  0  0  0  0  0  0  0  0  0
    6.9911   -0.8867   21.6747 C   0  0  0  0  0  0  0  0  0  0  0  0
    7.5464   -0.5385   20.5070 C   0  0  0  0  0  0  0  0  0  0  0  0
    6.7924    0.1901   19.4675 C   0  0  0  0  0  0  0  0  0  0  0  0
    5.5546    0.8116   19.7280 C   0  0  0  0  0  0  0  0  0  0  0  0
    4.8767    1.4431   18.6905 C   0  0  0  0  0  0  0  0  0  0  0  0
    5.4502    1.4502   17.4179 C   0  0  0  0  0  0  0  0  0  0  0  0
    6.6316    0.8750   17.1406 N   0  0  0  0  0  0  0  0  0  0  0  0
    7.2766    0.2755   18.1461 C   0  0  0  0  0  0  0  0  0  0  0  0
    8.2355   -0.1730   17.8818 H   0  0  0  0  0  0  0  0  0  0  0  0
    4.9509    1.9400   16.5854 H   0  0  0  0  0  0  0  0  0  0  0  0
    3.9246    1.9322   18.8610 H   0  0  0  0  0  0  0  0  0  0  0  0
    5.1349    0.8301   20.7334 H   0  0  0  0  0  0  0  0  0  0  0  0
    8.5840   -0.8107   20.2870 H   0  0  0  0  0  0  0  0  0  0  0  0
    5.9591   -0.6381   21.8838 H   0  0  0  0  0  0  0  0  0  0  0  0
    6.6994   -2.0145   23.6494 O   0  0  0  0  0  0  0  0  0  0  0  0
    7.0850   -2.8075   24.7783 C   0  0  0  0  0  0  0  0  0  0  0  0
    7.4182   -4.2512   24.3682 C   0  0  0  0  0  0  0  0  0  0  0  0
    7.8098   -5.0696   25.5537 C   0  0  0  0  0  0  0  0  0  0  0  0
    9.0517   -5.1769   26.1011 C   0  0  0  0  0  0  0  0  0  0  0  0
    8.9729   -5.8404   27.3089 N   0  0  0  0  0  0  0  0  0  0  0  0
    7.6715   -6.2199   27.5367 C   0  0  0  0  0  0  0  0  0  0  0  0
    7.0942   -6.9037   28.6193 C   0  0  0  0  0  0  0  0  0  0  0  0
    5.7213   -7.1138   28.5904 C   0  0  0  0  0  0  0  0  0  0  0  0
    4.9360   -6.6485   27.5095 C   0  0  0  0  0  0  0  0  0  0  0  0
    5.5167   -5.9827   26.4396 C   0  0  0  0  0  0  0  0  0  0  0  0
    6.9058   -5.7422   26.4475 C   0  0  0  0  0  0  0  0  0  0  0  0
    4.9184   -5.6554   25.5970 H   0  0  0  0  0  0  0  0  0  0  0  0
    3.8615   -6.7959   27.5328 H   0  0  0  0  0  0  0  0  0  0  0  0
    5.2334   -7.6457   29.4039 H   0  0  0  0  0  0  0  0  0  0  0  0
    7.7155   -7.2799   29.4272 H   0  0  0  0  0  0  0  0  0  0  0  0
    9.7628   -6.2134   27.8090 H   0  0  0  0  0  0  0  0  0  0  0  0
   10.0035   -4.8210   25.7225 H   0  0  0  0  0  0  0  0  0  0  0  0
    6.5453   -4.7060   23.8787 H   0  0  0  0  0  0  0  0  0  0  0  0
    8.2318   -4.2237   23.6338 H   0  0  0  0  0  0  0  0  0  0  0  0
    6.2213   -2.7828   25.4524 H   0  0  0  0  0  0  0  0  0  0  0  0
    7.9288   -2.3367   25.2978 H   0  0  0  0  0  0  0  0  0  0  0  0
  1  2  2  0
  2  3  1  0
  3  4  2  3
  4  5  1  0
  5  6  2  0
  6  7  1  0
  7  8  2  0
  8  9  1  0
  9 10  2  0
 10 11  1  0
  8 12  1  0
  7 13  1  0
  6 14  1  0
  4 15  1  0
  3 16  1  0
  2 17  1  0
 17 18  1  0
 18 19  1  0
 19 20  1  0
 20 21  2  0
 21 22  1  0
 22 23  1  0
 23 24  2  0
 24 25  1  0
 25 26  2  0
 26 27  1  0
 27 28  2  0
 27 29  1  0
 26 30  1  0
 25 31  1  0
 24 32  1  0
 22 33  1  0
 21 34  1  0
 19 35  1  0
 19 36  1  0
 18 37  1  0
 18 38  1  0
 10  5  1  0
 28 20  1  0
 28 23  1  0
M  END
>  <plip>  (1) 
-0.14285714285714285

>  <filename>  (1) 
[H][C]([C](=[O])[O][C]([H])([H])[C]([H])([H])[c]1[c]([H])[n]([H])[c]2[c]([H])[c]([H])[c]([H])[c]([H])[c]12)=[C]([H])[c]1[c]([H])[n][c]([H])[c]([H])[c]1[H]

$$$$
