
     RDKit          3D

 44 46  0  0  0  0  0  0  0  0999 V2000
    5.0302    1.8074   17.0103 H   0  0  0  0  0  0  0  0  0  0  0  0
    5.4835    1.2899   17.8551 C   0  0  0  0  0  0  0  0  0  0  0  0
    6.6321    0.6409   17.6051 N   0  0  0  0  0  0  0  0  0  0  0  0
    7.2067   -0.0002   18.6291 C   0  0  0  0  0  0  0  0  0  0  0  0
    8.1365   -0.5203   18.3897 H   0  0  0  0  0  0  0  0  0  0  0  0
    6.6979   -0.0518   19.9479 C   0  0  0  0  0  0  0  0  0  0  0  0
    7.5178   -0.7961   21.0146 C   0  0  1  0  0  0  0  0  0  0  0  0
    7.8384   -1.7288   20.5303 H   0  0  0  0  0  0  0  0  0  0  0  0
    8.7959   -0.0027   21.3916 C   0  0  0  0  0  0  0  0  0  0  0  0
    9.4849   -0.6769   21.9123 H   0  0  0  0  0  0  0  0  0  0  0  0
    9.2942    0.3497   20.4824 H   0  0  0  0  0  0  0  0  0  0  0  0
    8.4951    1.1734   22.3126 C   0  0  0  0  0  0  0  0  0  0  0  0
    7.8459    1.9102   21.7993 H   0  0  0  0  0  0  0  0  0  0  0  0
    9.4294    1.6902   22.5601 H   0  0  0  0  0  0  0  0  0  0  0  0
    7.9207    0.6446   23.5430 N   0  0  0  0  0  0  0  0  0  0  0  0
    7.7791    1.3897   24.2155 H   0  0  0  0  0  0  0  0  0  0  0  0
    6.6542   -0.0808   23.3396 C   0  0  0  0  0  0  0  0  0  0  0  0
    5.8417    0.6056   23.0462 H   0  0  0  0  0  0  0  0  0  0  0  0
    6.3519   -0.5304   24.2948 H   0  0  0  0  0  0  0  0  0  0  0  0
    6.6997   -1.2280   22.2753 C   0  0  2  0  0  0  0  0  0  0  0  0
    5.6898   -1.4218   21.9097 H   0  0  0  0  0  0  0  0  0  0  0  0
    7.1893   -2.5266   22.7911 N   0  0  0  0  0  0  0  0  0  0  0  0
    8.0698   -2.6047   23.2690 H   0  0  0  0  0  0  0  0  0  0  0  0
    6.3789   -3.8173   23.4194 S   0  0  0  0  0  0  0  0  0  0  0  0
    5.5449   -4.3808   22.3803 O   0  0  0  0  0  0  0  0  0  0  0  0
    7.4921   -4.5253   24.0275 O   0  0  0  0  0  0  0  0  0  0  0  0
    5.3178   -3.2595   24.7341 C   0  0  0  0  0  0  0  0  0  0  0  0
    5.8262   -2.9335   26.0005 C   0  0  0  0  0  0  0  0  0  0  0  0
    6.8569   -3.1610   26.2751 H   0  0  0  0  0  0  0  0  0  0  0  0
    4.9761   -2.3369   26.9363 C   0  0  0  0  0  0  0  0  0  0  0  0
    5.3757   -2.0770   27.9135 H   0  0  0  0  0  0  0  0  0  0  0  0
    3.6217   -2.0899   26.6569 C   0  0  0  0  0  0  0  0  0  0  0  0
    2.7073   -1.3486   27.6024 C   0  0  0  0  0  0  0  0  0  0  0  0
    1.9869   -2.0418   28.0508 H   0  0  0  0  0  0  0  0  0  0  0  0
    3.2481   -0.8488   28.4141 H   0  0  0  0  0  0  0  0  0  0  0  0
    2.1341   -0.5828   27.0617 H   0  0  0  0  0  0  0  0  0  0  0  0
    3.1149   -2.5528   25.4288 C   0  0  0  0  0  0  0  0  0  0  0  0
    2.0521   -2.4430   25.2354 H   0  0  0  0  0  0  0  0  0  0  0  0
    3.9442   -3.1473   24.4824 C   0  0  0  0  0  0  0  0  0  0  0  0
    3.5346   -3.5570   23.5644 H   0  0  0  0  0  0  0  0  0  0  0  0
    5.4829    0.6137   20.1680 C   0  0  0  0  0  0  0  0  0  0  0  0
    5.0018    0.5944   21.1457 H   0  0  0  0  0  0  0  0  0  0  0  0
    4.8731    1.3013   19.1114 C   0  0  0  0  0  0  0  0  0  0  0  0
    3.9373    1.8354   19.2489 H   0  0  0  0  0  0  0  0  0  0  0  0
  1  2  1  0
  2  3  2  0
  3  4  1  0
  4  5  1  0
  4  6  2  0
  6  7  1  0
  7  8  1  6
  7  9  1  0
  9 10  1  0
  9 11  1  0
  9 12  1  0
 12 13  1  0
 12 14  1  0
 12 15  1  0
 15 16  1  0
 15 17  1  0
 17 18  1  0
 17 19  1  0
 17 20  1  0
 20 21  1  6
 20 22  1  0
 22 23  1  0
 22 24  1  0
 24 25  2  0
 24 26  2  0
 24 27  1  0
 27 28  2  0
 28 29  1  0
 28 30  1  0
 30 31  1  0
 30 32  2  0
 32 33  1  0
 33 34  1  0
 33 35  1  0
 33 36  1  0
 32 37  1  0
 37 38  1  0
 37 39  2  0
 39 40  1  0
  6 41  1  0
 41 42  1  0
 41 43  2  0
 43 44  1  0
 43  2  1  0
 20  7  1  0
 39 27  1  0
M  END
>  <plip>  (1) 
-0.06896551724137931

>  <filename>  (1) 
[H][c]1[n][c]([H])[c]([C@@]2([H])[C]([H])([H])[C]([H])([H])[N]([H])[C]([H])([H])[C@]2([H])[N]([H])[S](=[O])(=[O])[c]2[c]([H])[c]([H])[c]([C]([H])([H])[H])[c]([H])[c]2[H])[c]([H])[c]1[H]

$$$$
