
     RDKit          3D

 35 37  0  0  0  0  0  0  0  0999 V2000
    4.9808    1.7293   17.0385 H   0  0  0  0  0  0  0  0  0  0  0  0
    5.4536    1.2165   17.8715 C   0  0  0  0  0  0  0  0  0  0  0  0
    6.6056    0.5776   17.6041 N   0  0  0  0  0  0  0  0  0  0  0  0
    7.2361   -0.0161   18.6288 C   0  0  0  0  0  0  0  0  0  0  0  0
    8.1632   -0.5378   18.3900 H   0  0  0  0  0  0  0  0  0  0  0  0
    6.7684   -0.0033   19.9770 C   0  0  0  0  0  0  0  0  0  0  0  0
    7.4818   -0.5241   21.0188 N   0  0  0  0  0  0  0  0  0  0  0  0
    7.0520   -0.8526   22.3633 C   0  0  0  0  0  0  0  0  0  0  0  0
    6.9435    0.0298   23.0106 H   0  0  0  0  0  0  0  0  0  0  0  0
    6.1305   -1.4532   22.4047 H   0  0  0  0  0  0  0  0  0  0  0  0
    8.3848   -1.6423   22.5225 C   0  0  0  0  0  0  0  0  0  0  0  0
    9.0777   -1.1136   23.1811 H   0  0  0  0  0  0  0  0  0  0  0  0
    8.3636   -3.0885   22.9872 C   0  0  0  0  0  0  0  0  0  0  0  0
    9.0496   -3.4073   23.9393 O   0  0  0  0  0  0  0  0  0  0  0  0
    7.4882   -4.1425   22.2625 C   0  0  0  0  0  0  0  0  0  0  0  0
    6.8709   -3.8023   21.1103 N   0  0  0  0  0  0  0  0  0  0  0  0
    6.1308   -4.7087   20.4876 C   0  0  0  0  0  0  0  0  0  0  0  0
    5.5255   -4.3988   19.3233 O   0  0  0  0  0  0  0  0  0  0  0  0
    5.4809   -3.0390   18.9188 C   0  0  0  0  0  0  0  0  0  0  0  0
    6.3739   -2.7375   18.3618 H   0  0  0  0  0  0  0  0  0  0  0  0
    4.6138   -2.9435   18.2695 H   0  0  0  0  0  0  0  0  0  0  0  0
    5.3443   -2.3853   19.7729 H   0  0  0  0  0  0  0  0  0  0  0  0
    5.9008   -6.0031   20.9787 C   0  0  0  0  0  0  0  0  0  0  0  0
    5.2360   -6.6480   20.4152 H   0  0  0  0  0  0  0  0  0  0  0  0
    6.5216   -6.3624   22.1641 C   0  0  0  0  0  0  0  0  0  0  0  0
    6.3674   -7.3525   22.5986 H   0  0  0  0  0  0  0  0  0  0  0  0
    7.3524   -5.4279   22.8087 C   0  0  0  0  0  0  0  0  0  0  0  0
    7.8843   -5.6831   23.7157 H   0  0  0  0  0  0  0  0  0  0  0  0
    8.6778   -1.3366   21.0267 C   0  0  0  0  0  0  0  0  0  0  0  0
    8.6006   -2.2018   20.3636 H   0  0  0  0  0  0  0  0  0  0  0  0
    9.6007   -0.7788   20.8148 H   0  0  0  0  0  0  0  0  0  0  0  0
    5.5255    0.6151   20.2107 C   0  0  0  0  0  0  0  0  0  0  0  0
    5.1143    0.6064   21.2203 H   0  0  0  0  0  0  0  0  0  0  0  0
    4.8740    1.2391   19.1464 C   0  0  0  0  0  0  0  0  0  0  0  0
    3.9379    1.7638   19.3055 H   0  0  0  0  0  0  0  0  0  0  0  0
  1  2  1  0
  2  3  2  0
  3  4  1  0
  4  5  1  0
  4  6  2  0
  6  7  1  0
  7  8  1  0
  8  9  1  0
  8 10  1  0
  8 11  1  0
 11 12  1  0
 11 13  1  0
 13 14  2  0
 13 15  1  0
 15 16  2  0
 16 17  1  0
 17 18  1  0
 18 19  1  0
 19 20  1  0
 19 21  1  0
 19 22  1  0
 17 23  2  0
 23 24  1  0
 23 25  1  0
 25 26  1  0
 25 27  2  0
 27 28  1  0
 11 29  1  0
 29 30  1  0
 29 31  1  0
  6 32  1  0
 32 33  1  0
 32 34  2  0
 34 35  1  0
 34  2  1  0
 29  7  1  0
 27 15  1  0
M  END
>  <plip>  (1) 
-0.1

>  <filename>  (1) 
[H][c]1[n][c]([H])[c]([N]2[C]([H])([H])[C]([H])([C](=[O])[c]3[n][c]([O][C]([H])([H])[H])[c]([H])[c]([H])[c]3[H])[C]2([H])[H])[c]([H])[c]1[H]

$$$$
