
     RDKit          3D

 38 40  0  0  0  0  0  0  0  0999 V2000
    8.0676    0.0691   27.7020 C   0  0  0  0  0  0  0  0  0  0  0  0
    8.4806   -0.2138   26.2821 C   0  0  0  0  0  0  0  0  0  0  0  0
    8.1653    0.6787   25.2497 C   0  0  0  0  0  0  0  0  0  0  0  0
    8.5631    0.4295   23.9303 C   0  0  0  0  0  0  0  0  0  0  0  0
    9.2388   -0.7560   23.5906 C   0  0  0  0  0  0  0  0  0  0  0  0
    9.5884   -1.1655   22.1604 C   0  0  0  0  0  0  0  0  0  0  0  0
   10.7060   -0.3740   21.3967 C   0  0  0  0  0  0  0  0  0  0  0  0
   11.5225    0.6835   22.1186 C   0  0  0  0  0  0  0  0  0  0  0  0
   10.8805    1.4523   22.5620 H   0  0  0  0  0  0  0  0  0  0  0  0
   12.2161    1.1831   21.4339 H   0  0  0  0  0  0  0  0  0  0  0  0
   12.1036    0.2278   22.9272 H   0  0  0  0  0  0  0  0  0  0  0  0
    9.6208    0.0611   20.3889 C   0  0  0  0  0  0  0  0  0  0  0  0
    8.6707   -0.8214   21.0588 N   0  0  0  0  0  0  0  0  0  0  0  0
    7.3005   -0.8868   21.0550 C   0  0  0  0  0  0  0  0  0  0  0  0
    6.6855   -1.5065   21.9031 O   0  0  0  0  0  0  0  0  0  0  0  0
    6.6096   -0.1288   19.9648 C   0  0  0  0  0  0  0  0  0  0  0  0
    5.4243    0.5855   20.2023 C   0  0  0  0  0  0  0  0  0  0  0  0
    4.8674    1.3025   19.1475 C   0  0  0  0  0  0  0  0  0  0  0  0
    5.4959    1.2719   17.8953 C   0  0  0  0  0  0  0  0  0  0  0  0
    6.6069    0.5631   17.6475 N   0  0  0  0  0  0  0  0  0  0  0  0
    7.1304   -0.1271   18.6641 C   0  0  0  0  0  0  0  0  0  0  0  0
    8.0186   -0.7083   18.4263 H   0  0  0  0  0  0  0  0  0  0  0  0
    5.0788    1.8195   17.0526 H   0  0  0  0  0  0  0  0  0  0  0  0
    3.9590    1.8828   19.2745 H   0  0  0  0  0  0  0  0  0  0  0  0
    4.9571    0.5809   21.1919 H   0  0  0  0  0  0  0  0  0  0  0  0
    9.3500    1.1275   20.4050 H   0  0  0  0  0  0  0  0  0  0  0  0
    9.8084   -0.2441   19.3551 H   0  0  0  0  0  0  0  0  0  0  0  0
   11.3704   -1.1105   20.9324 H   0  0  0  0  0  0  0  0  0  0  0  0
    9.7640   -2.2514   22.1600 H   0  0  0  0  0  0  0  0  0  0  0  0
    9.5998   -1.6214   24.6418 C   0  0  0  0  0  0  0  0  0  0  0  0
    9.2105   -1.3678   25.9575 C   0  0  0  0  0  0  0  0  0  0  0  0
    9.4403   -2.0908   26.7399 H   0  0  0  0  0  0  0  0  0  0  0  0
   10.1964   -2.5109   24.4409 H   0  0  0  0  0  0  0  0  0  0  0  0
    8.3126    1.1714   23.1758 H   0  0  0  0  0  0  0  0  0  0  0  0
    7.5612    1.5516   25.4944 H   0  0  0  0  0  0  0  0  0  0  0  0
    8.8779   -0.1575   28.3996 H   0  0  0  0  0  0  0  0  0  0  0  0
    7.1953   -0.5167   28.0085 H   0  0  0  0  0  0  0  0  0  0  0  0
    7.8124    1.1206   27.8444 H   0  0  0  0  0  0  0  0  0  0  0  0
  1  2  1  0
  2  3  2  0
  3  4  1  0
  4  5  2  0
  5  6  1  0
  6  7  1  0
  7  8  1  0
  8  9  1  0
  8 10  1  0
  8 11  1  0
  7 12  1  0
 12 13  1  0
 13 14  1  0
 14 15  2  0
 14 16  1  0
 16 17  2  0
 17 18  1  0
 18 19  2  0
 19 20  1  0
 20 21  2  0
 21 22  1  0
 19 23  1  0
 18 24  1  0
 17 25  1  0
 12 26  1  0
 12 27  1  0
  7 28  1  0
  6 29  1  0
  5 30  1  0
 30 31  2  0
 31 32  1  0
 30 33  1  0
  4 34  1  0
  3 35  1  0
  1 36  1  0
  1 37  1  0
  1 38  1  0
 31  2  1  0
 13  6  1  0
 21 16  1  0
M  END
>  <plip>  (1) 
-0.034482758620689655

>  <filename>  (1) 
[H][c]1[n][c]([H])[c]([C](=[O])[N]2[C]([H])([H])[C]([H])([C]([H])([H])[H])[C]2([H])[c]2[c]([H])[c]([H])[c]([C]([H])([H])[H])[c]([H])[c]2[H])[c]([H])[c]1[H]

$$$$
