
     RDKit          3D

 36 38  0  0  0  0  0  0  0  0999 V2000
    9.0392    1.4484   21.1794 O   0  0  0  0  0  0  0  0  0  0  0  0
    8.3376    1.2247   22.1563 C   0  0  0  0  0  0  0  0  0  0  0  0
    7.5232    0.1199   22.1401 N   0  0  0  0  0  0  0  0  0  0  0  0
    7.3987   -0.7414   20.9734 C   0  0  0  0  0  0  0  0  0  0  0  0
    6.6566   -2.0374   21.3323 C   0  0  0  0  0  0  0  0  0  0  0  0
    6.5635   -2.9218   20.2032 O   0  0  0  0  0  0  0  0  0  0  0  0
    6.1466   -3.7663   20.4296 H   0  0  0  0  0  0  0  0  0  0  0  0
    5.6490   -1.7915   21.6718 H   0  0  0  0  0  0  0  0  0  0  0  0
    7.1845   -2.5289   22.1564 H   0  0  0  0  0  0  0  0  0  0  0  0
    6.6647    0.0299   19.9067 C   0  0  0  0  0  0  0  0  0  0  0  0
    5.4419    0.6558   20.1652 C   0  0  0  0  0  0  0  0  0  0  0  0
    4.8193    1.3059   19.1004 C   0  0  0  0  0  0  0  0  0  0  0  0
    5.4046    1.2947   17.8260 C   0  0  0  0  0  0  0  0  0  0  0  0
    6.5711    0.6733   17.5751 N   0  0  0  0  0  0  0  0  0  0  0  0
    7.1867    0.0705   18.6066 C   0  0  0  0  0  0  0  0  0  0  0  0
    8.1244   -0.4357   18.4094 H   0  0  0  0  0  0  0  0  0  0  0  0
    4.8888    1.8010   17.0140 H   0  0  0  0  0  0  0  0  0  0  0  0
    3.8831    1.8293   19.2545 H   0  0  0  0  0  0  0  0  0  0  0  0
    5.0003    0.6383   21.1644 H   0  0  0  0  0  0  0  0  0  0  0  0
    8.4070   -1.0055   20.6304 H   0  0  0  0  0  0  0  0  0  0  0  0
    6.9774   -0.0544   22.9729 H   0  0  0  0  0  0  0  0  0  0  0  0
    8.3711    2.1054   23.3271 C   0  0  0  0  0  0  0  0  0  0  0  0
    7.6006    2.0280   24.4705 C   0  0  0  0  0  0  0  0  0  0  0  0
    7.9912    3.1315   25.3303 C   0  0  0  0  0  0  0  0  0  0  0  0
    8.9862    3.8399   24.6784 C   0  0  0  0  0  0  0  0  0  0  0  0
    9.5723    4.9648   25.2436 C   0  0  0  0  0  0  0  0  0  0  0  0
    9.1345    5.3836   26.5072 C   0  0  0  0  0  0  0  0  0  0  0  0
    8.1183    4.6783   27.1811 C   0  0  0  0  0  0  0  0  0  0  0  0
    7.5360    5.2792   28.9034 Br  0  0  0  0  0  0  0  0  0  0  0  0
    7.5441    3.5373   26.5889 C   0  0  0  0  0  0  0  0  0  0  0  0
    6.5685    2.8408   27.2215 F   0  0  0  0  0  0  0  0  0  0  0  0
    9.5852    6.2619   26.9587 H   0  0  0  0  0  0  0  0  0  0  0  0
   10.3483    5.4859   24.6874 H   0  0  0  0  0  0  0  0  0  0  0  0
    9.2083    3.2160   23.4752 N   0  0  0  0  0  0  0  0  0  0  0  0
    9.8855    3.5489   22.7911 H   0  0  0  0  0  0  0  0  0  0  0  0
    6.8313    1.2952   24.7061 H   0  0  0  0  0  0  0  0  0  0  0  0
  1  2  2  0
  2  3  1  0
  3  4  1  0
  4  5  1  0
  5  6  1  0
  6  7  1  0
  5  8  1  0
  5  9  1  0
  4 10  1  0
 10 11  2  0
 11 12  1  0
 12 13  2  0
 13 14  1  0
 14 15  2  0
 15 16  1  0
 13 17  1  0
 12 18  1  0
 11 19  1  0
  4 20  1  0
  3 21  1  0
  2 22  1  0
 22 23  2  0
 23 24  1  0
 24 25  2  0
 25 26  1  0
 26 27  2  0
 27 28  1  0
 28 29  1  0
 28 30  2  0
 30 31  1  0
 27 32  1  0
 26 33  1  0
 25 34  1  0
 34 35  1  0
 23 36  1  0
 15 10  1  0
 34 22  1  0
 30 24  1  0
M  END
>  <plip>  (1) 
-0.25

>  <filename>  (1) 
[H][O][C]([H])([H])[C]([H])([c]1[c]([H])[n][c]([H])[c]([H])[c]1[H])[N]([H])[C](=[O])[c]1[c]([H])[c]2[c]([F])[c]([Br])[c]([H])[c]([H])[c]2[n]1[H]

$$$$
