
     RDKit          3D

 33 35  0  0  0  0  0  0  0  0999 V2000
    5.0044    2.0000   16.8918 H   0  0  0  0  0  0  0  0  0  0  0  0
    5.4569    1.4080   17.6848 C   0  0  0  0  0  0  0  0  0  0  0  0
    6.6048    0.7814   17.3805 N   0  0  0  0  0  0  0  0  0  0  0  0
    7.1940    0.0591   18.3425 C   0  0  0  0  0  0  0  0  0  0  0  0
    8.1159   -0.4464   18.0631 H   0  0  0  0  0  0  0  0  0  0  0  0
    6.6606   -0.1000   19.6394 C   0  0  0  0  0  0  0  0  0  0  0  0
    7.3094   -0.8996   20.6292 N   0  0  0  0  0  0  0  0  0  0  0  0
    8.6519   -0.8172   21.0327 C   0  0  0  0  0  0  0  0  0  0  0  0
    9.3155   -0.0285   20.7188 H   0  0  0  0  0  0  0  0  0  0  0  0
    8.8596   -1.8129   21.9197 C   0  0  0  0  0  0  0  0  0  0  0  0
   10.0049   -2.1426   22.5168 O   0  0  0  0  0  0  0  0  0  0  0  0
   10.0039   -2.8300   23.7824 C   0  0  0  0  0  0  0  0  0  0  0  0
   11.0693   -2.9290   23.9808 H   0  0  0  0  0  0  0  0  0  0  0  0
    9.3203   -2.0563   24.9274 C   0  0  0  0  0  0  0  0  0  0  0  0
    9.9678   -1.2895   25.3586 H   0  0  0  0  0  0  0  0  0  0  0  0
    8.4338   -1.5441   24.5313 H   0  0  0  0  0  0  0  0  0  0  0  0
    8.8882   -3.1532   25.9105 C   0  0  0  0  0  0  0  0  0  0  0  0
    8.1654   -2.8151   26.6609 H   0  0  0  0  0  0  0  0  0  0  0  0
    9.7554   -3.5415   26.4666 H   0  0  0  0  0  0  0  0  0  0  0  0
    8.3378   -4.2260   24.9606 C   0  0  0  0  0  0  0  0  0  0  0  0
    7.3456   -3.9192   24.5963 H   0  0  0  0  0  0  0  0  0  0  0  0
    8.2008   -5.2042   25.4312 H   0  0  0  0  0  0  0  0  0  0  0  0
    9.3730   -4.2492   23.8188 C   0  0  0  0  0  0  0  0  0  0  0  0
    8.9735   -4.5540   22.8514 H   0  0  0  0  0  0  0  0  0  0  0  0
   10.1603   -4.9659   24.0715 H   0  0  0  0  0  0  0  0  0  0  0  0
    7.6760   -2.5087   22.0779 N   0  0  0  0  0  0  0  0  0  0  0  0
    7.4029   -3.1784   22.7734 H   0  0  0  0  0  0  0  0  0  0  0  0
    6.6738   -1.9284   21.3330 C   0  0  0  0  0  0  0  0  0  0  0  0
    5.5187   -2.2927   21.3289 O   0  0  0  0  0  0  0  0  0  0  0  0
    5.4460    0.5347   19.9331 C   0  0  0  0  0  0  0  0  0  0  0  0
    4.9959    0.3830   20.9146 H   0  0  0  0  0  0  0  0  0  0  0  0
    4.8476    1.3185   18.9416 C   0  0  0  0  0  0  0  0  0  0  0  0
    3.9171    1.8434   19.1285 H   0  0  0  0  0  0  0  0  0  0  0  0
  1  2  1  0
  2  3  2  0
  3  4  1  0
  4  5  1  0
  4  6  2  0
  6  7  1  0
  7  8  1  0
  8  9  1  0
  8 10  2  0
 10 11  1  0
 11 12  1  0
 12 13  1  0
 12 14  1  0
 14 15  1  0
 14 16  1  0
 14 17  1  0
 17 18  1  0
 17 19  1  0
 17 20  1  0
 20 21  1  0
 20 22  1  0
 20 23  1  0
 23 24  1  0
 23 25  1  0
 10 26  1  0
 26 27  1  0
 26 28  1  0
 28 29  2  0
  6 30  1  0
 30 31  1  0
 30 32  2  0
 32 33  1  0
 32  2  1  0
 28  7  1  0
 23 12  1  0
M  END
>  <plip>  (1) 
-0.06896551724137931

>  <filename>  (1) 
[H][c]1[n][c]([H])[c](-[n]2[c]([H])[c]([O][C]3([H])[C]([H])([H])[C]([H])([H])[C]([H])([H])[C]3([H])[H])[n]([H])[c]2=[O])[c]([H])[c]1[H]

$$$$
