
     RDKit          3D

 27 28  0  0  0  0  0  0  0  0999 V2000
    5.8859    4.5807   21.0220 H   0  0  0  0  0  0  0  0  0  0  0  0
    6.6220    4.6210   21.6717 O   0  0  0  0  0  0  0  0  0  0  0  0
    6.2110    3.6638   22.5140 C   0  0  0  0  0  0  0  0  0  0  0  0
    5.1889    3.0745   22.2598 O   0  0  0  0  0  0  0  0  0  0  0  0
    7.1033    3.4585   23.8639 C   0  0  0  0  0  0  0  0  0  0  0  0
    7.7598    4.3940   24.2854 O   0  0  0  0  0  0  0  0  0  0  0  0
    7.0216    2.2355   24.6477 C   0  0  0  0  0  0  0  0  0  0  0  0
    7.2627    2.3523   25.6981 H   0  0  0  0  0  0  0  0  0  0  0  0
    6.8407    0.9974   24.1619 C   0  0  0  0  0  0  0  0  0  0  0  0
    6.7272   -0.0533   24.9421 O   0  0  0  0  0  0  0  0  0  0  0  0
    6.8444   -0.8593   24.4100 H   0  0  0  0  0  0  0  0  0  0  0  0
    6.8120    0.7659   22.8200 O   0  0  0  0  0  0  0  0  0  0  0  0
    7.4161   -0.3335   22.3137 C   0  0  0  0  0  0  0  0  0  0  0  0
    8.0851   -1.2680   22.9366 N   0  0  0  0  0  0  0  0  0  0  0  0
    8.5285   -2.0915   21.9525 N   0  0  0  0  0  0  0  0  0  0  0  0
    8.1214   -1.7115   20.8043 N   0  0  0  0  0  0  0  0  0  0  0  0
    7.3795   -0.5839   20.9932 N   0  0  0  0  0  0  0  0  0  0  0  0
    6.6609    0.0500   19.9295 C   0  0  0  0  0  0  0  0  0  0  0  0
    7.1878    0.0511   18.6218 C   0  0  0  0  0  0  0  0  0  0  0  0
    8.1265   -0.4616   18.4172 H   0  0  0  0  0  0  0  0  0  0  0  0
    6.5839    0.6603   17.5994 N   0  0  0  0  0  0  0  0  0  0  0  0
    5.4198    1.2864   17.8448 C   0  0  0  0  0  0  0  0  0  0  0  0
    4.9571    1.7841   16.9972 H   0  0  0  0  0  0  0  0  0  0  0  0
    4.8061    1.3046   19.1020 C   0  0  0  0  0  0  0  0  0  0  0  0
    3.8581    1.8184   19.2332 H   0  0  0  0  0  0  0  0  0  0  0  0
    5.4357    0.6759   20.1825 C   0  0  0  0  0  0  0  0  0  0  0  0
    4.9863    0.6775   21.1775 H   0  0  0  0  0  0  0  0  0  0  0  0
  1  2  1  0
  2  3  1  0
  3  4  2  0
  3  5  1  0
  5  6  2  0
  5  7  1  0
  7  8  1  0
  7  9  2  3
  9 10  1  0
 10 11  1  0
  9 12  1  0
 12 13  1  0
 13 14  2  0
 14 15  1  0
 15 16  2  0
 16 17  1  0
 17 18  1  0
 18 19  2  0
 19 20  1  0
 19 21  1  0
 21 22  2  0
 22 23  1  0
 22 24  1  0
 24 25  1  0
 24 26  2  0
 26 27  1  0
 17 13  1  0
 26 18  1  0
M  END
>  <plip>  (1) 
-0.13793103448275862

>  <filename>  (1) 
[H][O][C](=[O])[C](=[O])[C]([H])=[C]([O][H])[O][c]1[n][n][n][n]1-[c]1[c]([H])[n][c]([H])[c]([H])[c]1[H]

$$$$
