
     RDKit          3D

 30 30  0  0  0  0  0  0  0  0999 V2000
    9.8287    5.5497   25.8884 H   0  0  0  0  0  0  0  0  0  0  0  0
    9.6578    4.7745   25.3224 O   0  0  0  0  0  0  0  0  0  0  0  0
   10.7942    4.8408   24.5977 C   0  0  0  0  0  0  0  0  0  0  0  0
   11.5708    5.7247   24.8446 O   0  0  0  0  0  0  0  0  0  0  0  0
   10.9322    3.7246   23.5276 C   0  0  0  0  0  0  0  0  0  0  0  0
   12.0572    3.7149   22.8196 O   0  0  0  0  0  0  0  0  0  0  0  0
   11.9266    3.0603   22.0791 H   0  0  0  0  0  0  0  0  0  0  0  0
    9.9676    2.7945   23.3248 C   0  0  0  0  0  0  0  0  0  0  0  0
    9.1023    2.7482   23.9650 H   0  0  0  0  0  0  0  0  0  0  0  0
   10.0413    1.8559   22.2162 C   0  0  0  0  0  0  0  0  0  0  0  0
   10.9071    1.8418   21.3667 O   0  0  0  0  0  0  0  0  0  0  0  0
    8.9587    1.0219   22.2345 O   0  0  0  0  0  0  0  0  0  0  0  0
    8.8455    0.0037   21.3106 C   0  0  0  0  0  0  0  0  0  0  0  0
    9.7692   -0.4194   20.6757 O   0  0  0  0  0  0  0  0  0  0  0  0
    7.3895   -0.4803   21.1993 C   0  0  1  0  0  0  0  0  0  0  0  0
    6.8729   -0.1595   22.1080 H   0  0  0  0  0  0  0  0  0  0  0  0
    6.6700    0.1914   20.0180 C   0  0  0  0  0  0  0  0  0  0  0  0
    7.1801    0.1415   18.7078 C   0  0  0  0  0  0  0  0  0  0  0  0
    8.1514   -0.3183   18.5304 H   0  0  0  0  0  0  0  0  0  0  0  0
    6.5757    0.6652   17.6324 N   0  0  0  0  0  0  0  0  0  0  0  0
    5.3956    1.2719   17.8221 C   0  0  0  0  0  0  0  0  0  0  0  0
    4.9223    1.6872   16.9325 H   0  0  0  0  0  0  0  0  0  0  0  0
    4.7860    1.3801   19.0740 C   0  0  0  0  0  0  0  0  0  0  0  0
    3.8289    1.8833   19.1603 H   0  0  0  0  0  0  0  0  0  0  0  0
    5.4349    0.8344   20.1875 C   0  0  0  0  0  0  0  0  0  0  0  0
    4.9970    0.9224   21.1822 H   0  0  0  0  0  0  0  0  0  0  0  0
    7.3493   -2.0258   21.1217 C   0  0  0  0  0  0  0  0  0  0  0  0
    6.3993   -2.4012   20.7327 H   0  0  0  0  0  0  0  0  0  0  0  0
    8.1579   -2.3804   20.4817 H   0  0  0  0  0  0  0  0  0  0  0  0
    7.5012   -2.4654   22.1122 H   0  0  0  0  0  0  0  0  0  0  0  0
  1  2  1  0
  2  3  1  0
  3  4  2  0
  3  5  1  0
  5  6  1  0
  6  7  1  0
  5  8  2  3
  8  9  1  0
  8 10  1  0
 10 11  2  0
 10 12  1  0
 12 13  1  0
 13 14  2  0
 13 15  1  0
 15 16  1  1
 15 17  1  0
 17 18  2  0
 18 19  1  0
 18 20  1  0
 20 21  2  0
 21 22  1  0
 21 23  1  0
 23 24  1  0
 23 25  2  0
 25 26  1  0
 15 27  1  0
 27 28  1  0
 27 29  1  0
 27 30  1  0
 25 17  1  0
M  END
>  <plip>  (1) 
-0.07142857142857142

>  <filename>  (1) 
[H][O][C](=[O])[C]([O][H])=[C]([H])[C](=[O])[O][C](=[O])[C@@]([H])([c]1[c]([H])[n][c]([H])[c]([H])[c]1[H])[C]([H])([H])[H]

$$$$
