
     RDKit          3D

 39 41  0  0  0  0  0  0  0  0999 V2000
    4.9476    1.4719   17.4927 H   0  0  0  0  0  0  0  0  0  0  0  0
    5.4215    0.9269   18.3087 C   0  0  0  0  0  0  0  0  0  0  0  0
    6.6249    0.3996   18.0500 N   0  0  0  0  0  0  0  0  0  0  0  0
    7.2604   -0.2188   19.0570 C   0  0  0  0  0  0  0  0  0  0  0  0
    8.2473   -0.6089   18.8123 H   0  0  0  0  0  0  0  0  0  0  0  0
    6.7611   -0.3679   20.3627 C   0  0  0  0  0  0  0  0  0  0  0  0
    7.7194   -0.8712   21.4743 C   0  0  0  0  0  0  0  0  0  0  0  0
    8.8058    0.2206   21.7420 C   0  0  0  0  0  0  0  0  0  0  0  0
   10.1796   -0.0704   21.7820 C   0  0  0  0  0  0  0  0  0  0  0  0
   10.5658   -1.0319   21.4795 H   0  0  0  0  0  0  0  0  0  0  0  0
   11.0779    0.8951   22.2222 C   0  0  0  0  0  0  0  0  0  0  0  0
   12.1300    0.6352   22.3275 H   0  0  0  0  0  0  0  0  0  0  0  0
   10.7169    2.1271   22.5850 N   0  0  0  0  0  0  0  0  0  0  0  0
    9.4178    2.4552   22.4871 C   0  0  0  0  0  0  0  0  0  0  0  0
    9.0705    3.8346   22.9568 C   0  0  0  0  0  0  0  0  0  0  0  0
    9.8342    4.5430   22.6205 H   0  0  0  0  0  0  0  0  0  0  0  0
    8.0865    4.1559   22.6073 H   0  0  0  0  0  0  0  0  0  0  0  0
    9.0665    3.8479   24.0529 H   0  0  0  0  0  0  0  0  0  0  0  0
    8.4452    1.5376   22.0592 C   0  0  0  0  0  0  0  0  0  0  0  0
    7.4113    1.8639   21.9803 H   0  0  0  0  0  0  0  0  0  0  0  0
    8.4302   -2.2155   21.1010 C   0  0  0  0  0  0  0  0  0  0  0  0
    8.9547   -2.0733   20.1517 H   0  0  0  0  0  0  0  0  0  0  0  0
    9.2114   -2.3727   21.8582 H   0  0  0  0  0  0  0  0  0  0  0  0
    7.5561   -3.4732   21.1249 C   0  0  0  0  0  0  0  0  0  0  0  0
    6.7504   -3.4020   20.3833 H   0  0  0  0  0  0  0  0  0  0  0  0
    8.1518   -4.3527   20.8540 H   0  0  0  0  0  0  0  0  0  0  0  0
    6.9459   -3.6419   22.5150 C   0  0  0  0  0  0  0  0  0  0  0  0
    7.7594   -3.7574   23.2449 H   0  0  0  0  0  0  0  0  0  0  0  0
    6.3260   -4.5443   22.5885 H   0  0  0  0  0  0  0  0  0  0  0  0
    6.1246   -2.3965   22.8316 C   0  0  0  0  0  0  0  0  0  0  0  0
    5.3611   -2.3193   22.0448 H   0  0  0  0  0  0  0  0  0  0  0  0
    5.6101   -2.5050   23.7919 H   0  0  0  0  0  0  0  0  0  0  0  0
    6.9721   -1.1202   22.8195 C   0  0  0  0  0  0  0  0  0  0  0  0
    7.7295   -1.1928   23.6078 H   0  0  0  0  0  0  0  0  0  0  0  0
    6.3752   -0.2337   23.0693 H   0  0  0  0  0  0  0  0  0  0  0  0
    5.4592    0.1293   20.5763 C   0  0  0  0  0  0  0  0  0  0  0  0
    4.9603    0.0181   21.5357 H   0  0  0  0  0  0  0  0  0  0  0  0
    4.7905    0.7996   19.5482 C   0  0  0  0  0  0  0  0  0  0  0  0
    3.8141    1.2471   19.7040 H   0  0  0  0  0  0  0  0  0  0  0  0
  1  2  1  0
  2  3  2  0
  3  4  1  0
  4  5  1  0
  4  6  2  0
  6  7  1  0
  7  8  1  0
  8  9  2  0
  9 10  1  0
  9 11  1  0
 11 12  1  0
 11 13  2  0
 13 14  1  0
 14 15  1  0
 15 16  1  0
 15 17  1  0
 15 18  1  0
 14 19  2  0
 19 20  1  0
  7 21  1  0
 21 22  1  0
 21 23  1  0
 21 24  1  0
 24 25  1  0
 24 26  1  0
 24 27  1  0
 27 28  1  0
 27 29  1  0
 27 30  1  0
 30 31  1  0
 30 32  1  0
 30 33  1  0
 33 34  1  0
 33 35  1  0
  6 36  1  0
 36 37  1  0
 36 38  2  0
 38 39  1  0
 38  2  1  0
 33  7  1  0
 19  8  1  0
M  END
>  <plip>  (1) 
-0.0

>  <filename>  (1) 
[H][c]1[n][c]([H])[c]([C]2([c]3[c]([H])[c]([H])[n][c]([C]([H])([H])[H])[c]3[H])[C]([H])([H])[C]([H])([H])[C]([H])([H])[C]([H])([H])[C]2([H])[H])[c]([H])[c]1[H]

$$$$
