
     RDKit          3D

 34 35  0  0  0  0  0  0  0  0999 V2000
    4.9657    1.8041   16.9575 H   0  0  0  0  0  0  0  0  0  0  0  0
    5.4156    1.2923   17.8061 C   0  0  0  0  0  0  0  0  0  0  0  0
    6.5696    0.6587   17.5780 N   0  0  0  0  0  0  0  0  0  0  0  0
    7.1671    0.0525   18.6165 C   0  0  0  0  0  0  0  0  0  0  0  0
    8.1096   -0.4323   18.3716 H   0  0  0  0  0  0  0  0  0  0  0  0
    6.6545    0.0170   19.9188 C   0  0  0  0  0  0  0  0  0  0  0  0
    7.3707   -0.7155   21.0647 C   0  0  0  0  0  0  0  0  0  0  0  0
    7.4545    0.1509   22.2423 N   0  0  0  0  0  0  0  0  0  0  0  0
    6.5421    0.5357   22.4660 H   0  0  0  0  0  0  0  0  0  0  0  0
    8.2140    1.3629   22.0563 C   0  0  1  0  0  0  0  0  0  0  0  0
    8.3637    1.6027   20.9860 H   0  0  0  0  0  0  0  0  0  0  0  0
    7.4014    2.3725   22.7082 N   0  0  0  0  0  0  0  0  0  0  0  0
    7.1942    1.9138   23.5852 H   0  0  0  0  0  0  0  0  0  0  0  0
    8.3090    3.4967   22.9471 C   0  0  0  0  0  0  0  0  0  0  0  0
    8.3332    4.1180   22.0416 H   0  0  0  0  0  0  0  0  0  0  0  0
    7.9278    4.1387   23.7550 H   0  0  0  0  0  0  0  0  0  0  0  0
    9.7184    2.8818   23.2127 C   0  0  0  0  0  0  0  0  0  0  0  0
   10.0033    2.9747   24.2675 H   0  0  0  0  0  0  0  0  0  0  0  0
   10.4921    3.3915   22.6271 H   0  0  0  0  0  0  0  0  0  0  0  0
    9.5480    1.4009   22.7978 C   0  0  0  0  0  0  0  0  0  0  0  0
   10.3559    0.9689   22.1976 H   0  0  0  0  0  0  0  0  0  0  0  0
    9.4366    0.7785   23.6937 H   0  0  0  0  0  0  0  0  0  0  0  0
    8.8118   -1.1454   20.7369 C   0  0  0  0  0  0  0  0  0  0  0  0
    9.2701   -1.5584   21.6383 H   0  0  0  0  0  0  0  0  0  0  0  0
    8.8512   -1.9014   19.9574 H   0  0  0  0  0  0  0  0  0  0  0  0
    9.4346   -0.3050   20.4175 H   0  0  0  0  0  0  0  0  0  0  0  0
    6.5534   -1.9544   21.4285 C   0  0  0  0  0  0  0  0  0  0  0  0
    6.4977   -2.6239   20.5631 H   0  0  0  0  0  0  0  0  0  0  0  0
    5.5328   -1.6803   21.7056 H   0  0  0  0  0  0  0  0  0  0  0  0
    6.9960   -2.4961   22.2697 H   0  0  0  0  0  0  0  0  0  0  0  0
    5.4199    0.6711   20.1238 C   0  0  0  0  0  0  0  0  0  0  0  0
    4.9354    0.6780   21.1021 H   0  0  0  0  0  0  0  0  0  0  0  0
    4.7915    1.3180   19.0609 C   0  0  0  0  0  0  0  0  0  0  0  0
    3.8544    1.8557   19.1972 H   0  0  0  0  0  0  0  0  0  0  0  0
  1  2  1  0
  2  3  2  0
  3  4  1  0
  4  5  1  0
  4  6  2  0
  6  7  1  0
  7  8  1  0
  8  9  1  0
  8 10  1  0
 10 11  1  6
 10 12  1  0
 12 13  1  0
 12 14  1  0
 14 15  1  0
 14 16  1  0
 14 17  1  0
 17 18  1  0
 17 19  1  0
 17 20  1  0
 20 21  1  0
 20 22  1  0
  7 23  1  0
 23 24  1  0
 23 25  1  0
 23 26  1  0
  7 27  1  0
 27 28  1  0
 27 29  1  0
 27 30  1  0
  6 31  1  0
 31 32  1  0
 31 33  2  0
 33 34  1  0
 33  2  1  0
 20 10  1  0
M  END
>  <plip>  (1) 
-0.07142857142857142

>  <filename>  (1) 
[H][c]1[n][c]([H])[c]([C]([N]([H])[C@@]2([H])[N]([H])[C]([H])([H])[C]([H])([H])[C]2([H])[H])([C]([H])([H])[H])[C]([H])([H])[H])[c]([H])[c]1[H]

$$$$
