
     RDKit          3D

 31 33  0  0  0  0  0  0  0  0999 V2000
    9.8254   -0.7670   21.2466 C   0  0  0  0  0  0  0  0  0  0  0  0
    8.5658   -0.0915   21.5058 N   0  0  0  0  0  0  0  0  0  0  0  0
    7.3146   -0.7071   21.0590 C   0  0  0  0  0  0  0  0  0  0  0  0
    6.5942    0.0134   19.9261 C   0  0  0  0  0  0  0  0  0  0  0  0
    5.3871    0.6973   20.1294 C   0  0  0  0  0  0  0  0  0  0  0  0
    4.7806    1.3425   19.0475 C   0  0  0  0  0  0  0  0  0  0  0  0
    5.4141    1.3103   17.8022 C   0  0  0  0  0  0  0  0  0  0  0  0
    6.5675    0.6610   17.5835 N   0  0  0  0  0  0  0  0  0  0  0  0
    7.1321    0.0390   18.6277 C   0  0  0  0  0  0  0  0  0  0  0  0
    8.0587   -0.4865   18.3998 H   0  0  0  0  0  0  0  0  0  0  0  0
    4.9785    1.8294   16.9472 H   0  0  0  0  0  0  0  0  0  0  0  0
    3.8430    1.8757   19.1572 H   0  0  0  0  0  0  0  0  0  0  0  0
    4.9216    0.7309   21.1185 H   0  0  0  0  0  0  0  0  0  0  0  0
    7.5462   -1.7331   20.7416 H   0  0  0  0  0  0  0  0  0  0  0  0
    6.6222   -0.8045   21.9092 H   0  0  0  0  0  0  0  0  0  0  0  0
    8.5739    1.2113   22.0103 C   0  0  0  0  0  0  0  0  0  0  0  0
    7.4806    1.7246   22.6766 C   0  0  0  0  0  0  0  0  0  0  0  0
    7.5385    2.9934   23.1641 N   0  0  0  0  0  0  0  0  0  0  0  0
    6.5176    3.6196   23.7678 N   0  0  0  0  0  0  0  0  0  0  0  0
    6.9665    4.8684   23.9100 C   0  0  0  0  0  0  0  0  0  0  0  0
    8.2722    5.0574   23.4303 C   0  0  0  0  0  0  0  0  0  0  0  0
    8.6452    3.8223   22.9456 C   0  0  0  0  0  0  0  0  0  0  0  0
    9.7795    3.3530   22.3283 N   0  0  0  0  0  0  0  0  0  0  0  0
    9.7328    2.1181   21.8821 C   0  0  0  0  0  0  0  0  0  0  0  0
   10.6224    1.7620   21.3563 H   0  0  0  0  0  0  0  0  0  0  0  0
    8.8728    5.9524   23.3557 H   0  0  0  0  0  0  0  0  0  0  0  0
    6.2800    5.5946   24.3393 H   0  0  0  0  0  0  0  0  0  0  0  0
    6.5466    1.2126   22.8607 H   0  0  0  0  0  0  0  0  0  0  0  0
    9.6971   -1.8514   21.3370 H   0  0  0  0  0  0  0  0  0  0  0  0
   10.2238   -0.5430   20.2495 H   0  0  0  0  0  0  0  0  0  0  0  0
   10.5698   -0.4553   21.9869 H   0  0  0  0  0  0  0  0  0  0  0  0
  1  2  1  0
  2  3  1  0
  3  4  1  0
  4  5  2  0
  5  6  1  0
  6  7  2  0
  7  8  1  0
  8  9  2  0
  9 10  1  0
  7 11  1  0
  6 12  1  0
  5 13  1  0
  3 14  1  0
  3 15  1  0
  2 16  1  0
 16 17  2  0
 17 18  1  0
 18 19  1  0
 19 20  2  0
 20 21  1  0
 21 22  2  0
 22 23  1  0
 23 24  2  0
 24 25  1  0
 21 26  1  0
 20 27  1  0
 17 28  1  0
  1 29  1  0
  1 30  1  0
  1 31  1  0
  9  4  1  0
 24 16  1  0
 22 18  1  0
M  END
>  <plip>  (1) 
-0.07142857142857142

>  <filename>  (1) 
[H][c]1[n][c]([H])[c]([C]([H])([H])[N]([c]2[c]([H])[n][c]3[c]([H])[c]([H])[n][n]3[c]2[H])[C]([H])([H])[H])[c]([H])[c]1[H]

$$$$
