
     RDKit          3D

 35 36  0  0  0  0  0  0  0  0999 V2000
    8.4704    0.8257   23.2076 O   0  0  0  0  0  0  0  0  0  0  0  0
    7.7585    0.4005   24.1066 C   0  0  0  0  0  0  0  0  0  0  0  0
    7.2384    1.2683   25.2570 C   0  0  0  0  0  0  0  0  0  0  0  0
    8.0431    0.8998   26.8827 S   0  0  0  0  0  0  0  0  0  0  0  0
    7.2969    2.0998   27.9935 C   0  0  0  0  0  0  0  0  0  0  0  0
    6.4503    1.6418   29.0153 C   0  0  0  0  0  0  0  0  0  0  0  0
    5.9058    2.5719   29.9009 C   0  0  0  0  0  0  0  0  0  0  0  0
    6.2487    3.9210   29.7495 C   0  0  0  0  0  0  0  0  0  0  0  0
    7.0837    4.2719   28.6906 C   0  0  0  0  0  0  0  0  0  0  0  0
    7.5902    3.3928   27.8165 N   0  0  0  0  0  0  0  0  0  0  0  0
    7.3566    5.3115   28.5236 H   0  0  0  0  0  0  0  0  0  0  0  0
    5.8588    4.6872   30.4095 H   0  0  0  0  0  0  0  0  0  0  0  0
    5.2231    2.2565   30.6874 H   0  0  0  0  0  0  0  0  0  0  0  0
    6.2120    0.5850   29.0745 H   0  0  0  0  0  0  0  0  0  0  0  0
    7.4032    2.3108   24.9789 H   0  0  0  0  0  0  0  0  0  0  0  0
    6.1624    1.0894   25.3572 H   0  0  0  0  0  0  0  0  0  0  0  0
    7.2929   -0.8768   24.1083 N   0  0  0  0  0  0  0  0  0  0  0  0
    7.5707   -1.8826   23.0609 C   0  0  0  0  0  0  0  0  0  0  0  0
    6.8676   -1.6984   21.6776 C   0  0  0  0  0  0  0  0  0  0  0  0
    5.9697   -2.4217   21.3059 O   0  0  0  0  0  0  0  0  0  0  0  0
    7.4123   -0.6788   20.9144 N   0  0  0  0  0  0  0  0  0  0  0  0
    6.7073   -0.0632   19.8310 C   0  0  0  0  0  0  0  0  0  0  0  0
    5.4912    0.5741   20.0877 C   0  0  0  0  0  0  0  0  0  0  0  0
    4.8603    1.2712   19.0502 C   0  0  0  0  0  0  0  0  0  0  0  0
    5.4711    1.2906   17.7900 C   0  0  0  0  0  0  0  0  0  0  0  0
    6.6371    0.6728   17.5268 N   0  0  0  0  0  0  0  0  0  0  0  0
    7.2423    0.0198   18.5304 C   0  0  0  0  0  0  0  0  0  0  0  0
    8.1974   -0.4559   18.3128 H   0  0  0  0  0  0  0  0  0  0  0  0
    5.0095    1.8344   16.9662 H   0  0  0  0  0  0  0  0  0  0  0  0
    3.9332    1.8113   19.2162 H   0  0  0  0  0  0  0  0  0  0  0  0
    5.0761    0.5303   21.0942 H   0  0  0  0  0  0  0  0  0  0  0  0
    7.9089   -0.0062   21.4983 H   0  0  0  0  0  0  0  0  0  0  0  0
    8.6507   -1.9175   22.8745 H   0  0  0  0  0  0  0  0  0  0  0  0
    7.2547   -2.8603   23.4336 H   0  0  0  0  0  0  0  0  0  0  0  0
    6.8582   -1.1879   24.9631 H   0  0  0  0  0  0  0  0  0  0  0  0
  1  2  2  0
  2  3  1  0
  3  4  1  0
  4  5  1  0
  5  6  2  0
  6  7  1  0
  7  8  2  0
  8  9  1  0
  9 10  2  0
  9 11  1  0
  8 12  1  0
  7 13  1  0
  6 14  1  0
  3 15  1  0
  3 16  1  0
  2 17  1  0
 17 18  1  0
 18 19  1  0
 19 20  2  0
 19 21  1  0
 21 22  1  0
 22 23  2  0
 23 24  1  0
 24 25  2  0
 25 26  1  0
 26 27  2  0
 27 28  1  0
 25 29  1  0
 24 30  1  0
 23 31  1  0
 21 32  1  0
 18 33  1  0
 18 34  1  0
 17 35  1  0
 10  5  1  0
 27 22  1  0
M  END
>  <plip>  (1) 
-0.07142857142857142

>  <filename>  (1) 
[H][c]1[n][c]([S][C]([H])([H])[C](=[O])[N]([H])[C]([H])([H])[C](=[O])[N]([H])[c]2[c]([H])[n][c]([H])[c]([H])[c]2[H])[c]([H])[c]([H])[c]1[H]

$$$$
