
     RDKit          3D

 36 38  0  0  0  0  0  0  0  0999 V2000
    9.9412    5.1138   25.6484 Cl  0  0  0  0  0  0  0  0  0  0  0  0
    9.2050    4.0383   24.5311 C   0  0  0  0  0  0  0  0  0  0  0  0
    7.9762    4.1518   24.1613 N   0  0  0  0  0  0  0  0  0  0  0  0
    7.7096    3.2235   23.1942 C   0  0  0  0  0  0  0  0  0  0  0  0
    6.1447    3.2425   22.4687 Cl  0  0  0  0  0  0  0  0  0  0  0  0
    8.7030    2.3682   22.8186 C   0  0  0  0  0  0  0  0  0  0  0  0
    8.6398    1.3515   21.7078 C   0  0  0  0  0  0  0  0  0  0  0  0
    7.8159    0.1384   22.1111 N   0  0  0  0  0  4  0  0  0  0  0  0
    8.4766   -0.6249   23.2577 C   0  0  0  0  0  0  0  0  0  0  0  0
    7.6126   -1.7996   23.7043 C   0  0  0  0  0  0  0  0  0  0  0  0
    7.2916   -2.7492   22.5440 C   0  0  0  0  0  0  0  0  0  0  0  0
    6.5905   -1.9746   21.4245 C   0  0  0  0  0  0  0  0  0  0  0  0
    7.4135   -0.7840   20.9291 C   0  0  1  0  0  0  0  0  0  0  0  0
    6.6591    0.0128   19.8909 C   0  0  0  0  0  0  0  0  0  0  0  0
    5.4448    0.6790   20.1428 C   0  0  0  0  0  0  0  0  0  0  0  0
    4.8011    1.3286   19.0851 C   0  0  0  0  0  0  0  0  0  0  0  0
    5.3981    1.3088   17.8200 C   0  0  0  0  0  0  0  0  0  0  0  0
    6.5574    0.6852   17.5614 N   0  0  0  0  0  0  0  0  0  0  0  0
    7.1609    0.0686   18.5846 C   0  0  0  0  0  0  0  0  0  0  0  0
    8.1139   -0.4096   18.3557 H   0  0  0  0  0  0  0  0  0  0  0  0
    4.9303    1.8166   16.9794 H   0  0  0  0  0  0  0  0  0  0  0  0
    3.8679    1.8679   19.2301 H   0  0  0  0  0  0  0  0  0  0  0  0
    5.0194    0.7027   21.1493 H   0  0  0  0  0  0  0  0  0  0  0  0
    8.3488   -1.1600   20.4934 H   0  0  0  0  0  0  0  0  0  0  0  0
    5.6287   -1.5854   21.7720 H   0  0  0  0  0  0  0  0  0  0  0  0
    6.3722   -2.6049   20.5592 H   0  0  0  0  0  0  0  0  0  0  0  0
    6.6773   -3.5921   22.8822 H   0  0  0  0  0  0  0  0  0  0  0  0
    8.2232   -3.1872   22.1583 H   0  0  0  0  0  0  0  0  0  0  0  0
    8.1339   -2.3202   24.5138 H   0  0  0  0  0  0  0  0  0  0  0  0
    6.6821   -1.4061   24.1348 H   0  0  0  0  0  0  0  0  0  0  0  0
    8.6608    0.0677   24.0839 H   0  0  0  0  0  0  0  0  0  0  0  0
    9.4571   -0.9887   22.9146 H   0  0  0  0  0  0  0  0  0  0  0  0
    6.9038    0.5454   22.4399 H   0  0  0  0  0  0  0  0  0  0  0  0
    9.6298    1.0253   21.3479 H   0  0  0  0  0  0  0  0  0  0  0  0
    8.1320    1.8133   20.8557 H   0  0  0  0  0  0  0  0  0  0  0  0
   10.1062    2.7746   23.7610 S   0  0  0  0  0  0  0  0  0  0  0  0
  1  2  1  0
  2  3  2  0
  3  4  1  0
  4  5  1  0
  4  6  2  0
  6  7  1  0
  7  8  1  0
  8  9  1  0
  9 10  1  0
 10 11  1  0
 11 12  1  0
 12 13  1  0
 13 14  1  0
 14 15  2  0
 15 16  1  0
 16 17  2  0
 17 18  1  0
 18 19  2  0
 19 20  1  0
 17 21  1  0
 16 22  1  0
 15 23  1  0
 13 24  1  6
 12 25  1  0
 12 26  1  0
 11 27  1  0
 11 28  1  0
 10 29  1  0
 10 30  1  0
  9 31  1  0
  9 32  1  0
  8 33  1  0
  7 34  1  0
  7 35  1  0
  6 36  1  0
 36  2  1  0
 13  8  1  0
 19 14  1  0
M  CHG  1   8   1
M  END
>  <plip>  (1) 
-0.07142857142857142

>  <filename>  (1) 
[H][c]1[n][c]([H])[c]([C@]2([H])[C]([H])([H])[C]([H])([H])[C]([H])([H])[C]([H])([H])[N+]2([H])[C]([H])([H])[c]2[s][c]([Cl])[n][c]2[Cl])[c]([H])[c]1[H]

$$$$
