
     RDKit          3D

 28 30  0  0  0  0  0  0  0  0999 V2000
    7.1326    0.0164   21.2361 H   0  0  0  0  0  0  0  0  0  0  0  0
    6.7022   -0.5653   20.4316 C   0  0  0  0  0  0  0  0  0  0  0  0
    6.7530   -1.9438   20.4912 C   0  0  0  0  0  0  0  0  0  0  0  0
    5.7215   -2.9713   19.2371 Br  0  0  0  0  0  0  0  0  0  0  0  0
    7.5480   -2.6340   21.5297 C   0  0  0  0  0  0  0  0  0  0  0  0
    7.4574   -3.9888   21.7747 C   0  0  0  0  0  0  0  0  0  0  0  0
    6.8171   -4.6623   21.2149 H   0  0  0  0  0  0  0  0  0  0  0  0
    8.4627   -4.5356   23.1155 S   0  0  0  0  0  0  0  0  0  0  0  0
    9.0685   -2.9030   23.3430 C   0  0  0  0  0  0  0  0  0  0  0  0
    9.9964   -2.4861   24.3091 C   0  0  0  0  0  0  0  0  0  0  0  0
   10.3942   -3.1808   25.0456 H   0  0  0  0  0  0  0  0  0  0  0  0
   10.4535   -1.1640   24.2901 C   0  0  0  0  0  0  0  0  0  0  0  0
   11.2034   -0.8279   24.9997 H   0  0  0  0  0  0  0  0  0  0  0  0
   10.0031   -0.2784   23.3069 C   0  0  0  0  0  0  0  0  0  0  0  0
   10.4036    0.7292   23.2539 H   0  0  0  0  0  0  0  0  0  0  0  0
    9.0420   -0.6859   22.3776 C   0  0  0  0  0  0  0  0  0  0  0  0
    8.7272    0.0316   21.6312 H   0  0  0  0  0  0  0  0  0  0  0  0
    8.5459   -2.0024   22.4084 C   0  0  0  0  0  0  0  0  0  0  0  0
    6.1044    0.1919   19.3322 C   0  0  0  0  0  0  0  0  0  0  0  0
    6.6663    0.1489   18.0418 C   0  0  0  0  0  0  0  0  0  0  0  0
    7.5008   -0.5200   17.8528 H   0  0  0  0  0  0  0  0  0  0  0  0
    6.2522    0.9423   17.0369 N   0  0  0  0  0  0  0  0  0  0  0  0
    5.2348    1.7858   17.2794 C   0  0  0  0  0  0  0  0  0  0  0  0
    4.9045    2.4494   16.4864 H   0  0  0  0  0  0  0  0  0  0  0  0
    4.5857    1.8378   18.5150 C   0  0  0  0  0  0  0  0  0  0  0  0
    3.7567    2.5220   18.6301 H   0  0  0  0  0  0  0  0  0  0  0  0
    5.0321    1.0471   19.5719 C   0  0  0  0  0  0  0  0  0  0  0  0
    4.5612    1.1001   20.5533 H   0  0  0  0  0  0  0  0  0  0  0  0
  1  2  1  0
  2  3  2  3
  3  4  1  0
  3  5  1  0
  5  6  2  0
  6  7  1  0
  6  8  1  0
  8  9  1  0
  9 10  2  0
 10 11  1  0
 10 12  1  0
 12 13  1  0
 12 14  2  0
 14 15  1  0
 14 16  1  0
 16 17  1  0
 16 18  2  0
  2 19  1  0
 19 20  2  0
 20 21  1  0
 20 22  1  0
 22 23  2  0
 23 24  1  0
 23 25  1  0
 25 26  1  0
 25 27  2  0
 27 28  1  0
 18  5  1  0
 27 19  1  0
 18  9  1  0
M  END
>  <plip>  (1) 
-0.06896551724137931

>  <filename>  (1) 
[H][C](=[C]([Br])[c]1[c]([H])[s][c]2[c]([H])[c]([H])[c]([H])[c]([H])[c]12)[c]1[c]([H])[n][c]([H])[c]([H])[c]1[H]

$$$$
