
     RDKit          3D

 32 34  0  0  0  0  0  0  0  0999 V2000
    4.8255    1.3137   19.0939 C   0  0  0  0  0  0  0  0  0  0  0  0
    5.4241    1.2933   17.8287 C   0  0  0  0  0  0  0  0  0  0  0  0
    6.5767    0.6519   17.5720 N   0  0  0  0  0  0  0  0  0  0  0  0
    7.1800    0.0269   18.5987 C   0  0  0  0  0  0  0  0  0  0  0  0
    6.6708    0.0082   19.9199 C   0  0  0  0  0  0  0  0  0  0  0  0
    7.2954   -0.5875   21.0476 N   0  0  0  0  0  0  0  0  0  0  0  0
    8.6573   -0.7686   21.1803 C   0  0  0  0  0  0  0  0  0  0  0  0
    9.2351   -1.9064   21.4319 N   0  0  0  0  0  0  0  0  0  0  0  0
   10.5920   -1.6550   21.4964 N   0  0  0  0  0  0  0  0  0  0  0  0
   10.7576   -0.3795   21.3119 C   0  0  0  0  0  0  0  0  0  0  0  0
    9.5547    0.2607   21.1111 N   0  0  0  0  0  0  0  0  0  0  0  0
    9.2248    1.6914   21.0882 C   0  0  0  0  0  0  0  0  0  0  0  0
    8.5952    2.2210   22.3877 C   0  0  0  0  0  0  0  0  0  0  0  0
    8.1962    3.6668   22.2415 C   0  0  0  0  0  0  0  0  0  0  0  0
    9.0302    4.7131   22.5024 C   0  0  0  0  0  0  0  0  0  0  0  0
    8.3785    6.2240   22.0028 S   0  0  0  0  0  0  0  0  0  0  0  0
    6.9411    5.4599   21.4516 C   0  0  0  0  0  0  0  0  0  0  0  0
    6.9604    4.1173   21.6797 C   0  0  0  0  0  0  0  0  0  0  0  0
    6.1349    3.4527   21.4219 H   0  0  0  0  0  0  0  0  0  0  0  0
    6.1604    6.0368   20.9774 H   0  0  0  0  0  0  0  0  0  0  0  0
   10.0246    4.6523   22.9234 H   0  0  0  0  0  0  0  0  0  0  0  0
    7.7005    1.6278   22.6133 H   0  0  0  0  0  0  0  0  0  0  0  0
    9.3147    2.1307   23.2124 H   0  0  0  0  0  0  0  0  0  0  0  0
   10.1325    2.2703   20.8857 H   0  0  0  0  0  0  0  0  0  0  0  0
    8.5224    1.8717   20.2695 H   0  0  0  0  0  0  0  0  0  0  0  0
   11.7167    0.1246   21.3088 H   0  0  0  0  0  0  0  0  0  0  0  0
    6.8031   -1.3791   21.4371 H   0  0  0  0  0  0  0  0  0  0  0  0
    5.4577    0.6601   20.1544 C   0  0  0  0  0  0  0  0  0  0  0  0
    5.0571    0.6485   21.1687 H   0  0  0  0  0  0  0  0  0  0  0  0
    8.1150   -0.4875   18.3786 H   0  0  0  0  0  0  0  0  0  0  0  0
    4.9564    1.8052   16.9911 H   0  0  0  0  0  0  0  0  0  0  0  0
    3.8886    1.8384   19.2438 H   0  0  0  0  0  0  0  0  0  0  0  0
  1  2  2  0
  2  3  1  0
  3  4  2  0
  4  5  1  0
  5  6  1  0
  6  7  1  0
  7  8  2  0
  8  9  1  0
  9 10  2  0
 10 11  1  0
 11 12  1  0
 12 13  1  0
 13 14  1  0
 14 15  2  0
 15 16  1  0
 16 17  1  0
 17 18  2  0
 18 19  1  0
 17 20  1  0
 15 21  1  0
 13 22  1  0
 13 23  1  0
 12 24  1  0
 12 25  1  0
 10 26  1  0
  6 27  1  0
  5 28  2  0
 28 29  1  0
  4 30  1  0
  2 31  1  0
  1 32  1  0
 28  1  1  0
 11  7  1  0
 18 14  1  0
M  END
>  <plip>  (1) 
-0.07142857142857142

>  <filename>  (1) 
[H][c]1[n][c]([H])[c]([N]([H])[c]2[n][n][c]([H])[n]2[C]([H])([H])[C]([H])([H])[c]2[c]([H])[s][c]([H])[c]2[H])[c]([H])[c]1[H]

$$$$
