
     RDKit          3D

 26 28  0  0  0  0  0  0  0  0999 V2000
    4.9151    1.7847   17.0007 H   0  0  0  0  0  0  0  0  0  0  0  0
    5.3987    1.2904   17.8415 C   0  0  0  0  0  0  0  0  0  0  0  0
    6.5543    0.6672   17.5739 N   0  0  0  0  0  0  0  0  0  0  0  0
    7.1924    0.0600   18.5816 C   0  0  0  0  0  0  0  0  0  0  0  0
    8.1389   -0.4206   18.3525 H   0  0  0  0  0  0  0  0  0  0  0  0
    6.6944    0.0295   19.9001 C   0  0  0  0  0  0  0  0  0  0  0  0
    7.2822   -0.6730   20.9553 O   0  0  0  0  0  0  0  0  0  0  0  0
    8.6045   -0.7938   21.0955 C   0  0  0  0  0  0  0  0  0  0  0  0
    9.5334   -0.1135   20.4756 N   0  0  0  0  0  0  0  0  0  0  0  0
   10.7067   -0.5621   20.9760 N   0  0  0  0  0  0  0  0  0  0  0  0
   10.5328   -1.4760   21.8447 N   0  0  0  0  0  0  0  0  0  0  0  0
    9.1796   -1.6595   21.9544 N   0  0  0  0  0  0  0  0  0  0  0  0
    8.6104   -2.6068   22.8357 C   0  0  0  0  0  0  0  0  0  0  0  0
    7.2828   -2.6840   22.8230 N   0  0  0  0  0  0  0  0  0  0  0  0
    6.7052   -3.5594   23.6547 C   0  0  0  0  0  0  0  0  0  0  0  0
    5.6211   -3.6204   23.6524 H   0  0  0  0  0  0  0  0  0  0  0  0
    7.4325   -4.3896   24.5052 C   0  0  0  0  0  0  0  0  0  0  0  0
    6.7954   -5.2538   25.3074 F   0  0  0  0  0  0  0  0  0  0  0  0
    8.8230   -4.3241   24.5193 C   0  0  0  0  0  0  0  0  0  0  0  0
    9.3883   -4.9726   25.1881 H   0  0  0  0  0  0  0  0  0  0  0  0
    9.4241   -3.4055   23.6592 C   0  0  0  0  0  0  0  0  0  0  0  0
   10.5000   -3.2983   23.6174 H   0  0  0  0  0  0  0  0  0  0  0  0
    5.4693    0.6436   20.1720 C   0  0  0  0  0  0  0  0  0  0  0  0
    5.0447    0.6044   21.1769 H   0  0  0  0  0  0  0  0  0  0  0  0
    4.8235    1.2993   19.1176 C   0  0  0  0  0  0  0  0  0  0  0  0
    3.8908    1.8274   19.2696 H   0  0  0  0  0  0  0  0  0  0  0  0
  1  2  1  0
  2  3  2  0
  3  4  1  0
  4  5  1  0
  4  6  2  0
  6  7  1  0
  7  8  1  0
  8  9  2  0
  9 10  1  0
 10 11  2  0
 11 12  1  0
 12 13  1  0
 13 14  2  0
 14 15  1  0
 15 16  1  0
 15 17  2  0
 17 18  1  0
 17 19  1  0
 19 20  1  0
 19 21  2  0
 21 22  1  0
  6 23  1  0
 23 24  1  0
 23 25  2  0
 25 26  1  0
 25  2  1  0
 12  8  1  0
 21 13  1  0
M  END
>  <plip>  (1) 
-0.07142857142857142

>  <filename>  (1) 
[H][c]1[n][c]([H])[c]([O][c]2[n][n][n][n]2-[c]2[n][c]([H])[c]([F])[c]([H])[c]2[H])[c]([H])[c]1[H]

$$$$
