
     RDKit          3D

 35 36  0  0  0  0  0  0  0  0999 V2000
    9.7218    4.8078   25.5374 C   0  0  0  0  0  0  0  0  0  0  0  0
   10.8188    4.8519   24.4919 C   0  0  0  0  0  0  0  0  0  0  0  0
   11.9103    5.7144   24.6560 C   0  0  0  0  0  0  0  0  0  0  0  0
   12.1033    6.3032   25.8550 F   0  0  0  0  0  0  0  0  0  0  0  0
   12.8097    6.0198   23.6387 C   0  0  0  0  0  0  0  0  0  0  0  0
   12.6947    5.3457   22.4184 C   0  0  0  0  0  0  0  0  0  0  0  0
   11.7248    4.3550   22.2616 C   0  0  0  0  0  0  0  0  0  0  0  0
   10.7902    4.1293   23.2774 C   0  0  0  0  0  0  0  0  0  0  0  0
    9.7666    3.1740   23.0710 N   0  0  0  0  0  0  0  0  0  0  0  0
    9.8721    2.0369   22.3357 C   0  0  0  0  0  0  0  0  0  0  0  0
   10.9201    1.6243   21.8553 O   0  0  0  0  0  0  0  0  0  0  0  0
    8.4736    1.2586   22.1492 C   0  0  0  0  0  0  0  0  0  0  0  0
    7.4182    1.6608   22.6222 O   0  0  0  0  0  0  0  0  0  0  0  0
    8.5762    0.1213   21.4287 N   0  0  0  0  0  0  0  0  0  0  0  0
    7.4186   -0.6583   21.0256 C   0  0  0  0  0  0  0  0  0  0  0  0
    6.6525    0.0162   19.9114 C   0  0  0  0  0  0  0  0  0  0  0  0
    5.4340    0.6675   20.1405 C   0  0  0  0  0  0  0  0  0  0  0  0
    4.8044    1.3114   19.0730 C   0  0  0  0  0  0  0  0  0  0  0  0
    5.4191    1.2943   17.8194 C   0  0  0  0  0  0  0  0  0  0  0  0
    6.5849    0.6746   17.5771 N   0  0  0  0  0  0  0  0  0  0  0  0
    7.1787    0.0655   18.6115 C   0  0  0  0  0  0  0  0  0  0  0  0
    8.1237   -0.4272   18.3773 H   0  0  0  0  0  0  0  0  0  0  0  0
    4.9588    1.8020   16.9719 H   0  0  0  0  0  0  0  0  0  0  0  0
    3.8649    1.8349   19.2042 H   0  0  0  0  0  0  0  0  0  0  0  0
    5.0033    0.6875   21.1443 H   0  0  0  0  0  0  0  0  0  0  0  0
    6.7753   -0.8141   21.8991 H   0  0  0  0  0  0  0  0  0  0  0  0
    7.7876   -1.6395   20.7110 H   0  0  0  0  0  0  0  0  0  0  0  0
    9.4959   -0.1195   21.0931 H   0  0  0  0  0  0  0  0  0  0  0  0
    8.8501    3.3758   23.4371 H   0  0  0  0  0  0  0  0  0  0  0  0
   11.6812    3.7392   21.3706 H   0  0  0  0  0  0  0  0  0  0  0  0
   13.3875    5.5482   21.6073 H   0  0  0  0  0  0  0  0  0  0  0  0
   13.5639    6.7741   23.8196 H   0  0  0  0  0  0  0  0  0  0  0  0
    9.3879    3.7830   25.7506 H   0  0  0  0  0  0  0  0  0  0  0  0
   10.0696    5.2539   26.4750 H   0  0  0  0  0  0  0  0  0  0  0  0
    8.8589    5.3935   25.1971 H   0  0  0  0  0  0  0  0  0  0  0  0
  1  2  1  0
  2  3  2  0
  3  4  1  0
  3  5  1  0
  5  6  2  0
  6  7  1  0
  7  8  2  0
  8  9  1  0
  9 10  1  0
 10 11  2  0
 10 12  1  0
 12 13  2  0
 12 14  1  0
 14 15  1  0
 15 16  1  0
 16 17  2  0
 17 18  1  0
 18 19  2  0
 19 20  1  0
 20 21  2  0
 21 22  1  0
 19 23  1  0
 18 24  1  0
 17 25  1  0
 15 26  1  0
 15 27  1  0
 14 28  1  0
  9 29  1  0
  7 30  1  0
  6 31  1  0
  5 32  1  0
  1 33  1  0
  1 34  1  0
  1 35  1  0
  8  2  1  0
 21 16  1  0
M  END
>  <plip>  (1) 
-0.14285714285714285

>  <filename>  (1) 
[H][c]1[n][c]([H])[c]([C]([H])([H])[N]([H])[C](=[O])[C](=[O])[N]([H])[c]2[c]([H])[c]([H])[c]([H])[c]([F])[c]2[C]([H])([H])[H])[c]([H])[c]1[H]

$$$$
