
     RDKit          3D

 34 36  0  0  0  0  0  0  0  0999 V2000
    4.9645    1.7623   16.9499 H   0  0  0  0  0  0  0  0  0  0  0  0
    5.4129    1.3024   17.8302 C   0  0  0  0  0  0  0  0  0  0  0  0
    6.5932    0.6942   17.6404 N   0  0  0  0  0  0  0  0  0  0  0  0
    7.1773    0.1359   18.7107 C   0  0  0  0  0  0  0  0  0  0  0  0
    8.1344   -0.3547   18.5204 H   0  0  0  0  0  0  0  0  0  0  0  0
    6.6216    0.1375   19.9990 C   0  0  0  0  0  0  0  0  0  0  0  0
    7.3267   -0.5912   21.1335 C   0  0  2  0  0  0  0  0  0  0  0  0
    6.8409   -0.3137   22.0874 H   0  0  0  0  0  0  0  0  0  0  0  0
    8.7635   -0.2679   21.1698 N   0  0  0  0  0  0  0  0  0  0  0  0
    9.0323    1.1480   21.3440 C   0  0  2  0  0  0  0  0  0  0  0  0
    8.5278    1.6783   20.5336 H   0  0  0  0  0  0  0  0  0  0  0  0
   10.4460    1.4664   21.2600 N   0  0  0  0  0  0  0  0  0  0  0  0
   10.7143    1.9805   22.3853 C   0  0  0  0  0  0  0  0  0  0  0  0
   11.9512    2.2547   22.8509 N   0  0  0  0  0  0  0  0  0  0  0  0
   12.5458    2.4336   22.0570 H   0  0  0  0  0  0  0  0  0  0  0  0
   11.8436    3.0185   23.4937 H   0  0  0  0  0  0  0  0  0  0  0  0
    9.7451    2.3172   23.2540 O   0  0  0  0  0  0  0  0  0  0  0  0
    8.5500    1.7406   22.7059 C   0  0  0  0  0  0  0  0  0  0  0  0
    8.1757    0.9743   23.3918 H   0  0  0  0  0  0  0  0  0  0  0  0
    7.7725    2.4988   22.5892 H   0  0  0  0  0  0  0  0  0  0  0  0
    9.5612   -1.1490   22.0427 C   0  0  0  0  0  0  0  0  0  0  0  0
    9.3314   -1.0231   23.1153 H   0  0  0  0  0  0  0  0  0  0  0  0
   10.6225   -0.9009   21.9108 H   0  0  0  0  0  0  0  0  0  0  0  0
    9.3110   -2.6046   21.6682 C   0  0  0  0  0  0  0  0  0  0  0  0
    9.8226   -3.2638   22.3787 H   0  0  0  0  0  0  0  0  0  0  0  0
    9.7278   -2.7804   20.6671 H   0  0  0  0  0  0  0  0  0  0  0  0
    7.9322   -2.9419   21.7344 O   0  0  0  0  0  0  0  0  0  0  0  0
    7.1145   -2.1078   20.9293 C   0  0  0  0  0  0  0  0  0  0  0  0
    7.2575   -2.3138   19.8658 H   0  0  0  0  0  0  0  0  0  0  0  0
    6.0765   -2.3434   21.1789 H   0  0  0  0  0  0  0  0  0  0  0  0
    5.3782    0.7527   20.1742 C   0  0  0  0  0  0  0  0  0  0  0  0
    4.8990    0.7682   21.1552 H   0  0  0  0  0  0  0  0  0  0  0  0
    4.7668    1.3502   19.0686 C   0  0  0  0  0  0  0  0  0  0  0  0
    3.8095    1.8526   19.1540 H   0  0  0  0  0  0  0  0  0  0  0  0
  1  2  1  0
  2  3  2  0
  3  4  1  0
  4  5  1  0
  4  6  2  0
  6  7  1  0
  7  8  1  1
  7  9  1  0
  9 10  1  0
 10 11  1  6
 10 12  1  0
 12 13  2  0
 13 14  1  0
 14 15  1  0
 14 16  1  0
 13 17  1  0
 17 18  1  0
 18 19  1  0
 18 20  1  0
  9 21  1  0
 21 22  1  0
 21 23  1  0
 21 24  1  0
 24 25  1  0
 24 26  1  0
 24 27  1  0
 27 28  1  0
 28 29  1  0
 28 30  1  0
  6 31  1  0
 31 32  1  0
 31 33  2  0
 33 34  1  0
 33  2  1  0
 28  7  1  0
 18 10  1  0
M  END
>  <plip>  (1) 
-0.06896551724137931

>  <filename>  (1) 
[H][c]1[n][c]([H])[c]([C@]2([H])[N]([C@]3([H])[N]=[C]([N]([H])[H])[O][C]3([H])[H])[C]([H])([H])[C]([H])([H])[O][C]2([H])[H])[c]([H])[c]1[H]

$$$$
