
     RDKit          3D

 34 36  0  0  0  0  0  0  0  0999 V2000
    8.9251   -3.1013   22.2412 H   0  0  0  0  0  0  0  0  0  0  0  0
    8.4416   -2.1589   21.9932 C   0  0  0  0  0  0  0  0  0  0  0  0
    7.9071   -1.9044   20.7717 N   0  0  0  0  0  0  0  0  0  0  0  0
    7.3979   -0.6980   20.9198 C   0  0  0  0  0  0  0  0  0  0  0  0
    6.6346    0.0278   19.9023 C   0  0  0  0  0  0  0  0  0  0  0  0
    7.1456    0.0416   18.5984 C   0  0  0  0  0  0  0  0  0  0  0  0
    8.0914   -0.4488   18.3747 H   0  0  0  0  0  0  0  0  0  0  0  0
    6.5526    0.6675   17.5791 N   0  0  0  0  0  0  0  0  0  0  0  0
    5.3961    1.3006   17.8266 C   0  0  0  0  0  0  0  0  0  0  0  0
    4.9473    1.8064   16.9733 H   0  0  0  0  0  0  0  0  0  0  0  0
    4.7905    1.3216   19.0873 C   0  0  0  0  0  0  0  0  0  0  0  0
    3.8593    1.8518   19.2259 H   0  0  0  0  0  0  0  0  0  0  0  0
    5.4164    0.6733   20.1490 C   0  0  0  0  0  0  0  0  0  0  0  0
    4.9619    0.6633   21.1450 H   0  0  0  0  0  0  0  0  0  0  0  0
    7.6478   -0.2416   22.1747 N   0  0  0  0  0  0  0  0  0  0  0  0
    7.4061    1.0593   22.7882 C   0  0  0  0  0  0  0  0  0  0  0  0
    8.3599    1.4126   23.1904 H   0  0  0  0  0  0  0  0  0  0  0  0
    7.0792    1.7420   22.0049 H   0  0  0  0  0  0  0  0  0  0  0  0
    6.3611    0.9906   23.9056 C   0  0  0  0  0  0  0  0  0  0  0  0
    5.4182    0.5626   23.5457 H   0  0  0  0  0  0  0  0  0  0  0  0
    6.7347    0.3601   24.7226 H   0  0  0  0  0  0  0  0  0  0  0  0
    6.1330    2.3194   24.3579 O   0  0  0  0  0  0  0  0  0  0  0  0
    5.2343    2.5421   25.3642 C   0  0  0  0  0  0  0  0  0  0  0  0
    4.4930    1.5496   26.0227 C   0  0  0  0  0  0  0  0  0  0  0  0
    4.6147    0.5090   25.7380 H   0  0  0  0  0  0  0  0  0  0  0  0
    3.6045    1.9078   27.0480 C   0  0  0  0  0  0  0  0  0  0  0  0
    3.0346    1.1330   27.5585 H   0  0  0  0  0  0  0  0  0  0  0  0
    3.4461    3.2425   27.4216 C   0  0  0  0  0  0  0  0  0  0  0  0
    2.7576    3.5197   28.2172 H   0  0  0  0  0  0  0  0  0  0  0  0
    4.1880    4.2322   26.7605 C   0  0  0  0  0  0  0  0  0  0  0  0
    4.0738    5.2769   27.0425 H   0  0  0  0  0  0  0  0  0  0  0  0
    5.0745    3.8871   25.7403 C   0  0  0  0  0  0  0  0  0  0  0  0
    5.6652    4.6232   25.2049 H   0  0  0  0  0  0  0  0  0  0  0  0
    8.3268   -1.1822   22.8695 N   0  0  0  0  0  0  0  0  0  0  0  0
  1  2  1  0
  2  3  1  0
  3  4  2  0
  4  5  1  0
  5  6  2  0
  6  7  1  0
  6  8  1  0
  8  9  2  0
  9 10  1  0
  9 11  1  0
 11 12  1  0
 11 13  2  0
 13 14  1  0
  4 15  1  0
 15 16  1  0
 16 17  1  0
 16 18  1  0
 16 19  1  0
 19 20  1  0
 19 21  1  0
 19 22  1  0
 22 23  1  0
 23 24  2  0
 24 25  1  0
 24 26  1  0
 26 27  1  0
 26 28  2  0
 28 29  1  0
 28 30  1  0
 30 31  1  0
 30 32  2  0
 32 33  1  0
 15 34  1  0
 34  2  2  0
 13  5  1  0
 32 23  1  0
M  END
>  <plip>  (1) 
-0.034482758620689655

>  <filename>  (1) 
[H][c]1[n][c](-[c]2[c]([H])[n][c]([H])[c]([H])[c]2[H])[n]([C]([H])([H])[C]([H])([H])[O][c]2[c]([H])[c]([H])[c]([H])[c]([H])[c]2[H])[n]1

$$$$
