
     RDKit          3D

 35 36  0  0  0  0  0  0  0  0999 V2000
    9.0163    1.7234   24.4474 C   0  0  0  0  0  0  0  0  0  0  0  0
    7.8402    1.4113   23.5312 C   0  0  0  0  0  0  0  0  0  0  0  0
    8.2791    1.5010   22.0461 N   0  0  0  0  0  4  0  0  0  0  0  0
    8.6343    0.1503   21.4497 C   0  0  0  0  0  0  0  0  0  0  0  0
    7.4249   -0.6989   20.9664 C   0  0  0  0  0  0  0  0  0  0  0  0
    6.6208   -1.0292   22.0339 F   0  0  0  0  0  0  0  0  0  0  0  0
    7.9466   -1.8764   20.5253 F   0  0  0  0  0  0  0  0  0  0  0  0
    6.6242   -0.0212   19.8925 C   0  0  0  0  0  0  0  0  0  0  0  0
    5.4238    0.6496   20.1578 C   0  0  0  0  0  0  0  0  0  0  0  0
    4.8007    1.3163   19.1041 C   0  0  0  0  0  0  0  0  0  0  0  0
    5.4029    1.2948   17.8406 C   0  0  0  0  0  0  0  0  0  0  0  0
    6.5668    0.6788   17.5871 N   0  0  0  0  0  0  0  0  0  0  0  0
    7.1631    0.0455   18.6012 C   0  0  0  0  0  0  0  0  0  0  0  0
    8.1143   -0.4324   18.3734 H   0  0  0  0  0  0  0  0  0  0  0  0
    4.9269    1.7829   16.9934 H   0  0  0  0  0  0  0  0  0  0  0  0
    3.8717    1.8495   19.2514 H   0  0  0  0  0  0  0  0  0  0  0  0
    5.0031    0.6378   21.1668 H   0  0  0  0  0  0  0  0  0  0  0  0
    9.2899    0.2606   20.5866 H   0  0  0  0  0  0  0  0  0  0  0  0
    9.1509   -0.4807   22.1844 H   0  0  0  0  0  0  0  0  0  0  0  0
    7.4529    1.9320   21.5404 H   0  0  0  0  0  0  0  0  0  0  0  0
    9.0643    2.2014   22.0363 H   0  0  0  0  0  0  0  0  0  0  0  0
    6.6229    2.2674   23.7549 C   0  0  0  0  0  0  0  0  0  0  0  0
    5.4815    1.6848   24.3389 C   0  0  0  0  0  0  0  0  0  0  0  0
    4.3664    2.4588   24.6256 C   0  0  0  0  0  0  0  0  0  0  0  0
    4.4417    3.8157   24.3186 C   0  0  0  0  0  0  0  0  0  0  0  0
    3.0677    4.8177   24.6524 Cl  0  0  0  0  0  0  0  0  0  0  0  0
    5.4919    4.4025   23.7819 N   0  0  0  0  0  0  0  0  0  0  0  0
    6.5411    3.6442   23.5004 C   0  0  0  0  0  0  0  0  0  0  0  0
    7.8632    4.5261   22.7979 Cl  0  0  0  0  0  0  0  0  0  0  0  0
    3.4746    2.0497   25.0770 H   0  0  0  0  0  0  0  0  0  0  0  0
    5.4819    0.6178   24.5628 H   0  0  0  0  0  0  0  0  0  0  0  0
    7.5321    0.3781   23.6937 H   0  0  0  0  0  0  0  0  0  0  0  0
    9.8352    1.0126   24.2657 H   0  0  0  0  0  0  0  0  0  0  0  0
    8.7022    1.6276   25.4887 H   0  0  0  0  0  0  0  0  0  0  0  0
    9.3851    2.7401   24.2771 H   0  0  0  0  0  0  0  0  0  0  0  0
  1  2  1  0
  2  3  1  0
  3  4  1  0
  4  5  1  0
  5  6  1  0
  5  7  1  0
  5  8  1  0
  8  9  2  0
  9 10  1  0
 10 11  2  0
 11 12  1  0
 12 13  2  0
 13 14  1  0
 11 15  1  0
 10 16  1  0
  9 17  1  0
  4 18  1  0
  4 19  1  0
  3 20  1  0
  3 21  1  0
  2 22  1  0
 22 23  2  0
 23 24  1  0
 24 25  2  0
 25 26  1  0
 25 27  1  0
 27 28  2  0
 28 29  1  0
 24 30  1  0
 23 31  1  0
  2 32  1  0
  1 33  1  0
  1 34  1  0
  1 35  1  0
 13  8  1  0
 28 22  1  0
M  CHG  1   3   1
M  END
>  <plip>  (1) 
-0.1

>  <filename>  (1) 
[H][c]1[n][c]([H])[c]([C]([F])([F])[C]([H])([H])[N+]([H])([H])[C]([H])([c]2[c]([Cl])[n][c]([Cl])[c]([H])[c]2[H])[C]([H])([H])[H])[c]([H])[c]1[H]

$$$$
