
     RDKit          3D

 45 47  0  0  0  0  0  0  0  0999 V2000
    9.8490   -0.5926   21.0882 O   0  0  0  0  0  0  0  0  0  0  0  0
    8.8304    0.0027   21.4311 C   0  0  0  0  0  0  0  0  0  0  0  0
    7.4224   -0.6509   21.1048 C   0  0  0  0  0  0  0  0  0  0  0  0
    6.6207   -0.7954   22.2815 O   0  0  0  0  0  0  0  0  0  0  0  0
    5.7109   -0.9857   21.9930 H   0  0  0  0  0  0  0  0  0  0  0  0
    6.6499    0.0352   19.9761 C   0  0  0  0  0  0  0  0  0  0  0  0
    5.4552    0.7472   20.1612 C   0  0  0  0  0  0  0  0  0  0  0  0
    4.8566    1.3579   19.0577 C   0  0  0  0  0  0  0  0  0  0  0  0
    5.4653    1.2439   17.8056 C   0  0  0  0  0  0  0  0  0  0  0  0
    6.6014    0.5610   17.5987 N   0  0  0  0  0  0  0  0  0  0  0  0
    7.1602   -0.0238   18.6655 C   0  0  0  0  0  0  0  0  0  0  0  0
    8.0842   -0.5689   18.4788 H   0  0  0  0  0  0  0  0  0  0  0  0
    5.0160    1.7093   16.9314 H   0  0  0  0  0  0  0  0  0  0  0  0
    3.9319    1.9122   19.1563 H   0  0  0  0  0  0  0  0  0  0  0  0
    5.0182    0.8354   21.1593 H   0  0  0  0  0  0  0  0  0  0  0  0
    7.7488   -1.6355   20.7458 H   0  0  0  0  0  0  0  0  0  0  0  0
    8.8881    1.2171   22.0385 N   0  0  0  0  0  0  0  0  0  0  0  0
   10.1650    1.7279   22.5465 C   0  0  0  0  0  0  0  0  0  0  0  0
    9.8421    3.1634   22.9889 C   0  0  0  0  0  0  0  0  0  0  0  0
    8.3064    3.2239   23.0782 C   0  0  0  0  0  0  0  0  0  0  0  0
    7.6048    2.9385   24.7046 S   0  0  0  0  0  0  0  0  0  0  0  0
    6.1660    2.8440   24.5358 O   0  0  0  0  0  0  0  0  0  0  0  0
    8.1931    3.9182   25.6055 O   0  0  0  0  0  0  0  0  0  0  0  0
    8.1649    1.4266   25.1277 N   0  0  0  0  0  0  0  0  0  0  0  0
    7.1555    0.3556   25.3421 C   0  0  0  0  0  0  0  0  0  0  0  0
    7.7869   -0.9447   25.9151 C   0  0  0  0  0  0  0  0  0  0  0  0
    9.1600   -1.0838   25.6046 O   0  0  0  0  0  0  0  0  0  0  0  0
    9.9511   -0.0441   26.1574 C   0  0  0  0  0  0  0  0  0  0  0  0
    9.4189    1.3954   25.8970 C   0  0  0  0  0  0  0  0  0  0  0  0
   10.1862    1.9537   25.3596 H   0  0  0  0  0  0  0  0  0  0  0  0
    9.2716    1.9352   26.8357 H   0  0  0  0  0  0  0  0  0  0  0  0
   10.9485   -0.1691   25.7160 H   0  0  0  0  0  0  0  0  0  0  0  0
   10.0464   -0.1789   27.2473 H   0  0  0  0  0  0  0  0  0  0  0  0
    7.2833   -1.8195   25.4813 H   0  0  0  0  0  0  0  0  0  0  0  0
    7.6478   -0.9736   27.0096 H   0  0  0  0  0  0  0  0  0  0  0  0
    6.6997    0.1315   24.3724 H   0  0  0  0  0  0  0  0  0  0  0  0
    6.3573    0.6968   26.0166 H   0  0  0  0  0  0  0  0  0  0  0  0
    7.7853    2.1615   22.1182 C   0  0  0  0  0  0  0  0  0  0  0  0
    6.8811    1.6654   22.4837 H   0  0  0  0  0  0  0  0  0  0  0  0
    7.5636    2.5896   21.1340 H   0  0  0  0  0  0  0  0  0  0  0  0
    7.9232    4.2252   22.8754 H   0  0  0  0  0  0  0  0  0  0  0  0
   10.3457    3.4661   23.9131 H   0  0  0  0  0  0  0  0  0  0  0  0
   10.1751    3.8668   22.2206 H   0  0  0  0  0  0  0  0  0  0  0  0
   10.5232    1.0807   23.3582 H   0  0  0  0  0  0  0  0  0  0  0  0
   10.9153    1.7050   21.7515 H   0  0  0  0  0  0  0  0  0  0  0  0
  1  2  2  0
  2  3  1  0
  3  4  1  0
  4  5  1  0
  3  6  1  0
  6  7  2  0
  7  8  1  0
  8  9  2  0
  9 10  1  0
 10 11  2  0
 11 12  1  0
  9 13  1  0
  8 14  1  0
  7 15  1  0
  3 16  1  0
  2 17  1  0
 17 18  1  0
 18 19  1  0
 19 20  1  0
 20 21  1  0
 21 22  2  0
 21 23  2  0
 21 24  1  0
 24 25  1  0
 25 26  1  0
 26 27  1  0
 27 28  1  0
 28 29  1  0
 29 30  1  0
 29 31  1  0
 28 32  1  0
 28 33  1  0
 26 34  1  0
 26 35  1  0
 25 36  1  0
 25 37  1  0
 20 38  1  0
 38 39  1  0
 38 40  1  0
 20 41  1  0
 19 42  1  0
 19 43  1  0
 18 44  1  0
 18 45  1  0
 11  6  1  0
 38 17  1  0
 29 24  1  0
M  END
>  <plip>  (1) 
-0.14285714285714285

>  <filename>  (1) 
[H][O][C]([H])([C](=[O])[N]1[C]([H])([H])[C]([H])([H])[C]([H])([S](=[O])(=[O])[N]2[C]([H])([H])[C]([H])([H])[O][C]([H])([H])[C]2([H])[H])[C]1([H])[H])[c]1[c]([H])[n][c]([H])[c]([H])[c]1[H]

$$$$
