
     RDKit          3D

 29 31  0  0  0  0  0  0  0  0999 V2000
    8.9949   -3.0560   22.3033 H   0  0  0  0  0  0  0  0  0  0  0  0
    8.4574   -2.1691   21.9744 C   0  0  0  0  0  0  0  0  0  0  0  0
    8.0216   -1.8752   20.7995 N   0  0  0  0  0  0  0  0  0  0  0  0
    7.4055   -0.6405   20.9605 C   0  0  0  0  0  0  0  0  0  0  0  0
    6.6502   -0.0042   19.8762 C   0  0  0  0  0  0  0  0  0  0  0  0
    7.1406   -0.0247   18.5540 C   0  0  0  0  0  0  0  0  0  0  0  0
    8.0526   -0.5666   18.3142 H   0  0  0  0  0  0  0  0  0  0  0  0
    6.5663    0.6174   17.5315 N   0  0  0  0  0  0  0  0  0  0  0  0
    5.4297    1.2906   17.7751 C   0  0  0  0  0  0  0  0  0  0  0  0
    4.9995    1.8344   16.9334 H   0  0  0  0  0  0  0  0  0  0  0  0
    4.8133    1.3136   19.0315 C   0  0  0  0  0  0  0  0  0  0  0  0
    3.8803    1.8509   19.1527 H   0  0  0  0  0  0  0  0  0  0  0  0
    5.4299    0.6615   20.0977 C   0  0  0  0  0  0  0  0  0  0  0  0
    4.9619    0.6608   21.0854 H   0  0  0  0  0  0  0  0  0  0  0  0
    7.5940   -0.2134   22.2600 C   0  0  0  0  0  0  0  0  0  0  0  0
    7.3318    1.0648   22.9824 C   0  0  1  0  0  0  0  0  0  0  0  0
    7.1065    1.7928   22.1950 H   0  0  0  0  0  0  0  0  0  0  0  0
    6.1951    0.9610   24.0246 C   0  0  0  0  0  0  0  0  0  0  0  0
    5.3614    0.3214   23.7227 H   0  0  0  0  0  0  0  0  0  0  0  0
    5.7821    1.9715   24.1838 H   0  0  0  0  0  0  0  0  0  0  0  0
    6.8153    0.4517   25.2459 N   0  0  0  0  0  0  0  0  0  0  0  0
    6.8700   -0.5585   25.1858 H   0  0  0  0  0  0  0  0  0  0  0  0
    8.1951    0.9562   25.2909 C   0  0  0  0  0  0  0  0  0  0  0  0
    8.8835    0.1281   25.5184 H   0  0  0  0  0  0  0  0  0  0  0  0
    8.3095    1.7110   26.0850 H   0  0  0  0  0  0  0  0  0  0  0  0
    8.4765    1.5874   23.9037 C   0  0  0  0  0  0  0  0  0  0  0  0
    8.3699    2.6802   23.9733 H   0  0  0  0  0  0  0  0  0  0  0  0
    9.4862    1.3683   23.5378 H   0  0  0  0  0  0  0  0  0  0  0  0
    8.2258   -1.2378   22.9166 O   0  0  0  0  0  0  0  0  0  0  0  0
  1  2  1  0
  2  3  2  0
  3  4  1  0
  4  5  1  0
  5  6  2  0
  6  7  1  0
  6  8  1  0
  8  9  2  0
  9 10  1  0
  9 11  1  0
 11 12  1  0
 11 13  2  0
 13 14  1  0
  4 15  2  0
 15 16  1  0
 16 17  1  6
 16 18  1  0
 18 19  1  0
 18 20  1  0
 18 21  1  0
 21 22  1  0
 21 23  1  0
 23 24  1  0
 23 25  1  0
 23 26  1  0
 26 27  1  0
 26 28  1  0
 15 29  1  0
 29  2  1  0
 13  5  1  0
 26 16  1  0
M  END
>  <plip>  (1) 
-0.06896551724137931

>  <filename>  (1) 
[H][c]1[n][c](-[c]2[c]([H])[n][c]([H])[c]([H])[c]2[H])[c]([C@@]2([H])[C]([H])([H])[N]([H])[C]([H])([H])[C]2([H])[H])[o]1

$$$$
