
     RDKit          3D

 44 45  0  0  0  0  0  0  0  0999 V2000
    4.9889    1.7680   16.9065 H   0  0  0  0  0  0  0  0  0  0  0  0
    5.4367    1.2675   17.7614 C   0  0  0  0  0  0  0  0  0  0  0  0
    6.5885    0.6253   17.5322 N   0  0  0  0  0  0  0  0  0  0  0  0
    7.1758    0.0174   18.5741 C   0  0  0  0  0  0  0  0  0  0  0  0
    8.1101   -0.4925   18.3404 H   0  0  0  0  0  0  0  0  0  0  0  0
    6.6684    0.0242   19.8867 C   0  0  0  0  0  0  0  0  0  0  0  0
    7.3411   -0.6895   21.0859 C   0  0  0  0  0  0  0  0  0  0  0  0
    7.3100    0.2544   22.3469 C   0  0  0  0  0  0  0  0  0  0  0  0
    7.4707    1.4605   22.2427 O   0  0  0  0  0  0  0  0  0  0  0  0
    7.1038   -0.3019   23.5875 N   0  0  0  0  0  0  0  0  0  0  0  0
    7.5509   -1.1649   23.8409 H   0  0  0  0  0  0  0  0  0  0  0  0
    7.0749    0.4526   24.7594 C   0  0  0  0  0  0  0  0  0  0  0  0
    7.5948   -0.0221   25.7458 O   0  0  0  0  0  0  0  0  0  0  0  0
    6.3583    1.5959   24.6601 N   0  0  0  0  0  0  0  0  0  0  0  0
    6.5290    2.0339   23.7665 H   0  0  0  0  0  0  0  0  0  0  0  0
    6.1726    2.4565   25.8144 C   0  0  0  0  0  0  0  0  0  0  0  0
    7.1251    2.8667   26.1903 H   0  0  0  0  0  0  0  0  0  0  0  0
    5.7372    1.8843   26.6443 H   0  0  0  0  0  0  0  0  0  0  0  0
    5.2223    3.5814   25.4038 C   0  0  0  0  0  0  0  0  0  0  0  0
    4.2887    3.1314   25.0459 H   0  0  0  0  0  0  0  0  0  0  0  0
    5.6637    4.1178   24.5528 H   0  0  0  0  0  0  0  0  0  0  0  0
    4.9586    4.5393   26.5354 C   0  0  0  0  0  0  0  0  0  0  0  0
    3.9139    4.3058   27.4412 C   0  0  0  0  0  0  0  0  0  0  0  0
    3.2462    3.4640   27.2721 H   0  0  0  0  0  0  0  0  0  0  0  0
    3.7385    5.1325   28.5557 C   0  0  0  0  0  0  0  0  0  0  0  0
    2.9277    4.9335   29.2548 H   0  0  0  0  0  0  0  0  0  0  0  0
    4.6061    6.2114   28.7681 C   0  0  0  0  0  0  0  0  0  0  0  0
    4.4759    6.8518   29.6385 H   0  0  0  0  0  0  0  0  0  0  0  0
    5.6499    6.4564   27.8668 C   0  0  0  0  0  0  0  0  0  0  0  0
    6.3297    7.2919   28.0270 H   0  0  0  0  0  0  0  0  0  0  0  0
    5.8190    5.6246   26.7554 C   0  0  0  0  0  0  0  0  0  0  0  0
    6.6304    5.8040   26.0535 H   0  0  0  0  0  0  0  0  0  0  0  0
    6.5794   -2.0148   21.3274 C   0  0  0  0  0  0  0  0  0  0  0  0
    6.5837   -2.6243   20.4182 H   0  0  0  0  0  0  0  0  0  0  0  0
    5.5347   -1.8284   21.5968 H   0  0  0  0  0  0  0  0  0  0  0  0
    7.0491   -2.6085   22.1177 H   0  0  0  0  0  0  0  0  0  0  0  0
    8.8326   -1.0037   20.8283 C   0  0  0  0  0  0  0  0  0  0  0  0
    8.9567   -1.6568   19.9617 H   0  0  0  0  0  0  0  0  0  0  0  0
    9.4069   -0.0855   20.6636 H   0  0  0  0  0  0  0  0  0  0  0  0
    9.2621   -1.5364   21.6851 H   0  0  0  0  0  0  0  0  0  0  0  0
    5.4394    0.6718   20.0869 C   0  0  0  0  0  0  0  0  0  0  0  0
    5.0001    0.6986   21.0865 H   0  0  0  0  0  0  0  0  0  0  0  0
    4.8159    1.3059   19.0135 C   0  0  0  0  0  0  0  0  0  0  0  0
    3.8804    1.8345   19.1350 H   0  0  0  0  0  0  0  0  0  0  0  0
  1  2  1  0
  2  3  2  0
  3  4  1  0
  4  5  1  0
  4  6  2  0
  6  7  1  0
  7  8  1  0
  8  9  2  0
  8 10  1  0
 10 11  1  0
 10 12  1  0
 12 13  2  0
 12 14  1  0
 14 15  1  0
 14 16  1  0
 16 17  1  0
 16 18  1  0
 16 19  1  0
 19 20  1  0
 19 21  1  0
 19 22  1  0
 22 23  2  0
 23 24  1  0
 23 25  1  0
 25 26  1  0
 25 27  2  0
 27 28  1  0
 27 29  1  0
 29 30  1  0
 29 31  2  0
 31 32  1  0
  7 33  1  0
 33 34  1  0
 33 35  1  0
 33 36  1  0
  7 37  1  0
 37 38  1  0
 37 39  1  0
 37 40  1  0
  6 41  1  0
 41 42  1  0
 41 43  2  0
 43 44  1  0
 43  2  1  0
 31 22  1  0
M  END
>  <plip>  (1) 
-0.07142857142857142

>  <filename>  (1) 
[H][c]1[n][c]([H])[c]([C]([C](=[O])[N]([H])[C](=[O])[N]([H])[C]([H])([H])[C]([H])([H])[c]2[c]([H])[c]([H])[c]([H])[c]([H])[c]2[H])([C]([H])([H])[H])[C]([H])([H])[H])[c]([H])[c]1[H]

$$$$
