
     RDKit          3D

 28 29  0  0  0  0  0  0  0  0999 V2000
    9.2909   -2.5633   23.6788 H   0  0  0  0  0  0  0  0  0  0  0  0
    8.7394   -1.9962   22.9286 C   0  0  0  0  0  0  0  0  0  0  0  0
    7.4740   -2.3217   22.7375 N   0  0  0  0  0  0  0  0  0  0  0  0
    6.8165   -1.6361   21.7879 C   0  0  0  0  0  0  0  0  0  0  0  0
    5.7686   -1.9084   21.6583 H   0  0  0  0  0  0  0  0  0  0  0  0
    7.3850   -0.6651   20.9768 C   0  0  0  0  0  0  0  0  0  0  0  0
    6.6616    0.0263   19.8370 C   0  0  0  0  0  0  0  0  0  0  0  0
    7.1561    0.0992   18.5064 C   0  0  0  0  0  0  0  0  0  0  0  0
    8.1025   -0.3725   18.2553 H   0  0  0  0  0  0  0  0  0  0  0  0
    6.5325    0.7182   17.4908 N   0  0  0  0  0  0  0  0  0  0  0  0
    5.3720    1.3322   17.7650 C   0  0  0  0  0  0  0  0  0  0  0  0
    4.8915    1.8464   16.9320 H   0  0  0  0  0  0  0  0  0  0  0  0
    4.7862    1.3285   19.0319 C   0  0  0  0  0  0  0  0  0  0  0  0
    3.8486    1.8505   19.1885 H   0  0  0  0  0  0  0  0  0  0  0  0
    5.4369    0.6653   20.0749 C   0  0  0  0  0  0  0  0  0  0  0  0
    5.0202    0.6656   21.0820 H   0  0  0  0  0  0  0  0  0  0  0  0
    8.7053   -0.3519   21.3903 C   0  0  0  0  0  0  0  0  0  0  0  0
    9.2638    0.7268   20.8339 O   0  0  0  0  0  0  0  0  0  0  0  0
   10.6303    1.0774   21.1200 C   0  0  0  0  0  0  0  0  0  0  0  0
   11.2646    0.1846   21.0669 H   0  0  0  0  0  0  0  0  0  0  0  0
   10.9192    1.7686   20.3214 H   0  0  0  0  0  0  0  0  0  0  0  0
   10.8739    1.8300   22.4379 C   0  0  0  0  0  0  0  0  0  0  0  0
   10.2373    2.7219   22.4611 H   0  0  0  0  0  0  0  0  0  0  0  0
   10.5807    1.2231   23.3028 H   0  0  0  0  0  0  0  0  0  0  0  0
   12.2753    2.2441   22.5902 N   0  0  0  0  0  0  0  0  0  0  0  0
   12.8959    1.4379   22.6070 H   0  0  0  0  0  0  0  0  0  0  0  0
   12.5611    2.7834   21.7755 H   0  0  0  0  0  0  0  0  0  0  0  0
    9.3940   -1.0294   22.2947 N   0  0  0  0  0  0  0  0  0  0  0  0
  1  2  1  0
  2  3  2  0
  3  4  1  0
  4  5  1  0
  4  6  2  0
  6  7  1  0
  7  8  2  0
  8  9  1  0
  8 10  1  0
 10 11  2  0
 11 12  1  0
 11 13  1  0
 13 14  1  0
 13 15  2  0
 15 16  1  0
  6 17  1  0
 17 18  1  0
 18 19  1  0
 19 20  1  0
 19 21  1  0
 19 22  1  0
 22 23  1  0
 22 24  1  0
 22 25  1  0
 25 26  1  0
 25 27  1  0
 17 28  2  0
 28  2  1  0
 15  7  1  0
M  END
>  <plip>  (1) 
-0.10714285714285714

>  <filename>  (1) 
[H][c]1[n][c]([H])[c](-[c]2[c]([H])[n][c]([H])[c]([H])[c]2[H])[c]([O][C]([H])([H])[C]([H])([H])[N]([H])[H])[n]1

$$$$
