
     RDKit          3D

 26 27  0  0  0  0  0  0  0  0999 V2000
    4.9900    1.7542   17.0243 H   0  0  0  0  0  0  0  0  0  0  0  0
    5.4468    1.2659   17.8803 C   0  0  0  0  0  0  0  0  0  0  0  0
    6.6087    0.6395   17.6432 N   0  0  0  0  0  0  0  0  0  0  0  0
    7.2020    0.0291   18.6641 C   0  0  0  0  0  0  0  0  0  0  0  0
    8.1406   -0.4790   18.4461 H   0  0  0  0  0  0  0  0  0  0  0  0
    6.6484    0.0385   19.9349 C   0  0  0  0  0  0  0  0  0  0  0  0
    7.5146   -0.8376   21.1572 S   0  0  0  0  0  0  0  0  0  0  0  0
    8.3623   -1.8021   20.4697 O   0  0  0  0  0  0  0  0  0  0  0  0
    6.5246   -1.2437   22.1427 O   0  0  0  0  0  0  0  0  0  0  0  0
    8.5989    0.3627   21.8996 C   0  0  0  0  0  0  0  0  0  0  0  0
    9.9188    0.4724   21.4290 C   0  0  0  0  0  0  0  0  0  0  0  0
   10.2887   -0.1584   20.6235 H   0  0  0  0  0  0  0  0  0  0  0  0
   10.7815    1.3797   22.0308 C   0  0  0  0  0  0  0  0  0  0  0  0
   11.8003    1.4982   21.6892 H   0  0  0  0  0  0  0  0  0  0  0  0
   10.3278    2.1556   23.1002 C   0  0  0  0  0  0  0  0  0  0  0  0
   11.2313    3.1608   23.6929 N   0  0  0  0  0  4  0  0  0  0  0  0
   10.7664    3.9539   24.4928 O   0  0  0  0  0  0  0  0  0  0  0  0
   12.4005    3.1602   23.3461 O   0  0  0  0  0  1  0  0  0  0  0  0
    9.0284    2.0204   23.5981 C   0  0  0  0  0  0  0  0  0  0  0  0
    8.7152    2.6252   24.4392 H   0  0  0  0  0  0  0  0  0  0  0  0
    8.1545    1.1174   22.9990 C   0  0  0  0  0  0  0  0  0  0  0  0
    7.1514    1.0138   23.4107 H   0  0  0  0  0  0  0  0  0  0  0  0
    5.4288    0.6625   20.2038 C   0  0  0  0  0  0  0  0  0  0  0  0
    4.9685    0.6404   21.1947 H   0  0  0  0  0  0  0  0  0  0  0  0
    4.8232    1.3027   19.1332 C   0  0  0  0  0  0  0  0  0  0  0  0
    3.8871    1.8344   19.2532 H   0  0  0  0  0  0  0  0  0  0  0  0
  1  2  1  0
  2  3  2  0
  3  4  1  0
  4  5  1  0
  4  6  2  0
  6  7  1  0
  7  8  2  0
  7  9  2  0
  7 10  1  0
 10 11  2  0
 11 12  1  0
 11 13  1  0
 13 14  1  0
 13 15  2  0
 15 16  1  0
 16 17  2  0
 16 18  1  0
 15 19  1  0
 19 20  1  0
 19 21  2  0
 21 22  1  0
  6 23  1  0
 23 24  1  0
 23 25  2  0
 25 26  1  0
 25  2  1  0
 21 10  1  0
M  CHG  2  16   1  18  -1
M  END
>  <plip>  (1) 
-0.03571428571428571

>  <filename>  (1) 
[H][c]1[n][c]([H])[c]([S](=[O])(=[O])[c]2[c]([H])[c]([H])[c]([N+](=[O])[O-])[c]([H])[c]2[H])[c]([H])[c]1[H]

$$$$
