
     RDKit          3D

 38 40  0  0  0  0  0  0  0  0999 V2000
    6.5724   -2.4855   19.8542 H   0  0  0  0  0  0  0  0  0  0  0  0
    6.7667   -2.0040   20.7947 C   0  0  0  0  0  0  0  0  0  0  0  0
    6.4361   -0.7131   20.9789 C   0  0  0  0  0  0  0  0  0  0  0  0
    6.0748    0.1854   19.8702 C   0  0  0  0  0  0  0  0  0  0  0  0
    6.8035    0.0964   18.6681 C   0  0  0  0  0  0  0  0  0  0  0  0
    7.6524   -0.5878   18.5983 H   0  0  0  0  0  0  0  0  0  0  0  0
    6.5361    0.8079   17.5661 N   0  0  0  0  0  0  0  0  0  0  0  0
    5.5009    1.6639   17.6189 C   0  0  0  0  0  0  0  0  0  0  0  0
    5.2983    2.2368   16.7134 H   0  0  0  0  0  0  0  0  0  0  0  0
    4.7185    1.8463   18.7638 C   0  0  0  0  0  0  0  0  0  0  0  0
    3.9101    2.5720   18.7494 H   0  0  0  0  0  0  0  0  0  0  0  0
    5.0135    1.1049   19.9102 C   0  0  0  0  0  0  0  0  0  0  0  0
    4.4166    1.2086   20.8151 H   0  0  0  0  0  0  0  0  0  0  0  0
    6.4755   -0.2040   22.2631 N   0  0  0  0  0  0  0  0  0  0  0  0
    6.2247    0.7282   22.5339 H   0  0  0  0  0  0  0  0  0  0  0  0
    7.0986   -0.8116   23.3259 C   0  0  0  0  0  0  0  0  0  0  0  0
    7.1156   -0.2419   24.4030 O   0  0  0  0  0  0  0  0  0  0  0  0
    7.6828   -2.0304   23.0638 N   0  0  0  0  0  0  0  0  0  0  0  0
    8.7535   -2.4675   23.9637 C   0  0  0  0  0  0  0  0  0  0  0  0
    8.3999   -2.4415   25.0003 H   0  0  0  0  0  0  0  0  0  0  0  0
    8.9786   -3.5218   23.7517 H   0  0  0  0  0  0  0  0  0  0  0  0
   10.0223   -1.6416   23.7919 C   0  0  0  0  0  0  0  0  0  0  0  0
   10.3447   -0.5449   24.6124 C   0  0  0  0  0  0  0  0  0  0  0  0
    9.6864   -0.2557   25.4320 H   0  0  0  0  0  0  0  0  0  0  0  0
   11.4892    0.2132   24.3523 C   0  0  0  0  0  0  0  0  0  0  0  0
   11.7324    1.0749   24.9739 H   0  0  0  0  0  0  0  0  0  0  0  0
   12.3365   -0.1233   23.2815 C   0  0  0  0  0  0  0  0  0  0  0  0
   13.6175    0.6516   23.1011 C   0  0  0  0  0  0  0  0  0  0  0  0
   14.3220    0.3009   22.0106 F   0  0  0  0  0  0  0  0  0  0  0  0
   13.3890    1.9788   23.0399 F   0  0  0  0  0  0  0  0  0  0  0  0
   14.4207    0.4557   24.1614 F   0  0  0  0  0  0  0  0  0  0  0  0
   12.0124   -1.1976   22.4438 C   0  0  0  0  0  0  0  0  0  0  0  0
   12.6500   -1.4591   21.6017 H   0  0  0  0  0  0  0  0  0  0  0  0
   10.8662   -1.9443   22.7146 C   0  0  0  0  0  0  0  0  0  0  0  0
   10.6109   -2.7745   22.0666 H   0  0  0  0  0  0  0  0  0  0  0  0
    7.3992   -2.8247   21.8626 C   0  0  0  0  0  0  0  0  0  0  0  0
    8.3363   -3.2508   21.4450 H   0  0  0  0  0  0  0  0  0  0  0  0
    6.7720   -3.7046   22.1232 H   0  0  0  0  0  0  0  0  0  0  0  0
  1  2  1  0
  2  3  2  0
  3  4  1  0
  4  5  2  0
  5  6  1  0
  5  7  1  0
  7  8  2  0
  8  9  1  0
  8 10  1  0
 10 11  1  0
 10 12  2  0
 12 13  1  0
  3 14  1  0
 14 15  1  0
 14 16  1  0
 16 17  2  0
 16 18  1  0
 18 19  1  0
 19 20  1  0
 19 21  1  0
 19 22  1  0
 22 23  2  0
 23 24  1  0
 23 25  1  0
 25 26  1  0
 25 27  2  0
 27 28  1  0
 28 29  1  0
 28 30  1  0
 28 31  1  0
 27 32  1  0
 32 33  1  0
 32 34  2  0
 34 35  1  0
 18 36  1  0
 36 37  1  0
 36 38  1  0
 36  2  1  0
 12  4  1  0
 34 22  1  0
M  END
>  <plip>  (1) 
-0.07142857142857142

>  <filename>  (1) 
[H][C]1=[C]([c]2[c]([H])[n][c]([H])[c]([H])[c]2[H])[N]([H])[C](=[O])[N]([C]([H])([H])[c]2[c]([H])[c]([H])[c]([C]([F])([F])[F])[c]([H])[c]2[H])[C]1([H])[H]

$$$$
