
     RDKit          3D

 41 42  0  0  0  0  0  0  0  0999 V2000
   11.1526    1.1888   23.5849 C   0  0  0  0  0  0  0  0  0  0  0  0
    9.7882    1.2177   24.2354 C   0  0  0  0  0  0  0  0  0  0  0  0
    8.6484    1.6428   23.5127 C   0  0  0  0  0  0  0  0  0  0  0  0
    8.7201    2.0119   22.1997 O   0  0  0  0  0  0  0  0  0  0  0  0
    9.1411    1.0594   21.2163 C   0  0  0  0  0  0  0  0  0  0  0  0
    8.6585   -0.3964   21.3782 C   0  0  0  0  0  0  0  0  0  0  0  0
    9.4042   -1.2296   21.8732 O   0  0  0  0  0  0  0  0  0  0  0  0
    7.3610   -0.6855   20.9660 N   0  0  0  0  0  0  0  0  0  0  0  0
    6.6860   -0.0057   19.8859 C   0  0  0  0  0  0  0  0  0  0  0  0
    5.4851    0.6632   20.1556 C   0  0  0  0  0  0  0  0  0  0  0  0
    4.8296    1.3213   19.1097 C   0  0  0  0  0  0  0  0  0  0  0  0
    5.3977    1.2963   17.8316 C   0  0  0  0  0  0  0  0  0  0  0  0
    6.5408    0.6537   17.5441 N   0  0  0  0  0  0  0  0  0  0  0  0
    7.1704    0.0253   18.5472 C   0  0  0  0  0  0  0  0  0  0  0  0
    8.1079   -0.4684   18.2922 H   0  0  0  0  0  0  0  0  0  0  0  0
    4.9133    1.8106   17.0061 H   0  0  0  0  0  0  0  0  0  0  0  0
    3.8925    1.8407   19.2770 H   0  0  0  0  0  0  0  0  0  0  0  0
    5.1065    0.6820   21.1790 H   0  0  0  0  0  0  0  0  0  0  0  0
    6.6379   -1.7914   21.6598 C   0  0  0  0  0  0  0  0  0  0  0  0
    6.7415   -1.7111   23.1877 C   0  0  0  0  0  0  0  0  0  0  0  0
    6.3423   -0.7660   23.5593 H   0  0  0  0  0  0  0  0  0  0  0  0
    7.7751   -1.7994   23.5340 H   0  0  0  0  0  0  0  0  0  0  0  0
    6.1513   -2.5141   23.6435 H   0  0  0  0  0  0  0  0  0  0  0  0
    7.0919   -3.1517   21.1348 C   0  0  0  0  0  0  0  0  0  0  0  0
    6.7823   -3.2849   20.0947 H   0  0  0  0  0  0  0  0  0  0  0  0
    6.5919   -3.9434   21.6947 H   0  0  0  0  0  0  0  0  0  0  0  0
    8.1813   -3.2705   21.2152 H   0  0  0  0  0  0  0  0  0  0  0  0
    5.5746   -1.6676   21.4064 H   0  0  0  0  0  0  0  0  0  0  0  0
    8.7560    1.4820   20.2921 H   0  0  0  0  0  0  0  0  0  0  0  0
   10.2299    1.0090   21.1696 H   0  0  0  0  0  0  0  0  0  0  0  0
    7.4072    1.7498   24.1728 C   0  0  0  0  0  0  0  0  0  0  0  0
    6.0046    2.2680   23.2881 Cl  0  0  0  0  0  0  0  0  0  0  0  0
    7.2692    1.3950   25.5194 C   0  0  0  0  0  0  0  0  0  0  0  0
    8.3844    0.9318   26.2176 C   0  0  0  0  0  0  0  0  0  0  0  0
    9.6303    0.8527   25.5817 C   0  0  0  0  0  0  0  0  0  0  0  0
   10.5035    0.5117   26.1339 H   0  0  0  0  0  0  0  0  0  0  0  0
    8.2931    0.6436   27.2618 H   0  0  0  0  0  0  0  0  0  0  0  0
    6.2896    1.4682   25.9904 H   0  0  0  0  0  0  0  0  0  0  0  0
   11.9552    1.2249   24.3274 H   0  0  0  0  0  0  0  0  0  0  0  0
   11.2918    0.2766   22.9950 H   0  0  0  0  0  0  0  0  0  0  0  0
   11.2930    2.0428   22.9134 H   0  0  0  0  0  0  0  0  0  0  0  0
  1  2  1  0
  2  3  2  0
  3  4  1  0
  4  5  1  0
  5  6  1  0
  6  7  2  0
  6  8  1  0
  8  9  1  0
  9 10  2  0
 10 11  1  0
 11 12  2  0
 12 13  1  0
 13 14  2  0
 14 15  1  0
 12 16  1  0
 11 17  1  0
 10 18  1  0
  8 19  1  0
 19 20  1  0
 20 21  1  0
 20 22  1  0
 20 23  1  0
 19 24  1  0
 24 25  1  0
 24 26  1  0
 24 27  1  0
 19 28  1  0
  5 29  1  0
  5 30  1  0
  3 31  1  0
 31 32  1  0
 31 33  2  0
 33 34  1  0
 34 35  2  0
 35 36  1  0
 34 37  1  0
 33 38  1  0
  1 39  1  0
  1 40  1  0
  1 41  1  0
 35  2  1  0
 14  9  1  0
M  END
>  <plip>  (1) 
-0.10714285714285714

>  <filename>  (1) 
[H][c]1[n][c]([H])[c]([N]([C](=[O])[C]([H])([H])[O][c]2[c]([Cl])[c]([H])[c]([H])[c]([H])[c]2[C]([H])([H])[H])[C]([H])([C]([H])([H])[H])[C]([H])([H])[H])[c]([H])[c]1[H]

$$$$
