
     RDKit          3D

 42 44  0  0  0  0  0  0  0  0999 V2000
    2.7318    4.9272   22.6867 C   0  0  0  0  0  0  0  0  0  0  0  0
    3.0750    4.4785   24.0803 C   0  0  0  0  0  0  0  0  0  0  0  0
    2.3603    4.8862   25.2101 C   0  0  0  0  0  0  0  0  0  0  0  0
    0.9954    5.9674   25.0448 Cl  0  0  0  0  0  0  0  0  0  0  0  0
    2.6937    4.4572   26.5166 C   0  0  0  0  0  0  0  0  0  0  0  0
    3.7569    3.5928   26.7295 C   0  0  0  0  0  0  0  0  0  0  0  0
    4.4854    3.1578   25.6086 C   0  0  0  0  0  0  0  0  0  0  0  0
    4.1592    3.5845   24.2943 C   0  0  0  0  0  0  0  0  0  0  0  0
    5.0961    2.9512   23.4236 C   0  0  0  0  0  0  0  0  0  0  0  0
    5.9494    2.1813   24.1914 C   0  0  0  0  0  0  0  0  0  0  0  0
    7.1175    1.2752   23.8814 C   0  0  0  0  0  0  0  0  0  0  0  0
    7.6846    0.6284   24.7488 O   0  0  0  0  0  0  0  0  0  0  0  0
    7.4842    1.2718   22.5713 N   0  0  0  0  0  0  0  0  0  0  0  0
    8.3176    0.2965   21.8873 C   0  0  0  0  0  0  0  0  0  0  0  0
    7.5616   -0.6817   20.9471 C   0  0  0  0  0  0  0  0  0  0  0  0
    6.8376   -1.8056   21.7441 C   0  0  0  0  0  0  0  0  0  0  0  0
    6.3418   -1.4660   23.0231 O   0  0  0  0  0  0  0  0  0  0  0  0
    5.3908   -1.2752   22.9922 H   0  0  0  0  0  0  0  0  0  0  0  0
    6.0491   -2.2452   21.1204 H   0  0  0  0  0  0  0  0  0  0  0  0
    7.5894   -2.5804   21.9307 H   0  0  0  0  0  0  0  0  0  0  0  0
    6.7322   -0.0021   19.8489 C   0  0  0  0  0  0  0  0  0  0  0  0
    5.4899    0.5913   20.1139 C   0  0  0  0  0  0  0  0  0  0  0  0
    4.8252    1.2658   19.0844 C   0  0  0  0  0  0  0  0  0  0  0  0
    5.4001    1.2983   17.8123 C   0  0  0  0  0  0  0  0  0  0  0  0
    6.5591    0.6935   17.5108 N   0  0  0  0  0  0  0  0  0  0  0  0
    7.1945    0.0729   18.5138 C   0  0  0  0  0  0  0  0  0  0  0  0
    8.1315   -0.4127   18.2409 H   0  0  0  0  0  0  0  0  0  0  0  0
    4.9137    1.8342   16.9998 H   0  0  0  0  0  0  0  0  0  0  0  0
    3.8915    1.7826   19.2672 H   0  0  0  0  0  0  0  0  0  0  0  0
    5.0509    0.5278   21.1131 H   0  0  0  0  0  0  0  0  0  0  0  0
    8.3588   -1.2108   20.4037 H   0  0  0  0  0  0  0  0  0  0  0  0
    9.0717    0.8422   21.3097 H   0  0  0  0  0  0  0  0  0  0  0  0
    8.8626   -0.2744   22.6424 H   0  0  0  0  0  0  0  0  0  0  0  0
    6.9823    1.9205   21.9908 H   0  0  0  0  0  0  0  0  0  0  0  0
    5.5562    2.3187   25.5086 N   0  0  0  0  0  0  0  0  0  0  0  0
    5.9939    1.8169   26.2690 H   0  0  0  0  0  0  0  0  0  0  0  0
    5.0672    3.0787   22.3449 H   0  0  0  0  0  0  0  0  0  0  0  0
    4.0146    3.2616   27.7323 H   0  0  0  0  0  0  0  0  0  0  0  0
    2.0975    4.8215   27.3478 H   0  0  0  0  0  0  0  0  0  0  0  0
    2.3985    5.9670   22.6804 H   0  0  0  0  0  0  0  0  0  0  0  0
    3.5955    4.8340   22.0211 H   0  0  0  0  0  0  0  0  0  0  0  0
    1.9212    4.3198   22.2712 H   0  0  0  0  0  0  0  0  0  0  0  0
  1  2  1  0
  2  3  2  0
  3  4  1  0
  3  5  1  0
  5  6  2  0
  6  7  1  0
  7  8  2  0
  8  9  1  0
  9 10  2  0
 10 11  1  0
 11 12  2  0
 11 13  1  0
 13 14  1  0
 14 15  1  0
 15 16  1  0
 16 17  1  0
 17 18  1  0
 16 19  1  0
 16 20  1  0
 15 21  1  0
 21 22  2  0
 22 23  1  0
 23 24  2  0
 24 25  1  0
 25 26  2  0
 26 27  1  0
 24 28  1  0
 23 29  1  0
 22 30  1  0
 15 31  1  0
 14 32  1  0
 14 33  1  0
 13 34  1  0
 10 35  1  0
 35 36  1  0
  9 37  1  0
  6 38  1  0
  5 39  1  0
  1 40  1  0
  1 41  1  0
  1 42  1  0
  8  2  1  0
 26 21  1  0
 35  7  1  0
M  END
>  <plip>  (1) 
-0.03571428571428571

>  <filename>  (1) 
[H][O][C]([H])([H])[C]([H])([c]1[c]([H])[n][c]([H])[c]([H])[c]1[H])[C]([H])([H])[N]([H])[C](=[O])[c]1[c]([H])[c]2[c]([C]([H])([H])[H])[c]([Cl])[c]([H])[c]([H])[c]2[n]1[H]

$$$$
