
     RDKit          3D

 39 41  0  0  0  0  0  0  0  0999 V2000
   11.1710   -5.0015   26.6492 H   0  0  0  0  0  0  0  0  0  0  0  0
   10.3095   -4.6714   26.9289 O   0  0  0  0  0  0  0  0  0  0  0  0
    9.3469   -5.0991   25.9738 C   0  0  0  0  0  0  0  0  0  0  0  0
    9.0498   -6.1511   26.1497 H   0  0  0  0  0  0  0  0  0  0  0  0
    8.1465   -4.1710   26.1613 C   0  0  0  0  0  0  0  0  0  0  0  0
    7.2820   -4.5550   25.6049 H   0  0  0  0  0  0  0  0  0  0  0  0
    7.8842   -4.1918   27.2245 H   0  0  0  0  0  0  0  0  0  0  0  0
    8.4764   -2.7344   25.7017 C   0  0  0  0  0  0  0  0  0  0  0  0
    7.5855   -2.0918   25.7543 H   0  0  0  0  0  0  0  0  0  0  0  0
    9.2226   -2.3165   26.4003 H   0  0  0  0  0  0  0  0  0  0  0  0
    9.0409   -2.7207   24.3436 N   0  0  0  0  0  0  0  0  0  0  0  0
    8.5224   -2.0399   23.2600 C   0  0  0  0  0  0  0  0  0  0  0  0
    9.3160   -1.4118   22.3673 C   0  0  0  0  0  0  0  0  0  0  0  0
   10.3887   -1.3635   22.4838 H   0  0  0  0  0  0  0  0  0  0  0  0
    8.8053   -0.6454   21.2362 C   0  0  0  0  0  0  0  0  0  0  0  0
    9.5248    0.0925   20.5773 O   0  0  0  0  0  0  0  0  0  0  0  0
    7.4331   -0.7962   20.9482 N   0  0  0  0  0  0  0  0  0  0  0  0
    6.8081   -0.0543   19.8933 C   0  0  0  0  0  0  0  0  0  0  0  0
    7.3216    0.0157   18.5760 C   0  0  0  0  0  0  0  0  0  0  0  0
    8.2792   -0.4515   18.3518 H   0  0  0  0  0  0  0  0  0  0  0  0
    6.6943    0.6334   17.5658 N   0  0  0  0  0  0  0  0  0  0  0  0
    5.5321    1.2535   17.8354 C   0  0  0  0  0  0  0  0  0  0  0  0
    5.0460    1.7520   16.9998 H   0  0  0  0  0  0  0  0  0  0  0  0
    4.9556    1.2779   19.1094 C   0  0  0  0  0  0  0  0  0  0  0  0
    4.0233    1.8067   19.2733 H   0  0  0  0  0  0  0  0  0  0  0  0
    5.6010    0.6073   20.1523 C   0  0  0  0  0  0  0  0  0  0  0  0
    5.2099    0.6106   21.1692 H   0  0  0  0  0  0  0  0  0  0  0  0
    6.6856   -1.8956   21.5730 C   0  0  0  0  0  0  0  0  0  0  0  0
    5.6108   -1.7354   21.4293 H   0  0  0  0  0  0  0  0  0  0  0  0
    6.9382   -2.8413   21.0687 H   0  0  0  0  0  0  0  0  0  0  0  0
    7.0220   -1.9896   23.0656 C   0  0  0  0  0  0  0  0  0  0  0  0
    6.6359   -1.1014   23.5791 H   0  0  0  0  0  0  0  0  0  0  0  0
    6.5480   -2.8760   23.4991 H   0  0  0  0  0  0  0  0  0  0  0  0
   10.2511   -3.5317   24.2245 C   0  0  0  0  0  0  0  0  0  0  0  0
   11.0049   -3.1730   24.9356 H   0  0  0  0  0  0  0  0  0  0  0  0
   10.6953   -3.4218   23.2293 H   0  0  0  0  0  0  0  0  0  0  0  0
    9.9333   -4.9915   24.5684 C   0  0  0  0  0  0  0  0  0  0  0  0
   10.8477   -5.5908   24.5328 H   0  0  0  0  0  0  0  0  0  0  0  0
    9.2330   -5.4147   23.8409 H   0  0  0  0  0  0  0  0  0  0  0  0
  1  2  1  0
  2  3  1  0
  3  4  1  0
  3  5  1  0
  5  6  1  0
  5  7  1  0
  5  8  1  0
  8  9  1  0
  8 10  1  0
  8 11  1  0
 11 12  1  0
 12 13  2  0
 13 14  1  0
 13 15  1  0
 15 16  2  0
 15 17  1  0
 17 18  1  0
 18 19  2  0
 19 20  1  0
 19 21  1  0
 21 22  2  0
 22 23  1  0
 22 24  1  0
 24 25  1  0
 24 26  2  0
 26 27  1  0
 17 28  1  0
 28 29  1  0
 28 30  1  0
 28 31  1  0
 31 32  1  0
 31 33  1  0
 11 34  1  0
 34 35  1  0
 34 36  1  0
 34 37  1  0
 37 38  1  0
 37 39  1  0
 37  3  1  0
 31 12  1  0
 26 18  1  0
M  END
>  <plip>  (1) 
-0.10714285714285714

>  <filename>  (1) 
[H][O][C]1([H])[C]([H])([H])[C]([H])([H])[N]([C]2=[C]([H])[C](=[O])[N]([c]3[c]([H])[n][c]([H])[c]([H])[c]3[H])[C]([H])([H])[C]2([H])[H])[C]([H])([H])[C]1([H])[H]

$$$$
