
     RDKit          3D

 38 40  0  0  0  0  0  0  0  0999 V2000
    8.8040   -1.1135   20.8370 C   0  0  0  0  0  0  0  0  0  0  0  0
    7.3254   -0.6948   21.0340 C   0  0  0  0  0  0  0  0  0  0  0  0
    7.2477    0.2201   22.1762 N   0  0  0  0  0  0  0  0  0  0  0  0
    7.8255    1.4650   22.1580 C   0  0  0  0  0  0  0  0  0  0  0  0
    8.3570    1.9620   21.1817 O   0  0  0  0  0  0  0  0  0  0  0  0
    7.8079    2.1161   23.5132 C   0  0  0  0  0  0  0  0  0  0  0  0
    8.8399    1.3438   24.2693 C   0  0  0  0  0  0  0  0  0  0  0  0
    8.4271    0.4674   25.1339 N   0  0  0  0  0  0  0  0  0  0  0  0
    9.6997   -0.3718   25.8421 S   0  0  0  0  0  0  0  0  0  0  0  0
   10.9040    0.4262   24.8793 C   0  0  0  0  0  0  0  0  0  0  0  0
   12.2888    0.2116   24.8343 C   0  0  0  0  0  0  0  0  0  0  0  0
   13.0475    0.9223   23.9195 C   0  0  0  0  0  0  0  0  0  0  0  0
   12.4383    1.8721   23.0728 C   0  0  0  0  0  0  0  0  0  0  0  0
   11.0709    2.1001   23.1231 C   0  0  0  0  0  0  0  0  0  0  0  0
   10.2759    1.3596   24.0299 C   0  0  0  0  0  0  0  0  0  0  0  0
   10.6120    2.8364   22.4716 H   0  0  0  0  0  0  0  0  0  0  0  0
   13.0542    2.4157   22.3646 H   0  0  0  0  0  0  0  0  0  0  0  0
   14.1180    0.7425   23.8555 H   0  0  0  0  0  0  0  0  0  0  0  0
   12.7501   -0.4937   25.5118 H   0  0  0  0  0  0  0  0  0  0  0  0
    6.8393    1.9726   23.9963 H   0  0  0  0  0  0  0  0  0  0  0  0
    8.0335    3.1736   23.3851 H   0  0  0  0  0  0  0  0  0  0  0  0
    7.2026   -0.2099   23.0920 H   0  0  0  0  0  0  0  0  0  0  0  0
    6.3733   -2.2742   21.4462 C   0  0  0  0  0  0  0  0  0  0  0  0
    6.6807   -2.6910   22.5616 O   0  0  0  0  0  0  0  0  0  0  0  0
    5.6256   -2.6732   20.5621 O   0  0  0  0  0  1  0  0  0  0  0  0
    6.6875    0.0077   19.8414 C   0  0  0  0  0  0  0  0  0  0  0  0
    5.4220    0.6106   19.9916 C   0  0  0  0  0  0  0  0  0  0  0  0
    4.8366    1.2606   18.9037 C   0  0  0  0  0  0  0  0  0  0  0  0
    5.5386    1.2981   17.6934 C   0  0  0  0  0  0  0  0  0  0  0  0
    6.7521    0.7555   17.5235 N   0  0  0  0  0  0  0  0  0  0  0  0
    7.3040    0.1457   18.5878 C   0  0  0  0  0  0  0  0  0  0  0  0
    8.3097   -0.2475   18.4280 H   0  0  0  0  0  0  0  0  0  0  0  0
    5.1070    1.7856   16.8212 H   0  0  0  0  0  0  0  0  0  0  0  0
    3.8742    1.7565   18.9879 H   0  0  0  0  0  0  0  0  0  0  0  0
    4.9252    0.5754   20.9637 H   0  0  0  0  0  0  0  0  0  0  0  0
    9.1561   -1.6518   21.7266 H   0  0  0  0  0  0  0  0  0  0  0  0
    9.4303   -0.2199   20.7177 H   0  0  0  0  0  0  0  0  0  0  0  0
    8.9183   -1.7603   19.9627 H   0  0  0  0  0  0  0  0  0  0  0  0
  1  2  1  0
  2  3  1  0
  3  4  1  0
  4  5  2  0
  4  6  1  0
  6  7  1  0
  7  8  2  0
  8  9  1  0
  9 10  1  0
 10 11  2  0
 11 12  1  0
 12 13  2  0
 13 14  1  0
 14 15  2  0
 14 16  1  0
 13 17  1  0
 12 18  1  0
 11 19  1  0
  6 20  1  0
  6 21  1  0
  3 22  1  0
  2 23  1  0
 23 24  2  0
 23 25  1  0
  2 26  1  0
 26 27  2  0
 27 28  1  0
 28 29  2  0
 29 30  1  0
 30 31  2  0
 31 32  1  0
 29 33  1  0
 28 34  1  0
 27 35  1  0
  1 36  1  0
  1 37  1  0
  1 38  1  0
 15  7  1  0
 31 26  1  0
 15 10  1  0
M  CHG  1  25  -1
M  END
>  <plip>  (1) 
-0.13793103448275862

>  <filename>  (1) 
[H][c]1[n][c]([H])[c]([C]([C](=[O])[O-])([N]([H])[C](=[O])[C]([H])([H])[c]2[n][s][c]3[c]([H])[c]([H])[c]([H])[c]([H])[c]23)[C]([H])([H])[H])[c]([H])[c]1[H]

$$$$
