
     RDKit          3D

 31 32  0  0  0  0  0  0  0  0999 V2000
    8.6714   -6.0798   25.0270 C   0  0  0  0  0  0  0  0  0  0  0  0
    8.0472   -5.1882   23.9533 C   0  0  0  0  0  0  0  0  0  0  0  0
    7.2692   -4.0151   24.5496 C   0  0  0  0  0  0  0  0  0  0  0  0
    6.6839   -3.1815   23.5577 O   0  0  0  0  0  0  0  0  0  0  0  0
    7.4396   -2.3261   22.8290 C   0  0  0  0  0  0  0  0  0  0  0  0
    6.7604   -1.6797   21.7740 C   0  0  0  0  0  0  0  0  0  0  0  0
    5.4924   -2.0460   21.5198 F   0  0  0  0  0  0  0  0  0  0  0  0
    7.3834   -0.7221   20.9707 C   0  0  0  0  0  0  0  0  0  0  0  0
    6.6470    0.0045   19.8930 C   0  0  0  0  0  0  0  0  0  0  0  0
    5.4258    0.6550   20.1355 C   0  0  0  0  0  0  0  0  0  0  0  0
    4.7972    1.3258   19.0826 C   0  0  0  0  0  0  0  0  0  0  0  0
    5.3971    1.3084   17.8188 C   0  0  0  0  0  0  0  0  0  0  0  0
    6.5568    0.6853   17.5601 N   0  0  0  0  0  0  0  0  0  0  0  0
    7.1633    0.0693   18.5835 C   0  0  0  0  0  0  0  0  0  0  0  0
    8.1105   -0.4130   18.3475 H   0  0  0  0  0  0  0  0  0  0  0  0
    4.9320    1.8089   16.9720 H   0  0  0  0  0  0  0  0  0  0  0  0
    3.8643    1.8611   19.2266 H   0  0  0  0  0  0  0  0  0  0  0  0
    4.9908    0.6371   21.1335 H   0  0  0  0  0  0  0  0  0  0  0  0
    8.7467   -0.4620   21.2067 C   0  0  0  0  0  0  0  0  0  0  0  0
    9.4442   -1.1049   22.2279 C   0  0  0  0  0  0  0  0  0  0  0  0
    8.7938   -2.0393   23.0472 C   0  0  0  0  0  0  0  0  0  0  0  0
    9.3248   -2.5564   23.8415 H   0  0  0  0  0  0  0  0  0  0  0  0
   10.4957   -0.8890   22.3946 H   0  0  0  0  0  0  0  0  0  0  0  0
    9.2405    0.2722   20.5785 H   0  0  0  0  0  0  0  0  0  0  0  0
    7.9053   -3.4159   25.2206 H   0  0  0  0  0  0  0  0  0  0  0  0
    6.4081   -4.3724   25.1257 H   0  0  0  0  0  0  0  0  0  0  0  0
    8.8322   -4.8120   23.2836 H   0  0  0  0  0  0  0  0  0  0  0  0
    7.3633   -5.7600   23.3122 H   0  0  0  0  0  0  0  0  0  0  0  0
    9.3045   -6.8371   24.5598 H   0  0  0  0  0  0  0  0  0  0  0  0
    7.9104   -6.5836   25.6336 H   0  0  0  0  0  0  0  0  0  0  0  0
    9.3078   -5.5147   25.7179 H   0  0  0  0  0  0  0  0  0  0  0  0
  1  2  1  0
  2  3  1  0
  3  4  1  0
  4  5  1  0
  5  6  2  0
  6  7  1  0
  6  8  1  0
  8  9  1  0
  9 10  2  0
 10 11  1  0
 11 12  2  0
 12 13  1  0
 13 14  2  0
 14 15  1  0
 12 16  1  0
 11 17  1  0
 10 18  1  0
  8 19  2  0
 19 20  1  0
 20 21  2  0
 21 22  1  0
 20 23  1  0
 19 24  1  0
  3 25  1  0
  3 26  1  0
  2 27  1  0
  2 28  1  0
  1 29  1  0
  1 30  1  0
  1 31  1  0
 21  5  1  0
 14  9  1  0
M  END
>  <plip>  (1) 
-0.07142857142857142

>  <filename>  (1) 
[H][c]1[n][c]([H])[c](-[c]2[c]([H])[c]([H])[c]([H])[c]([O][C]([H])([H])[C]([H])([H])[C]([H])([H])[H])[c]2[F])[c]([H])[c]1[H]

$$$$
