
     RDKit          3D

 34 36  0  0  0  0  0  0  0  0999 V2000
    7.7364   -3.3113   25.2790 H   0  0  0  0  0  0  0  0  0  0  0  0
    7.4780   -2.2621   25.4010 C   0  0  0  0  0  0  0  0  0  0  0  0
    7.4410   -1.4394   24.3494 C   0  0  0  0  0  0  0  0  0  0  0  0
    7.7928   -1.9213   22.9569 C   0  0  1  0  0  0  0  0  0  0  0  0
    7.7554   -3.0163   22.9692 H   0  0  0  0  0  0  0  0  0  0  0  0
    6.7933   -1.5438   21.8532 C   0  0  0  0  0  0  0  0  0  0  0  0
    5.7072   -2.0360   21.6719 O   0  0  0  0  0  0  0  0  0  0  0  0
    7.3940   -0.6421   20.9737 N   0  0  0  0  0  0  0  0  0  0  0  0
    6.6841    0.0150   19.9029 C   0  0  0  0  0  0  0  0  0  0  0  0
    7.1844    0.0579   18.5823 C   0  0  0  0  0  0  0  0  0  0  0  0
    8.1344   -0.4179   18.3577 H   0  0  0  0  0  0  0  0  0  0  0  0
    6.5558    0.6650   17.5699 N   0  0  0  0  0  0  0  0  0  0  0  0
    5.3995    1.2895   17.8405 C   0  0  0  0  0  0  0  0  0  0  0  0
    4.9242    1.7902   16.9989 H   0  0  0  0  0  0  0  0  0  0  0  0
    4.8232    1.3010   19.1137 C   0  0  0  0  0  0  0  0  0  0  0  0
    3.8930    1.8292   19.2647 H   0  0  0  0  0  0  0  0  0  0  0  0
    5.4603    0.6344   20.1658 C   0  0  0  0  0  0  0  0  0  0  0  0
    5.0340    0.5958   21.1684 H   0  0  0  0  0  0  0  0  0  0  0  0
    8.7618   -0.5471   21.2095 C   0  0  0  0  0  0  0  0  0  0  0  0
    9.5290    0.0929   20.5319 O   0  0  0  0  0  0  0  0  0  0  0  0
    9.1283   -1.3777   22.4209 C   0  0  0  0  0  0  0  0  0  0  0  0
    9.6728   -0.7367   23.1218 H   0  0  0  0  0  0  0  0  0  0  0  0
    9.8272   -2.1573   22.1013 H   0  0  0  0  0  0  0  0  0  0  0  0
    7.0505    0.0170   24.5219 C   0  0  0  0  0  0  0  0  0  0  0  0
    7.6663    0.6496   23.8753 H   0  0  0  0  0  0  0  0  0  0  0  0
    6.0163    0.1351   24.1773 H   0  0  0  0  0  0  0  0  0  0  0  0
    7.1618    0.4726   25.9800 C   0  0  0  0  0  0  0  0  0  0  0  0
    8.2294    0.6385   26.2284 H   0  0  0  0  0  0  0  0  0  0  0  0
    6.6463    1.4308   26.1077 H   0  0  0  0  0  0  0  0  0  0  0  0
    6.5273   -0.5283   26.8370 N   0  0  0  0  0  0  0  0  0  0  0  0
    6.4763   -0.1872   27.7903 H   0  0  0  0  0  0  0  0  0  0  0  0
    7.2556   -1.7967   26.8196 C   0  0  0  0  0  0  0  0  0  0  0  0
    8.2453   -1.7424   27.3176 H   0  0  0  0  0  0  0  0  0  0  0  0
    6.6777   -2.5488   27.3680 H   0  0  0  0  0  0  0  0  0  0  0  0
  1  2  1  0
  2  3  2  0
  3  4  1  0
  4  5  1  1
  4  6  1  0
  6  7  2  0
  6  8  1  0
  8  9  1  0
  9 10  2  0
 10 11  1  0
 10 12  1  0
 12 13  2  0
 13 14  1  0
 13 15  1  0
 15 16  1  0
 15 17  2  0
 17 18  1  0
  8 19  1  0
 19 20  2  0
 19 21  1  0
 21 22  1  0
 21 23  1  0
  3 24  1  0
 24 25  1  0
 24 26  1  0
 24 27  1  0
 27 28  1  0
 27 29  1  0
 27 30  1  0
 30 31  1  0
 30 32  1  0
 32 33  1  0
 32 34  1  0
 32  2  1  0
 21  4  1  0
 17  9  1  0
M  END
>  <plip>  (1) 
-0.10714285714285714

>  <filename>  (1) 
[H][C]1=[C]([C@@]2([H])[C](=[O])[N]([c]3[c]([H])[n][c]([H])[c]([H])[c]3[H])[C](=[O])[C]2([H])[H])[C]([H])([H])[C]([H])([H])[N]([H])[C]1([H])[H]

$$$$
