
     RDKit          3D

 25 26  0  0  0  0  0  0  0  0999 V2000
    5.2489    1.6915   16.9878 H   0  0  0  0  0  0  0  0  0  0  0  0
    5.5824    1.2162   17.9074 C   0  0  0  0  0  0  0  0  0  0  0  0
    6.6829    0.4578   17.8001 N   0  0  0  0  0  0  0  0  0  0  0  0
    7.1409   -0.1399   18.9072 C   0  0  0  0  0  0  0  0  0  0  0  0
    8.0340   -0.7484   18.7886 H   0  0  0  0  0  0  0  0  0  0  0  0
    6.5255    0.0128   20.1583 C   0  0  0  0  0  0  0  0  0  0  0  0
    7.1758   -0.9309   21.5293 S   0  0  0  0  0  4  0  0  0  0  0  0
    7.7348   -2.1977   20.9389 O   0  0  0  0  0  0  0  0  0  0  0  0
    8.6426    0.0983   21.8708 C   0  0  1  0  0  0  0  0  0  0  0  0
    8.2841    1.1137   22.0753 H   0  0  0  0  0  0  0  0  0  0  0  0
    9.3986   -0.4708   23.0697 C   0  0  0  0  0  0  0  0  0  0  0  0
    9.5387   -1.5533   22.9511 H   0  0  0  0  0  0  0  0  0  0  0  0
    8.9100   -0.3136   24.0344 H   0  0  0  0  0  0  0  0  0  0  0  0
   10.6884    0.2136   23.0244 N   0  0  0  0  0  0  0  0  0  0  0  0
   10.5183    1.1492   23.3788 H   0  0  0  0  0  0  0  0  0  0  0  0
   11.0445    0.3423   21.5990 C   0  0  0  0  0  0  0  0  0  0  0  0
   11.4630    1.3402   21.4238 H   0  0  0  0  0  0  0  0  0  0  0  0
   11.8169   -0.3906   21.3310 H   0  0  0  0  0  0  0  0  0  0  0  0
    9.7449    0.0979   20.7944 C   0  0  0  0  0  0  0  0  0  0  0  0
    9.7936   -0.8862   20.3135 H   0  0  0  0  0  0  0  0  0  0  0  0
    9.5731    0.8358   20.0113 H   0  0  0  0  0  0  0  0  0  0  0  0
    5.3683    0.7862   20.2710 C   0  0  0  0  0  0  0  0  0  0  0  0
    4.8590    0.8964   21.2323 H   0  0  0  0  0  0  0  0  0  0  0  0
    4.8840    1.3962   19.1083 C   0  0  0  0  0  0  0  0  0  0  0  0
    3.9869    2.0084   19.1175 H   0  0  0  0  0  0  0  0  0  0  0  0
  1  2  1  0
  2  3  2  0
  3  4  1  0
  4  5  1  0
  4  6  2  0
  7  6  1  6
  7  8  2  0
  7  9  1  0
  9 10  1  1
  9 11  1  0
 11 12  1  0
 11 13  1  0
 11 14  1  0
 14 15  1  0
 14 16  1  0
 16 17  1  0
 16 18  1  0
 16 19  1  0
 19 20  1  0
 19 21  1  0
  6 22  1  0
 22 23  1  0
 22 24  2  0
 24 25  1  0
 24  2  1  0
 19  9  1  0
M  END
>  <plip>  (1) 
-0.034482758620689655

>  <filename>  (1) 
[H][c]1[n][c]([H])[c]([S@@](=[O])[C@@]2([H])[C]([H])([H])[N]([H])[C]([H])([H])[C]2([H])[H])[c]([H])[c]1[H]

$$$$
