
     RDKit          3D

 44 46  0  0  0  0  0  0  0  0999 V2000
   10.5878    2.8374   22.6462 O   0  0  0  0  0  0  0  0  0  0  0  0
    9.9097    2.1252   23.3621 C   0  0  0  0  0  0  0  0  0  0  0  0
    8.8714    2.5937   24.1309 N   0  0  0  0  0  0  0  0  0  0  0  0
    8.1598    3.7907   23.8821 C   0  0  0  0  0  0  0  0  0  0  0  0
    7.5891    4.4994   24.9456 C   0  0  0  0  0  0  0  0  0  0  0  0
    6.9115    5.6963   24.6919 C   0  0  0  0  0  0  0  0  0  0  0  0
    6.7788    6.1719   23.3831 C   0  0  0  0  0  0  0  0  0  0  0  0
    7.3225    5.4412   22.3216 C   0  0  0  0  0  0  0  0  0  0  0  0
    8.0139    4.2542   22.5689 C   0  0  0  0  0  0  0  0  0  0  0  0
    8.4609    3.6899   21.7580 H   0  0  0  0  0  0  0  0  0  0  0  0
    7.2276    5.7973   21.2960 H   0  0  0  0  0  0  0  0  0  0  0  0
    6.2545    7.1035   23.1849 H   0  0  0  0  0  0  0  0  0  0  0  0
    6.4835    6.2579   25.5214 H   0  0  0  0  0  0  0  0  0  0  0  0
    7.6944    4.1275   25.9613 H   0  0  0  0  0  0  0  0  0  0  0  0
    8.5833    2.0431   24.9189 H   0  0  0  0  0  0  0  0  0  0  0  0
   10.1927    0.5909   23.4006 C   0  0  1  0  0  0  0  0  0  0  0  0
   10.4505   -0.0125   24.7950 C   0  0  0  0  0  0  0  0  0  0  0  0
    9.1678   -0.7731   25.2068 C   0  0  0  0  0  0  0  0  0  0  0  0
    8.2198   -0.7427   24.0035 C   0  0  0  0  0  0  0  0  0  0  0  0
    9.0723   -0.3200   22.8288 N   0  0  0  0  0  4  0  0  0  0  0  0
    8.3041    0.3035   21.7116 C   0  0  0  0  0  0  0  0  0  0  0  0
    7.4080   -0.6983   20.9932 C   0  0  0  0  0  0  0  0  0  0  0  0
    6.6417   -0.0244   19.8819 C   0  0  0  0  0  0  0  0  0  0  0  0
    5.4340    0.6426   20.1336 C   0  0  0  0  0  0  0  0  0  0  0  0
    4.7947    1.3157   19.0882 C   0  0  0  0  0  0  0  0  0  0  0  0
    5.3898    1.3053   17.8221 C   0  0  0  0  0  0  0  0  0  0  0  0
    6.5510    0.6901   17.5626 N   0  0  0  0  0  0  0  0  0  0  0  0
    7.1550    0.0536   18.5747 C   0  0  0  0  0  0  0  0  0  0  0  0
    8.1084   -0.4177   18.3370 H   0  0  0  0  0  0  0  0  0  0  0  0
    4.9168    1.8088   16.9790 H   0  0  0  0  0  0  0  0  0  0  0  0
    3.8675    1.8530   19.2386 H   0  0  0  0  0  0  0  0  0  0  0  0
    5.0142    0.6422   21.1410 H   0  0  0  0  0  0  0  0  0  0  0  0
    8.0403   -1.5161   20.6193 H   0  0  0  0  0  0  0  0  0  0  0  0
    6.7136   -1.1339   21.7245 H   0  0  0  0  0  0  0  0  0  0  0  0
    7.6996    1.1311   22.1135 H   0  0  0  0  0  0  0  0  0  0  0  0
    8.9996    0.7636   20.9967 H   0  0  0  0  0  0  0  0  0  0  0  0
    9.5347   -1.1813   22.4355 H   0  0  0  0  0  0  0  0  0  0  0  0
    7.4175   -0.0055   24.1174 H   0  0  0  0  0  0  0  0  0  0  0  0
    7.7312   -1.7059   23.8185 H   0  0  0  0  0  0  0  0  0  0  0  0
    9.4006   -1.8100   25.4746 H   0  0  0  0  0  0  0  0  0  0  0  0
    8.6896   -0.3288   26.0858 H   0  0  0  0  0  0  0  0  0  0  0  0
   11.3014   -0.6988   24.7386 H   0  0  0  0  0  0  0  0  0  0  0  0
   10.7458    0.7537   25.5209 H   0  0  0  0  0  0  0  0  0  0  0  0
   11.0567    0.5328   22.7381 H   0  0  0  0  0  0  0  0  0  0  0  0
  1  2  2  0
  2  3  1  0
  3  4  1  0
  4  5  2  0
  5  6  1  0
  6  7  2  0
  7  8  1  0
  8  9  2  0
  9 10  1  0
  8 11  1  0
  7 12  1  0
  6 13  1  0
  5 14  1  0
  3 15  1  0
  2 16  1  0
 16 17  1  0
 17 18  1  0
 18 19  1  0
 19 20  1  0
 20 21  1  0
 21 22  1  0
 22 23  1  0
 23 24  2  0
 24 25  1  0
 25 26  2  0
 26 27  1  0
 27 28  2  0
 28 29  1  0
 26 30  1  0
 25 31  1  0
 24 32  1  0
 22 33  1  0
 22 34  1  0
 21 35  1  0
 21 36  1  0
 20 37  1  0
 19 38  1  0
 19 39  1  0
 18 40  1  0
 18 41  1  0
 17 42  1  0
 17 43  1  0
 16 44  1  6
  9  4  1  0
 20 16  1  0
 28 23  1  0
M  CHG  1  20   1
M  END
>  <plip>  (1) 
-0.03571428571428571

>  <filename>  (1) 
[H][c]1[n][c]([H])[c]([C]([H])([H])[C]([H])([H])[N+]2([H])[C]([H])([H])[C]([H])([H])[C]([H])([H])[C@]2([H])[C](=[O])[N]([H])[c]2[c]([H])[c]([H])[c]([H])[c]([H])[c]2[H])[c]([H])[c]1[H]

$$$$
