
     RDKit          3D

 49 50  0  0  0  0  0  0  0  0999 V2000
    8.9333    5.3217   26.6430 C   0  0  0  0  0  0  0  0  0  0  0  0
    7.8552    4.6313   25.8087 C   0  0  0  0  0  0  0  0  0  0  0  0
    7.3074    3.4449   26.4531 N   0  0  0  0  0  0  0  0  0  0  0  0
    7.2616    2.2046   25.6793 C   0  0  0  0  0  0  0  0  0  0  0  0
    6.2064    2.1661   24.5454 C   0  0  0  0  0  0  0  0  0  0  0  0
    6.2415    0.9221   23.7753 N   0  0  0  0  0  0  0  0  0  0  0  0
    7.2229    0.6477   22.8579 C   0  0  0  0  0  0  0  0  0  0  0  0
    8.1362    1.4191   22.6341 O   0  0  0  0  0  0  0  0  0  0  0  0
    7.0701   -0.7470   22.1937 C   0  0  0  0  0  0  0  0  0  0  0  0
    7.9555   -1.8019   22.8539 C   0  0  0  0  0  0  0  0  0  0  0  0
    7.7028   -1.9197   23.9128 H   0  0  0  0  0  0  0  0  0  0  0  0
    9.0138   -1.5327   22.7730 H   0  0  0  0  0  0  0  0  0  0  0  0
    7.8076   -2.7677   22.3590 H   0  0  0  0  0  0  0  0  0  0  0  0
    7.4080   -0.7469   20.8075 O   0  0  0  0  0  0  0  0  0  0  0  0
    6.6816   -0.0293   19.9015 C   0  0  0  0  0  0  0  0  0  0  0  0
    5.4790    0.6480   20.1457 C   0  0  0  0  0  0  0  0  0  0  0  0
    4.8686    1.3159   19.0737 C   0  0  0  0  0  0  0  0  0  0  0  0
    5.4643    1.2947   17.8148 C   0  0  0  0  0  0  0  0  0  0  0  0
    6.6131    0.6385   17.5689 N   0  0  0  0  0  0  0  0  0  0  0  0
    7.1966    0.0001   18.5854 C   0  0  0  0  0  0  0  0  0  0  0  0
    8.1207   -0.5382   18.3752 H   0  0  0  0  0  0  0  0  0  0  0  0
    5.0154    1.8059   16.9650 H   0  0  0  0  0  0  0  0  0  0  0  0
    3.9360    1.8536   19.2038 H   0  0  0  0  0  0  0  0  0  0  0  0
    5.0370    0.6636   21.1403 H   0  0  0  0  0  0  0  0  0  0  0  0
    6.0235   -1.0581   22.2897 H   0  0  0  0  0  0  0  0  0  0  0  0
    5.6335    0.1684   24.0463 H   0  0  0  0  0  0  0  0  0  0  0  0
    5.2132    2.2793   24.9880 H   0  0  0  0  0  0  0  0  0  0  0  0
    6.3633    3.0158   23.8687 H   0  0  0  0  0  0  0  0  0  0  0  0
    8.2483    2.0175   25.2293 H   0  0  0  0  0  0  0  0  0  0  0  0
    7.0577    1.3626   26.3509 H   0  0  0  0  0  0  0  0  0  0  0  0
    6.4669    3.5999   27.5942 C   0  0  0  0  0  0  0  0  0  0  0  0
    5.3923    4.5131   27.5842 C   0  0  0  0  0  0  0  0  0  0  0  0
    4.6234    4.7376   28.7286 C   0  0  0  0  0  0  0  0  0  0  0  0
    4.9194    4.0605   29.9131 C   0  0  0  0  0  0  0  0  0  0  0  0
    5.9491    3.1205   29.9181 C   0  0  0  0  0  0  0  0  0  0  0  0
    6.7060    2.8446   28.7709 C   0  0  0  0  0  0  0  0  0  0  0  0
    7.7261    1.7296   28.8744 C   0  0  0  0  0  0  0  0  0  0  0  0
    7.2257    0.7871   29.1368 H   0  0  0  0  0  0  0  0  0  0  0  0
    8.2978    1.5702   27.9602 H   0  0  0  0  0  0  0  0  0  0  0  0
    8.4521    1.9317   29.6730 H   0  0  0  0  0  0  0  0  0  0  0  0
    6.1845    2.5570   30.8185 H   0  0  0  0  0  0  0  0  0  0  0  0
    4.3397    4.2362   30.8153 H   0  0  0  0  0  0  0  0  0  0  0  0
    3.7939    5.4376   28.6869 H   0  0  0  0  0  0  0  0  0  0  0  0
    5.1748    5.0138   26.6442 H   0  0  0  0  0  0  0  0  0  0  0  0
    8.2903    4.3223   24.8492 H   0  0  0  0  0  0  0  0  0  0  0  0
    7.0675    5.3662   25.5737 H   0  0  0  0  0  0  0  0  0  0  0  0
    9.6778    4.5978   26.9790 H   0  0  0  0  0  0  0  0  0  0  0  0
    9.4463    6.0859   26.0488 H   0  0  0  0  0  0  0  0  0  0  0  0
    8.4915    5.7998   27.5213 H   0  0  0  0  0  0  0  0  0  0  0  0
  1  2  1  0
  2  3  1  0
  3  4  1  0
  4  5  1  0
  5  6  1  0
  6  7  1  0
  7  8  2  0
  7  9  1  0
  9 10  1  0
 10 11  1  0
 10 12  1  0
 10 13  1  0
  9 14  1  0
 14 15  1  0
 15 16  2  0
 16 17  1  0
 17 18  2  0
 18 19  1  0
 19 20  2  0
 20 21  1  0
 18 22  1  0
 17 23  1  0
 16 24  1  0
  9 25  1  0
  6 26  1  0
  5 27  1  0
  5 28  1  0
  4 29  1  0
  4 30  1  0
  3 31  1  0
 31 32  2  0
 32 33  1  0
 33 34  2  0
 34 35  1  0
 35 36  2  0
 36 37  1  0
 37 38  1  0
 37 39  1  0
 37 40  1  0
 35 41  1  0
 34 42  1  0
 33 43  1  0
 32 44  1  0
  2 45  1  0
  2 46  1  0
  1 47  1  0
  1 48  1  0
  1 49  1  0
 20 15  1  0
 36 31  1  0
M  END
>  <plip>  (1) 
-0.14285714285714285

>  <filename>  (1) 
[H][c]1[n][c]([H])[c]([O][C]([H])([C](=[O])[N]([H])[C]([H])([H])[C]([H])([H])[N]([c]2[c]([H])[c]([H])[c]([H])[c]([H])[c]2[C]([H])([H])[H])[C]([H])([H])[C]([H])([H])[H])[C]([H])([H])[H])[c]([H])[c]1[H]

$$$$
