
     RDKit          3D

 41 43  0  0  0  0  0  0  0  0999 V2000
    7.7719   -1.9315   20.5329 O   0  0  0  0  0  0  0  0  0  0  0  0
    7.2056   -0.9085   20.8875 C   0  0  0  0  0  0  0  0  0  0  0  0
    6.6007   -0.0098   19.8623 C   0  0  0  0  0  0  0  0  0  0  0  0
    5.4257    0.7382   20.0382 C   0  0  0  0  0  0  0  0  0  0  0  0
    4.8951    1.3974   18.9292 C   0  0  0  0  0  0  0  0  0  0  0  0
    5.5720    1.3201   17.7077 C   0  0  0  0  0  0  0  0  0  0  0  0
    6.7114    0.6333   17.5413 N   0  0  0  0  0  0  0  0  0  0  0  0
    7.2016   -0.0182   18.5995 C   0  0  0  0  0  0  0  0  0  0  0  0
    8.1143   -0.5881   18.4430 H   0  0  0  0  0  0  0  0  0  0  0  0
    5.1891    1.8241   16.8201 H   0  0  0  0  0  0  0  0  0  0  0  0
    3.9812    1.9763   18.9882 H   0  0  0  0  0  0  0  0  0  0  0  0
    4.9222    0.8085   21.0053 H   0  0  0  0  0  0  0  0  0  0  0  0
    7.0568   -0.5596   22.2145 N   0  0  0  0  0  0  0  0  0  0  0  0
    7.2190    0.8286   22.6583 C   0  0  0  0  0  0  0  0  0  0  0  0
    8.5530    1.0970   23.3383 C   0  0  0  0  0  0  0  0  0  0  0  0
    8.6268    1.1372   24.7400 C   0  0  0  0  0  0  0  0  0  0  0  0
    9.8505    1.2218   25.4070 C   0  0  0  0  0  0  0  0  0  0  0  0
   11.0368    1.3305   24.6769 C   0  0  0  0  0  0  0  0  0  0  0  0
   10.9919    1.3881   23.2836 C   0  0  0  0  0  0  0  0  0  0  0  0
    9.7576    1.2745   22.6319 C   0  0  0  0  0  0  0  0  0  0  0  0
    9.7734    1.3703   20.8974 Cl  0  0  0  0  0  0  0  0  0  0  0  0
   11.8947    1.5176   22.6911 H   0  0  0  0  0  0  0  0  0  0  0  0
   11.9975    1.3774   25.1815 H   0  0  0  0  0  0  0  0  0  0  0  0
    9.8705    1.1889   26.4905 H   0  0  0  0  0  0  0  0  0  0  0  0
    7.7054    1.1057   25.3175 H   0  0  0  0  0  0  0  0  0  0  0  0
    7.1226    1.4850   21.7908 H   0  0  0  0  0  0  0  0  0  0  0  0
    6.4046    1.0823   23.3505 H   0  0  0  0  0  0  0  0  0  0  0  0
    7.0656   -1.6332   23.2343 C   0  0  0  0  0  0  0  0  0  0  0  0
    8.4727   -2.2328   23.5296 C   0  0  0  0  0  0  0  0  0  0  0  0
    8.2292   -3.7446   23.7085 C   0  0  0  0  0  0  0  0  0  0  0  0
    7.1536   -4.0290   22.6584 C   0  0  0  0  0  0  0  0  0  0  0  0
    6.1732   -2.8627   22.8620 C   0  0  0  0  0  0  0  0  0  0  0  0
    5.5700   -2.6726   21.9717 H   0  0  0  0  0  0  0  0  0  0  0  0
    5.4712   -3.0849   23.6794 H   0  0  0  0  0  0  0  0  0  0  0  0
    6.6817   -5.0128   22.7393 H   0  0  0  0  0  0  0  0  0  0  0  0
    7.5949   -3.9339   21.6616 H   0  0  0  0  0  0  0  0  0  0  0  0
    7.8485   -3.9602   24.7178 H   0  0  0  0  0  0  0  0  0  0  0  0
    9.1319   -4.3514   23.5865 H   0  0  0  0  0  0  0  0  0  0  0  0
    9.1109   -2.0634   22.6564 H   0  0  0  0  0  0  0  0  0  0  0  0
    8.9538   -1.7557   24.3932 H   0  0  0  0  0  0  0  0  0  0  0  0
    6.6698   -1.1729   24.1508 H   0  0  0  0  0  0  0  0  0  0  0  0
  1  2  2  0
  2  3  1  0
  3  4  2  0
  4  5  1  0
  5  6  2  0
  6  7  1  0
  7  8  2  0
  8  9  1  0
  6 10  1  0
  5 11  1  0
  4 12  1  0
  2 13  1  0
 13 14  1  0
 14 15  1  0
 15 16  2  0
 16 17  1  0
 17 18  2  0
 18 19  1  0
 19 20  2  0
 20 21  1  0
 19 22  1  0
 18 23  1  0
 17 24  1  0
 16 25  1  0
 14 26  1  0
 14 27  1  0
 13 28  1  0
 28 29  1  0
 29 30  1  0
 30 31  1  0
 31 32  1  0
 32 33  1  0
 32 34  1  0
 31 35  1  0
 31 36  1  0
 30 37  1  0
 30 38  1  0
 29 39  1  0
 29 40  1  0
 28 41  1  0
  8  3  1  0
 20 15  1  0
 32 28  1  0
M  END
>  <plip>  (1) 
-0.06896551724137931

>  <filename>  (1) 
[H][c]1[n][c]([H])[c]([C](=[O])[N]([C]([H])([H])[c]2[c]([H])[c]([H])[c]([H])[c]([H])[c]2[Cl])[C]2([H])[C]([H])([H])[C]([H])([H])[C]([H])([H])[C]2([H])[H])[c]([H])[c]1[H]

$$$$
