
     RDKit          3D

 28 29  0  0  0  0  0  0  0  0999 V2000
    7.2153   -0.4410   22.6122 O   0  0  0  0  0  0  0  0  0  0  0  0
    7.6382   -0.6291   21.2255 S   0  0  0  0  0  0  0  0  0  0  0  0
    7.9679   -2.0068   20.8660 O   0  0  0  0  0  0  0  0  0  0  0  0
    9.0737    0.1512   21.0596 N   0  0  0  0  0  0  0  0  0  0  0  0
    8.9955    1.3775   21.6043 C   0  0  0  0  0  0  0  0  0  0  0  0
   10.1926    1.9672   21.9767 C   0  0  0  0  0  0  0  0  0  0  0  0
   10.2585    3.3000   22.4130 C   0  0  0  0  0  0  0  0  0  0  0  0
   11.5818    4.0516   22.6684 C   0  0  0  0  0  0  0  0  0  0  0  0
   12.5808    3.5180   21.9141 F   0  0  0  0  0  0  0  0  0  0  0  0
   11.9333    3.9500   23.9790 F   0  0  0  0  0  0  0  0  0  0  0  0
   11.4614    5.3714   22.3455 F   0  0  0  0  0  0  0  0  0  0  0  0
    9.0042    3.9153   22.5041 C   0  0  0  0  0  0  0  0  0  0  0  0
    7.8298    3.2234   22.1686 C   0  0  0  0  0  0  0  0  0  0  0  0
    6.1695    4.1339   22.2965 Br  0  0  0  0  0  0  0  0  0  0  0  0
    7.8241    1.9711   21.7101 N   0  0  0  0  0  0  0  0  0  0  0  0
    8.9228    4.9575   22.7797 H   0  0  0  0  0  0  0  0  0  0  0  0
   11.0841    1.3789   21.8462 H   0  0  0  0  0  0  0  0  0  0  0  0
    9.7775   -0.4109   21.4866 H   0  0  0  0  0  0  0  0  0  0  0  0
    6.6601    0.1744   19.9960 C   0  0  0  0  0  0  0  0  0  0  0  0
    5.4303    0.7905   20.2088 C   0  0  0  0  0  0  0  0  0  0  0  0
    4.8349    1.3401   19.0838 C   0  0  0  0  0  0  0  0  0  0  0  0
    5.4707    1.2651   17.8417 C   0  0  0  0  0  0  0  0  0  0  0  0
    6.6558    0.6537   17.6842 N   0  0  0  0  0  0  0  0  0  0  0  0
    7.2440    0.1181   18.7505 C   0  0  0  0  0  0  0  0  0  0  0  0
    8.1937   -0.3877   18.6034 H   0  0  0  0  0  0  0  0  0  0  0  0
    4.9999    1.7292   16.9784 H   0  0  0  0  0  0  0  0  0  0  0  0
    3.8831    1.8472   19.1505 H   0  0  0  0  0  0  0  0  0  0  0  0
    4.9340    0.8505   21.1837 H   0  0  0  0  0  0  0  0  0  0  0  0
  1  2  2  0
  2  3  2  0
  2  4  1  0
  4  5  1  0
  5  6  2  0
  6  7  1  0
  7  8  1  0
  8  9  1  0
  8 10  1  0
  8 11  1  0
  7 12  2  0
 12 13  1  0
 13 14  1  0
 13 15  2  0
 12 16  1  0
  6 17  1  0
  4 18  1  0
  2 19  1  0
 19 20  2  0
 20 21  1  0
 21 22  2  0
 22 23  1  0
 23 24  2  0
 24 25  1  0
 22 26  1  0
 21 27  1  0
 20 28  1  0
 15  5  1  0
 24 19  1  0
M  END
>  <plip>  (1) 
-0.06666666666666667

>  <filename>  (1) 
[H][c]1[n][c]([H])[c]([S](=[O])(=[O])[N]([H])[c]2[n][c]([Br])[c]([H])[c]([C]([F])([F])[F])[c]2[H])[c]([H])[c]1[H]

$$$$
