
     RDKit          3D

 50 53  0  0  0  0  0  0  0  0999 V2000
    9.0378    1.5083   21.0352 O   0  0  0  0  0  0  0  0  0  0  0  0
    8.4195    1.2648   22.0563 C   0  0  0  0  0  0  0  0  0  0  0  0
    8.4579    2.1281   23.3063 C   0  0  0  0  0  0  0  0  0  0  0  0
    9.3653    1.5779   24.4366 C   0  0  0  0  0  0  0  0  0  0  0  0
   10.7980    1.3971   23.9925 C   0  0  0  0  0  0  0  0  0  0  0  0
   11.7470    2.3526   23.9699 C   0  0  0  0  0  0  0  0  0  0  0  0
   13.0125    1.8609   23.3328 C   0  0  0  0  0  0  0  0  0  0  0  0
   12.6670    0.4369   22.9773 C   0  0  0  0  0  0  0  0  0  0  0  0
   13.4282   -0.5482   22.3550 C   0  0  0  0  0  0  0  0  0  0  0  0
   12.8514   -1.7999   22.1126 C   0  0  0  0  0  0  0  0  0  0  0  0
   11.5278   -2.0703   22.5134 C   0  0  0  0  0  0  0  0  0  0  0  0
   10.7676   -1.0957   23.1550 C   0  0  0  0  0  0  0  0  0  0  0  0
   11.3364    0.1741   23.3808 C   0  0  0  0  0  0  0  0  0  0  0  0
    9.7580   -1.3221   23.4924 H   0  0  0  0  0  0  0  0  0  0  0  0
   11.1079   -3.0611   22.3550 H   0  0  0  0  0  0  0  0  0  0  0  0
   13.4520   -2.5696   21.6405 H   0  0  0  0  0  0  0  0  0  0  0  0
   14.4586   -0.3529   22.0589 H   0  0  0  0  0  0  0  0  0  0  0  0
   13.8630    1.9263   24.0235 H   0  0  0  0  0  0  0  0  0  0  0  0
   13.2884    2.4616   22.4512 H   0  0  0  0  0  0  0  0  0  0  0  0
   11.6244    3.3718   24.3324 H   0  0  0  0  0  0  0  0  0  0  0  0
    9.3208    2.2731   25.2851 H   0  0  0  0  0  0  0  0  0  0  0  0
    8.9755    0.6214   24.8096 H   0  0  0  0  0  0  0  0  0  0  0  0
    8.8242    3.1055   22.9850 H   0  0  0  0  0  0  0  0  0  0  0  0
    7.4324    2.2588   23.6726 H   0  0  0  0  0  0  0  0  0  0  0  0
    7.6416    0.1496   22.1836 N   0  0  0  0  0  0  0  0  0  0  0  0
    7.3511   -0.6924   21.0379 C   0  0  0  0  0  0  0  0  0  0  0  0
    6.6283    0.0734   19.9339 C   0  0  0  0  0  0  0  0  0  0  0  0
    5.4003    0.7168   20.1389 C   0  0  0  0  0  0  0  0  0  0  0  0
    4.7795    1.3450   19.0568 C   0  0  0  0  0  0  0  0  0  0  0  0
    5.4043    1.3093   17.8054 C   0  0  0  0  0  0  0  0  0  0  0  0
    6.5751    0.6963   17.5830 N   0  0  0  0  0  0  0  0  0  0  0  0
    7.1626    0.1099   18.6383 C   0  0  0  0  0  0  0  0  0  0  0  0
    8.1157   -0.3802   18.4269 H   0  0  0  0  0  0  0  0  0  0  0  0
    4.9398    1.7865   16.9438 H   0  0  0  0  0  0  0  0  0  0  0  0
    3.8326    1.8594   19.1728 H   0  0  0  0  0  0  0  0  0  0  0  0
    4.9388    0.7335   21.1297 H   0  0  0  0  0  0  0  0  0  0  0  0
    6.5813   -1.9387   21.5056 C   0  0  0  0  0  0  0  0  0  0  0  0
    7.3637   -2.8893   22.4388 C   0  0  0  0  0  0  0  0  0  0  0  0
    6.8134   -4.2700   22.0672 C   0  0  0  0  0  0  0  0  0  0  0  0
    6.4200   -4.1830   20.7062 O   0  0  0  0  0  0  0  0  0  0  0  0
    6.1495   -2.8452   20.3433 C   0  0  0  0  0  0  0  0  0  0  0  0
    6.7021   -2.6163   19.4303 H   0  0  0  0  0  0  0  0  0  0  0  0
    5.0973   -2.7014   20.0719 H   0  0  0  0  0  0  0  0  0  0  0  0
    5.9421   -4.5449   22.6897 H   0  0  0  0  0  0  0  0  0  0  0  0
    7.5838   -5.0514   22.1344 H   0  0  0  0  0  0  0  0  0  0  0  0
    7.2231   -2.6659   23.5053 H   0  0  0  0  0  0  0  0  0  0  0  0
    8.4418   -2.8373   22.2149 H   0  0  0  0  0  0  0  0  0  0  0  0
    5.6850   -1.5881   22.0215 H   0  0  0  0  0  0  0  0  0  0  0  0
    8.3148   -1.0343   20.6325 H   0  0  0  0  0  0  0  0  0  0  0  0
    7.0185    0.1130   22.9746 H   0  0  0  0  0  0  0  0  0  0  0  0
  1  2  2  0
  2  3  1  0
  3  4  1  0
  4  5  1  0
  5  6  2  0
  6  7  1  0
  7  8  1  0
  8  9  2  0
  9 10  1  0
 10 11  2  0
 11 12  1  0
 12 13  2  0
 12 14  1  0
 11 15  1  0
 10 16  1  0
  9 17  1  0
  7 18  1  0
  7 19  1  0
  6 20  1  0
  4 21  1  0
  4 22  1  0
  3 23  1  0
  3 24  1  0
  2 25  1  0
 25 26  1  0
 26 27  1  0
 27 28  2  0
 28 29  1  0
 29 30  2  0
 30 31  1  0
 31 32  2  0
 32 33  1  0
 30 34  1  0
 29 35  1  0
 28 36  1  0
 26 37  1  0
 37 38  1  0
 38 39  1  0
 39 40  1  0
 40 41  1  0
 41 42  1  0
 41 43  1  0
 39 44  1  0
 39 45  1  0
 38 46  1  0
 38 47  1  0
 37 48  1  0
 26 49  1  0
 25 50  1  0
 13  5  1  0
 32 27  1  0
 41 37  1  0
 13  8  1  0
M  END
>  <plip>  (1) 
-0.2857142857142857

>  <filename>  (1) 
[H][C]1=[C]([C]([H])([H])[C]([H])([H])[C](=[O])[N]([H])[C]([H])([c]2[c]([H])[n][c]([H])[c]([H])[c]2[H])[C]2([H])[C]([H])([H])[O][C]([H])([H])[C]2([H])[H])[c]2[c]([H])[c]([H])[c]([H])[c]([H])[c]2[C]1([H])[H]

$$$$
