
     RDKit          3D

 25 26  0  0  0  0  0  0  0  0999 V2000
    9.3077   -0.5738   20.3343 H   0  0  0  0  0  0  0  0  0  0  0  0
    8.6252   -0.9129   21.1129 C   0  0  0  0  0  0  0  0  0  0  0  0
    7.3088   -0.6864   21.0120 C   0  0  0  0  0  0  0  0  0  0  0  0
    6.6445   -0.9913   21.8294 H   0  0  0  0  0  0  0  0  0  0  0  0
    6.6371   -0.0004   19.8996 C   0  0  0  0  0  0  0  0  0  0  0  0
    7.1626    0.0668   18.5916 C   0  0  0  0  0  0  0  0  0  0  0  0
    8.1084   -0.4172   18.3493 H   0  0  0  0  0  0  0  0  0  0  0  0
    6.5595    0.6885   17.5723 N   0  0  0  0  0  0  0  0  0  0  0  0
    5.3928    1.3047   17.8198 C   0  0  0  0  0  0  0  0  0  0  0  0
    4.9337    1.8098   16.9726 H   0  0  0  0  0  0  0  0  0  0  0  0
    4.7811    1.3172   19.0788 C   0  0  0  0  0  0  0  0  0  0  0  0
    3.8505    1.8577   19.2189 H   0  0  0  0  0  0  0  0  0  0  0  0
    5.4091    0.6517   20.1291 C   0  0  0  0  0  0  0  0  0  0  0  0
    4.9804    0.6427   21.1311 H   0  0  0  0  0  0  0  0  0  0  0  0
    9.2758   -1.5960   22.2256 C   0  0  0  0  0  0  0  0  0  0  0  0
    8.6040   -2.0782   23.2722 N   0  0  0  0  0  0  0  0  0  0  0  0
    9.5085   -2.7113   24.0064 N   0  0  0  0  0  0  0  0  0  0  0  0
    9.1541   -3.2676   25.2926 C   0  0  0  0  0  0  0  0  0  0  0  0
    9.2865   -2.5236   26.0900 H   0  0  0  0  0  0  0  0  0  0  0  0
    8.1120   -3.5934   25.2405 H   0  0  0  0  0  0  0  0  0  0  0  0
    9.8239   -4.1135   25.4615 H   0  0  0  0  0  0  0  0  0  0  0  0
   10.7447   -2.6620   23.4709 C   0  0  0  0  0  0  0  0  0  0  0  0
   11.5372   -3.2180   23.9552 H   0  0  0  0  0  0  0  0  0  0  0  0
   10.6493   -1.9077   22.3253 C   0  0  0  0  0  0  0  0  0  0  0  0
   11.4282   -1.5555   21.6680 H   0  0  0  0  0  0  0  0  0  0  0  0
  1  2  1  0
  2  3  2  3
  3  4  1  0
  3  5  1  0
  5  6  2  0
  6  7  1  0
  6  8  1  0
  8  9  2  0
  9 10  1  0
  9 11  1  0
 11 12  1  0
 11 13  2  0
 13 14  1  0
  2 15  1  0
 15 16  2  0
 16 17  1  0
 17 18  1  0
 18 19  1  0
 18 20  1  0
 18 21  1  0
 17 22  1  0
 22 23  1  0
 22 24  2  0
 24 25  1  0
 13  5  1  0
 24 15  1  0
M  END
>  <plip>  (1) 
-0.03571428571428571

>  <filename>  (1) 
[H][C](=[C]([H])[c]1[c]([H])[n][c]([H])[c]([H])[c]1[H])[c]1[n][n]([C]([H])([H])[H])[c]([H])[c]1[H]

$$$$
