
     RDKit          3D

 36 38  0  0  0  0  0  0  0  0999 V2000
    4.9329    1.7829   17.0056 H   0  0  0  0  0  0  0  0  0  0  0  0
    5.4060    1.2859   17.8493 C   0  0  0  0  0  0  0  0  0  0  0  0
    6.5602    0.6562   17.5827 N   0  0  0  0  0  0  0  0  0  0  0  0
    7.1783    0.0428   18.5987 C   0  0  0  0  0  0  0  0  0  0  0  0
    8.1328   -0.4272   18.3713 H   0  0  0  0  0  0  0  0  0  0  0  0
    6.6681   -0.0043   19.9108 C   0  0  0  0  0  0  0  0  0  0  0  0
    7.3637   -0.7081   20.9524 N   0  0  0  0  0  0  0  0  0  0  0  0
    6.5442   -1.4931   21.7610 N   0  0  0  0  0  0  0  0  0  0  0  0
    7.0910   -2.3315   22.5814 C   0  0  0  0  0  0  0  0  0  0  0  0
    6.2181   -3.2554   23.4754 C   0  0  0  0  0  0  0  0  0  0  0  0
    6.7465   -4.0541   24.2406 O   0  0  0  0  0  0  0  0  0  0  0  0
    4.8642   -3.1731   23.3610 N   0  0  0  0  0  0  0  0  0  0  0  0
    4.5301   -2.4214   22.7771 H   0  0  0  0  0  0  0  0  0  0  0  0
    3.9536   -3.8506   24.2734 C   0  0  0  0  0  0  0  0  0  0  0  0
    4.1548   -4.9288   24.2293 H   0  0  0  0  0  0  0  0  0  0  0  0
    2.9348   -3.6916   23.9079 H   0  0  0  0  0  0  0  0  0  0  0  0
    4.0087   -3.4050   25.7288 C   0  0  0  0  0  0  0  0  0  0  0  0
    3.9962   -2.3234   25.8715 H   0  0  0  0  0  0  0  0  0  0  0  0
    3.2653   -4.2489   26.7407 C   0  0  0  0  0  0  0  0  0  0  0  0
    2.7379   -5.1331   26.3800 H   0  0  0  0  0  0  0  0  0  0  0  0
    2.7428   -3.7585   27.5620 H   0  0  0  0  0  0  0  0  0  0  0  0
    4.7710   -4.2411   26.7239 C   0  0  0  0  0  0  0  0  0  0  0  0
    5.3185   -3.7449   27.5226 H   0  0  0  0  0  0  0  0  0  0  0  0
    5.2984   -5.1078   26.3218 H   0  0  0  0  0  0  0  0  0  0  0  0
    8.5995   -2.5077   22.6634 C   0  0  0  0  0  0  0  0  0  0  0  0
    8.8745   -2.9259   23.6387 H   0  0  0  0  0  0  0  0  0  0  0  0
    8.8863   -3.2737   21.9258 H   0  0  0  0  0  0  0  0  0  0  0  0
    9.3205   -1.1848   22.3777 C   0  0  0  0  0  0  0  0  0  0  0  0
    9.2703   -0.4950   23.2315 H   0  0  0  0  0  0  0  0  0  0  0  0
   10.3820   -1.3275   22.1680 H   0  0  0  0  0  0  0  0  0  0  0  0
    8.7383   -0.4433   21.1873 C   0  0  0  0  0  0  0  0  0  0  0  0
    9.3924    0.3229   20.5080 O   0  0  0  0  0  0  0  0  0  0  0  0
    5.4541    0.6379   20.1749 C   0  0  0  0  0  0  0  0  0  0  0  0
    5.0328    0.5948   21.1779 H   0  0  0  0  0  0  0  0  0  0  0  0
    4.8223    1.3060   19.1210 C   0  0  0  0  0  0  0  0  0  0  0  0
    3.8885    1.8357   19.2676 H   0  0  0  0  0  0  0  0  0  0  0  0
  1  2  1  0
  2  3  2  0
  3  4  1  0
  4  5  1  0
  4  6  2  0
  6  7  1  0
  7  8  1  0
  8  9  2  0
  9 10  1  0
 10 11  2  0
 10 12  1  0
 12 13  1  0
 12 14  1  0
 14 15  1  0
 14 16  1  0
 14 17  1  0
 17 18  1  0
 17 19  1  0
 19 20  1  0
 19 21  1  0
 19 22  1  0
 22 23  1  0
 22 24  1  0
  9 25  1  0
 25 26  1  0
 25 27  1  0
 25 28  1  0
 28 29  1  0
 28 30  1  0
 28 31  1  0
 31 32  2  0
  6 33  1  0
 33 34  1  0
 33 35  2  0
 35 36  1  0
 35  2  1  0
 31  7  1  0
 22 17  1  0
M  END
>  <plip>  (1) 
-0.14285714285714285

>  <filename>  (1) 
[H][c]1[n][c]([H])[c]([N]2[N]=[C]([C](=[O])[N]([H])[C]([H])([H])[C]3([H])[C]([H])([H])[C]3([H])[H])[C]([H])([H])[C]([H])([H])[C]2=[O])[c]([H])[c]1[H]

$$$$
