
     RDKit          3D

 31 33  0  0  0  0  0  0  0  0999 V2000
   10.0740   -3.1817   24.8817 Cl  0  0  0  0  0  0  0  0  0  0  0  0
   10.0875   -1.5981   24.1663 C   0  0  0  0  0  0  0  0  0  0  0  0
    9.1647   -1.3560   23.1230 C   0  0  0  0  0  0  0  0  0  0  0  0
    9.1187   -0.1160   22.5120 C   0  0  0  0  0  0  0  0  0  0  0  0
    8.2872    0.0799   21.4309 N   0  0  0  0  0  0  0  0  0  0  0  0
    7.2804   -0.8346   20.9373 C   0  0  0  0  0  0  0  0  0  0  0  0
    6.5443   -0.0926   19.8551 C   0  0  0  0  0  0  0  0  0  0  0  0
    5.3556    0.6046   20.0852 C   0  0  0  0  0  0  0  0  0  0  0  0
    4.7892    1.3213   19.0263 C   0  0  0  0  0  0  0  0  0  0  0  0
    5.4520    1.3346   17.7943 C   0  0  0  0  0  0  0  0  0  0  0  0
    6.6219    0.7129   17.5768 N   0  0  0  0  0  0  0  0  0  0  0  0
    7.1546    0.0380   18.6024 C   0  0  0  0  0  0  0  0  0  0  0  0
    8.1297   -0.4177   18.4260 H   0  0  0  0  0  0  0  0  0  0  0  0
    5.0346    1.8785   16.9473 H   0  0  0  0  0  0  0  0  0  0  0  0
    3.8715    1.8863   19.1522 H   0  0  0  0  0  0  0  0  0  0  0  0
    4.9133    0.6213   21.0834 H   0  0  0  0  0  0  0  0  0  0  0  0
    7.7580   -1.7344   20.5175 H   0  0  0  0  0  0  0  0  0  0  0  0
    6.5773   -1.1621   21.7230 H   0  0  0  0  0  0  0  0  0  0  0  0
    8.1654    1.0596   21.2028 H   0  0  0  0  0  0  0  0  0  0  0  0
    9.9639    0.9760   23.0205 C   0  0  0  0  0  0  0  0  0  0  0  0
    9.7832    2.2562   22.5485 N   0  0  0  0  0  0  0  0  0  0  0  0
   10.5480    3.2118   23.0345 C   0  0  0  0  0  0  0  0  0  0  0  0
   11.5867    2.9921   23.9806 C   0  0  0  0  0  0  0  0  0  0  0  0
   11.7867    1.7228   24.4701 C   0  0  0  0  0  0  0  0  0  0  0  0
   10.9240    0.6659   24.0409 C   0  0  0  0  0  0  0  0  0  0  0  0
   10.9587   -0.6367   24.6215 C   0  0  0  0  0  0  0  0  0  0  0  0
   11.6656   -0.8475   25.4210 H   0  0  0  0  0  0  0  0  0  0  0  0
   12.5812    1.5155   25.1841 H   0  0  0  0  0  0  0  0  0  0  0  0
   12.2048    3.8308   24.2850 H   0  0  0  0  0  0  0  0  0  0  0  0
   10.3417    4.2186   22.6746 H   0  0  0  0  0  0  0  0  0  0  0  0
    8.4711   -2.1369   22.8303 H   0  0  0  0  0  0  0  0  0  0  0  0
  1  2  1  0
  2  3  2  0
  3  4  1  0
  4  5  1  0
  5  6  1  0
  6  7  1  0
  7  8  2  0
  8  9  1  0
  9 10  2  0
 10 11  1  0
 11 12  2  0
 12 13  1  0
 10 14  1  0
  9 15  1  0
  8 16  1  0
  6 17  1  0
  6 18  1  0
  5 19  1  0
  4 20  2  0
 20 21  1  0
 21 22  2  0
 22 23  1  0
 23 24  2  0
 24 25  1  0
 25 26  2  0
 26 27  1  0
 24 28  1  0
 23 29  1  0
 22 30  1  0
  3 31  1  0
 26  2  1  0
 12  7  1  0
 25 20  1  0
M  END
>  <plip>  (1) 
-0.1

>  <filename>  (1) 
[H][c]1[n][c]([H])[c]([C]([H])([H])[N]([H])[c]2[c]([H])[c]([Cl])[c]([H])[c]3[c]([H])[c]([H])[c]([H])[n][c]23)[c]([H])[c]1[H]

$$$$
