
     RDKit          3D

 38 39  0  0  0  0  0  0  0  0999 V2000
    4.9176    1.7931   16.9789 H   0  0  0  0  0  0  0  0  0  0  0  0
    5.3947    1.2967   17.8193 C   0  0  0  0  0  0  0  0  0  0  0  0
    6.5557    0.6803   17.5529 N   0  0  0  0  0  0  0  0  0  0  0  0
    7.1612    0.0689   18.5811 C   0  0  0  0  0  0  0  0  0  0  0  0
    8.1133   -0.4128   18.3622 H   0  0  0  0  0  0  0  0  0  0  0  0
    6.6502    0.0081   19.8837 C   0  0  0  0  0  0  0  0  0  0  0  0
    7.3718   -0.7786   20.9518 C   0  0  1  0  0  0  0  0  0  0  0  0
    8.3817   -1.0174   20.6047 H   0  0  0  0  0  0  0  0  0  0  0  0
    7.5244    0.0049   22.1493 O   0  0  0  0  0  0  0  0  0  0  0  0
    8.5834    0.9433   21.9536 N   0  0  0  0  0  0  0  0  0  0  0  0
    8.0644    2.3188   22.1747 C   0  0  0  0  0  0  0  0  0  0  0  0
    8.8808    3.0026   21.9097 H   0  0  0  0  0  0  0  0  0  0  0  0
    7.2394    2.4648   21.4764 H   0  0  0  0  0  0  0  0  0  0  0  0
    7.5923    2.5808   23.6130 C   0  0  0  0  0  0  0  0  0  0  0  0
    7.2998    3.6323   23.7233 H   0  0  0  0  0  0  0  0  0  0  0  0
    6.6885    1.9657   23.7698 H   0  0  0  0  0  0  0  0  0  0  0  0
    8.6622    2.2655   24.5729 N   0  0  0  0  0  0  0  0  0  0  0  0
    8.3823    2.6648   25.9433 C   0  0  0  0  0  0  0  0  0  0  0  0
    9.2990    2.4975   26.5197 H   0  0  0  0  0  0  0  0  0  0  0  0
    8.2197    3.7502   25.9405 H   0  0  0  0  0  0  0  0  0  0  0  0
    7.2037    1.9565   26.6127 C   0  0  0  0  0  0  0  0  0  0  0  0
    7.0625    2.3121   27.6365 H   0  0  0  0  0  0  0  0  0  0  0  0
    6.2787    2.1323   26.0534 H   0  0  0  0  0  0  0  0  0  0  0  0
    7.3697    0.8743   26.6427 H   0  0  0  0  0  0  0  0  0  0  0  0
    9.0879    0.8654   24.4204 C   0  0  0  0  0  0  0  0  0  0  0  0
    9.8976    0.6460   25.1249 H   0  0  0  0  0  0  0  0  0  0  0  0
    8.2699    0.1479   24.6160 H   0  0  0  0  0  0  0  0  0  0  0  0
    9.5813    0.6064   22.9895 C   0  0  0  0  0  0  0  0  0  0  0  0
   10.4830    1.1884   22.7724 H   0  0  0  0  0  0  0  0  0  0  0  0
    9.7975   -0.4553   22.8610 H   0  0  0  0  0  0  0  0  0  0  0  0
    6.6373   -2.0504   21.3342 C   0  0  0  0  0  0  0  0  0  0  0  0
    5.6221   -1.8337   21.6868 H   0  0  0  0  0  0  0  0  0  0  0  0
    6.5471   -2.6858   20.4443 H   0  0  0  0  0  0  0  0  0  0  0  0
    7.1844   -2.6028   22.1077 H   0  0  0  0  0  0  0  0  0  0  0  0
    5.4350    0.6569   20.1392 C   0  0  0  0  0  0  0  0  0  0  0  0
    5.0173    0.6482   21.1528 H   0  0  0  0  0  0  0  0  0  0  0  0
    4.7997    1.3159   19.0882 C   0  0  0  0  0  0  0  0  0  0  0  0
    3.8707    1.8444   19.2470 H   0  0  0  0  0  0  0  0  0  0  0  0
  1  2  1  0
  2  3  2  0
  3  4  1  0
  4  5  1  0
  4  6  2  0
  6  7  1  0
  7  8  1  6
  7  9  1  0
  9 10  1  0
 10 11  1  0
 11 12  1  0
 11 13  1  0
 11 14  1  0
 14 15  1  0
 14 16  1  0
 14 17  1  0
 17 18  1  0
 18 19  1  0
 18 20  1  0
 18 21  1  0
 21 22  1  0
 21 23  1  0
 21 24  1  0
 17 25  1  0
 25 26  1  0
 25 27  1  0
 25 28  1  0
 28 29  1  0
 28 30  1  0
  7 31  1  0
 31 32  1  0
 31 33  1  0
 31 34  1  0
  6 35  1  0
 35 36  1  0
 35 37  2  0
 37 38  1  0
 37  2  1  0
 28 10  1  0
M  END
>  <plip>  (1) 
-0.07142857142857142

>  <filename>  (1) 
[H][c]1[n][c]([H])[c]([C@@]([H])([O][N]2[C]([H])([H])[C]([H])([H])[N]([C]([H])([H])[C]([H])([H])[H])[C]([H])([H])[C]2([H])[H])[C]([H])([H])[H])[c]([H])[c]1[H]

$$$$
