
     RDKit          3D

 53 56  0  0  0  0  0  0  0  0999 V2000
    9.9442   -4.2190   26.4420 C   0  0  0  0  0  0  0  0  0  0  0  0
    9.4767   -4.2870   25.3305 C   0  0  0  0  0  0  0  0  0  0  0  0
    8.8667   -4.6699   24.0819 C   0  0  0  0  0  0  0  0  0  0  0  0
    8.8459   -6.0515   23.8127 C   0  0  0  0  0  0  0  0  0  0  0  0
    8.2080   -6.5358   22.6792 C   0  0  0  0  0  0  0  0  0  0  0  0
    7.5566   -5.6450   21.8230 C   0  0  0  0  0  0  0  0  0  0  0  0
    6.8741   -6.2049   20.7873 O   0  0  0  0  0  0  0  0  0  0  0  0
    6.0303   -5.3857   19.9773 C   0  0  0  0  0  0  0  0  0  0  0  0
    5.6005   -4.1014   20.6753 C   0  0  0  0  0  0  0  0  0  0  0  0
    6.8056   -3.4196   21.1736 N   0  0  0  0  0  0  0  0  0  0  0  0
    6.7221   -2.0146   21.2466 C   0  0  0  0  0  0  0  0  0  0  0  0
    5.6591   -1.4520   21.4162 O   0  0  0  0  0  0  0  0  0  0  0  0
    7.9234   -1.3606   21.0441 N   0  0  0  0  0  0  0  0  0  0  0  0
    7.9107    0.1191   20.9908 C   0  0  0  0  0  0  0  0  0  0  0  0
    7.6109    0.6794   22.4053 C   0  0  0  0  0  0  0  0  0  0  0  0
    8.4891    0.0432   23.4383 N   0  0  0  0  0  4  0  0  0  0  0  0
    9.7965    0.7136   23.7477 C   0  0  0  0  0  0  0  0  0  0  0  0
   10.2718    0.0061   25.0282 C   0  0  0  0  0  0  0  0  0  0  0  0
    9.0018   -0.6077   25.6628 C   0  0  0  0  0  0  0  0  0  0  0  0
    7.8505   -0.1451   24.7725 C   0  0  0  0  0  0  0  0  0  0  0  0
    7.0102   -0.8473   24.7132 H   0  0  0  0  0  0  0  0  0  0  0  0
    7.4565    0.8254   25.1034 H   0  0  0  0  0  0  0  0  0  0  0  0
    9.0509   -1.7032   25.6676 H   0  0  0  0  0  0  0  0  0  0  0  0
    8.8448   -0.2914   26.6959 H   0  0  0  0  0  0  0  0  0  0  0  0
   10.7690    0.7125   25.6978 H   0  0  0  0  0  0  0  0  0  0  0  0
   10.9994   -0.7770   24.7929 H   0  0  0  0  0  0  0  0  0  0  0  0
   10.5013    0.6170   22.9156 H   0  0  0  0  0  0  0  0  0  0  0  0
    9.6251    1.7843   23.9159 H   0  0  0  0  0  0  0  0  0  0  0  0
    8.7385   -0.8906   23.0424 H   0  0  0  0  0  0  0  0  0  0  0  0
    7.7300    1.7699   22.4053 H   0  0  0  0  0  0  0  0  0  0  0  0
    6.5673    0.4566   22.6449 H   0  0  0  0  0  0  0  0  0  0  0  0
    7.0328    0.6784   19.8778 C   0  0  0  0  0  0  0  0  0  0  0  0
    5.7777    1.2804   20.0510 C   0  0  0  0  0  0  0  0  0  0  0  0
    5.0310    1.6280   18.9195 C   0  0  0  0  0  0  0  0  0  0  0  0
    5.5845    1.4070   17.6547 C   0  0  0  0  0  0  0  0  0  0  0  0
    6.8034    0.8799   17.4641 N   0  0  0  0  0  0  0  0  0  0  0  0
    7.4979    0.5489   18.5602 C   0  0  0  0  0  0  0  0  0  0  0  0
    8.5162    0.2035   18.3817 H   0  0  0  0  0  0  0  0  0  0  0  0
    5.0279    1.6552   16.7531 H   0  0  0  0  0  0  0  0  0  0  0  0
    4.0480    2.0799   19.0083 H   0  0  0  0  0  0  0  0  0  0  0  0
    5.3747    1.4708   21.0486 H   0  0  0  0  0  0  0  0  0  0  0  0
    8.9438    0.4006   20.7516 H   0  0  0  0  0  0  0  0  0  0  0  0
    8.4801   -1.8397   20.3556 H   0  0  0  0  0  0  0  0  0  0  0  0
    7.5655   -4.2422   22.0641 C   0  0  0  0  0  0  0  0  0  0  0  0
    8.2265   -3.7756   23.2123 C   0  0  0  0  0  0  0  0  0  0  0  0
    8.2052   -2.7202   23.4541 H   0  0  0  0  0  0  0  0  0  0  0  0
    5.0973   -3.4484   19.9565 H   0  0  0  0  0  0  0  0  0  0  0  0
    4.8959   -4.3137   21.4979 H   0  0  0  0  0  0  0  0  0  0  0  0
    5.1633   -6.0020   19.7210 H   0  0  0  0  0  0  0  0  0  0  0  0
    6.5530   -5.1153   19.0557 H   0  0  0  0  0  0  0  0  0  0  0  0
    8.1534   -7.5986   22.4603 H   0  0  0  0  0  0  0  0  0  0  0  0
    9.3546   -6.7221   24.4984 H   0  0  0  0  0  0  0  0  0  0  0  0
   10.3100   -4.2949   27.4423 H   0  0  0  0  0  0  0  0  0  0  0  0
  1  2  3  0
  2  3  1  0
  3  4  2  0
  4  5  1  0
  5  6  2  0
  6  7  1  0
  7  8  1  0
  8  9  1  0
  9 10  1  0
 10 11  1  0
 11 12  2  0
 11 13  1  0
 13 14  1  0
 14 15  1  0
 15 16  1  0
 16 17  1  0
 17 18  1  0
 18 19  1  0
 19 20  1  0
 20 21  1  0
 20 22  1  0
 19 23  1  0
 19 24  1  0
 18 25  1  0
 18 26  1  0
 17 27  1  0
 17 28  1  0
 16 29  1  0
 15 30  1  0
 15 31  1  0
 14 32  1  0
 32 33  2  0
 33 34  1  0
 34 35  2  0
 35 36  1  0
 36 37  2  0
 37 38  1  0
 35 39  1  0
 34 40  1  0
 33 41  1  0
 14 42  1  0
 13 43  1  0
 10 44  1  0
 44 45  2  0
 45 46  1  0
  9 47  1  0
  9 48  1  0
  8 49  1  0
  8 50  1  0
  5 51  1  0
  4 52  1  0
  1 53  1  0
 45  3  1  0
 44  6  1  0
 20 16  1  0
 37 32  1  0
M  CHG  1  16   1
M  END
>  <plip>  (1) 
-0.09375

>  <filename>  (1) 
[H][C]#[C][c]1[c]([H])[c]([H])[c]2[c]([c]1[H])[N]([C](=[O])[N]([H])[C]([H])([c]1[c]([H])[n][c]([H])[c]([H])[c]1[H])[C]([H])([H])[N+]1([H])[C]([H])([H])[C]([H])([H])[C]([H])([H])[C]1([H])[H])[C]([H])([H])[C]([H])([H])[O]2

$$$$
