
     RDKit          3D

 52 54  0  0  0  0  0  0  0  0999 V2000
    4.8663   -6.3111   23.9703 C   0  0  0  0  0  0  0  0  0  0  0  0
    5.8635   -5.2118   23.5580 C   0  0  0  0  0  0  0  0  0  0  0  0
    5.0303   -4.0036   23.0770 C   0  0  0  0  0  0  0  0  0  0  0  0
    5.8424   -2.8837   22.5588 N   0  0  0  0  0  4  0  0  0  0  0  0
    6.2799   -3.0230   21.1423 C   0  0  0  0  0  0  0  0  0  0  0  0
    7.4463   -2.0865   20.8738 C   0  0  2  0  0  0  0  0  0  0  0  0
    8.8266   -2.4940   21.4605 C   0  0  0  0  0  0  0  0  0  0  0  0
    9.4285   -1.2066   22.0378 C   0  0  0  0  0  0  0  0  0  0  0  0
    8.6522   -0.1101   21.3801 N   0  0  0  0  0  4  0  0  0  0  0  0
    8.8047    1.2188   22.0072 C   0  0  0  0  0  0  0  0  0  0  0  0
    8.2587    1.9806   21.4382 H   0  0  0  0  0  0  0  0  0  0  0  0
    9.8628    1.5062   22.0728 H   0  0  0  0  0  0  0  0  0  0  0  0
    8.4006    1.2079   23.0311 H   0  0  0  0  0  0  0  0  0  0  0  0
    7.2181   -0.6033   21.2346 C   0  0  1  0  0  0  0  0  0  0  0  0
    6.5171    0.1490   20.1184 C   0  0  0  0  0  0  0  0  0  0  0  0
    5.2821    0.8081   20.2338 C   0  0  0  0  0  0  0  0  0  0  0  0
    4.7413    1.4140   19.0916 C   0  0  0  0  0  0  0  0  0  0  0  0
    5.4501    1.3592   17.8894 C   0  0  0  0  0  0  0  0  0  0  0  0
    6.6350    0.7473   17.7622 N   0  0  0  0  0  0  0  0  0  0  0  0
    7.1428    0.1758   18.8526 C   0  0  0  0  0  0  0  0  0  0  0  0
    8.1016   -0.3212   18.7053 H   0  0  0  0  0  0  0  0  0  0  0  0
    5.0564    1.8187   16.9837 H   0  0  0  0  0  0  0  0  0  0  0  0
    3.7943    1.9458   19.1192 H   0  0  0  0  0  0  0  0  0  0  0  0
    4.7503    0.8662   21.1872 H   0  0  0  0  0  0  0  0  0  0  0  0
    6.7041   -0.4586   22.1928 H   0  0  0  0  0  0  0  0  0  0  0  0
    8.9845   -0.0567   20.3989 H   0  0  0  0  0  0  0  0  0  0  0  0
    9.3189   -1.1385   23.1294 H   0  0  0  0  0  0  0  0  0  0  0  0
   10.4963   -1.1140   21.8193 H   0  0  0  0  0  0  0  0  0  0  0  0
    9.4819   -2.9034   20.6806 H   0  0  0  0  0  0  0  0  0  0  0  0
    8.7901   -3.2781   22.2202 H   0  0  0  0  0  0  0  0  0  0  0  0
    7.5478   -2.0357   19.7899 H   0  0  0  0  0  0  0  0  0  0  0  0
    5.4521   -2.8131   20.4491 H   0  0  0  0  0  0  0  0  0  0  0  0
    6.5871   -4.0599   20.9501 H   0  0  0  0  0  0  0  0  0  0  0  0
    5.3101   -1.9788   22.6531 H   0  0  0  0  0  0  0  0  0  0  0  0
    6.6928   -2.8091   23.1825 H   0  0  0  0  0  0  0  0  0  0  0  0
    4.4481   -3.6453   23.9272 H   0  0  0  0  0  0  0  0  0  0  0  0
    4.3244   -4.3509   22.3139 H   0  0  0  0  0  0  0  0  0  0  0  0
    6.8306   -4.8132   24.6709 C   0  0  0  0  0  0  0  0  0  0  0  0
    8.2278   -4.9749   24.5586 C   0  0  0  0  0  0  0  0  0  0  0  0
    9.0880   -4.5843   25.5949 C   0  0  0  0  0  0  0  0  0  0  0  0
    8.5661   -4.0388   26.7721 C   0  0  0  0  0  0  0  0  0  0  0  0
    7.1821   -3.8699   26.8944 C   0  0  0  0  0  0  0  0  0  0  0  0
    6.3325   -4.2477   25.8546 C   0  0  0  0  0  0  0  0  0  0  0  0
    5.2618   -4.0884   25.9659 H   0  0  0  0  0  0  0  0  0  0  0  0
    6.7451   -3.4390   27.7870 H   0  0  0  0  0  0  0  0  0  0  0  0
    9.2296   -3.7483   27.5810 H   0  0  0  0  0  0  0  0  0  0  0  0
   10.1650   -4.7107   25.4880 H   0  0  0  0  0  0  0  0  0  0  0  0
    8.6506   -5.4230   23.6623 H   0  0  0  0  0  0  0  0  0  0  0  0
    6.4629   -5.5818   22.7147 H   0  0  0  0  0  0  0  0  0  0  0  0
    5.3562   -7.1832   24.4102 H   0  0  0  0  0  0  0  0  0  0  0  0
    4.2845   -6.6468   23.1013 H   0  0  0  0  0  0  0  0  0  0  0  0
    4.1398   -5.9360   24.7041 H   0  0  0  0  0  0  0  0  0  0  0  0
  1  2  1  0
  2  3  1  0
  3  4  1  0
  4  5  1  0
  5  6  1  0
  6  7  1  0
  7  8  1  0
  8  9  1  0
  9 10  1  0
 10 11  1  0
 10 12  1  0
 10 13  1  0
  9 14  1  0
 14 15  1  0
 15 16  2  0
 16 17  1  0
 17 18  2  0
 18 19  1  0
 19 20  2  0
 20 21  1  0
 18 22  1  0
 17 23  1  0
 16 24  1  0
 14 25  1  1
  9 26  1  0
  8 27  1  0
  8 28  1  0
  7 29  1  0
  7 30  1  0
  6 31  1  6
  5 32  1  0
  5 33  1  0
  4 34  1  0
  4 35  1  0
  3 36  1  0
  3 37  1  0
  2 38  1  0
 38 39  2  0
 39 40  1  0
 40 41  2  0
 41 42  1  0
 42 43  2  0
 43 44  1  0
 42 45  1  0
 41 46  1  0
 40 47  1  0
 39 48  1  0
  2 49  1  0
  1 50  1  0
  1 51  1  0
  1 52  1  0
 14  6  1  0
 20 15  1  0
 43 38  1  0
M  CHG  2   4   1   9   1
M  END
>  <plip>  (1) 
-0.13793103448275862

>  <filename>  (1) 
[H][c]1[n][c]([H])[c]([C@@]2([H])[C@]([H])([C]([H])([H])[N+]([H])([H])[C]([H])([H])[C]([H])([c]3[c]([H])[c]([H])[c]([H])[c]([H])[c]3[H])[C]([H])([H])[H])[C]([H])([H])[C]([H])([H])[N+]2([H])[C]([H])([H])[H])[c]([H])[c]1[H]

$$$$
