
     RDKit          3D

 30 31  0  0  0  0  0  0  0  0999 V2000
    9.9607   -1.3737   20.5197 H   0  0  0  0  0  0  0  0  0  0  0  0
    9.8878   -0.4150   21.0365 C   0  0  0  0  0  0  0  0  0  0  0  0
   10.8110    0.1195   21.2515 H   0  0  0  0  0  0  0  0  0  0  0  0
    8.6962    0.0916   21.3788 C   0  0  0  0  0  0  0  0  0  0  0  0
    8.5539    1.4364   22.0497 C   0  0  0  0  0  0  0  0  0  0  0  0
    9.5853    2.2919   21.9297 N   0  0  0  0  0  0  0  0  0  0  0  0
    9.4956    3.4856   22.5023 C   0  0  0  0  0  0  0  0  0  0  0  0
   10.3585    4.1316   22.3753 H   0  0  0  0  0  0  0  0  0  0  0  0
    8.3954    3.8975   23.2549 C   0  0  0  0  0  0  0  0  0  0  0  0
    8.4184    5.2358   23.9224 C   0  0  0  0  0  0  0  0  0  0  0  0
    7.1751    5.7273   24.0709 F   0  0  0  0  0  0  0  0  0  0  0  0
    8.9555    5.1732   25.1566 F   0  0  0  0  0  0  0  0  0  0  0  0
    9.1355    6.1514   23.2446 F   0  0  0  0  0  0  0  0  0  0  0  0
    7.3276    3.0108   23.4391 C   0  0  0  0  0  0  0  0  0  0  0  0
    6.4611    3.2962   24.0437 H   0  0  0  0  0  0  0  0  0  0  0  0
    7.4174    1.7718   22.8175 C   0  0  0  0  0  0  0  0  0  0  0  0
    6.6260    1.0523   22.9445 H   0  0  0  0  0  0  0  0  0  0  0  0
    7.4213   -0.6766   21.0134 C   0  0  0  0  0  0  0  0  0  0  0  0
    6.7694   -0.8482   21.8837 H   0  0  0  0  0  0  0  0  0  0  0  0
    7.7019   -1.6860   20.6779 H   0  0  0  0  0  0  0  0  0  0  0  0
    6.6395    0.0116   19.9116 C   0  0  0  0  0  0  0  0  0  0  0  0
    7.1517    0.0708   18.6003 C   0  0  0  0  0  0  0  0  0  0  0  0
    8.0995   -0.4103   18.3723 H   0  0  0  0  0  0  0  0  0  0  0  0
    6.5560    0.6815   17.5708 N   0  0  0  0  0  0  0  0  0  0  0  0
    5.3948    1.3004   17.8279 C   0  0  0  0  0  0  0  0  0  0  0  0
    4.9201    1.7922   16.9814 H   0  0  0  0  0  0  0  0  0  0  0  0
    4.7938    1.3201   19.0909 C   0  0  0  0  0  0  0  0  0  0  0  0
    3.8626    1.8528   19.2409 H   0  0  0  0  0  0  0  0  0  0  0  0
    5.4218    0.6573   20.1503 C   0  0  0  0  0  0  0  0  0  0  0  0
    4.9910    0.6448   21.1560 H   0  0  0  0  0  0  0  0  0  0  0  0
  1  2  1  0
  2  3  1  0
  2  4  2  3
  4  5  1  0
  5  6  2  0
  6  7  1  0
  7  8  1  0
  7  9  2  0
  9 10  1  0
 10 11  1  0
 10 12  1  0
 10 13  1  0
  9 14  1  0
 14 15  1  0
 14 16  2  0
 16 17  1  0
  4 18  1  0
 18 19  1  0
 18 20  1  0
 18 21  1  0
 21 22  2  0
 22 23  1  0
 22 24  1  0
 24 25  2  0
 25 26  1  0
 25 27  1  0
 27 28  1  0
 27 29  2  0
 29 30  1  0
 16  5  1  0
 29 21  1  0
M  END
>  <plip>  (1) 
-0.07142857142857142

>  <filename>  (1) 
[H][C]([H])=[C]([c]1[n][c]([H])[c]([C]([F])([F])[F])[c]([H])[c]1[H])[C]([H])([H])[c]1[c]([H])[n][c]([H])[c]([H])[c]1[H]

$$$$
