
     RDKit          3D

 48 51  0  0  0  0  0  0  0  0999 V2000
    4.8221   -5.6675   26.4846 C   0  0  0  0  0  0  0  0  0  0  0  0
    5.2588   -4.7874   25.4062 N   0  0  0  0  0  0  0  0  0  0  0  0
    5.8845   -3.5682   25.4740 C   0  0  0  0  0  0  0  0  0  0  0  0
    6.1193   -3.0054   24.3149 N   0  0  0  0  0  0  0  0  0  0  0  0
    5.6141   -3.9203   23.3911 C   0  0  0  0  0  0  0  0  0  0  0  0
    5.4988   -3.9813   21.9756 C   0  0  0  0  0  0  0  0  0  0  0  0
    6.0284   -2.8163   21.0599 C   0  0  0  0  0  0  0  0  0  0  0  0
    6.0438   -2.8798   19.8408 O   0  0  0  0  0  0  0  0  0  0  0  0
    6.4970   -1.7038   21.6985 N   0  0  0  0  0  0  0  0  0  0  0  0
    7.3424   -0.7461   21.0070 C   0  0  0  0  0  0  0  0  0  0  0  0
    7.9506    0.2243   22.0281 C   0  0  0  0  0  0  0  0  0  0  0  0
    8.9372   -0.4141   23.0247 C   0  0  0  0  0  0  0  0  0  0  0  0
    9.1668    0.3823   24.3188 C   0  0  0  0  0  0  0  0  0  0  0  0
    7.9171    0.6133   25.2188 C   0  0  0  0  0  0  0  0  0  0  0  0
    8.0970    2.1455   25.0912 C   0  0  0  0  0  0  0  0  0  0  0  0
    9.3774    1.9251   24.2462 C   0  0  0  0  0  0  0  0  0  0  0  0
   10.2971    2.2787   24.7242 H   0  0  0  0  0  0  0  0  0  0  0  0
    9.3499    2.3546   23.2385 H   0  0  0  0  0  0  0  0  0  0  0  0
    8.2373    2.6845   26.0329 H   0  0  0  0  0  0  0  0  0  0  0  0
    7.2865    2.6429   24.5466 H   0  0  0  0  0  0  0  0  0  0  0  0
    8.0126    0.2250   26.2368 H   0  0  0  0  0  0  0  0  0  0  0  0
    6.9762    0.2218   24.8118 H   0  0  0  0  0  0  0  0  0  0  0  0
    9.9732   -0.1109   24.8770 H   0  0  0  0  0  0  0  0  0  0  0  0
    9.9067   -0.5899   22.5344 H   0  0  0  0  0  0  0  0  0  0  0  0
    8.5665   -1.4042   23.3314 H   0  0  0  0  0  0  0  0  0  0  0  0
    7.1287    0.7068   22.5755 H   0  0  0  0  0  0  0  0  0  0  0  0
    8.4473    1.0325   21.4817 H   0  0  0  0  0  0  0  0  0  0  0  0
    6.5803   -0.0249   19.9058 C   0  0  0  0  0  0  0  0  0  0  0  0
    5.3694    0.6456   20.1201 C   0  0  0  0  0  0  0  0  0  0  0  0
    4.7799    1.3222   19.0490 C   0  0  0  0  0  0  0  0  0  0  0  0
    5.4158    1.3120   17.8025 C   0  0  0  0  0  0  0  0  0  0  0  0
    6.5664    0.6647   17.5704 N   0  0  0  0  0  0  0  0  0  0  0  0
    7.1132    0.0188   18.6104 C   0  0  0  0  0  0  0  0  0  0  0  0
    8.0556   -0.4875   18.3965 H   0  0  0  0  0  0  0  0  0  0  0  0
    4.9876    1.8476   16.9560 H   0  0  0  0  0  0  0  0  0  0  0  0
    3.8557    1.8715   19.1714 H   0  0  0  0  0  0  0  0  0  0  0  0
    4.9020    0.6453   21.1084 H   0  0  0  0  0  0  0  0  0  0  0  0
    8.1649   -1.2921   20.5135 H   0  0  0  0  0  0  0  0  0  0  0  0
    6.4063   -1.6373   22.7073 H   0  0  0  0  0  0  0  0  0  0  0  0
    4.9502   -5.0803   21.4175 N   0  0  0  0  0  0  0  0  0  0  0  0
    4.4728   -6.0549   22.2067 C   0  0  0  0  0  0  0  0  0  0  0  0
    4.4923   -6.0976   23.5381 N   0  0  0  0  0  0  0  0  0  0  0  0
    5.0814   -5.0325   24.0731 C   0  0  0  0  0  0  0  0  0  0  0  0
    4.0018   -6.8933   21.7000 H   0  0  0  0  0  0  0  0  0  0  0  0
    6.1509   -3.1584   26.4403 H   0  0  0  0  0  0  0  0  0  0  0  0
    5.5395   -6.4750   26.6691 H   0  0  0  0  0  0  0  0  0  0  0  0
    4.6912   -5.0854   27.3982 H   0  0  0  0  0  0  0  0  0  0  0  0
    3.8626   -6.1214   26.2177 H   0  0  0  0  0  0  0  0  0  0  0  0
  1  2  1  0
  2  3  1  0
  3  4  2  0
  4  5  1  0
  5  6  2  0
  6  7  1  0
  7  8  2  0
  7  9  1  0
  9 10  1  0
 10 11  1  0
 11 12  1  0
 12 13  1  0
 13 14  1  0
 14 15  1  0
 15 16  1  0
 16 17  1  0
 16 18  1  0
 15 19  1  0
 15 20  1  0
 14 21  1  0
 14 22  1  0
 13 23  1  0
 12 24  1  0
 12 25  1  0
 11 26  1  0
 11 27  1  0
 10 28  1  0
 28 29  2  0
 29 30  1  0
 30 31  2  0
 31 32  1  0
 32 33  2  0
 33 34  1  0
 31 35  1  0
 30 36  1  0
 29 37  1  0
 10 38  1  0
  9 39  1  0
  6 40  1  0
 40 41  2  0
 41 42  1  0
 42 43  2  0
 41 44  1  0
  3 45  1  0
  1 46  1  0
  1 47  1  0
  1 48  1  0
 43  2  1  0
 43  5  1  0
 16 13  1  0
 33 28  1  0
M  END
>  <plip>  (1) 
-0.14285714285714285

>  <filename>  (1) 
[H][c]1[n][c]([C](=[O])[N]([H])[C]([H])([c]2[c]([H])[n][c]([H])[c]([H])[c]2[H])[C]([H])([H])[C]([H])([H])[C]2([H])[C]([H])([H])[C]([H])([H])[C]2([H])[H])[c]2[n][c]([H])[n]([C]([H])([H])[H])[c]2[n]1

$$$$
