
     RDKit          3D

 36 37  0  0  0  0  0  0  0  0999 V2000
    4.9185    1.8098   16.9650 H   0  0  0  0  0  0  0  0  0  0  0  0
    5.3856    1.3063   17.8108 C   0  0  0  0  0  0  0  0  0  0  0  0
    6.5490    0.6876   17.5545 N   0  0  0  0  0  0  0  0  0  0  0  0
    7.1596    0.0778   18.5791 C   0  0  0  0  0  0  0  0  0  0  0  0
    8.1046   -0.4124   18.3467 H   0  0  0  0  0  0  0  0  0  0  0  0
    6.6485    0.0184   19.8920 C   0  0  0  0  0  0  0  0  0  0  0  0
    7.3858   -0.6906   20.9701 C   0  0  0  0  0  0  0  0  0  0  0  0
    6.7440   -1.5328   21.9086 C   0  0  0  0  0  0  0  0  0  0  0  0
    5.6782   -1.7248   21.8577 H   0  0  0  0  0  0  0  0  0  0  0  0
    7.3996   -2.1851   22.8690 N   0  0  0  0  0  0  0  0  0  0  0  0
    8.7238   -2.0424   22.9970 N   0  0  0  0  0  0  0  0  0  0  0  0
    9.3961   -1.2478   22.1504 C   0  0  0  0  0  0  0  0  0  0  0  0
   10.8837   -1.1013   22.3794 C   0  0  0  0  0  0  0  0  0  0  0  0
   11.3829   -1.2987   21.4209 H   0  0  0  0  0  0  0  0  0  0  0  0
   11.1761   -1.8931   23.0896 H   0  0  0  0  0  0  0  0  0  0  0  0
   11.2674    0.2540   22.8178 N   0  0  0  0  0  0  0  0  0  0  0  0
   10.7108    0.6206   24.1323 C   0  0  0  0  0  0  0  0  0  0  0  0
   10.2851   -0.2740   24.6162 H   0  0  0  0  0  0  0  0  0  0  0  0
   11.5183    0.9660   24.7991 H   0  0  0  0  0  0  0  0  0  0  0  0
    9.6365    1.7032   24.0273 C   0  0  0  0  0  0  0  0  0  0  0  0
   10.0376    2.6115   23.5607 H   0  0  0  0  0  0  0  0  0  0  0  0
    9.2700    1.9566   25.0288 H   0  0  0  0  0  0  0  0  0  0  0  0
    8.7881    1.3657   23.4218 H   0  0  0  0  0  0  0  0  0  0  0  0
   12.6954    0.5370   22.6797 C   0  0  0  0  0  0  0  0  0  0  0  0
   13.2922    0.0943   23.5037 H   0  0  0  0  0  0  0  0  0  0  0  0
   13.0374    0.0404   21.7665 H   0  0  0  0  0  0  0  0  0  0  0  0
   12.9673    2.0367   22.5996 C   0  0  0  0  0  0  0  0  0  0  0  0
   14.0379    2.2231   22.4737 H   0  0  0  0  0  0  0  0  0  0  0  0
   12.6653    2.5579   23.5149 H   0  0  0  0  0  0  0  0  0  0  0  0
   12.4198    2.4862   21.7632 H   0  0  0  0  0  0  0  0  0  0  0  0
    8.7584   -0.5625   21.1071 C   0  0  0  0  0  0  0  0  0  0  0  0
    9.3391    0.0878   20.4588 H   0  0  0  0  0  0  0  0  0  0  0  0
    5.4257    0.6611   20.1308 C   0  0  0  0  0  0  0  0  0  0  0  0
    5.0052    0.6548   21.1361 H   0  0  0  0  0  0  0  0  0  0  0  0
    4.7901    1.3212   19.0778 C   0  0  0  0  0  0  0  0  0  0  0  0
    3.8598    1.8545   19.2256 H   0  0  0  0  0  0  0  0  0  0  0  0
  1  2  1  0
  2  3  2  0
  3  4  1  0
  4  5  1  0
  4  6  2  0
  6  7  1  0
  7  8  2  0
  8  9  1  0
  8 10  1  0
 10 11  2  0
 11 12  1  0
 12 13  1  0
 13 14  1  0
 13 15  1  0
 13 16  1  0
 16 17  1  0
 17 18  1  0
 17 19  1  0
 17 20  1  0
 20 21  1  0
 20 22  1  0
 20 23  1  0
 16 24  1  0
 24 25  1  0
 24 26  1  0
 24 27  1  0
 27 28  1  0
 27 29  1  0
 27 30  1  0
 12 31  2  0
 31 32  1  0
  6 33  1  0
 33 34  1  0
 33 35  2  0
 35 36  1  0
 35  2  1  0
 31  7  1  0
M  END
>  <plip>  (1) 
-0.03571428571428571

>  <filename>  (1) 
[H][c]1[n][c]([H])[c](-[c]2[c]([H])[n][n][c]([C]([H])([H])[N]([C]([H])([H])[C]([H])([H])[H])[C]([H])([H])[C]([H])([H])[H])[c]2[H])[c]([H])[c]1[H]

$$$$
