
     RDKit          3D

 51 54  0  0  0  0  0  0  0  0999 V2000
    9.7113    6.2753   22.4680 Cl  0  0  0  0  0  0  0  0  0  0  0  0
    8.3007    5.8307   23.3983 C   0  0  0  0  0  0  0  0  0  0  0  0
    7.7001    6.8454   24.1510 C   0  0  0  0  0  0  0  0  0  0  0  0
    6.5712    6.5616   24.9162 C   0  0  0  0  0  0  0  0  0  0  0  0
    6.0435    5.2689   24.9264 C   0  0  0  0  0  0  0  0  0  0  0  0
    6.6523    4.2686   24.1705 C   0  0  0  0  0  0  0  0  0  0  0  0
    7.7965    4.5162   23.3885 C   0  0  0  0  0  0  0  0  0  0  0  0
    8.4096    3.3921   22.5920 C   0  0  1  0  0  0  0  0  0  0  0  0
    8.7029    2.0559   23.3656 C   0  0  0  0  0  0  0  0  0  0  0  0
    7.7091    1.2982   22.4858 C   0  0  2  0  0  0  0  0  0  0  0  0
    8.3941    0.2333   21.6642 N   0  0  0  0  0  4  0  0  0  0  0  0
    7.5333   -0.7530   20.9305 C   0  0  0  0  0  0  0  0  0  0  0  0
    6.6992   -0.0182   19.8794 C   0  0  0  0  0  0  0  0  0  0  0  0
    5.4692    0.6178   20.1230 C   0  0  0  0  0  0  0  0  0  0  0  0
    4.8311    1.2870   19.0734 C   0  0  0  0  0  0  0  0  0  0  0  0
    5.4342    1.3049   17.8140 C   0  0  0  0  0  0  0  0  0  0  0  0
    6.6030    0.7022   17.5544 N   0  0  0  0  0  0  0  0  0  0  0  0
    7.2045    0.0701   18.5704 C   0  0  0  0  0  0  0  0  0  0  0  0
    8.1493   -0.4133   18.3205 H   0  0  0  0  0  0  0  0  0  0  0  0
    4.9630    1.8327   16.9853 H   0  0  0  0  0  0  0  0  0  0  0  0
    3.8878    1.7978   19.2205 H   0  0  0  0  0  0  0  0  0  0  0  0
    5.0383    0.6501   21.1275 H   0  0  0  0  0  0  0  0  0  0  0  0
    6.7114   -1.6394   21.9009 C   0  0  0  0  0  0  0  0  0  0  0  0
    5.9504   -2.7213   21.1227 C   0  0  0  0  0  0  0  0  0  0  0  0
    5.0268   -3.5517   22.0351 C   0  0  0  0  0  0  0  0  0  0  0  0
    5.3591   -3.4772   23.4101 O   0  0  0  0  0  0  0  0  0  0  0  0
    6.7506   -3.5430   23.6495 C   0  0  0  0  0  0  0  0  0  0  0  0
    7.5235   -2.3312   23.0425 C   0  0  0  0  0  0  0  0  0  0  0  0
    8.4973   -2.7053   22.6938 H   0  0  0  0  0  0  0  0  0  0  0  0
    7.7426   -1.6057   23.8387 H   0  0  0  0  0  0  0  0  0  0  0  0
    7.1595   -4.4867   23.2454 H   0  0  0  0  0  0  0  0  0  0  0  0
    6.8517   -3.5851   24.7370 H   0  0  0  0  0  0  0  0  0  0  0  0
    5.0247   -4.6002   21.6944 H   0  0  0  0  0  0  0  0  0  0  0  0
    4.0007   -3.1943   21.9817 H   0  0  0  0  0  0  0  0  0  0  0  0
    5.3699   -2.2901   20.3040 H   0  0  0  0  0  0  0  0  0  0  0  0
    6.6861   -3.3841   20.6479 H   0  0  0  0  0  0  0  0  0  0  0  0
    6.0084   -0.9659   22.3925 H   0  0  0  0  0  0  0  0  0  0  0  0
    8.2027   -1.4259   20.3861 H   0  0  0  0  0  0  0  0  0  0  0  0
    8.9228    0.7703   20.9473 H   0  0  0  0  0  0  0  0  0  0  0  0
    9.0844   -0.2623   22.2598 H   0  0  0  0  0  0  0  0  0  0  0  0
    7.4340    2.5813   21.6826 C   0  0  0  0  0  0  0  0  0  0  0  0
    6.3983    2.9269   21.6570 H   0  0  0  0  0  0  0  0  0  0  0  0
    7.7567    2.4261   20.6510 H   0  0  0  0  0  0  0  0  0  0  0  0
    6.8419    0.8869   23.0054 H   0  0  0  0  0  0  0  0  0  0  0  0
    8.4854    2.0727   24.4360 H   0  0  0  0  0  0  0  0  0  0  0  0
    9.7214    1.6758   23.2471 H   0  0  0  0  0  0  0  0  0  0  0  0
    9.2876    3.7399   22.0453 H   0  0  0  0  0  0  0  0  0  0  0  0
    6.2248    3.2697   24.1854 H   0  0  0  0  0  0  0  0  0  0  0  0
    5.1623    5.0382   25.5138 H   0  0  0  0  0  0  0  0  0  0  0  0
    6.1010    7.3479   25.4991 H   0  0  0  0  0  0  0  0  0  0  0  0
    8.1224    7.8444   24.1220 H   0  0  0  0  0  0  0  0  0  0  0  0
  1  2  1  0
  2  3  2  0
  3  4  1  0
  4  5  2  0
  5  6  1  0
  6  7  2  0
  7  8  1  0
  8  9  1  0
  9 10  1  0
 10 11  1  0
 11 12  1  0
 12 13  1  0
 13 14  2  0
 14 15  1  0
 15 16  2  0
 16 17  1  0
 17 18  2  0
 18 19  1  0
 16 20  1  0
 15 21  1  0
 14 22  1  0
 12 23  1  0
 23 24  1  0
 24 25  1  0
 25 26  1  0
 26 27  1  0
 27 28  1  0
 28 29  1  0
 28 30  1  0
 27 31  1  0
 27 32  1  0
 25 33  1  0
 25 34  1  0
 24 35  1  0
 24 36  1  0
 23 37  1  0
 12 38  1  0
 11 39  1  0
 11 40  1  0
 10 41  1  0
 41 42  1  0
 41 43  1  0
 10 44  1  1
  9 45  1  0
  9 46  1  0
  8 47  1  6
  6 48  1  0
  5 49  1  0
  4 50  1  0
  3 51  1  0
  7  2  1  0
 41  8  1  0
 18 13  1  0
 28 23  1  0
M  CHG  1  11   1
M  END
>  <plip>  (1) 
-0.0

>  <filename>  (1) 
[H][c]1[n][c]([H])[c]([C]([H])([C]2([H])[C]([H])([H])[C]([H])([H])[O][C]([H])([H])[C]2([H])[H])[N+]([H])([H])[C@]2([H])[C]([H])([H])[C@@]([H])([c]3[c]([H])[c]([H])[c]([H])[c]([H])[c]3[Cl])[C]2([H])[H])[c]([H])[c]1[H]

$$$$
