
     RDKit          3D

 29 30  0  0  0  0  0  0  0  0999 V2000
   12.6617    2.6067   21.9235 H   0  0  0  0  0  0  0  0  0  0  0  0
   11.6369    2.3081   22.1156 C   0  0  0  0  0  0  0  0  0  0  0  0
   11.4337    1.8549   23.0816 H   0  0  0  0  0  0  0  0  0  0  0  0
   10.6855    2.4505   21.1960 C   0  0  0  0  0  0  0  0  0  0  0  0
   10.9837    2.8452   20.2291 H   0  0  0  0  0  0  0  0  0  0  0  0
    9.2395    2.0741   21.4390 C   0  0  0  0  0  0  0  0  0  0  0  0
    8.5721    2.3277   20.6035 H   0  0  0  0  0  0  0  0  0  0  0  0
    8.8344    2.5580   22.3417 H   0  0  0  0  0  0  0  0  0  0  0  0
    9.2051    0.6476   21.6245 O   0  0  0  0  0  0  0  0  0  0  0  0
    7.9196    0.2232   21.9834 N   0  0  0  0  0  0  0  0  0  0  0  0
    7.9289   -0.4506   23.2777 C   0  0  0  0  0  0  0  0  0  0  0  0
    8.9198   -0.8580   23.5219 H   0  0  0  0  0  0  0  0  0  0  0  0
    7.6523    0.2666   24.0547 H   0  0  0  0  0  0  0  0  0  0  0  0
    6.8326   -1.5127   23.1025 C   0  0  0  0  0  0  0  0  0  0  0  0
    5.9423   -1.2127   23.6596 H   0  0  0  0  0  0  0  0  0  0  0  0
    7.1014   -2.5157   23.4491 H   0  0  0  0  0  0  0  0  0  0  0  0
    6.5535   -1.5801   21.7083 O   0  0  0  0  0  0  0  0  0  0  0  0
    7.3965   -0.7101   20.9911 C   0  0  1  0  0  0  0  0  0  0  0  0
    8.2288   -1.2691   20.5356 H   0  0  0  0  0  0  0  0  0  0  0  0
    6.6307   -0.0098   19.8926 C   0  0  0  0  0  0  0  0  0  0  0  0
    7.1590    0.0520   18.6033 C   0  0  0  0  0  0  0  0  0  0  0  0
    8.1180   -0.4149   18.3652 H   0  0  0  0  0  0  0  0  0  0  0  0
    6.5650    0.6784   17.5762 N   0  0  0  0  0  0  0  0  0  0  0  0
    5.4005    1.2989   17.8158 C   0  0  0  0  0  0  0  0  0  0  0  0
    4.9402    1.8086   16.9674 H   0  0  0  0  0  0  0  0  0  0  0  0
    4.7926    1.3113   19.0760 C   0  0  0  0  0  0  0  0  0  0  0  0
    3.8623    1.8520   19.2180 H   0  0  0  0  0  0  0  0  0  0  0  0
    5.4179    0.6484   20.1306 C   0  0  0  0  0  0  0  0  0  0  0  0
    4.9874    0.6492   21.1302 H   0  0  0  0  0  0  0  0  0  0  0  0
  1  2  1  0
  2  3  1  0
  2  4  2  3
  4  5  1  0
  4  6  1  0
  6  7  1  0
  6  8  1  0
  6  9  1  0
  9 10  1  0
 10 11  1  0
 11 12  1  0
 11 13  1  0
 11 14  1  0
 14 15  1  0
 14 16  1  0
 14 17  1  0
 17 18  1  0
 18 19  1  6
 18 20  1  0
 20 21  2  0
 21 22  1  0
 21 23  1  0
 23 24  2  0
 24 25  1  0
 24 26  1  0
 26 27  1  0
 26 28  2  0
 28 29  1  0
 18 10  1  0
 28 20  1  0
M  END
>  <plip>  (1) 
-0.07142857142857142

>  <filename>  (1) 
[H][C]([H])=[C]([H])[C]([H])([H])[O][N]1[C]([H])([H])[C]([H])([H])[O][C@@]1([H])[c]1[c]([H])[n][c]([H])[c]([H])[c]1[H]

$$$$
