
     RDKit          3D

 31 33  0  0  0  0  0  0  0  0999 V2000
    4.9209    1.8351   16.9620 H   0  0  0  0  0  0  0  0  0  0  0  0
    5.3877    1.3162   17.7967 C   0  0  0  0  0  0  0  0  0  0  0  0
    6.5444    0.6907   17.5336 N   0  0  0  0  0  0  0  0  0  0  0  0
    7.1520    0.0631   18.5479 C   0  0  0  0  0  0  0  0  0  0  0  0
    8.0935   -0.4179   18.2818 H   0  0  0  0  0  0  0  0  0  0  0  0
    6.6599    0.0194   19.8732 C   0  0  0  0  0  0  0  0  0  0  0  0
    7.4017   -0.6517   20.9738 C   0  0  0  0  0  0  0  0  0  0  0  0
    7.7248   -0.2255   22.2529 C   0  0  0  0  0  0  0  0  0  0  0  0
    7.4790    1.1557   22.8175 C   0  0  0  0  0  0  0  0  0  0  0  0
    6.4133    1.4020   22.7867 H   0  0  0  0  0  0  0  0  0  0  0  0
    7.7638    1.1940   23.8745 H   0  0  0  0  0  0  0  0  0  0  0  0
    8.2485    2.2569   22.0632 C   0  0  0  0  0  0  0  0  0  0  0  0
    8.0063    3.2491   22.4623 H   0  0  0  0  0  0  0  0  0  0  0  0
    7.9531    2.2624   21.0089 H   0  0  0  0  0  0  0  0  0  0  0  0
    9.6931    2.0675   22.1350 N   0  0  0  0  0  0  0  0  0  0  0  0
   10.4651    2.2540   23.2485 C   0  0  0  0  0  0  0  0  0  0  0  0
   10.0873    2.8015   24.1111 H   0  0  0  0  0  0  0  0  0  0  0  0
   11.6402    1.6904   23.1341 N   0  0  0  0  0  0  0  0  0  0  0  0
   11.6375    1.0845   21.8998 C   0  0  0  0  0  0  0  0  0  0  0  0
   12.4758    0.5034   21.5469 H   0  0  0  0  0  0  0  0  0  0  0  0
   10.4496    1.3079   21.2710 C   0  0  0  0  0  0  0  0  0  0  0  0
   10.0456    0.9826   20.3307 H   0  0  0  0  0  0  0  0  0  0  0  0
    8.4903   -1.2897   22.7969 C   0  0  0  0  0  0  0  0  0  0  0  0
    8.9629   -1.3579   23.7710 H   0  0  0  0  0  0  0  0  0  0  0  0
    8.6253   -2.3024   21.9430 N   0  0  0  0  0  0  0  0  0  0  0  0
    7.9670   -1.8822   20.8512 N   0  0  0  0  0  0  0  0  0  0  0  0
    7.8511   -2.5103   20.0693 H   0  0  0  0  0  0  0  0  0  0  0  0
    5.4362    0.6675   20.1131 C   0  0  0  0  0  0  0  0  0  0  0  0
    4.9931    0.6449   21.1097 H   0  0  0  0  0  0  0  0  0  0  0  0
    4.7909    1.3230   19.0609 C   0  0  0  0  0  0  0  0  0  0  0  0
    3.8548    1.8485   19.2107 H   0  0  0  0  0  0  0  0  0  0  0  0
  1  2  1  0
  2  3  2  0
  3  4  1  0
  4  5  1  0
  4  6  2  0
  6  7  1  0
  7  8  2  0
  8  9  1  0
  9 10  1  0
  9 11  1  0
  9 12  1  0
 12 13  1  0
 12 14  1  0
 12 15  1  0
 15 16  1  0
 16 17  1  0
 16 18  2  0
 18 19  1  0
 19 20  1  0
 19 21  2  0
 21 22  1  0
  8 23  1  0
 23 24  1  0
 23 25  2  0
 25 26  1  0
 26 27  1  0
  6 28  1  0
 28 29  1  0
 28 30  2  0
 30 31  1  0
 30  2  1  0
 26  7  1  0
 21 15  1  0
M  END
>  <plip>  (1) 
-0.034482758620689655

>  <filename>  (1) 
[H][c]1[n][c]([H])[c](-[c]2[c]([C]([H])([H])[C]([H])([H])[n]3[c]([H])[n][c]([H])[c]3[H])[c]([H])[n][n]2[H])[c]([H])[c]1[H]

$$$$
