
     RDKit          3D

 34 36  0  0  0  0  0  0  0  0999 V2000
    9.1234   -2.8214   24.0403 O   0  0  0  0  0  0  0  0  0  0  0  0
    8.6227   -2.0503   23.2547 C   0  0  0  0  0  0  0  0  0  0  0  0
    9.4104   -1.0763   22.4105 C   0  0  0  0  0  0  0  0  0  0  0  0
    8.8220   -0.9523   21.0000 C   0  0  0  0  0  0  0  0  0  0  0  0
    7.3221   -0.7520   21.0313 C   0  0  0  0  0  0  0  0  0  0  0  0
    6.5937   -1.2419   21.9865 N   0  0  0  0  0  0  0  0  0  0  0  0
    7.2266   -1.9580   23.0178 N   0  0  0  0  0  0  0  0  0  0  0  0
    6.4286   -2.6295   23.9663 C   0  0  0  0  0  0  0  0  0  0  0  0
    6.6650   -2.3016   25.2296 N   0  0  0  0  0  0  0  0  0  0  0  0
    5.8836   -2.7960   26.1850 C   0  0  0  0  0  0  0  0  0  0  0  0
    4.8430   -3.6847   25.8971 C   0  0  0  0  0  0  0  0  0  0  0  0
    3.8063   -4.2074   27.1774 Cl  0  0  0  0  0  0  0  0  0  0  0  0
    4.6400   -4.1180   24.5896 C   0  0  0  0  0  0  0  0  0  0  0  0
    5.4806   -3.6008   23.5880 C   0  0  0  0  0  0  0  0  0  0  0  0
    5.4441   -4.1006   22.1717 C   0  0  0  0  0  0  0  0  0  0  0  0
    6.6796   -4.2677   21.6635 F   0  0  0  0  0  0  0  0  0  0  0  0
    4.8334   -5.2996   22.0860 F   0  0  0  0  0  0  0  0  0  0  0  0
    4.7762   -3.2842   21.3458 F   0  0  0  0  0  0  0  0  0  0  0  0
    3.8481   -4.8409   24.3891 H   0  0  0  0  0  0  0  0  0  0  0  0
    6.0785   -2.4769   27.2122 H   0  0  0  0  0  0  0  0  0  0  0  0
    6.6179   -0.0419   19.9423 C   0  0  0  0  0  0  0  0  0  0  0  0
    5.3888    0.6048   20.1609 C   0  0  0  0  0  0  0  0  0  0  0  0
    4.8092    1.2910   19.0943 C   0  0  0  0  0  0  0  0  0  0  0  0
    5.4462    1.2864   17.8470 C   0  0  0  0  0  0  0  0  0  0  0  0
    6.6037    0.6484   17.6178 N   0  0  0  0  0  0  0  0  0  0  0  0
    7.1629    0.0083   18.6494 C   0  0  0  0  0  0  0  0  0  0  0  0
    8.1033   -0.4975   18.4335 H   0  0  0  0  0  0  0  0  0  0  0  0
    5.0053    1.8163   17.0033 H   0  0  0  0  0  0  0  0  0  0  0  0
    3.8835    1.8386   19.2187 H   0  0  0  0  0  0  0  0  0  0  0  0
    4.9186    0.5643   21.1435 H   0  0  0  0  0  0  0  0  0  0  0  0
    9.3162   -0.1364   20.4634 H   0  0  0  0  0  0  0  0  0  0  0  0
    9.0172   -1.8796   20.4417 H   0  0  0  0  0  0  0  0  0  0  0  0
    9.3954   -0.1090   22.9327 H   0  0  0  0  0  0  0  0  0  0  0  0
   10.4434   -1.4242   22.3906 H   0  0  0  0  0  0  0  0  0  0  0  0
  1  2  2  0
  2  3  1  0
  3  4  1  0
  4  5  1  0
  5  6  2  0
  6  7  1  0
  7  8  1  0
  8  9  2  0
  9 10  1  0
 10 11  2  0
 11 12  1  0
 11 13  1  0
 13 14  2  0
 14 15  1  0
 15 16  1  0
 15 17  1  0
 15 18  1  0
 13 19  1  0
 10 20  1  0
  5 21  1  0
 21 22  2  0
 22 23  1  0
 23 24  2  0
 24 25  1  0
 25 26  2  0
 26 27  1  0
 24 28  1  0
 23 29  1  0
 22 30  1  0
  4 31  1  0
  4 32  1  0
  3 33  1  0
  3 34  1  0
  7  2  1  0
 14  8  1  0
 26 21  1  0
M  END
>  <plip>  (1) 
-0.0

>  <filename>  (1) 
[H][c]1[n][c]([H])[c]([C]2=[N][N]([c]3[n][c]([H])[c]([Cl])[c]([H])[c]3[C]([F])([F])[F])[C](=[O])[C]([H])([H])[C]2([H])[H])[c]([H])[c]1[H]

$$$$
