
     RDKit          3D

 33 35  0  0  0  0  0  0  0  0999 V2000
    5.0280    1.7131   16.9156 H   0  0  0  0  0  0  0  0  0  0  0  0
    5.4931    1.2715   17.7969 C   0  0  0  0  0  0  0  0  0  0  0  0
    6.6671    0.6531   17.5970 N   0  0  0  0  0  0  0  0  0  0  0  0
    7.2618    0.1166   18.6708 C   0  0  0  0  0  0  0  0  0  0  0  0
    8.2059   -0.3972   18.4884 H   0  0  0  0  0  0  0  0  0  0  0  0
    6.7404    0.1675   19.9704 C   0  0  0  0  0  0  0  0  0  0  0  0
    7.4785   -0.5083   21.1100 C   0  0  1  0  0  0  0  0  0  0  0  0
    8.5381   -0.6015   20.8276 H   0  0  0  0  0  0  0  0  0  0  0  0
    7.3950    0.1994   22.3675 N   0  0  0  0  0  0  0  0  0  0  0  0
    8.1168    1.3797   22.5273 N   0  0  0  0  0  0  0  0  0  0  0  0
    7.6358    2.1999   22.1767 H   0  0  0  0  0  0  0  0  0  0  0  0
    8.8867    1.6492   23.6532 C   0  0  0  0  0  0  0  0  0  0  0  0
    9.2803    0.8227   24.4427 O   0  0  0  0  0  0  0  0  0  0  0  0
    9.1695    3.1532   23.7817 C   0  0  0  0  0  0  0  0  0  0  0  0
    9.4167    3.6950   25.0527 C   0  0  0  0  0  0  0  0  0  0  0  0
    9.3473    3.0533   25.9252 H   0  0  0  0  0  0  0  0  0  0  0  0
    9.7467    5.0499   25.1743 C   0  0  0  0  0  0  0  0  0  0  0  0
    9.9491    5.4713   26.1602 H   0  0  0  0  0  0  0  0  0  0  0  0
    9.8451    5.8882   24.1329 N   0  0  0  0  0  0  0  0  0  0  0  0
    9.5924    5.3825   22.9166 C   0  0  0  0  0  0  0  0  0  0  0  0
    9.6482    6.0782   22.0803 H   0  0  0  0  0  0  0  0  0  0  0  0
    9.2400    4.0488   22.6924 C   0  0  0  0  0  0  0  0  0  0  0  0
    9.0194    3.7344   21.6775 H   0  0  0  0  0  0  0  0  0  0  0  0
    6.7078   -0.5178   23.3554 C   0  0  0  0  0  0  0  0  0  0  0  0
    6.3360   -0.1444   24.4299 O   0  0  0  0  0  0  0  0  0  0  0  0
    6.5006   -1.7689   22.8724 O   0  0  0  0  0  0  0  0  0  0  0  0
    6.8371   -1.8569   21.4897 C   0  0  0  0  0  0  0  0  0  0  0  0
    5.9155   -2.0327   20.9219 H   0  0  0  0  0  0  0  0  0  0  0  0
    7.5108   -2.7004   21.3306 H   0  0  0  0  0  0  0  0  0  0  0  0
    5.4893    0.7710   20.1544 C   0  0  0  0  0  0  0  0  0  0  0  0
    5.0216    0.7919   21.1444 H   0  0  0  0  0  0  0  0  0  0  0  0
    4.8621    1.3432   19.0460 C   0  0  0  0  0  0  0  0  0  0  0  0
    3.9024    1.8401   19.1383 H   0  0  0  0  0  0  0  0  0  0  0  0
  1  2  1  0
  2  3  2  0
  3  4  1  0
  4  5  1  0
  4  6  2  0
  6  7  1  0
  7  8  1  6
  7  9  1  0
  9 10  1  0
 10 11  1  0
 10 12  1  0
 12 13  2  0
 12 14  1  0
 14 15  2  0
 15 16  1  0
 15 17  1  0
 17 18  1  0
 17 19  2  0
 19 20  1  0
 20 21  1  0
 20 22  2  0
 22 23  1  0
  9 24  1  0
 24 25  2  0
 24 26  1  0
 26 27  1  0
 27 28  1  0
 27 29  1  0
  6 30  1  0
 30 31  1  0
 30 32  2  0
 32 33  1  0
 32  2  1  0
 27  7  1  0
 22 14  1  0
M  END
>  <plip>  (1) 
-0.07142857142857142

>  <filename>  (1) 
[H][c]1[n][c]([H])[c]([C@@]2([H])[N]([N]([H])[C](=[O])[c]3[c]([H])[c]([H])[n][c]([H])[c]3[H])[C](=[O])[O][C]2([H])[H])[c]([H])[c]1[H]

$$$$
