
     RDKit          3D

 26 27  0  0  0  0  0  0  0  0999 V2000
    6.9212   -0.6942   21.9509 H   0  0  0  0  0  0  0  0  0  0  0  0
    7.3810   -0.7177   20.9485 C   0  0  0  0  0  0  0  0  0  0  0  0
    8.4717   -1.3324   20.7112 N   0  0  0  0  0  0  0  0  0  0  0  0
    9.1667   -1.9511   21.8476 C   0  0  0  0  0  0  0  0  0  0  0  0
    9.9700   -2.5293   21.3883 H   0  0  0  0  0  0  0  0  0  0  0  0
    8.5286   -2.6703   22.3740 H   0  0  0  0  0  0  0  0  0  0  0  0
    9.7691   -0.9901   22.8723 C   0  0  0  0  0  0  0  0  0  0  0  0
    9.1363   -0.8521   24.0516 N   0  0  0  0  0  0  0  0  0  0  0  0
    9.6193    0.0596   24.9030 C   0  0  0  0  0  0  0  0  0  0  0  0
    9.0752    0.1569   25.8386 H   0  0  0  0  0  0  0  0  0  0  0  0
   10.7389    0.8538   24.6489 C   0  0  0  0  0  0  0  0  0  0  0  0
   11.0787    1.5635   25.3917 H   0  0  0  0  0  0  0  0  0  0  0  0
   11.4030    0.7062   23.4255 C   0  0  0  0  0  0  0  0  0  0  0  0
   12.2783    1.3086   23.1802 H   0  0  0  0  0  0  0  0  0  0  0  0
   10.9046   -0.2358   22.5303 C   0  0  0  0  0  0  0  0  0  0  0  0
   11.3550   -0.3782   21.5510 H   0  0  0  0  0  0  0  0  0  0  0  0
    6.6565    0.0061   19.9052 C   0  0  0  0  0  0  0  0  0  0  0  0
    7.1750    0.0589   18.6017 C   0  0  0  0  0  0  0  0  0  0  0  0
    8.1193   -0.4291   18.3871 H   0  0  0  0  0  0  0  0  0  0  0  0
    6.5692    0.6723   17.5856 N   0  0  0  0  0  0  0  0  0  0  0  0
    5.4059    1.2877   17.8477 C   0  0  0  0  0  0  0  0  0  0  0  0
    4.9239    1.7757   17.0032 H   0  0  0  0  0  0  0  0  0  0  0  0
    4.8066    1.3074   19.1135 C   0  0  0  0  0  0  0  0  0  0  0  0
    3.8735    1.8431   19.2579 H   0  0  0  0  0  0  0  0  0  0  0  0
    5.4396    0.6503   20.1670 C   0  0  0  0  0  0  0  0  0  0  0  0
    4.9956    0.6380   21.1677 H   0  0  0  0  0  0  0  0  0  0  0  0
  1  2  1  0
  2  3  2  3
  3  4  1  0
  4  5  1  0
  4  6  1  0
  4  7  1  0
  7  8  2  0
  8  9  1  0
  9 10  1  0
  9 11  2  0
 11 12  1  0
 11 13  1  0
 13 14  1  0
 13 15  2  0
 15 16  1  0
  2 17  1  0
 17 18  2  0
 18 19  1  0
 18 20  1  0
 20 21  2  0
 21 22  1  0
 21 23  1  0
 23 24  1  0
 23 25  2  0
 25 26  1  0
 15  7  1  0
 25 17  1  0
M  END
>  <plip>  (1) 
-0.03571428571428571

>  <filename>  (1) 
[H][C](=[N][C]([H])([H])[c]1[n][c]([H])[c]([H])[c]([H])[c]1[H])[c]1[c]([H])[n][c]([H])[c]([H])[c]1[H]

$$$$
