
     RDKit          3D

 23 24  0  0  0  0  0  0  0  0999 V2000
    8.7686   -2.0221   21.3794 H   0  0  0  0  0  0  0  0  0  0  0  0
    8.2852   -1.6168   20.5842 N   0  0  0  0  0  0  0  0  0  0  0  0
    7.4211   -0.7629   20.9208 C   0  0  0  0  0  0  0  0  0  0  0  0
    7.1394   -0.2426   22.6630 S   0  0  0  0  0  0  0  0  0  0  0  0
    8.2570    1.0435   22.8489 N   0  0  0  0  0  0  0  0  0  0  0  0
    7.9879    2.3778   22.5075 C   0  0  0  0  0  0  0  0  0  0  0  0
    6.9161    2.8144   22.1833 O   0  0  0  0  0  0  0  0  0  0  0  0
    9.2955    3.0897   22.6349 C   0  0  0  0  0  0  0  0  0  0  0  0
    9.3420    4.1558   22.4501 H   0  0  0  0  0  0  0  0  0  0  0  0
   10.2383    2.2160   22.9803 C   0  0  0  0  0  0  0  0  0  0  0  0
   11.2970    2.3451   23.1665 H   0  0  0  0  0  0  0  0  0  0  0  0
    9.6268    0.8577   23.0969 C   0  0  0  0  0  0  0  0  0  0  0  0
   10.1583   -0.1966   23.3248 O   0  0  0  0  0  0  0  0  0  0  0  0
    6.6373   -0.0321   19.8979 C   0  0  0  0  0  0  0  0  0  0  0  0
    7.1711    0.0329   18.6019 C   0  0  0  0  0  0  0  0  0  0  0  0
    8.1245   -0.4373   18.3812 H   0  0  0  0  0  0  0  0  0  0  0  0
    6.5745    0.6702   17.5936 N   0  0  0  0  0  0  0  0  0  0  0  0
    5.4119    1.2832   17.8513 C   0  0  0  0  0  0  0  0  0  0  0  0
    4.9393    1.7778   17.0054 H   0  0  0  0  0  0  0  0  0  0  0  0
    4.8145    1.3014   19.1141 C   0  0  0  0  0  0  0  0  0  0  0  0
    3.8878    1.8377   19.2592 H   0  0  0  0  0  0  0  0  0  0  0  0
    5.4358    0.6348   20.1678 C   0  0  0  0  0  0  0  0  0  0  0  0
    4.9982    0.6479   21.1680 H   0  0  0  0  0  0  0  0  0  0  0  0
  1  2  1  0
  2  3  2  3
  3  4  1  0
  4  5  1  0
  5  6  1  0
  6  7  2  0
  6  8  1  0
  8  9  1  0
  8 10  2  0
 10 11  1  0
 10 12  1  0
 12 13  2  0
  3 14  1  0
 14 15  2  0
 15 16  1  0
 15 17  1  0
 17 18  2  0
 18 19  1  0
 18 20  1  0
 20 21  1  0
 20 22  2  0
 22 23  1  0
 12  5  1  0
 22 14  1  0
M  END
>  <plip>  (1) 
-0.034482758620689655

>  <filename>  (1) 
[H][N]=[C]([S][N]1[C](=[O])[C]([H])=[C]([H])[C]1=[O])[c]1[c]([H])[n][c]([H])[c]([H])[c]1[H]

$$$$
