
     RDKit          3D

 33 35  0  0  0  0  0  0  0  0999 V2000
    8.1626    2.1427   21.2865 O   0  0  0  0  0  0  0  0  0  0  0  0
    7.4453    2.1531   22.2606 C   0  0  0  0  0  0  0  0  0  0  0  0
    6.9865    0.9759   22.8478 N   0  0  0  0  0  0  0  0  0  0  0  0
    7.4428   -0.2303   22.3472 C   0  0  0  0  0  0  0  0  0  0  0  0
    8.0393   -1.1418   23.0528 N   0  0  0  0  0  0  0  0  0  0  0  0
    8.2928   -2.2029   22.2032 N   0  0  0  0  0  0  0  0  0  0  0  0
    7.8268   -1.8730   21.0403 C   0  0  0  0  0  0  0  0  0  0  0  0
    7.2971   -0.6028   21.0285 N   0  0  0  0  0  0  0  0  0  0  0  0
    6.6415    0.0514   19.9241 C   0  0  0  0  0  0  0  0  0  0  0  0
    5.4094    0.6715   20.1464 C   0  0  0  0  0  0  0  0  0  0  0  0
    4.7824    1.3102   19.0761 C   0  0  0  0  0  0  0  0  0  0  0  0
    5.4027    1.2968   17.8239 C   0  0  0  0  0  0  0  0  0  0  0  0
    6.5703    0.6805   17.5853 N   0  0  0  0  0  0  0  0  0  0  0  0
    7.1808    0.0840   18.6177 C   0  0  0  0  0  0  0  0  0  0  0  0
    8.1439   -0.3800   18.3944 H   0  0  0  0  0  0  0  0  0  0  0  0
    4.9498    1.8071   16.9785 H   0  0  0  0  0  0  0  0  0  0  0  0
    3.8455    1.8389   19.2130 H   0  0  0  0  0  0  0  0  0  0  0  0
    4.9755    0.6638   21.1457 H   0  0  0  0  0  0  0  0  0  0  0  0
    7.7164   -2.5238   20.2018 H   0  0  0  0  0  0  0  0  0  0  0  0
    6.8741    0.9627   23.8499 H   0  0  0  0  0  0  0  0  0  0  0  0
    6.8970    3.4383   22.9168 C   0  0  0  0  0  0  0  0  0  0  0  0
    6.1004    4.1631   22.1257 N   0  0  0  0  0  0  0  0  0  0  0  0
    5.5313    5.2685   22.6021 C   0  0  0  0  0  0  0  0  0  0  0  0
    5.7217    5.7033   23.9141 C   0  0  0  0  0  0  0  0  0  0  0  0
    6.5484    4.9687   24.7557 C   0  0  0  0  0  0  0  0  0  0  0  0
    7.1710    3.8261   24.2469 C   0  0  0  0  0  0  0  0  0  0  0  0
    8.0745    3.0015   25.1231 C   0  0  0  0  0  0  0  0  0  0  0  0
    8.6732    3.7201   26.0807 F   0  0  0  0  0  0  0  0  0  0  0  0
    9.0381    2.3954   24.4027 F   0  0  0  0  0  0  0  0  0  0  0  0
    7.3808    2.0138   25.7397 F   0  0  0  0  0  0  0  0  0  0  0  0
    6.7288    5.2773   25.7834 H   0  0  0  0  0  0  0  0  0  0  0  0
    5.2482    6.6124   24.2517 H   0  0  0  0  0  0  0  0  0  0  0  0
    4.9119    5.8146   21.8991 H   0  0  0  0  0  0  0  0  0  0  0  0
  1  2  2  0
  2  3  1  0
  3  4  1  0
  4  5  2  0
  5  6  1  0
  6  7  2  0
  7  8  1  0
  8  9  1  0
  9 10  2  0
 10 11  1  0
 11 12  2  0
 12 13  1  0
 13 14  2  0
 14 15  1  0
 12 16  1  0
 11 17  1  0
 10 18  1  0
  7 19  1  0
  3 20  1  0
  2 21  1  0
 21 22  2  0
 22 23  1  0
 23 24  2  0
 24 25  1  0
 25 26  2  0
 26 27  1  0
 27 28  1  0
 27 29  1  0
 27 30  1  0
 25 31  1  0
 24 32  1  0
 23 33  1  0
  8  4  1  0
 14  9  1  0
 26 21  1  0
M  END
>  <plip>  (1) 
-0.06896551724137931

>  <filename>  (1) 
[H][c]1[n][c]([H])[c](-[n]2[c]([H])[n][n][c]2[N]([H])[C](=[O])[c]2[n][c]([H])[c]([H])[c]([H])[c]2[C]([F])([F])[F])[c]([H])[c]1[H]

$$$$
