
     RDKit          3D

 32 33  0  0  0  0  0  0  0  0999 V2000
    7.0276   -2.6278   21.0743 H   0  0  0  0  0  0  0  0  0  0  0  0
    6.4441   -2.4371   21.8262 O   0  0  0  0  0  0  0  0  0  0  0  0
    6.9201   -1.1396   22.0175 C   0  0  1  0  0  0  0  0  0  0  0  0
    6.1270   -0.5128   22.4432 H   0  0  0  0  0  0  0  0  0  0  0  0
    8.0674   -1.1783   22.8270 O   0  0  0  0  0  0  0  0  0  0  0  0
    7.8362   -1.3009   24.2383 C   0  0  0  0  0  0  0  0  0  0  0  0
    8.1153   -0.3437   24.7020 H   0  0  0  0  0  0  0  0  0  0  0  0
    6.7762   -1.5027   24.4698 H   0  0  0  0  0  0  0  0  0  0  0  0
    8.7031   -2.4213   24.8458 C   0  0  1  0  0  0  0  0  0  0  0  0
    9.7586   -2.1321   24.7017 H   0  0  0  0  0  0  0  0  0  0  0  0
    8.4255   -2.5334   26.2368 O   0  0  0  0  0  0  0  0  0  0  0  0
    8.8104   -3.8292   26.6899 C   0  0  0  0  0  0  0  0  0  0  0  0
    9.7980   -3.8013   27.1751 H   0  0  0  0  0  0  0  0  0  0  0  0
    8.0934   -4.1353   27.4571 H   0  0  0  0  0  0  0  0  0  0  0  0
    8.8259   -4.7561   25.4534 C   0  0  0  0  0  0  0  0  0  0  0  0
    8.1371   -5.6001   25.5585 H   0  0  0  0  0  0  0  0  0  0  0  0
    9.8263   -5.1790   25.3100 H   0  0  0  0  0  0  0  0  0  0  0  0
    8.4318   -3.8253   24.2913 C   0  0  0  0  0  0  0  0  0  0  0  0
    7.3651   -3.9199   24.0486 H   0  0  0  0  0  0  0  0  0  0  0  0
    9.0085   -4.0035   23.3806 H   0  0  0  0  0  0  0  0  0  0  0  0
    7.4672   -0.7027   20.7759 N   0  0  0  0  0  0  0  0  0  0  0  0
    8.4644   -0.5896   20.9194 H   0  0  0  0  0  0  0  0  0  0  0  0
    6.8202    0.0278   19.7627 C   0  0  0  0  0  0  0  0  0  0  0  0
    7.3652    0.1107   18.4489 C   0  0  0  0  0  0  0  0  0  0  0  0
    8.3412   -0.3305   18.2509 H   0  0  0  0  0  0  0  0  0  0  0  0
    6.7546    0.6841   17.4028 N   0  0  0  0  0  0  0  0  0  0  0  0
    5.5524    1.2461   17.6126 C   0  0  0  0  0  0  0  0  0  0  0  0
    5.0648    1.7053   16.7548 H   0  0  0  0  0  0  0  0  0  0  0  0
    4.9341    1.2533   18.8657 C   0  0  0  0  0  0  0  0  0  0  0  0
    3.9659    1.7254   18.9825 H   0  0  0  0  0  0  0  0  0  0  0  0
    5.5734    0.6457   19.9549 C   0  0  0  0  0  0  0  0  0  0  0  0
    5.1177    0.6550   20.9431 H   0  0  0  0  0  0  0  0  0  0  0  0
  1  2  1  0
  2  3  1  0
  3  4  1  1
  3  5  1  0
  5  6  1  0
  6  7  1  0
  6  8  1  0
  6  9  1  0
  9 10  1  1
  9 11  1  0
 11 12  1  0
 12 13  1  0
 12 14  1  0
 12 15  1  0
 15 16  1  0
 15 17  1  0
 15 18  1  0
 18 19  1  0
 18 20  1  0
  3 21  1  0
 21 22  1  0
 21 23  1  0
 23 24  2  0
 24 25  1  0
 24 26  1  0
 26 27  2  0
 27 28  1  0
 27 29  1  0
 29 30  1  0
 29 31  2  0
 31 32  1  0
 18  9  1  0
 31 23  1  0
M  END
>  <plip>  (1) 
-0.03571428571428571

>  <filename>  (1) 
[H][O][C@@]([H])([O][C]([H])([H])[C@@]1([H])[O][C]([H])([H])[C]([H])([H])[C]1([H])[H])[N]([H])[c]1[c]([H])[n][c]([H])[c]([H])[c]1[H]

$$$$
