
     RDKit          3D

 40 42  0  0  0  0  0  0  0  0999 V2000
    6.1291    4.5584   23.7884 C   0  0  0  0  0  0  0  0  0  0  0  0
    6.5239    4.0745   22.4027 C   0  0  0  0  0  0  0  0  0  0  0  0
    6.5318    5.1541   21.5626 F   0  0  0  0  0  0  0  0  0  0  0  0
    5.5319    3.2551   21.9508 F   0  0  0  0  0  0  0  0  0  0  0  0
    7.9718    3.3344   22.3360 C   0  0  0  0  0  0  0  0  0  0  0  0
    8.9843    3.8479   22.8120 N   0  0  0  0  0  0  0  0  0  0  0  0
   10.5359    2.2106   21.4060 C   0  0  0  0  0  0  0  0  0  0  0  0
   10.5855    2.2805   21.1137 C   0  0  0  0  0  0  0  0  0  0  0  0
    9.0023    1.4255   21.4219 C   0  0  0  0  0  0  0  0  0  0  0  0
    8.9377    0.0249   21.2305 N   0  0  0  0  0  0  0  0  0  0  0  0
    9.6718   -0.8687   22.1687 C   0  0  0  0  0  0  0  0  0  0  0  0
    8.8972   -1.1940   23.4637 C   0  0  0  0  0  0  0  0  0  0  0  0
    7.5221   -1.8138   23.1723 C   0  0  0  0  0  0  0  0  0  0  0  0
    6.7425   -0.9341   22.1914 C   0  0  0  0  0  0  0  0  0  0  0  0
    7.5837   -0.6081   20.9262 C   0  0  1  0  0  0  0  0  0  0  0  0
    6.7525    0.0613   19.8389 C   0  0  0  0  0  0  0  0  0  0  0  0
    5.5962    0.8204   20.0730 C   0  0  0  0  0  0  0  0  0  0  0  0
    4.9210    1.3788   18.9873 C   0  0  0  0  0  0  0  0  0  0  0  0
    5.4204    1.1654   17.7034 C   0  0  0  0  0  0  0  0  0  0  0  0
    6.5216    0.4425   17.4566 N   0  0  0  0  0  0  0  0  0  0  0  0
    7.1614   -0.0843   18.5073 C   0  0  0  0  0  0  0  0  0  0  0  0
    8.0312   -0.6940   18.2570 H   0  0  0  0  0  0  0  0  0  0  0  0
    4.9130    1.5765   16.8352 H   0  0  0  0  0  0  0  0  0  0  0  0
    4.0461    2.0027   19.1297 H   0  0  0  0  0  0  0  0  0  0  0  0
    5.2437    1.0039   21.0882 H   0  0  0  0  0  0  0  0  0  0  0  0
    7.8289   -1.6118   20.5195 H   0  0  0  0  0  0  0  0  0  0  0  0
    5.8404   -1.4505   21.8459 H   0  0  0  0  0  0  0  0  0  0  0  0
    6.3905   -0.0202   22.6856 H   0  0  0  0  0  0  0  0  0  0  0  0
    7.6405   -2.8260   22.7526 H   0  0  0  0  0  0  0  0  0  0  0  0
    6.9505   -1.9357   24.1013 H   0  0  0  0  0  0  0  0  0  0  0  0
    9.4862   -1.8821   24.0855 H   0  0  0  0  0  0  0  0  0  0  0  0
    8.7600   -0.2842   24.0617 H   0  0  0  0  0  0  0  0  0  0  0  0
   10.6674   -0.5125   22.4469 H   0  0  0  0  0  0  0  0  0  0  0  0
    9.8496   -1.8201   21.6378 H   0  0  0  0  0  0  0  0  0  0  0  0
    7.9042    2.0088   21.7272 N   0  0  0  0  0  0  0  0  0  0  0  0
   11.1786    1.2995   20.8649 H   0  0  0  0  0  0  0  0  0  0  0  0
   11.4723    3.0327   21.3323 H   0  0  0  0  0  0  0  0  0  0  0  0
    6.0383    3.7133   24.4731 H   0  0  0  0  0  0  0  0  0  0  0  0
    6.8870    5.2464   24.1689 H   0  0  0  0  0  0  0  0  0  0  0  0
    5.1622    5.0643   23.7063 H   0  0  0  0  0  0  0  0  0  0  0  0
  1  2  1  0
  2  3  1  0
  2  4  1  0
  2  5  1  0
  5  6  2  0
  6  7  1  0
  7  8  2  0
  8  9  1  0
  9 10  1  0
 10 11  1  0
 11 12  1  0
 12 13  1  0
 13 14  1  0
 14 15  1  0
 15 16  1  0
 16 17  2  0
 17 18  1  0
 18 19  2  0
 19 20  1  0
 20 21  2  0
 21 22  1  0
 19 23  1  0
 18 24  1  0
 17 25  1  0
 15 26  1  6
 14 27  1  0
 14 28  1  0
 13 29  1  0
 13 30  1  0
 12 31  1  0
 12 32  1  0
 11 33  1  0
 11 34  1  0
  9 35  2  0
  8 36  1  0
  7 37  1  0
  1 38  1  0
  1 39  1  0
  1 40  1  0
 35  5  1  0
 15 10  1  0
 21 16  1  0
M  END
>  <plip>  (1) 
-0.10714285714285714

>  <filename>  (1) 
[H][c]1[n][c]([C]([F])([F])[C]([H])([H])[H])[n][c]([N]2[C]([H])([H])[C]([H])([H])[C]([H])([H])[C]([H])([H])[C@@]2([H])[c]2[c]([H])[n][c]([H])[c]([H])[c]2[H])[c]1[H]

$$$$
