
     RDKit          3D

 19 20  0  0  0  0  0  0  0  0999 V2000
    4.9805    1.7620   16.9733 H   0  0  0  0  0  0  0  0  0  0  0  0
    5.4321    1.2835   17.8385 C   0  0  0  0  0  0  0  0  0  0  0  0
    6.5981    0.6555   17.6268 N   0  0  0  0  0  0  0  0  0  0  0  0
    7.1732    0.0459   18.6670 C   0  0  0  0  0  0  0  0  0  0  0  0
    8.1344   -0.4306   18.4790 H   0  0  0  0  0  0  0  0  0  0  0  0
    6.6093    0.0200   19.9519 C   0  0  0  0  0  0  0  0  0  0  0  0
    7.3109   -0.7382   21.0659 C   0  0  0  0  0  0  0  0  0  0  0  0
    8.6477   -0.8095   20.8266 F   0  0  0  0  0  0  0  0  0  0  0  0
    7.1511   -0.0380   22.2310 F   0  0  0  0  0  0  0  0  0  0  0  0
    6.8130   -2.1657   21.2704 C   0  0  0  0  0  0  0  0  0  0  0  0
    7.4684   -3.2666   20.9882 N   0  0  0  0  0  0  0  0  0  0  0  0
    6.5981   -4.2783   21.1189 N   0  0  0  0  0  0  0  0  0  0  0  0
    5.4434   -3.8533   21.4878 N   0  0  0  0  0  0  0  0  0  0  0  0
    5.5513   -2.5220   21.5937 N   0  0  0  0  0  0  0  0  0  0  0  0
    4.8295   -1.9905   22.0666 H   0  0  0  0  0  0  0  0  0  0  0  0
    5.3971    0.6954   20.1671 C   0  0  0  0  0  0  0  0  0  0  0  0
    4.9598    0.7923   21.1637 H   0  0  0  0  0  0  0  0  0  0  0  0
    4.7923    1.3247   19.0814 C   0  0  0  0  0  0  0  0  0  0  0  0
    3.8571    1.8640   19.1860 H   0  0  0  0  0  0  0  0  0  0  0  0
  1  2  1  0
  2  3  2  0
  3  4  1  0
  4  5  1  0
  4  6  2  0
  6  7  1  0
  7  8  1  0
  7  9  1  0
  7 10  1  0
 10 11  2  0
 11 12  1  0
 12 13  2  0
 13 14  1  0
 14 15  1  0
  6 16  1  0
 16 17  1  0
 16 18  2  0
 18 19  1  0
 18  2  1  0
 14 10  1  0
M  END
>  <plip>  (1) 
-0.1

>  <filename>  (1) 
[H][c]1[n][c]([H])[c]([C]([F])([F])[c]2[n][n][n][n]2[H])[c]([H])[c]1[H]

$$$$
