
     RDKit          3D

 49 52  0  0  0  0  0  0  0  0999 V2000
    8.2925   -3.0410   22.3799 O   0  0  0  0  0  0  0  0  0  0  0  0
    7.1122   -2.7456   22.4604 C   0  0  0  0  0  0  0  0  0  0  0  0
    6.5731   -1.7477   21.7015 N   0  0  0  0  0  0  0  0  0  0  0  0
    7.4219   -0.7778   21.0104 C   0  0  0  0  0  0  0  0  0  0  0  0
    6.6155   -0.0822   19.9323 C   0  0  0  0  0  0  0  0  0  0  0  0
    5.4072    0.5998   20.1606 C   0  0  0  0  0  0  0  0  0  0  0  0
    4.8054    1.2943   19.1065 C   0  0  0  0  0  0  0  0  0  0  0  0
    5.4066    1.2616   17.8459 C   0  0  0  0  0  0  0  0  0  0  0  0
    6.5293    0.5767   17.5892 N   0  0  0  0  0  0  0  0  0  0  0  0
    7.1002   -0.0744   18.6115 C   0  0  0  0  0  0  0  0  0  0  0  0
    8.0074   -0.6279   18.3536 H   0  0  0  0  0  0  0  0  0  0  0  0
    4.9702    1.7996   17.0070 H   0  0  0  0  0  0  0  0  0  0  0  0
    3.8817    1.8456   19.2414 H   0  0  0  0  0  0  0  0  0  0  0  0
    4.9400    0.6065   21.1476 H   0  0  0  0  0  0  0  0  0  0  0  0
    8.1598    0.1608   22.0324 C   0  0  0  0  0  0  0  0  0  0  0  0
    7.2668    0.9686   23.0139 C   0  0  0  0  0  0  0  0  0  0  0  0
    7.2961    2.4115   22.5003 C   0  0  0  0  0  0  0  0  0  0  0  0
    8.7351    2.5849   22.0084 C   0  0  0  0  0  0  0  0  0  0  0  0
    9.0719    1.2281   21.3556 C   0  0  0  0  0  0  0  0  0  0  0  0
    8.8644    1.2866   20.2844 H   0  0  0  0  0  0  0  0  0  0  0  0
   10.1321    0.9727   21.4522 H   0  0  0  0  0  0  0  0  0  0  0  0
    8.8359    3.4222   21.3115 H   0  0  0  0  0  0  0  0  0  0  0  0
    9.4082    2.7890   22.8519 H   0  0  0  0  0  0  0  0  0  0  0  0
    6.6057    2.5091   21.6527 H   0  0  0  0  0  0  0  0  0  0  0  0
    7.0004    3.1467   23.2579 H   0  0  0  0  0  0  0  0  0  0  0  0
    7.7163    0.9267   24.0174 H   0  0  0  0  0  0  0  0  0  0  0  0
    6.2513    0.5698   23.1332 H   0  0  0  0  0  0  0  0  0  0  0  0
    8.7780   -0.5320   22.6136 H   0  0  0  0  0  0  0  0  0  0  0  0
    8.2265   -1.3412   20.5176 H   0  0  0  0  0  0  0  0  0  0  0  0
    5.5899   -1.5415   21.7508 H   0  0  0  0  0  0  0  0  0  0  0  0
    6.2122   -3.5029   23.4753 C   0  0  0  0  0  0  0  0  0  0  0  0
    5.6703   -2.6991   24.6738 C   0  0  0  0  0  0  0  0  0  0  0  0
    4.1793   -2.9411   24.5491 C   0  0  0  0  0  0  0  0  0  0  0  0
    3.8962   -3.7091   23.5613 N   0  0  0  0  0  0  0  0  0  0  0  0
    5.0293   -4.0632   22.8678 O   0  0  0  0  0  0  0  0  0  0  0  0
    3.1705   -2.2287   25.3687 C   0  0  0  0  0  0  0  0  0  0  0  0
    3.5832   -1.3103   26.3620 C   0  0  0  0  0  0  0  0  0  0  0  0
    2.6883   -0.4506   26.9982 C   0  0  0  0  0  0  0  0  0  0  0  0
    1.3340   -0.4927   26.6556 C   0  0  0  0  0  0  0  0  0  0  0  0
    0.8810   -1.4246   25.7211 C   0  0  0  0  0  0  0  0  0  0  0  0
    1.7881   -2.2945   25.1127 C   0  0  0  0  0  0  0  0  0  0  0  0
    1.2877   -3.1986   24.2684 F   0  0  0  0  0  0  0  0  0  0  0  0
   -0.1584   -1.4949   25.4210 H   0  0  0  0  0  0  0  0  0  0  0  0
    0.6285    0.1957   27.1122 H   0  0  0  0  0  0  0  0  0  0  0  0
    3.0464    0.2609   27.7400 H   0  0  0  0  0  0  0  0  0  0  0  0
    4.6344   -1.2534   26.6350 H   0  0  0  0  0  0  0  0  0  0  0  0
    5.9010   -1.6245   24.6302 H   0  0  0  0  0  0  0  0  0  0  0  0
    6.0410   -3.0738   25.6346 H   0  0  0  0  0  0  0  0  0  0  0  0
    6.8380   -4.3416   23.7984 H   0  0  0  0  0  0  0  0  0  0  0  0
  1  2  2  0
  2  3  1  0
  3  4  1  0
  4  5  1  0
  5  6  2  0
  6  7  1  0
  7  8  2  0
  8  9  1  0
  9 10  2  0
 10 11  1  0
  8 12  1  0
  7 13  1  0
  6 14  1  0
  4 15  1  0
 15 16  1  0
 16 17  1  0
 17 18  1  0
 18 19  1  0
 19 20  1  0
 19 21  1  0
 18 22  1  0
 18 23  1  0
 17 24  1  0
 17 25  1  0
 16 26  1  0
 16 27  1  0
 15 28  1  0
  4 29  1  0
  3 30  1  0
  2 31  1  0
 31 32  1  0
 32 33  1  0
 33 34  2  0
 34 35  1  0
 33 36  1  0
 36 37  2  0
 37 38  1  0
 38 39  2  0
 39 40  1  0
 40 41  2  0
 41 42  1  0
 40 43  1  0
 39 44  1  0
 38 45  1  0
 37 46  1  0
 32 47  1  0
 32 48  1  0
 31 49  1  0
 10  5  1  0
 19 15  1  0
 35 31  1  0
 41 36  1  0
M  END
>  <plip>  (1) 
-0.13793103448275862

>  <filename>  (1) 
[H][c]1[n][c]([H])[c]([C]([H])([N]([H])[C](=[O])[C]2([H])[O][N]=[C]([c]3[c]([H])[c]([H])[c]([H])[c]([H])[c]3[F])[C]2([H])[H])[C]2([H])[C]([H])([H])[C]([H])([H])[C]([H])([H])[C]2([H])[H])[c]([H])[c]1[H]

$$$$
