
     RDKit          3D

 32 33  0  0  0  0  0  0  0  0999 V2000
    4.9735    1.8183   16.9380 H   0  0  0  0  0  0  0  0  0  0  0  0
    5.4373    1.3215   17.7892 C   0  0  0  0  0  0  0  0  0  0  0  0
    6.6089    0.7123   17.5648 N   0  0  0  0  0  0  0  0  0  0  0  0
    7.1996    0.1132   18.6128 C   0  0  0  0  0  0  0  0  0  0  0  0
    8.1431   -0.3743   18.3706 H   0  0  0  0  0  0  0  0  0  0  0  0
    6.6820    0.0800   19.9274 C   0  0  0  0  0  0  0  0  0  0  0  0
    7.3770   -0.5708   21.1563 C   0  0  0  0  0  0  0  0  0  0  0  0
    6.4656   -1.7872   21.6898 C   0  0  0  0  0  0  0  0  0  0  0  0
    5.7060   -2.3467   20.9180 O   0  0  0  0  0  0  0  0  0  0  0  0
    6.6297   -2.3543   23.0856 C   0  0  0  0  0  0  0  0  0  0  0  0
    7.7087   -2.1803   23.8595 N   0  0  0  0  0  0  0  0  0  0  0  0
    7.4777   -2.8663   24.9785 N   0  0  0  0  0  0  0  0  0  0  0  0
    8.4859   -2.8926   26.0217 C   0  0  0  0  0  0  0  0  0  0  0  0
    8.0074   -2.9198   27.0045 H   0  0  0  0  0  0  0  0  0  0  0  0
    9.0707   -1.9743   25.9371 H   0  0  0  0  0  0  0  0  0  0  0  0
    9.1485   -3.7617   25.9263 H   0  0  0  0  0  0  0  0  0  0  0  0
    6.2852   -3.5016   24.9529 C   0  0  0  0  0  0  0  0  0  0  0  0
    5.9577   -4.1026   25.7927 H   0  0  0  0  0  0  0  0  0  0  0  0
    5.7027   -3.2043   23.7471 C   0  0  0  0  0  0  0  0  0  0  0  0
    4.7449   -3.5448   23.3813 H   0  0  0  0  0  0  0  0  0  0  0  0
    7.6950    0.5345   22.2134 C   0  0  0  0  0  0  0  0  0  0  0  0
    8.2362    1.3520   21.7151 H   0  0  0  0  0  0  0  0  0  0  0  0
    8.3486    0.1387   22.9988 H   0  0  0  0  0  0  0  0  0  0  0  0
    6.8123    0.9710   22.6969 H   0  0  0  0  0  0  0  0  0  0  0  0
    8.7338   -1.2098   20.7890 C   0  0  0  0  0  0  0  0  0  0  0  0
    9.4313   -0.4488   20.4148 H   0  0  0  0  0  0  0  0  0  0  0  0
    9.1585   -1.7014   21.6748 H   0  0  0  0  0  0  0  0  0  0  0  0
    8.6268   -1.9615   20.0148 H   0  0  0  0  0  0  0  0  0  0  0  0
    5.4353    0.6980   20.1140 C   0  0  0  0  0  0  0  0  0  0  0  0
    4.9630    0.6710   21.0986 H   0  0  0  0  0  0  0  0  0  0  0  0
    4.8131    1.3305   19.0385 C   0  0  0  0  0  0  0  0  0  0  0  0
    3.8647    1.8408   19.1641 H   0  0  0  0  0  0  0  0  0  0  0  0
  1  2  1  0
  2  3  2  0
  3  4  1  0
  4  5  1  0
  4  6  2  0
  6  7  1  0
  7  8  1  0
  8  9  2  0
  8 10  1  0
 10 11  2  0
 11 12  1  0
 12 13  1  0
 13 14  1  0
 13 15  1  0
 13 16  1  0
 12 17  1  0
 17 18  1  0
 17 19  2  0
 19 20  1  0
  7 21  1  0
 21 22  1  0
 21 23  1  0
 21 24  1  0
  7 25  1  0
 25 26  1  0
 25 27  1  0
 25 28  1  0
  6 29  1  0
 29 30  1  0
 29 31  2  0
 31 32  1  0
 31  2  1  0
 19 10  1  0
M  END
>  <plip>  (1) 
-0.07142857142857142

>  <filename>  (1) 
[H][c]1[n][c]([H])[c]([C]([C](=[O])[c]2[n][n]([C]([H])([H])[H])[c]([H])[c]2[H])([C]([H])([H])[H])[C]([H])([H])[H])[c]([H])[c]1[H]

$$$$
