
     RDKit          3D

 39 40  0  0  0  0  0  0  0  0999 V2000
    9.5592   -0.2706   21.0257 C   0  0  0  0  0  0  0  0  0  0  0  0
    8.4227   -1.2920   21.0540 C   0  0  0  0  0  0  0  0  0  0  0  0
    7.1584   -0.6116   21.1278 O   0  0  0  0  0  0  0  0  0  0  0  0
    6.6276   -0.0226   20.0080 C   0  0  0  0  0  0  0  0  0  0  0  0
    5.4127    0.6631   20.1727 C   0  0  0  0  0  0  0  0  0  0  0  0
    4.8496    1.3003   19.0640 C   0  0  0  0  0  0  0  0  0  0  0  0
    5.5016    1.2300   17.8259 C   0  0  0  0  0  0  0  0  0  0  0  0
    6.6424    0.5552   17.6443 N   0  0  0  0  0  0  0  0  0  0  0  0
    7.1840   -0.0525   18.7086 C   0  0  0  0  0  0  0  0  0  0  0  0
    8.1154   -0.5807   18.5188 H   0  0  0  0  0  0  0  0  0  0  0  0
    5.0927    1.7277   16.9486 H   0  0  0  0  0  0  0  0  0  0  0  0
    3.9240    1.8628   19.1442 H   0  0  0  0  0  0  0  0  0  0  0  0
    4.9477    0.6843   21.1599 H   0  0  0  0  0  0  0  0  0  0  0  0
    8.5838   -2.3687   22.1805 C   0  0  0  0  0  0  0  0  0  0  0  0
    9.6471   -2.4299   22.7888 O   0  0  0  0  0  0  0  0  0  0  0  0
    7.6164   -3.3449   22.3708 N   0  0  0  0  0  0  0  0  0  0  0  0
    6.2045   -3.1569   22.0279 C   0  0  0  0  0  0  0  0  0  0  0  0
    5.9069   -3.3950   20.5459 C   0  0  0  0  0  0  0  0  0  0  0  0
    5.9127   -5.1172   19.9930 S   0  0  0  0  0  0  0  0  0  0  0  0
    7.4438   -5.7565   20.7237 C   0  0  0  0  0  0  0  0  0  0  0  0
    7.4513   -5.8573   22.2578 C   0  0  0  0  0  0  0  0  0  0  0  0
    8.0515   -4.6288   22.9701 C   0  0  0  0  0  0  0  0  0  0  0  0
    7.8244   -4.6321   24.4788 C   0  0  0  0  0  0  0  0  0  0  0  0
    8.2809   -5.5240   24.9240 H   0  0  0  0  0  0  0  0  0  0  0  0
    6.7609   -4.6217   24.7492 H   0  0  0  0  0  0  0  0  0  0  0  0
    8.3094   -3.7542   24.9155 H   0  0  0  0  0  0  0  0  0  0  0  0
    9.1387   -4.6792   22.8157 H   0  0  0  0  0  0  0  0  0  0  0  0
    6.4324   -6.0612   22.6123 H   0  0  0  0  0  0  0  0  0  0  0  0
    8.0610   -6.7214   22.5524 H   0  0  0  0  0  0  0  0  0  0  0  0
    8.2876   -5.1609   20.3634 H   0  0  0  0  0  0  0  0  0  0  0  0
    7.5200   -6.7379   20.2603 H   0  0  0  0  0  0  0  0  0  0  0  0
    4.9057   -3.0586   20.2963 H   0  0  0  0  0  0  0  0  0  0  0  0
    6.5875   -2.8019   19.9321 H   0  0  0  0  0  0  0  0  0  0  0  0
    5.6030   -3.8362   22.6466 H   0  0  0  0  0  0  0  0  0  0  0  0
    5.9129   -2.1346   22.2852 H   0  0  0  0  0  0  0  0  0  0  0  0
    8.4437   -1.8727   20.1233 H   0  0  0  0  0  0  0  0  0  0  0  0
   10.5187   -0.7826   20.9154 H   0  0  0  0  0  0  0  0  0  0  0  0
    9.5734    0.3050   21.9548 H   0  0  0  0  0  0  0  0  0  0  0  0
    9.4258    0.4251   20.1906 H   0  0  0  0  0  0  0  0  0  0  0  0
  1  2  1  0
  2  3  1  0
  3  4  1  0
  4  5  2  0
  5  6  1  0
  6  7  2  0
  7  8  1  0
  8  9  2  0
  9 10  1  0
  7 11  1  0
  6 12  1  0
  5 13  1  0
  2 14  1  0
 14 15  2  0
 14 16  1  0
 16 17  1  0
 17 18  1  0
 18 19  1  0
 19 20  1  0
 20 21  1  0
 21 22  1  0
 22 23  1  0
 23 24  1  0
 23 25  1  0
 23 26  1  0
 22 27  1  0
 21 28  1  0
 21 29  1  0
 20 30  1  0
 20 31  1  0
 18 32  1  0
 18 33  1  0
 17 34  1  0
 17 35  1  0
  2 36  1  0
  1 37  1  0
  1 38  1  0
  1 39  1  0
  9  4  1  0
 22 16  1  0
M  END
>  <plip>  (1) 
-0.06896551724137931

>  <filename>  (1) 
[H][c]1[n][c]([H])[c]([O][C]([H])([C](=[O])[N]2[C]([H])([H])[C]([H])([H])[S][C]([H])([H])[C]([H])([H])[C]2([H])[C]([H])([H])[H])[C]([H])([H])[H])[c]([H])[c]1[H]

$$$$
