
     RDKit          3D

 40 43  0  0  0  0  0  0  0  0999 V2000
    9.0553   -3.1439   22.3234 H   0  0  0  0  0  0  0  0  0  0  0  0
    8.4765   -2.2552   22.1185 C   0  0  0  0  0  0  0  0  0  0  0  0
    7.9801   -1.4070   23.0328 C   0  0  0  0  0  0  0  0  0  0  0  0
    8.0747   -1.5128   24.4903 C   0  0  0  0  0  0  0  0  0  0  0  0
    9.0646   -2.3289   25.0649 C   0  0  0  0  0  0  0  0  0  0  0  0
    9.7449   -2.8846   24.4276 H   0  0  0  0  0  0  0  0  0  0  0  0
    9.1817   -2.3923   26.4467 C   0  0  0  0  0  0  0  0  0  0  0  0
    9.9406   -2.9996   26.9254 H   0  0  0  0  0  0  0  0  0  0  0  0
    8.3215   -1.6437   27.2396 C   0  0  0  0  0  0  0  0  0  0  0  0
    8.5598   -1.5965   28.2784 H   0  0  0  0  0  0  0  0  0  0  0  0
    7.2461   -0.9180   26.7033 C   0  0  0  0  0  0  0  0  0  0  0  0
    6.2138   -0.2888   27.5805 C   0  0  0  0  0  0  0  0  0  0  0  0
    5.7829    1.0315   27.3622 C   0  0  0  0  0  0  0  0  0  0  0  0
    6.1566    1.5551   26.4855 H   0  0  0  0  0  0  0  0  0  0  0  0
    4.9204    1.6701   28.2610 C   0  0  0  0  0  0  0  0  0  0  0  0
    4.6149    2.6997   28.0806 H   0  0  0  0  0  0  0  0  0  0  0  0
    4.4561    0.9826   29.3887 C   0  0  0  0  0  0  0  0  0  0  0  0
    3.8385    1.4888   30.1275 H   0  0  0  0  0  0  0  0  0  0  0  0
    4.8086   -0.3617   29.5704 C   0  0  0  0  0  0  0  0  0  0  0  0
    4.4398   -0.9313   30.4158 H   0  0  0  0  0  0  0  0  0  0  0  0
    5.6677   -0.9906   28.6689 C   0  0  0  0  0  0  0  0  0  0  0  0
    5.8932   -2.0418   28.8025 H   0  0  0  0  0  0  0  0  0  0  0  0
    7.1665   -0.8224   25.3133 C   0  0  0  0  0  0  0  0  0  0  0  0
    6.4158   -0.1927   24.8506 H   0  0  0  0  0  0  0  0  0  0  0  0
    7.2578   -0.3097   22.3188 C   0  0  0  0  0  0  0  0  0  0  0  0
    6.6897    0.6638   22.7784 O   0  0  0  0  0  0  0  0  0  0  0  0
    7.3669   -0.6065   20.9557 N   0  0  0  0  0  0  0  0  0  0  0  0
    6.6866    0.0541   19.9098 C   0  0  0  0  0  0  0  0  0  0  0  0
    7.1903    0.0468   18.5856 C   0  0  0  0  0  0  0  0  0  0  0  0
    8.1240   -0.4720   18.3646 H   0  0  0  0  0  0  0  0  0  0  0  0
    6.5881    0.6493   17.5568 N   0  0  0  0  0  0  0  0  0  0  0  0
    5.4305    1.2847   17.8008 C   0  0  0  0  0  0  0  0  0  0  0  0
    4.9635    1.7676   16.9490 H   0  0  0  0  0  0  0  0  0  0  0  0
    4.8337    1.3303   19.0645 C   0  0  0  0  0  0  0  0  0  0  0  0
    3.8928    1.8534   19.2008 H   0  0  0  0  0  0  0  0  0  0  0  0
    5.4679    0.7166   20.1438 C   0  0  0  0  0  0  0  0  0  0  0  0
    5.0621    0.7505   21.1502 H   0  0  0  0  0  0  0  0  0  0  0  0
    8.0560   -1.8707   20.7491 C   0  0  0  0  0  0  0  0  0  0  0  0
    7.3552   -2.6141   20.3441 H   0  0  0  0  0  0  0  0  0  0  0  0
    8.9163   -1.7674   20.0753 H   0  0  0  0  0  0  0  0  0  0  0  0
  1  2  1  0
  2  3  2  0
  3  4  1  0
  4  5  2  0
  5  6  1  0
  5  7  1  0
  7  8  1  0
  7  9  2  0
  9 10  1  0
  9 11  1  0
 11 12  1  0
 12 13  2  0
 13 14  1  0
 13 15  1  0
 15 16  1  0
 15 17  2  0
 17 18  1  0
 17 19  1  0
 19 20  1  0
 19 21  2  0
 21 22  1  0
 11 23  2  0
 23 24  1  0
  3 25  1  0
 25 26  2  0
 25 27  1  0
 27 28  1  0
 28 29  2  0
 29 30  1  0
 29 31  1  0
 31 32  2  0
 32 33  1  0
 32 34  1  0
 34 35  1  0
 34 36  2  0
 36 37  1  0
 27 38  1  0
 38 39  1  0
 38 40  1  0
 38  2  1  0
 23  4  1  0
 36 28  1  0
 21 12  1  0
M  END
>  <plip>  (1) 
-0.034482758620689655

>  <filename>  (1) 
[H][C]1=[C]([c]2[c]([H])[c]([H])[c]([H])[c](-[c]3[c]([H])[c]([H])[c]([H])[c]([H])[c]3[H])[c]2[H])[C](=[O])[N]([c]2[c]([H])[n][c]([H])[c]([H])[c]2[H])[C]1([H])[H]

$$$$
