
     RDKit          3D

 44 46  0  0  0  0  0  0  0  0999 V2000
    7.4044   -1.1844   23.3618 C   0  0  0  0  0  0  0  0  0  0  0  0
    7.3644   -0.2110   22.2719 N   0  0  0  0  0  0  0  0  0  0  0  0
    7.4017   -0.7231   20.9893 C   0  0  0  0  0  0  0  0  0  0  0  0
    7.9655   -1.7702   20.7193 O   0  0  0  0  0  0  0  0  0  0  0  0
    6.6694    0.0594   19.9461 C   0  0  0  0  0  0  0  0  0  0  0  0
    5.4383    0.6917   20.1796 C   0  0  0  0  0  0  0  0  0  0  0  0
    4.8053    1.3190   19.1110 C   0  0  0  0  0  0  0  0  0  0  0  0
    5.4149    1.2842   17.8526 C   0  0  0  0  0  0  0  0  0  0  0  0
    6.5782    0.6596   17.6161 N   0  0  0  0  0  0  0  0  0  0  0  0
    7.1834    0.0585   18.6465 C   0  0  0  0  0  0  0  0  0  0  0  0
    8.1163   -0.4502   18.4102 H   0  0  0  0  0  0  0  0  0  0  0  0
    4.9562    1.7740   16.9949 H   0  0  0  0  0  0  0  0  0  0  0  0
    3.8656    1.8407   19.2382 H   0  0  0  0  0  0  0  0  0  0  0  0
    4.9639    0.6683   21.1619 H   0  0  0  0  0  0  0  0  0  0  0  0
    7.6503    1.2069   22.5463 C   0  0  1  0  0  0  0  0  0  0  0  0
    6.6279    1.8248   23.5150 C   0  0  0  0  0  0  0  0  0  0  0  0
    6.9195    3.3124   23.7651 C   0  0  0  0  0  0  0  0  0  0  0  0
    8.3607    3.5179   24.2952 C   0  0  2  0  0  0  0  0  0  0  0  0
    8.6571    4.9775   24.5750 C   0  0  0  0  0  0  0  0  0  0  0  0
    8.6269    5.8932   23.5204 C   0  0  0  0  0  0  0  0  0  0  0  0
    8.9075    7.2300   23.7458 C   0  0  0  0  0  0  0  0  0  0  0  0
    9.2052    7.7130   25.0225 C   0  0  0  0  0  0  0  0  0  0  0  0
    9.2406    6.8081   26.0939 C   0  0  0  0  0  0  0  0  0  0  0  0
    8.9708    5.4504   25.8613 C   0  0  0  0  0  0  0  0  0  0  0  0
    8.9967    4.7313   26.6791 H   0  0  0  0  0  0  0  0  0  0  0  0
    9.4791    7.1512   27.1018 H   0  0  0  0  0  0  0  0  0  0  0  0
    9.4052    8.7706   25.1683 H   0  0  0  0  0  0  0  0  0  0  0  0
    8.8988    7.8247   22.8647 H   0  0  0  0  0  0  0  0  0  0  0  0
    8.3900    5.5853   22.5026 H   0  0  0  0  0  0  0  0  0  0  0  0
    9.3925    2.8979   23.3201 C   0  0  0  0  0  0  0  0  0  0  0  0
    9.0945    1.4145   23.0612 C   0  0  0  0  0  0  0  0  0  0  0  0
    9.8098    0.9967   22.3441 H   0  0  0  0  0  0  0  0  0  0  0  0
    9.2227    0.8524   23.9994 H   0  0  0  0  0  0  0  0  0  0  0  0
    9.3866    3.4542   22.3682 H   0  0  0  0  0  0  0  0  0  0  0  0
   10.4027    3.0265   23.7277 H   0  0  0  0  0  0  0  0  0  0  0  0
    8.4402    2.9735   25.2506 H   0  0  0  0  0  0  0  0  0  0  0  0
    6.2043    3.7381   24.4792 H   0  0  0  0  0  0  0  0  0  0  0  0
    6.7806    3.8860   22.8331 H   0  0  0  0  0  0  0  0  0  0  0  0
    6.6614    1.2807   24.4695 H   0  0  0  0  0  0  0  0  0  0  0  0
    5.6165    1.6934   23.1160 H   0  0  0  0  0  0  0  0  0  0  0  0
    7.5593    1.7341   21.5850 H   0  0  0  0  0  0  0  0  0  0  0  0
    7.5294   -0.6582   24.3127 H   0  0  0  0  0  0  0  0  0  0  0  0
    6.4645   -1.7555   23.4066 H   0  0  0  0  0  0  0  0  0  0  0  0
    8.2232   -1.9033   23.2214 H   0  0  0  0  0  0  0  0  0  0  0  0
  1  2  1  0
  2  3  1  0
  3  4  2  0
  3  5  1  0
  5  6  2  0
  6  7  1  0
  7  8  2  0
  8  9  1  0
  9 10  2  0
 10 11  1  0
  8 12  1  0
  7 13  1  0
  6 14  1  0
  2 15  1  0
 15 16  1  0
 16 17  1  0
 17 18  1  0
 18 19  1  0
 19 20  2  0
 20 21  1  0
 21 22  2  0
 22 23  1  0
 23 24  2  0
 24 25  1  0
 23 26  1  0
 22 27  1  0
 21 28  1  0
 20 29  1  0
 18 30  1  0
 30 31  1  0
 31 32  1  0
 31 33  1  0
 30 34  1  0
 30 35  1  0
 18 36  1  1
 17 37  1  0
 17 38  1  0
 16 39  1  0
 16 40  1  0
 15 41  1  6
  1 42  1  0
  1 43  1  0
  1 44  1  0
 10  5  1  0
 31 15  1  0
 24 19  1  0
M  END
>  <plip>  (1) 
-0.10714285714285714

>  <filename>  (1) 
[H][c]1[n][c]([H])[c]([C](=[O])[N]([C]([H])([H])[H])[C@]2([H])[C]([H])([H])[C]([H])([H])[C@@]([H])([c]3[c]([H])[c]([H])[c]([H])[c]([H])[c]3[H])[C]([H])([H])[C]2([H])[H])[c]([H])[c]1[H]

$$$$
