
     RDKit          3D

 46 47  0  0  0  0  0  0  0  0999 V2000
    6.8834   -3.0665   23.9624 C   0  0  0  0  0  0  0  0  0  0  0  0
    7.3502   -1.9847   24.9425 C   0  0  0  0  0  0  0  0  0  0  0  0
    6.4608   -1.9809   26.1879 C   0  0  0  0  0  0  0  0  0  0  0  0
    7.1122   -1.5528   27.5117 C   0  0  0  0  0  0  0  0  0  0  0  0
    7.4301    0.2094   27.8124 S   0  0  0  0  0  0  0  0  0  0  0  0
    8.2002    0.6643   26.2415 C   0  0  0  0  0  0  0  0  0  0  0  0
    7.2060    0.6112   25.0688 C   0  0  0  0  0  0  0  0  0  0  0  0
    7.3356   -0.6452   24.2173 N   0  0  0  0  0  4  0  0  0  0  0  0
    8.4980   -0.4854   23.2737 C   0  0  0  0  0  0  0  0  0  0  0  0
    8.0928    0.2630   21.9867 C   0  0  0  0  0  0  0  0  0  0  0  0
    9.2932    0.9509   21.3126 C   0  0  0  0  0  0  0  0  0  0  0  0
    9.6620    2.2522   22.0060 N   0  0  0  0  0  4  0  0  0  0  0  0
    8.8484    2.8995   21.9890 H   0  0  0  0  0  0  0  0  0  0  0  0
   10.4567    2.7625   21.5773 H   0  0  0  0  0  0  0  0  0  0  0  0
    9.9036    2.0714   22.9973 H   0  0  0  0  0  0  0  0  0  0  0  0
   10.1443    0.2582   21.3046 H   0  0  0  0  0  0  0  0  0  0  0  0
    9.0520    1.1557   20.2669 H   0  0  0  0  0  0  0  0  0  0  0  0
    7.3817   -0.7128   21.0068 C   0  0  0  0  0  0  0  0  0  0  0  0
    6.6426   -0.0208   19.8724 C   0  0  0  0  0  0  0  0  0  0  0  0
    5.4273    0.6453   20.1122 C   0  0  0  0  0  0  0  0  0  0  0  0
    4.7913    1.3193   19.0671 C   0  0  0  0  0  0  0  0  0  0  0  0
    5.3919    1.3140   17.8060 C   0  0  0  0  0  0  0  0  0  0  0  0
    6.5471    0.6854   17.5481 N   0  0  0  0  0  0  0  0  0  0  0  0
    7.1461    0.0451   18.5581 C   0  0  0  0  0  0  0  0  0  0  0  0
    8.0961   -0.4324   18.3006 H   0  0  0  0  0  0  0  0  0  0  0  0
    4.9303    1.8380   16.9690 H   0  0  0  0  0  0  0  0  0  0  0  0
    3.8608    1.8616   19.2152 H   0  0  0  0  0  0  0  0  0  0  0  0
    4.9896    0.6501   21.1120 H   0  0  0  0  0  0  0  0  0  0  0  0
    8.1126   -1.4308   20.6032 H   0  0  0  0  0  0  0  0  0  0  0  0
    6.6708   -1.3191   21.5901 H   0  0  0  0  0  0  0  0  0  0  0  0
    7.3533    1.0277   22.2749 H   0  0  0  0  0  0  0  0  0  0  0  0
    9.3063    0.0217   23.8151 H   0  0  0  0  0  0  0  0  0  0  0  0
    8.9067   -1.4727   23.0188 H   0  0  0  0  0  0  0  0  0  0  0  0
    6.4771   -0.7201   23.6403 H   0  0  0  0  0  0  0  0  0  0  0  0
    7.3447    1.4748   24.4053 H   0  0  0  0  0  0  0  0  0  0  0  0
    6.1837    0.6910   25.4563 H   0  0  0  0  0  0  0  0  0  0  0  0
    8.5970    1.6712   26.3939 H   0  0  0  0  0  0  0  0  0  0  0  0
    9.0562    0.0071   26.0508 H   0  0  0  0  0  0  0  0  0  0  0  0
    8.0470   -2.1182   27.6618 H   0  0  0  0  0  0  0  0  0  0  0  0
    6.4401   -1.8190   28.3358 H   0  0  0  0  0  0  0  0  0  0  0  0
    6.1437   -3.0168   26.3519 H   0  0  0  0  0  0  0  0  0  0  0  0
    5.5517   -1.4035   25.9710 H   0  0  0  0  0  0  0  0  0  0  0  0
    8.3916   -2.1980   25.2308 H   0  0  0  0  0  0  0  0  0  0  0  0
    7.4639   -3.0922   23.0370 H   0  0  0  0  0  0  0  0  0  0  0  0
    5.8307   -2.9265   23.6877 H   0  0  0  0  0  0  0  0  0  0  0  0
    6.9743   -4.0561   24.4165 H   0  0  0  0  0  0  0  0  0  0  0  0
  1  2  1  0
  2  3  1  0
  3  4  1  0
  4  5  1  0
  5  6  1  0
  6  7  1  0
  7  8  1  0
  8  9  1  0
  9 10  1  0
 10 11  1  0
 11 12  1  0
 12 13  1  0
 12 14  1  0
 12 15  1  0
 11 16  1  0
 11 17  1  0
 10 18  1  0
 18 19  1  0
 19 20  2  0
 20 21  1  0
 21 22  2  0
 22 23  1  0
 23 24  2  0
 24 25  1  0
 22 26  1  0
 21 27  1  0
 20 28  1  0
 18 29  1  0
 18 30  1  0
 10 31  1  0
  9 32  1  0
  9 33  1  0
  8 34  1  0
  7 35  1  0
  7 36  1  0
  6 37  1  0
  6 38  1  0
  4 39  1  0
  4 40  1  0
  3 41  1  0
  3 42  1  0
  2 43  1  0
  1 44  1  0
  1 45  1  0
  1 46  1  0
  8  2  1  0
 24 19  1  0
M  CHG  2   8   1  12   1
M  END
>  <plip>  (1) 
-0.14285714285714285

>  <filename>  (1) 
[H][c]1[n][c]([H])[c]([C]([H])([H])[C]([H])([C]([H])([H])[N+]([H])([H])[H])[C]([H])([H])[N+]2([H])[C]([H])([H])[C]([H])([H])[S][C]([H])([H])[C]([H])([H])[C]2([H])[C]([H])([H])[H])[c]([H])[c]1[H]

$$$$
