
     RDKit          3D

 38 38  0  0  0  0  0  0  0  0999 V2000
    1.9010   -6.1852   22.4853 C   0  0  0  0  0  0  0  0  0  0  0  0
    2.5030   -5.1618   23.4050 C   0  0  0  0  0  0  0  0  0  0  0  0
    3.7067   -4.6175   23.1162 C   0  0  0  0  0  0  0  0  0  0  0  0
    4.3976   -3.5704   23.8993 C   0  0  0  0  0  0  0  0  0  0  0  0
    3.9579   -3.1163   24.9616 O   0  0  0  0  0  0  0  0  0  0  0  0
    5.5580   -3.1088   23.3747 N   0  0  0  0  0  0  0  0  0  0  0  0
    6.5005   -2.3311   24.1521 C   0  0  0  0  0  0  0  0  0  0  0  0
    7.5095   -1.6959   23.2041 C   0  0  0  0  0  0  0  0  0  0  0  0
    6.8389   -0.6836   22.2896 C   0  0  0  0  0  0  0  0  0  0  0  0
    6.2147    0.2501   22.7512 O   0  0  0  0  0  0  0  0  0  0  0  0
    7.0167   -0.9124   20.9417 N   0  0  0  0  0  0  0  0  0  0  0  0
    6.5122   -0.1503   19.8523 C   0  0  0  0  0  0  0  0  0  0  0  0
    5.3745    0.6555   19.9967 C   0  0  0  0  0  0  0  0  0  0  0  0
    4.9130    1.3637   18.8810 C   0  0  0  0  0  0  0  0  0  0  0  0
    5.5813    1.2443   17.6599 C   0  0  0  0  0  0  0  0  0  0  0  0
    6.6803    0.4867   17.5055 N   0  0  0  0  0  0  0  0  0  0  0  0
    7.1294   -0.1805   18.5756 C   0  0  0  0  0  0  0  0  0  0  0  0
    8.0384   -0.7604   18.4199 H   0  0  0  0  0  0  0  0  0  0  0  0
    5.2321    1.7770   16.7773 H   0  0  0  0  0  0  0  0  0  0  0  0
    4.0559    2.0245   18.9589 H   0  0  0  0  0  0  0  0  0  0  0  0
    4.8955    0.7374   20.9669 H   0  0  0  0  0  0  0  0  0  0  0  0
    7.7850   -1.5330   20.7465 H   0  0  0  0  0  0  0  0  0  0  0  0
    8.2567   -1.1633   23.8011 H   0  0  0  0  0  0  0  0  0  0  0  0
    8.0386   -2.4676   22.6340 H   0  0  0  0  0  0  0  0  0  0  0  0
    6.9994   -2.9827   24.8863 H   0  0  0  0  0  0  0  0  0  0  0  0
    5.9507   -1.5707   24.7218 H   0  0  0  0  0  0  0  0  0  0  0  0
    5.7169   -3.2715   22.3992 H   0  0  0  0  0  0  0  0  0  0  0  0
    4.2266   -4.9527   22.2231 H   0  0  0  0  0  0  0  0  0  0  0  0
    1.6739   -4.7910   24.6276 C   0  0  0  0  0  0  0  0  0  0  0  0
    1.3281   -3.3211   24.5622 N   0  0  0  0  0  4  0  0  0  0  0  0
    0.6737   -3.0129   25.2961 H   0  0  0  0  0  0  0  0  0  0  0  0
    0.9610   -3.0973   23.6206 H   0  0  0  0  0  0  0  0  0  0  0  0
    2.2626   -2.8586   24.7013 H   0  0  0  0  0  0  0  0  0  0  0  0
    0.7635   -5.3984   24.6745 H   0  0  0  0  0  0  0  0  0  0  0  0
    2.2516   -4.9691   25.5372 H   0  0  0  0  0  0  0  0  0  0  0  0
    1.7193   -7.1397   22.9927 H   0  0  0  0  0  0  0  0  0  0  0  0
    0.9350   -5.8425   22.0916 H   0  0  0  0  0  0  0  0  0  0  0  0
    2.5571   -6.3912   21.6397 H   0  0  0  0  0  0  0  0  0  0  0  0
  1  2  1  0
  2  3  2  3
  3  4  1  0
  4  5  2  0
  4  6  1  0
  6  7  1  0
  7  8  1  0
  8  9  1  0
  9 10  2  0
  9 11  1  0
 11 12  1  0
 12 13  2  0
 13 14  1  0
 14 15  2  0
 15 16  1  0
 16 17  2  0
 17 18  1  0
 15 19  1  0
 14 20  1  0
 13 21  1  0
 11 22  1  0
  8 23  1  0
  8 24  1  0
  7 25  1  0
  7 26  1  0
  6 27  1  0
  3 28  1  0
  2 29  1  0
 29 30  1  0
 30 31  1  0
 30 32  1  0
 30 33  1  0
 29 34  1  0
 29 35  1  0
  1 36  1  0
  1 37  1  0
  1 38  1  0
 17 12  1  0
M  CHG  1  30   1
M  END
>  <plip>  (1) 
-0.10344827586206896

>  <filename>  (1) 
[H][C]([C](=[O])[N]([H])[C]([H])([H])[C]([H])([H])[C](=[O])[N]([H])[c]1[c]([H])[n][c]([H])[c]([H])[c]1[H])=[C]([C]([H])([H])[H])[C]([H])([H])[N+]([H])([H])[H]

$$$$
