
     RDKit          3D

 23 24  0  0  0  0  0  0  0  0999 V2000
    4.9667    1.7718   17.0122 H   0  0  0  0  0  0  0  0  0  0  0  0
    5.4396    1.2671   17.8514 C   0  0  0  0  0  0  0  0  0  0  0  0
    6.5989    0.6411   17.5974 N   0  0  0  0  0  0  0  0  0  0  0  0
    7.2231    0.0209   18.6086 C   0  0  0  0  0  0  0  0  0  0  0  0
    8.1556   -0.4868   18.3733 H   0  0  0  0  0  0  0  0  0  0  0  0
    6.7174    0.0058   19.9159 C   0  0  0  0  0  0  0  0  0  0  0  0
    7.3423   -0.5517   21.0035 O   0  0  0  0  0  0  0  0  0  0  0  0
    8.6057   -1.1444   20.7434 N   0  0  0  0  0  0  0  0  0  0  0  0
    9.2547   -0.3847   20.5688 H   0  0  0  0  0  0  0  0  0  0  0  0
    9.1118   -1.8141   21.8793 C   0  0  0  0  0  0  0  0  0  0  0  0
   10.4973   -1.9955   21.9441 C   0  0  0  0  0  0  0  0  0  0  0  0
   11.1527   -1.5352   21.2170 H   0  0  0  0  0  0  0  0  0  0  0  0
   11.0074   -2.8013   22.9495 C   0  0  0  0  0  0  0  0  0  0  0  0
   12.0759   -3.0097   22.9815 H   0  0  0  0  0  0  0  0  0  0  0  0
   10.2602   -3.3740   23.9031 N   0  0  0  0  0  0  0  0  0  0  0  0
    8.9441   -3.1370   23.8572 C   0  0  0  0  0  0  0  0  0  0  0  0
    8.3435   -3.6068   24.6373 H   0  0  0  0  0  0  0  0  0  0  0  0
    8.3190   -2.3644   22.8821 C   0  0  0  0  0  0  0  0  0  0  0  0
    7.2549   -2.1861   22.8983 H   0  0  0  0  0  0  0  0  0  0  0  0
    5.4908    0.6279   20.1792 C   0  0  0  0  0  0  0  0  0  0  0  0
    5.0832    0.6105   21.1904 H   0  0  0  0  0  0  0  0  0  0  0  0
    4.8482    1.2749   19.1222 C   0  0  0  0  0  0  0  0  0  0  0  0
    3.9088    1.7969   19.2703 H   0  0  0  0  0  0  0  0  0  0  0  0
  1  2  1  0
  2  3  2  0
  3  4  1  0
  4  5  1  0
  4  6  2  0
  6  7  1  0
  7  8  1  0
  8  9  1  0
  8 10  1  0
 10 11  2  0
 11 12  1  0
 11 13  1  0
 13 14  1  0
 13 15  2  0
 15 16  1  0
 16 17  1  0
 16 18  2  0
 18 19  1  0
  6 20  1  0
 20 21  1  0
 20 22  2  0
 22 23  1  0
 22  2  1  0
 18 10  1  0
M  END
>  <plip>  (1) 
-0.07142857142857142

>  <filename>  (1) 
[H][c]1[n][c]([H])[c]([O][N]([H])[c]2[c]([H])[c]([H])[n][c]([H])[c]2[H])[c]([H])[c]1[H]

$$$$
