
     RDKit          3D

 36 37  0  0  0  0  0  0  0  0999 V2000
    9.1979   -4.0753   23.5335 C   0  0  0  0  0  0  0  0  0  0  0  0
    7.8191   -3.8832   23.9897 N   0  0  0  0  0  0  0  0  0  0  0  0
    6.9134   -3.3827   23.0502 C   0  0  0  0  0  0  0  0  0  0  0  0
    5.7097   -3.2780   23.2309 O   0  0  0  0  0  0  0  0  0  0  0  0
    7.4153   -2.9800   21.8231 N   0  0  0  0  0  0  0  0  0  0  0  0
    6.7154   -2.0389   20.9236 C   0  0  0  0  0  0  0  0  0  0  0  0
    7.3845   -0.6500   20.7545 C   0  0  0  0  0  0  0  0  0  0  0  0
    8.6945   -0.7921   20.4062 F   0  0  0  0  0  0  0  0  0  0  0  0
    7.3277    0.0419   21.9242 F   0  0  0  0  0  0  0  0  0  0  0  0
    6.6613    0.1175   19.6833 C   0  0  0  0  0  0  0  0  0  0  0  0
    5.4465    0.7603   19.9361 C   0  0  0  0  0  0  0  0  0  0  0  0
    4.8423    1.4276   18.8771 C   0  0  0  0  0  0  0  0  0  0  0  0
    5.4484    1.4311   17.6180 C   0  0  0  0  0  0  0  0  0  0  0  0
    6.6112    0.8015   17.3763 N   0  0  0  0  0  0  0  0  0  0  0  0
    7.2061    0.1667   18.3958 C   0  0  0  0  0  0  0  0  0  0  0  0
    8.1518   -0.3336   18.2073 H   0  0  0  0  0  0  0  0  0  0  0  0
    4.9605    1.9593   16.8056 H   0  0  0  0  0  0  0  0  0  0  0  0
    3.9103    1.9592   19.0200 H   0  0  0  0  0  0  0  0  0  0  0  0
    4.9904    0.7510   20.9270 H   0  0  0  0  0  0  0  0  0  0  0  0
    6.6277   -2.4924   19.9311 H   0  0  0  0  0  0  0  0  0  0  0  0
    5.6957   -1.8709   21.2853 H   0  0  0  0  0  0  0  0  0  0  0  0
    8.4254   -3.0535   21.7474 H   0  0  0  0  0  0  0  0  0  0  0  0
    7.4266   -4.2687   25.2962 C   0  0  0  0  0  0  0  0  0  0  0  0
    6.0635   -4.4812   25.5561 C   0  0  0  0  0  0  0  0  0  0  0  0
    5.6137   -4.8879   26.8093 C   0  0  0  0  0  0  0  0  0  0  0  0
    6.5138   -5.1019   27.8475 C   0  0  0  0  0  0  0  0  0  0  0  0
    5.8827   -5.7066   29.5504 Br  0  0  0  0  0  0  0  0  0  0  0  0
    7.8733   -4.8601   27.6230 C   0  0  0  0  0  0  0  0  0  0  0  0
    8.3382   -4.4350   26.3693 C   0  0  0  0  0  0  0  0  0  0  0  0
    9.6587   -4.1625   26.2279 F   0  0  0  0  0  0  0  0  0  0  0  0
    8.5798   -5.0068   28.4261 H   0  0  0  0  0  0  0  0  0  0  0  0
    4.5526   -5.0613   26.9608 H   0  0  0  0  0  0  0  0  0  0  0  0
    5.3236   -4.3641   24.7746 H   0  0  0  0  0  0  0  0  0  0  0  0
    9.8673   -4.3921   24.3345 H   0  0  0  0  0  0  0  0  0  0  0  0
    9.5961   -3.1488   23.1008 H   0  0  0  0  0  0  0  0  0  0  0  0
    9.2039   -4.8484   22.7605 H   0  0  0  0  0  0  0  0  0  0  0  0
  1  2  1  0
  2  3  1  0
  3  4  2  0
  3  5  1  0
  5  6  1  0
  6  7  1  0
  7  8  1  0
  7  9  1  0
  7 10  1  0
 10 11  2  0
 11 12  1  0
 12 13  2  0
 13 14  1  0
 14 15  2  0
 15 16  1  0
 13 17  1  0
 12 18  1  0
 11 19  1  0
  6 20  1  0
  6 21  1  0
  5 22  1  0
  2 23  1  0
 23 24  2  0
 24 25  1  0
 25 26  2  0
 26 27  1  0
 26 28  1  0
 28 29  2  0
 29 30  1  0
 28 31  1  0
 25 32  1  0
 24 33  1  0
  1 34  1  0
  1 35  1  0
  1 36  1  0
 15 10  1  0
 29 23  1  0
M  END
>  <plip>  (1) 
-0.03333333333333333

>  <filename>  (1) 
[H][c]1[n][c]([H])[c]([C]([F])([F])[C]([H])([H])[N]([H])[C](=[O])[N]([c]2[c]([H])[c]([H])[c]([Br])[c]([H])[c]2[F])[C]([H])([H])[H])[c]([H])[c]1[H]

$$$$
