
     RDKit          3D

 22 23  0  0  0  0  0  0  0  0999 V2000
    6.7229   -1.4910   21.5050 H   0  0  0  0  0  0  0  0  0  0  0  0
    7.3019   -0.7390   20.9793 C   0  0  0  0  0  0  0  0  0  0  0  0
    8.5972   -0.5232   21.3924 C   0  0  0  0  0  0  0  0  0  0  0  0
    9.6202    0.8902   20.6396 Br  0  0  0  0  0  0  0  0  0  0  0  0
    9.1653   -1.2770   22.4156 N   0  0  0  0  0  0  0  0  0  0  0  0
   10.5238   -1.3562   22.6974 C   0  0  0  0  0  0  0  0  0  0  0  0
   11.3142   -0.8428   22.1487 H   0  0  0  0  0  0  0  0  0  0  0  0
   10.7200   -2.1523   23.7168 N   0  0  0  0  0  0  0  0  0  0  0  0
    9.4793   -2.5912   24.1411 C   0  0  0  0  0  0  0  0  0  0  0  0
    9.3203   -3.2497   24.9907 H   0  0  0  0  0  0  0  0  0  0  0  0
    8.5083   -2.0682   23.3434 C   0  0  0  0  0  0  0  0  0  0  0  0
    7.4392   -2.2265   23.4368 H   0  0  0  0  0  0  0  0  0  0  0  0
    6.6502    0.0100   19.9009 C   0  0  0  0  0  0  0  0  0  0  0  0
    7.1914    0.0724   18.5995 C   0  0  0  0  0  0  0  0  0  0  0  0
    8.1325   -0.4358   18.4030 H   0  0  0  0  0  0  0  0  0  0  0  0
    6.5760    0.6882   17.5710 N   0  0  0  0  0  0  0  0  0  0  0  0
    5.4036    1.2981   17.8243 C   0  0  0  0  0  0  0  0  0  0  0  0
    4.8877    1.8011   17.0117 H   0  0  0  0  0  0  0  0  0  0  0  0
    4.8177    1.3044   19.0977 C   0  0  0  0  0  0  0  0  0  0  0  0
    3.8844    1.8317   19.2557 H   0  0  0  0  0  0  0  0  0  0  0  0
    5.4360    0.6413   20.1554 C   0  0  0  0  0  0  0  0  0  0  0  0
    5.0018    0.6273   21.1556 H   0  0  0  0  0  0  0  0  0  0  0  0
  1  2  1  0
  2  3  2  3
  3  4  1  0
  3  5  1  0
  5  6  1  0
  6  7  1  0
  6  8  2  0
  8  9  1  0
  9 10  1  0
  9 11  2  0
 11 12  1  0
  2 13  1  0
 13 14  2  0
 14 15  1  0
 14 16  1  0
 16 17  2  0
 17 18  1  0
 17 19  1  0
 19 20  1  0
 19 21  2  0
 21 22  1  0
 11  5  1  0
 21 13  1  0
M  END
>  <plip>  (1) 
-0.06896551724137931

>  <filename>  (1) 
[H][C](=[C]([Br])[n]1[c]([H])[n][c]([H])[c]1[H])[c]1[c]([H])[n][c]([H])[c]([H])[c]1[H]

$$$$
