
     RDKit          3D

 45 47  0  0  0  0  0  0  0  0999 V2000
    6.3721   -4.3792   20.3598 C   0  0  0  0  0  0  0  0  0  0  0  0
    6.6155   -2.9876   20.0997 O   0  0  0  0  0  0  0  0  0  0  0  0
    6.8330   -2.2012   21.2774 C   0  0  0  0  0  0  0  0  0  0  0  0
    5.5557   -2.2180   21.9043 O   0  0  0  0  0  0  0  0  0  0  0  0
    5.4477   -3.1132   23.0156 C   0  0  0  0  0  0  0  0  0  0  0  0
    5.9780   -4.0505   22.8209 H   0  0  0  0  0  0  0  0  0  0  0  0
    4.3952   -3.3431   23.2351 H   0  0  0  0  0  0  0  0  0  0  0  0
    5.8643   -2.6258   23.8999 H   0  0  0  0  0  0  0  0  0  0  0  0
    7.3800   -0.7590   20.9790 C   0  0  0  0  0  0  0  0  0  0  0  0
    7.4727    0.1393   22.1436 N   0  0  0  0  0  0  0  0  0  0  0  0
    8.5411    0.9831   22.3756 C   0  0  0  0  0  0  0  0  0  0  0  0
    9.5613    0.8555   21.7143 O   0  0  0  0  0  0  0  0  0  0  0  0
    8.5042    1.8700   23.5511 C   0  0  0  0  0  0  0  0  0  0  0  0
    9.4200    1.6502   24.5651 C   0  0  0  0  0  0  0  0  0  0  0  0
   10.3237    0.6349   24.3653 O   0  0  0  0  0  0  0  0  0  0  0  0
   10.2066    0.2749   23.4666 H   0  0  0  0  0  0  0  0  0  0  0  0
    9.3561    2.4249   25.7387 C   0  0  0  0  0  0  0  0  0  0  0  0
    8.4565    3.4151   25.9251 N   0  0  0  0  0  0  0  0  0  0  0  0
    7.5611    3.6587   24.9416 C   0  0  0  0  0  0  0  0  0  0  0  0
    6.6058    4.6824   25.1015 C   0  0  0  0  0  0  0  0  0  0  0  0
    6.5544    5.7645   26.6869 Br  0  0  0  0  0  0  0  0  0  0  0  0
    5.6726    4.9282   24.0851 C   0  0  0  0  0  0  0  0  0  0  0  0
    5.6763    4.1683   22.9129 C   0  0  0  0  0  0  0  0  0  0  0  0
    6.6111    3.1490   22.7457 C   0  0  0  0  0  0  0  0  0  0  0  0
    7.5559    2.8892   23.7420 C   0  0  0  0  0  0  0  0  0  0  0  0
    6.6156    2.5546   21.8372 H   0  0  0  0  0  0  0  0  0  0  0  0
    4.9590    4.3695   22.1222 H   0  0  0  0  0  0  0  0  0  0  0  0
    4.9437    5.7221   24.2119 H   0  0  0  0  0  0  0  0  0  0  0  0
   10.0641    2.1852   26.5183 H   0  0  0  0  0  0  0  0  0  0  0  0
    6.6617    0.2556   22.7453 H   0  0  0  0  0  0  0  0  0  0  0  0
    6.6181   -0.0021   19.9114 C   0  0  0  0  0  0  0  0  0  0  0  0
    5.3976    0.6464   20.1491 C   0  0  0  0  0  0  0  0  0  0  0  0
    4.7958    1.3115   19.0799 C   0  0  0  0  0  0  0  0  0  0  0  0
    5.4121    1.3210   17.8251 C   0  0  0  0  0  0  0  0  0  0  0  0
    6.5861    0.7082   17.5990 N   0  0  0  0  0  0  0  0  0  0  0  0
    7.1698    0.0688   18.6252 C   0  0  0  0  0  0  0  0  0  0  0  0
    8.1221   -0.4235   18.4469 H   0  0  0  0  0  0  0  0  0  0  0  0
    4.9338    1.8444   17.0038 H   0  0  0  0  0  0  0  0  0  0  0  0
    3.8567    1.8378   19.2019 H   0  0  0  0  0  0  0  0  0  0  0  0
    4.9379    0.6517   21.1369 H   0  0  0  0  0  0  0  0  0  0  0  0
    8.3995   -0.9320   20.6146 H   0  0  0  0  0  0  0  0  0  0  0  0
    7.5682   -2.6933   21.9250 H   0  0  0  0  0  0  0  0  0  0  0  0
    7.1065   -4.7911   21.0620 H   0  0  0  0  0  0  0  0  0  0  0  0
    5.3689   -4.5237   20.7701 H   0  0  0  0  0  0  0  0  0  0  0  0
    6.4454   -4.9436   19.4285 H   0  0  0  0  0  0  0  0  0  0  0  0
  1  2  1  0
  2  3  1  0
  3  4  1  0
  4  5  1  0
  5  6  1  0
  5  7  1  0
  5  8  1  0
  3  9  1  0
  9 10  1  0
 10 11  1  0
 11 12  2  0
 11 13  1  0
 13 14  2  0
 14 15  1  0
 15 16  1  0
 14 17  1  0
 17 18  2  0
 18 19  1  0
 19 20  2  0
 20 21  1  0
 20 22  1  0
 22 23  2  0
 23 24  1  0
 24 25  2  0
 24 26  1  0
 23 27  1  0
 22 28  1  0
 17 29  1  0
 10 30  1  0
  9 31  1  0
 31 32  2  0
 32 33  1  0
 33 34  2  0
 34 35  1  0
 35 36  2  0
 36 37  1  0
 34 38  1  0
 33 39  1  0
 32 40  1  0
  9 41  1  0
  3 42  1  0
  1 43  1  0
  1 44  1  0
  1 45  1  0
 25 13  1  0
 36 31  1  0
 25 19  1  0
M  END
>  <plip>  (1) 
-0.14285714285714285

>  <filename>  (1) 
[H][O][c]1[c]([H])[n][c]2[c]([Br])[c]([H])[c]([H])[c]([H])[c]2[c]1[C](=[O])[N]([H])[C]([H])([c]1[c]([H])[n][c]([H])[c]([H])[c]1[H])[C]([H])([O][C]([H])([H])[H])[O][C]([H])([H])[H]

$$$$
