
     RDKit          3D

 30 32  0  0  0  0  0  0  0  0999 V2000
    4.9311    1.7980   16.9934 H   0  0  0  0  0  0  0  0  0  0  0  0
    5.3975    1.2907   17.8383 C   0  0  0  0  0  0  0  0  0  0  0  0
    6.5552    0.6674   17.5821 N   0  0  0  0  0  0  0  0  0  0  0  0
    7.1784    0.0470   18.5869 C   0  0  0  0  0  0  0  0  0  0  0  0
    8.1130   -0.4434   18.3232 H   0  0  0  0  0  0  0  0  0  0  0  0
    6.6899    0.0040   19.9057 C   0  0  0  0  0  0  0  0  0  0  0  0
    7.3866   -0.6839   20.9370 N   0  0  0  0  0  0  0  0  0  0  0  0
    8.7309   -0.8692   21.1663 C   0  0  0  0  0  0  0  0  0  0  0  0
    9.4653   -0.4880   20.4734 H   0  0  0  0  0  0  0  0  0  0  0  0
    8.9811   -1.5292   22.2711 N   0  0  0  0  0  0  0  0  0  0  0  0
    7.7495   -1.8267   22.7745 C   0  0  0  0  0  0  0  0  0  0  0  0
    7.6853   -2.5169   23.9489 N   0  0  0  0  0  0  0  0  0  0  0  0
    8.5647   -2.4471   24.4279 H   0  0  0  0  0  0  0  0  0  0  0  0
    6.5379   -3.1096   24.4733 C   0  0  0  0  0  0  0  0  0  0  0  0
    6.2753   -3.0751   25.8463 C   0  0  0  0  0  0  0  0  0  0  0  0
    6.9858   -2.5661   26.4944 H   0  0  0  0  0  0  0  0  0  0  0  0
    5.1104   -3.6618   26.3564 C   0  0  0  0  0  0  0  0  0  0  0  0
    4.8840   -3.6375   27.4176 H   0  0  0  0  0  0  0  0  0  0  0  0
    4.2237   -4.2958   25.4804 C   0  0  0  0  0  0  0  0  0  0  0  0
    2.7790   -5.0366   26.1002 Cl  0  0  0  0  0  0  0  0  0  0  0  0
    4.4822   -4.3564   24.1092 C   0  0  0  0  0  0  0  0  0  0  0  0
    3.7796   -4.8622   23.4538 H   0  0  0  0  0  0  0  0  0  0  0  0
    5.6417   -3.7589   23.6066 C   0  0  0  0  0  0  0  0  0  0  0  0
    5.8918   -3.7769   22.5484 H   0  0  0  0  0  0  0  0  0  0  0  0
    6.7677   -1.3060   22.0022 C   0  0  0  0  0  0  0  0  0  0  0  0
    5.7166   -1.3695   22.1443 H   0  0  0  0  0  0  0  0  0  0  0  0
    5.4653    0.6457   20.1618 C   0  0  0  0  0  0  0  0  0  0  0  0
    5.0346    0.6543   21.1615 H   0  0  0  0  0  0  0  0  0  0  0  0
    4.8211    1.3006   19.1085 C   0  0  0  0  0  0  0  0  0  0  0  0
    3.8897    1.8275   19.2595 H   0  0  0  0  0  0  0  0  0  0  0  0
  1  2  1  0
  2  3  2  0
  3  4  1  0
  4  5  1  0
  4  6  2  0
  6  7  1  0
  7  8  1  0
  8  9  1  0
  8 10  2  0
 10 11  1  0
 11 12  1  0
 12 13  1  0
 12 14  1  0
 14 15  2  0
 15 16  1  0
 15 17  1  0
 17 18  1  0
 17 19  2  0
 19 20  1  0
 19 21  1  0
 21 22  1  0
 21 23  2  0
 23 24  1  0
 11 25  2  0
 25 26  1  0
  6 27  1  0
 27 28  1  0
 27 29  2  0
 29 30  1  0
 29  2  1  0
 25  7  1  0
 23 14  1  0
M  END
>  <plip>  (1) 
-0.034482758620689655

>  <filename>  (1) 
[H][c]1[n][c]([H])[c](-[n]2[c]([H])[n][c]([N]([H])[c]3[c]([H])[c]([H])[c]([Cl])[c]([H])[c]3[H])[c]2[H])[c]([H])[c]1[H]

$$$$
