
     RDKit          3D

 53 56  0  0  0  0  0  0  0  0999 V2000
    2.6934   -8.8997   25.7032 Cl  0  0  0  0  0  0  0  0  0  0  0  0
    3.6614   -7.7586   24.8207 C   0  0  0  0  0  0  0  0  0  0  0  0
    3.3590   -7.5004   23.4828 C   0  0  0  0  0  0  0  0  0  0  0  0
    4.0913   -6.5417   22.7820 C   0  0  0  0  0  0  0  0  0  0  0  0
    5.1463   -5.8254   23.3864 C   0  0  0  0  0  0  0  0  0  0  0  0
    5.8058   -4.8269   22.6670 N   0  0  0  0  0  0  0  0  0  0  0  0
    6.4006   -5.0658   21.3648 C   0  0  0  0  0  0  0  0  0  0  0  0
    7.1049   -3.7400   21.0114 C   0  0  0  0  0  0  0  0  0  0  0  0
    6.9636   -2.7983   22.2183 C   0  0  0  0  0  0  0  0  0  0  0  0
    6.5602   -1.4113   21.8036 N   0  0  0  0  0  4  0  0  0  0  0  0
    7.4994   -0.6124   20.9464 C   0  0  0  0  0  0  0  0  0  0  0  0
    6.6649    0.0351   19.8549 C   0  0  0  0  0  0  0  0  0  0  0  0
    5.4281    0.6649   20.0886 C   0  0  0  0  0  0  0  0  0  0  0  0
    4.7896    1.3308   19.0393 C   0  0  0  0  0  0  0  0  0  0  0  0
    5.3953    1.3252   17.7781 C   0  0  0  0  0  0  0  0  0  0  0  0
    6.5456    0.6883   17.5186 N   0  0  0  0  0  0  0  0  0  0  0  0
    7.1484    0.0635   18.5368 C   0  0  0  0  0  0  0  0  0  0  0  0
    8.0628   -0.4711   18.2720 H   0  0  0  0  0  0  0  0  0  0  0  0
    4.9348    1.8399   16.9370 H   0  0  0  0  0  0  0  0  0  0  0  0
    3.8424    1.8455   19.1722 H   0  0  0  0  0  0  0  0  0  0  0  0
    4.9855    0.6533   21.0900 H   0  0  0  0  0  0  0  0  0  0  0  0
    8.3531    0.3754   21.7902 C   0  0  0  0  0  0  0  0  0  0  0  0
    7.5442    1.4528   22.5414 C   0  0  0  0  0  0  0  0  0  0  0  0
    8.4764    2.3594   23.3501 C   0  0  0  0  0  0  0  0  0  0  0  0
    9.2774    1.6184   24.2565 O   0  0  0  0  0  0  0  0  0  0  0  0
   10.0857    0.6355   23.6291 C   0  0  0  0  0  0  0  0  0  0  0  0
    9.2387   -0.3566   22.8226 C   0  0  0  0  0  0  0  0  0  0  0  0
    9.8809   -1.1071   22.3417 H   0  0  0  0  0  0  0  0  0  0  0  0
    8.5932   -0.8856   23.5382 H   0  0  0  0  0  0  0  0  0  0  0  0
   10.6185    0.1322   24.4414 H   0  0  0  0  0  0  0  0  0  0  0  0
   10.8391    1.1139   22.9784 H   0  0  0  0  0  0  0  0  0  0  0  0
    7.9073    3.0614   23.9652 H   0  0  0  0  0  0  0  0  0  0  0  0
    9.1124    2.9491   22.6658 H   0  0  0  0  0  0  0  0  0  0  0  0
    6.8536    0.9643   23.2464 H   0  0  0  0  0  0  0  0  0  0  0  0
    6.9371    2.0476   21.8491 H   0  0  0  0  0  0  0  0  0  0  0  0
    9.0021    0.8839   21.0651 H   0  0  0  0  0  0  0  0  0  0  0  0
    8.1997   -1.3102   20.4744 H   0  0  0  0  0  0  0  0  0  0  0  0
    5.6815   -1.4690   21.2382 H   0  0  0  0  0  0  0  0  0  0  0  0
    6.3427   -0.8227   22.6378 H   0  0  0  0  0  0  0  0  0  0  0  0
    5.9285   -3.4583   23.1385 C   0  0  0  0  0  0  0  0  0  0  0  0
    4.9851   -2.8996   23.0689 H   0  0  0  0  0  0  0  0  0  0  0  0
    6.2394   -3.4105   24.1853 H   0  0  0  0  0  0  0  0  0  0  0  0
    7.9328   -2.7521   22.7251 H   0  0  0  0  0  0  0  0  0  0  0  0
    6.6362   -3.2687   20.1427 H   0  0  0  0  0  0  0  0  0  0  0  0
    8.1619   -3.9033   20.7902 H   0  0  0  0  0  0  0  0  0  0  0  0
    7.1088   -5.9086   21.4130 H   0  0  0  0  0  0  0  0  0  0  0  0
    5.6544   -5.3455   20.6022 H   0  0  0  0  0  0  0  0  0  0  0  0
    5.4813   -6.1827   24.7211 C   0  0  0  0  0  0  0  0  0  0  0  0
    6.9190   -5.5539   25.4680 Cl  0  0  0  0  0  0  0  0  0  0  0  0
    4.7264   -7.1108   25.4483 C   0  0  0  0  0  0  0  0  0  0  0  0
    4.9650   -7.3215   26.4885 H   0  0  0  0  0  0  0  0  0  0  0  0
    3.8692   -6.3323   21.7410 H   0  0  0  0  0  0  0  0  0  0  0  0
    2.5300   -8.0244   23.0181 H   0  0  0  0  0  0  0  0  0  0  0  0
  1  2  1  0
  2  3  2  0
  3  4  1  0
  4  5  2  0
  5  6  1  0
  6  7  1  0
  7  8  1  0
  8  9  1  0
  9 10  1  0
 10 11  1  0
 11 12  1  0
 12 13  2  0
 13 14  1  0
 14 15  2  0
 15 16  1  0
 16 17  2  0
 17 18  1  0
 15 19  1  0
 14 20  1  0
 13 21  1  0
 11 22  1  0
 22 23  1  0
 23 24  1  0
 24 25  1  0
 25 26  1  0
 26 27  1  0
 27 28  1  0
 27 29  1  0
 26 30  1  0
 26 31  1  0
 24 32  1  0
 24 33  1  0
 23 34  1  0
 23 35  1  0
 22 36  1  0
 11 37  1  0
 10 38  1  0
 10 39  1  0
  9 40  1  0
 40 41  1  0
 40 42  1  0
  9 43  1  0
  8 44  1  0
  8 45  1  0
  7 46  1  0
  7 47  1  0
  5 48  1  0
 48 49  1  0
 48 50  2  0
 50 51  1  0
  4 52  1  0
  3 53  1  0
 50  2  1  0
 40  6  1  0
 17 12  1  0
 27 22  1  0
M  CHG  1  10   1
M  END
>  <plip>  (1) 
-0.10714285714285714

>  <filename>  (1) 
[H][c]1[n][c]([H])[c]([C]([H])([C]2([H])[C]([H])([H])[C]([H])([H])[O][C]([H])([H])[C]2([H])[H])[N+]([H])([H])[C]2([H])[C]([H])([H])[N]([c]3[c]([H])[c]([H])[c]([Cl])[c]([H])[c]3[Cl])[C]([H])([H])[C]2([H])[H])[c]([H])[c]1[H]

$$$$
