
     RDKit          3D

 29 30  0  0  0  0  0  0  0  0999 V2000
    4.9133    1.8176   16.9544 H   0  0  0  0  0  0  0  0  0  0  0  0
    5.3853    1.3130   17.7972 C   0  0  0  0  0  0  0  0  0  0  0  0
    6.5492    0.6931   17.5393 N   0  0  0  0  0  0  0  0  0  0  0  0
    7.1640    0.0803   18.5582 C   0  0  0  0  0  0  0  0  0  0  0  0
    8.0993   -0.4117   18.2972 H   0  0  0  0  0  0  0  0  0  0  0  0
    6.6637    0.0282   19.8782 C   0  0  0  0  0  0  0  0  0  0  0  0
    7.3400   -0.6882   20.9721 C   0  0  0  0  0  0  0  0  0  0  0  0
    6.8691   -1.2391   22.1352 C   0  0  0  0  0  0  0  0  0  0  0  0
    5.8525   -1.3022   22.4753 H   0  0  0  0  0  0  0  0  0  0  0  0
    7.8736   -1.8334   22.8424 N   0  0  0  0  0  0  0  0  0  0  0  0
    8.9553   -1.6605   22.1317 C   0  0  0  0  0  0  0  0  0  0  0  0
   10.3412   -2.0043   22.5664 C   0  0  0  0  0  0  0  0  0  0  0  0
   10.8667   -2.4857   21.7352 H   0  0  0  0  0  0  0  0  0  0  0  0
   10.2305   -2.7565   23.3575 H   0  0  0  0  0  0  0  0  0  0  0  0
   11.0928   -0.7482   23.0695 C   0  0  0  0  0  0  0  0  0  0  0  0
   12.1681   -0.9365   23.1592 H   0  0  0  0  0  0  0  0  0  0  0  0
   11.0154    0.0566   22.3229 H   0  0  0  0  0  0  0  0  0  0  0  0
   10.5214   -0.2209   24.3874 C   0  0  0  0  0  0  0  0  0  0  0  0
   10.4827   -1.0265   25.1337 H   0  0  0  0  0  0  0  0  0  0  0  0
    9.4690    0.0723   24.2187 H   0  0  0  0  0  0  0  0  0  0  0  0
   11.3723    0.8398   24.9134 N   0  0  0  0  0  0  0  0  0  0  0  0
   11.3393    1.6509   24.3019 H   0  0  0  0  0  0  0  0  0  0  0  0
   11.0328    1.1450   25.8218 H   0  0  0  0  0  0  0  0  0  0  0  0
    8.6894   -0.9926   20.9765 N   0  0  0  0  0  0  0  0  0  0  0  0
    9.3850   -0.6652   20.3322 H   0  0  0  0  0  0  0  0  0  0  0  0
    5.4387    0.6744   20.1153 C   0  0  0  0  0  0  0  0  0  0  0  0
    5.0129    0.6680   21.1182 H   0  0  0  0  0  0  0  0  0  0  0  0
    4.7928    1.3265   19.0648 C   0  0  0  0  0  0  0  0  0  0  0  0
    3.8567    1.8542   19.2167 H   0  0  0  0  0  0  0  0  0  0  0  0
  1  2  1  0
  2  3  2  0
  3  4  1  0
  4  5  1  0
  4  6  2  0
  6  7  1  0
  7  8  2  0
  8  9  1  0
  8 10  1  0
 10 11  2  0
 11 12  1  0
 12 13  1  0
 12 14  1  0
 12 15  1  0
 15 16  1  0
 15 17  1  0
 15 18  1  0
 18 19  1  0
 18 20  1  0
 18 21  1  0
 21 22  1  0
 21 23  1  0
 11 24  1  0
 24 25  1  0
  6 26  1  0
 26 27  1  0
 26 28  2  0
 28 29  1  0
 28  2  1  0
 24  7  1  0
M  END
>  <plip>  (1) 
-0.06896551724137931

>  <filename>  (1) 
[H][c]1[n][c]([H])[c](-[c]2[c]([H])[n][c]([C]([H])([H])[C]([H])([H])[C]([H])([H])[N]([H])[H])[n]2[H])[c]([H])[c]1[H]

$$$$
