
     RDKit          3D

 27 29  0  0  0  0  0  0  0  0999 V2000
    4.9295    1.8142   16.9559 H   0  0  0  0  0  0  0  0  0  0  0  0
    5.3840    1.3091   17.8025 C   0  0  0  0  0  0  0  0  0  0  0  0
    6.5462    0.6845   17.5614 N   0  0  0  0  0  0  0  0  0  0  0  0
    7.1445    0.0860   18.6002 C   0  0  0  0  0  0  0  0  0  0  0  0
    8.0887   -0.4018   18.3628 H   0  0  0  0  0  0  0  0  0  0  0  0
    6.6351    0.0760   19.9209 C   0  0  0  0  0  0  0  0  0  0  0  0
    7.3258   -0.6692   20.9906 C   0  0  0  0  0  0  0  0  0  0  0  0
    7.6273   -2.0028   20.9727 C   0  0  0  0  0  0  0  0  0  0  0  0
    7.2733   -2.6498   20.1903 H   0  0  0  0  0  0  0  0  0  0  0  0
    8.2950   -2.3487   22.1822 C   0  0  0  0  0  0  0  0  0  0  0  0
    8.7302   -3.3054   22.4538 H   0  0  0  0  0  0  0  0  0  0  0  0
    8.3273   -1.2226   22.9445 C   0  0  0  0  0  0  0  0  0  0  0  0
    8.6423   -1.0737   23.9713 H   0  0  0  0  0  0  0  0  0  0  0  0
    7.7501   -0.1701   22.2379 N   0  0  0  0  0  0  0  0  0  0  0  0
    7.5813    1.0933   22.7818 C   0  0  0  0  0  0  0  0  0  0  0  0
    7.6753    1.4418   24.0258 N   0  0  0  0  0  0  0  0  0  0  0  0
    7.4290    2.8062   24.0571 N   0  0  0  0  0  0  0  0  0  0  0  0
    7.2159    3.1725   22.8419 C   0  0  0  0  0  0  0  0  0  0  0  0
    6.8726    4.5259   22.3607 C   0  0  0  0  0  0  0  0  0  0  0  0
    5.8144    4.7298   22.5489 H   0  0  0  0  0  0  0  0  0  0  0  0
    7.0663    4.6522   21.2968 H   0  0  0  0  0  0  0  0  0  0  0  0
    7.4565    5.2483   22.9299 H   0  0  0  0  0  0  0  0  0  0  0  0
    7.3054    2.1391   21.9636 O   0  0  0  0  0  0  0  0  0  0  0  0
    5.3885    0.6922   20.1238 C   0  0  0  0  0  0  0  0  0  0  0  0
    4.9283    0.6584   21.1125 H   0  0  0  0  0  0  0  0  0  0  0  0
    4.7592    1.3289   19.0540 C   0  0  0  0  0  0  0  0  0  0  0  0
    3.8178    1.8503   19.1875 H   0  0  0  0  0  0  0  0  0  0  0  0
  1  2  1  0
  2  3  2  0
  3  4  1  0
  4  5  1  0
  4  6  2  0
  6  7  1  0
  7  8  2  0
  8  9  1  0
  8 10  1  0
 10 11  1  0
 10 12  2  0
 12 13  1  0
 12 14  1  0
 14 15  1  0
 15 16  2  0
 16 17  1  0
 17 18  2  0
 18 19  1  0
 19 20  1  0
 19 21  1  0
 19 22  1  0
 18 23  1  0
  6 24  1  0
 24 25  1  0
 24 26  2  0
 26 27  1  0
 26  2  1  0
 14  7  1  0
 23 15  1  0
M  END
>  <plip>  (1) 
-0.03571428571428571

>  <filename>  (1) 
[H][c]1[n][c]([H])[c](-[c]2[c]([H])[c]([H])[c]([H])[n]2-[c]2[n][n][c]([C]([H])([H])[H])[o]2)[c]([H])[c]1[H]

$$$$
