
     RDKit          3D

 34 37  0  0  0  0  0  0  0  0999 V2000
    4.9209    1.7806   16.9970 H   0  0  0  0  0  0  0  0  0  0  0  0
    5.4030    1.2911   17.8386 C   0  0  0  0  0  0  0  0  0  0  0  0
    6.5670    0.6767   17.5720 N   0  0  0  0  0  0  0  0  0  0  0  0
    7.1695    0.0557   18.5875 C   0  0  0  0  0  0  0  0  0  0  0  0
    8.1185   -0.4322   18.3714 H   0  0  0  0  0  0  0  0  0  0  0  0
    6.6456    0.0121   19.8928 C   0  0  0  0  0  0  0  0  0  0  0  0
    7.4156   -0.6896   20.9151 C   0  0  0  0  0  0  0  0  0  0  0  0
    8.3592   -1.5730   20.6978 N   0  0  0  0  0  0  0  0  0  0  0  0
    8.8874   -1.9829   21.9036 N   0  0  0  0  0  0  0  0  0  0  0  0
    8.2615   -1.2961   22.8167 C   0  0  0  0  0  0  0  0  0  0  0  0
    8.3819   -0.9401   24.5204 S   0  0  0  0  0  0  0  0  0  0  0  0
    7.1327    0.2858   24.2757 C   0  0  0  0  0  0  0  0  0  0  0  0
    6.7745    1.2355   25.3925 C   0  0  0  0  0  0  0  0  0  0  0  0
    5.6832    1.3321   25.4246 H   0  0  0  0  0  0  0  0  0  0  0  0
    7.0728    0.7953   26.3485 H   0  0  0  0  0  0  0  0  0  0  0  0
    7.3487    2.5874   25.2987 N   0  0  0  0  0  0  0  0  0  0  0  0
    8.8177    2.6338   25.2746 C   0  0  0  0  0  0  0  0  0  0  0  0
    9.2485    1.7250   25.7094 H   0  0  0  0  0  0  0  0  0  0  0  0
    9.1700    3.4692   25.8943 H   0  0  0  0  0  0  0  0  0  0  0  0
    9.2401    2.8177   23.8059 C   0  0  0  0  0  0  0  0  0  0  0  0
   10.1365    3.4392   23.7323 H   0  0  0  0  0  0  0  0  0  0  0  0
    9.4891    1.8567   23.3466 H   0  0  0  0  0  0  0  0  0  0  0  0
    8.0231    3.4666   23.1216 C   0  0  0  0  0  0  0  0  0  0  0  0
    8.2111    4.5140   22.8690 H   0  0  0  0  0  0  0  0  0  0  0  0
    7.7659    2.9530   22.1900 H   0  0  0  0  0  0  0  0  0  0  0  0
    6.8729    3.3783   24.1497 C   0  0  0  0  0  0  0  0  0  0  0  0
    6.5650    4.3764   24.4885 H   0  0  0  0  0  0  0  0  0  0  0  0
    5.9862    2.9092   23.7091 H   0  0  0  0  0  0  0  0  0  0  0  0
    6.6498    0.3873   23.0779 N   0  0  0  0  0  0  0  0  0  0  0  0
    7.2932   -0.5060   22.2738 N   0  0  0  0  0  0  0  0  0  0  0  0
    5.4275    0.6524   20.1624 C   0  0  0  0  0  0  0  0  0  0  0  0
    5.0066    0.6383   21.1708 H   0  0  0  0  0  0  0  0  0  0  0  0
    4.8035    1.3073   19.1045 C   0  0  0  0  0  0  0  0  0  0  0  0
    3.8734    1.8431   19.2566 H   0  0  0  0  0  0  0  0  0  0  0  0
  1  2  1  0
  2  3  2  0
  3  4  1  0
  4  5  1  0
  4  6  2  0
  6  7  1  0
  7  8  2  0
  8  9  1  0
  9 10  2  0
 10 11  1  0
 11 12  1  0
 12 13  1  0
 13 14  1  0
 13 15  1  0
 13 16  1  0
 16 17  1  0
 17 18  1  0
 17 19  1  0
 17 20  1  0
 20 21  1  0
 20 22  1  0
 20 23  1  0
 23 24  1  0
 23 25  1  0
 23 26  1  0
 26 27  1  0
 26 28  1  0
 12 29  2  0
 29 30  1  0
  6 31  1  0
 31 32  1  0
 31 33  2  0
 33 34  1  0
 33  2  1  0
 30  7  1  0
 30 10  1  0
 26 16  1  0
M  END
>  <plip>  (1) 
-0.0

>  <filename>  (1) 
[H][c]1[n][c]([H])[c](-[c]2[n][n][c]3[s][c]([C]([H])([H])[N]4[C]([H])([H])[C]([H])([H])[C]([H])([H])[C]4([H])[H])[n][n]23)[c]([H])[c]1[H]

$$$$
