
     RDKit          3D

 38 39  0  0  0  0  0  0  0  0999 V2000
    9.7254    0.3667   21.2454 O   0  0  0  0  0  0  0  0  0  0  0  0
    8.5773    0.3752   21.6432 C   0  0  0  0  0  0  0  0  0  0  0  0
    7.4904   -0.5453   21.0626 C   0  0  0  0  0  0  0  0  0  0  0  0
    6.6910    0.0766   19.9229 C   0  0  0  0  0  0  0  0  0  0  0  0
    5.4659    0.7206   20.1421 C   0  0  0  0  0  0  0  0  0  0  0  0
    4.8142    1.3355   19.0670 C   0  0  0  0  0  0  0  0  0  0  0  0
    5.4106    1.2874   17.8049 C   0  0  0  0  0  0  0  0  0  0  0  0
    6.5687    0.6544   17.5635 N   0  0  0  0  0  0  0  0  0  0  0  0
    7.1776    0.0694   18.6009 C   0  0  0  0  0  0  0  0  0  0  0  0
    8.1124   -0.4460   18.3751 H   0  0  0  0  0  0  0  0  0  0  0  0
    4.9423    1.7707   16.9469 H   0  0  0  0  0  0  0  0  0  0  0  0
    3.8696    1.8539   19.1932 H   0  0  0  0  0  0  0  0  0  0  0  0
    5.0130    0.7268   21.1361 H   0  0  0  0  0  0  0  0  0  0  0  0
    6.8138   -0.8768   21.8606 H   0  0  0  0  0  0  0  0  0  0  0  0
    8.0291   -1.4319   20.7173 H   0  0  0  0  0  0  0  0  0  0  0  0
    8.0955    1.1776   22.6363 N   0  0  0  0  0  0  0  0  0  0  0  0
    8.8549    2.0955   23.4101 N   0  0  0  0  0  0  0  0  0  0  0  0
    8.1838    3.1173   24.1017 C   0  0  0  0  0  0  0  0  0  0  0  0
    7.0035    3.0880   24.3733 O   0  0  0  0  0  0  0  0  0  0  0  0
    9.0405    4.1403   24.4357 N   0  0  0  0  0  0  0  0  0  0  0  0
    8.6752    5.1285   25.4562 C   0  0  0  0  0  0  0  0  0  0  0  0
    8.1470    4.4891   26.7672 C   0  0  0  0  0  0  0  0  0  0  0  0
    8.1342    5.4435   27.9341 C   0  0  0  0  0  0  0  0  0  0  0  0
    8.8138    6.5914   27.9503 C   0  0  0  0  0  0  0  0  0  0  0  0
    9.5953    7.1137   26.7654 C   0  0  0  0  0  0  0  0  0  0  0  0
    9.8928    6.0203   25.7218 C   0  0  0  0  0  0  0  0  0  0  0  0
   10.2233    6.4742   24.7782 H   0  0  0  0  0  0  0  0  0  0  0  0
   10.7066    5.3869   26.0935 H   0  0  0  0  0  0  0  0  0  0  0  0
   10.5184    7.5981   27.1120 H   0  0  0  0  0  0  0  0  0  0  0  0
    9.0143    7.9208   26.2989 H   0  0  0  0  0  0  0  0  0  0  0  0
    8.7957    7.2087   28.8486 H   0  0  0  0  0  0  0  0  0  0  0  0
    7.5386    5.1538   28.8018 H   0  0  0  0  0  0  0  0  0  0  0  0
    7.1493    4.0822   26.5824 H   0  0  0  0  0  0  0  0  0  0  0  0
    8.7606    3.6101   27.0153 H   0  0  0  0  0  0  0  0  0  0  0  0
    7.8749    5.7638   25.0521 H   0  0  0  0  0  0  0  0  0  0  0  0
   10.0100    3.8685   24.4193 H   0  0  0  0  0  0  0  0  0  0  0  0
    9.6459    2.4871   22.9096 H   0  0  0  0  0  0  0  0  0  0  0  0
    7.0979    1.1874   22.8069 H   0  0  0  0  0  0  0  0  0  0  0  0
  1  2  2  0
  2  3  1  0
  3  4  1  0
  4  5  2  0
  5  6  1  0
  6  7  2  0
  7  8  1  0
  8  9  2  0
  9 10  1  0
  7 11  1  0
  6 12  1  0
  5 13  1  0
  3 14  1  0
  3 15  1  0
  2 16  1  0
 16 17  1  0
 17 18  1  0
 18 19  2  0
 18 20  1  0
 20 21  1  0
 21 22  1  0
 22 23  1  0
 23 24  2  0
 24 25  1  0
 25 26  1  0
 26 27  1  0
 26 28  1  0
 25 29  1  0
 25 30  1  0
 24 31  1  0
 23 32  1  0
 22 33  1  0
 22 34  1  0
 21 35  1  0
 20 36  1  0
 17 37  1  0
 16 38  1  0
  9  4  1  0
 26 21  1  0
M  END
>  <plip>  (1) 
-0.07142857142857142

>  <filename>  (1) 
[H][C]1=[C]([H])[C]([H])([H])[C]([H])([N]([H])[C](=[O])[N]([H])[N]([H])[C](=[O])[C]([H])([H])[c]2[c]([H])[n][c]([H])[c]([H])[c]2[H])[C]([H])([H])[C]1([H])[H]

$$$$
