
     RDKit          3D

 50 53  0  0  0  0  0  0  0  0999 V2000
    6.2776   -3.1092   20.9022 C   0  0  0  0  0  0  0  0  0  0  0  0
    6.5444   -1.8438   21.6205 N   0  0  0  0  0  4  0  0  0  0  0  0
    7.2280   -1.9748   22.9707 C   0  0  0  0  0  0  0  0  0  0  0  0
    8.1963   -0.7737   23.0493 C   0  0  0  0  0  0  0  0  0  0  0  0
    7.7796    0.1437   21.8908 C   0  0  1  0  0  0  0  0  0  0  0  0
    8.7918    1.1653   21.3565 C   0  0  0  0  0  0  0  0  0  0  0  0
    9.0979    2.2156   22.3034 N   0  0  0  0  0  0  0  0  0  0  0  0
    9.9834    2.0302   23.3154 C   0  0  0  0  0  0  0  0  0  0  0  0
   10.7990    1.1210   23.3071 O   0  0  0  0  0  0  0  0  0  0  0  0
    9.8612    2.9536   24.5008 C   0  0  2  0  0  0  0  0  0  0  0  0
    8.5666    3.5821   24.9775 C   0  0  0  0  0  0  0  0  0  0  0  0
    9.6603    4.4784   24.4815 C   0  0  1  0  0  0  0  0  0  0  0  0
   10.3817    5.4313   25.4013 C   0  0  0  0  0  0  0  0  0  0  0  0
    9.8186    5.8708   26.6136 C   0  0  0  0  0  0  0  0  0  0  0  0
   10.5122    6.7861   27.4056 C   0  0  0  0  0  0  0  0  0  0  0  0
   11.7650    7.2138   26.9636 C   0  0  0  0  0  0  0  0  0  0  0  0
   12.2405    6.7335   25.7401 C   0  0  0  0  0  0  0  0  0  0  0  0
   11.5657    5.8890   24.9573 N   0  0  0  0  0  0  0  0  0  0  0  0
   13.2006    7.0797   25.3622 H   0  0  0  0  0  0  0  0  0  0  0  0
   12.3741    7.9132   27.5229 H   0  0  0  0  0  0  0  0  0  0  0  0
   10.0825    7.1708   28.3336 H   0  0  0  0  0  0  0  0  0  0  0  0
    8.8404    5.4972   26.8909 H   0  0  0  0  0  0  0  0  0  0  0  0
    9.5628    4.9162   23.4844 H   0  0  0  0  0  0  0  0  0  0  0  0
    8.3898    3.5171   26.0508 H   0  0  0  0  0  0  0  0  0  0  0  0
    7.6519    3.5066   24.3861 H   0  0  0  0  0  0  0  0  0  0  0  0
   10.5050    2.5347   25.2658 H   0  0  0  0  0  0  0  0  0  0  0  0
    8.4663    2.9894   22.4015 H   0  0  0  0  0  0  0  0  0  0  0  0
    8.4115    1.6325   20.4395 H   0  0  0  0  0  0  0  0  0  0  0  0
    9.7293    0.6599   21.1023 H   0  0  0  0  0  0  0  0  0  0  0  0
    7.3479   -0.8464   20.8157 C   0  0  2  0  0  0  0  0  0  0  0  0
    6.5735   -0.2051   19.6994 C   0  0  0  0  0  0  0  0  0  0  0  0
    5.3781    0.5004   19.9203 C   0  0  0  0  0  0  0  0  0  0  0  0
    4.8391    1.2452   18.8722 C   0  0  0  0  0  0  0  0  0  0  0  0
    5.4940    1.2414   17.6353 C   0  0  0  0  0  0  0  0  0  0  0  0
    6.6118    0.5420   17.3921 N   0  0  0  0  0  0  0  0  0  0  0  0
    7.1288   -0.1540   18.4125 C   0  0  0  0  0  0  0  0  0  0  0  0
    8.0643   -0.6773   18.2022 H   0  0  0  0  0  0  0  0  0  0  0  0
    5.1028    1.8272   16.8059 H   0  0  0  0  0  0  0  0  0  0  0  0
    3.9529    1.8566   19.0102 H   0  0  0  0  0  0  0  0  0  0  0  0
    4.9012    0.5008   20.9051 H   0  0  0  0  0  0  0  0  0  0  0  0
    8.2323   -1.3626   20.4138 H   0  0  0  0  0  0  0  0  0  0  0  0
    6.8756    0.6869   22.2037 H   0  0  0  0  0  0  0  0  0  0  0  0
    9.2290   -1.1102   22.9107 H   0  0  0  0  0  0  0  0  0  0  0  0
    8.1568   -0.2745   24.0216 H   0  0  0  0  0  0  0  0  0  0  0  0
    6.4736   -1.9704   23.7659 H   0  0  0  0  0  0  0  0  0  0  0  0
    7.7561   -2.9326   23.0207 H   0  0  0  0  0  0  0  0  0  0  0  0
    5.6448   -1.3393   21.7897 H   0  0  0  0  0  0  0  0  0  0  0  0
    7.1919   -3.7170   20.8468 H   0  0  0  0  0  0  0  0  0  0  0  0
    5.5028   -3.7057   21.3950 H   0  0  0  0  0  0  0  0  0  0  0  0
    5.9713   -2.8935   19.8742 H   0  0  0  0  0  0  0  0  0  0  0  0
  1  2  1  0
  2  3  1  0
  3  4  1  0
  4  5  1  0
  5  6  1  0
  6  7  1  0
  7  8  1  0
  8  9  2  0
  8 10  1  0
 10 11  1  0
 11 12  1  0
 12 13  1  0
 13 14  2  0
 14 15  1  0
 15 16  2  0
 16 17  1  0
 17 18  2  0
 17 19  1  0
 16 20  1  0
 15 21  1  0
 14 22  1  0
 12 23  1  6
 11 24  1  0
 11 25  1  0
 10 26  1  1
  7 27  1  0
  6 28  1  0
  6 29  1  0
  5 30  1  0
 30 31  1  0
 31 32  2  0
 32 33  1  0
 33 34  2  0
 34 35  1  0
 35 36  2  0
 36 37  1  0
 34 38  1  0
 33 39  1  0
 32 40  1  0
 30 41  1  6
  5 42  1  1
  4 43  1  0
  4 44  1  0
  3 45  1  0
  3 46  1  0
  2 47  1  0
  1 48  1  0
  1 49  1  0
  1 50  1  0
 30  2  1  0
 36 31  1  0
 12 10  1  0
 18 13  1  0
M  CHG  1   2   1
M  END
>  <plip>  (1) 
-0.13793103448275862

>  <filename>  (1) 
[H][c]1[n][c]([C@]2([H])[C]([H])([H])[C@@]2([H])[C](=[O])[N]([H])[C]([H])([H])[C@]2([H])[C]([H])([H])[C]([H])([H])[N+]([H])([C]([H])([H])[H])[C@@]2([H])[c]2[c]([H])[n][c]([H])[c]([H])[c]2[H])[c]([H])[c]([H])[c]1[H]

$$$$
