
     RDKit          3D

 27 29  0  0  0  0  0  0  0  0999 V2000
    5.8378    3.2278   26.3483 H   0  0  0  0  0  0  0  0  0  0  0  0
    6.0009    2.3250   26.0602 O   0  0  0  0  0  0  0  0  0  0  0  0
    6.4486    2.3568   24.7793 C   0  0  0  0  0  0  0  0  0  0  0  0
    6.6196    3.5435   24.0524 C   0  0  0  0  0  0  0  0  0  0  0  0
    6.3875    4.5092   24.5027 H   0  0  0  0  0  0  0  0  0  0  0  0
    7.1002    3.4711   22.7376 C   0  0  0  0  0  0  0  0  0  0  0  0
    7.2381    4.3816   22.1569 H   0  0  0  0  0  0  0  0  0  0  0  0
    7.4047    2.2393   22.1557 C   0  0  0  0  0  0  0  0  0  0  0  0
    7.7704    2.1827   21.1342 H   0  0  0  0  0  0  0  0  0  0  0  0
    7.2201    1.0467   22.8849 C   0  0  0  0  0  0  0  0  0  0  0  0
    7.5455   -0.2589   22.2825 C   0  0  0  0  0  0  0  0  0  0  0  0
    8.3382   -1.5303   23.1037 S   0  0  0  0  0  0  0  0  0  0  0  0
    8.4248   -2.5003   21.7144 N   0  0  0  0  0  0  0  0  0  0  0  0
    7.8917   -1.9220   20.7188 N   0  0  0  0  0  0  0  0  0  0  0  0
    7.3658   -0.6856   20.9718 C   0  0  0  0  0  0  0  0  0  0  0  0
    6.6448    0.0048   19.8993 C   0  0  0  0  0  0  0  0  0  0  0  0
    7.1687    0.0479   18.5962 C   0  0  0  0  0  0  0  0  0  0  0  0
    8.1192   -0.4380   18.3767 H   0  0  0  0  0  0  0  0  0  0  0  0
    6.5712    0.6782   17.5812 N   0  0  0  0  0  0  0  0  0  0  0  0
    5.4046    1.2929   17.8394 C   0  0  0  0  0  0  0  0  0  0  0  0
    4.9245    1.7832   16.9971 H   0  0  0  0  0  0  0  0  0  0  0  0
    4.7997    1.3066   19.0999 C   0  0  0  0  0  0  0  0  0  0  0  0
    3.8729    1.8430   19.2531 H   0  0  0  0  0  0  0  0  0  0  0  0
    5.4215    0.6418   20.1511 C   0  0  0  0  0  0  0  0  0  0  0  0
    5.0110    0.6385   21.1625 H   0  0  0  0  0  0  0  0  0  0  0  0
    6.7439    1.1210   24.2012 C   0  0  0  0  0  0  0  0  0  0  0  0
    6.5883    0.2342   24.8015 H   0  0  0  0  0  0  0  0  0  0  0  0
  1  2  1  0
  2  3  1  0
  3  4  2  0
  4  5  1  0
  4  6  1  0
  6  7  1  0
  6  8  2  0
  8  9  1  0
  8 10  1  0
 10 11  1  0
 11 12  1  0
 12 13  1  0
 13 14  2  0
 14 15  1  0
 15 16  1  0
 16 17  2  0
 17 18  1  0
 17 19  1  0
 19 20  2  0
 20 21  1  0
 20 22  1  0
 22 23  1  0
 22 24  2  0
 24 25  1  0
 10 26  2  0
 26 27  1  0
 26  3  1  0
 15 11  2  0
 24 16  1  0
M  END
>  <plip>  (1) 
-0.034482758620689655

>  <filename>  (1) 
[H][O][c]1[c]([H])[c]([H])[c]([H])[c](-[c]2[s][n][n][c]2-[c]2[c]([H])[n][c]([H])[c]([H])[c]2[H])[c]1[H]

$$$$
