
     RDKit          3D

 29 31  0  0  0  0  0  0  0  0999 V2000
    9.4547    0.1056   20.4019 O   0  0  0  0  0  0  0  0  0  0  0  0
    8.7464   -0.5888   21.1136 C   0  0  0  0  0  0  0  0  0  0  0  0
    7.3835   -0.6515   20.9456 N   0  0  0  0  0  0  0  0  0  0  0  0
    6.6675   -0.0137   19.8950 C   0  0  0  0  0  0  0  0  0  0  0  0
    5.4498    0.6228   20.1543 C   0  0  0  0  0  0  0  0  0  0  0  0
    4.8058    1.2968   19.1065 C   0  0  0  0  0  0  0  0  0  0  0  0
    5.3869    1.2935   17.8342 C   0  0  0  0  0  0  0  0  0  0  0  0
    6.5455    0.6714   17.5598 N   0  0  0  0  0  0  0  0  0  0  0  0
    7.1688    0.0522   18.5676 C   0  0  0  0  0  0  0  0  0  0  0  0
    8.1226   -0.4132   18.3350 H   0  0  0  0  0  0  0  0  0  0  0  0
    4.9159    1.8076   16.9998 H   0  0  0  0  0  0  0  0  0  0  0  0
    3.8773    1.8357   19.2667 H   0  0  0  0  0  0  0  0  0  0  0  0
    5.0464    0.6112   21.1658 H   0  0  0  0  0  0  0  0  0  0  0  0
    6.8766   -1.1996   21.6239 H   0  0  0  0  0  0  0  0  0  0  0  0
    9.3209   -1.4629   22.1964 C   0  0  0  0  0  0  0  0  0  0  0  0
   10.6590   -1.9016   22.0034 C   0  0  0  0  0  0  0  0  0  0  0  0
   11.3046   -2.7276   22.9116 C   0  0  0  0  0  0  0  0  0  0  0  0
   10.6062   -3.0964   24.0685 C   0  0  0  0  0  0  0  0  0  0  0  0
   10.9011   -3.8961   25.1497 N   0  0  0  0  0  0  0  0  0  0  0  0
    9.8225   -3.8282   25.9943 C   0  0  0  0  0  0  0  0  0  0  0  0
    9.8952   -4.6770   27.5293 S   0  0  0  0  0  0  0  0  0  0  0  0
    9.4098   -5.8287   27.0586 H   0  0  0  0  0  0  0  0  0  0  0  0
    8.8444   -3.1044   25.5432 N   0  0  0  0  0  0  0  0  0  0  0  0
    9.2991   -2.6329   24.3182 C   0  0  0  0  0  0  0  0  0  0  0  0
    8.6442   -1.8293   23.3746 C   0  0  0  0  0  0  0  0  0  0  0  0
    7.6323   -1.5251   23.6371 H   0  0  0  0  0  0  0  0  0  0  0  0
   11.8127   -4.1949   25.4629 H   0  0  0  0  0  0  0  0  0  0  0  0
   12.3280   -3.0299   22.7291 H   0  0  0  0  0  0  0  0  0  0  0  0
   11.1999   -1.5639   21.1222 H   0  0  0  0  0  0  0  0  0  0  0  0
  1  2  2  0
  2  3  1  0
  3  4  1  0
  4  5  2  0
  5  6  1  0
  6  7  2  0
  7  8  1  0
  8  9  2  0
  9 10  1  0
  7 11  1  0
  6 12  1  0
  5 13  1  0
  3 14  1  0
  2 15  1  0
 15 16  2  0
 16 17  1  0
 17 18  2  0
 18 19  1  0
 19 20  1  0
 20 21  1  0
 21 22  1  0
 20 23  2  0
 23 24  1  0
 24 25  2  0
 25 26  1  0
 19 27  1  0
 17 28  1  0
 16 29  1  0
  9  4  1  0
 25 15  1  0
 24 18  1  0
M  END
>  <plip>  (1) 
-0.14285714285714285

>  <filename>  (1) 
[H][S][c]1[n][c]2[c]([H])[c]([C](=[O])[N]([H])[c]3[c]([H])[n][c]([H])[c]([H])[c]3[H])[c]([H])[c]([H])[c]2[n]1[H]

$$$$
