
     RDKit          3D

 40 42  0  0  0  0  0  0  0  0999 V2000
   13.5040    4.9764   22.3549 F   0  0  0  0  0  0  0  0  0  0  0  0
   13.2207    5.6764   23.4690 C   0  0  0  0  0  0  0  0  0  0  0  0
   13.5656    6.9560   23.2235 F   0  0  0  0  0  0  0  0  0  0  0  0
   14.0197    5.1850   24.4337 F   0  0  0  0  0  0  0  0  0  0  0  0
   11.7822    5.5637   23.9123 C   0  0  0  0  0  0  0  0  0  0  0  0
   11.1569    6.6279   24.5769 C   0  0  0  0  0  0  0  0  0  0  0  0
    9.8358    6.4900   25.0083 C   0  0  0  0  0  0  0  0  0  0  0  0
    9.1565    5.2852   24.8102 C   0  0  0  0  0  0  0  0  0  0  0  0
    9.7880    4.1963   24.1835 C   0  0  0  0  0  0  0  0  0  0  0  0
    9.0571    2.9050   24.0167 C   0  0  2  0  0  0  0  0  0  0  0  0
    9.7717    1.5837   24.1769 C   0  0  0  0  0  0  0  0  0  0  0  0
    9.2753    2.0024   22.8236 C   0  0  1  0  0  0  0  0  0  0  0  0
    8.0826    1.3198   22.2229 C   0  0  0  0  0  0  0  0  0  0  0  0
    8.5281    0.0830   21.4791 N   0  0  0  0  0  4  0  0  0  0  0  0
    7.4079   -0.7473   20.9784 C   0  0  0  0  0  0  0  0  0  0  0  0
    6.6585    0.0013   19.9058 C   0  0  0  0  0  0  0  0  0  0  0  0
    5.4433    0.6510   20.1564 C   0  0  0  0  0  0  0  0  0  0  0  0
    4.8054    1.3128   19.1045 C   0  0  0  0  0  0  0  0  0  0  0  0
    5.4033    1.2959   17.8407 C   0  0  0  0  0  0  0  0  0  0  0  0
    6.5711    0.6876   17.5855 N   0  0  0  0  0  0  0  0  0  0  0  0
    7.1800    0.0741   18.6073 C   0  0  0  0  0  0  0  0  0  0  0  0
    8.1215   -0.4205   18.3683 H   0  0  0  0  0  0  0  0  0  0  0  0
    4.9250    1.7841   16.9927 H   0  0  0  0  0  0  0  0  0  0  0  0
    3.8747    1.8444   19.2503 H   0  0  0  0  0  0  0  0  0  0  0  0
    5.0200    0.6366   21.1658 H   0  0  0  0  0  0  0  0  0  0  0  0
    6.7115   -0.9555   21.8003 H   0  0  0  0  0  0  0  0  0  0  0  0
    7.7814   -1.7014   20.6005 H   0  0  0  0  0  0  0  0  0  0  0  0
    9.1627   -0.4252   22.1381 H   0  0  0  0  0  0  0  0  0  0  0  0
    9.0813    0.4224   20.6524 H   0  0  0  0  0  0  0  0  0  0  0  0
    7.5189    1.9861   21.5654 H   0  0  0  0  0  0  0  0  0  0  0  0
    7.4033    1.0395   23.0365 H   0  0  0  0  0  0  0  0  0  0  0  0
   10.0111    2.3596   22.1053 H   0  0  0  0  0  0  0  0  0  0  0  0
   10.8366    1.6168   24.3994 H   0  0  0  0  0  0  0  0  0  0  0  0
    9.2445    0.7728   24.6751 H   0  0  0  0  0  0  0  0  0  0  0  0
    8.0360    2.9428   24.3914 H   0  0  0  0  0  0  0  0  0  0  0  0
   11.1119    4.3483   23.7501 C   0  0  0  0  0  0  0  0  0  0  0  0
   11.6288    3.5083   23.2854 H   0  0  0  0  0  0  0  0  0  0  0  0
    8.1286    5.1825   25.1503 H   0  0  0  0  0  0  0  0  0  0  0  0
    9.3398    7.3263   25.4956 H   0  0  0  0  0  0  0  0  0  0  0  0
   11.7069    7.5492   24.7599 H   0  0  0  0  0  0  0  0  0  0  0  0
  1  2  1  0
  2  3  1  0
  2  4  1  0
  2  5  1  0
  5  6  2  0
  6  7  1  0
  7  8  2  0
  8  9  1  0
  9 10  1  0
 10 11  1  0
 11 12  1  0
 12 13  1  0
 13 14  1  0
 14 15  1  0
 15 16  1  0
 16 17  2  0
 17 18  1  0
 18 19  2  0
 19 20  1  0
 20 21  2  0
 21 22  1  0
 19 23  1  0
 18 24  1  0
 17 25  1  0
 15 26  1  0
 15 27  1  0
 14 28  1  0
 14 29  1  0
 13 30  1  0
 13 31  1  0
 12 32  1  6
 11 33  1  0
 11 34  1  0
 10 35  1  1
  9 36  2  0
 36 37  1  0
  8 38  1  0
  7 39  1  0
  6 40  1  0
 36  5  1  0
 12 10  1  0
 21 16  1  0
M  CHG  1  14   1
M  END
>  <plip>  (1) 
-0.14285714285714285

>  <filename>  (1) 
[H][c]1[n][c]([H])[c]([C]([H])([H])[N+]([H])([H])[C]([H])([H])[C@]2([H])[C]([H])([H])[C@@]2([H])[c]2[c]([H])[c]([H])[c]([H])[c]([C]([F])([F])[F])[c]2[H])[c]([H])[c]1[H]

$$$$
