
     RDKit          3D

 35 38  0  0  0  0  0  0  0  0999 V2000
   11.9806   -1.3455   21.3659 C   0  0  0  0  0  0  0  0  0  0  0  0
   10.5892   -0.7825   21.3315 C   0  0  0  0  0  0  0  0  0  0  0  0
    9.5170   -1.4264   20.9455 N   0  0  0  0  0  0  0  0  0  0  0  0
    8.5143   -0.5473   21.2049 N   0  0  0  0  0  0  0  0  0  0  0  0
    7.0794   -0.8343   21.0208 C   0  0  0  0  0  0  0  0  0  0  0  0
    6.4735   -0.0276   19.8927 C   0  0  0  0  0  0  0  0  0  0  0  0
    5.2878    0.6872   20.0868 C   0  0  0  0  0  0  0  0  0  0  0  0
    4.7686    1.3946   19.0030 C   0  0  0  0  0  0  0  0  0  0  0  0
    5.4252    1.3616   17.7682 C   0  0  0  0  0  0  0  0  0  0  0  0
    6.5578    0.6641   17.5733 N   0  0  0  0  0  0  0  0  0  0  0  0
    7.0698   -0.0103   18.6193 C   0  0  0  0  0  0  0  0  0  0  0  0
    7.9830   -0.5768   18.4661 H   0  0  0  0  0  0  0  0  0  0  0  0
    4.9986    1.9168   16.9380 H   0  0  0  0  0  0  0  0  0  0  0  0
    3.8612    1.9779   19.1031 H   0  0  0  0  0  0  0  0  0  0  0  0
    4.7821    0.6927   21.0522 H   0  0  0  0  0  0  0  0  0  0  0  0
    6.5396   -0.6386   21.9554 H   0  0  0  0  0  0  0  0  0  0  0  0
    6.9762   -1.9003   20.7993 H   0  0  0  0  0  0  0  0  0  0  0  0
    9.0237    0.6087   21.7730 C   0  0  0  0  0  0  0  0  0  0  0  0
    8.1987    1.7517   22.2550 C   0  0  0  0  0  0  0  0  0  0  0  0
    6.8772    1.7282   22.3584 N   0  0  0  0  0  0  0  0  0  0  0  0
    6.5416    2.9927   22.7720 N   0  0  0  0  0  0  0  0  0  0  0  0
    7.6135    3.8294   22.9349 C   0  0  0  0  0  0  0  0  0  0  0  0
    7.6445    5.1117   23.3037 N   0  0  0  0  0  0  0  0  0  0  0  0
    8.8703    5.6520   23.4233 C   0  0  0  0  0  0  0  0  0  0  0  0
   10.0678    4.9404   23.1944 C   0  0  0  0  0  0  0  0  0  0  0  0
   11.7553    5.8233   23.4135 Br  0  0  0  0  0  0  0  0  0  0  0  0
    9.9976    3.5979   22.7980 C   0  0  0  0  0  0  0  0  0  0  0  0
    8.7183    3.0593   22.6601 C   0  0  0  0  0  0  0  0  0  0  0  0
   10.8930    2.9981   22.6145 H   0  0  0  0  0  0  0  0  0  0  0  0
    8.9203    6.6904   23.7238 H   0  0  0  0  0  0  0  0  0  0  0  0
    5.6013    3.3089   22.9787 H   0  0  0  0  0  0  0  0  0  0  0  0
   10.3342    0.4912   21.8099 N   0  0  0  0  0  0  0  0  0  0  0  0
   12.4483   -1.2666   20.3826 H   0  0  0  0  0  0  0  0  0  0  0  0
   12.5839   -0.7793   22.0805 H   0  0  0  0  0  0  0  0  0  0  0  0
   11.9569   -2.3949   21.6729 H   0  0  0  0  0  0  0  0  0  0  0  0
  1  2  1  0
  2  3  2  0
  3  4  1  0
  4  5  1  0
  5  6  1  0
  6  7  2  0
  7  8  1  0
  8  9  2  0
  9 10  1  0
 10 11  2  0
 11 12  1  0
  9 13  1  0
  8 14  1  0
  7 15  1  0
  5 16  1  0
  5 17  1  0
  4 18  1  0
 18 19  1  0
 19 20  2  0
 20 21  1  0
 21 22  1  0
 22 23  2  0
 23 24  1  0
 24 25  2  0
 25 26  1  0
 25 27  1  0
 27 28  2  0
 27 29  1  0
 24 30  1  0
 21 31  1  0
 18 32  2  0
  1 33  1  0
  1 34  1  0
  1 35  1  0
 32  2  1  0
 11  6  1  0
 28 19  1  0
 28 22  1  0
M  END
>  <plip>  (1) 
-0.06896551724137931

>  <filename>  (1) 
[H][c]1[n][c]([H])[c]([C]([H])([H])[n]2[n][c]([C]([H])([H])[H])[n][c]2-[c]2[n][n]([H])[c]3[n][c]([H])[c]([Br])[c]([H])[c]23)[c]([H])[c]1[H]

$$$$
