
     RDKit          3D

 18 19  0  0  0  0  0  0  0  0999 V2000
    7.3101   -2.7989   24.6106 H   0  0  0  0  0  0  0  0  0  0  0  0
    6.9581   -2.5196   23.6268 C   0  0  0  0  0  0  0  0  0  0  0  0
    5.9618   -3.0125   22.9802 N   0  0  0  0  0  0  0  0  0  0  0  0
    5.9410   -2.2852   21.7947 C   0  0  0  0  0  0  0  0  0  0  0  0
    5.2173   -2.4707   21.0157 H   0  0  0  0  0  0  0  0  0  0  0  0
    6.9531   -1.3855   21.8257 C   0  0  0  0  0  0  0  0  0  0  0  0
    7.4883   -0.4557   21.0200 O   0  0  0  0  0  0  0  0  0  0  0  0
    6.7163    0.0432   19.9845 C   0  0  0  0  0  0  0  0  0  0  0  0
    7.2286    0.0089   18.6796 C   0  0  0  0  0  0  0  0  0  0  0  0
    8.1750   -0.4969   18.4907 H   0  0  0  0  0  0  0  0  0  0  0  0
    6.6092    0.5896   17.6406 N   0  0  0  0  0  0  0  0  0  0  0  0
    5.4527    1.2327   17.8794 C   0  0  0  0  0  0  0  0  0  0  0  0
    4.9916    1.7380   17.0282 H   0  0  0  0  0  0  0  0  0  0  0  0
    4.8557    1.2693   19.1454 C   0  0  0  0  0  0  0  0  0  0  0  0
    3.9201    1.7934   19.2771 H   0  0  0  0  0  0  0  0  0  0  0  0
    5.4893    0.6512   20.2306 C   0  0  0  0  0  0  0  0  0  0  0  0
    5.0795    0.6524   21.2428 H   0  0  0  0  0  0  0  0  0  0  0  0
    7.6212   -1.5251   22.9866 O   0  0  0  0  0  0  0  0  0  0  0  0
  1  2  1  0
  2  3  2  0
  3  4  1  0
  4  5  1  0
  4  6  2  0
  6  7  1  0
  7  8  1  0
  8  9  2  0
  9 10  1  0
  9 11  1  0
 11 12  2  0
 12 13  1  0
 12 14  1  0
 14 15  1  0
 14 16  2  0
 16 17  1  0
  6 18  1  0
 18  2  1  0
 16  8  1  0
M  END
>  <plip>  (1) 
-0.03571428571428571

>  <filename>  (1) 
[H][c]1[n][c]([H])[c]([O][c]2[c]([H])[n][c]([H])[c]([H])[c]2[H])[o]1

$$$$
