
     RDKit          3D

 33 35  0  0  0  0  0  0  0  0999 V2000
    4.9265    1.7519   16.6243 H   0  0  0  0  0  0  0  0  0  0  0  0
    5.3497    1.2461   17.4890 C   0  0  0  0  0  0  0  0  0  0  0  0
    6.5205    0.6253   17.2790 N   0  0  0  0  0  0  0  0  0  0  0  0
    7.0993    0.0295   18.3251 C   0  0  0  0  0  0  0  0  0  0  0  0
    8.0521   -0.4694   18.1466 H   0  0  0  0  0  0  0  0  0  0  0  0
    6.5569    0.0378   19.6223 C   0  0  0  0  0  0  0  0  0  0  0  0
    7.5509   -0.5950   20.9811 S   0  0  0  0  0  0  0  0  0  0  0  0
    8.5843    0.8168   21.3057 C   0  0  0  0  0  0  0  0  0  0  0  0
    9.7941    1.0290   20.8312 N   0  0  0  0  0  0  0  0  0  0  0  0
   10.1588    2.2475   21.2905 N   0  0  0  0  0  0  0  0  0  0  0  0
    9.2434    2.7606   22.0237 N   0  0  0  0  0  0  0  0  0  0  0  0
    8.2235    1.8815   22.0549 N   0  0  0  0  0  0  0  0  0  0  0  0
    7.1659    1.9793   23.0675 C   0  0  0  0  0  0  0  0  0  0  0  0
    7.2052    3.0030   23.4509 H   0  0  0  0  0  0  0  0  0  0  0  0
    6.1973    1.8306   22.5786 H   0  0  0  0  0  0  0  0  0  0  0  0
    7.4102    0.9785   24.1787 C   0  0  0  0  0  0  0  0  0  0  0  0
    8.4711    1.1986   25.0641 C   0  0  0  0  0  0  0  0  0  0  0  0
    8.9704    2.1654   25.0679 H   0  0  0  0  0  0  0  0  0  0  0  0
    8.9116    0.1788   25.9054 C   0  0  0  0  0  0  0  0  0  0  0  0
    9.7569    0.3698   26.5624 H   0  0  0  0  0  0  0  0  0  0  0  0
    8.2652   -1.0700   25.9029 C   0  0  0  0  0  0  0  0  0  0  0  0
    8.8329   -2.2176   26.7045 C   0  0  0  0  0  0  0  0  0  0  0  0
    9.4632   -3.1209   25.9271 F   0  0  0  0  0  0  0  0  0  0  0  0
    7.8777   -2.8954   27.3683 F   0  0  0  0  0  0  0  0  0  0  0  0
    9.7297   -1.7828   27.6056 F   0  0  0  0  0  0  0  0  0  0  0  0
    7.1094   -1.2481   25.1293 C   0  0  0  0  0  0  0  0  0  0  0  0
    6.5354   -2.1696   25.1946 H   0  0  0  0  0  0  0  0  0  0  0  0
    6.7081   -0.2288   24.2622 C   0  0  0  0  0  0  0  0  0  0  0  0
    5.8614   -0.3930   23.6149 H   0  0  0  0  0  0  0  0  0  0  0  0
    5.3014    0.6265   19.8145 C   0  0  0  0  0  0  0  0  0  0  0  0
    4.8177    0.6122   20.7936 H   0  0  0  0  0  0  0  0  0  0  0  0
    4.6927    1.2533   18.7226 C   0  0  0  0  0  0  0  0  0  0  0  0
    3.7419    1.7652   18.8220 H   0  0  0  0  0  0  0  0  0  0  0  0
  1  2  1  0
  2  3  2  0
  3  4  1  0
  4  5  1  0
  4  6  2  0
  6  7  1  0
  7  8  1  0
  8  9  2  0
  9 10  1  0
 10 11  2  0
 11 12  1  0
 12 13  1  0
 13 14  1  0
 13 15  1  0
 13 16  1  0
 16 17  2  0
 17 18  1  0
 17 19  1  0
 19 20  1  0
 19 21  2  0
 21 22  1  0
 22 23  1  0
 22 24  1  0
 22 25  1  0
 21 26  1  0
 26 27  1  0
 26 28  2  0
 28 29  1  0
  6 30  1  0
 30 31  1  0
 30 32  2  0
 32 33  1  0
 32  2  1  0
 12  8  1  0
 28 16  1  0
M  END
>  <plip>  (1) 
-0.07142857142857142

>  <filename>  (1) 
[H][c]1[n][c]([H])[c]([S][c]2[n][n][n][n]2[C]([H])([H])[c]2[c]([H])[c]([H])[c]([C]([F])([F])[F])[c]([H])[c]2[H])[c]([H])[c]1[H]

$$$$
