
     RDKit          3D

 49 52  0  0  0  0  0  0  0  0999 V2000
    3.9947    2.9983   25.5506 C   0  0  0  0  0  0  0  0  0  0  0  0
    4.7714    3.2244   24.2817 C   0  0  0  0  0  0  0  0  0  0  0  0
    4.1811    3.8005   23.1449 C   0  0  0  0  0  0  0  0  0  0  0  0
    4.8936    3.9677   21.9482 C   0  0  0  0  0  0  0  0  0  0  0  0
    6.2270    3.5632   21.8762 C   0  0  0  0  0  0  0  0  0  0  0  0
    6.8408    3.0065   22.9870 C   0  0  0  0  0  0  0  0  0  0  0  0
    6.1193    2.8339   24.1599 C   0  0  0  0  0  0  0  0  0  0  0  0
    6.8338    2.1789   25.1179 O   0  0  0  0  0  0  0  0  0  0  0  0
    8.1635    1.9341   24.6171 C   0  0  0  0  0  0  0  0  0  0  0  0
    8.1971    2.3498   23.1199 C   0  0  0  0  0  0  0  0  0  0  0  0
    8.4586    1.2127   22.1157 C   0  0  0  0  0  0  0  0  0  0  0  0
    9.3566    1.2815   21.2958 O   0  0  0  0  0  0  0  0  0  0  0  0
    7.6288    0.1284   22.1978 N   0  0  0  0  0  0  0  0  0  0  0  0
    7.4167   -0.6979   21.0119 C   0  0  0  0  0  0  0  0  0  0  0  0
    6.6791   -1.9903   21.3663 C   0  0  0  0  0  0  0  0  0  0  0  0
    7.4354   -2.8696   22.3663 C   0  0  0  0  0  0  0  0  0  0  0  0
    6.7312   -4.1808   22.6533 C   0  0  0  0  0  0  0  0  0  0  0  0
    7.5490   -5.3350   23.1647 C   0  0  0  0  0  0  0  0  0  0  0  0
    6.9872   -5.3703   21.7623 C   0  0  0  0  0  0  0  0  0  0  0  0
    7.6692   -5.2284   20.9211 H   0  0  0  0  0  0  0  0  0  0  0  0
    6.1699   -6.0546   21.5342 H   0  0  0  0  0  0  0  0  0  0  0  0
    7.1250   -5.9869   23.9275 H   0  0  0  0  0  0  0  0  0  0  0  0
    8.6203   -5.1731   23.3002 H   0  0  0  0  0  0  0  0  0  0  0  0
    5.7191   -4.0616   23.0559 H   0  0  0  0  0  0  0  0  0  0  0  0
    7.5912   -2.3171   23.3063 H   0  0  0  0  0  0  0  0  0  0  0  0
    8.4400   -3.0851   21.9604 H   0  0  0  0  0  0  0  0  0  0  0  0
    5.6696   -1.7467   21.7350 H   0  0  0  0  0  0  0  0  0  0  0  0
    6.5243   -2.5459   20.4313 H   0  0  0  0  0  0  0  0  0  0  0  0
    6.6715    0.0530   19.9189 C   0  0  0  0  0  0  0  0  0  0  0  0
    5.4395    0.6756   20.1522 C   0  0  0  0  0  0  0  0  0  0  0  0
    4.7998    1.3215   19.0936 C   0  0  0  0  0  0  0  0  0  0  0  0
    5.3953    1.2940   17.8267 C   0  0  0  0  0  0  0  0  0  0  0  0
    6.5550    0.6747   17.5731 N   0  0  0  0  0  0  0  0  0  0  0  0
    7.1694    0.0830   18.6088 C   0  0  0  0  0  0  0  0  0  0  0  0
    8.1164   -0.4057   18.3725 H   0  0  0  0  0  0  0  0  0  0  0  0
    4.9268    1.7939   16.9808 H   0  0  0  0  0  0  0  0  0  0  0  0
    3.8688    1.8584   19.2400 H   0  0  0  0  0  0  0  0  0  0  0  0
    4.9877    0.6623   21.1470 H   0  0  0  0  0  0  0  0  0  0  0  0
    8.4190   -0.9456   20.6317 H   0  0  0  0  0  0  0  0  0  0  0  0
    6.8477    0.2334   22.8279 H   0  0  0  0  0  0  0  0  0  0  0  0
    9.0219    3.0367   22.8995 H   0  0  0  0  0  0  0  0  0  0  0  0
    8.3820    0.8731   24.7858 H   0  0  0  0  0  0  0  0  0  0  0  0
    8.8556    2.5342   25.2182 H   0  0  0  0  0  0  0  0  0  0  0  0
    6.7757    3.6288   20.9627 H   0  0  0  0  0  0  0  0  0  0  0  0
    4.4075    4.3945   21.0731 H   0  0  0  0  0  0  0  0  0  0  0  0
    3.1423    4.1273   23.1952 H   0  0  0  0  0  0  0  0  0  0  0  0
    3.1447    3.6853   25.6014 H   0  0  0  0  0  0  0  0  0  0  0  0
    4.6298    3.1475   26.4297 H   0  0  0  0  0  0  0  0  0  0  0  0
    3.6145    1.9702   25.5923 H   0  0  0  0  0  0  0  0  0  0  0  0
  1  2  1  0
  2  3  2  0
  3  4  1  0
  4  5  2  0
  5  6  1  0
  6  7  2  0
  7  8  1  0
  8  9  1  0
  9 10  1  0
 10 11  1  0
 11 12  2  0
 11 13  1  0
 13 14  1  0
 14 15  1  0
 15 16  1  0
 16 17  1  0
 17 18  1  0
 18 19  1  0
 19 20  1  0
 19 21  1  0
 18 22  1  0
 18 23  1  0
 17 24  1  0
 16 25  1  0
 16 26  1  0
 15 27  1  0
 15 28  1  0
 14 29  1  0
 29 30  2  0
 30 31  1  0
 31 32  2  0
 32 33  1  0
 33 34  2  0
 34 35  1  0
 32 36  1  0
 31 37  1  0
 30 38  1  0
 14 39  1  0
 13 40  1  0
 10 41  1  0
  9 42  1  0
  9 43  1  0
  5 44  1  0
  4 45  1  0
  3 46  1  0
  1 47  1  0
  1 48  1  0
  1 49  1  0
  7  2  1  0
 19 17  1  0
 34 29  1  0
 10  6  1  0
M  END
>  <plip>  (1) 
-0.10714285714285714

>  <filename>  (1) 
[H][c]1[n][c]([H])[c]([C]([H])([N]([H])[C](=[O])[C]2([H])[c]3[c]([H])[c]([H])[c]([H])[c]([C]([H])([H])[H])[c]3[O][C]2([H])[H])[C]([H])([H])[C]([H])([H])[C]2([H])[C]([H])([H])[C]2([H])[H])[c]([H])[c]1[H]

$$$$
