
     RDKit          3D

 36 38  0  0  0  0  0  0  0  0999 V2000
    9.1255    3.4203   25.5030 Br  0  0  0  0  0  0  0  0  0  0  0  0
    9.2202    1.6601   24.7705 C   0  0  0  0  0  0  0  0  0  0  0  0
    9.9509    1.4095   23.6044 C   0  0  0  0  0  0  0  0  0  0  0  0
    9.9599    0.1263   23.0431 C   0  0  0  0  0  0  0  0  0  0  0  0
    9.2488   -0.9170   23.6466 C   0  0  0  0  0  0  0  0  0  0  0  0
    9.2915   -2.2962   23.0431 C   0  0  0  0  0  0  0  0  0  0  0  0
    7.9849   -2.9543   23.0920 N   0  0  0  0  0  0  0  0  0  0  0  0
    7.5628   -3.8731   24.0336 C   0  0  0  0  0  0  0  0  0  0  0  0
    6.3506   -4.3080   23.5931 C   0  0  0  0  0  0  0  0  0  0  0  0
    6.0128   -3.7117   22.3836 N   0  0  0  0  0  0  0  0  0  0  0  0
    7.0019   -2.9115   22.1172 C   0  0  0  0  0  0  0  0  0  0  0  0
    6.9471   -2.1619   20.9668 N   0  0  0  0  0  0  0  0  0  0  0  0
    7.4049   -0.7734   20.9929 C   0  0  0  0  0  0  0  0  0  0  0  0
    6.6485   -0.0511   19.9166 C   0  0  0  0  0  0  0  0  0  0  0  0
    5.4420    0.6145   20.1620 C   0  0  0  0  0  0  0  0  0  0  0  0
    4.8215    1.2791   19.1018 C   0  0  0  0  0  0  0  0  0  0  0  0
    5.4164    1.2721   17.8388 C   0  0  0  0  0  0  0  0  0  0  0  0
    6.5682    0.6207   17.5943 N   0  0  0  0  0  0  0  0  0  0  0  0
    7.1656   -0.0196   18.6187 C   0  0  0  0  0  0  0  0  0  0  0  0
    8.1134   -0.5097   18.4257 H   0  0  0  0  0  0  0  0  0  0  0  0
    4.9373    1.8249   17.0362 H   0  0  0  0  0  0  0  0  0  0  0  0
    3.8993    1.8338   19.2369 H   0  0  0  0  0  0  0  0  0  0  0  0
    4.9910    0.6396   21.1505 H   0  0  0  0  0  0  0  0  0  0  0  0
    7.2047   -0.3087   21.9646 H   0  0  0  0  0  0  0  0  0  0  0  0
    8.4827   -0.7158   20.8079 H   0  0  0  0  0  0  0  0  0  0  0  0
    6.0822   -2.3216   20.4715 H   0  0  0  0  0  0  0  0  0  0  0  0
    5.7341   -5.0402   24.1131 H   0  0  0  0  0  0  0  0  0  0  0  0
    8.0678   -4.2136   24.9334 H   0  0  0  0  0  0  0  0  0  0  0  0
   10.0185   -2.9103   23.5879 H   0  0  0  0  0  0  0  0  0  0  0  0
    9.6048   -2.2320   21.9979 H   0  0  0  0  0  0  0  0  0  0  0  0
    8.5334   -0.6656   24.8265 C   0  0  0  0  0  0  0  0  0  0  0  0
    8.5256    0.6166   25.3884 C   0  0  0  0  0  0  0  0  0  0  0  0
    7.9762    0.8145   26.3033 H   0  0  0  0  0  0  0  0  0  0  0  0
    7.9809   -1.4737   25.2963 H   0  0  0  0  0  0  0  0  0  0  0  0
   10.5187   -0.0711   22.1324 H   0  0  0  0  0  0  0  0  0  0  0  0
   10.5030    2.2178   23.1334 H   0  0  0  0  0  0  0  0  0  0  0  0
  1  2  1  0
  2  3  2  0
  3  4  1  0
  4  5  2  0
  5  6  1  0
  6  7  1  0
  7  8  1  0
  8  9  2  0
  9 10  1  0
 10 11  2  0
 11 12  1  0
 12 13  1  0
 13 14  1  0
 14 15  2  0
 15 16  1  0
 16 17  2  0
 17 18  1  0
 18 19  2  0
 19 20  1  0
 17 21  1  0
 16 22  1  0
 15 23  1  0
 13 24  1  0
 13 25  1  0
 12 26  1  0
  9 27  1  0
  8 28  1  0
  6 29  1  0
  6 30  1  0
  5 31  1  0
 31 32  2  0
 32 33  1  0
 31 34  1  0
  4 35  1  0
  3 36  1  0
 32  2  1  0
 11  7  1  0
 19 14  1  0
M  END
>  <plip>  (1) 
-0.03571428571428571

>  <filename>  (1) 
[H][c]1[n][c]([H])[c]([C]([H])([H])[N]([H])[c]2[n][c]([H])[c]([H])[n]2[C]([H])([H])[c]2[c]([H])[c]([H])[c]([Br])[c]([H])[c]2[H])[c]([H])[c]1[H]

$$$$
