
     RDKit          3D

 28 29  0  0  0  0  0  0  0  0999 V2000
    8.7009    2.4642   25.4339 H   0  0  0  0  0  0  0  0  0  0  0  0
    8.5466    1.6003   25.0107 O   0  0  0  0  0  0  0  0  0  0  0  0
    8.9082    1.7148   23.6711 N   0  0  0  0  0  0  0  0  0  0  0  0
    8.1974    1.3301   23.0631 H   0  0  0  0  0  0  0  0  0  0  0  0
   10.1963    1.5838   23.2184 C   0  0  0  0  0  0  0  0  0  0  0  0
   11.2034    1.8119   23.8509 O   0  0  0  0  0  0  0  0  0  0  0  0
   10.2409    1.3492   21.7303 C   0  0  0  0  0  0  0  0  0  0  0  0
   11.0227    1.9688   21.3043 H   0  0  0  0  0  0  0  0  0  0  0  0
    9.5092    0.5334   20.9569 C   0  0  0  0  0  0  0  0  0  0  0  0
    9.5633    0.6905   19.8788 H   0  0  0  0  0  0  0  0  0  0  0  0
    8.5920   -0.5057   21.4019 C   0  0  0  0  0  0  0  0  0  0  0  0
    7.3163   -0.7619   20.9299 C   0  0  0  0  0  0  0  0  0  0  0  0
    6.6176   -0.0314   19.8631 C   0  0  0  0  0  0  0  0  0  0  0  0
    7.1431    0.0664   18.5553 C   0  0  0  0  0  0  0  0  0  0  0  0
    8.0831   -0.4296   18.3133 H   0  0  0  0  0  0  0  0  0  0  0  0
    6.5482    0.7057   17.5426 N   0  0  0  0  0  0  0  0  0  0  0  0
    5.3870    1.3245   17.8062 C   0  0  0  0  0  0  0  0  0  0  0  0
    4.9228    1.8422   16.9679 H   0  0  0  0  0  0  0  0  0  0  0  0
    4.7794    1.3175   19.0651 C   0  0  0  0  0  0  0  0  0  0  0  0
    3.8512    1.8612   19.2085 H   0  0  0  0  0  0  0  0  0  0  0  0
    5.3958    0.6207   20.1066 C   0  0  0  0  0  0  0  0  0  0  0  0
    4.9610    0.5952   21.1064 H   0  0  0  0  0  0  0  0  0  0  0  0
    6.7274   -1.8347   21.8030 C   0  0  0  0  0  0  0  0  0  0  0  0
    5.6629   -2.4073   21.7623 O   0  0  0  0  0  0  0  0  0  0  0  0
    7.7099   -2.1488   22.7250 N   0  0  0  0  0  0  0  0  0  0  0  0
    7.5947   -2.8448   23.4369 H   0  0  0  0  0  0  0  0  0  0  0  0
    8.8678   -1.4256   22.5496 C   0  0  0  0  0  0  0  0  0  0  0  0
    9.8574   -1.5712   23.2289 O   0  0  0  0  0  0  0  0  0  0  0  0
  1  2  1  0
  2  3  1  0
  3  4  1  0
  3  5  1  0
  5  6  2  0
  5  7  1  0
  7  8  1  0
  7  9  2  3
  9 10  1  0
  9 11  1  0
 11 12  2  0
 12 13  1  0
 13 14  2  0
 14 15  1  0
 14 16  1  0
 16 17  2  0
 17 18  1  0
 17 19  1  0
 19 20  1  0
 19 21  2  0
 21 22  1  0
 12 23  1  0
 23 24  2  0
 23 25  1  0
 25 26  1  0
 25 27  1  0
 27 28  2  0
 27 11  1  0
 21 13  1  0
M  END
>  <plip>  (1) 
-0.07142857142857142

>  <filename>  (1) 
[H][O][N]([H])[C](=[O])[C]([H])=[C]([H])[C]1=[C]([c]2[c]([H])[n][c]([H])[c]([H])[c]2[H])[C](=[O])[N]([H])[C]1=[O]

$$$$
