
     RDKit          3D

 22 24  0  0  0  0  0  0  0  0999 V2000
    4.8050    1.3147   19.1055 C   0  0  0  0  0  0  0  0  0  0  0  0
    5.4003    1.2959   17.8372 C   0  0  0  0  0  0  0  0  0  0  0  0
    6.5639    0.6801   17.5631 N   0  0  0  0  0  0  0  0  0  0  0  0
    7.1772    0.0723   18.5826 C   0  0  0  0  0  0  0  0  0  0  0  0
    6.6666    0.0200   19.8988 C   0  0  0  0  0  0  0  0  0  0  0  0
    7.3357   -0.7183   20.9776 C   0  0  0  0  0  0  0  0  0  0  0  0
    6.7277   -1.6644   21.7709 C   0  0  0  0  0  0  0  0  0  0  0  0
    7.3684   -2.3828   22.7606 N   0  0  0  0  0  0  0  0  0  0  0  0
    8.6340   -2.1234   22.9810 C   0  0  0  0  0  0  0  0  0  0  0  0
    9.3662   -1.1502   22.2213 C   0  0  0  0  0  0  0  0  0  0  0  0
   10.6134   -0.7260   22.2979 N   0  0  0  0  0  0  0  0  0  0  0  0
   10.7611    0.2424   21.3630 N   0  0  0  0  0  0  0  0  0  0  0  0
    9.6223    0.3906   20.7398 C   0  0  0  0  0  0  0  0  0  0  0  0
    8.6945   -0.4766   21.2220 N   0  0  0  0  0  0  0  0  0  0  0  0
    9.3996    1.0862   19.9524 H   0  0  0  0  0  0  0  0  0  0  0  0
    9.1694   -2.6483   23.7607 H   0  0  0  0  0  0  0  0  0  0  0  0
    5.6823   -1.9019   21.5982 H   0  0  0  0  0  0  0  0  0  0  0  0
    5.4368    0.6480   20.1538 C   0  0  0  0  0  0  0  0  0  0  0  0
    5.0080    0.6319   21.1609 H   0  0  0  0  0  0  0  0  0  0  0  0
    8.1215   -0.4312   18.3720 H   0  0  0  0  0  0  0  0  0  0  0  0
    4.9097    1.7798   16.9985 H   0  0  0  0  0  0  0  0  0  0  0  0
    3.8706    1.8461   19.2611 H   0  0  0  0  0  0  0  0  0  0  0  0
  1  2  2  0
  2  3  1  0
  3  4  2  0
  4  5  1  0
  5  6  1  0
  6  7  2  0
  7  8  1  0
  8  9  2  0
  9 10  1  0
 10 11  2  0
 11 12  1  0
 12 13  2  0
 13 14  1  0
 13 15  1  0
  9 16  1  0
  7 17  1  0
  5 18  2  0
 18 19  1  0
  4 20  1  0
  2 21  1  0
  1 22  1  0
 18  1  1  0
 14  6  1  0
 14 10  1  0
M  END
>  <plip>  (1) 
-0.07142857142857142

>  <filename>  (1) 
[H][c]1[n][c]([H])[c](-[c]2[c]([H])[n][c]([H])[c]3[n][n][c]([H])[n]23)[c]([H])[c]1[H]

$$$$
