
     RDKit          3D

 30 32  0  0  0  0  0  0  0  0999 V2000
    4.9545    1.7789   16.9640 H   0  0  0  0  0  0  0  0  0  0  0  0
    5.4095    1.3244   17.8463 C   0  0  0  0  0  0  0  0  0  0  0  0
    6.5822    0.6984   17.6572 N   0  0  0  0  0  0  0  0  0  0  0  0
    7.1378    0.1028   18.7183 C   0  0  0  0  0  0  0  0  0  0  0  0
    8.0923   -0.3948   18.5479 H   0  0  0  0  0  0  0  0  0  0  0  0
    6.5924    0.1109   20.0163 C   0  0  0  0  0  0  0  0  0  0  0  0
    7.3202   -0.5915   21.0873 C   0  0  0  0  0  0  0  0  0  0  0  0
    7.8771   -1.8495   21.0699 C   0  0  0  0  0  0  0  0  0  0  0  0
    7.7327   -2.5897   20.3163 H   0  0  0  0  0  0  0  0  0  0  0  0
    8.5050   -1.9968   22.3146 C   0  0  0  0  0  0  0  0  0  0  0  0
    9.0633   -2.8331   22.7089 H   0  0  0  0  0  0  0  0  0  0  0  0
    8.3541   -0.9269   23.0717 N   0  0  0  0  0  0  0  0  0  0  0  0
    7.6011   -0.0992   22.3382 N   0  0  0  0  0  0  0  0  0  0  0  0
    7.1833    1.0724   22.8867 N   0  0  0  0  0  0  0  0  0  0  0  0
    7.1687    1.8679   22.2779 H   0  0  0  0  0  0  0  0  0  0  0  0
    6.8580    1.2359   24.2281 C   0  0  0  0  0  0  0  0  0  0  0  0
    7.0400    2.5147   24.7697 C   0  0  0  0  0  0  0  0  0  0  0  0
    7.4229    3.2962   24.1208 H   0  0  0  0  0  0  0  0  0  0  0  0
    6.7956    2.7546   26.1198 C   0  0  0  0  0  0  0  0  0  0  0  0
    6.9859    3.7324   26.5482 H   0  0  0  0  0  0  0  0  0  0  0  0
    6.3377    1.7157   26.9297 C   0  0  0  0  0  0  0  0  0  0  0  0
    6.0904    2.0008   28.6260 Cl  0  0  0  0  0  0  0  0  0  0  0  0
    6.1002    0.4480   26.3887 C   0  0  0  0  0  0  0  0  0  0  0  0
    5.7516   -0.3487   27.0333 H   0  0  0  0  0  0  0  0  0  0  0  0
    6.3601    0.2058   25.0362 C   0  0  0  0  0  0  0  0  0  0  0  0
    6.2193   -0.7808   24.6060 H   0  0  0  0  0  0  0  0  0  0  0  0
    5.3684    0.7769   20.1979 C   0  0  0  0  0  0  0  0  0  0  0  0
    4.8968    0.8161   21.1819 H   0  0  0  0  0  0  0  0  0  0  0  0
    4.7676    1.3791   19.0892 C   0  0  0  0  0  0  0  0  0  0  0  0
    3.8079    1.8773   19.1600 H   0  0  0  0  0  0  0  0  0  0  0  0
  1  2  1  0
  2  3  2  0
  3  4  1  0
  4  5  1  0
  4  6  2  0
  6  7  1  0
  7  8  2  0
  8  9  1  0
  8 10  1  0
 10 11  1  0
 10 12  2  0
 12 13  1  0
 13 14  1  0
 14 15  1  0
 14 16  1  0
 16 17  2  0
 17 18  1  0
 17 19  1  0
 19 20  1  0
 19 21  2  0
 21 22  1  0
 21 23  1  0
 23 24  1  0
 23 25  2  0
 25 26  1  0
  6 27  1  0
 27 28  1  0
 27 29  2  0
 29 30  1  0
 29  2  1  0
 13  7  1  0
 25 16  1  0
M  END
>  <plip>  (1) 
-0.03571428571428571

>  <filename>  (1) 
[H][c]1[n][c]([H])[c](-[c]2[c]([H])[c]([H])[n][n]2[N]([H])[c]2[c]([H])[c]([H])[c]([Cl])[c]([H])[c]2[H])[c]([H])[c]1[H]

$$$$
