
     RDKit          3D

 29 31  0  0  0  0  0  0  0  0999 V2000
   10.4760   -1.3075   21.8567 H   0  0  0  0  0  0  0  0  0  0  0  0
    9.3958   -1.3204   21.8848 C   0  0  0  0  0  0  0  0  0  0  0  0
    8.7644   -0.6847   20.8970 N   0  0  0  0  0  0  0  0  0  0  0  0
    7.4305   -0.7018   20.9597 C   0  0  0  0  0  0  0  0  0  0  0  0
    6.6774    0.0145   19.9121 C   0  0  0  0  0  0  0  0  0  0  0  0
    7.1855    0.0626   18.6082 C   0  0  0  0  0  0  0  0  0  0  0  0
    8.1269   -0.4269   18.3734 H   0  0  0  0  0  0  0  0  0  0  0  0
    6.5679    0.6675   17.5903 N   0  0  0  0  0  0  0  0  0  0  0  0
    5.4064    1.2865   17.8484 C   0  0  0  0  0  0  0  0  0  0  0  0
    4.9185    1.7731   17.0049 H   0  0  0  0  0  0  0  0  0  0  0  0
    4.8114    1.3078   19.1148 C   0  0  0  0  0  0  0  0  0  0  0  0
    3.8764    1.8408   19.2643 H   0  0  0  0  0  0  0  0  0  0  0  0
    5.4483    0.6473   20.1628 C   0  0  0  0  0  0  0  0  0  0  0  0
    5.0054    0.6392   21.1623 H   0  0  0  0  0  0  0  0  0  0  0  0
    6.7535   -1.3852   21.9612 C   0  0  0  0  0  0  0  0  0  0  0  0
    5.6773   -1.4390   21.9564 H   0  0  0  0  0  0  0  0  0  0  0  0
    7.4950   -2.0321   22.9423 C   0  0  0  0  0  0  0  0  0  0  0  0
    6.7876   -2.7737   24.0444 C   0  0  0  0  0  0  0  0  0  0  0  0
    5.4701   -2.8597   24.1586 N   0  0  0  0  0  0  0  0  0  0  0  0
    5.2350   -3.5988   25.2732 C   0  0  0  0  0  0  0  0  0  0  0  0
    4.2348   -3.8263   25.6213 H   0  0  0  0  0  0  0  0  0  0  0  0
    6.4163   -3.9835   25.8396 C   0  0  0  0  0  0  0  0  0  0  0  0
    6.6159   -4.5786   26.7172 H   0  0  0  0  0  0  0  0  0  0  0  0
    7.4111   -3.4600   25.0581 N   0  0  0  0  0  0  0  0  0  0  0  0
    8.8408   -3.6283   25.2959 C   0  0  0  0  0  0  0  0  0  0  0  0
    8.9875   -4.2369   26.1895 H   0  0  0  0  0  0  0  0  0  0  0  0
    9.3178   -4.1171   24.4449 H   0  0  0  0  0  0  0  0  0  0  0  0
    9.3238   -2.6601   25.4357 H   0  0  0  0  0  0  0  0  0  0  0  0
    8.8427   -1.9933   22.8918 N   0  0  0  0  0  0  0  0  0  0  0  0
  1  2  1  0
  2  3  2  0
  3  4  1  0
  4  5  1  0
  5  6  2  0
  6  7  1  0
  6  8  1  0
  8  9  2  0
  9 10  1  0
  9 11  1  0
 11 12  1  0
 11 13  2  0
 13 14  1  0
  4 15  2  0
 15 16  1  0
 15 17  1  0
 17 18  1  0
 18 19  2  0
 19 20  1  0
 20 21  1  0
 20 22  2  0
 22 23  1  0
 22 24  1  0
 24 25  1  0
 25 26  1  0
 25 27  1  0
 25 28  1  0
 17 29  2  0
 29  2  1  0
 13  5  1  0
 24 18  1  0
M  END
>  <plip>  (1) 
-0.03571428571428571

>  <filename>  (1) 
[H][c]1[n][c](-[c]2[c]([H])[n][c]([H])[c]([H])[c]2[H])[c]([H])[c](-[c]2[n][c]([H])[c]([H])[n]2[C]([H])([H])[H])[n]1

$$$$
