
     RDKit          3D

 39 40  0  0  0  0  0  0  0  0999 V2000
    9.7888   -0.5768   27.8340 C   0  0  0  0  0  0  0  0  0  0  0  0
    9.3235   -0.0524   26.5068 C   0  0  0  0  0  0  0  0  0  0  0  0
    8.0817   -0.4799   26.0218 C   0  0  0  0  0  0  0  0  0  0  0  0
    7.5261    0.0898   24.8804 C   0  0  0  0  0  0  0  0  0  0  0  0
    8.1839    1.1218   24.2000 C   0  0  0  0  0  0  0  0  0  0  0  0
    7.5552    1.8331   23.0222 C   0  0  0  0  0  0  0  0  0  0  0  0
    7.3405    3.3181   23.2231 C   0  0  0  0  0  0  0  0  0  0  0  0
    8.3015    3.8294   23.3292 H   0  0  0  0  0  0  0  0  0  0  0  0
    6.7679    3.4943   24.1367 H   0  0  0  0  0  0  0  0  0  0  0  0
    6.7830    3.7434   22.3777 H   0  0  0  0  0  0  0  0  0  0  0  0
    8.4986    1.6395   21.8135 N   0  0  0  0  0  4  0  0  0  0  0  0
    8.6497    0.1890   21.4074 C   0  0  0  0  0  0  0  0  0  0  0  0
    7.4216   -0.6739   20.9521 C   0  0  0  0  0  0  0  0  0  0  0  0
    8.0157   -1.8166   20.4861 F   0  0  0  0  0  0  0  0  0  0  0  0
    6.6343   -1.0874   21.9982 F   0  0  0  0  0  0  0  0  0  0  0  0
    6.5835   -0.0501   19.8767 C   0  0  0  0  0  0  0  0  0  0  0  0
    5.3811    0.6238   20.1235 C   0  0  0  0  0  0  0  0  0  0  0  0
    4.7920    1.3124   19.0624 C   0  0  0  0  0  0  0  0  0  0  0  0
    5.4197    1.3043   17.8121 C   0  0  0  0  0  0  0  0  0  0  0  0
    6.5586    0.6408   17.5681 N   0  0  0  0  0  0  0  0  0  0  0  0
    7.1185   -0.0183   18.5846 C   0  0  0  0  0  0  0  0  0  0  0  0
    8.0431   -0.5501   18.3661 H   0  0  0  0  0  0  0  0  0  0  0  0
    4.9950    1.8533   16.9719 H   0  0  0  0  0  0  0  0  0  0  0  0
    3.8706    1.8655   19.1921 H   0  0  0  0  0  0  0  0  0  0  0  0
    4.9185    0.6129   21.1130 H   0  0  0  0  0  0  0  0  0  0  0  0
    9.0448   -0.3786   22.2523 H   0  0  0  0  0  0  0  0  0  0  0  0
    9.3478    0.0956   20.5762 H   0  0  0  0  0  0  0  0  0  0  0  0
    8.1726    2.2478   21.0284 H   0  0  0  0  0  0  0  0  0  0  0  0
    9.4000    2.0203   22.1991 H   0  0  0  0  0  0  0  0  0  0  0  0
    6.6134    1.3305   22.7961 H   0  0  0  0  0  0  0  0  0  0  0  0
    9.4756    1.4383   24.6266 C   0  0  0  0  0  0  0  0  0  0  0  0
   10.2170    2.2969   23.8642 F   0  0  0  0  0  0  0  0  0  0  0  0
   10.0521    0.8951   25.7673 C   0  0  0  0  0  0  0  0  0  0  0  0
   11.0395    1.2222   26.0691 H   0  0  0  0  0  0  0  0  0  0  0  0
    6.5780   -0.2967   24.5091 H   0  0  0  0  0  0  0  0  0  0  0  0
    7.5519   -1.2422   26.5834 H   0  0  0  0  0  0  0  0  0  0  0  0
   10.7389   -0.1277   28.0972 H   0  0  0  0  0  0  0  0  0  0  0  0
    9.9300   -1.6609   27.8152 H   0  0  0  0  0  0  0  0  0  0  0  0
    9.0646   -0.3305   28.6256 H   0  0  0  0  0  0  0  0  0  0  0  0
  1  2  1  0
  2  3  2  0
  3  4  1  0
  4  5  2  0
  5  6  1  0
  6  7  1  0
  7  8  1  0
  7  9  1  0
  7 10  1  0
  6 11  1  0
 11 12  1  0
 12 13  1  0
 13 14  1  0
 13 15  1  0
 13 16  1  0
 16 17  2  0
 17 18  1  0
 18 19  2  0
 19 20  1  0
 20 21  2  0
 21 22  1  0
 19 23  1  0
 18 24  1  0
 17 25  1  0
 12 26  1  0
 12 27  1  0
 11 28  1  0
 11 29  1  0
  6 30  1  0
  5 31  1  0
 31 32  1  0
 31 33  2  0
 33 34  1  0
  4 35  1  0
  3 36  1  0
  1 37  1  0
  1 38  1  0
  1 39  1  0
 33  2  1  0
 21 16  1  0
M  CHG  1  11   1
M  END
>  <plip>  (1) 
-0.1

>  <filename>  (1) 
[H][c]1[n][c]([H])[c]([C]([F])([F])[C]([H])([H])[N+]([H])([H])[C]([H])([c]2[c]([H])[c]([H])[c]([C]([H])([H])[H])[c]([H])[c]2[F])[C]([H])([H])[H])[c]([H])[c]1[H]

$$$$
