
     RDKit          3D

 33 34  0  0  0  0  0  0  0  0999 V2000
    8.5072   -2.6968   22.2149 O   0  0  0  0  0  0  0  0  0  0  0  0
    9.2460   -1.8641   21.7074 C   0  0  0  0  0  0  0  0  0  0  0  0
   10.6085   -1.8397   21.8976 N   0  0  0  0  0  0  0  0  0  0  0  0
   11.2550   -2.6185   22.8767 N   0  0  0  0  0  0  0  0  0  0  0  0
   10.6122   -2.8257   24.1097 C   0  0  0  0  0  0  0  0  0  0  0  0
   10.7543   -4.0875   24.7170 C   0  0  0  0  0  0  0  0  0  0  0  0
    9.9482   -4.4640   25.7837 C   0  0  0  0  0  0  0  0  0  0  0  0
    8.9829   -3.5541   26.2362 C   0  0  0  0  0  0  0  0  0  0  0  0
    8.0016   -3.9714   27.2536 N   0  0  0  0  0  4  0  0  0  0  0  0
    8.2747   -4.9328   27.9509 O   0  0  0  0  0  0  0  0  0  0  0  0
    6.9656   -3.3304   27.3392 O   0  0  0  0  0  1  0  0  0  0  0  0
    8.9033   -2.2543   25.7230 C   0  0  0  0  0  0  0  0  0  0  0  0
    9.8011   -1.8563   24.7393 C   0  0  0  0  0  0  0  0  0  0  0  0
    9.9552   -0.1573   24.4227 Cl  0  0  0  0  0  0  0  0  0  0  0  0
    8.1491   -1.5699   26.0974 H   0  0  0  0  0  0  0  0  0  0  0  0
   10.0478   -5.4388   26.2515 H   0  0  0  0  0  0  0  0  0  0  0  0
   11.4994   -4.7746   24.3287 H   0  0  0  0  0  0  0  0  0  0  0  0
   11.5350   -3.5283   22.5053 H   0  0  0  0  0  0  0  0  0  0  0  0
   11.0719   -0.9649   21.6651 H   0  0  0  0  0  0  0  0  0  0  0  0
    8.7124   -0.6909   20.7866 C   0  0  0  0  0  0  0  0  0  0  0  0
    9.4679    0.1035   20.2526 O   0  0  0  0  0  0  0  0  0  0  0  0
    7.3482   -0.6430   20.6432 N   0  0  0  0  0  0  0  0  0  0  0  0
    6.6427    0.0862   19.6450 C   0  0  0  0  0  0  0  0  0  0  0  0
    5.4250    0.6928   19.9713 C   0  0  0  0  0  0  0  0  0  0  0  0
    4.7305    1.3874   18.9733 C   0  0  0  0  0  0  0  0  0  0  0  0
    5.2711    1.4437   17.6846 C   0  0  0  0  0  0  0  0  0  0  0  0
    6.4305    0.8538   17.3514 N   0  0  0  0  0  0  0  0  0  0  0  0
    7.1033    0.2114   18.3133 C   0  0  0  0  0  0  0  0  0  0  0  0
    8.0526   -0.2391   18.0329 H   0  0  0  0  0  0  0  0  0  0  0  0
    4.7686    1.9852   16.8869 H   0  0  0  0  0  0  0  0  0  0  0  0
    3.7975    1.8990   19.1826 H   0  0  0  0  0  0  0  0  0  0  0  0
    5.0566    0.6524   20.9960 H   0  0  0  0  0  0  0  0  0  0  0  0
    6.7961   -1.1936   21.2892 H   0  0  0  0  0  0  0  0  0  0  0  0
  1  2  2  0
  2  3  1  0
  3  4  1  0
  4  5  1  0
  5  6  2  0
  6  7  1  0
  7  8  2  0
  8  9  1  0
  9 10  2  0
  9 11  1  0
  8 12  1  0
 12 13  2  0
 13 14  1  0
 12 15  1  0
  7 16  1  0
  6 17  1  0
  4 18  1  0
  3 19  1  0
  2 20  1  0
 20 21  2  0
 20 22  1  0
 22 23  1  0
 23 24  2  0
 24 25  1  0
 25 26  2  0
 26 27  1  0
 27 28  2  0
 28 29  1  0
 26 30  1  0
 25 31  1  0
 24 32  1  0
 22 33  1  0
 13  5  1  0
 28 23  1  0
M  CHG  2   9   1  11  -1
M  END
>  <plip>  (1) 
-0.13333333333333333

>  <filename>  (1) 
[H][c]1[n][c]([H])[c]([N]([H])[C](=[O])[C](=[O])[N]([H])[N]([H])[c]2[c]([H])[c]([H])[c]([N+](=[O])[O-])[c]([H])[c]2[Cl])[c]([H])[c]1[H]

$$$$
