
     RDKit          3D

 28 29  0  0  0  0  0  0  0  0999 V2000
    5.0143    1.6695   16.8697 H   0  0  0  0  0  0  0  0  0  0  0  0
    5.3920    1.2044   17.7789 C   0  0  0  0  0  0  0  0  0  0  0  0
    6.5900    0.6038   17.6810 N   0  0  0  0  0  0  0  0  0  0  0  0
    7.0876    0.0462   18.7952 C   0  0  0  0  0  0  0  0  0  0  0  0
    8.0734   -0.4112   18.7185 H   0  0  0  0  0  0  0  0  0  0  0  0
    6.4461    0.0504   20.0525 C   0  0  0  0  0  0  0  0  0  0  0  0
    7.1421   -0.4351   21.1962 N   0  0  0  0  0  0  0  0  0  0  0  0
    6.8063    0.1437   22.4181 N   0  0  0  0  0  0  0  0  0  0  0  0
    6.7685   -0.4936   23.2072 H   0  0  0  0  0  0  0  0  0  0  0  0
    7.2514    1.4170   22.7883 C   0  0  0  0  0  0  0  0  0  0  0  0
    7.7976    2.3826   21.9217 C   0  0  0  0  0  0  0  0  0  0  0  0
    8.0136    2.0904   20.9003 H   0  0  0  0  0  0  0  0  0  0  0  0
    8.0180    3.7033   22.3434 C   0  0  0  0  0  0  0  0  0  0  0  0
    8.4102    4.4722   21.6853 H   0  0  0  0  0  0  0  0  0  0  0  0
    7.6809    4.0677   23.6397 C   0  0  0  0  0  0  0  0  0  0  0  0
    7.8024    5.3472   24.0274 F   0  0  0  0  0  0  0  0  0  0  0  0
    7.2043    3.1333   24.5558 C   0  0  0  0  0  0  0  0  0  0  0  0
    6.9419    3.4182   25.5664 H   0  0  0  0  0  0  0  0  0  0  0  0
    7.0404    1.8269   24.1223 C   0  0  0  0  0  0  0  0  0  0  0  0
    6.6402    0.9052   25.0281 F   0  0  0  0  0  0  0  0  0  0  0  0
    7.4482   -1.8547   21.3100 C   0  0  0  0  0  0  0  0  0  0  0  0
    7.7121   -2.2346   20.3244 H   0  0  0  0  0  0  0  0  0  0  0  0
    6.6152   -2.4584   21.7061 H   0  0  0  0  0  0  0  0  0  0  0  0
    8.3123   -1.9878   21.9690 H   0  0  0  0  0  0  0  0  0  0  0  0
    5.1699    0.6484   20.1204 C   0  0  0  0  0  0  0  0  0  0  0  0
    4.6495    0.6638   21.0787 H   0  0  0  0  0  0  0  0  0  0  0  0
    4.6447    1.2371   18.9637 C   0  0  0  0  0  0  0  0  0  0  0  0
    3.6868    1.7514   18.9720 H   0  0  0  0  0  0  0  0  0  0  0  0
  1  2  1  0
  2  3  2  0
  3  4  1  0
  4  5  1  0
  4  6  2  0
  6  7  1  0
  7  8  1  0
  8  9  1  0
  8 10  1  0
 10 11  2  0
 11 12  1  0
 11 13  1  0
 13 14  1  0
 13 15  2  0
 15 16  1  0
 15 17  1  0
 17 18  1  0
 17 19  2  0
 19 20  1  0
  7 21  1  0
 21 22  1  0
 21 23  1  0
 21 24  1  0
  6 25  1  0
 25 26  1  0
 25 27  2  0
 27 28  1  0
 27  2  1  0
 19 10  1  0
M  END
>  <plip>  (1) 
-0.03571428571428571

>  <filename>  (1) 
[H][c]1[n][c]([H])[c]([N]([N]([H])[c]2[c]([H])[c]([H])[c]([F])[c]([H])[c]2[F])[C]([H])([H])[H])[c]([H])[c]1[H]

$$$$
