
     RDKit          3D

 42 44  0  0  0  0  0  0  0  0999 V2000
    9.0022   -5.3478   24.3519 C   0  0  0  0  0  0  0  0  0  0  0  0
    7.6805   -4.9601   24.5726 C   0  0  0  0  0  0  0  0  0  0  0  0
    7.4473   -3.6339   24.9323 C   0  0  0  0  0  0  0  0  0  0  0  0
    8.5252   -2.7445   25.0673 C   0  0  0  0  0  0  0  0  0  0  0  0
    8.2585   -1.2939   25.4150 C   0  0  0  0  0  0  0  0  0  0  0  0
    7.7182   -0.4829   24.2142 C   0  0  0  0  0  0  0  0  0  0  0  0
    8.7315   -0.3729   23.0740 C   0  0  2  0  0  0  0  0  0  0  0  0
    9.9633    0.4718   23.4131 C   0  0  0  0  0  0  0  0  0  0  0  0
   10.2574    1.3606   22.1911 C   0  0  0  0  0  0  0  0  0  0  0  0
    9.2676    0.9388   21.1036 C   0  0  0  0  0  0  0  0  0  0  0  0
    8.1425    0.2539   21.8407 N   0  0  0  0  0  4  0  0  0  0  0  0
    7.3775   -0.7018   20.9986 C   0  0  0  0  0  0  0  0  0  0  0  0
    6.6499    0.0189   19.9072 C   0  0  0  0  0  0  0  0  0  0  0  0
    5.4326    0.6601   20.1583 C   0  0  0  0  0  0  0  0  0  0  0  0
    4.8002    1.3154   19.1017 C   0  0  0  0  0  0  0  0  0  0  0  0
    5.4017    1.2963   17.8370 C   0  0  0  0  0  0  0  0  0  0  0  0
    6.5681    0.6875   17.5801 N   0  0  0  0  0  0  0  0  0  0  0  0
    7.1740    0.0762   18.6071 C   0  0  0  0  0  0  0  0  0  0  0  0
    8.1194   -0.4203   18.3812 H   0  0  0  0  0  0  0  0  0  0  0  0
    4.9187    1.7841   16.9923 H   0  0  0  0  0  0  0  0  0  0  0  0
    3.8702    1.8476   19.2515 H   0  0  0  0  0  0  0  0  0  0  0  0
    5.0069    0.6384   21.1672 H   0  0  0  0  0  0  0  0  0  0  0  0
    8.0840   -1.4340   20.5803 H   0  0  0  0  0  0  0  0  0  0  0  0
    6.6627   -1.2599   21.6206 H   0  0  0  0  0  0  0  0  0  0  0  0
    7.4586    0.9916   22.1375 H   0  0  0  0  0  0  0  0  0  0  0  0
    9.7171    0.2160   20.4143 H   0  0  0  0  0  0  0  0  0  0  0  0
    8.8830    1.7791   20.5199 H   0  0  0  0  0  0  0  0  0  0  0  0
   10.1267    2.4177   22.4404 H   0  0  0  0  0  0  0  0  0  0  0  0
   11.2841    1.2376   21.8373 H   0  0  0  0  0  0  0  0  0  0  0  0
   10.7894   -0.2005   23.6618 H   0  0  0  0  0  0  0  0  0  0  0  0
    9.7854    1.0845   24.3040 H   0  0  0  0  0  0  0  0  0  0  0  0
    9.0526   -1.3798   22.7860 H   0  0  0  0  0  0  0  0  0  0  0  0
    6.7922   -0.9401   23.8383 H   0  0  0  0  0  0  0  0  0  0  0  0
    7.4390    0.5323   24.5266 H   0  0  0  0  0  0  0  0  0  0  0  0
    7.5364   -1.2397   26.2367 H   0  0  0  0  0  0  0  0  0  0  0  0
    9.1879   -0.8463   25.7818 H   0  0  0  0  0  0  0  0  0  0  0  0
    9.7926   -3.1103   24.8245 N   0  0  0  0  0  0  0  0  0  0  0  0
   10.0122   -4.3920   24.4942 C   0  0  0  0  0  0  0  0  0  0  0  0
   11.0509   -4.6671   24.3274 H   0  0  0  0  0  0  0  0  0  0  0  0
    6.4456   -3.2651   25.1108 H   0  0  0  0  0  0  0  0  0  0  0  0
    6.8550   -5.6688   24.4755 H   0  0  0  0  0  0  0  0  0  0  0  0
    9.2527   -6.3663   24.0816 H   0  0  0  0  0  0  0  0  0  0  0  0
  1  2  2  0
  2  3  1  0
  3  4  2  0
  4  5  1  0
  5  6  1  0
  6  7  1  0
  7  8  1  0
  8  9  1  0
  9 10  1  0
 10 11  1  0
 11 12  1  0
 12 13  1  0
 13 14  2  0
 14 15  1  0
 15 16  2  0
 16 17  1  0
 17 18  2  0
 18 19  1  0
 16 20  1  0
 15 21  1  0
 14 22  1  0
 12 23  1  0
 12 24  1  0
 11 25  1  0
 10 26  1  0
 10 27  1  0
  9 28  1  0
  9 29  1  0
  8 30  1  0
  8 31  1  0
  7 32  1  6
  6 33  1  0
  6 34  1  0
  5 35  1  0
  5 36  1  0
  4 37  1  0
 37 38  2  0
 38 39  1  0
  3 40  1  0
  2 41  1  0
  1 42  1  0
 38  1  1  0
 11  7  1  0
 18 13  1  0
M  CHG  1  11   1
M  END
>  <plip>  (1) 
-0.07142857142857142

>  <filename>  (1) 
[H][c]1[n][c]([C]([H])([H])[C]([H])([H])[C@]2([H])[C]([H])([H])[C]([H])([H])[C]([H])([H])[N+]2([H])[C]([H])([H])[c]2[c]([H])[n][c]([H])[c]([H])[c]2[H])[c]([H])[c]([H])[c]1[H]

$$$$
