
     RDKit          3D

 33 35  0  0  0  0  0  0  0  0999 V2000
   11.0404   -2.9251   21.0739 H   0  0  0  0  0  0  0  0  0  0  0  0
   11.3521   -2.1936   21.6124 O   0  0  0  0  0  0  0  0  0  0  0  0
   10.3442   -1.9431   22.5833 C   0  0  1  0  0  0  0  0  0  0  0  0
   10.2613   -2.7999   23.2794 H   0  0  0  0  0  0  0  0  0  0  0  0
   10.7948   -0.7104   23.3683 C   0  0  0  0  0  0  0  0  0  0  0  0
   11.4605    0.3242   22.6884 C   0  0  0  0  0  0  0  0  0  0  0  0
   11.7105    0.1871   21.6405 H   0  0  0  0  0  0  0  0  0  0  0  0
   11.8477    1.4839   23.3494 C   0  0  0  0  0  0  0  0  0  0  0  0
   12.3381    2.2773   22.7896 H   0  0  0  0  0  0  0  0  0  0  0  0
   11.6110    1.6174   24.7181 C   0  0  0  0  0  0  0  0  0  0  0  0
   11.9586    2.5056   25.2314 H   0  0  0  0  0  0  0  0  0  0  0  0
   10.9461    0.6041   25.4146 C   0  0  0  0  0  0  0  0  0  0  0  0
   10.7663    0.7131   26.4833 H   0  0  0  0  0  0  0  0  0  0  0  0
   10.5246   -0.5479   24.7351 C   0  0  0  0  0  0  0  0  0  0  0  0
    9.9988   -1.3270   25.2822 H   0  0  0  0  0  0  0  0  0  0  0  0
    8.9757   -1.7437   21.9556 C   0  0  0  0  0  0  0  0  0  0  0  0
    7.7331   -2.1301   22.5408 C   0  0  0  0  0  0  0  0  0  0  0  0
    7.6118   -2.7426   23.4298 H   0  0  0  0  0  0  0  0  0  0  0  0
    6.7350   -1.5634   21.7962 C   0  0  0  0  0  0  0  0  0  0  0  0
    5.6626   -1.6082   21.9078 H   0  0  0  0  0  0  0  0  0  0  0  0
    7.2982   -0.8368   20.7647 N   0  0  0  0  0  0  0  0  0  0  0  0
    6.6240   -0.0553   19.7829 C   0  0  0  0  0  0  0  0  0  0  0  0
    7.1390   -0.0325   18.4750 C   0  0  0  0  0  0  0  0  0  0  0  0
    8.0315   -0.6127   18.2343 H   0  0  0  0  0  0  0  0  0  0  0  0
    6.5804    0.6450   17.4704 N   0  0  0  0  0  0  0  0  0  0  0  0
    5.4571    1.3349   17.7238 C   0  0  0  0  0  0  0  0  0  0  0  0
    5.0227    1.8600   16.8771 H   0  0  0  0  0  0  0  0  0  0  0  0
    4.8599    1.3825   18.9858 C   0  0  0  0  0  0  0  0  0  0  0  0
    3.9420    1.9498   19.1170 H   0  0  0  0  0  0  0  0  0  0  0  0
    5.4591    0.6927   20.0451 C   0  0  0  0  0  0  0  0  0  0  0  0
    5.0389    0.7585   21.0499 H   0  0  0  0  0  0  0  0  0  0  0  0
    8.6685   -0.9749   20.8587 C   0  0  0  0  0  0  0  0  0  0  0  0
    9.3179   -0.4746   20.1510 H   0  0  0  0  0  0  0  0  0  0  0  0
  1  2  1  0
  2  3  1  0
  3  4  1  1
  3  5  1  0
  5  6  2  0
  6  7  1  0
  6  8  1  0
  8  9  1  0
  8 10  2  0
 10 11  1  0
 10 12  1  0
 12 13  1  0
 12 14  2  0
 14 15  1  0
  3 16  1  0
 16 17  1  0
 17 18  1  0
 17 19  2  0
 19 20  1  0
 19 21  1  0
 21 22  1  0
 22 23  2  0
 23 24  1  0
 23 25  1  0
 25 26  2  0
 26 27  1  0
 26 28  1  0
 28 29  1  0
 28 30  2  0
 30 31  1  0
 21 32  1  0
 32 33  1  0
 14  5  1  0
 32 16  2  0
 30 22  1  0
M  END
>  <plip>  (1) 
-0.1

>  <filename>  (1) 
[H][O][C@@]([H])([c]1[c]([H])[c]([H])[c]([H])[c]([H])[c]1[H])[c]1[c]([H])[c]([H])[n](-[c]2[c]([H])[n][c]([H])[c]([H])[c]2[H])[c]1[H]

$$$$
