
     RDKit          3D

 41 43  0  0  0  0  0  0  0  0999 V2000
    6.8739   -4.5087   21.0258 C   0  0  0  0  0  0  0  0  0  0  0  0
    7.4512   -3.1957   20.9022 O   0  0  0  0  0  0  0  0  0  0  0  0
    6.6645   -2.1581   21.2362 C   0  0  0  0  0  0  0  0  0  0  0  0
    5.5432   -2.2996   21.6683 O   0  0  0  0  0  0  0  0  0  0  0  0
    7.3817   -0.7798   20.9930 C   0  0  0  0  0  0  0  0  0  0  0  0
    7.5219    0.0277   22.2225 N   0  0  0  0  0  0  0  0  0  0  0  0
    8.2785    1.1721   22.2521 C   0  0  0  0  0  0  0  0  0  0  0  0
    9.0062    1.4889   21.3244 O   0  0  0  0  0  0  0  0  0  0  0  0
    8.1520    1.9714   23.5226 C   0  0  0  0  0  0  0  0  0  0  0  0
    7.3526    1.8178   24.6418 C   0  0  0  0  0  0  0  0  0  0  0  0
    7.6580    2.8677   25.5553 C   0  0  0  0  0  0  0  0  0  0  0  0
    8.6652    3.6546   24.9448 C   0  0  0  0  0  0  0  0  0  0  0  0
    8.9427    3.0946   23.7252 N   0  0  0  0  0  0  0  0  0  0  0  0
    9.6109    3.4547   23.0552 H   0  0  0  0  0  0  0  0  0  0  0  0
    9.1812    4.7918   25.6119 C   0  0  0  0  0  0  0  0  0  0  0  0
   10.1407    5.5438   25.0420 F   0  0  0  0  0  0  0  0  0  0  0  0
    8.6971    5.1319   26.8578 C   0  0  0  0  0  0  0  0  0  0  0  0
    7.6875    4.3414   27.4657 C   0  0  0  0  0  0  0  0  0  0  0  0
    7.1574    3.2143   26.8449 C   0  0  0  0  0  0  0  0  0  0  0  0
    6.0894    2.3632   27.4734 C   0  0  0  0  0  0  0  0  0  0  0  0
    6.4364    1.3284   27.5810 H   0  0  0  0  0  0  0  0  0  0  0  0
    5.1963    2.3375   26.8375 H   0  0  0  0  0  0  0  0  0  0  0  0
    5.7959    2.7296   28.4605 H   0  0  0  0  0  0  0  0  0  0  0  0
    7.3192    4.6165   28.4514 H   0  0  0  0  0  0  0  0  0  0  0  0
    9.1105    6.0095   27.3482 H   0  0  0  0  0  0  0  0  0  0  0  0
    6.6008    1.0592   24.8601 H   0  0  0  0  0  0  0  0  0  0  0  0
    6.8619   -0.0774   22.9771 H   0  0  0  0  0  0  0  0  0  0  0  0
    6.6672    0.0183   19.8996 C   0  0  0  0  0  0  0  0  0  0  0  0
    5.4495    0.6629   20.1454 C   0  0  0  0  0  0  0  0  0  0  0  0
    4.8102    1.3141   19.0925 C   0  0  0  0  0  0  0  0  0  0  0  0
    5.4022    1.2939   17.8267 C   0  0  0  0  0  0  0  0  0  0  0  0
    6.5694    0.6873   17.5708 N   0  0  0  0  0  0  0  0  0  0  0  0
    7.1840    0.0819   18.5973 C   0  0  0  0  0  0  0  0  0  0  0  0
    8.1320   -0.4079   18.3599 H   0  0  0  0  0  0  0  0  0  0  0  0
    4.9252    1.7894   16.9822 H   0  0  0  0  0  0  0  0  0  0  0  0
    3.8760    1.8376   19.2415 H   0  0  0  0  0  0  0  0  0  0  0  0
    5.0010    0.6435   21.1405 H   0  0  0  0  0  0  0  0  0  0  0  0
    8.3974   -1.0157   20.6544 H   0  0  0  0  0  0  0  0  0  0  0  0
    5.9570   -4.5906   20.4293 H   0  0  0  0  0  0  0  0  0  0  0  0
    7.6433   -5.1894   20.6595 H   0  0  0  0  0  0  0  0  0  0  0  0
    6.6226   -4.7065   22.0729 H   0  0  0  0  0  0  0  0  0  0  0  0
  1  2  1  0
  2  3  1  0
  3  4  2  0
  3  5  1  0
  5  6  1  0
  6  7  1  0
  7  8  2  0
  7  9  1  0
  9 10  2  0
 10 11  1  0
 11 12  2  0
 12 13  1  0
 13 14  1  0
 12 15  1  0
 15 16  1  0
 15 17  2  0
 17 18  1  0
 18 19  2  0
 19 20  1  0
 20 21  1  0
 20 22  1  0
 20 23  1  0
 18 24  1  0
 17 25  1  0
 10 26  1  0
  6 27  1  0
  5 28  1  0
 28 29  2  0
 29 30  1  0
 30 31  2  0
 31 32  1  0
 32 33  2  0
 33 34  1  0
 31 35  1  0
 30 36  1  0
 29 37  1  0
  5 38  1  0
  1 39  1  0
  1 40  1  0
  1 41  1  0
 13  9  1  0
 33 28  1  0
 19 11  1  0
M  END
>  <plip>  (1) 
-0.21428571428571427

>  <filename>  (1) 
[H][c]1[n][c]([H])[c]([C]([H])([C](=[O])[O][C]([H])([H])[H])[N]([H])[C](=[O])[c]2[c]([H])[c]3[c]([C]([H])([H])[H])[c]([H])[c]([H])[c]([F])[c]3[n]2[H])[c]([H])[c]1[H]

$$$$
