
     RDKit          3D

 44 46  0  0  0  0  0  0  0  0999 V2000
   10.0372   -2.4847   21.7921 C   0  0  0  0  0  0  0  0  0  0  0  0
    8.5912   -2.2615   22.0443 N   0  0  0  0  0  4  0  0  0  0  0  0
    7.7766   -3.4748   22.3065 C   0  0  0  0  0  0  0  0  0  0  0  0
    7.7059   -4.1122   21.4161 H   0  0  0  0  0  0  0  0  0  0  0  0
    8.1863   -4.0735   23.1278 H   0  0  0  0  0  0  0  0  0  0  0  0
    6.7562   -3.1837   22.5899 H   0  0  0  0  0  0  0  0  0  0  0  0
    8.0415   -1.5402   20.8647 C   0  0  0  0  0  0  0  0  0  0  0  0
    7.0413   -0.4206   21.2170 C   0  0  0  0  0  0  0  0  0  0  0  0
    7.7101    0.6865   21.8765 N   0  0  0  0  0  0  0  0  0  0  0  0
    8.8864    1.2623   21.4332 C   0  0  0  0  0  0  0  0  0  0  0  0
    9.4655    0.7793   20.4735 O   0  0  0  0  0  0  0  0  0  0  0  0
    9.4068    2.4318   22.1457 C   0  0  0  0  0  0  0  0  0  0  0  0
    8.6219    3.1573   23.0091 C   0  0  0  0  0  0  0  0  0  0  0  0
    6.7879    2.7927   23.4342 Br  0  0  0  0  0  0  0  0  0  0  0  0
    9.4106    4.2634   23.5038 C   0  0  0  0  0  0  0  0  0  0  0  0
    9.0837    5.3154   24.3564 C   0  0  0  0  0  0  0  0  0  0  0  0
   10.0584    6.2771   24.6549 C   0  0  0  0  0  0  0  0  0  0  0  0
   11.3463    6.1757   24.1031 C   0  0  0  0  0  0  0  0  0  0  0  0
   11.6574    5.1149   23.2391 C   0  0  0  0  0  0  0  0  0  0  0  0
   10.6766    4.1653   22.9438 C   0  0  0  0  0  0  0  0  0  0  0  0
   10.6730    3.0485   22.1180 N   0  0  0  0  0  0  0  0  0  0  0  0
   11.4642    2.7820   21.5307 H   0  0  0  0  0  0  0  0  0  0  0  0
   12.6414    5.0250   22.7928 H   0  0  0  0  0  0  0  0  0  0  0  0
   12.1025    6.9170   24.3447 H   0  0  0  0  0  0  0  0  0  0  0  0
    9.8085    7.0976   25.3181 H   0  0  0  0  0  0  0  0  0  0  0  0
    8.0806    5.3753   24.7670 H   0  0  0  0  0  0  0  0  0  0  0  0
    7.2177    1.1947   22.5991 H   0  0  0  0  0  0  0  0  0  0  0  0
    6.4101    0.1886   19.9959 C   0  0  0  0  0  0  0  0  0  0  0  0
    5.1666    0.8230   20.0720 C   0  0  0  0  0  0  0  0  0  0  0  0
    4.6739    1.4259   18.9164 C   0  0  0  0  0  0  0  0  0  0  0  0
    5.4069    1.3578   17.7272 C   0  0  0  0  0  0  0  0  0  0  0  0
    6.5936    0.7299   17.6482 N   0  0  0  0  0  0  0  0  0  0  0  0
    7.0885    0.1776   18.7681 C   0  0  0  0  0  0  0  0  0  0  0  0
    8.0507   -0.3245   18.7178 H   0  0  0  0  0  0  0  0  0  0  0  0
    5.0090    1.8319   16.8347 H   0  0  0  0  0  0  0  0  0  0  0  0
    3.7301    1.9582   18.9270 H   0  0  0  0  0  0  0  0  0  0  0  0
    4.6074    0.8625   21.0068 H   0  0  0  0  0  0  0  0  0  0  0  0
    6.2646   -0.8470   21.8655 H   0  0  0  0  0  0  0  0  0  0  0  0
    8.8611   -1.0707   20.3093 H   0  0  0  0  0  0  0  0  0  0  0  0
    7.5467   -2.2490   20.1893 H   0  0  0  0  0  0  0  0  0  0  0  0
    8.5125   -1.6461   22.8651 H   0  0  0  0  0  0  0  0  0  0  0  0
   10.5621   -1.5207   21.8038 H   0  0  0  0  0  0  0  0  0  0  0  0
   10.1946   -2.9233   20.7992 H   0  0  0  0  0  0  0  0  0  0  0  0
   10.5010   -3.1324   22.5504 H   0  0  0  0  0  0  0  0  0  0  0  0
  1  2  1  0
  2  3  1  0
  3  4  1  0
  3  5  1  0
  3  6  1  0
  2  7  1  0
  7  8  1  0
  8  9  1  0
  9 10  1  0
 10 11  2  0
 10 12  1  0
 12 13  2  0
 13 14  1  0
 13 15  1  0
 15 16  2  0
 16 17  1  0
 17 18  2  0
 18 19  1  0
 19 20  2  0
 20 21  1  0
 21 22  1  0
 19 23  1  0
 18 24  1  0
 17 25  1  0
 16 26  1  0
  9 27  1  0
  8 28  1  0
 28 29  2  0
 29 30  1  0
 30 31  2  0
 31 32  1  0
 32 33  2  0
 33 34  1  0
 31 35  1  0
 30 36  1  0
 29 37  1  0
  8 38  1  0
  7 39  1  0
  7 40  1  0
  2 41  1  0
  1 42  1  0
  1 43  1  0
  1 44  1  0
 21 12  1  0
 33 28  1  0
 20 15  1  0
M  CHG  1   2   1
M  END
>  <plip>  (1) 
-0.06896551724137931

>  <filename>  (1) 
[H][c]1[n][c]([H])[c]([C]([H])([N]([H])[C](=[O])[c]2[c]([Br])[c]3[c]([H])[c]([H])[c]([H])[c]([H])[c]3[n]2[H])[C]([H])([H])[N+]([H])([C]([H])([H])[H])[C]([H])([H])[H])[c]([H])[c]1[H]

$$$$
