
     RDKit          3D

 37 39  0  0  0  0  0  0  0  0999 V2000
    5.0642    1.7860   16.9786 H   0  0  0  0  0  0  0  0  0  0  0  0
    5.4644    1.2691   17.8477 C   0  0  0  0  0  0  0  0  0  0  0  0
    6.6250    0.6246   17.6619 N   0  0  0  0  0  0  0  0  0  0  0  0
    7.1450   -0.0185   18.7154 C   0  0  0  0  0  0  0  0  0  0  0  0
    8.1075   -0.5059   18.5634 H   0  0  0  0  0  0  0  0  0  0  0  0
    6.5348   -0.0799   19.9849 C   0  0  0  0  0  0  0  0  0  0  0  0
    7.1532   -0.8268   21.0821 C   0  0  0  0  0  0  0  0  0  0  0  0
    8.2214   -0.3698   21.8064 C   0  0  0  0  0  0  0  0  0  0  0  0
    9.2153    0.6251   21.4337 C   0  0  0  0  0  0  0  0  0  0  0  0
    9.5026    0.7904   20.2534 O   0  0  0  0  0  0  0  0  0  0  0  0
    9.8636    1.3339   22.4241 N   0  0  0  0  0  0  0  0  0  0  0  0
    9.2915    1.6920   23.7289 C   0  0  0  0  0  0  0  0  0  0  0  0
    8.9289    2.7354   23.7017 H   0  0  0  0  0  0  0  0  0  0  0  0
    8.4330    1.0524   23.9434 H   0  0  0  0  0  0  0  0  0  0  0  0
   10.3327    1.5650   24.8452 C   0  0  0  0  0  0  0  0  0  0  0  0
   10.5436    0.5046   25.0201 H   0  0  0  0  0  0  0  0  0  0  0  0
    9.9111    1.9731   25.7750 H   0  0  0  0  0  0  0  0  0  0  0  0
   11.6216    2.3155   24.4966 C   0  0  0  0  0  0  0  0  0  0  0  0
   12.3808    2.0630   25.2363 H   0  0  0  0  0  0  0  0  0  0  0  0
   11.4578    3.4015   24.5583 H   0  0  0  0  0  0  0  0  0  0  0  0
   12.1449    1.9586   23.1043 C   0  0  0  0  0  0  0  0  0  0  0  0
   12.9812    2.6165   22.8363 H   0  0  0  0  0  0  0  0  0  0  0  0
   12.5269    0.9282   23.1082 H   0  0  0  0  0  0  0  0  0  0  0  0
   11.0580    2.0953   22.0441 C   0  0  0  0  0  0  0  0  0  0  0  0
   11.4206    1.7172   21.0851 H   0  0  0  0  0  0  0  0  0  0  0  0
   10.7948    3.1556   21.8983 H   0  0  0  0  0  0  0  0  0  0  0  0
    8.5872   -1.3300   22.8309 C   0  0  0  0  0  0  0  0  0  0  0  0
    9.4472   -1.2941   23.6904 O   0  0  0  0  0  0  0  0  0  0  0  0
    7.7440   -2.3840   22.6394 N   0  0  0  0  0  0  0  0  0  0  0  0
    7.9015   -3.1967   23.2071 H   0  0  0  0  0  0  0  0  0  0  0  0
    6.7514   -2.1872   21.6092 C   0  0  0  0  0  0  0  0  0  0  0  0
    6.8022   -2.9653   20.8292 H   0  0  0  0  0  0  0  0  0  0  0  0
    5.7253   -2.1908   22.0152 H   0  0  0  0  0  0  0  0  0  0  0  0
    5.3200    0.6023   20.1518 C   0  0  0  0  0  0  0  0  0  0  0  0
    4.8394    0.6108   21.1329 H   0  0  0  0  0  0  0  0  0  0  0  0
    4.7789    1.2914   19.0668 C   0  0  0  0  0  0  0  0  0  0  0  0
    3.8554    1.8517   19.1567 H   0  0  0  0  0  0  0  0  0  0  0  0
  1  2  1  0
  2  3  2  0
  3  4  1  0
  4  5  1  0
  4  6  2  0
  6  7  1  0
  7  8  2  0
  8  9  1  0
  9 10  2  0
  9 11  1  0
 11 12  1  0
 12 13  1  0
 12 14  1  0
 12 15  1  0
 15 16  1  0
 15 17  1  0
 15 18  1  0
 18 19  1  0
 18 20  1  0
 18 21  1  0
 21 22  1  0
 21 23  1  0
 21 24  1  0
 24 25  1  0
 24 26  1  0
  8 27  1  0
 27 28  2  0
 27 29  1  0
 29 30  1  0
 29 31  1  0
 31 32  1  0
 31 33  1  0
  6 34  1  0
 34 35  1  0
 34 36  2  0
 36 37  1  0
 36  2  1  0
 31  7  1  0
 24 11  1  0
M  END
>  <plip>  (1) 
-0.06896551724137931

>  <filename>  (1) 
[H][c]1[n][c]([H])[c]([C]2=[C]([C](=[O])[N]3[C]([H])([H])[C]([H])([H])[C]([H])([H])[C]([H])([H])[C]3([H])[H])[C](=[O])[N]([H])[C]2([H])[H])[c]([H])[c]1[H]

$$$$
