
     RDKit          3D

 35 36  0  0  0  0  0  0  0  0999 V2000
    4.9788    1.8161   16.9568 H   0  0  0  0  0  0  0  0  0  0  0  0
    5.4247    1.2988   17.8025 C   0  0  0  0  0  0  0  0  0  0  0  0
    6.5672    0.6378   17.5506 N   0  0  0  0  0  0  0  0  0  0  0  0
    7.1435    0.0104   18.5798 C   0  0  0  0  0  0  0  0  0  0  0  0
    8.0546   -0.5459   18.3611 H   0  0  0  0  0  0  0  0  0  0  0  0
    6.6493   -0.0021   19.8975 C   0  0  0  0  0  0  0  0  0  0  0  0
    7.4317   -0.6958   20.9318 C   0  0  0  0  0  0  0  0  0  0  0  0
    8.7915   -0.9311   20.9936 C   0  0  0  0  0  0  0  0  0  0  0  0
    9.5183   -0.5783   20.2734 H   0  0  0  0  0  0  0  0  0  0  0  0
    9.0630   -1.6605   22.1664 C   0  0  0  0  0  0  0  0  0  0  0  0
   10.0619   -1.9642   22.4658 H   0  0  0  0  0  0  0  0  0  0  0  0
    7.8485   -1.8769   22.8102 C   0  0  0  0  0  0  0  0  0  0  0  0
    7.4108   -2.6090   24.0363 C   0  0  0  0  0  0  0  0  0  0  0  0
    6.2464   -2.5989   24.4266 O   0  0  0  0  0  0  0  0  0  0  0  0
    8.3874   -3.3136   24.6576 N   0  0  0  0  0  0  0  0  0  0  0  0
    9.3207   -3.1198   24.3401 H   0  0  0  0  0  0  0  0  0  0  0  0
    8.2654   -3.9997   25.9464 C   0  0  0  0  0  0  0  0  0  0  0  0
    7.8644   -3.0228   27.0573 C   0  0  0  0  0  0  0  0  0  0  0  0
    7.9200   -3.5576   28.0117 H   0  0  0  0  0  0  0  0  0  0  0  0
    6.8489   -2.6516   26.9138 H   0  0  0  0  0  0  0  0  0  0  0  0
    8.5277   -2.1530   27.0832 H   0  0  0  0  0  0  0  0  0  0  0  0
    9.6658   -4.5507   26.2220 C   0  0  0  0  0  0  0  0  0  0  0  0
   10.3903   -3.7301   26.2161 H   0  0  0  0  0  0  0  0  0  0  0  0
    9.7397   -5.0427   27.1968 H   0  0  0  0  0  0  0  0  0  0  0  0
    9.9626   -5.2780   25.4587 H   0  0  0  0  0  0  0  0  0  0  0  0
    7.2190   -5.1192   25.8558 C   0  0  0  0  0  0  0  0  0  0  0  0
    6.2440   -4.7102   25.5765 H   0  0  0  0  0  0  0  0  0  0  0  0
    7.1161   -5.6294   26.8209 H   0  0  0  0  0  0  0  0  0  0  0  0
    7.5065   -5.8612   25.1057 H   0  0  0  0  0  0  0  0  0  0  0  0
    6.8862   -1.2581   22.0441 N   0  0  0  0  0  0  0  0  0  0  0  0
    5.9052   -1.2557   22.2783 H   0  0  0  0  0  0  0  0  0  0  0  0
    5.4349    0.6705   20.1279 C   0  0  0  0  0  0  0  0  0  0  0  0
    4.9967    0.6910   21.1261 H   0  0  0  0  0  0  0  0  0  0  0  0
    4.8172    1.3285   19.0632 C   0  0  0  0  0  0  0  0  0  0  0  0
    3.8830    1.8645   19.1978 H   0  0  0  0  0  0  0  0  0  0  0  0
  1  2  1  0
  2  3  2  0
  3  4  1  0
  4  5  1  0
  4  6  2  0
  6  7  1  0
  7  8  2  0
  8  9  1  0
  8 10  1  0
 10 11  1  0
 10 12  2  0
 12 13  1  0
 13 14  2  0
 13 15  1  0
 15 16  1  0
 15 17  1  0
 17 18  1  0
 18 19  1  0
 18 20  1  0
 18 21  1  0
 17 22  1  0
 22 23  1  0
 22 24  1  0
 22 25  1  0
 17 26  1  0
 26 27  1  0
 26 28  1  0
 26 29  1  0
 12 30  1  0
 30 31  1  0
  6 32  1  0
 32 33  1  0
 32 34  2  0
 34 35  1  0
 34  2  1  0
 30  7  1  0
M  END
>  <plip>  (1) 
-0.10714285714285714

>  <filename>  (1) 
[H][c]1[n][c]([H])[c](-[c]2[c]([H])[c]([H])[c]([C](=[O])[N]([H])[C]([C]([H])([H])[H])([C]([H])([H])[H])[C]([H])([H])[H])[n]2[H])[c]([H])[c]1[H]

$$$$
