
     RDKit          3D

 37 38  0  0  0  0  0  0  0  0999 V2000
   11.2925    6.6004   24.6070 C   0  0  0  0  0  0  0  0  0  0  0  0
   10.6268    5.3073   24.5590 N   0  0  0  0  0  0  0  0  0  0  0  0
    9.4579    5.1337   25.2340 C   0  0  0  0  0  0  0  0  0  0  0  0
    9.0508    5.9802   26.0171 O   0  0  0  0  0  0  0  0  0  0  0  0
    8.7085    3.8389   24.9812 C   0  0  0  0  0  0  0  0  0  0  0  0
    7.8588    3.3747   26.0054 C   0  0  0  0  0  0  0  0  0  0  0  0
    7.1176    2.2057   25.8338 C   0  0  0  0  0  0  0  0  0  0  0  0
    7.1941    1.4816   24.6414 C   0  0  0  0  0  0  0  0  0  0  0  0
    8.0211    1.9323   23.5934 C   0  0  0  0  0  0  0  0  0  0  0  0
    8.1452    1.1790   22.2805 C   0  0  0  0  0  0  0  0  0  0  0  0
    8.8223    1.5485   21.3448 O   0  0  0  0  0  0  0  0  0  0  0  0
    7.4265    0.0295   22.2503 O   0  0  0  0  0  0  0  0  0  0  0  0
    7.4104   -0.7102   21.0057 C   0  0  0  0  0  0  0  0  0  0  0  0
    6.7304   -2.0414   21.2781 C   0  0  0  0  0  0  0  0  0  0  0  0
    7.2512   -2.6170   22.0475 H   0  0  0  0  0  0  0  0  0  0  0  0
    6.7207   -2.6257   20.3545 H   0  0  0  0  0  0  0  0  0  0  0  0
    5.6892   -1.8943   21.5855 H   0  0  0  0  0  0  0  0  0  0  0  0
    6.6815    0.0593   19.9228 C   0  0  0  0  0  0  0  0  0  0  0  0
    5.4461    0.6802   20.1577 C   0  0  0  0  0  0  0  0  0  0  0  0
    4.8021    1.3155   19.0969 C   0  0  0  0  0  0  0  0  0  0  0  0
    5.3966    1.2870   17.8299 C   0  0  0  0  0  0  0  0  0  0  0  0
    6.5581    0.6667   17.5746 N   0  0  0  0  0  0  0  0  0  0  0  0
    7.1756    0.0840   18.6156 C   0  0  0  0  0  0  0  0  0  0  0  0
    8.1220   -0.4068   18.3752 H   0  0  0  0  0  0  0  0  0  0  0  0
    4.9288    1.7869   16.9814 H   0  0  0  0  0  0  0  0  0  0  0  0
    3.8669    1.8409   19.2396 H   0  0  0  0  0  0  0  0  0  0  0  0
    5.0099    0.6502   21.1569 H   0  0  0  0  0  0  0  0  0  0  0  0
    8.4491   -0.8694   20.6917 H   0  0  0  0  0  0  0  0  0  0  0  0
    8.7672    3.1166   23.7727 C   0  0  0  0  0  0  0  0  0  0  0  0
    9.3525    3.4680   22.9196 H   0  0  0  0  0  0  0  0  0  0  0  0
    6.6160    0.5678   24.5301 H   0  0  0  0  0  0  0  0  0  0  0  0
    6.4703    1.8651   26.6377 H   0  0  0  0  0  0  0  0  0  0  0  0
    7.7712    3.9566   26.9215 H   0  0  0  0  0  0  0  0  0  0  0  0
   10.9616    4.5496   23.9907 H   0  0  0  0  0  0  0  0  0  0  0  0
   12.1751    6.5932   23.9648 H   0  0  0  0  0  0  0  0  0  0  0  0
   10.5762    7.3597   24.2811 H   0  0  0  0  0  0  0  0  0  0  0  0
   11.5903    6.8659   25.6310 H   0  0  0  0  0  0  0  0  0  0  0  0
  1  2  1  0
  2  3  1  0
  3  4  2  0
  3  5  1  0
  5  6  2  0
  6  7  1  0
  7  8  2  0
  8  9  1  0
  9 10  1  0
 10 11  2  0
 10 12  1  0
 12 13  1  0
 13 14  1  0
 14 15  1  0
 14 16  1  0
 14 17  1  0
 13 18  1  0
 18 19  2  0
 19 20  1  0
 20 21  2  0
 21 22  1  0
 22 23  2  0
 23 24  1  0
 21 25  1  0
 20 26  1  0
 19 27  1  0
 13 28  1  0
  9 29  2  0
 29 30  1  0
  8 31  1  0
  7 32  1  0
  6 33  1  0
  2 34  1  0
  1 35  1  0
  1 36  1  0
  1 37  1  0
 29  5  1  0
 23 18  1  0
M  END
>  <plip>  (1) 
-0.14285714285714285

>  <filename>  (1) 
[H][c]1[n][c]([H])[c]([C]([H])([O][C](=[O])[c]2[c]([H])[c]([H])[c]([H])[c]([C](=[O])[N]([H])[C]([H])([H])[H])[c]2[H])[C]([H])([H])[H])[c]([H])[c]1[H]

$$$$
