
     RDKit          3D

 35 38  0  0  0  0  0  0  0  0999 V2000
    4.9462    2.0166   17.0031 H   0  0  0  0  0  0  0  0  0  0  0  0
    5.3954    1.4768   17.8334 C   0  0  0  0  0  0  0  0  0  0  0  0
    6.4784    0.7460   17.5399 N   0  0  0  0  0  0  0  0  0  0  0  0
    7.0362    0.0491   18.5335 C   0  0  0  0  0  0  0  0  0  0  0  0
    7.9080   -0.5583   18.2881 H   0  0  0  0  0  0  0  0  0  0  0  0
    6.5613    0.0592   19.8586 C   0  0  0  0  0  0  0  0  0  0  0  0
    7.2628   -0.8030   20.8559 C   0  0  0  0  0  0  0  0  0  0  0  0
    7.4605   -0.1060   22.0622 N   0  0  0  0  0  0  0  0  0  0  0  0
    7.9807   -0.7295   23.1021 C   0  0  0  0  0  0  0  0  0  0  0  0
    8.0509    0.0653   24.3428 C   0  0  0  0  0  0  0  0  0  0  0  0
    9.2201    0.0045   25.0941 C   0  0  0  0  0  0  0  0  0  0  0  0
   10.0691   -0.5577   24.7099 H   0  0  0  0  0  0  0  0  0  0  0  0
    9.3374    0.6197   26.3563 C   0  0  0  0  0  0  0  0  0  0  0  0
   10.2539    0.4453   26.9130 H   0  0  0  0  0  0  0  0  0  0  0  0
    8.2993    1.3600   26.8769 C   0  0  0  0  0  0  0  0  0  0  0  0
    8.3719    1.8124   27.8635 H   0  0  0  0  0  0  0  0  0  0  0  0
    7.1060    1.5353   26.1230 C   0  0  0  0  0  0  0  0  0  0  0  0
    6.0128    2.3129   26.6109 C   0  0  0  0  0  0  0  0  0  0  0  0
    6.1068    2.8165   27.5752 H   0  0  0  0  0  0  0  0  0  0  0  0
    4.8609    2.3877   25.8692 C   0  0  0  0  0  0  0  0  0  0  0  0
    3.9956    2.9501   26.1994 H   0  0  0  0  0  0  0  0  0  0  0  0
    4.8025    1.6905   24.6358 C   0  0  0  0  0  0  0  0  0  0  0  0
    3.8843    1.7257   24.0552 H   0  0  0  0  0  0  0  0  0  0  0  0
    5.7894    0.9880   24.1336 N   0  0  0  0  0  0  0  0  0  0  0  0
    6.9597    0.8880   24.8375 C   0  0  0  0  0  0  0  0  0  0  0  0
    8.6083   -2.1463   23.2983 C   0  0  0  0  0  0  0  0  0  0  0  0
    8.5846   -2.3287   24.3819 H   0  0  0  0  0  0  0  0  0  0  0  0
    9.1903   -3.0854   22.6596 N   0  0  0  0  0  0  0  0  0  0  0  0
    9.2560   -3.0838   21.6333 H   0  0  0  0  0  0  0  0  0  0  0  0
    7.6500   -2.2639   20.8787 C   0  0  0  0  0  0  0  0  0  0  0  0
    7.6385   -2.1150   20.6312 O   0  0  0  0  0  0  0  0  0  0  0  0
    5.4448    0.8616   20.1623 C   0  0  0  0  0  0  0  0  0  0  0  0
    5.0818    0.9275   21.1959 H   0  0  0  0  0  0  0  0  0  0  0  0
    4.8424    1.5621   19.1184 C   0  0  0  0  0  0  0  0  0  0  0  0
    3.9622    2.1740   19.2775 H   0  0  0  0  0  0  0  0  0  0  0  0
  1  2  1  0
  2  3  2  0
  3  4  1  0
  4  5  1  0
  4  6  2  0
  6  7  1  0
  7  8  2  0
  8  9  1  0
  9 10  1  0
 10 11  2  0
 11 12  1  0
 11 13  1  0
 13 14  1  0
 13 15  2  0
 15 16  1  0
 15 17  1  0
 17 18  2  0
 18 19  1  0
 18 20  1  0
 20 21  1  0
 20 22  2  0
 22 23  1  0
 22 24  1  0
 24 25  2  0
  9 26  2  0
 26 27  1  0
 26 28  1  0
 28 29  1  0
 28 30  1  0
 30 31  2  0
  6 32  1  0
 32 33  1  0
 32 34  2  0
 34 35  1  0
 34  2  1  0
 30  7  1  0
 25 10  1  0
 25 17  1  0
M  END
>  <plip>  (1) 
-0.10344827586206896

>  <filename>  (1) 
[H][c]1[n][c]([H])[c](-[c]2[n][c](-[c]3[c]([H])[c]([H])[c]([H])[c]4[c]([H])[c]([H])[c]([H])[n][c]34)[c]([H])[n]([H])[c]2=[O])[c]([H])[c]1[H]

$$$$
