
     RDKit          3D

 40 42  0  0  0  0  0  0  0  0999 V2000
    8.6821   -1.0205   23.6709 O   0  0  0  0  0  0  0  0  0  0  0  0
    9.1981   -0.5350   22.6848 C   0  0  0  0  0  0  0  0  0  0  0  0
   10.6129    0.0806   22.7161 C   0  0  0  0  0  0  0  0  0  0  0  0
   10.4390    1.4705   22.9928 O   0  0  0  0  0  0  0  0  0  0  0  0
   11.4275    2.3992   22.8910 C   0  0  0  0  0  0  0  0  0  0  0  0
   12.7643    2.1222   22.7148 C   0  0  0  0  0  0  0  0  0  0  0  0
   13.6933    3.1874   22.5843 C   0  0  0  0  0  0  0  0  0  0  0  0
   13.2909    4.4962   22.6792 C   0  0  0  0  0  0  0  0  0  0  0  0
   14.4292    5.7572   22.2838 Cl  0  0  0  0  0  0  0  0  0  0  0  0
   11.9363    4.8218   23.0079 C   0  0  0  0  0  0  0  0  0  0  0  0
   11.4970    6.1507   23.2765 C   0  0  0  0  0  0  0  0  0  0  0  0
   10.1524    6.4471   23.3109 C   0  0  0  0  0  0  0  0  0  0  0  0
    9.1851    5.4197   23.1577 C   0  0  0  0  0  0  0  0  0  0  0  0
    9.5781    4.1083   23.0111 C   0  0  0  0  0  0  0  0  0  0  0  0
   10.9663    3.7657   22.9901 C   0  0  0  0  0  0  0  0  0  0  0  0
    8.8492    3.3108   22.8941 H   0  0  0  0  0  0  0  0  0  0  0  0
    8.1272    5.6740   23.1653 H   0  0  0  0  0  0  0  0  0  0  0  0
    9.8190    7.4711   23.4518 H   0  0  0  0  0  0  0  0  0  0  0  0
   12.2529    6.9153   23.4276 H   0  0  0  0  0  0  0  0  0  0  0  0
   14.7330    2.9759   22.3668 H   0  0  0  0  0  0  0  0  0  0  0  0
   13.1094    1.0971   22.6188 H   0  0  0  0  0  0  0  0  0  0  0  0
   11.1694   -0.4062   23.5202 H   0  0  0  0  0  0  0  0  0  0  0  0
   11.1294   -0.0863   21.7604 H   0  0  0  0  0  0  0  0  0  0  0  0
    8.5739   -0.4603   21.4635 N   0  0  0  0  0  0  0  0  0  0  0  0
    7.2253   -0.9458   21.1993 C   0  0  0  0  0  0  0  0  0  0  0  0
    6.9741   -2.7016   20.9192 C   0  0  0  0  0  0  0  0  0  0  0  0
    7.9094   -3.4404   21.2143 O   0  0  0  0  0  0  0  0  0  0  0  0
    5.8312   -2.8956   20.5010 O   0  0  0  0  0  1  0  0  0  0  0  0
    6.6590   -0.1629   20.0430 C   0  0  0  0  0  0  0  0  0  0  0  0
    5.4133    0.4719   20.1334 C   0  0  0  0  0  0  0  0  0  0  0  0
    4.9347    1.1739   19.0213 C   0  0  0  0  0  0  0  0  0  0  0  0
    5.6981    1.1800   17.8505 C   0  0  0  0  0  0  0  0  0  0  0  0
    6.8791    0.5526   17.7311 N   0  0  0  0  0  0  0  0  0  0  0  0
    7.3384   -0.0917   18.8121 C   0  0  0  0  0  0  0  0  0  0  0  0
    8.2959   -0.6062   18.6937 H   0  0  0  0  0  0  0  0  0  0  0  0
    5.3547    1.7040   16.9594 H   0  0  0  0  0  0  0  0  0  0  0  0
    3.9965    1.7165   19.0444 H   0  0  0  0  0  0  0  0  0  0  0  0
    4.8435    0.4311   21.0649 H   0  0  0  0  0  0  0  0  0  0  0  0
    6.6143   -0.8349   22.1068 H   0  0  0  0  0  0  0  0  0  0  0  0
    8.9834    0.1634   20.7842 H   0  0  0  0  0  0  0  0  0  0  0  0
  1  2  2  0
  2  3  1  0
  3  4  1  0
  4  5  1  0
  5  6  2  0
  6  7  1  0
  7  8  2  0
  8  9  1  0
  8 10  1  0
 10 11  2  0
 11 12  1  0
 12 13  2  0
 13 14  1  0
 14 15  2  0
 14 16  1  0
 13 17  1  0
 12 18  1  0
 11 19  1  0
  7 20  1  0
  6 21  1  0
  3 22  1  0
  3 23  1  0
  2 24  1  0
 24 25  1  0
 25 26  1  0
 26 27  2  0
 26 28  1  0
 25 29  1  0
 29 30  2  0
 30 31  1  0
 31 32  2  0
 32 33  1  0
 33 34  2  0
 34 35  1  0
 32 36  1  0
 31 37  1  0
 30 38  1  0
 25 39  1  0
 24 40  1  0
 15  5  1  0
 34 29  1  0
 15 10  1  0
M  CHG  1  28  -1
M  END
>  <plip>  (1) 
-0.10344827586206896

>  <filename>  (1) 
[H][c]1[n][c]([H])[c]([C]([H])([C](=[O])[O-])[N]([H])[C](=[O])[C]([H])([H])[O][c]2[c]([H])[c]([H])[c]([Cl])[c]3[c]([H])[c]([H])[c]([H])[c]([H])[c]23)[c]([H])[c]1[H]

$$$$
