
     RDKit          3D

 32 34  0  0  0  0  0  0  0  0999 V2000
    9.1353   -2.3545   23.9419 H   0  0  0  0  0  0  0  0  0  0  0  0
    8.6495   -1.8917   23.0882 C   0  0  0  0  0  0  0  0  0  0  0  0
    8.8610   -2.3655   21.8613 N   0  0  0  0  0  0  0  0  0  0  0  0
    8.2326   -1.6854   20.8664 C   0  0  0  0  0  0  0  0  0  0  0  0
    8.4215   -1.9789   19.8556 H   0  0  0  0  0  0  0  0  0  0  0  0
    7.3659   -0.6015   21.0980 C   0  0  0  0  0  0  0  0  0  0  0  0
    6.6428    0.0766   19.9922 C   0  0  0  0  0  0  0  0  0  0  0  0
    7.1719    0.0749   18.6881 C   0  0  0  0  0  0  0  0  0  0  0  0
    8.1238   -0.4077   18.4635 H   0  0  0  0  0  0  0  0  0  0  0  0
    6.5783    0.6543   17.6423 N   0  0  0  0  0  0  0  0  0  0  0  0
    5.4119    1.2755   17.8609 C   0  0  0  0  0  0  0  0  0  0  0  0
    4.9708    1.7666   16.9982 H   0  0  0  0  0  0  0  0  0  0  0  0
    4.7817    1.3190   19.1085 C   0  0  0  0  0  0  0  0  0  0  0  0
    3.8391    1.8420   19.2180 H   0  0  0  0  0  0  0  0  0  0  0  0
    5.4061    0.7094   20.1963 C   0  0  0  0  0  0  0  0  0  0  0  0
    4.9568    0.7080   21.1929 H   0  0  0  0  0  0  0  0  0  0  0  0
    7.1362   -0.1454   22.3516 N   0  0  0  0  0  0  0  0  0  0  0  0
    7.8095   -0.7558   23.3241 C   0  0  0  0  0  0  0  0  0  0  0  0
    7.7245   -0.3440   24.5980 O   0  0  0  0  0  0  0  0  0  0  0  0
    6.9356    0.8245   24.8919 C   0  0  0  0  0  0  0  0  0  0  0  0
    6.9038    0.8139   25.9853 H   0  0  0  0  0  0  0  0  0  0  0  0
    5.9265    0.6791   24.4921 H   0  0  0  0  0  0  0  0  0  0  0  0
    7.5320    2.1157   24.3417 C   0  0  0  0  0  0  0  0  0  0  0  0
    6.9013    2.8551   23.3237 C   0  0  0  0  0  0  0  0  0  0  0  0
    5.9587    2.5244   22.8969 H   0  0  0  0  0  0  0  0  0  0  0  0
    7.5310    3.9908   22.8028 C   0  0  0  0  0  0  0  0  0  0  0  0
    7.0663    4.5653   21.9996 H   0  0  0  0  0  0  0  0  0  0  0  0
    8.7134    4.4402   23.2418 N   0  0  0  0  0  0  0  0  0  0  0  0
    9.3193    3.7366   24.2043 C   0  0  0  0  0  0  0  0  0  0  0  0
   10.2857    4.1175   24.5353 H   0  0  0  0  0  0  0  0  0  0  0  0
    8.7785    2.5829   24.7829 C   0  0  0  0  0  0  0  0  0  0  0  0
    9.3266    2.0568   25.5583 H   0  0  0  0  0  0  0  0  0  0  0  0
  1  2  1  0
  2  3  2  0
  3  4  1  0
  4  5  1  0
  4  6  2  0
  6  7  1  0
  7  8  2  0
  8  9  1  0
  8 10  1  0
 10 11  2  0
 11 12  1  0
 11 13  1  0
 13 14  1  0
 13 15  2  0
 15 16  1  0
  6 17  1  0
 17 18  2  0
 18 19  1  0
 19 20  1  0
 20 21  1  0
 20 22  1  0
 20 23  1  0
 23 24  2  0
 24 25  1  0
 24 26  1  0
 26 27  1  0
 26 28  2  0
 28 29  1  0
 29 30  1  0
 29 31  2  0
 31 32  1  0
 18  2  1  0
 31 23  1  0
 15  7  1  0
M  END
>  <plip>  (1) 
-0.03571428571428571

>  <filename>  (1) 
[H][c]1[n][c]([H])[c](-[c]2[c]([H])[n][c]([H])[c]([H])[c]2[H])[n][c]1[O][C]([H])([H])[c]1[c]([H])[c]([H])[n][c]([H])[c]1[H]

$$$$
