
     RDKit          3D

 40 42  0  0  0  0  0  0  0  0999 V2000
    4.8888    2.3162   16.7913 H   0  0  0  0  0  0  0  0  0  0  0  0
    5.3207    1.5935   17.4779 C   0  0  0  0  0  0  0  0  0  0  0  0
    6.4191    0.9494   17.0442 N   0  0  0  0  0  0  0  0  0  0  0  0
    7.0086    0.0917   17.8878 C   0  0  0  0  0  0  0  0  0  0  0  0
    7.8964   -0.4299   17.5332 H   0  0  0  0  0  0  0  0  0  0  0  0
    6.5550   -0.1644   19.2067 C   0  0  0  0  0  0  0  0  0  0  0  0
    7.2409   -1.0555   20.1106 N   0  0  0  0  0  0  0  0  0  0  0  0
    6.4029   -1.9357   20.9404 C   0  0  0  0  0  0  0  0  0  0  0  0
    5.8820   -1.3801   21.7352 H   0  0  0  0  0  0  0  0  0  0  0  0
    7.0196   -2.7199   21.3875 H   0  0  0  0  0  0  0  0  0  0  0  0
    5.6456   -2.4017   20.3023 H   0  0  0  0  0  0  0  0  0  0  0  0
    8.5532   -0.4181   20.9776 S   0  0  0  0  0  0  0  0  0  0  0  0
    9.1562    0.6635   20.2324 O   0  0  0  0  0  0  0  0  0  0  0  0
    9.3286   -1.5579   21.4288 O   0  0  0  0  0  0  0  0  0  0  0  0
    7.8053    0.2191   22.3077 N   0  0  0  0  0  0  0  0  0  0  0  0
    7.5132    1.6510   22.3971 C   0  0  0  0  0  0  0  0  0  0  0  0
    8.2838    2.2374   21.8865 H   0  0  0  0  0  0  0  0  0  0  0  0
    6.5493    1.8643   21.9082 H   0  0  0  0  0  0  0  0  0  0  0  0
    7.4648    1.9294   23.9223 C   0  0  0  0  0  0  0  0  0  0  0  0
    6.6872    2.6503   24.1895 H   0  0  0  0  0  0  0  0  0  0  0  0
    8.4154    2.3657   24.2554 H   0  0  0  0  0  0  0  0  0  0  0  0
    7.2538    0.5447   24.5750 C   0  0  2  0  0  0  0  0  0  0  0  0
    6.1891    0.2989   24.5973 H   0  0  0  0  0  0  0  0  0  0  0  0
    7.9056    0.2877   25.9440 C   0  0  0  0  0  0  0  0  0  0  0  0
    7.2827   -0.3834   26.5583 H   0  0  0  0  0  0  0  0  0  0  0  0
    8.0138    1.2163   26.5258 H   0  0  0  0  0  0  0  0  0  0  0  0
    9.1973   -0.3455   25.6626 N   0  0  0  0  0  0  0  0  0  0  0  0
   10.3197    0.0724   26.4629 C   0  0  0  0  0  0  0  0  0  0  0  0
   11.2206   -0.4424   26.1156 H   0  0  0  0  0  0  0  0  0  0  0  0
   10.5140    1.1615   26.4146 H   0  0  0  0  0  0  0  0  0  0  0  0
   10.1672   -0.2109   27.5126 H   0  0  0  0  0  0  0  0  0  0  0  0
    9.4267   -0.4149   24.2226 C   0  0  0  0  0  0  0  0  0  0  0  0
    9.9749   -1.3165   23.9274 H   0  0  0  0  0  0  0  0  0  0  0  0
   10.0059    0.4418   23.8342 H   0  0  0  0  0  0  0  0  0  0  0  0
    8.0040   -0.3911   23.6216 C   0  0  2  0  0  0  0  0  0  0  0  0
    7.5952   -1.4081   23.6410 H   0  0  0  0  0  0  0  0  0  0  0  0
    5.3729    0.4667   19.6056 C   0  0  0  0  0  0  0  0  0  0  0  0
    4.9534    0.2458   20.5860 H   0  0  0  0  0  0  0  0  0  0  0  0
    4.7496    1.3686   18.7321 C   0  0  0  0  0  0  0  0  0  0  0  0
    3.8475    1.9012   19.0125 H   0  0  0  0  0  0  0  0  0  0  0  0
  1  2  1  0
  2  3  2  0
  3  4  1  0
  4  5  1  0
  4  6  2  0
  6  7  1  0
  7  8  1  0
  8  9  1  0
  8 10  1  0
  8 11  1  0
  7 12  1  0
 12 13  2  0
 12 14  2  0
 12 15  1  0
 15 16  1  0
 16 17  1  0
 16 18  1  0
 16 19  1  0
 19 20  1  0
 19 21  1  0
 19 22  1  0
 22 23  1  1
 22 24  1  0
 24 25  1  0
 24 26  1  0
 24 27  1  0
 27 28  1  0
 28 29  1  0
 28 30  1  0
 28 31  1  0
 27 32  1  0
 32 33  1  0
 32 34  1  0
 32 35  1  0
 35 36  1  6
  6 37  1  0
 37 38  1  0
 37 39  2  0
 39 40  1  0
 39  2  1  0
 35 15  1  0
 35 22  1  0
M  END
>  <plip>  (1) 
-0.10344827586206896

>  <filename>  (1) 
[H][c]1[n][c]([H])[c]([N]([C]([H])([H])[H])[S](=[O])(=[O])[N]2[C]([H])([H])[C]([H])([H])[C@]3([H])[C]([H])([H])[N]([C]([H])([H])[H])[C]([H])([H])[C@]23[H])[c]([H])[c]1[H]

$$$$
