
     RDKit          3D

 38 40  0  0  0  0  0  0  0  0999 V2000
    6.9931   -2.1152   21.0705 C   0  0  0  0  0  0  0  0  0  0  0  0
    7.2217   -0.6114   21.2035 C   0  0  0  0  0  0  0  0  0  0  0  0
    6.5737    0.1434   20.0624 C   0  0  0  0  0  0  0  0  0  0  0  0
    5.3414    0.7914   20.1976 C   0  0  0  0  0  0  0  0  0  0  0  0
    4.7626    1.3720   19.0672 C   0  0  0  0  0  0  0  0  0  0  0  0
    5.4479    1.3028   17.8492 C   0  0  0  0  0  0  0  0  0  0  0  0
    6.6370    0.6994   17.7065 N   0  0  0  0  0  0  0  0  0  0  0  0
    7.1746    0.1420   18.7985 C   0  0  0  0  0  0  0  0  0  0  0  0
    8.1300   -0.3636   18.6474 H   0  0  0  0  0  0  0  0  0  0  0  0
    5.0154    1.7397   16.9501 H   0  0  0  0  0  0  0  0  0  0  0  0
    3.8012    1.8695   19.1180 H   0  0  0  0  0  0  0  0  0  0  0  0
    4.8457    0.8391   21.1690 H   0  0  0  0  0  0  0  0  0  0  0  0
    8.6475   -0.2552   21.3252 N   0  0  0  0  0  0  0  0  0  0  0  0
    9.7287   -1.1011   20.8348 C   0  0  0  0  0  0  0  0  0  0  0  0
   10.2968   -0.5799   20.0625 H   0  0  0  0  0  0  0  0  0  0  0  0
   10.4288   -1.3413   21.6432 H   0  0  0  0  0  0  0  0  0  0  0  0
    9.3408   -2.0344   20.4130 H   0  0  0  0  0  0  0  0  0  0  0  0
    8.9946    0.9576   21.8590 C   0  0  0  0  0  0  0  0  0  0  0  0
   10.2165    1.3633   22.0146 N   0  0  0  0  0  0  0  0  0  0  0  0
   10.2306    2.5986   22.6577 C   0  0  0  0  0  0  0  0  0  0  0  0
   11.3754    3.3255   23.0198 C   0  0  0  0  0  0  0  0  0  0  0  0
   11.2598    4.5326   23.7280 C   0  0  0  0  0  0  0  0  0  0  0  0
   12.5073    5.2841   24.1174 C   0  0  0  0  0  0  0  0  0  0  0  0
   13.6350    4.8255   24.1091 O   0  0  0  0  0  0  0  0  0  0  0  0
   12.3380    6.5856   24.5308 N   0  0  0  0  0  0  0  0  0  0  0  0
   13.2615    6.9900   24.5618 H   0  0  0  0  0  0  0  0  0  0  0  0
   11.6461    7.1003   24.0120 H   0  0  0  0  0  0  0  0  0  0  0  0
    9.9675    5.0084   24.0766 C   0  0  0  0  0  0  0  0  0  0  0  0
    8.8214    4.3173   23.7054 C   0  0  0  0  0  0  0  0  0  0  0  0
    8.9656    3.1257   22.9931 C   0  0  0  0  0  0  0  0  0  0  0  0
    7.7177    2.0625   22.4286 S   0  0  0  0  0  0  0  0  0  0  0  0
    7.8349    4.6877   23.9724 H   0  0  0  0  0  0  0  0  0  0  0  0
    9.8678    5.9126   24.6749 H   0  0  0  0  0  0  0  0  0  0  0  0
   12.3462    2.9231   22.7451 H   0  0  0  0  0  0  0  0  0  0  0  0
    6.7319   -0.3032   22.1365 H   0  0  0  0  0  0  0  0  0  0  0  0
    5.9960   -2.3632   21.4407 H   0  0  0  0  0  0  0  0  0  0  0  0
    7.7253   -2.6627   21.6665 H   0  0  0  0  0  0  0  0  0  0  0  0
    7.0447   -2.4407   20.0267 H   0  0  0  0  0  0  0  0  0  0  0  0
  1  2  1  0
  2  3  1  0
  3  4  2  0
  4  5  1  0
  5  6  2  0
  6  7  1  0
  7  8  2  0
  8  9  1  0
  6 10  1  0
  5 11  1  0
  4 12  1  0
  2 13  1  0
 13 14  1  0
 14 15  1  0
 14 16  1  0
 14 17  1  0
 13 18  1  0
 18 19  2  0
 19 20  1  0
 20 21  2  0
 21 22  1  0
 22 23  1  0
 23 24  2  0
 23 25  1  0
 25 26  1  0
 25 27  1  0
 22 28  2  0
 28 29  1  0
 29 30  2  0
 30 31  1  0
 29 32  1  0
 28 33  1  0
 21 34  1  0
  2 35  1  0
  1 36  1  0
  1 37  1  0
  1 38  1  0
  8  3  1  0
 31 18  1  0
 30 20  1  0
M  END
>  <plip>  (1) 
-0.0967741935483871

>  <filename>  (1) 
[H][c]1[n][c]([H])[c]([C]([H])([N]([c]2[n][c]3[c]([H])[c]([C](=[O])[N]([H])[H])[c]([H])[c]([H])[c]3[s]2)[C]([H])([H])[H])[C]([H])([H])[H])[c]([H])[c]1[H]

$$$$
