
     RDKit          3D

 33 35  0  0  0  0  0  0  0  0999 V2000
    4.9558    1.8035   17.0136 H   0  0  0  0  0  0  0  0  0  0  0  0
    5.4437    1.2953   17.8436 C   0  0  0  0  0  0  0  0  0  0  0  0
    6.5990    0.6767   17.5525 N   0  0  0  0  0  0  0  0  0  0  0  0
    7.2179    0.0339   18.5434 C   0  0  0  0  0  0  0  0  0  0  0  0
    8.1456   -0.4740   18.2876 H   0  0  0  0  0  0  0  0  0  0  0  0
    6.7370   -0.0103   19.8623 C   0  0  0  0  0  0  0  0  0  0  0  0
    7.5577   -0.7624   20.8560 C   0  0  0  0  0  0  0  0  0  0  0  0
    8.3393   -1.6116   20.4639 O   0  0  0  0  0  0  0  0  0  0  0  0
    7.4104   -0.4804   22.3751 C   0  0  0  0  0  0  0  0  0  0  0  0
    7.4296    0.8889   22.8752 N   0  0  0  0  0  0  0  0  0  0  0  0
    6.5494    1.3141   23.1530 H   0  0  0  0  0  0  0  0  0  0  0  0
    8.4128    1.4889   23.6494 C   0  0  0  0  0  0  0  0  0  0  0  0
    8.1006    2.4013   24.3864 O   0  0  0  0  0  0  0  0  0  0  0  0
    9.8318    0.9257   23.4961 C   0  0  0  0  0  0  0  0  0  0  0  0
   10.6461    0.6148   24.6039 C   0  0  0  0  0  0  0  0  0  0  0  0
   10.3042    0.7731   25.6253 H   0  0  0  0  0  0  0  0  0  0  0  0
   11.9018    0.0284   24.3824 C   0  0  0  0  0  0  0  0  0  0  0  0
   12.5186   -0.2552   25.2363 H   0  0  0  0  0  0  0  0  0  0  0  0
   12.3857   -0.2640   23.1656 N   0  0  0  0  0  0  0  0  0  0  0  0
   11.6002    0.0061   22.1155 C   0  0  0  0  0  0  0  0  0  0  0  0
   11.9644   -0.3120   21.1386 H   0  0  0  0  0  0  0  0  0  0  0  0
   10.3461    0.6171   22.2242 C   0  0  0  0  0  0  0  0  0  0  0  0
    9.7854    0.8348   21.3185 H   0  0  0  0  0  0  0  0  0  0  0  0
    8.0209   -1.5319   23.2706 C   0  0  0  0  0  0  0  0  0  0  0  0
    8.5465   -2.3417   22.7707 H   0  0  0  0  0  0  0  0  0  0  0  0
    8.4909   -1.1321   24.1633 H   0  0  0  0  0  0  0  0  0  0  0  0
    6.5404   -1.4170   23.1794 C   0  0  0  0  0  0  0  0  0  0  0  0
    5.9634   -2.1997   22.6929 H   0  0  0  0  0  0  0  0  0  0  0  0
    6.0438   -0.9673   24.0398 H   0  0  0  0  0  0  0  0  0  0  0  0
    5.5269    0.6349   20.1533 C   0  0  0  0  0  0  0  0  0  0  0  0
    5.1039    0.6288   21.1595 H   0  0  0  0  0  0  0  0  0  0  0  0
    4.8663    1.2917   19.1171 C   0  0  0  0  0  0  0  0  0  0  0  0
    3.9249    1.8034   19.2781 H   0  0  0  0  0  0  0  0  0  0  0  0
  1  2  1  0
  2  3  2  0
  3  4  1  0
  4  5  1  0
  4  6  2  0
  6  7  1  0
  7  8  2  0
  7  9  1  0
  9 10  1  0
 10 11  1  0
 10 12  1  0
 12 13  2  0
 12 14  1  0
 14 15  2  0
 15 16  1  0
 15 17  1  0
 17 18  1  0
 17 19  2  0
 19 20  1  0
 20 21  1  0
 20 22  2  0
 22 23  1  0
  9 24  1  0
 24 25  1  0
 24 26  1  0
 24 27  1  0
 27 28  1  0
 27 29  1  0
  6 30  1  0
 30 31  1  0
 30 32  2  0
 32 33  1  0
 32  2  1  0
 27  9  1  0
 22 14  1  0
M  END
>  <plip>  (1) 
-0.10344827586206896

>  <filename>  (1) 
[H][c]1[n][c]([H])[c]([C](=[O])[C]2([N]([H])[C](=[O])[c]3[c]([H])[c]([H])[n][c]([H])[c]3[H])[C]([H])([H])[C]2([H])[H])[c]([H])[c]1[H]

$$$$
