
     RDKit          3D

 32 32  0  0  0  0  0  0  0  0999 V2000
    2.7436    0.2380   26.9232 H   0  0  0  0  0  0  0  0  0  0  0  0
    3.1902    0.8753   26.3376 O   0  0  0  0  0  0  0  0  0  0  0  0
    4.2551    0.1220   26.0419 C   0  0  0  0  0  0  0  0  0  0  0  0
    4.3488   -0.9736   26.5567 O   0  0  0  0  0  0  0  0  0  0  0  0
    5.2419    0.6562   24.9908 C   0  0  0  0  0  0  0  0  0  0  0  0
    5.2295    1.9481   24.6696 O   0  0  0  0  0  0  0  0  0  0  0  0
    5.9247    2.0527   23.9694 H   0  0  0  0  0  0  0  0  0  0  0  0
    6.0666   -0.2223   24.3552 C   0  0  0  0  0  0  0  0  0  0  0  0
    6.1427   -1.2247   24.7427 H   0  0  0  0  0  0  0  0  0  0  0  0
    6.6963    0.0832   23.0695 C   0  0  0  0  0  0  0  0  0  0  0  0
    6.8305    1.2507   22.7155 O   0  0  0  0  0  0  0  0  0  0  0  0
    7.1991   -1.1540   22.1802 C   0  0  0  0  0  0  0  0  0  0  0  0
    7.6582   -0.8307   20.8254 N   0  0  0  0  0  0  0  0  0  0  0  0
    8.6650   -0.8193   20.7315 H   0  0  0  0  0  0  0  0  0  0  0  0
    6.9414   -0.1530   19.8322 C   0  0  0  0  0  0  0  0  0  0  0  0
    7.4587   -0.0086   18.5121 C   0  0  0  0  0  0  0  0  0  0  0  0
    8.4146   -0.4567   18.2461 H   0  0  0  0  0  0  0  0  0  0  0  0
    6.8573    0.6623   17.5173 N   0  0  0  0  0  0  0  0  0  0  0  0
    5.6839    1.2571   17.7909 C   0  0  0  0  0  0  0  0  0  0  0  0
    5.2286    1.8297   16.9844 H   0  0  0  0  0  0  0  0  0  0  0  0
    5.0682    1.1587   19.0401 C   0  0  0  0  0  0  0  0  0  0  0  0
    4.1374    1.6823   19.2221 H   0  0  0  0  0  0  0  0  0  0  0  0
    5.6824    0.4231   20.0610 C   0  0  0  0  0  0  0  0  0  0  0  0
    5.2137    0.3189   21.0345 H   0  0  0  0  0  0  0  0  0  0  0  0
    6.1242   -2.2587   22.0586 C   0  0  0  0  0  0  0  0  0  0  0  0
    5.7263   -2.5580   23.0338 H   0  0  0  0  0  0  0  0  0  0  0  0
    6.5785   -3.1367   21.5883 H   0  0  0  0  0  0  0  0  0  0  0  0
    5.2924   -1.9410   21.4237 H   0  0  0  0  0  0  0  0  0  0  0  0
    8.4291   -1.7550   22.8735 C   0  0  0  0  0  0  0  0  0  0  0  0
    9.2428   -1.0309   22.9596 H   0  0  0  0  0  0  0  0  0  0  0  0
    8.2092   -2.1297   23.8770 H   0  0  0  0  0  0  0  0  0  0  0  0
    8.7898   -2.6016   22.2814 H   0  0  0  0  0  0  0  0  0  0  0  0
  1  2  1  0
  2  3  1  0
  3  4  2  0
  3  5  1  0
  5  6  1  0
  6  7  1  0
  5  8  2  3
  8  9  1  0
  8 10  1  0
 10 11  2  0
 10 12  1  0
 12 13  1  0
 13 14  1  0
 13 15  1  0
 15 16  2  0
 16 17  1  0
 16 18  1  0
 18 19  2  0
 19 20  1  0
 19 21  1  0
 21 22  1  0
 21 23  2  0
 23 24  1  0
 12 25  1  0
 25 26  1  0
 25 27  1  0
 25 28  1  0
 12 29  1  0
 29 30  1  0
 29 31  1  0
 29 32  1  0
 23 15  1  0
M  END
>  <plip>  (1) 
-0.06896551724137931

>  <filename>  (1) 
[H][O][C](=[O])[C]([O][H])=[C]([H])[C](=[O])[C]([N]([H])[c]1[c]([H])[n][c]([H])[c]([H])[c]1[H])([C]([H])([H])[H])[C]([H])([H])[H]

$$$$
