
     RDKit          3D

 30 31  0  0  0  0  0  0  0  0999 V2000
    4.9233    1.8512   16.9597 H   0  0  0  0  0  0  0  0  0  0  0  0
    5.3990    1.3480   17.7988 C   0  0  0  0  0  0  0  0  0  0  0  0
    6.5637    0.7355   17.5379 N   0  0  0  0  0  0  0  0  0  0  0  0
    7.1599    0.0944   18.5535 C   0  0  0  0  0  0  0  0  0  0  0  0
    8.1075   -0.3879   18.3109 H   0  0  0  0  0  0  0  0  0  0  0  0
    6.6288   -0.0119   19.8623 C   0  0  0  0  0  0  0  0  0  0  0  0
    7.3105   -0.7837   20.9427 C   0  0  0  0  0  0  0  0  0  0  0  0
    8.5712   -0.5903   21.4204 C   0  0  0  0  0  0  0  0  0  0  0  0
    9.4688    0.5370   21.0908 C   0  0  0  0  0  0  0  0  0  0  0  0
   10.5296    0.2885   21.1883 H   0  0  0  0  0  0  0  0  0  0  0  0
    9.2793    0.9861   20.1121 H   0  0  0  0  0  0  0  0  0  0  0  0
    9.3667    1.9166   22.2250 S   0  0  0  0  0  0  0  0  0  0  0  0
    9.4499    1.4549   23.6084 O   0  0  0  0  0  0  0  0  0  0  0  0
   10.3190    2.8880   21.7192 O   0  0  0  0  0  0  0  0  0  0  0  0
    7.7390    2.5349   22.0053 C   0  0  0  0  0  0  0  0  0  0  0  0
    7.7369    3.4853   22.5348 H   0  0  0  0  0  0  0  0  0  0  0  0
    7.0572    1.8308   22.4783 H   0  0  0  0  0  0  0  0  0  0  0  0
    7.5097    2.6560   20.9473 H   0  0  0  0  0  0  0  0  0  0  0  0
    8.9508   -1.5110   22.5486 C   0  0  0  0  0  0  0  0  0  0  0  0
    9.2013   -0.9042   23.4316 H   0  0  0  0  0  0  0  0  0  0  0  0
    9.8427   -2.0988   22.2775 H   0  0  0  0  0  0  0  0  0  0  0  0
    7.7033   -2.3835   22.7572 C   0  0  0  0  0  0  0  0  0  0  0  0
    7.2724   -2.2908   23.7591 H   0  0  0  0  0  0  0  0  0  0  0  0
    7.8866   -3.4469   22.5800 H   0  0  0  0  0  0  0  0  0  0  0  0
    6.6831   -1.8966   21.7195 C   0  0  0  0  0  0  0  0  0  0  0  0
    5.5923   -2.3954   21.5558 O   0  0  0  0  0  0  0  0  0  0  0  0
    5.4003    0.6342   20.0976 C   0  0  0  0  0  0  0  0  0  0  0  0
    4.9484    0.6030   21.0920 H   0  0  0  0  0  0  0  0  0  0  0  0
    4.7855    1.3352   19.0547 C   0  0  0  0  0  0  0  0  0  0  0  0
    3.8498    1.8689   19.1939 H   0  0  0  0  0  0  0  0  0  0  0  0
  1  2  1  0
  2  3  2  0
  3  4  1  0
  4  5  1  0
  4  6  2  0
  6  7  1  0
  7  8  2  0
  8  9  1  0
  9 10  1  0
  9 11  1  0
  9 12  1  0
 12 13  2  0
 12 14  2  0
 12 15  1  0
 15 16  1  0
 15 17  1  0
 15 18  1  0
  8 19  1  0
 19 20  1  0
 19 21  1  0
 19 22  1  0
 22 23  1  0
 22 24  1  0
 22 25  1  0
 25 26  2  0
  6 27  1  0
 27 28  1  0
 27 29  2  0
 29 30  1  0
 29  2  1  0
 25  7  1  0
M  END
>  <plip>  (1) 
-0.07142857142857142

>  <filename>  (1) 
[H][c]1[n][c]([H])[c]([C]2=[C]([C]([H])([H])[S](=[O])(=[O])[C]([H])([H])[H])[C]([H])([H])[C]([H])([H])[C]2=[O])[c]([H])[c]1[H]

$$$$
