
     RDKit          3D

 27 29  0  0  0  0  0  0  0  0999 V2000
    7.3149    4.1770   21.7813 H   0  0  0  0  0  0  0  0  0  0  0  0
    7.2547    3.3405   22.4721 C   0  0  0  0  0  0  0  0  0  0  0  0
    6.8731    3.6244   23.7130 N   0  0  0  0  0  0  0  0  0  0  0  0
    6.7704    2.5786   24.5388 C   0  0  0  0  0  0  0  0  0  0  0  0
    6.4658    2.8016   25.5625 H   0  0  0  0  0  0  0  0  0  0  0  0
    7.0245    1.2825   24.1397 C   0  0  0  0  0  0  0  0  0  0  0  0
    6.8667    0.4537   24.8101 H   0  0  0  0  0  0  0  0  0  0  0  0
    7.4141    1.1141   22.8025 C   0  0  0  0  0  0  0  0  0  0  0  0
    7.6704   -0.1691   22.2838 N   0  0  0  0  0  0  0  0  0  0  0  0
    8.2916   -1.1882   22.9957 C   0  0  0  0  0  0  0  0  0  0  0  0
    8.6516   -1.0212   24.0073 H   0  0  0  0  0  0  0  0  0  0  0  0
    8.3047   -2.3080   22.2207 C   0  0  0  0  0  0  0  0  0  0  0  0
    8.7580   -3.2474   22.5057 H   0  0  0  0  0  0  0  0  0  0  0  0
    7.6387   -1.9931   21.0081 C   0  0  0  0  0  0  0  0  0  0  0  0
    7.3200   -2.6702   20.2309 H   0  0  0  0  0  0  0  0  0  0  0  0
    7.2906   -0.6697   21.0287 C   0  0  0  0  0  0  0  0  0  0  0  0
    6.5965    0.0770   19.9538 C   0  0  0  0  0  0  0  0  0  0  0  0
    7.1360    0.1004   18.6511 C   0  0  0  0  0  0  0  0  0  0  0  0
    8.0910   -0.3853   18.4430 H   0  0  0  0  0  0  0  0  0  0  0  0
    6.5680    0.7028   17.5970 N   0  0  0  0  0  0  0  0  0  0  0  0
    5.3970    1.3263   17.8063 C   0  0  0  0  0  0  0  0  0  0  0  0
    4.9466    1.8082   16.9386 H   0  0  0  0  0  0  0  0  0  0  0  0
    4.7547    1.3510   19.0474 C   0  0  0  0  0  0  0  0  0  0  0  0
    3.8015    1.8574   19.1461 H   0  0  0  0  0  0  0  0  0  0  0  0
    5.3537    0.7143   20.1355 C   0  0  0  0  0  0  0  0  0  0  0  0
    4.8873    0.7166   21.1228 H   0  0  0  0  0  0  0  0  0  0  0  0
    7.5559    2.1440   21.9734 N   0  0  0  0  0  0  0  0  0  0  0  0
  1  2  1  0
  2  3  2  0
  3  4  1  0
  4  5  1  0
  4  6  2  0
  6  7  1  0
  6  8  1  0
  8  9  1  0
  9 10  1  0
 10 11  1  0
 10 12  2  0
 12 13  1  0
 12 14  1  0
 14 15  1  0
 14 16  2  0
 16 17  1  0
 17 18  2  0
 18 19  1  0
 18 20  1  0
 20 21  2  0
 21 22  1  0
 21 23  1  0
 23 24  1  0
 23 25  2  0
 25 26  1  0
  8 27  2  0
 27  2  1  0
 16  9  1  0
 25 17  1  0
M  END
>  <plip>  (1) 
-0.03571428571428571

>  <filename>  (1) 
[H][c]1[n][c]([H])[c]([H])[c](-[n]2[c]([H])[c]([H])[c]([H])[c]2-[c]2[c]([H])[n][c]([H])[c]([H])[c]2[H])[n]1

$$$$
