
     RDKit          3D

 30 31  0  0  0  0  0  0  0  0999 V2000
    9.8601   -1.7100   21.9741 H   0  0  0  0  0  0  0  0  0  0  0  0
   10.5106   -1.0125   22.1826 O   0  0  0  0  0  0  0  0  0  0  0  0
   10.0921   -0.4506   23.3387 C   0  0  0  0  0  0  0  0  0  0  0  0
   10.9252    0.4974   23.9493 C   0  0  0  0  0  0  0  0  0  0  0  0
   11.8102    0.8170   23.4073 H   0  0  0  0  0  0  0  0  0  0  0  0
   10.5820    0.9971   25.2069 C   0  0  0  0  0  0  0  0  0  0  0  0
   11.1801    1.7707   25.6773 H   0  0  0  0  0  0  0  0  0  0  0  0
    9.4319    0.5401   25.8624 C   0  0  0  0  0  0  0  0  0  0  0  0
    9.2110    0.8768   26.8695 H   0  0  0  0  0  0  0  0  0  0  0  0
    8.5635   -0.3338   25.2063 C   0  0  0  0  0  0  0  0  0  0  0  0
    7.6442   -0.6477   25.7002 H   0  0  0  0  0  0  0  0  0  0  0  0
    8.8460   -0.7865   23.9110 C   0  0  0  0  0  0  0  0  0  0  0  0
    7.7921   -1.4796   23.0683 C   0  0  2  0  0  0  0  0  0  0  0  0
    6.9677   -1.8269   23.7035 H   0  0  0  0  0  0  0  0  0  0  0  0
    8.3764   -2.6150   22.3658 O   0  0  0  0  0  0  0  0  0  0  0  0
    8.6788   -3.2370   23.0499 H   0  0  0  0  0  0  0  0  0  0  0  0
    7.0729   -0.4371   22.1367 C   0  0  0  0  0  0  0  0  0  0  0  0
    6.4210    0.4504   22.6580 O   0  0  0  0  0  0  0  0  0  0  0  0
    7.2263   -0.6046   20.7874 N   0  0  0  0  0  0  0  0  0  0  0  0
    7.8597   -1.3507   20.5428 H   0  0  0  0  0  0  0  0  0  0  0  0
    6.5854    0.1068   19.7363 C   0  0  0  0  0  0  0  0  0  0  0  0
    7.1270    0.0909   18.4292 C   0  0  0  0  0  0  0  0  0  0  0  0
    8.0785   -0.4092   18.2382 H   0  0  0  0  0  0  0  0  0  0  0  0
    6.5567    0.6844   17.3734 N   0  0  0  0  0  0  0  0  0  0  0  0
    5.4037    1.3434   17.5826 C   0  0  0  0  0  0  0  0  0  0  0  0
    4.9614    1.8145   16.7088 H   0  0  0  0  0  0  0  0  0  0  0  0
    4.7982    1.4455   18.8365 C   0  0  0  0  0  0  0  0  0  0  0  0
    3.8831    2.0225   18.9423 H   0  0  0  0  0  0  0  0  0  0  0  0
    5.4012    0.8340   19.9447 C   0  0  0  0  0  0  0  0  0  0  0  0
    5.0000    0.9368   20.9483 H   0  0  0  0  0  0  0  0  0  0  0  0
  1  2  1  0
  2  3  1  0
  3  4  2  0
  4  5  1  0
  4  6  1  0
  6  7  1  0
  6  8  2  0
  8  9  1  0
  8 10  1  0
 10 11  1  0
 10 12  2  0
 12 13  1  0
 13 14  1  1
 13 15  1  0
 15 16  1  0
 13 17  1  0
 17 18  2  0
 17 19  1  0
 19 20  1  0
 19 21  1  0
 21 22  2  0
 22 23  1  0
 22 24  1  0
 24 25  2  0
 25 26  1  0
 25 27  1  0
 27 28  1  0
 27 29  2  0
 29 30  1  0
 12  3  1  0
 29 21  1  0
M  END
>  <plip>  (1) 
-0.13793103448275862

>  <filename>  (1) 
[H][O][c]1[c]([H])[c]([H])[c]([H])[c]([H])[c]1[C@]([H])([O][H])[C](=[O])[N]([H])[c]1[c]([H])[n][c]([H])[c]([H])[c]1[H]

$$$$
