
     RDKit          3D

 33 34  0  0  0  0  0  0  0  0999 V2000
    5.0122    1.7934   17.0224 H   0  0  0  0  0  0  0  0  0  0  0  0
    5.4896    1.2743   17.8495 C   0  0  0  0  0  0  0  0  0  0  0  0
    6.6587    0.6693   17.5696 N   0  0  0  0  0  0  0  0  0  0  0  0
    7.2591    0.0075   18.5639 C   0  0  0  0  0  0  0  0  0  0  0  0
    8.2108   -0.4747   18.3442 H   0  0  0  0  0  0  0  0  0  0  0  0
    6.7299   -0.1154   19.8627 C   0  0  0  0  0  0  0  0  0  0  0  0
    7.4468   -0.8521   20.8581 N   0  0  0  0  0  0  0  0  0  0  0  0
    8.3189   -0.4658   21.1756 H   0  0  0  0  0  0  0  0  0  0  0  0
    6.8677   -1.7239   21.7389 C   0  0  0  0  0  0  0  0  0  0  0  0
    5.8591   -2.3563   21.5271 O   0  0  0  0  0  0  0  0  0  0  0  0
    7.6736   -1.9498   23.0310 C   0  0  0  0  0  0  0  0  0  0  0  0
    8.6134   -0.9657   23.2577 F   0  0  0  0  0  0  0  0  0  0  0  0
    6.8351   -1.9177   24.1068 F   0  0  0  0  0  0  0  0  0  0  0  0
    8.3877   -3.3181   22.8480 C   0  0  0  0  0  0  0  0  0  0  0  0
    8.5691   -3.7306   21.7135 O   0  0  0  0  0  0  0  0  0  0  0  0
    8.7893   -3.9990   23.9703 N   0  0  0  0  0  0  0  0  0  0  0  0
    8.7541   -3.4234   25.3351 C   0  0  0  0  0  0  0  0  0  0  0  0
    8.9610   -2.3473   25.3063 H   0  0  0  0  0  0  0  0  0  0  0  0
    7.7719   -3.5775   25.8010 H   0  0  0  0  0  0  0  0  0  0  0  0
    9.8105   -4.1058   26.2034 C   0  0  0  0  0  0  0  0  0  0  0  0
   10.8041   -3.8424   25.8152 H   0  0  0  0  0  0  0  0  0  0  0  0
    9.7345   -3.7779   27.2444 H   0  0  0  0  0  0  0  0  0  0  0  0
    9.6612   -5.5136   26.2175 O   0  0  0  0  0  0  0  0  0  0  0  0
    9.8243   -6.0435   24.9124 C   0  0  0  0  0  0  0  0  0  0  0  0
   10.8471   -5.8342   24.5577 H   0  0  0  0  0  0  0  0  0  0  0  0
    9.7199   -7.1250   25.0001 H   0  0  0  0  0  0  0  0  0  0  0  0
    8.7911   -5.4773   23.9279 C   0  0  0  0  0  0  0  0  0  0  0  0
    9.0226   -5.7920   22.9043 H   0  0  0  0  0  0  0  0  0  0  0  0
    7.7839   -5.8582   24.1711 H   0  0  0  0  0  0  0  0  0  0  0  0
    5.5239    0.5326   20.1487 C   0  0  0  0  0  0  0  0  0  0  0  0
    5.1107    0.4881   21.1594 H   0  0  0  0  0  0  0  0  0  0  0  0
    4.8935    1.2378   19.1163 C   0  0  0  0  0  0  0  0  0  0  0  0
    3.9603    1.7703   19.2784 H   0  0  0  0  0  0  0  0  0  0  0  0
  1  2  1  0
  2  3  2  0
  3  4  1  0
  4  5  1  0
  4  6  2  0
  6  7  1  0
  7  8  1  0
  7  9  1  0
  9 10  2  0
  9 11  1  0
 11 12  1  0
 11 13  1  0
 11 14  1  0
 14 15  2  0
 14 16  1  0
 16 17  1  0
 17 18  1  0
 17 19  1  0
 17 20  1  0
 20 21  1  0
 20 22  1  0
 20 23  1  0
 23 24  1  0
 24 25  1  0
 24 26  1  0
 24 27  1  0
 27 28  1  0
 27 29  1  0
  6 30  1  0
 30 31  1  0
 30 32  2  0
 32 33  1  0
 32  2  1  0
 27 16  1  0
M  END
>  <plip>  (1) 
-0.10344827586206896

>  <filename>  (1) 
[H][c]1[n][c]([H])[c]([N]([H])[C](=[O])[C]([F])([F])[C](=[O])[N]2[C]([H])([H])[C]([H])([H])[O][C]([H])([H])[C]2([H])[H])[c]([H])[c]1[H]

$$$$
