
     RDKit          3D

 51 54  0  0  0  0  0  0  0  0999 V2000
    4.0262   -6.3340   21.6719 F   0  0  0  0  0  0  0  0  0  0  0  0
    3.3409   -6.5638   22.7875 C   0  0  0  0  0  0  0  0  0  0  0  0
    2.3504   -7.5449   22.7679 C   0  0  0  0  0  0  0  0  0  0  0  0
    1.6682   -7.8458   23.9508 C   0  0  0  0  0  0  0  0  0  0  0  0
    1.9725   -7.1591   25.1352 C   0  0  0  0  0  0  0  0  0  0  0  0
    2.9467   -6.1622   25.1335 C   0  0  0  0  0  0  0  0  0  0  0  0
    3.6412   -5.8443   23.9513 C   0  0  0  0  0  0  0  0  0  0  0  0
    4.6756   -4.8089   23.9263 C   0  0  0  0  0  0  0  0  0  0  0  0
    4.9871   -4.1030   24.9828 N   0  0  0  0  0  0  0  0  0  0  0  0
    5.9824   -3.2665   24.5309 O   0  0  0  0  0  0  0  0  0  0  0  0
    6.1557   -3.5377   23.2407 C   0  0  0  0  0  0  0  0  0  0  0  0
    7.1436   -2.7098   22.4775 C   0  0  0  0  0  0  0  0  0  0  0  0
    6.5226   -1.5123   21.8048 N   0  0  0  0  0  4  0  0  0  0  0  0
    7.4600   -0.6903   20.9786 C   0  0  0  0  0  0  0  0  0  0  0  0
    6.6243   -0.0218   19.9086 C   0  0  0  0  0  0  0  0  0  0  0  0
    5.4010    0.6335   20.1403 C   0  0  0  0  0  0  0  0  0  0  0  0
    4.7801    1.3071   19.0845 C   0  0  0  0  0  0  0  0  0  0  0  0
    5.3858    1.2931   17.8251 C   0  0  0  0  0  0  0  0  0  0  0  0
    6.5405    0.6597   17.5739 N   0  0  0  0  0  0  0  0  0  0  0  0
    7.1321    0.0367   18.5994 C   0  0  0  0  0  0  0  0  0  0  0  0
    8.0895   -0.4377   18.3684 H   0  0  0  0  0  0  0  0  0  0  0  0
    4.9333    1.8132   16.9821 H   0  0  0  0  0  0  0  0  0  0  0  0
    3.8551    1.8597   19.2244 H   0  0  0  0  0  0  0  0  0  0  0  0
    4.9559    0.6728   21.1382 H   0  0  0  0  0  0  0  0  0  0  0  0
    8.3438    0.2478   21.8413 C   0  0  0  0  0  0  0  0  0  0  0  0
    7.5984    1.4531   22.4584 C   0  0  0  0  0  0  0  0  0  0  0  0
    8.5440    2.3196   23.3062 C   0  0  0  0  0  0  0  0  0  0  0  0
    9.7536    2.7871   22.4790 C   0  0  0  0  0  0  0  0  0  0  0  0
   10.4973    1.6067   21.8280 C   0  0  0  0  0  0  0  0  0  0  0  0
    9.5444    0.7230   21.0134 C   0  0  0  0  0  0  0  0  0  0  0  0
    9.1277    1.2768   20.1644 H   0  0  0  0  0  0  0  0  0  0  0  0
   10.0907   -0.1375   20.6029 H   0  0  0  0  0  0  0  0  0  0  0  0
   11.3178    1.9698   21.1949 H   0  0  0  0  0  0  0  0  0  0  0  0
   10.9696    0.9951   22.6147 H   0  0  0  0  0  0  0  0  0  0  0  0
    9.3721    3.4541   21.6934 H   0  0  0  0  0  0  0  0  0  0  0  0
   10.4416    3.3862   23.0905 H   0  0  0  0  0  0  0  0  0  0  0  0
    8.8816    1.7400   24.1804 H   0  0  0  0  0  0  0  0  0  0  0  0
    8.0026    3.1901   23.6998 H   0  0  0  0  0  0  0  0  0  0  0  0
    7.1747    2.0607   21.6413 H   0  0  0  0  0  0  0  0  0  0  0  0
    6.7487    1.1190   23.0726 H   0  0  0  0  0  0  0  0  0  0  0  0
    8.7207   -0.3671   22.6762 H   0  0  0  0  0  0  0  0  0  0  0  0
    8.1485   -1.3793   20.4751 H   0  0  0  0  0  0  0  0  0  0  0  0
    5.7338   -1.7437   21.1387 H   0  0  0  0  0  0  0  0  0  0  0  0
    6.1123   -0.8461   22.5236 H   0  0  0  0  0  0  0  0  0  0  0  0
    7.9358   -2.4244   23.1760 H   0  0  0  0  0  0  0  0  0  0  0  0
    7.5864   -3.3805   21.7344 H   0  0  0  0  0  0  0  0  0  0  0  0
    5.4101   -4.4906   22.7958 N   0  0  0  0  0  0  0  0  0  0  0  0
    3.1909   -5.6253   26.0514 H   0  0  0  0  0  0  0  0  0  0  0  0
    1.4590   -7.3988   26.0638 H   0  0  0  0  0  0  0  0  0  0  0  0
    0.9066   -8.6234   23.9554 H   0  0  0  0  0  0  0  0  0  0  0  0
    2.1511   -8.0526   21.8299 H   0  0  0  0  0  0  0  0  0  0  0  0
  1  2  1  0
  2  3  2  0
  3  4  1  0
  4  5  2  0
  5  6  1  0
  6  7  2  0
  7  8  1  0
  8  9  2  0
  9 10  1  0
 10 11  1  0
 11 12  1  0
 12 13  1  0
 13 14  1  0
 14 15  1  0
 15 16  2  0
 16 17  1  0
 17 18  2  0
 18 19  1  0
 19 20  2  0
 20 21  1  0
 18 22  1  0
 17 23  1  0
 16 24  1  0
 14 25  1  0
 25 26  1  0
 26 27  1  0
 27 28  1  0
 28 29  1  0
 29 30  1  0
 30 31  1  0
 30 32  1  0
 29 33  1  0
 29 34  1  0
 28 35  1  0
 28 36  1  0
 27 37  1  0
 27 38  1  0
 26 39  1  0
 26 40  1  0
 25 41  1  0
 14 42  1  0
 13 43  1  0
 13 44  1  0
 12 45  1  0
 12 46  1  0
 11 47  2  0
  6 48  1  0
  5 49  1  0
  4 50  1  0
  3 51  1  0
  7  2  1  0
 47  8  1  0
 20 15  1  0
 30 25  1  0
M  CHG  1  13   1
M  END
>  <plip>  (1) 
-0.07142857142857142

>  <filename>  (1) 
[H][c]1[n][c]([H])[c]([C]([H])([C]2([H])[C]([H])([H])[C]([H])([H])[C]([H])([H])[C]([H])([H])[C]2([H])[H])[N+]([H])([H])[C]([H])([H])[c]2[n][c](-[c]3[c]([H])[c]([H])[c]([H])[c]([H])[c]3[F])[n][o]2)[c]([H])[c]1[H]

$$$$
