
     RDKit          3D

 47 49  0  0  0  0  0  0  0  0999 V2000
    4.9081    1.3534   19.0775 C   0  0  0  0  0  0  0  0  0  0  0  0
    5.4989    1.2184   17.8182 C   0  0  0  0  0  0  0  0  0  0  0  0
    6.6188    0.5081   17.6069 N   0  0  0  0  0  0  0  0  0  0  0  0
    7.1872   -0.0713   18.6650 C   0  0  0  0  0  0  0  0  0  0  0  0
    6.7090    0.0358   19.9855 C   0  0  0  0  0  0  0  0  0  0  0  0
    7.5264   -0.5374   21.1179 C   0  0  0  0  0  0  0  0  0  0  0  0
    8.8964    0.1279   21.3030 C   0  0  0  0  0  0  0  0  0  0  0  0
    9.7747   -1.0005   21.8458 C   0  0  0  0  0  0  0  0  0  0  0  0
    9.3500   -2.1727   20.9669 C   0  0  0  0  0  0  0  0  0  0  0  0
    7.8669   -2.0195   20.8093 N   0  0  0  0  0  4  0  0  0  0  0  0
    7.0811   -3.0558   21.5711 C   0  0  0  0  0  0  0  0  0  0  0  0
    5.6078   -2.9371   21.2253 C   0  0  0  0  0  0  0  0  0  0  0  0
    4.6200   -3.4846   22.2459 C   0  0  0  0  0  0  0  0  0  0  0  0
    4.4084   -4.9655   22.2520 N   0  0  0  0  0  4  0  0  0  0  0  0
    5.2482   -5.6632   23.3191 C   0  0  0  0  0  0  0  0  0  0  0  0
    4.9174   -7.1572   23.3978 C   0  0  0  0  0  0  0  0  0  0  0  0
    3.5278   -7.4437   23.4919 O   0  0  0  0  0  0  0  0  0  0  0  0
    2.7447   -6.8434   22.4715 C   0  0  0  0  0  0  0  0  0  0  0  0
    2.9358   -5.3323   22.4960 C   0  0  0  0  0  0  0  0  0  0  0  0
    2.3028   -4.8349   21.7569 H   0  0  0  0  0  0  0  0  0  0  0  0
    2.6569   -4.9820   23.4978 H   0  0  0  0  0  0  0  0  0  0  0  0
    1.7028   -7.1134   22.6793 H   0  0  0  0  0  0  0  0  0  0  0  0
    3.0020   -7.2367   21.4756 H   0  0  0  0  0  0  0  0  0  0  0  0
    5.3241   -7.5818   24.3129 H   0  0  0  0  0  0  0  0  0  0  0  0
    5.3779   -7.6685   22.5415 H   0  0  0  0  0  0  0  0  0  0  0  0
    6.3068   -5.5056   23.0940 H   0  0  0  0  0  0  0  0  0  0  0  0
    5.0373   -5.1934   24.2846 H   0  0  0  0  0  0  0  0  0  0  0  0
    4.6988   -5.3277   21.3135 H   0  0  0  0  0  0  0  0  0  0  0  0
    3.6762   -3.0374   21.9793 H   0  0  0  0  0  0  0  0  0  0  0  0
    4.8535   -3.1386   23.2648 H   0  0  0  0  0  0  0  0  0  0  0  0
    5.3739   -1.8727   21.1361 H   0  0  0  0  0  0  0  0  0  0  0  0
    5.3957   -3.3922   20.2508 H   0  0  0  0  0  0  0  0  0  0  0  0
    7.2384   -2.9109   22.6536 H   0  0  0  0  0  0  0  0  0  0  0  0
    7.4589   -4.0578   21.3219 H   0  0  0  0  0  0  0  0  0  0  0  0
    7.5672   -2.1028   19.8168 H   0  0  0  0  0  0  0  0  0  0  0  0
    9.8185   -2.1024   19.9837 H   0  0  0  0  0  0  0  0  0  0  0  0
    9.5931   -3.1528   21.3827 H   0  0  0  0  0  0  0  0  0  0  0  0
    9.5198   -1.2190   22.8909 H   0  0  0  0  0  0  0  0  0  0  0  0
   10.8507   -0.8068   21.7908 H   0  0  0  0  0  0  0  0  0  0  0  0
    9.2716    0.4710   20.3306 H   0  0  0  0  0  0  0  0  0  0  0  0
    8.8318    1.0064   21.9521 H   0  0  0  0  0  0  0  0  0  0  0  0
    6.9663   -0.5152   22.0613 H   0  0  0  0  0  0  0  0  0  0  0  0
    5.5186    0.7522   20.1816 C   0  0  0  0  0  0  0  0  0  0  0  0
    5.0748    0.8452   21.1767 H   0  0  0  0  0  0  0  0  0  0  0  0
    8.1004   -0.6306   18.4486 H   0  0  0  0  0  0  0  0  0  0  0  0
    5.0592    1.6930   16.9433 H   0  0  0  0  0  0  0  0  0  0  0  0
    3.9977    1.9330   19.1784 H   0  0  0  0  0  0  0  0  0  0  0  0
  1  2  2  0
  2  3  1  0
  3  4  2  0
  4  5  1  0
  5  6  1  0
  6  7  1  0
  7  8  1  0
  8  9  1  0
  9 10  1  0
 10 11  1  0
 11 12  1  0
 12 13  1  0
 13 14  1  0
 14 15  1  0
 15 16  1  0
 16 17  1  0
 17 18  1  0
 18 19  1  0
 19 20  1  0
 19 21  1  0
 18 22  1  0
 18 23  1  0
 16 24  1  0
 16 25  1  0
 15 26  1  0
 15 27  1  0
 14 28  1  0
 13 29  1  0
 13 30  1  0
 12 31  1  0
 12 32  1  0
 11 33  1  0
 11 34  1  0
 10 35  1  0
  9 36  1  0
  9 37  1  0
  8 38  1  0
  8 39  1  0
  7 40  1  0
  7 41  1  0
  6 42  1  0
  5 43  2  0
 43 44  1  0
  4 45  1  0
  2 46  1  0
  1 47  1  0
 43  1  1  0
 10  6  1  0
 19 14  1  0
M  CHG  2  10   1  14   1
M  END
>  <plip>  (1) 
-0.0967741935483871

>  <filename>  (1) 
[H][c]1[n][c]([H])[c]([C]2([H])[C]([H])([H])[C]([H])([H])[C]([H])([H])[N+]2([H])[C]([H])([H])[C]([H])([H])[C]([H])([H])[N+]2([H])[C]([H])([H])[C]([H])([H])[O][C]([H])([H])[C]2([H])[H])[c]([H])[c]1[H]

$$$$
