
     RDKit          3D

 35 36  0  0  0  0  0  0  0  0999 V2000
    9.2858   -0.1609   20.3717 H   0  0  0  0  0  0  0  0  0  0  0  0
    8.7152   -0.7354   21.0912 C   0  0  0  0  0  0  0  0  0  0  0  0
    9.3988   -1.3587   22.0530 N   0  0  0  0  0  0  0  0  0  0  0  0
    8.7258   -2.0548   22.9663 N   0  0  0  0  0  0  0  0  0  0  0  0
    7.3923   -2.0840   22.8942 C   0  0  0  0  0  0  0  0  0  0  0  0
    6.6651   -2.7624   23.8021 N   0  0  0  0  0  0  0  0  0  0  0  0
    5.6846   -2.6360   23.6897 H   0  0  0  0  0  0  0  0  0  0  0  0
    7.1116   -3.7017   24.6708 C   0  0  0  0  0  0  0  0  0  0  0  0
    8.2385   -4.1150   24.7400 O   0  0  0  0  0  0  0  0  0  0  0  0
    6.0533   -4.0834   25.4042 O   0  0  0  0  0  0  0  0  0  0  0  0
    6.2972   -4.8363   26.6261 C   0  0  0  0  0  0  0  0  0  0  0  0
    7.1319   -3.9668   27.5665 C   0  0  0  0  0  0  0  0  0  0  0  0
    6.6346   -2.9933   27.6890 H   0  0  0  0  0  0  0  0  0  0  0  0
    8.1281   -3.8157   27.1382 H   0  0  0  0  0  0  0  0  0  0  0  0
    7.2491   -4.4545   28.5423 H   0  0  0  0  0  0  0  0  0  0  0  0
    4.8968   -5.0570   27.1756 C   0  0  0  0  0  0  0  0  0  0  0  0
    4.9520   -5.5849   28.1312 H   0  0  0  0  0  0  0  0  0  0  0  0
    4.3902   -4.0991   27.3359 H   0  0  0  0  0  0  0  0  0  0  0  0
    4.3090   -5.6636   26.4764 H   0  0  0  0  0  0  0  0  0  0  0  0
    6.9642   -6.1774   26.3127 C   0  0  0  0  0  0  0  0  0  0  0  0
    7.9150   -6.0296   25.7958 H   0  0  0  0  0  0  0  0  0  0  0  0
    6.3061   -6.7758   25.6757 H   0  0  0  0  0  0  0  0  0  0  0  0
    7.1289   -6.7174   27.2505 H   0  0  0  0  0  0  0  0  0  0  0  0
    6.6215   -1.4578   21.9957 N   0  0  0  0  0  0  0  0  0  0  0  0
    7.2977   -0.8091   21.0507 C   0  0  0  0  0  0  0  0  0  0  0  0
    6.5422   -0.1383   19.9702 C   0  0  0  0  0  0  0  0  0  0  0  0
    7.0602   -0.1393   18.6633 C   0  0  0  0  0  0  0  0  0  0  0  0
    7.9495   -0.7237   18.4186 H   0  0  0  0  0  0  0  0  0  0  0  0
    6.5321    0.5398   17.6446 N   0  0  0  0  0  0  0  0  0  0  0  0
    5.4252    1.2573   17.8891 C   0  0  0  0  0  0  0  0  0  0  0  0
    5.0251    1.8216   17.0473 H   0  0  0  0  0  0  0  0  0  0  0  0
    4.7921    1.2840   19.1352 C   0  0  0  0  0  0  0  0  0  0  0  0
    3.8905    1.8742   19.2594 H   0  0  0  0  0  0  0  0  0  0  0  0
    5.3481    0.5660   20.1949 C   0  0  0  0  0  0  0  0  0  0  0  0
    4.8817    0.5564   21.1814 H   0  0  0  0  0  0  0  0  0  0  0  0
  1  2  1  0
  2  3  2  0
  3  4  1  0
  4  5  2  0
  5  6  1  0
  6  7  1  0
  6  8  1  0
  8  9  2  0
  8 10  1  0
 10 11  1  0
 11 12  1  0
 12 13  1  0
 12 14  1  0
 12 15  1  0
 11 16  1  0
 16 17  1  0
 16 18  1  0
 16 19  1  0
 11 20  1  0
 20 21  1  0
 20 22  1  0
 20 23  1  0
  5 24  1  0
 24 25  2  0
 25 26  1  0
 26 27  2  0
 27 28  1  0
 27 29  1  0
 29 30  2  0
 30 31  1  0
 30 32  1  0
 32 33  1  0
 32 34  2  0
 34 35  1  0
 25  2  1  0
 34 26  1  0
M  END
>  <plip>  (1) 
-0.10714285714285714

>  <filename>  (1) 
[H][c]1[n][n][c]([N]([H])[C](=[O])[O][C]([C]([H])([H])[H])([C]([H])([H])[H])[C]([H])([H])[H])[n][c]1-[c]1[c]([H])[n][c]([H])[c]([H])[c]1[H]

$$$$
