
     RDKit          3D

 40 42  0  0  0  0  0  0  0  0999 V2000
    8.9365   -2.1509   22.9507 O   0  0  0  0  0  0  0  0  0  0  0  0
    7.7219   -2.0246   23.0448 C   0  0  0  0  0  0  0  0  0  0  0  0
    6.9034   -1.3211   22.0295 C   0  0  0  0  0  0  0  0  0  0  0  0
    7.4312   -0.7412   20.9407 C   0  0  0  0  0  0  0  0  0  0  0  0
    6.6640   -0.0080   19.9090 C   0  0  0  0  0  0  0  0  0  0  0  0
    5.4369    0.6406   20.1484 C   0  0  0  0  0  0  0  0  0  0  0  0
    4.8046    1.3029   19.0929 C   0  0  0  0  0  0  0  0  0  0  0  0
    5.4088    1.2926   17.8327 C   0  0  0  0  0  0  0  0  0  0  0  0
    6.5738    0.6754   17.5746 N   0  0  0  0  0  0  0  0  0  0  0  0
    7.1761    0.0616   18.5962 C   0  0  0  0  0  0  0  0  0  0  0  0
    8.1283   -0.4150   18.3623 H   0  0  0  0  0  0  0  0  0  0  0  0
    4.9428    1.8000   16.9913 H   0  0  0  0  0  0  0  0  0  0  0  0
    3.8697    1.8358   19.2354 H   0  0  0  0  0  0  0  0  0  0  0  0
    5.0029    0.6602   21.1501 H   0  0  0  0  0  0  0  0  0  0  0  0
    8.5112   -0.8372   20.7796 H   0  0  0  0  0  0  0  0  0  0  0  0
    5.8367   -1.3314   22.1909 H   0  0  0  0  0  0  0  0  0  0  0  0
    7.0207   -2.5067   24.1064 N   0  0  0  0  0  0  0  0  0  0  0  0
    7.6570   -3.3526   25.1001 C   0  0  0  0  0  0  0  0  0  0  0  0
    8.0880   -4.7144   24.5439 C   0  0  0  0  0  0  0  0  0  0  0  0
    6.9188   -5.6005   24.0582 C   0  0  0  0  0  0  0  0  0  0  0  0
    6.1138   -5.0208   22.8631 C   0  0  0  0  0  0  0  0  0  0  0  0
    6.4767   -4.7432   21.7422 O   0  0  0  0  0  0  0  0  0  0  0  0
    4.8191   -4.8762   23.2870 N   0  0  0  0  0  0  0  0  0  0  0  0
    4.6125   -5.3587   24.5781 C   0  0  0  0  0  0  0  0  0  0  0  0
    3.4348   -5.3550   25.3185 C   0  0  0  0  0  0  0  0  0  0  0  0
    3.4812   -5.8249   26.6351 C   0  0  0  0  0  0  0  0  0  0  0  0
    4.6859   -6.2875   27.1882 C   0  0  0  0  0  0  0  0  0  0  0  0
    5.8624   -6.2935   26.4207 C   0  0  0  0  0  0  0  0  0  0  0  0
    5.8241   -5.8375   25.0976 C   0  0  0  0  0  0  0  0  0  0  0  0
    6.7898   -6.6402   26.8725 H   0  0  0  0  0  0  0  0  0  0  0  0
    4.6989   -6.6339   28.2185 H   0  0  0  0  0  0  0  0  0  0  0  0
    2.5750   -5.8138   27.2356 H   0  0  0  0  0  0  0  0  0  0  0  0
    2.5167   -4.9835   24.8754 H   0  0  0  0  0  0  0  0  0  0  0  0
    4.1338   -4.6278   22.5976 H   0  0  0  0  0  0  0  0  0  0  0  0
    7.3578   -6.5224   23.6662 H   0  0  0  0  0  0  0  0  0  0  0  0
    8.7953   -4.5336   23.7277 H   0  0  0  0  0  0  0  0  0  0  0  0
    8.6440   -5.2421   25.3280 H   0  0  0  0  0  0  0  0  0  0  0  0
    8.5411   -2.8210   25.4615 H   0  0  0  0  0  0  0  0  0  0  0  0
    6.9823   -3.4657   25.9544 H   0  0  0  0  0  0  0  0  0  0  0  0
    6.0212   -2.4108   24.0728 H   0  0  0  0  0  0  0  0  0  0  0  0
  1  2  2  0
  2  3  1  0
  3  4  2  3
  4  5  1  0
  5  6  2  0
  6  7  1  0
  7  8  2  0
  8  9  1  0
  9 10  2  0
 10 11  1  0
  8 12  1  0
  7 13  1  0
  6 14  1  0
  4 15  1  0
  3 16  1  0
  2 17  1  0
 17 18  1  0
 18 19  1  0
 19 20  1  0
 20 21  1  0
 21 22  2  0
 21 23  1  0
 23 24  1  0
 24 25  2  0
 25 26  1  0
 26 27  2  0
 27 28  1  0
 28 29  2  0
 28 30  1  0
 27 31  1  0
 26 32  1  0
 25 33  1  0
 23 34  1  0
 20 35  1  0
 19 36  1  0
 19 37  1  0
 18 38  1  0
 18 39  1  0
 17 40  1  0
 10  5  1  0
 29 20  1  0
 29 24  1  0
M  END
>  <plip>  (1) 
-0.10714285714285714

>  <filename>  (1) 
[H][C]([C](=[O])[N]([H])[C]([H])([H])[C]([H])([H])[C]1([H])[C](=[O])[N]([H])[c]2[c]([H])[c]([H])[c]([H])[c]([H])[c]21)=[C]([H])[c]1[c]([H])[n][c]([H])[c]([H])[c]1[H]

$$$$
