
     RDKit          3D

 40 42  0  0  0  0  0  0  0  0999 V2000
    4.9836    1.8102   16.8878 H   0  0  0  0  0  0  0  0  0  0  0  0
    5.4278    1.3155   17.7501 C   0  0  0  0  0  0  0  0  0  0  0  0
    6.5769    0.6608   17.5251 N   0  0  0  0  0  0  0  0  0  0  0  0
    7.1440    0.0551   18.5752 C   0  0  0  0  0  0  0  0  0  0  0  0
    8.0756   -0.4743   18.3660 H   0  0  0  0  0  0  0  0  0  0  0  0
    6.6315    0.0672   19.8815 C   0  0  0  0  0  0  0  0  0  0  0  0
    7.3987   -0.6214   20.9968 C   0  0  2  0  0  0  0  0  0  0  0  0
    8.2288   -1.1613   20.5133 H   0  0  0  0  0  0  0  0  0  0  0  0
    6.5695   -1.5496   21.7582 N   0  0  0  0  0  0  0  0  0  0  0  0
    5.7083   -2.5646   21.2036 C   0  0  0  0  0  0  0  0  0  0  0  0
    4.6859   -2.3282   21.5099 H   0  0  0  0  0  0  0  0  0  0  0  0
    5.7698   -2.5188   20.1093 H   0  0  0  0  0  0  0  0  0  0  0  0
    5.9486   -3.8912   21.7078 N   0  0  0  0  0  0  0  0  0  0  0  0
    5.6299   -3.8653   22.6751 H   0  0  0  0  0  0  0  0  0  0  0  0
    7.3103   -4.4016   21.7297 C   0  0  0  0  0  0  0  0  0  0  0  0
    7.8109   -4.1282   20.7880 H   0  0  0  0  0  0  0  0  0  0  0  0
    7.3058   -5.9304   21.8695 C   0  0  0  0  0  0  0  0  0  0  0  0
    7.2805   -6.4192   20.8880 H   0  0  0  0  0  0  0  0  0  0  0  0
    6.3980   -6.2361   22.4083 H   0  0  0  0  0  0  0  0  0  0  0  0
    8.5475   -6.3120   22.6934 C   0  0  0  0  0  0  0  0  0  0  0  0
    8.3443   -7.1937   23.2979 H   0  0  0  0  0  0  0  0  0  0  0  0
    9.3820   -6.5620   22.0396 H   0  0  0  0  0  0  0  0  0  0  0  0
    8.8692   -5.0850   23.5684 C   0  0  0  0  0  0  0  0  0  0  0  0
    9.9333   -4.8789   23.6718 H   0  0  0  0  0  0  0  0  0  0  0  0
    8.5079   -5.2259   24.5928 H   0  0  0  0  0  0  0  0  0  0  0  0
    8.1370   -3.8916   22.9343 C   0  0  0  0  0  0  0  0  0  0  0  0
    8.7843   -3.0645   22.6213 H   0  0  0  0  0  0  0  0  0  0  0  0
    7.4538   -3.4995   23.6862 H   0  0  0  0  0  0  0  0  0  0  0  0
    6.4995   -1.3096   23.0883 C   0  0  0  0  0  0  0  0  0  0  0  0
    5.9761   -2.0444   23.9151 O   0  0  0  0  0  0  0  0  0  0  0  0
    7.1838    0.0003   23.3787 C   0  0  0  0  0  0  0  0  0  0  0  0
    7.7851   -0.1410   24.2789 H   0  0  0  0  0  0  0  0  0  0  0  0
    6.4193    0.7484   23.6137 H   0  0  0  0  0  0  0  0  0  0  0  0
    7.9748    0.3166   22.0957 C   0  0  0  0  0  0  0  0  0  0  0  0
    9.0358    0.0832   22.2452 H   0  0  0  0  0  0  0  0  0  0  0  0
    7.9058    1.3694   21.7955 H   0  0  0  0  0  0  0  0  0  0  0  0
    5.4156    0.7370   20.0893 C   0  0  0  0  0  0  0  0  0  0  0  0
    4.9445    0.7613   21.0735 H   0  0  0  0  0  0  0  0  0  0  0  0
    4.8055    1.3713   19.0030 C   0  0  0  0  0  0  0  0  0  0  0  0
    3.8737    1.9130   19.1169 H   0  0  0  0  0  0  0  0  0  0  0  0
  1  2  1  0
  2  3  2  0
  3  4  1  0
  4  5  1  0
  4  6  2  0
  6  7  1  0
  7  8  1  6
  7  9  1  0
  9 10  1  0
 10 11  1  0
 10 12  1  0
 10 13  1  0
 13 14  1  0
 13 15  1  0
 15 16  1  0
 15 17  1  0
 17 18  1  0
 17 19  1  0
 17 20  1  0
 20 21  1  0
 20 22  1  0
 20 23  1  0
 23 24  1  0
 23 25  1  0
 23 26  1  0
 26 27  1  0
 26 28  1  0
  9 29  1  0
 29 30  2  0
 29 31  1  0
 31 32  1  0
 31 33  1  0
 31 34  1  0
 34 35  1  0
 34 36  1  0
  6 37  1  0
 37 38  1  0
 37 39  2  0
 39 40  1  0
 39  2  1  0
 34  7  1  0
 26 15  1  0
M  END
>  <plip>  (1) 
-0.13793103448275862

>  <filename>  (1) 
[H][c]1[n][c]([H])[c]([C@]2([H])[N]([C]([H])([H])[N]([H])[C]3([H])[C]([H])([H])[C]([H])([H])[C]([H])([H])[C]3([H])[H])[C](=[O])[C]([H])([H])[C]2([H])[H])[c]([H])[c]1[H]

$$$$
