
     RDKit          3D

 27 27  0  0  0  0  0  0  0  0999 V2000
    8.8954   -3.2529   27.1163 N   0  0  0  0  0  2  0  0  0  0  0  0
    8.8030   -2.8811   26.0498 N   0  0  0  0  0  4  0  0  0  0  0  0
    8.5824   -2.4055   24.9376 N   0  0  0  0  0  0  0  0  0  0  0  0
    9.3423   -2.9986   23.7965 C   0  0  0  0  0  0  0  0  0  0  0  0
    8.6709   -2.7866   22.4269 C   0  0  0  0  0  0  0  0  0  0  0  0
    9.2885   -2.9830   21.3989 O   0  0  0  0  0  0  0  0  0  0  0  0
    7.3583   -2.3935   22.4719 N   0  0  0  0  0  0  0  0  0  0  0  0
    6.7437   -1.7364   21.3250 C   0  0  0  0  0  0  0  0  0  0  0  0
    6.9827   -0.2065   21.2521 C   0  0  0  0  0  0  0  0  0  0  0  0
    8.3778    0.0494   21.2445 O   0  0  0  0  0  0  0  0  0  0  0  0
    8.4789    1.0071   21.1794 H   0  0  0  0  0  0  0  0  0  0  0  0
    6.3661    0.4052   20.0188 C   0  0  0  0  0  0  0  0  0  0  0  0
    5.1014    0.9998   20.0478 C   0  0  0  0  0  0  0  0  0  0  0  0
    4.5735    1.5038   18.8596 C   0  0  0  0  0  0  0  0  0  0  0  0
    5.3320    1.3974   17.6915 C   0  0  0  0  0  0  0  0  0  0  0  0
    6.5434    0.8226   17.6418 N   0  0  0  0  0  0  0  0  0  0  0  0
    7.0525    0.3642   18.7916 C   0  0  0  0  0  0  0  0  0  0  0  0
    8.0578   -0.0629   18.7384 H   0  0  0  0  0  0  0  0  0  0  0  0
    4.9528    1.7922   16.7519 H   0  0  0  0  0  0  0  0  0  0  0  0
    3.6142    2.0052   18.8370 H   0  0  0  0  0  0  0  0  0  0  0  0
    4.5542    1.0829   20.9875 H   0  0  0  0  0  0  0  0  0  0  0  0
    6.5043    0.2238   22.1560 H   0  0  0  0  0  0  0  0  0  0  0  0
    7.1451   -2.2135   20.4267 H   0  0  0  0  0  0  0  0  0  0  0  0
    5.6626   -1.9236   21.3566 H   0  0  0  0  0  0  0  0  0  0  0  0
    7.1333   -2.0444   23.3970 H   0  0  0  0  0  0  0  0  0  0  0  0
   10.3329   -2.5384   23.6934 H   0  0  0  0  0  0  0  0  0  0  0  0
    9.4880   -4.0816   23.9074 H   0  0  0  0  0  0  0  0  0  0  0  0
  1  2  2  0
  2  3  2  0
  3  4  1  0
  4  5  1  0
  5  6  2  0
  5  7  1  0
  7  8  1  0
  8  9  1  0
  9 10  1  0
 10 11  1  0
  9 12  1  0
 12 13  2  0
 13 14  1  0
 14 15  2  0
 15 16  1  0
 16 17  2  0
 17 18  1  0
 15 19  1  0
 14 20  1  0
 13 21  1  0
  9 22  1  0
  8 23  1  0
  8 24  1  0
  7 25  1  0
  4 26  1  0
  4 27  1  0
 17 12  1  0
M  CHG  2   1  -1   2   1
M  END
>  <plip>  (1) 
-0.07142857142857142

>  <filename>  (1) 
[H][O][C]([H])([c]1[c]([H])[n][c]([H])[c]([H])[c]1[H])[C]([H])([H])[N]([H])[C](=[O])[C]([H])([H])[N]=[N+]=[N-]

$$$$
