
     RDKit          3D

 28 30  0  0  0  0  0  0  0  0999 V2000
    4.9089    1.7772   16.9987 H   0  0  0  0  0  0  0  0  0  0  0  0
    5.3976    1.2950   17.8386 C   0  0  0  0  0  0  0  0  0  0  0  0
    6.5626    0.6788   17.5776 N   0  0  0  0  0  0  0  0  0  0  0  0
    7.1738    0.0598   18.5917 C   0  0  0  0  0  0  0  0  0  0  0  0
    8.1252   -0.4276   18.3874 H   0  0  0  0  0  0  0  0  0  0  0  0
    6.6427    0.0024   19.8960 C   0  0  0  0  0  0  0  0  0  0  0  0
    7.3450   -0.6795   20.9140 N   0  0  0  0  0  0  0  0  0  0  0  0
    8.7477   -0.6599   21.1436 C   0  0  0  0  0  0  0  0  0  0  0  0
    9.5640   -0.0539   20.4683 O   0  0  0  0  0  0  0  0  0  0  0  0
    8.9006   -1.4971   22.3073 C   0  0  0  0  0  0  0  0  0  0  0  0
    9.8767   -1.6720   22.7131 H   0  0  0  0  0  0  0  0  0  0  0  0
    7.6754   -1.9372   22.7254 C   0  0  0  0  0  0  0  0  0  0  0  0
    7.3249   -2.8087   23.8801 C   0  0  0  0  0  0  0  0  0  0  0  0
    6.0229   -3.1039   24.0939 N   0  0  0  0  0  0  0  0  0  0  0  0
    5.7156   -3.8835   25.1349 C   0  0  0  0  0  0  0  0  0  0  0  0
    4.6663   -4.1101   25.3000 H   0  0  0  0  0  0  0  0  0  0  0  0
    6.6878   -4.4072   25.9929 C   0  0  0  0  0  0  0  0  0  0  0  0
    6.3277   -5.1885   27.0183 F   0  0  0  0  0  0  0  0  0  0  0  0
    8.0318   -4.1195   25.7836 C   0  0  0  0  0  0  0  0  0  0  0  0
    8.7952   -4.5201   26.4420 H   0  0  0  0  0  0  0  0  0  0  0  0
    8.3537   -3.3031   24.7045 C   0  0  0  0  0  0  0  0  0  0  0  0
    9.3913   -3.0545   24.5067 H   0  0  0  0  0  0  0  0  0  0  0  0
    6.7284   -1.4245   21.8897 N   0  0  0  0  0  0  0  0  0  0  0  0
    5.7228   -1.5772   21.9186 H   0  0  0  0  0  0  0  0  0  0  0  0
    5.4299    0.6528   20.1591 C   0  0  0  0  0  0  0  0  0  0  0  0
    5.0143    0.6313   21.1669 H   0  0  0  0  0  0  0  0  0  0  0  0
    4.8017    1.3169   19.1059 C   0  0  0  0  0  0  0  0  0  0  0  0
    3.8685    1.8475   19.2649 H   0  0  0  0  0  0  0  0  0  0  0  0
  1  2  1  0
  2  3  2  0
  3  4  1  0
  4  5  1  0
  4  6  2  0
  6  7  1  0
  7  8  1  0
  8  9  2  0
  8 10  1  0
 10 11  1  0
 10 12  2  0
 12 13  1  0
 13 14  2  0
 14 15  1  0
 15 16  1  0
 15 17  2  0
 17 18  1  0
 17 19  1  0
 19 20  1  0
 19 21  2  0
 21 22  1  0
 12 23  1  0
 23 24  1  0
  6 25  1  0
 25 26  1  0
 25 27  2  0
 27 28  1  0
 27  2  1  0
 23  7  1  0
 21 13  1  0
M  END
>  <plip>  (1) 
-0.10714285714285714

>  <filename>  (1) 
[H][c]1[n][c]([H])[c](-[n]2[c](=[O])[c]([H])[c](-[c]3[n][c]([H])[c]([F])[c]([H])[c]3[H])[n]2[H])[c]([H])[c]1[H]

$$$$
