
     RDKit          3D

 43 45  0  0  0  0  0  0  0  0999 V2000
   11.6708   -1.8718   22.1162 C   0  0  0  0  0  0  0  0  0  0  0  0
   11.1533   -0.6074   22.8019 C   0  0  0  0  0  0  0  0  0  0  0  0
    9.7476   -0.7536   23.4308 C   0  0  0  0  0  0  0  0  0  0  0  0
    9.7804   -1.5334   24.6233 O   0  0  0  0  0  0  0  0  0  0  0  0
    9.6849   -2.4711   24.3912 H   0  0  0  0  0  0  0  0  0  0  0  0
    8.7370   -1.1683   22.3659 C   0  0  0  0  0  0  0  0  0  0  0  0
    8.2307   -0.2412   21.5744 N   0  0  0  0  0  0  0  0  0  0  0  0
    7.3849   -0.9394   20.7791 N   0  0  0  0  0  0  0  0  0  0  0  0
    6.6734   -0.2060   19.7872 C   0  0  0  0  0  0  0  0  0  0  0  0
    5.4792    0.4442   20.0977 C   0  0  0  0  0  0  0  0  0  0  0  0
    4.8830    1.2159   19.0963 C   0  0  0  0  0  0  0  0  0  0  0  0
    5.5065    1.3077   17.8460 C   0  0  0  0  0  0  0  0  0  0  0  0
    6.6647    0.6930   17.5521 N   0  0  0  0  0  0  0  0  0  0  0  0
    7.2439   -0.0268   18.5198 C   0  0  0  0  0  0  0  0  0  0  0  0
    8.2024   -0.4916   18.2862 H   0  0  0  0  0  0  0  0  0  0  0  0
    5.0602    1.8924   17.0456 H   0  0  0  0  0  0  0  0  0  0  0  0
    3.9660    1.7611   19.2857 H   0  0  0  0  0  0  0  0  0  0  0  0
    5.0434    0.3537   21.0960 H   0  0  0  0  0  0  0  0  0  0  0  0
    7.4179   -2.2532   21.1319 C   0  0  0  0  0  0  0  0  0  0  0  0
    6.5669   -3.3887   20.6193 C   0  0  0  0  0  0  0  0  0  0  0  0
    5.7572   -3.1110   19.3290 C   0  0  0  0  0  0  0  0  0  0  0  0
    6.3958   -2.7594   18.5141 H   0  0  0  0  0  0  0  0  0  0  0  0
    5.2798   -4.0324   18.9839 H   0  0  0  0  0  0  0  0  0  0  0  0
    4.9815   -2.3523   19.4508 H   0  0  0  0  0  0  0  0  0  0  0  0
    5.7178   -3.9899   21.7523 C   0  0  0  0  0  0  0  0  0  0  0  0
    5.1537   -3.2040   22.7525 C   0  0  0  0  0  0  0  0  0  0  0  0
    4.1945   -3.7025   23.6375 C   0  0  0  0  0  0  0  0  0  0  0  0
    3.8767   -5.0635   23.6164 C   0  0  0  0  0  0  0  0  0  0  0  0
    4.5383   -5.9140   22.7320 C   0  0  0  0  0  0  0  0  0  0  0  0
    5.4414   -5.3601   21.8222 C   0  0  0  0  0  0  0  0  0  0  0  0
    6.2722   -6.4036   20.7493 Cl  0  0  0  0  0  0  0  0  0  0  0  0
    4.3725   -6.9878   22.7406 H   0  0  0  0  0  0  0  0  0  0  0  0
    3.1566   -5.4778   24.3185 H   0  0  0  0  0  0  0  0  0  0  0  0
    3.7061   -3.0392   24.3440 H   0  0  0  0  0  0  0  0  0  0  0  0
    5.6066   -2.2246   22.8638 H   0  0  0  0  0  0  0  0  0  0  0  0
    7.3062   -4.1628   20.3910 H   0  0  0  0  0  0  0  0  0  0  0  0
    8.3120   -2.4288   22.0973 N   0  0  0  0  0  0  0  0  0  0  0  0
    9.4211    0.2458   23.7378 H   0  0  0  0  0  0  0  0  0  0  0  0
   11.8333   -0.2865   23.5994 H   0  0  0  0  0  0  0  0  0  0  0  0
   11.1037    0.2090   22.0664 H   0  0  0  0  0  0  0  0  0  0  0  0
   11.6847   -2.7300   22.7998 H   0  0  0  0  0  0  0  0  0  0  0  0
   12.6890   -1.7163   21.7472 H   0  0  0  0  0  0  0  0  0  0  0  0
   11.0322   -2.1424   21.2674 H   0  0  0  0  0  0  0  0  0  0  0  0
  1  2  1  0
  2  3  1  0
  3  4  1  0
  4  5  1  0
  3  6  1  0
  6  7  2  0
  7  8  1  0
  8  9  1  0
  9 10  2  0
 10 11  1  0
 11 12  2  0
 12 13  1  0
 13 14  2  0
 14 15  1  0
 12 16  1  0
 11 17  1  0
 10 18  1  0
  8 19  1  0
 19 20  1  0
 20 21  1  0
 21 22  1  0
 21 23  1  0
 21 24  1  0
 20 25  1  0
 25 26  2  0
 26 27  1  0
 27 28  2  0
 28 29  1  0
 29 30  2  0
 30 31  1  0
 29 32  1  0
 28 33  1  0
 27 34  1  0
 26 35  1  0
 20 36  1  0
 19 37  2  0
  3 38  1  0
  2 39  1  0
  2 40  1  0
  1 41  1  0
  1 42  1  0
  1 43  1  0
 37  6  1  0
 14  9  1  0
 30 25  1  0
M  END
>  <plip>  (1) 
-0.0

>  <filename>  (1) 
[H][O][C]([H])([c]1[n][c]([C]([H])([c]2[c]([H])[c]([H])[c]([H])[c]([H])[c]2[Cl])[C]([H])([H])[H])[n](-[c]2[c]([H])[n][c]([H])[c]([H])[c]2[H])[n]1)[C]([H])([H])[C]([H])([H])[H]

$$$$
