
     RDKit          3D

 44 46  0  0  0  0  0  0  0  0999 V2000
    5.4700   -6.4515   26.9500 C   0  0  0  0  0  0  0  0  0  0  0  0
    5.9945   -5.0253   26.7880 C   0  0  0  0  0  0  0  0  0  0  0  0
    5.6065   -4.3389   25.4739 C   0  0  0  0  0  0  0  0  0  0  0  0
    6.3761   -3.0089   25.2109 C   0  0  0  0  0  0  0  0  0  0  0  0
    7.4964   -3.2188   24.1613 C   0  0  0  0  0  0  0  0  0  0  0  0
    8.1300   -4.2652   24.1142 O   0  0  0  0  0  0  0  0  0  0  0  0
    7.7068   -2.2136   23.2323 N   0  0  0  0  0  0  0  0  0  0  0  0
    7.2476   -0.8246   23.4241 C   0  0  0  0  0  0  0  0  0  0  0  0
    7.6476    0.1088   22.2646 C   0  0  0  0  0  0  0  0  0  0  0  0
    7.3737   -0.5108   20.9757 N   0  0  0  0  0  0  0  0  0  0  0  0
    6.6936    0.1159   19.9202 C   0  0  0  0  0  0  0  0  0  0  0  0
    5.4951    0.8290   20.1323 C   0  0  0  0  0  0  0  0  0  0  0  0
    4.8487    1.4289   19.0446 C   0  0  0  0  0  0  0  0  0  0  0  0
    5.4190    1.3238   17.7699 C   0  0  0  0  0  0  0  0  0  0  0  0
    6.5530    0.6478   17.5318 N   0  0  0  0  0  0  0  0  0  0  0  0
    7.1563    0.0607   18.5766 C   0  0  0  0  0  0  0  0  0  0  0  0
    8.0771   -0.4761   18.3561 H   0  0  0  0  0  0  0  0  0  0  0  0
    4.9522    1.7966   16.9093 H   0  0  0  0  0  0  0  0  0  0  0  0
    3.9282    1.9884   19.1757 H   0  0  0  0  0  0  0  0  0  0  0  0
    5.0788    0.8859   21.1372 H   0  0  0  0  0  0  0  0  0  0  0  0
    7.9776   -1.8245   20.7591 C   0  0  0  0  0  0  0  0  0  0  0  0
    8.5444   -2.4734   22.0420 C   0  0  0  0  0  0  0  0  0  0  0  0
    9.5628   -2.0972   22.2147 H   0  0  0  0  0  0  0  0  0  0  0  0
    8.6247   -3.5520   21.8922 H   0  0  0  0  0  0  0  0  0  0  0  0
    8.8003   -1.7532   20.0280 H   0  0  0  0  0  0  0  0  0  0  0  0
    7.2111   -2.4825   20.3249 H   0  0  0  0  0  0  0  0  0  0  0  0
    7.1081    1.0563   22.3518 H   0  0  0  0  0  0  0  0  0  0  0  0
    8.7219    0.3449   22.3499 H   0  0  0  0  0  0  0  0  0  0  0  0
    6.1563   -0.8025   23.5002 H   0  0  0  0  0  0  0  0  0  0  0  0
    7.6539   -0.4023   24.3508 H   0  0  0  0  0  0  0  0  0  0  0  0
    6.8491   -2.3062   26.5230 C   0  0  0  0  0  0  0  0  0  0  0  0
    5.7391   -2.3377   27.5833 C   0  0  0  0  0  0  0  0  0  0  0  0
    5.4410   -4.0232   28.2262 S   0  0  0  0  0  0  0  0  0  0  0  0
    4.8064   -1.9434   27.1612 H   0  0  0  0  0  0  0  0  0  0  0  0
    6.0085   -1.7120   28.4403 H   0  0  0  0  0  0  0  0  0  0  0  0
    7.1392   -1.2646   26.3210 H   0  0  0  0  0  0  0  0  0  0  0  0
    7.7391   -2.7892   26.9481 H   0  0  0  0  0  0  0  0  0  0  0  0
    5.6550   -2.3205   24.7554 H   0  0  0  0  0  0  0  0  0  0  0  0
    5.8111   -5.0377   24.6536 H   0  0  0  0  0  0  0  0  0  0  0  0
    4.5273   -4.1380   25.4699 H   0  0  0  0  0  0  0  0  0  0  0  0
    7.0924   -5.0686   26.8062 H   0  0  0  0  0  0  0  0  0  0  0  0
    5.7372   -7.0341   26.0602 H   0  0  0  0  0  0  0  0  0  0  0  0
    5.9333   -6.9358   27.8157 H   0  0  0  0  0  0  0  0  0  0  0  0
    4.3817   -6.4997   27.0783 H   0  0  0  0  0  0  0  0  0  0  0  0
  1  2  1  0
  2  3  1  0
  3  4  1  0
  4  5  1  0
  5  6  2  0
  5  7  1  0
  7  8  1  0
  8  9  1  0
  9 10  1  0
 10 11  1  0
 11 12  2  0
 12 13  1  0
 13 14  2  0
 14 15  1  0
 15 16  2  0
 16 17  1  0
 14 18  1  0
 13 19  1  0
 12 20  1  0
 10 21  1  0
 21 22  1  0
 22 23  1  0
 22 24  1  0
 21 25  1  0
 21 26  1  0
  9 27  1  0
  9 28  1  0
  8 29  1  0
  8 30  1  0
  4 31  1  0
 31 32  1  0
 32 33  1  0
 32 34  1  0
 32 35  1  0
 31 36  1  0
 31 37  1  0
  4 38  1  0
  3 39  1  0
  3 40  1  0
  2 41  1  0
  1 42  1  0
  1 43  1  0
  1 44  1  0
 33  2  1  0
 22  7  1  0
 16 11  1  0
M  END
>  <plip>  (1) 
-0.10344827586206896

>  <filename>  (1) 
[H][c]1[n][c]([H])[c]([N]2[C]([H])([H])[C]([H])([H])[N]([C](=[O])[C]3([H])[C]([H])([H])[C]([H])([H])[S][C]([H])([C]([H])([H])[H])[C]3([H])[H])[C]([H])([H])[C]2([H])[H])[c]([H])[c]1[H]

$$$$
