
     RDKit          3D

 42 45  0  0  0  0  0  0  0  0999 V2000
    4.7797    1.4074   19.0532 C   0  0  0  0  0  0  0  0  0  0  0  0
    5.5012    1.3410   17.8571 C   0  0  0  0  0  0  0  0  0  0  0  0
    6.6844    0.7213   17.7424 N   0  0  0  0  0  0  0  0  0  0  0  0
    7.1841    0.1425   18.8411 C   0  0  0  0  0  0  0  0  0  0  0  0
    6.5389    0.1157   20.0914 C   0  0  0  0  0  0  0  0  0  0  0  0
    7.1638   -0.6260   21.2539 C   0  0  0  0  0  0  0  0  0  0  0  0
    7.4051   -2.1368   21.0344 C   0  0  0  0  0  0  0  0  0  0  0  0
    8.9241   -2.3719   21.1892 C   0  0  0  0  0  0  0  0  0  0  0  0
    9.4264   -1.1891   22.0054 C   0  0  0  0  0  0  0  0  0  0  0  0
    8.5521   -0.0671   21.5284 N   0  0  0  0  0  4  0  0  0  0  0  0
    8.6160    1.1780   22.3530 C   0  0  0  0  0  0  0  0  0  0  0  0
   10.0352    1.7070   22.4919 C   0  0  0  0  0  0  0  0  0  0  0  0
   10.8257    1.4783   23.6383 C   0  0  0  0  0  0  0  0  0  0  0  0
   12.0759    2.1042   23.7997 C   0  0  0  0  0  0  0  0  0  0  0  0
   12.5580    2.9452   22.7915 C   0  0  0  0  0  0  0  0  0  0  0  0
   13.7770    3.8346   22.6501 C   0  0  0  0  0  0  0  0  0  0  0  0
   13.4827    4.5604   21.3156 C   0  0  0  0  0  0  0  0  0  0  0  0
   12.4311    3.8311   20.6621 O   0  0  0  0  0  0  0  0  0  0  0  0
   11.8211    3.0670   21.6115 C   0  0  0  0  0  0  0  0  0  0  0  0
   10.5677    2.4928   21.4580 C   0  0  0  0  0  0  0  0  0  0  0  0
    9.9816    2.7167   20.5820 H   0  0  0  0  0  0  0  0  0  0  0  0
   14.3308    4.5906   20.6255 H   0  0  0  0  0  0  0  0  0  0  0  0
   13.1217    5.5818   21.4804 H   0  0  0  0  0  0  0  0  0  0  0  0
   14.6951    3.2476   22.5783 H   0  0  0  0  0  0  0  0  0  0  0  0
   13.8963    4.5522   23.4675 H   0  0  0  0  0  0  0  0  0  0  0  0
   12.6585    1.9298   24.7035 H   0  0  0  0  0  0  0  0  0  0  0  0
   10.4660    0.8011   24.4141 H   0  0  0  0  0  0  0  0  0  0  0  0
    7.9942    1.9438   21.8712 H   0  0  0  0  0  0  0  0  0  0  0  0
    8.1829    0.9798   23.3456 H   0  0  0  0  0  0  0  0  0  0  0  0
    8.8932    0.2110   20.5806 H   0  0  0  0  0  0  0  0  0  0  0  0
    9.3161   -1.3312   23.0883 H   0  0  0  0  0  0  0  0  0  0  0  0
   10.4752   -0.9529   21.8141 H   0  0  0  0  0  0  0  0  0  0  0  0
    9.1694   -3.3244   21.6670 H   0  0  0  0  0  0  0  0  0  0  0  0
    9.4448   -2.3642   20.2253 H   0  0  0  0  0  0  0  0  0  0  0  0
    7.0024   -2.4561   20.0668 H   0  0  0  0  0  0  0  0  0  0  0  0
    6.8530   -2.7103   21.7862 H   0  0  0  0  0  0  0  0  0  0  0  0
    6.5342   -0.4909   22.1437 H   0  0  0  0  0  0  0  0  0  0  0  0
    5.3126    0.7949   20.1926 C   0  0  0  0  0  0  0  0  0  0  0  0
    4.7919    0.8630   21.1507 H   0  0  0  0  0  0  0  0  0  0  0  0
    8.1440   -0.3525   18.6971 H   0  0  0  0  0  0  0  0  0  0  0  0
    5.1133    1.8107   16.9541 H   0  0  0  0  0  0  0  0  0  0  0  0
    3.8313    1.9377   19.0790 H   0  0  0  0  0  0  0  0  0  0  0  0
  1  2  2  0
  2  3  1  0
  3  4  2  0
  4  5  1  0
  5  6  1  0
  6  7  1  0
  7  8  1  0
  8  9  1  0
  9 10  1  0
 10 11  1  0
 11 12  1  0
 12 13  2  0
 13 14  1  0
 14 15  2  0
 15 16  1  0
 16 17  1  0
 17 18  1  0
 18 19  1  0
 19 20  2  0
 20 21  1  0
 17 22  1  0
 17 23  1  0
 16 24  1  0
 16 25  1  0
 14 26  1  0
 13 27  1  0
 11 28  1  0
 11 29  1  0
 10 30  1  0
  9 31  1  0
  9 32  1  0
  8 33  1  0
  8 34  1  0
  7 35  1  0
  7 36  1  0
  6 37  1  0
  5 38  2  0
 38 39  1  0
  4 40  1  0
  2 41  1  0
  1 42  1  0
 38  1  1  0
 10  6  1  0
 20 12  1  0
 19 15  1  0
M  CHG  1  10   1
M  END
>  <plip>  (1) 
-0.10714285714285714

>  <filename>  (1) 
[H][c]1[n][c]([H])[c]([C]2([H])[C]([H])([H])[C]([H])([H])[C]([H])([H])[N+]2([H])[C]([H])([H])[c]2[c]([H])[c]([H])[c]3[c]([c]2[H])[O][C]([H])([H])[C]3([H])[H])[c]([H])[c]1[H]

$$$$
