
     RDKit          3D

 40 44  0  0  0  0  0  0  0  0999 V2000
    4.9230    1.8451   16.9333 H   0  0  0  0  0  0  0  0  0  0  0  0
    5.4128    1.3337   17.7587 C   0  0  0  0  0  0  0  0  0  0  0  0
    6.5690    0.7153   17.4693 N   0  0  0  0  0  0  0  0  0  0  0  0
    7.1971    0.0910   18.4731 C   0  0  0  0  0  0  0  0  0  0  0  0
    8.1283   -0.4185   18.2148 H   0  0  0  0  0  0  0  0  0  0  0  0
    6.7309    0.0456   19.7982 C   0  0  0  0  0  0  0  0  0  0  0  0
    7.4931   -0.6543   20.9003 C   0  0  1  0  0  0  0  0  0  0  0  0
    8.4289   -1.0385   20.4809 H   0  0  0  0  0  0  0  0  0  0  0  0
    7.8634    0.3204   22.0781 C   0  0  0  0  0  0  0  0  0  0  0  0
    7.4427    1.3265   21.9604 H   0  0  0  0  0  0  0  0  0  0  0  0
    8.9455    0.4628   22.1504 H   0  0  0  0  0  0  0  0  0  0  0  0
    7.3036   -0.3740   23.2766 C   0  0  0  0  0  0  0  0  0  0  0  0
    7.1708   -0.0497   24.5509 N   0  0  0  0  0  0  0  0  0  0  0  0
    6.5400   -1.1325   25.0736 N   0  0  0  0  0  0  0  0  0  0  0  0
    6.1610   -1.0519   26.0074 H   0  0  0  0  0  0  0  0  0  0  0  0
    6.2705   -2.1159   24.1566 C   0  0  0  0  0  0  0  0  0  0  0  0
    5.6680   -3.4332   24.4150 C   0  0  0  0  0  0  0  0  0  0  0  0
    4.4929   -3.7796   23.7874 C   0  0  0  0  0  0  0  0  0  0  0  0
    4.0093   -3.0790   23.1173 H   0  0  0  0  0  0  0  0  0  0  0  0
    3.8419   -4.9642   23.9368 N   0  0  0  0  0  0  0  0  0  0  0  0
    4.3649   -5.8363   24.7746 C   0  0  0  0  0  0  0  0  0  0  0  0
    3.8438   -6.7883   24.8821 H   0  0  0  0  0  0  0  0  0  0  0  0
    5.5677   -5.6212   25.5115 C   0  0  0  0  0  0  0  0  0  0  0  0
    6.0773   -6.5430   26.4769 C   0  0  0  0  0  0  0  0  0  0  0  0
    5.5008   -7.4332   26.7249 H   0  0  0  0  0  0  0  0  0  0  0  0
    7.2989   -6.3078   27.0665 C   0  0  0  0  0  0  0  0  0  0  0  0
    7.6961   -6.9708   27.8245 H   0  0  0  0  0  0  0  0  0  0  0  0
    8.0972   -5.2030   26.6817 C   0  0  0  0  0  0  0  0  0  0  0  0
    9.0779   -5.0780   27.1322 H   0  0  0  0  0  0  0  0  0  0  0  0
    7.6242   -4.3039   25.7545 C   0  0  0  0  0  0  0  0  0  0  0  0
    8.2607   -3.5064   25.3910 H   0  0  0  0  0  0  0  0  0  0  0  0
    6.3025   -4.4292   25.2304 C   0  0  0  0  0  0  0  0  0  0  0  0
    6.7423   -1.6101   22.9689 C   0  0  0  0  0  0  0  0  0  0  0  0
    6.7130   -1.8779   21.5023 C   0  0  0  0  0  0  0  0  0  0  0  0
    7.1805   -2.8282   21.2131 H   0  0  0  0  0  0  0  0  0  0  0  0
    5.6758   -1.9221   21.1329 H   0  0  0  0  0  0  0  0  0  0  0  0
    5.5081    0.6790   20.0659 C   0  0  0  0  0  0  0  0  0  0  0  0
    5.0959    0.6600   21.0765 H   0  0  0  0  0  0  0  0  0  0  0  0
    4.8361    1.3319   19.0333 C   0  0  0  0  0  0  0  0  0  0  0  0
    3.8946    1.8427   19.2050 H   0  0  0  0  0  0  0  0  0  0  0  0
  1  2  1  0
  2  3  2  0
  3  4  1  0
  4  5  1  0
  4  6  2  0
  6  7  1  0
  7  8  1  6
  7  9  1  0
  9 10  1  0
  9 11  1  0
  9 12  1  0
 12 13  2  0
 13 14  1  0
 14 15  1  0
 14 16  1  0
 16 17  1  0
 17 18  2  0
 18 19  1  0
 18 20  1  0
 20 21  2  0
 21 22  1  0
 21 23  1  0
 23 24  2  0
 24 25  1  0
 24 26  1  0
 26 27  1  0
 26 28  2  0
 28 29  1  0
 28 30  1  0
 30 31  1  0
 30 32  2  0
 16 33  2  0
 33 34  1  0
 34 35  1  0
 34 36  1  0
  6 37  1  0
 37 38  1  0
 37 39  2  0
 39 40  1  0
 39  2  1  0
 34  7  1  0
 33 12  1  0
 32 17  1  0
 32 23  1  0
M  END
>  <plip>  (1) 
-0.07142857142857142

>  <filename>  (1) 
[H][c]1[n][c]([H])[c]([C@@]2([H])[C]([H])([H])[c]3[n][n]([H])[c](-[c]4[c]([H])[n][c]([H])[c]5[c]([H])[c]([H])[c]([H])[c]([H])[c]45)[c]3[C]2([H])[H])[c]([H])[c]1[H]

$$$$
