
     RDKit          3D

 31 33  0  0  0  0  0  0  0  0999 V2000
    4.9176    1.7942   16.9761 H   0  0  0  0  0  0  0  0  0  0  0  0
    5.3897    1.3034   17.8198 C   0  0  0  0  0  0  0  0  0  0  0  0
    6.5528    0.6851   17.5582 N   0  0  0  0  0  0  0  0  0  0  0  0
    7.1500    0.0738   18.5865 C   0  0  0  0  0  0  0  0  0  0  0  0
    8.0937   -0.4171   18.3673 H   0  0  0  0  0  0  0  0  0  0  0  0
    6.6357    0.0086   19.8982 C   0  0  0  0  0  0  0  0  0  0  0  0
    7.3978   -0.6918   20.9307 C   0  0  0  0  0  0  0  0  0  0  0  0
    8.7553   -0.9181   21.0176 C   0  0  0  0  0  0  0  0  0  0  0  0
    9.4814   -0.5527   20.3091 H   0  0  0  0  0  0  0  0  0  0  0  0
    8.9953   -1.6335   22.2033 C   0  0  0  0  0  0  0  0  0  0  0  0
    9.9581   -1.9318   22.5889 H   0  0  0  0  0  0  0  0  0  0  0  0
    7.7864   -1.8480   22.8350 C   0  0  0  0  0  0  0  0  0  0  0  0
    7.4898   -2.5441   24.0913 C   0  0  0  0  0  0  0  0  0  0  0  0
    6.3301   -2.2845   24.8453 C   0  0  0  0  0  0  0  0  0  0  0  0
    5.6213   -1.5395   24.5001 H   0  0  0  0  0  0  0  0  0  0  0  0
    6.1095   -2.9598   26.0450 C   0  0  0  0  0  0  0  0  0  0  0  0
    5.2065   -2.7539   26.6088 H   0  0  0  0  0  0  0  0  0  0  0  0
    7.0339   -3.8922   26.5148 C   0  0  0  0  0  0  0  0  0  0  0  0
    6.8792   -4.4282   27.4451 H   0  0  0  0  0  0  0  0  0  0  0  0
    8.1993   -4.1533   25.7746 C   0  0  0  0  0  0  0  0  0  0  0  0
    9.1184   -5.0595   26.2253 N   0  0  0  0  0  0  0  0  0  0  0  0
    9.9562   -5.2519   25.7081 H   0  0  0  0  0  0  0  0  0  0  0  0
    8.9622   -5.5530   27.0833 H   0  0  0  0  0  0  0  0  0  0  0  0
    8.4171   -3.4797   24.5690 C   0  0  0  0  0  0  0  0  0  0  0  0
    9.3205   -3.6929   24.0061 H   0  0  0  0  0  0  0  0  0  0  0  0
    6.8327   -1.2405   22.0518 N   0  0  0  0  0  0  0  0  0  0  0  0
    5.8448   -1.2948   22.2041 H   0  0  0  0  0  0  0  0  0  0  0  0
    5.4126    0.6596   20.1460 C   0  0  0  0  0  0  0  0  0  0  0  0
    4.9904    0.6604   21.1555 H   0  0  0  0  0  0  0  0  0  0  0  0
    4.7908    1.3220   19.0876 C   0  0  0  0  0  0  0  0  0  0  0  0
    3.8601    1.8542   19.2433 H   0  0  0  0  0  0  0  0  0  0  0  0
  1  2  1  0
  2  3  2  0
  3  4  1  0
  4  5  1  0
  4  6  2  0
  6  7  1  0
  7  8  2  0
  8  9  1  0
  8 10  1  0
 10 11  1  0
 10 12  2  0
 12 13  1  0
 13 14  2  0
 14 15  1  0
 14 16  1  0
 16 17  1  0
 16 18  2  0
 18 19  1  0
 18 20  1  0
 20 21  1  0
 21 22  1  0
 21 23  1  0
 20 24  2  0
 24 25  1  0
 12 26  1  0
 26 27  1  0
  6 28  1  0
 28 29  1  0
 28 30  2  0
 30 31  1  0
 30  2  1  0
 26  7  1  0
 24 13  1  0
M  END
>  <plip>  (1) 
-0.14285714285714285

>  <filename>  (1) 
[H][c]1[n][c]([H])[c](-[c]2[c]([H])[c]([H])[c](-[c]3[c]([H])[c]([H])[c]([H])[c]([N]([H])[H])[c]3[H])[n]2[H])[c]([H])[c]1[H]

$$$$
