
     RDKit          3D

 29 31  0  0  0  0  0  0  0  0999 V2000
    4.9506    1.7611   16.9996 H   0  0  0  0  0  0  0  0  0  0  0  0
    5.4330    1.2922   17.8628 C   0  0  0  0  0  0  0  0  0  0  0  0
    6.6055    0.6774   17.6382 N   0  0  0  0  0  0  0  0  0  0  0  0
    7.2001    0.0918   18.6838 C   0  0  0  0  0  0  0  0  0  0  0  0
    8.1405   -0.4132   18.4800 H   0  0  0  0  0  0  0  0  0  0  0  0
    6.6982    0.0709   20.0015 C   0  0  0  0  0  0  0  0  0  0  0  0
    7.4425   -0.6295   21.0665 C   0  0  0  0  0  0  0  0  0  0  0  0
    8.1495   -1.8105   21.1018 C   0  0  0  0  0  0  0  0  0  0  0  0
    8.4072   -2.5206   20.3453 H   0  0  0  0  0  0  0  0  0  0  0  0
    8.5725   -2.0550   22.3653 N   0  0  0  0  0  0  0  0  0  0  0  0
    8.2002   -1.1007   23.1359 N   0  0  0  0  0  0  0  0  0  0  0  0
    7.4999   -0.2056   22.3735 N   0  0  0  0  0  0  0  0  0  0  0  0
    7.0351    0.9730   22.9002 C   0  0  0  0  0  0  0  0  0  0  0  0
    6.6303    2.0111   23.3721 C   0  0  0  0  0  0  0  0  0  0  0  0
    6.1790    3.2600   23.9442 C   0  0  0  0  0  0  0  0  0  0  0  0
    6.6778    3.6877   25.1896 C   0  0  0  0  0  0  0  0  0  0  0  0
    7.4118    3.0682   25.6991 H   0  0  0  0  0  0  0  0  0  0  0  0
    6.2309    4.8879   25.7471 C   0  0  0  0  0  0  0  0  0  0  0  0
    6.6172    5.2097   26.7082 H   0  0  0  0  0  0  0  0  0  0  0  0
    5.2884    5.6689   25.0713 C   0  0  0  0  0  0  0  0  0  0  0  0
    4.9361    6.5969   25.5081 H   0  0  0  0  0  0  0  0  0  0  0  0
    4.7995    5.2549   23.8295 C   0  0  0  0  0  0  0  0  0  0  0  0
    4.0724    5.8598   23.2994 H   0  0  0  0  0  0  0  0  0  0  0  0
    5.2440    4.0594   23.2627 C   0  0  0  0  0  0  0  0  0  0  0  0
    4.8827    3.7335   22.2892 H   0  0  0  0  0  0  0  0  0  0  0  0
    5.4617    0.7130   20.2102 C   0  0  0  0  0  0  0  0  0  0  0  0
    4.9980    0.7326   21.1983 H   0  0  0  0  0  0  0  0  0  0  0  0
    4.8241    1.3181   19.1227 C   0  0  0  0  0  0  0  0  0  0  0  0
    3.8658    1.8150   19.2288 H   0  0  0  0  0  0  0  0  0  0  0  0
  1  2  1  0
  2  3  2  0
  3  4  1  0
  4  5  1  0
  4  6  2  0
  6  7  1  0
  7  8  2  0
  8  9  1  0
  8 10  1  0
 10 11  2  0
 11 12  1  0
 12 13  1  0
 13 14  3  0
 14 15  1  0
 15 16  2  0
 16 17  1  0
 16 18  1  0
 18 19  1  0
 18 20  2  0
 20 21  1  0
 20 22  1  0
 22 23  1  0
 22 24  2  0
 24 25  1  0
  6 26  1  0
 26 27  1  0
 26 28  2  0
 28 29  1  0
 28  2  1  0
 12  7  1  0
 24 15  1  0
M  END
>  <plip>  (1) 
-0.034482758620689655

>  <filename>  (1) 
[H][c]1[n][c]([H])[c](-[c]2[c]([H])[n][n][n]2[C]#[C][c]2[c]([H])[c]([H])[c]([H])[c]([H])[c]2[H])[c]([H])[c]1[H]

$$$$
