
     RDKit          3D

 26 28  0  0  0  0  0  0  0  0999 V2000
    9.7105   -2.3994   22.2469 H   0  0  0  0  0  0  0  0  0  0  0  0
    8.8078   -1.8444   22.0123 C   0  0  0  0  0  0  0  0  0  0  0  0
    8.5423   -1.3285   20.7565 N   0  0  0  0  0  0  0  0  0  0  0  0
    7.4032   -0.7220   20.9126 C   0  0  0  0  0  0  0  0  0  0  0  0
    6.6450    0.0113   19.9153 C   0  0  0  0  0  0  0  0  0  0  0  0
    7.1706    0.0532   18.6173 C   0  0  0  0  0  0  0  0  0  0  0  0
    8.1196   -0.4301   18.3921 H   0  0  0  0  0  0  0  0  0  0  0  0
    6.5676    0.6657   17.5964 N   0  0  0  0  0  0  0  0  0  0  0  0
    5.4056    1.2853   17.8483 C   0  0  0  0  0  0  0  0  0  0  0  0
    4.9430    1.7809   16.9972 H   0  0  0  0  0  0  0  0  0  0  0  0
    4.8033    1.3089   19.1121 C   0  0  0  0  0  0  0  0  0  0  0  0
    3.8716    1.8439   19.2446 H   0  0  0  0  0  0  0  0  0  0  0  0
    5.4240    0.6587   20.1745 C   0  0  0  0  0  0  0  0  0  0  0  0
    4.9810    0.6536   21.1721 H   0  0  0  0  0  0  0  0  0  0  0  0
    6.8888   -0.8092   22.1590 O   0  0  0  0  0  0  0  0  0  0  0  0
    7.8215   -1.5123   22.8770 C   0  0  0  0  0  0  0  0  0  0  0  0
    7.6732   -1.7599   24.3225 C   0  0  1  0  0  0  0  0  0  0  0  0
    7.1645   -2.6887   24.5727 H   0  0  0  0  0  0  0  0  0  0  0  0
    8.8254   -1.3836   25.2279 C   0  0  0  0  0  0  0  0  0  0  0  0
    9.6318   -0.8158   24.7683 H   0  0  0  0  0  0  0  0  0  0  0  0
    9.1384   -2.0555   26.0241 H   0  0  0  0  0  0  0  0  0  0  0  0
    7.5211   -0.6483   25.3224 C   0  0  1  0  0  0  0  0  0  0  0  0
    6.8989   -0.8985   26.1938 H   0  0  0  0  0  0  0  0  0  0  0  0
    7.5191    0.6761   24.7861 N   0  0  0  0  0  0  0  0  0  0  0  0
    6.5809    0.9416   24.5045 H   0  0  0  0  0  0  0  0  0  0  0  0
    7.8712    1.3497   25.4566 H   0  0  0  0  0  0  0  0  0  0  0  0
  1  2  1  0
  2  3  1  0
  3  4  2  0
  4  5  1  0
  5  6  2  0
  6  7  1  0
  6  8  1  0
  8  9  2  0
  9 10  1  0
  9 11  1  0
 11 12  1  0
 11 13  2  0
 13 14  1  0
  4 15  1  0
 15 16  1  0
 16 17  1  0
 17 18  1  6
 17 19  1  0
 19 20  1  0
 19 21  1  0
 19 22  1  0
 22 23  1  1
 22 24  1  0
 24 25  1  0
 24 26  1  0
 16  2  2  0
 22 17  1  0
 13  5  1  0
M  END
>  <plip>  (1) 
-0.0

>  <filename>  (1) 
[H][c]1[n][c](-[c]2[c]([H])[n][c]([H])[c]([H])[c]2[H])[o][c]1[C@@]1([H])[C]([H])([H])[C@@]1([H])[N]([H])[H]

$$$$
