
     RDKit          3D

 36 38  0  0  0  0  0  0  0  0999 V2000
    9.5199    1.2012   21.3796 O   0  0  0  0  0  0  0  0  0  0  0  0
    8.5485    1.2160   22.1100 C   0  0  0  0  0  0  0  0  0  0  0  0
    7.6285    0.1866   22.1760 N   0  0  0  0  0  0  0  0  0  0  0  0
    7.4174   -0.7031   21.0281 C   0  0  0  0  0  0  0  0  0  0  0  0
    6.6492   -2.4208   21.2756 C   0  0  0  0  0  0  0  0  0  0  0  0
    5.4815   -2.5031   21.6294 O   0  0  0  0  0  0  0  0  0  0  0  0
    7.4944   -3.2465   20.9590 O   0  0  0  0  0  1  0  0  0  0  0  0
    6.6897    0.0284   19.9208 C   0  0  0  0  0  0  0  0  0  0  0  0
    5.4605    0.6565   20.1578 C   0  0  0  0  0  0  0  0  0  0  0  0
    4.8204    1.3002   19.0959 C   0  0  0  0  0  0  0  0  0  0  0  0
    5.4273    1.3003   17.8353 C   0  0  0  0  0  0  0  0  0  0  0  0
    6.6023    0.7056   17.5825 N   0  0  0  0  0  0  0  0  0  0  0  0
    7.2130    0.1030   18.6137 C   0  0  0  0  0  0  0  0  0  0  0  0
    8.1625   -0.3829   18.3781 H   0  0  0  0  0  0  0  0  0  0  0  0
    4.9442    1.7878   16.9906 H   0  0  0  0  0  0  0  0  0  0  0  0
    3.8676    1.8004   19.2313 H   0  0  0  0  0  0  0  0  0  0  0  0
    5.0165    0.6321   21.1567 H   0  0  0  0  0  0  0  0  0  0  0  0
    8.3810   -1.0928   20.6926 H   0  0  0  0  0  0  0  0  0  0  0  0
    6.8237    0.3880   22.7545 H   0  0  0  0  0  0  0  0  0  0  0  0
    8.3162    2.4404   23.0494 C   0  0  0  0  0  0  0  0  0  0  0  0
    7.7293    2.1325   24.4341 C   0  0  0  0  0  0  0  0  0  0  0  0
    6.3658    1.6819   24.3331 O   0  0  0  0  0  0  0  0  0  0  0  0
    5.5624    2.4884   23.5592 C   0  0  0  0  0  0  0  0  0  0  0  0
    4.1731    2.4544   23.7129 C   0  0  0  0  0  0  0  0  0  0  0  0
    3.3461    3.1441   22.8167 C   0  0  0  0  0  0  0  0  0  0  0  0
    3.9117    3.8885   21.7782 C   0  0  0  0  0  0  0  0  0  0  0  0
    5.3022    3.9853   21.6705 C   0  0  0  0  0  0  0  0  0  0  0  0
    6.1291    3.2996   22.5518 C   0  0  0  0  0  0  0  0  0  0  0  0
    7.4892    3.4395   22.4094 O   0  0  0  0  0  0  0  0  0  0  0  0
    5.7923    4.5786   20.9144 H   0  0  0  0  0  0  0  0  0  0  0  0
    3.2865    4.3764   21.0354 H   0  0  0  0  0  0  0  0  0  0  0  0
    2.2657    3.0914   22.9178 H   0  0  0  0  0  0  0  0  0  0  0  0
    3.7680    1.8726   24.5311 H   0  0  0  0  0  0  0  0  0  0  0  0
    7.7560    3.0532   25.0384 H   0  0  0  0  0  0  0  0  0  0  0  0
    8.2810    1.3516   24.9612 H   0  0  0  0  0  0  0  0  0  0  0  0
    9.2893    2.9228   23.1556 H   0  0  0  0  0  0  0  0  0  0  0  0
  1  2  2  0
  2  3  1  0
  3  4  1  0
  4  5  1  0
  5  6  2  0
  5  7  1  0
  4  8  1  0
  8  9  2  0
  9 10  1  0
 10 11  2  0
 11 12  1  0
 12 13  2  0
 13 14  1  0
 11 15  1  0
 10 16  1  0
  9 17  1  0
  4 18  1  0
  3 19  1  0
  2 20  1  0
 20 21  1  0
 21 22  1  0
 22 23  1  0
 23 24  2  0
 24 25  1  0
 25 26  2  0
 26 27  1  0
 27 28  2  0
 28 29  1  0
 27 30  1  0
 26 31  1  0
 25 32  1  0
 24 33  1  0
 21 34  1  0
 21 35  1  0
 20 36  1  0
 13  8  1  0
 29 20  1  0
 28 23  1  0
M  CHG  1   7  -1
M  END
>  <plip>  (1) 
-0.10344827586206896

>  <filename>  (1) 
[H][c]1[n][c]([H])[c]([C]([H])([C](=[O])[O-])[N]([H])[C](=[O])[C]2([H])[O][c]3[c]([H])[c]([H])[c]([H])[c]([H])[c]3[O][C]2([H])[H])[c]([H])[c]1[H]

$$$$
