
     RDKit          3D

 26 27  0  0  0  0  0  0  0  0999 V2000
   11.8047    1.5089   21.6157 C   0  0  0  0  0  0  0  0  0  0  0  0
   10.8966    0.4092   21.7605 O   0  0  0  0  0  0  0  0  0  0  0  0
    9.6232    0.5963   21.3905 C   0  0  0  0  0  0  0  0  0  0  0  0
    9.1914    1.6121   20.8902 O   0  0  0  0  0  0  0  0  0  0  0  0
    8.7557   -0.6138   21.6387 C   0  0  0  0  0  0  0  0  0  0  0  0
    9.0232   -1.5373   22.5324 N   0  0  0  0  0  0  0  0  0  0  0  0
    7.9694   -2.4007   22.4982 O   0  0  0  0  0  0  0  0  0  0  0  0
    7.0665   -2.0078   21.5966 C   0  0  0  0  0  0  0  0  0  0  0  0
    5.8658   -2.8527   21.3980 C   0  0  0  0  0  0  0  0  0  0  0  0
    6.0647   -3.6953   20.7370 H   0  0  0  0  0  0  0  0  0  0  0  0
    5.4503   -3.2446   22.3288 H   0  0  0  0  0  0  0  0  0  0  0  0
    5.1545   -2.2175   20.8943 H   0  0  0  0  0  0  0  0  0  0  0  0
    7.5049   -0.8663   20.9860 C   0  0  0  0  0  0  0  0  0  0  0  0
    6.8116   -0.0846   19.9409 C   0  0  0  0  0  0  0  0  0  0  0  0
    5.5855    0.5426   20.2135 C   0  0  0  0  0  0  0  0  0  0  0  0
    4.9294    1.2210   19.1855 C   0  0  0  0  0  0  0  0  0  0  0  0
    5.5139    1.2344   17.9138 C   0  0  0  0  0  0  0  0  0  0  0  0
    6.6805    0.6381   17.6228 N   0  0  0  0  0  0  0  0  0  0  0  0
    7.3092    0.0108   18.6263 C   0  0  0  0  0  0  0  0  0  0  0  0
    8.2636   -0.4667   18.4021 H   0  0  0  0  0  0  0  0  0  0  0  0
    5.0271    1.7406   17.0830 H   0  0  0  0  0  0  0  0  0  0  0  0
    3.9926    1.7445   19.3534 H   0  0  0  0  0  0  0  0  0  0  0  0
    5.1799    0.5133   21.2272 H   0  0  0  0  0  0  0  0  0  0  0  0
   12.7694    1.1181   21.9312 H   0  0  0  0  0  0  0  0  0  0  0  0
   11.8667    1.8438   20.5764 H   0  0  0  0  0  0  0  0  0  0  0  0
   11.5050    2.3419   22.2561 H   0  0  0  0  0  0  0  0  0  0  0  0
  1  2  1  0
  2  3  1  0
  3  4  2  0
  3  5  1  0
  5  6  2  0
  6  7  1  0
  7  8  1  0
  8  9  1  0
  9 10  1  0
  9 11  1  0
  9 12  1  0
  8 13  2  0
 13 14  1  0
 14 15  2  0
 15 16  1  0
 16 17  2  0
 17 18  1  0
 18 19  2  0
 19 20  1  0
 17 21  1  0
 16 22  1  0
 15 23  1  0
  1 24  1  0
  1 25  1  0
  1 26  1  0
 13  5  1  0
 19 14  1  0
M  END
>  <plip>  (1) 
-0.06896551724137931

>  <filename>  (1) 
[H][c]1[n][c]([H])[c](-[c]2[c]([C](=[O])[O][C]([H])([H])[H])[n][o][c]2[C]([H])([H])[H])[c]([H])[c]1[H]

$$$$
