
     RDKit          3D

 49 52  0  0  0  0  0  0  0  0999 V2000
    6.8866    1.6017   22.5884 O   0  0  0  0  0  0  0  0  0  0  0  0
    8.0424    1.3953   22.2430 C   0  0  0  0  0  0  0  0  0  0  0  0
    8.3979    0.2256   21.6375 N   0  0  0  0  0  0  0  0  0  0  0  0
    7.4489   -0.7112   21.0196 C   0  0  0  0  0  0  0  0  0  0  0  0
    6.6276   -1.4554   22.1096 C   0  0  0  0  0  0  0  0  0  0  0  0
    5.7941   -2.6324   21.6371 N   0  0  0  0  0  4  0  0  0  0  0  0
    6.5755   -3.7321   20.9444 C   0  0  0  0  0  0  0  0  0  0  0  0
    5.7296   -5.0038   21.0835 C   0  0  0  0  0  0  0  0  0  0  0  0
    4.7570   -4.7583   22.2588 C   0  0  0  0  0  0  0  0  0  0  0  0
    5.0310   -3.3326   22.7462 C   0  0  0  0  0  0  0  0  0  0  0  0
    4.1111   -2.7987   22.9787 H   0  0  0  0  0  0  0  0  0  0  0  0
    5.6468   -3.3379   23.6520 H   0  0  0  0  0  0  0  0  0  0  0  0
    4.9141   -5.4631   23.0818 H   0  0  0  0  0  0  0  0  0  0  0  0
    3.7096   -4.8852   21.9608 H   0  0  0  0  0  0  0  0  0  0  0  0
    5.1988   -5.2049   20.1497 H   0  0  0  0  0  0  0  0  0  0  0  0
    6.3696   -5.8773   21.2454 H   0  0  0  0  0  0  0  0  0  0  0  0
    7.5474   -3.8396   21.4391 H   0  0  0  0  0  0  0  0  0  0  0  0
    6.7600   -3.4578   19.9041 H   0  0  0  0  0  0  0  0  0  0  0  0
    5.1094   -2.2128   20.9621 H   0  0  0  0  0  0  0  0  0  0  0  0
    7.3749   -1.8195   22.8241 H   0  0  0  0  0  0  0  0  0  0  0  0
    6.0178   -0.7249   22.6503 H   0  0  0  0  0  0  0  0  0  0  0  0
    6.6608   -0.0061   19.9294 C   0  0  0  0  0  0  0  0  0  0  0  0
    5.4458    0.6517   20.1528 C   0  0  0  0  0  0  0  0  0  0  0  0
    4.8244    1.2913   19.0781 C   0  0  0  0  0  0  0  0  0  0  0  0
    5.4552    1.2815   17.8311 C   0  0  0  0  0  0  0  0  0  0  0  0
    6.6334    0.6816   17.6042 N   0  0  0  0  0  0  0  0  0  0  0  0
    7.2158    0.0696   18.6403 C   0  0  0  0  0  0  0  0  0  0  0  0
    8.1681   -0.4186   18.4191 H   0  0  0  0  0  0  0  0  0  0  0  0
    4.9942    1.7667   16.9734 H   0  0  0  0  0  0  0  0  0  0  0  0
    3.8831    1.8121   19.2028 H   0  0  0  0  0  0  0  0  0  0  0  0
    5.0304    0.7082   21.1604 H   0  0  0  0  0  0  0  0  0  0  0  0
    8.0755   -1.4682   20.5338 H   0  0  0  0  0  0  0  0  0  0  0  0
    9.3464    0.1988   21.3203 H   0  0  0  0  0  0  0  0  0  0  0  0
    9.1746    2.3882   22.5337 C   0  0  0  0  0  0  0  0  0  0  0  0
    8.9853    3.3033   23.5706 C   0  0  0  0  0  0  0  0  0  0  0  0
    9.9674    4.2837   23.8713 C   0  0  0  0  0  0  0  0  0  0  0  0
    9.7534    5.1969   24.8992 N   0  0  0  0  0  0  0  0  0  0  0  0
   10.6925    6.0948   25.0841 C   0  0  0  0  0  0  0  0  0  0  0  0
   11.9125    6.1290   24.2722 C   0  0  0  0  0  0  0  0  0  0  0  0
   12.8648    7.0522   24.4513 O   0  0  0  0  0  0  0  0  0  0  0  0
   13.4896    6.7561   23.7573 H   0  0  0  0  0  0  0  0  0  0  0  0
   12.1670    5.2758   23.3197 N   0  0  0  0  0  0  0  0  0  0  0  0
   11.1781    4.3275   23.0967 C   0  0  0  0  0  0  0  0  0  0  0  0
   11.3690    3.3812   22.0703 C   0  0  0  0  0  0  0  0  0  0  0  0
   10.3933    2.4420   21.7844 C   0  0  0  0  0  0  0  0  0  0  0  0
   10.5729    1.7716   20.9429 H   0  0  0  0  0  0  0  0  0  0  0  0
   12.2980    3.4680   21.5143 H   0  0  0  0  0  0  0  0  0  0  0  0
   10.5677    6.8506   25.8514 H   0  0  0  0  0  0  0  0  0  0  0  0
    8.0693    3.2869   24.1590 H   0  0  0  0  0  0  0  0  0  0  0  0
  1  2  2  0
  2  3  1  0
  3  4  1  0
  4  5  1  0
  5  6  1  0
  6  7  1  0
  7  8  1  0
  8  9  1  0
  9 10  1  0
 10 11  1  0
 10 12  1  0
  9 13  1  0
  9 14  1  0
  8 15  1  0
  8 16  1  0
  7 17  1  0
  7 18  1  0
  6 19  1  0
  5 20  1  0
  5 21  1  0
  4 22  1  0
 22 23  2  0
 23 24  1  0
 24 25  2  0
 25 26  1  0
 26 27  2  0
 27 28  1  0
 25 29  1  0
 24 30  1  0
 23 31  1  0
  4 32  1  0
  3 33  1  0
  2 34  1  0
 34 35  2  0
 35 36  1  0
 36 37  2  0
 37 38  1  0
 38 39  2  0
 39 40  1  0
 40 41  1  0
 39 42  1  0
 42 43  2  0
 43 44  1  0
 44 45  2  0
 45 46  1  0
 44 47  1  0
 38 48  1  0
 35 49  1  0
 10  6  1  0
 27 22  1  0
 45 34  1  0
 43 36  1  0
M  CHG  1   6   1
M  END
>  <plip>  (1) 
-0.1

>  <filename>  (1) 
[H][O][c]1[n][c]2[c]([H])[c]([H])[c]([C](=[O])[N]([H])[C]([H])([c]3[c]([H])[n][c]([H])[c]([H])[c]3[H])[C]([H])([H])[N+]3([H])[C]([H])([H])[C]([H])([H])[C]([H])([H])[C]3([H])[H])[c]([H])[c]2[n][c]1[H]

$$$$
