
     RDKit          3D

 31 33  0  0  0  0  0  0  0  0999 V2000
    5.0091    1.8005   17.0016 H   0  0  0  0  0  0  0  0  0  0  0  0
    5.4672    1.2837   17.8417 C   0  0  0  0  0  0  0  0  0  0  0  0
    6.6184    0.6414   17.5824 N   0  0  0  0  0  0  0  0  0  0  0  0
    7.1931   -0.0165   18.5959 C   0  0  0  0  0  0  0  0  0  0  0  0
    8.1207   -0.5361   18.3571 H   0  0  0  0  0  0  0  0  0  0  0  0
    6.6702   -0.0750   19.9061 C   0  0  0  0  0  0  0  0  0  0  0  0
    7.3315   -0.8074   20.9624 C   0  0  0  0  0  0  0  0  0  0  0  0
    7.8770   -1.3829   21.8696 C   0  0  0  0  0  0  0  0  0  0  0  0
    8.5503   -1.9354   22.9194 N   0  0  0  0  0  0  0  0  0  0  0  0
    8.0205   -2.3531   24.1200 C   0  0  0  0  0  0  0  0  0  0  0  0
    6.9973   -2.1382   24.4140 H   0  0  0  0  0  0  0  0  0  0  0  0
    8.9235   -2.9541   24.8313 N   0  0  0  0  0  0  0  0  0  0  0  0
   10.1046   -2.9283   24.1193 N   0  0  0  0  0  0  0  0  0  0  0  0
    9.8820   -2.3052   22.9978 C   0  0  0  0  0  0  0  0  0  0  0  0
   10.9252   -1.9249   21.9858 C   0  0  0  0  0  0  0  0  0  0  0  0
   11.7820   -2.5804   22.1863 H   0  0  0  0  0  0  0  0  0  0  0  0
   10.5451   -2.1883   20.9928 H   0  0  0  0  0  0  0  0  0  0  0  0
   11.3501   -0.4537   22.0160 C   0  0  0  0  0  0  0  0  0  0  0  0
   12.4548   -0.0142   22.7622 C   0  0  0  0  0  0  0  0  0  0  0  0
   12.9898   -0.7157   23.4002 H   0  0  0  0  0  0  0  0  0  0  0  0
   12.9028    1.2454   22.7762 N   0  0  0  0  0  0  0  0  0  0  0  0
   12.2426    2.1471   22.0354 C   0  0  0  0  0  0  0  0  0  0  0  0
   12.6464    3.1567   22.0456 H   0  0  0  0  0  0  0  0  0  0  0  0
   11.0993    1.8396   21.2950 C   0  0  0  0  0  0  0  0  0  0  0  0
   10.5804    2.6055   20.7286 H   0  0  0  0  0  0  0  0  0  0  0  0
   10.6555    0.5167   21.2863 C   0  0  0  0  0  0  0  0  0  0  0  0
    9.7657    0.2214   20.7317 H   0  0  0  0  0  0  0  0  0  0  0  0
    5.4686    0.6207   20.1544 C   0  0  0  0  0  0  0  0  0  0  0  0
    5.0383    0.6301   21.1573 H   0  0  0  0  0  0  0  0  0  0  0  0
    4.8549    1.2982   19.0999 C   0  0  0  0  0  0  0  0  0  0  0  0
    3.9224    1.8387   19.2403 H   0  0  0  0  0  0  0  0  0  0  0  0
  1  2  1  0
  2  3  2  0
  3  4  1  0
  4  5  1  0
  4  6  2  0
  6  7  1  0
  7  8  3  0
  8  9  1  0
  9 10  1  0
 10 11  1  0
 10 12  2  0
 12 13  1  0
 13 14  2  0
 14 15  1  0
 15 16  1  0
 15 17  1  0
 15 18  1  0
 18 19  2  0
 19 20  1  0
 19 21  1  0
 21 22  2  0
 22 23  1  0
 22 24  1  0
 24 25  1  0
 24 26  2  0
 26 27  1  0
  6 28  1  0
 28 29  1  0
 28 30  2  0
 30 31  1  0
 30  2  1  0
 14  9  1  0
 26 18  1  0
M  END
>  <plip>  (1) 
-0.07142857142857142

>  <filename>  (1) 
[H][c]1[n][c]([H])[c]([C]#[C][n]2[c]([H])[n][n][c]2[C]([H])([H])[c]2[c]([H])[n][c]([H])[c]([H])[c]2[H])[c]([H])[c]1[H]

$$$$
