
     RDKit          3D

 28 29  0  0  0  0  0  0  0  0999 V2000
    4.8794    1.7764   16.8444 H   0  0  0  0  0  0  0  0  0  0  0  0
    5.4086    1.3175   17.6791 C   0  0  0  0  0  0  0  0  0  0  0  0
    6.5623    0.7104   17.3713 N   0  0  0  0  0  0  0  0  0  0  0  0
    7.2543    0.1767   18.3776 C   0  0  0  0  0  0  0  0  0  0  0  0
    8.1995   -0.2966   18.1251 H   0  0  0  0  0  0  0  0  0  0  0  0
    6.8380    0.1969   19.7211 C   0  0  0  0  0  0  0  0  0  0  0  0
    7.8507   -0.3523   20.6797 C   0  0  0  0  0  0  0  0  0  0  0  0
    8.9832   -0.5739   20.3315 O   0  0  0  0  0  0  0  0  0  0  0  0
    7.3662   -0.5938   22.4736 S   0  0  0  0  0  0  0  0  0  0  0  0
    6.3848   -1.9927   22.5824 N   0  0  0  0  0  0  0  0  0  0  0  0
    5.3877   -1.8489   22.5260 H   0  0  0  0  0  0  0  0  0  0  0  0
    6.8400   -3.2938   22.7542 C   0  0  0  0  0  0  0  0  0  0  0  0
    8.0101   -3.5556   22.9161 O   0  0  0  0  0  0  0  0  0  0  0  0
    5.7596   -4.3550   22.6179 C   0  0  0  0  0  0  0  0  0  0  0  0
    6.1458   -5.6286   22.1660 C   0  0  0  0  0  0  0  0  0  0  0  0
    7.2026   -5.8456   22.0446 H   0  0  0  0  0  0  0  0  0  0  0  0
    5.1950   -6.6089   21.8846 C   0  0  0  0  0  0  0  0  0  0  0  0
    5.5328   -7.5465   21.4539 H   0  0  0  0  0  0  0  0  0  0  0  0
    3.8382   -6.3619   22.1238 C   0  0  0  0  0  0  0  0  0  0  0  0
    3.0945   -7.1321   21.9254 H   0  0  0  0  0  0  0  0  0  0  0  0
    3.4402   -5.1226   22.6327 C   0  0  0  0  0  0  0  0  0  0  0  0
    2.3820   -4.9346   22.8131 H   0  0  0  0  0  0  0  0  0  0  0  0
    4.3968   -4.1335   22.8918 C   0  0  0  0  0  0  0  0  0  0  0  0
    4.0634   -3.2094   23.3540 H   0  0  0  0  0  0  0  0  0  0  0  0
    5.5921    0.7691   20.0240 C   0  0  0  0  0  0  0  0  0  0  0  0
    5.1648    0.7945   21.0299 H   0  0  0  0  0  0  0  0  0  0  0  0
    4.8804    1.3495   18.9732 C   0  0  0  0  0  0  0  0  0  0  0  0
    3.9308    1.8379   19.1434 H   0  0  0  0  0  0  0  0  0  0  0  0
  1  2  1  0
  2  3  2  0
  3  4  1  0
  4  5  1  0
  4  6  2  0
  6  7  1  0
  7  8  2  0
  7  9  1  0
  9 10  1  0
 10 11  1  0
 10 12  1  0
 12 13  2  0
 12 14  1  0
 14 15  2  0
 15 16  1  0
 15 17  1  0
 17 18  1  0
 17 19  2  0
 19 20  1  0
 19 21  1  0
 21 22  1  0
 21 23  2  0
 23 24  1  0
  6 25  1  0
 25 26  1  0
 25 27  2  0
 27 28  1  0
 27  2  1  0
 23 14  1  0
M  END
>  <plip>  (1) 
-0.12903225806451613

>  <filename>  (1) 
[H][c]1[n][c]([H])[c]([C](=[O])[S][N]([H])[C](=[O])[c]2[c]([H])[c]([H])[c]([H])[c]([H])[c]2[H])[c]([H])[c]1[H]

$$$$
