
     RDKit          3D

 48 50  0  0  0  0  0  0  0  0999 V2000
    8.0228   -2.1910   26.5367 C   0  0  0  0  0  0  0  0  0  0  0  0
    9.0357   -2.3728   25.4306 C   0  0  0  0  0  0  0  0  0  0  0  0
    9.6573   -3.6293   25.2149 C   0  0  0  0  0  0  0  0  0  0  0  0
   10.6346   -3.8147   24.2402 C   0  0  0  0  0  0  0  0  0  0  0  0
   10.9533   -2.7231   23.4160 C   0  0  0  0  0  0  0  0  0  0  0  0
   11.8603   -2.5989   22.3915 N   0  0  0  0  0  0  0  0  0  0  0  0
   11.8548   -1.2965   21.9315 C   0  0  0  0  0  0  0  0  0  0  0  0
   10.9661   -0.5537   22.6535 C   0  0  0  0  0  0  0  0  0  0  0  0
   10.5106    0.8531   22.3607 C   0  0  0  0  0  0  0  0  0  0  0  0
    9.0052    0.9471   22.1082 C   0  0  0  0  0  0  0  0  0  0  0  0
    8.3048    1.8574   22.5117 O   0  0  0  0  0  0  0  0  0  0  0  0
    8.5243   -0.0985   21.3837 N   0  0  0  0  0  0  0  0  0  0  0  0
    7.1174   -0.4129   21.3037 C   0  0  0  0  0  0  0  0  0  0  0  0
    6.8991   -1.9267   21.1014 C   0  0  0  0  0  0  0  0  0  0  0  0
    7.6844   -2.8952   22.0011 C   0  0  0  0  0  0  0  0  0  0  0  0
    7.4167   -4.3416   21.6157 C   0  0  0  0  0  0  0  0  0  0  0  0
    8.1884   -5.1797   22.4543 O   0  0  0  0  0  0  0  0  0  0  0  0
    7.8600   -6.0818   22.3768 H   0  0  0  0  0  0  0  0  0  0  0  0
    7.6988   -4.5009   20.5629 H   0  0  0  0  0  0  0  0  0  0  0  0
    6.3364   -4.5499   21.6989 H   0  0  0  0  0  0  0  0  0  0  0  0
    8.7642   -2.7293   21.9292 H   0  0  0  0  0  0  0  0  0  0  0  0
    7.4325   -2.7456   23.0589 H   0  0  0  0  0  0  0  0  0  0  0  0
    5.8220   -2.1165   21.2187 H   0  0  0  0  0  0  0  0  0  0  0  0
    7.1318   -2.1602   20.0522 H   0  0  0  0  0  0  0  0  0  0  0  0
    6.5283    0.3461   20.1338 C   0  0  0  0  0  0  0  0  0  0  0  0
    5.2762    0.9651   20.1915 C   0  0  0  0  0  0  0  0  0  0  0  0
    4.7242    1.4571   19.0056 C   0  0  0  0  0  0  0  0  0  0  0  0
    5.4521    1.3303   17.8181 C   0  0  0  0  0  0  0  0  0  0  0  0
    6.6760    0.7863   17.7516 N   0  0  0  0  0  0  0  0  0  0  0  0
    7.1990    0.3345   18.8971 C   0  0  0  0  0  0  0  0  0  0  0  0
    8.2087   -0.0700   18.8270 H   0  0  0  0  0  0  0  0  0  0  0  0
    5.0415    1.6794   16.8740 H   0  0  0  0  0  0  0  0  0  0  0  0
    3.7510    1.9334   18.9883 H   0  0  0  0  0  0  0  0  0  0  0  0
    4.7495    1.0633   21.1440 H   0  0  0  0  0  0  0  0  0  0  0  0
    6.6247   -0.0953   22.2358 H   0  0  0  0  0  0  0  0  0  0  0  0
    9.1636   -0.8651   21.2726 H   0  0  0  0  0  0  0  0  0  0  0  0
   10.7278    1.5465   23.1774 H   0  0  0  0  0  0  0  0  0  0  0  0
   11.0121    1.2277   21.4603 H   0  0  0  0  0  0  0  0  0  0  0  0
   10.3697   -1.4494   23.6170 C   0  0  0  0  0  0  0  0  0  0  0  0
    9.4083   -1.2828   24.6374 C   0  0  0  0  0  0  0  0  0  0  0  0
    8.9546   -0.3020   24.8004 H   0  0  0  0  0  0  0  0  0  0  0  0
   12.4482   -0.9981   21.0782 H   0  0  0  0  0  0  0  0  0  0  0  0
   12.5533   -3.2946   22.1670 H   0  0  0  0  0  0  0  0  0  0  0  0
   11.1290   -4.7730   24.1283 H   0  0  0  0  0  0  0  0  0  0  0  0
    9.3788   -4.4684   25.8571 H   0  0  0  0  0  0  0  0  0  0  0  0
    7.6586   -3.1482   26.9215 H   0  0  0  0  0  0  0  0  0  0  0  0
    8.4481   -1.6344   27.3824 H   0  0  0  0  0  0  0  0  0  0  0  0
    7.1569   -1.6241   26.1763 H   0  0  0  0  0  0  0  0  0  0  0  0
  1  2  1  0
  2  3  2  0
  3  4  1  0
  4  5  2  0
  5  6  1  0
  6  7  1  0
  7  8  2  0
  8  9  1  0
  9 10  1  0
 10 11  2  0
 10 12  1  0
 12 13  1  0
 13 14  1  0
 14 15  1  0
 15 16  1  0
 16 17  1  0
 17 18  1  0
 16 19  1  0
 16 20  1  0
 15 21  1  0
 15 22  1  0
 14 23  1  0
 14 24  1  0
 13 25  1  0
 25 26  2  0
 26 27  1  0
 27 28  2  0
 28 29  1  0
 29 30  2  0
 30 31  1  0
 28 32  1  0
 27 33  1  0
 26 34  1  0
 13 35  1  0
 12 36  1  0
  9 37  1  0
  9 38  1  0
  8 39  1  0
 39 40  2  0
 40 41  1  0
  7 42  1  0
  6 43  1  0
  4 44  1  0
  3 45  1  0
  1 46  1  0
  1 47  1  0
  1 48  1  0
 40  2  1  0
 39  5  1  0
 30 25  1  0
M  END
>  <plip>  (1) 
-0.125

>  <filename>  (1) 
[H][O][C]([H])([H])[C]([H])([H])[C]([H])([H])[C]([H])([c]1[c]([H])[n][c]([H])[c]([H])[c]1[H])[N]([H])[C](=[O])[C]([H])([H])[c]1[c]([H])[n]([H])[c]2[c]([H])[c]([H])[c]([C]([H])([H])[H])[c]([H])[c]12

$$$$
