
     RDKit          3D

 31 33  0  0  0  0  0  0  0  0999 V2000
    6.3174    2.5165   25.4630 H   0  0  0  0  0  0  0  0  0  0  0  0
    6.6956    2.4788   24.4423 C   0  0  0  0  0  0  0  0  0  0  0  0
    6.9259    1.2511   23.9759 N   0  0  0  0  0  0  0  0  0  0  0  0
    7.3799    1.1289   22.7153 C   0  0  0  0  0  0  0  0  0  0  0  0
    7.6013   -0.2500   22.2372 C   0  0  0  0  0  0  0  0  0  0  0  0
    7.3385   -0.6861   20.9858 C   0  0  0  0  0  0  0  0  0  0  0  0
    6.6384    0.0256   19.9085 C   0  0  0  0  0  0  0  0  0  0  0  0
    7.1505    0.0600   18.5977 C   0  0  0  0  0  0  0  0  0  0  0  0
    8.1039   -0.4203   18.3690 H   0  0  0  0  0  0  0  0  0  0  0  0
    6.5542    0.6775   17.5709 N   0  0  0  0  0  0  0  0  0  0  0  0
    5.3908    1.3006   17.8182 C   0  0  0  0  0  0  0  0  0  0  0  0
    4.9266    1.8034   16.9713 H   0  0  0  0  0  0  0  0  0  0  0  0
    4.7876    1.3171   19.0784 C   0  0  0  0  0  0  0  0  0  0  0  0
    3.8613    1.8487   19.2259 H   0  0  0  0  0  0  0  0  0  0  0  0
    5.4091    0.6649   20.1369 C   0  0  0  0  0  0  0  0  0  0  0  0
    4.9825    0.6545   21.1420 H   0  0  0  0  0  0  0  0  0  0  0  0
    7.8457   -2.0873   20.7956 C   0  0  0  0  0  0  0  0  0  0  0  0
    8.7104   -2.0358   20.1287 H   0  0  0  0  0  0  0  0  0  0  0  0
    7.0790   -2.7155   20.3300 H   0  0  0  0  0  0  0  0  0  0  0  0
    8.2658   -2.5854   22.2001 C   0  0  0  0  0  0  0  0  0  0  0  0
    7.5899   -3.3703   22.5572 H   0  0  0  0  0  0  0  0  0  0  0  0
    9.2676   -3.0302   22.1700 H   0  0  0  0  0  0  0  0  0  0  0  0
    8.2104   -1.3297   23.1130 C   0  0  0  0  0  0  0  0  0  0  0  0
    9.2087   -1.0214   23.4540 H   0  0  0  0  0  0  0  0  0  0  0  0
    7.6088   -1.4656   24.0205 H   0  0  0  0  0  0  0  0  0  0  0  0
    7.6507    2.2549   21.9113 C   0  0  0  0  0  0  0  0  0  0  0  0
    8.0120    2.0935   20.9057 H   0  0  0  0  0  0  0  0  0  0  0  0
    7.4256    3.5392   22.4120 C   0  0  0  0  0  0  0  0  0  0  0  0
    7.6245    4.4274   21.8051 H   0  0  0  0  0  0  0  0  0  0  0  0
    6.9282    3.6488   23.7123 C   0  0  0  0  0  0  0  0  0  0  0  0
    6.7285    4.6070   24.1766 H   0  0  0  0  0  0  0  0  0  0  0  0
  1  2  1  0
  2  3  2  0
  3  4  1  0
  4  5  1  0
  5  6  2  0
  6  7  1  0
  7  8  2  0
  8  9  1  0
  8 10  1  0
 10 11  2  0
 11 12  1  0
 11 13  1  0
 13 14  1  0
 13 15  2  0
 15 16  1  0
  6 17  1  0
 17 18  1  0
 17 19  1  0
 17 20  1  0
 20 21  1  0
 20 22  1  0
 20 23  1  0
 23 24  1  0
 23 25  1  0
  4 26  2  0
 26 27  1  0
 26 28  1  0
 28 29  1  0
 28 30  2  0
 30 31  1  0
 30  2  1  0
 23  5  1  0
 15  7  1  0
M  END
>  <plip>  (1) 
-0.03571428571428571

>  <filename>  (1) 
[H][c]1[n][c]([C]2=[C]([c]3[c]([H])[n][c]([H])[c]([H])[c]3[H])[C]([H])([H])[C]([H])([H])[C]2([H])[H])[c]([H])[c]([H])[c]1[H]

$$$$
