
     RDKit          3D

 41 43  0  0  0  0  0  0  0  0999 V2000
   13.0835   -2.1943   22.0304 N   0  0  0  0  0  0  0  0  0  0  0  0
   12.5585   -0.9407   22.2199 C   0  0  0  0  0  0  0  0  0  0  0  0
   13.3650    0.1926   22.2813 C   0  0  0  0  0  0  0  0  0  0  0  0
   12.7379    1.4168   22.4467 C   0  0  0  0  0  0  0  0  0  0  0  0
   11.3370    1.4441   22.5739 C   0  0  0  0  0  0  0  0  0  0  0  0
   10.6296    0.2408   22.5425 C   0  0  0  0  0  0  0  0  0  0  0  0
    9.1158    0.2024   22.8432 C   0  0  0  0  0  0  0  0  0  0  0  0
    8.1105    0.5896   21.8151 N   0  0  0  0  0  4  0  0  0  0  0  0
    7.2427   -0.5865   21.1352 C   0  0  0  0  0  0  0  0  0  0  0  0
    6.5512    0.1832   20.0309 C   0  0  0  0  0  0  0  0  0  0  0  0
    5.3068    0.8225   20.1703 C   0  0  0  0  0  0  0  0  0  0  0  0
    4.7559    1.4845   19.0698 C   0  0  0  0  0  0  0  0  0  0  0  0
    5.4588    1.4878   17.8617 C   0  0  0  0  0  0  0  0  0  0  0  0
    6.6564    0.9030   17.7109 N   0  0  0  0  0  0  0  0  0  0  0  0
    7.1799    0.2913   18.7760 C   0  0  0  0  0  0  0  0  0  0  0  0
    8.1528   -0.1727   18.6057 H   0  0  0  0  0  0  0  0  0  0  0  0
    5.0448    1.9711   16.9788 H   0  0  0  0  0  0  0  0  0  0  0  0
    3.8132    2.0172   19.1385 H   0  0  0  0  0  0  0  0  0  0  0  0
    4.7870    0.8136   21.1310 H   0  0  0  0  0  0  0  0  0  0  0  0
    6.3344   -1.2832   22.1464 C   0  0  0  0  0  0  0  0  0  0  0  0
    7.0303   -2.5684   22.6622 C   0  0  0  0  0  0  0  0  0  0  0  0
    8.2433   -2.7965   21.7381 C   0  0  0  0  0  0  0  0  0  0  0  0
    8.0857   -1.7504   20.6295 C   0  0  0  0  0  0  0  0  0  0  0  0
    9.0411   -1.4384   20.1961 H   0  0  0  0  0  0  0  0  0  0  0  0
    7.4349   -2.1677   19.8601 H   0  0  0  0  0  0  0  0  0  0  0  0
    9.1839   -2.6473   22.2788 H   0  0  0  0  0  0  0  0  0  0  0  0
    8.2913   -3.8128   21.3318 H   0  0  0  0  0  0  0  0  0  0  0  0
    7.3487   -2.4592   23.7038 H   0  0  0  0  0  0  0  0  0  0  0  0
    6.3347   -3.4147   22.6387 H   0  0  0  0  0  0  0  0  0  0  0  0
    5.4253   -1.5708   21.6099 H   0  0  0  0  0  0  0  0  0  0  0  0
    6.0860   -0.5910   22.9570 H   0  0  0  0  0  0  0  0  0  0  0  0
    8.4994    1.0750   20.9836 H   0  0  0  0  0  0  0  0  0  0  0  0
    7.3529    1.1848   22.1989 H   0  0  0  0  0  0  0  0  0  0  0  0
    8.9624    0.8032   23.7457 H   0  0  0  0  0  0  0  0  0  0  0  0
    8.9475   -0.8389   23.1079 H   0  0  0  0  0  0  0  0  0  0  0  0
   11.2421   -0.9493   22.3733 N   0  0  0  0  0  0  0  0  0  0  0  0
   10.7882    2.3646   22.7332 H   0  0  0  0  0  0  0  0  0  0  0  0
   13.3342    2.3306   22.4919 H   0  0  0  0  0  0  0  0  0  0  0  0
   14.4376    0.0453   22.2320 H   0  0  0  0  0  0  0  0  0  0  0  0
   13.6239   -2.2385   21.1834 H   0  0  0  0  0  0  0  0  0  0  0  0
   12.2401   -2.7495   21.9344 H   0  0  0  0  0  0  0  0  0  0  0  0
  1  2  1  0
  2  3  2  0
  3  4  1  0
  4  5  2  0
  5  6  1  0
  6  7  1  0
  7  8  1  0
  8  9  1  0
  9 10  1  0
 10 11  2  0
 11 12  1  0
 12 13  2  0
 13 14  1  0
 14 15  2  0
 15 16  1  0
 13 17  1  0
 12 18  1  0
 11 19  1  0
  9 20  1  0
 20 21  1  0
 21 22  1  0
 22 23  1  0
 23 24  1  0
 23 25  1  0
 22 26  1  0
 22 27  1  0
 21 28  1  0
 21 29  1  0
 20 30  1  0
 20 31  1  0
  8 32  1  0
  8 33  1  0
  7 34  1  0
  7 35  1  0
  6 36  2  0
  5 37  1  0
  4 38  1  0
  3 39  1  0
  1 40  1  0
  1 41  1  0
 36  2  1  0
 23  9  1  0
 15 10  1  0
M  CHG  1   8   1
M  END
>  <plip>  (1) 
-0.034482758620689655

>  <filename>  (1) 
[H][c]1[n][c]([H])[c]([C]2([N+]([H])([H])[C]([H])([H])[c]3[n][c]([N]([H])[H])[c]([H])[c]([H])[c]3[H])[C]([H])([H])[C]([H])([H])[C]([H])([H])[C]2([H])[H])[c]([H])[c]1[H]

$$$$
