
     RDKit          3D

 52 55  0  0  0  0  0  0  0  0999 V2000
    6.5144   -3.0337   20.7811 C   0  0  0  0  0  0  0  0  0  0  0  0
    6.6480   -1.8251   21.6255 N   0  0  0  0  0  4  0  0  0  0  0  0
    7.1916   -2.0823   23.0082 C   0  0  0  0  0  0  0  0  0  0  0  0
    8.0318   -0.8395   23.3564 C   0  0  0  0  0  0  0  0  0  0  0  0
    7.8647    0.1419   22.1804 C   0  0  1  0  0  0  0  0  0  0  0  0
    9.0881    0.9795   21.8712 C   0  0  0  0  0  0  0  0  0  0  0  0
    9.4030    1.8582   23.0160 N   0  0  0  0  0  4  0  0  0  0  0  0
   10.3607    2.9443   22.7018 C   0  0  0  0  0  0  0  0  0  0  0  0
   11.5678    2.9494   23.6490 C   0  0  0  0  0  0  0  0  0  0  0  0
   12.4612    4.1459   23.3312 C   0  0  0  0  0  0  0  0  0  0  0  0
   11.6852    5.4552   23.5247 C   0  0  0  0  0  0  0  0  0  0  0  0
   10.3148    5.4607   22.8685 C   0  0  0  0  0  0  0  0  0  0  0  0
    9.8502    6.6613   22.4858 N   0  0  0  0  0  0  0  0  0  0  0  0
    8.6428    6.7041   21.9082 C   0  0  0  0  0  0  0  0  0  0  0  0
    7.8175    5.5930   21.7264 C   0  0  0  0  0  0  0  0  0  0  0  0
    8.2927    4.3569   22.1494 C   0  0  0  0  0  0  0  0  0  0  0  0
    9.5992    4.2616   22.6649 C   0  0  0  0  0  0  0  0  0  0  0  0
    7.6628    3.4782   22.0218 H   0  0  0  0  0  0  0  0  0  0  0  0
    6.8589    5.7186   21.2303 H   0  0  0  0  0  0  0  0  0  0  0  0
    8.2958    7.6652   21.5487 H   0  0  0  0  0  0  0  0  0  0  0  0
   12.2531    6.3106   23.1525 H   0  0  0  0  0  0  0  0  0  0  0  0
   11.5322    5.6453   24.5918 H   0  0  0  0  0  0  0  0  0  0  0  0
   12.7762    4.0865   22.2815 H   0  0  0  0  0  0  0  0  0  0  0  0
   13.3913    4.1327   23.9114 H   0  0  0  0  0  0  0  0  0  0  0  0
   11.2042    2.9814   24.6806 H   0  0  0  0  0  0  0  0  0  0  0  0
   12.1135    2.0074   23.5310 H   0  0  0  0  0  0  0  0  0  0  0  0
   10.7544    2.7455   21.6937 H   0  0  0  0  0  0  0  0  0  0  0  0
    8.5434    2.3753   23.3372 H   0  0  0  0  0  0  0  0  0  0  0  0
    9.7581    1.2913   23.8281 H   0  0  0  0  0  0  0  0  0  0  0  0
    9.9349    0.3112   21.6337 H   0  0  0  0  0  0  0  0  0  0  0  0
    8.9361    1.5856   20.9651 H   0  0  0  0  0  0  0  0  0  0  0  0
    7.4669   -0.7187   20.9822 C   0  0  2  0  0  0  0  0  0  0  0  0
    6.6786   -0.0191   19.9014 C   0  0  0  0  0  0  0  0  0  0  0  0
    5.4508    0.6291   20.1327 C   0  0  0  0  0  0  0  0  0  0  0  0
    4.8344    1.3010   19.0749 C   0  0  0  0  0  0  0  0  0  0  0  0
    5.4547    1.2908   17.8202 C   0  0  0  0  0  0  0  0  0  0  0  0
    6.6017    0.6465   17.5694 N   0  0  0  0  0  0  0  0  0  0  0  0
    7.1816    0.0044   18.5899 C   0  0  0  0  0  0  0  0  0  0  0  0
    8.1048   -0.5254   18.3509 H   0  0  0  0  0  0  0  0  0  0  0  0
    5.0022    1.8114   16.9769 H   0  0  0  0  0  0  0  0  0  0  0  0
    3.8944    1.8288   19.2015 H   0  0  0  0  0  0  0  0  0  0  0  0
    4.9845    0.6202   21.1223 H   0  0  0  0  0  0  0  0  0  0  0  0
    8.3589   -1.1819   20.5393 H   0  0  0  0  0  0  0  0  0  0  0  0
    7.0234    0.8112   22.4047 H   0  0  0  0  0  0  0  0  0  0  0  0
    7.6986   -0.3916   24.2977 H   0  0  0  0  0  0  0  0  0  0  0  0
    9.0831   -1.1207   23.5024 H   0  0  0  0  0  0  0  0  0  0  0  0
    6.3686   -2.2417   23.7131 H   0  0  0  0  0  0  0  0  0  0  0  0
    7.8000   -2.9928   22.9953 H   0  0  0  0  0  0  0  0  0  0  0  0
    5.7141   -1.3630   21.7312 H   0  0  0  0  0  0  0  0  0  0  0  0
    5.8402   -3.7730   21.2258 H   0  0  0  0  0  0  0  0  0  0  0  0
    7.4967   -3.5146   20.6529 H   0  0  0  0  0  0  0  0  0  0  0  0
    6.1503   -2.7644   19.7851 H   0  0  0  0  0  0  0  0  0  0  0  0
  1  2  1  0
  2  3  1  0
  3  4  1  0
  4  5  1  0
  5  6  1  0
  6  7  1  0
  7  8  1  0
  8  9  1  0
  9 10  1  0
 10 11  1  0
 11 12  1  0
 12 13  2  0
 13 14  1  0
 14 15  2  0
 15 16  1  0
 16 17  2  0
 16 18  1  0
 15 19  1  0
 14 20  1  0
 11 21  1  0
 11 22  1  0
 10 23  1  0
 10 24  1  0
  9 25  1  0
  9 26  1  0
  8 27  1  0
  7 28  1  0
  7 29  1  0
  6 30  1  0
  6 31  1  0
  5 32  1  0
 32 33  1  0
 33 34  2  0
 34 35  1  0
 35 36  2  0
 36 37  1  0
 37 38  2  0
 38 39  1  0
 36 40  1  0
 35 41  1  0
 34 42  1  0
 32 43  1  6
  5 44  1  1
  4 45  1  0
  4 46  1  0
  3 47  1  0
  3 48  1  0
  2 49  1  0
  1 50  1  0
  1 51  1  0
  1 52  1  0
 32  2  1  0
 38 33  1  0
 17  8  1  0
 17 12  1  0
M  CHG  2   2   1   7   1
M  END
>  <plip>  (1) 
-0.10714285714285714

>  <filename>  (1) 
[H][c]1[n][c]2[c]([c]([H])[c]1[H])[C]([H])([N+]([H])([H])[C]([H])([H])[C@]1([H])[C]([H])([H])[C]([H])([H])[N+]([H])([C]([H])([H])[H])[C@@]1([H])[c]1[c]([H])[n][c]([H])[c]([H])[c]1[H])[C]([H])([H])[C]([H])([H])[C]2([H])[H]

$$$$
