
     RDKit          3D

 23 24  0  0  0  0  0  0  0  0999 V2000
    4.9280    1.8195   17.0008 H   0  0  0  0  0  0  0  0  0  0  0  0
    5.3947    1.2961   17.8335 C   0  0  0  0  0  0  0  0  0  0  0  0
    6.5506    0.6657   17.5639 N   0  0  0  0  0  0  0  0  0  0  0  0
    7.1705    0.0316   18.5628 C   0  0  0  0  0  0  0  0  0  0  0  0
    8.1355   -0.4242   18.3443 H   0  0  0  0  0  0  0  0  0  0  0  0
    6.6518   -0.0466   19.8815 C   0  0  0  0  0  0  0  0  0  0  0  0
    7.3316   -0.7351   20.9111 N   0  0  0  0  0  0  0  0  0  0  0  0
    8.7114   -0.7072   21.0293 C   0  0  0  0  0  0  0  0  0  0  0  0
    9.4941   -0.0937   20.3359 O   0  0  0  0  0  0  0  0  0  0  0  0
    9.0087   -1.5463   22.0937 N   0  0  0  0  0  0  0  0  0  0  0  0
   10.2791   -1.9857   22.4517 N   0  0  0  0  0  0  0  0  0  0  0  0
   11.4038   -1.7022   22.0543 C   0  0  0  0  0  0  0  0  0  0  0  0
   12.9674   -1.6215   21.8803 S   0  0  0  0  0  0  0  0  0  0  0  0
    7.8711   -2.1568   22.7211 C   0  0  0  0  0  0  0  0  0  0  0  0
    7.9067   -3.2417   22.5887 H   0  0  0  0  0  0  0  0  0  0  0  0
    7.8846   -1.9364   23.7913 H   0  0  0  0  0  0  0  0  0  0  0  0
    6.6890   -1.4822   21.9937 C   0  0  0  0  0  0  0  0  0  0  0  0
    5.9614   -2.1905   21.5803 H   0  0  0  0  0  0  0  0  0  0  0  0
    6.1505   -0.8080   22.6730 H   0  0  0  0  0  0  0  0  0  0  0  0
    5.4456    0.6109   20.1431 C   0  0  0  0  0  0  0  0  0  0  0  0
    5.0470    0.6021   21.1546 H   0  0  0  0  0  0  0  0  0  0  0  0
    4.8094    1.2941   19.1020 C   0  0  0  0  0  0  0  0  0  0  0  0
    3.8827    1.8308   19.2705 H   0  0  0  0  0  0  0  0  0  0  0  0
  1  2  1  0
  2  3  2  0
  3  4  1  0
  4  5  1  0
  4  6  2  0
  6  7  1  0
  7  8  1  0
  8  9  2  0
  8 10  1  0
 10 11  1  0
 11 12  2  0
 12 13  2  0
 10 14  1  0
 14 15  1  0
 14 16  1  0
 14 17  1  0
 17 18  1  0
 17 19  1  0
  6 20  1  0
 20 21  1  0
 20 22  2  0
 22 23  1  0
 22  2  1  0
 17  7  1  0
M  END
>  <plip>  (1) 
-0.03571428571428571

>  <filename>  (1) 
[H][c]1[n][c]([H])[c]([N]2[C](=[O])[N]([N]=[C]=[S])[C]([H])([H])[C]2([H])[H])[c]([H])[c]1[H]

$$$$
