
     RDKit          3D

 39 40  0  0  0  0  0  0  0  0999 V2000
    8.7476   -1.5127   25.6383 C   0  0  0  0  0  0  0  0  0  0  0  0
    7.7509   -1.0137   24.6825 N   0  0  0  0  0  0  0  0  0  0  0  0
    6.5625   -0.3424   25.2299 C   0  0  0  0  0  0  0  0  0  0  0  0
    6.8339    0.9519   25.9929 C   0  0  0  0  0  0  0  0  0  0  0  0
    7.8405    1.8499   25.6044 C   0  0  0  0  0  0  0  0  0  0  0  0
    8.0524    3.0386   26.3033 C   0  0  0  0  0  0  0  0  0  0  0  0
    7.2620    3.3777   27.4172 C   0  0  0  0  0  0  0  0  0  0  0  0
    7.5124    4.6865   28.1211 C   0  0  0  0  0  0  0  0  0  0  0  0
    8.1000    5.6345   27.6269 O   0  0  0  0  0  0  0  0  0  0  0  0
    7.0438    4.8170   29.3872 N   0  0  0  0  0  0  0  0  0  0  0  0
    6.7890    4.0370   29.9601 H   0  0  0  0  0  0  0  0  0  0  0  0
    7.3057    5.7132   29.7602 H   0  0  0  0  0  0  0  0  0  0  0  0
    6.2359    2.4890   27.7951 C   0  0  0  0  0  0  0  0  0  0  0  0
    6.0306    1.2978   27.0972 C   0  0  0  0  0  0  0  0  0  0  0  0
    5.2293    0.6313   27.4122 H   0  0  0  0  0  0  0  0  0  0  0  0
    5.5619    2.7274   28.6175 H   0  0  0  0  0  0  0  0  0  0  0  0
    8.8217    3.7324   25.9720 H   0  0  0  0  0  0  0  0  0  0  0  0
    8.4419    1.6347   24.7257 H   0  0  0  0  0  0  0  0  0  0  0  0
    5.8647   -0.1522   24.4088 H   0  0  0  0  0  0  0  0  0  0  0  0
    6.0596   -1.0314   25.9257 H   0  0  0  0  0  0  0  0  0  0  0  0
    7.9732   -1.2605   23.3432 C   0  0  0  0  0  0  0  0  0  0  0  0
    8.6366   -2.2207   22.9702 O   0  0  0  0  0  0  0  0  0  0  0  0
    7.3710   -0.2213   22.2752 C   0  0  0  0  0  0  0  0  0  0  0  0
    6.9898    0.8909   22.6087 O   0  0  0  0  0  0  0  0  0  0  0  0
    7.3423   -0.6634   20.9725 N   0  0  0  0  0  0  0  0  0  0  0  0
    6.6668   -0.0004   19.9036 C   0  0  0  0  0  0  0  0  0  0  0  0
    5.4489    0.6488   20.1471 C   0  0  0  0  0  0  0  0  0  0  0  0
    4.8062    1.3003   19.0891 C   0  0  0  0  0  0  0  0  0  0  0  0
    5.4002    1.2899   17.8234 C   0  0  0  0  0  0  0  0  0  0  0  0
    6.5639    0.6681   17.5668 N   0  0  0  0  0  0  0  0  0  0  0  0
    7.1752    0.0435   18.5841 C   0  0  0  0  0  0  0  0  0  0  0  0
    8.1269   -0.4330   18.3503 H   0  0  0  0  0  0  0  0  0  0  0  0
    4.9308    1.8001   16.9843 H   0  0  0  0  0  0  0  0  0  0  0  0
    3.8744    1.8361   19.2464 H   0  0  0  0  0  0  0  0  0  0  0  0
    5.0335    0.6480   21.1507 H   0  0  0  0  0  0  0  0  0  0  0  0
    7.8760   -1.5042   20.7880 H   0  0  0  0  0  0  0  0  0  0  0  0
    8.4324   -1.2205   26.6461 H   0  0  0  0  0  0  0  0  0  0  0  0
    8.8506   -2.6037   25.5756 H   0  0  0  0  0  0  0  0  0  0  0  0
    9.7315   -1.0662   25.4361 H   0  0  0  0  0  0  0  0  0  0  0  0
  1  2  1  0
  2  3  1  0
  3  4  1  0
  4  5  2  0
  5  6  1  0
  6  7  2  0
  7  8  1  0
  8  9  2  0
  8 10  1  0
 10 11  1  0
 10 12  1  0
  7 13  1  0
 13 14  2  0
 14 15  1  0
 13 16  1  0
  6 17  1  0
  5 18  1  0
  3 19  1  0
  3 20  1  0
  2 21  1  0
 21 22  2  0
 21 23  1  0
 23 24  2  0
 23 25  1  0
 25 26  1  0
 26 27  2  0
 27 28  1  0
 28 29  2  0
 29 30  1  0
 30 31  2  0
 31 32  1  0
 29 33  1  0
 28 34  1  0
 27 35  1  0
 25 36  1  0
  1 37  1  0
  1 38  1  0
  1 39  1  0
 14  4  1  0
 31 26  1  0
M  END
>  <plip>  (1) 
-0.07142857142857142

>  <filename>  (1) 
[H][c]1[n][c]([H])[c]([N]([H])[C](=[O])[C](=[O])[N]([C]([H])([H])[H])[C]([H])([H])[c]2[c]([H])[c]([H])[c]([C](=[O])[N]([H])[H])[c]([H])[c]2[H])[c]([H])[c]1[H]

$$$$
