
     RDKit          3D

 51 53  0  0  0  0  0  0  0  0999 V2000
    8.0089    1.9087   23.5946 C   0  0  0  0  0  0  0  0  0  0  0  0
    7.3857    1.1979   22.5389 O   0  0  0  0  0  0  0  0  0  0  0  0
    8.1892    0.2297   21.9280 C   0  0  0  0  0  0  0  0  0  0  0  0
    9.1875    0.8531   21.1489 O   0  0  0  0  0  0  0  0  0  0  0  0
   10.5246    0.4382   21.3533 C   0  0  0  0  0  0  0  0  0  0  0  0
   11.1658    1.2516   20.9897 H   0  0  0  0  0  0  0  0  0  0  0  0
   10.7486   -0.4725   20.7701 H   0  0  0  0  0  0  0  0  0  0  0  0
   10.7614    0.2488   22.4104 H   0  0  0  0  0  0  0  0  0  0  0  0
    7.3491   -0.7094   21.0021 C   0  0  0  0  0  0  0  0  0  0  0  0
    6.4902   -1.5790   21.7986 N   0  0  0  0  0  0  0  0  0  0  0  0
    5.9693   -2.7532   21.3503 C   0  0  0  0  0  0  0  0  0  0  0  0
    6.0353   -3.1125   20.1862 O   0  0  0  0  0  0  0  0  0  0  0  0
    5.3713   -3.6250   22.4481 C   0  0  0  0  0  0  0  0  0  0  0  0
    6.4423   -4.5478   23.1111 C   0  0  0  0  0  0  0  0  0  0  0  0
    7.6309   -3.7913   23.6713 C   0  0  0  0  0  0  0  0  0  0  0  0
    8.8025   -3.7254   22.9391 C   0  0  0  0  0  0  0  0  0  0  0  0
    9.8900   -2.8983   23.2961 C   0  0  0  0  0  0  0  0  0  0  0  0
    9.7619   -2.1002   24.4054 C   0  0  0  0  0  0  0  0  0  0  0  0
   10.6897   -1.1537   24.6385 F   0  0  0  0  0  0  0  0  0  0  0  0
    8.6292   -2.1571   25.2703 C   0  0  0  0  0  0  0  0  0  0  0  0
    8.5276   -1.3751   26.4618 C   0  0  0  0  0  0  0  0  0  0  0  0
    7.3765   -1.4049   27.2172 C   0  0  0  0  0  0  0  0  0  0  0  0
    6.2995   -2.2438   26.8522 C   0  0  0  0  0  0  0  0  0  0  0  0
    6.3763   -3.0354   25.7277 C   0  0  0  0  0  0  0  0  0  0  0  0
    7.5414   -3.0206   24.8918 C   0  0  0  0  0  0  0  0  0  0  0  0
    5.5347   -3.6647   25.4520 H   0  0  0  0  0  0  0  0  0  0  0  0
    5.3968   -2.2588   27.4567 H   0  0  0  0  0  0  0  0  0  0  0  0
    7.2806   -0.7596   28.0846 H   0  0  0  0  0  0  0  0  0  0  0  0
    9.3766   -0.7682   26.7649 H   0  0  0  0  0  0  0  0  0  0  0  0
   10.8024   -2.8685   22.7075 H   0  0  0  0  0  0  0  0  0  0  0  0
    8.8596   -4.2908   22.0162 H   0  0  0  0  0  0  0  0  0  0  0  0
    5.9573   -5.1527   23.8884 H   0  0  0  0  0  0  0  0  0  0  0  0
    6.7942   -5.2660   22.3561 H   0  0  0  0  0  0  0  0  0  0  0  0
    4.9065   -2.9913   23.2130 H   0  0  0  0  0  0  0  0  0  0  0  0
    4.5867   -4.2310   21.9890 H   0  0  0  0  0  0  0  0  0  0  0  0
    6.2872   -1.3151   22.7499 H   0  0  0  0  0  0  0  0  0  0  0  0
    6.5838   -0.0033   19.8897 C   0  0  0  0  0  0  0  0  0  0  0  0
    5.3747    0.6653   20.1104 C   0  0  0  0  0  0  0  0  0  0  0  0
    4.7719    1.3238   19.0382 C   0  0  0  0  0  0  0  0  0  0  0  0
    5.3975    1.2950   17.7866 C   0  0  0  0  0  0  0  0  0  0  0  0
    6.5481    0.6526   17.5487 N   0  0  0  0  0  0  0  0  0  0  0  0
    7.1152    0.0262   18.5909 C   0  0  0  0  0  0  0  0  0  0  0  0
    8.0572   -0.4794   18.3751 H   0  0  0  0  0  0  0  0  0  0  0  0
    4.9633    1.8326   16.9459 H   0  0  0  0  0  0  0  0  0  0  0  0
    3.8490    1.8747   19.1656 H   0  0  0  0  0  0  0  0  0  0  0  0
    4.9185    0.6811   21.1026 H   0  0  0  0  0  0  0  0  0  0  0  0
    8.1100   -1.3398   20.5264 H   0  0  0  0  0  0  0  0  0  0  0  0
    8.6382   -0.4126   22.7080 H   0  0  0  0  0  0  0  0  0  0  0  0
    7.2983    2.6717   23.9233 H   0  0  0  0  0  0  0  0  0  0  0  0
    8.2333    1.2476   24.4483 H   0  0  0  0  0  0  0  0  0  0  0  0
    8.9335    2.4054   23.2694 H   0  0  0  0  0  0  0  0  0  0  0  0
  1  2  1  0
  2  3  1  0
  3  4  1  0
  4  5  1  0
  5  6  1  0
  5  7  1  0
  5  8  1  0
  3  9  1  0
  9 10  1  0
 10 11  1  0
 11 12  2  0
 11 13  1  0
 13 14  1  0
 14 15  1  0
 15 16  2  0
 16 17  1  0
 17 18  2  0
 18 19  1  0
 18 20  1  0
 20 21  2  0
 21 22  1  0
 22 23  2  0
 23 24  1  0
 24 25  2  0
 24 26  1  0
 23 27  1  0
 22 28  1  0
 21 29  1  0
 17 30  1  0
 16 31  1  0
 14 32  1  0
 14 33  1  0
 13 34  1  0
 13 35  1  0
 10 36  1  0
  9 37  1  0
 37 38  2  0
 38 39  1  0
 39 40  2  0
 40 41  1  0
 41 42  2  0
 42 43  1  0
 40 44  1  0
 39 45  1  0
 38 46  1  0
  9 47  1  0
  3 48  1  0
  1 49  1  0
  1 50  1  0
  1 51  1  0
 25 15  1  0
 42 37  1  0
 25 20  1  0
M  END
>  <plip>  (1) 
-0.1724137931034483

>  <filename>  (1) 
[H][c]1[n][c]([H])[c]([C]([H])([N]([H])[C](=[O])[C]([H])([H])[C]([H])([H])[c]2[c]([H])[c]([H])[c]([F])[c]3[c]([H])[c]([H])[c]([H])[c]([H])[c]23)[C]([H])([O][C]([H])([H])[H])[O][C]([H])([H])[H])[c]([H])[c]1[H]

$$$$
