
     RDKit          3D

 32 34  0  0  0  0  0  0  0  0999 V2000
    8.6048   -2.4878   24.7783 F   0  0  0  0  0  0  0  0  0  0  0  0
    7.7475   -1.5434   24.2411 C   0  0  0  0  0  0  0  0  0  0  0  0
    7.9280   -0.1967   24.9881 C   0  0  0  0  0  0  0  0  0  0  0  0
    9.3077    0.3818   24.7688 C   0  0  0  0  0  0  0  0  0  0  0  0
    9.5376    1.2759   23.7111 C   0  0  0  0  0  0  0  0  0  0  0  0
   10.8445    1.5659   23.3030 C   0  0  0  0  0  0  0  0  0  0  0  0
   11.9301    0.9830   23.9628 C   0  0  0  0  0  0  0  0  0  0  0  0
   11.7073    0.1659   25.0758 C   0  0  0  0  0  0  0  0  0  0  0  0
   10.4004   -0.1141   25.4940 C   0  0  0  0  0  0  0  0  0  0  0  0
   10.2192   -0.7421   26.3689 H   0  0  0  0  0  0  0  0  0  0  0  0
   12.5467   -0.2616   25.6085 H   0  0  0  0  0  0  0  0  0  0  0  0
   12.9537    1.1427   23.6262 H   0  0  0  0  0  0  0  0  0  0  0  0
   11.0248    2.2187   22.4572 H   0  0  0  0  0  0  0  0  0  0  0  0
    8.6907    1.7142   23.1869 H   0  0  0  0  0  0  0  0  0  0  0  0
    7.7446   -0.3834   26.0519 H   0  0  0  0  0  0  0  0  0  0  0  0
    7.1570    0.4996   24.6410 H   0  0  0  0  0  0  0  0  0  0  0  0
    7.9457   -1.4639   22.7521 C   0  0  0  0  0  0  0  0  0  0  0  0
    8.8429   -1.9239   21.9486 N   0  0  0  0  0  0  0  0  0  0  0  0
    8.5008   -1.4755   20.6775 N   0  0  0  0  0  0  0  0  0  0  0  0
    7.4141   -0.7818   20.8162 C   0  0  0  0  0  0  0  0  0  0  0  0
    6.6440   -0.0490   19.8219 C   0  0  0  0  0  0  0  0  0  0  0  0
    5.4445    0.6309   20.0927 C   0  0  0  0  0  0  0  0  0  0  0  0
    4.8435    1.3230   19.0439 C   0  0  0  0  0  0  0  0  0  0  0  0
    5.4628    1.3186   17.7850 C   0  0  0  0  0  0  0  0  0  0  0  0
    6.6048    0.6654   17.5230 N   0  0  0  0  0  0  0  0  0  0  0  0
    7.1749    0.0004   18.5283 C   0  0  0  0  0  0  0  0  0  0  0  0
    8.1059   -0.5234   18.3161 H   0  0  0  0  0  0  0  0  0  0  0  0
    5.0262    1.8618   16.9490 H   0  0  0  0  0  0  0  0  0  0  0  0
    3.9251    1.8848   19.1829 H   0  0  0  0  0  0  0  0  0  0  0  0
    5.0025    0.6344   21.0919 H   0  0  0  0  0  0  0  0  0  0  0  0
    6.9950   -0.7422   22.1025 O   0  0  0  0  0  0  0  0  0  0  0  0
    6.7222   -1.9021   24.3764 H   0  0  0  0  0  0  0  0  0  0  0  0
  1  2  1  0
  2  3  1  0
  3  4  1  0
  4  5  2  0
  5  6  1  0
  6  7  2  0
  7  8  1  0
  8  9  2  0
  9 10  1  0
  8 11  1  0
  7 12  1  0
  6 13  1  0
  5 14  1  0
  3 15  1  0
  3 16  1  0
  2 17  1  0
 17 18  2  0
 18 19  1  0
 19 20  2  0
 20 21  1  0
 21 22  2  0
 22 23  1  0
 23 24  2  0
 24 25  1  0
 25 26  2  0
 26 27  1  0
 24 28  1  0
 23 29  1  0
 22 30  1  0
 20 31  1  0
  2 32  1  0
  9  4  1  0
 31 17  1  0
 26 21  1  0
M  END
>  <plip>  (1) 
-0.06666666666666667

>  <filename>  (1) 
[H][c]1[n][c]([H])[c](-[c]2[n][n][c]([C]([H])([F])[C]([H])([H])[c]3[c]([H])[c]([H])[c]([H])[c]([H])[c]3[H])[o]2)[c]([H])[c]1[H]

$$$$
