
     RDKit          3D

 22 23  0  0  0  0  0  0  0  0999 V2000
    4.3817   -4.3033   23.8245 H   0  0  0  0  0  0  0  0  0  0  0  0
    4.4158   -3.7566   23.0176 O   0  0  0  0  0  0  0  0  0  0  0  0
    5.6913   -3.2106   23.0332 N   0  0  0  0  0  0  0  0  0  0  0  0
    5.8954   -2.4358   22.0326 C   0  0  0  0  0  0  0  0  0  0  0  0
    5.1497   -2.2849   21.2479 H   0  0  0  0  0  0  0  0  0  0  0  0
    7.1607   -1.7499   21.8534 C   0  0  0  0  0  0  0  0  0  0  0  0
    7.5274   -0.8243   20.9010 C   0  0  0  0  0  0  0  0  0  0  0  0
    6.7210   -0.1382   19.9076 C   0  0  0  0  0  0  0  0  0  0  0  0
    7.2652   -0.0052   18.6228 C   0  0  0  0  0  0  0  0  0  0  0  0
    8.2332   -0.4547   18.4100 H   0  0  0  0  0  0  0  0  0  0  0  0
    6.6623    0.6377   17.6247 N   0  0  0  0  0  0  0  0  0  0  0  0
    5.4882    1.2300   17.8971 C   0  0  0  0  0  0  0  0  0  0  0  0
    5.0372    1.7621   17.0632 H   0  0  0  0  0  0  0  0  0  0  0  0
    4.8721    1.1883   19.1534 C   0  0  0  0  0  0  0  0  0  0  0  0
    3.9353    1.7150   19.3027 H   0  0  0  0  0  0  0  0  0  0  0  0
    5.4936    0.4800   20.1836 C   0  0  0  0  0  0  0  0  0  0  0  0
    5.0536    0.4181   21.1807 H   0  0  0  0  0  0  0  0  0  0  0  0
    8.8529   -0.5239   21.0263 N   0  0  0  0  0  0  0  0  0  0  0  0
    9.2900   -1.2104   22.0471 C   0  0  0  0  0  0  0  0  0  0  0  0
   10.3018   -1.1660   22.4311 H   0  0  0  0  0  0  0  0  0  0  0  0
    8.3158   -1.9937   22.5713 N   0  0  0  0  0  0  0  0  0  0  0  0
    8.4001   -2.6070   23.3637 H   0  0  0  0  0  0  0  0  0  0  0  0
  1  2  1  0
  2  3  1  0
  3  4  2  3
  4  5  1  0
  4  6  1  0
  6  7  2  0
  7  8  1  0
  8  9  2  0
  9 10  1  0
  9 11  1  0
 11 12  2  0
 12 13  1  0
 12 14  1  0
 14 15  1  0
 14 16  2  0
 16 17  1  0
  7 18  1  0
 18 19  2  0
 19 20  1  0
 19 21  1  0
 21 22  1  0
 21  6  1  0
 16  8  1  0
M  END
>  <plip>  (1) 
-0.06896551724137931

>  <filename>  (1) 
[H][O][N]=[C]([H])[c]1[c](-[c]2[c]([H])[n][c]([H])[c]([H])[c]2[H])[n][c]([H])[n]1[H]

$$$$
