
     RDKit          3D

 25 26  0  0  0  0  0  0  0  0999 V2000
    4.9157    1.7868   16.9931 H   0  0  0  0  0  0  0  0  0  0  0  0
    5.3974    1.2963   17.8352 C   0  0  0  0  0  0  0  0  0  0  0  0
    6.5604    0.6834   17.5690 N   0  0  0  0  0  0  0  0  0  0  0  0
    7.1605    0.0489   18.5794 C   0  0  0  0  0  0  0  0  0  0  0  0
    8.1199   -0.4243   18.3769 H   0  0  0  0  0  0  0  0  0  0  0  0
    6.6277   -0.0318   19.8749 C   0  0  0  0  0  0  0  0  0  0  0  0
    7.5880   -0.8401   21.1298 S   0  0  0  0  0  0  0  0  0  0  0  0
    8.7724    0.7549   21.7467 S   0  0  0  0  0  0  0  0  0  0  0  0
    7.7298    1.4445   22.9835 C   0  0  0  0  0  0  0  0  0  0  0  0
    7.8252    0.8877   24.1900 N   0  0  0  0  0  0  0  0  0  0  0  0
    7.0171    1.3404   25.1504 C   0  0  0  0  0  0  0  0  0  0  0  0
    7.1453    0.7126   26.5034 C   0  0  0  0  0  0  0  0  0  0  0  0
    7.9348   -0.0402   26.5263 H   0  0  0  0  0  0  0  0  0  0  0  0
    6.2065    0.2413   26.8015 H   0  0  0  0  0  0  0  0  0  0  0  0
    7.3654    1.4693   27.2595 H   0  0  0  0  0  0  0  0  0  0  0  0
    6.0828    2.3649   24.9248 C   0  0  0  0  0  0  0  0  0  0  0  0
    5.4645    2.6922   25.7474 H   0  0  0  0  0  0  0  0  0  0  0  0
    5.9817    2.9409   23.6610 C   0  0  0  0  0  0  0  0  0  0  0  0
    5.2597    3.7364   23.4623 H   0  0  0  0  0  0  0  0  0  0  0  0
    6.8330    2.4805   22.6586 C   0  0  0  0  0  0  0  0  0  0  0  0
    6.7863    2.8633   21.6442 H   0  0  0  0  0  0  0  0  0  0  0  0
    5.4182    0.6194   20.1517 C   0  0  0  0  0  0  0  0  0  0  0  0
    5.0075    0.6188   21.1646 H   0  0  0  0  0  0  0  0  0  0  0  0
    4.7994    1.3075   19.1007 C   0  0  0  0  0  0  0  0  0  0  0  0
    3.8721    1.8479   19.2561 H   0  0  0  0  0  0  0  0  0  0  0  0
  1  2  1  0
  2  3  2  0
  3  4  1  0
  4  5  1  0
  4  6  2  0
  6  7  1  0
  7  8  1  0
  8  9  1  0
  9 10  2  0
 10 11  1  0
 11 12  1  0
 12 13  1  0
 12 14  1  0
 12 15  1  0
 11 16  2  0
 16 17  1  0
 16 18  1  0
 18 19  1  0
 18 20  2  0
 20 21  1  0
  6 22  1  0
 22 23  1  0
 22 24  2  0
 24 25  1  0
 24  2  1  0
 20  9  1  0
M  END
>  <plip>  (1) 
-0.0

>  <filename>  (1) 
[H][c]1[n][c]([H])[c]([S][S][c]2[n][c]([C]([H])([H])[H])[c]([H])[c]([H])[c]2[H])[c]([H])[c]1[H]

$$$$
