
     RDKit          3D

 34 37  0  0  0  0  0  0  0  0999 V2000
    4.8867    1.6583   16.7329 H   0  0  0  0  0  0  0  0  0  0  0  0
    5.3648    1.2155   17.6022 C   0  0  0  0  0  0  0  0  0  0  0  0
    6.5414    0.6091   17.3749 N   0  0  0  0  0  0  0  0  0  0  0  0
    7.1923    0.1135   18.4296 C   0  0  0  0  0  0  0  0  0  0  0  0
    8.1492   -0.3666   18.2303 H   0  0  0  0  0  0  0  0  0  0  0  0
    6.7237    0.2065   19.7530 C   0  0  0  0  0  0  0  0  0  0  0  0
    7.5487   -0.2123   20.8158 N   0  0  0  0  0  0  0  0  0  0  0  0
    8.3767   -1.3335   20.8039 C   0  0  0  0  0  0  0  0  0  0  0  0
    8.2003   -2.0937   20.0750 H   0  0  0  0  0  0  0  0  0  0  0  0
    9.1787   -1.3160   21.8965 C   0  0  0  0  0  0  0  0  0  0  0  0
    9.9605   -1.9553   22.2654 H   0  0  0  0  0  0  0  0  0  0  0  0
    8.8150   -0.1877   22.5927 N   0  0  0  0  0  0  0  0  0  0  0  0
    9.1879    0.3244   23.7799 N   0  0  0  0  0  0  0  0  0  0  0  0
    8.3445    1.3441   23.9046 C   0  0  0  0  0  0  0  0  0  0  0  0
    8.4213    2.1706   25.0084 N   0  0  0  0  0  0  0  0  0  0  0  0
    7.4917    2.5236   25.1908 H   0  0  0  0  0  0  0  0  0  0  0  0
    9.0088    1.5889   26.2125 C   0  0  0  0  0  0  0  0  0  0  0  0
   10.0171    1.2092   25.9864 H   0  0  0  0  0  0  0  0  0  0  0  0
    9.1130    2.4171   26.9197 H   0  0  0  0  0  0  0  0  0  0  0  0
    8.1691    0.4689   26.7959 C   0  0  0  0  0  0  0  0  0  0  0  0
    6.5906    0.7960   27.4223 S   0  0  0  0  0  0  0  0  0  0  0  0
    6.2608   -0.8760   27.6157 C   0  0  0  0  0  0  0  0  0  0  0  0
    5.2706   -1.1633   27.9340 H   0  0  0  0  0  0  0  0  0  0  0  0
    7.3262   -1.6544   27.2836 C   0  0  0  0  0  0  0  0  0  0  0  0
    7.3291   -2.7383   27.3253 H   0  0  0  0  0  0  0  0  0  0  0  0
    8.4254   -0.8728   26.8105 C   0  0  0  0  0  0  0  0  0  0  0  0
    9.3561   -1.2936   26.4435 H   0  0  0  0  0  0  0  0  0  0  0  0
    7.4404    1.5147   22.8390 C   0  0  0  0  0  0  0  0  0  0  0  0
    6.6973    2.2921   22.7669 H   0  0  0  0  0  0  0  0  0  0  0  0
    7.8080    0.4827   21.9855 C   0  0  0  0  0  0  0  0  0  0  0  0
    5.4554    0.7638   19.9720 C   0  0  0  0  0  0  0  0  0  0  0  0
    5.0246    0.7816   20.9743 H   0  0  0  0  0  0  0  0  0  0  0  0
    4.7737    1.2867   18.8693 C   0  0  0  0  0  0  0  0  0  0  0  0
    3.8138    1.7775   18.9837 H   0  0  0  0  0  0  0  0  0  0  0  0
  1  2  1  0
  2  3  2  0
  3  4  1  0
  4  5  1  0
  4  6  2  0
  6  7  1  0
  7  8  1  0
  8  9  1  0
  8 10  2  0
 10 11  1  0
 10 12  1  0
 12 13  1  0
 13 14  2  0
 14 15  1  0
 15 16  1  0
 15 17  1  0
 17 18  1  0
 17 19  1  0
 17 20  1  0
 20 21  1  0
 21 22  1  0
 22 23  1  0
 22 24  2  0
 24 25  1  0
 24 26  1  0
 26 27  1  0
 14 28  1  0
 28 29  1  0
 28 30  2  0
  6 31  1  0
 31 32  1  0
 31 33  2  0
 33 34  1  0
 33  2  1  0
 30  7  1  0
 30 12  1  0
 26 20  2  0
M  END
>  <plip>  (1) 
-0.03571428571428571

>  <filename>  (1) 
[H][c]1[n][c]([H])[c](-[n]2[c]([H])[c]([H])[n]3[n][c]([N]([H])[C]([H])([H])[c]4[s][c]([H])[c]([H])[c]4[H])[c]([H])[c]23)[c]([H])[c]1[H]

$$$$
