
     RDKit          3D

 35 37  0  0  0  0  0  0  0  0999 V2000
   10.1897    1.0769   20.9935 H   0  0  0  0  0  0  0  0  0  0  0  0
    9.6569    0.3185   20.6893 O   0  0  0  0  0  0  0  0  0  0  0  0
    8.5974    0.2705   21.6428 C   0  0  2  0  0  0  0  0  0  0  0  0
    8.9397   -0.2375   22.5621 H   0  0  0  0  0  0  0  0  0  0  0  0
    7.4105   -0.5395   21.0650 C   0  0  0  0  0  0  0  0  0  0  0  0
    6.6750    0.2081   19.9589 C   0  0  0  0  0  0  0  0  0  0  0  0
    7.2266    0.2774   18.6635 C   0  0  0  0  0  0  0  0  0  0  0  0
    8.2034   -0.1603   18.4685 H   0  0  0  0  0  0  0  0  0  0  0  0
    6.6217    0.8366   17.6056 N   0  0  0  0  0  0  0  0  0  0  0  0
    5.4221    1.3950   17.8225 C   0  0  0  0  0  0  0  0  0  0  0  0
    4.9302    1.8177   16.9505 H   0  0  0  0  0  0  0  0  0  0  0  0
    4.8025    1.4355   19.0782 C   0  0  0  0  0  0  0  0  0  0  0  0
    3.8312    1.9013   19.1852 H   0  0  0  0  0  0  0  0  0  0  0  0
    5.4447    0.8436   20.1669 C   0  0  0  0  0  0  0  0  0  0  0  0
    4.9973    0.8496   21.1637 H   0  0  0  0  0  0  0  0  0  0  0  0
    6.5017   -1.2383   22.1299 C   0  0  0  0  0  0  0  0  0  0  0  0
    6.4853   -0.8367   23.1440 H   0  0  0  0  0  0  0  0  0  0  0  0
    5.4864   -1.3179   21.7369 H   0  0  0  0  0  0  0  0  0  0  0  0
    7.2312   -2.5847   21.9284 C   0  0  0  0  0  0  0  0  0  0  0  0
    7.9819   -2.8047   22.6944 H   0  0  0  0  0  0  0  0  0  0  0  0
    6.6029   -3.4723   21.7988 H   0  0  0  0  0  0  0  0  0  0  0  0
    7.8235   -1.9846   20.6428 C   0  0  0  0  0  0  0  0  0  0  0  0
    7.1907   -2.2590   19.7943 H   0  0  0  0  0  0  0  0  0  0  0  0
    8.8829   -2.1483   20.4283 H   0  0  0  0  0  0  0  0  0  0  0  0
    8.2764    1.7367   22.0227 C   0  0  2  0  0  0  0  0  0  0  0  0
    7.9205    2.2212   21.0991 H   0  0  0  0  0  0  0  0  0  0  0  0
    9.4893    2.4384   22.4854 N   0  0  0  0  0  0  0  0  0  0  0  0
    9.1299    3.1001   23.5050 C   0  0  0  0  0  0  0  0  0  0  0  0
    9.8787    3.9991   24.1963 N   0  0  0  0  0  0  0  0  0  0  0  0
   10.5652    4.3331   23.5389 H   0  0  0  0  0  0  0  0  0  0  0  0
    9.2350    4.7042   24.5003 H   0  0  0  0  0  0  0  0  0  0  0  0
    7.8800    2.9828   23.9719 O   0  0  0  0  0  0  0  0  0  0  0  0
    7.2589    1.9742   23.1533 C   0  0  0  0  0  0  0  0  0  0  0  0
    7.1032    1.0854   23.7739 H   0  0  0  0  0  0  0  0  0  0  0  0
    6.2889    2.3500   22.8031 H   0  0  0  0  0  0  0  0  0  0  0  0
  1  2  1  0
  2  3  1  0
  3  4  1  1
  3  5  1  0
  5  6  1  0
  6  7  2  0
  7  8  1  0
  7  9  1  0
  9 10  2  0
 10 11  1  0
 10 12  1  0
 12 13  1  0
 12 14  2  0
 14 15  1  0
  5 16  1  0
 16 17  1  0
 16 18  1  0
 16 19  1  0
 19 20  1  0
 19 21  1  0
 19 22  1  0
 22 23  1  0
 22 24  1  0
  3 25  1  0
 25 26  1  6
 25 27  1  0
 27 28  2  0
 28 29  1  0
 29 30  1  0
 29 31  1  0
 28 32  1  0
 32 33  1  0
 33 34  1  0
 33 35  1  0
 22  5  1  0
 33 25  1  0
 14  6  1  0
M  END
>  <plip>  (1) 
-0.10714285714285714

>  <filename>  (1) 
[H][O][C@]([H])([C]1([c]2[c]([H])[n][c]([H])[c]([H])[c]2[H])[C]([H])([H])[C]([H])([H])[C]1([H])[H])[C@]1([H])[N]=[C]([N]([H])[H])[O][C]1([H])[H]

$$$$
