
     RDKit          3D

 39 40  0  0  0  0  0  0  0  0999 V2000
    4.9657    1.6487   16.9429 H   0  0  0  0  0  0  0  0  0  0  0  0
    5.5338    1.2022   17.7569 C   0  0  0  0  0  0  0  0  0  0  0  0
    6.6438    0.5356   17.4047 N   0  0  0  0  0  0  0  0  0  0  0  0
    7.3843    0.0163   18.3864 C   0  0  0  0  0  0  0  0  0  0  0  0
    8.2829   -0.5184   18.0875 H   0  0  0  0  0  0  0  0  0  0  0  0
    7.0840    0.1514   19.7554 C   0  0  0  0  0  0  0  0  0  0  0  0
    8.1104   -0.3918   20.7151 C   0  0  0  0  0  0  0  0  0  0  0  0
    9.0024   -1.0911   20.2729 O   0  0  0  0  0  0  0  0  0  0  0  0
    8.0528   -0.0898   22.2655 C   0  0  0  0  0  0  0  0  0  0  0  0
    7.7074    1.3966   22.5461 C   0  0  0  0  0  0  0  0  0  0  0  0
    6.7981    1.8206   23.5359 C   0  0  0  0  0  0  0  0  0  0  0  0
    6.3076    1.0865   24.1706 H   0  0  0  0  0  0  0  0  0  0  0  0
    6.4808    3.1725   23.7364 C   0  0  0  0  0  0  0  0  0  0  0  0
    5.7892    3.4939   24.5076 H   0  0  0  0  0  0  0  0  0  0  0  0
    7.0832    4.1379   22.9221 C   0  0  0  0  0  0  0  0  0  0  0  0
    6.7675    5.5069   22.9772 N   0  0  0  0  0  0  0  0  0  0  0  0
    6.9903    6.0046   22.1353 H   0  0  0  0  0  0  0  0  0  0  0  0
    6.4447    6.2874   24.0579 C   0  0  0  0  0  0  0  0  0  0  0  0
    6.1755    5.8519   25.1572 O   0  0  0  0  0  0  0  0  0  0  0  0
    6.4992    7.7691   23.7345 C   0  0  0  0  0  0  0  0  0  0  0  0
    6.0110    7.9875   22.7792 H   0  0  0  0  0  0  0  0  0  0  0  0
    7.5435    8.0981   23.6746 H   0  0  0  0  0  0  0  0  0  0  0  0
    6.0098    8.3183   24.5374 H   0  0  0  0  0  0  0  0  0  0  0  0
    8.0318    3.7440   21.9689 C   0  0  0  0  0  0  0  0  0  0  0  0
    8.5034    4.5193   21.3746 H   0  0  0  0  0  0  0  0  0  0  0  0
    8.3701    2.4021   21.8140 C   0  0  0  0  0  0  0  0  0  0  0  0
    9.1576    2.1316   21.1112 H   0  0  0  0  0  0  0  0  0  0  0  0
    7.0301   -1.0867   22.8709 C   0  0  0  0  0  0  0  0  0  0  0  0
    6.9356   -0.9228   23.9509 H   0  0  0  0  0  0  0  0  0  0  0  0
    6.0405   -1.0150   22.4088 H   0  0  0  0  0  0  0  0  0  0  0  0
    7.3832   -2.1154   22.7381 H   0  0  0  0  0  0  0  0  0  0  0  0
    9.4289   -0.3946   22.9179 C   0  0  0  0  0  0  0  0  0  0  0  0
    9.3651   -0.2465   24.0019 H   0  0  0  0  0  0  0  0  0  0  0  0
    9.7149   -1.4342   22.7349 H   0  0  0  0  0  0  0  0  0  0  0  0
   10.2265    0.2494   22.5290 H   0  0  0  0  0  0  0  0  0  0  0  0
    5.8843    0.7938   20.1036 C   0  0  0  0  0  0  0  0  0  0  0  0
    5.5673    0.9154   21.1391 H   0  0  0  0  0  0  0  0  0  0  0  0
    5.1052    1.3325   19.0790 C   0  0  0  0  0  0  0  0  0  0  0  0
    4.2022    1.8876   19.3028 H   0  0  0  0  0  0  0  0  0  0  0  0
  1  2  1  0
  2  3  2  0
  3  4  1  0
  4  5  1  0
  4  6  2  0
  6  7  1  0
  7  8  2  0
  7  9  1  0
  9 10  1  0
 10 11  2  0
 11 12  1  0
 11 13  1  0
 13 14  1  0
 13 15  2  0
 15 16  1  0
 16 17  1  0
 16 18  1  0
 18 19  2  0
 18 20  1  0
 20 21  1  0
 20 22  1  0
 20 23  1  0
 15 24  1  0
 24 25  1  0
 24 26  2  0
 26 27  1  0
  9 28  1  0
 28 29  1  0
 28 30  1  0
 28 31  1  0
  9 32  1  0
 32 33  1  0
 32 34  1  0
 32 35  1  0
  6 36  1  0
 36 37  1  0
 36 38  2  0
 38 39  1  0
 38  2  1  0
 26 10  1  0
M  END
>  <plip>  (1) 
-0.034482758620689655

>  <filename>  (1) 
[H][c]1[n][c]([H])[c]([C](=[O])[C]([c]2[c]([H])[c]([H])[c]([N]([H])[C](=[O])[C]([H])([H])[H])[c]([H])[c]2[H])([C]([H])([H])[H])[C]([H])([H])[H])[c]([H])[c]1[H]

$$$$
