
     RDKit          3D

 37 38  0  0  0  0  0  0  0  0999 V2000
    8.9877   -3.0823   22.0338 C   0  0  0  0  0  0  0  0  0  0  0  0
    7.4740   -2.9207   22.1767 C   0  0  0  0  0  0  0  0  0  0  0  0
    6.7554   -4.2772   22.2739 C   0  0  0  0  0  0  0  0  0  0  0  0
    7.1376   -5.0355   23.4208 O   0  0  0  0  0  0  0  0  0  0  0  0
    6.7250   -4.6910   24.6729 C   0  0  0  0  0  0  0  0  0  0  0  0
    7.3289   -5.4130   25.7176 C   0  0  0  0  0  0  0  0  0  0  0  0
    6.9593   -5.1715   27.0407 C   0  0  0  0  0  0  0  0  0  0  0  0
    5.9841   -4.2085   27.3365 C   0  0  0  0  0  0  0  0  0  0  0  0
    5.4072   -3.5094   26.2846 C   0  0  0  0  0  0  0  0  0  0  0  0
    4.4709   -2.5845   26.5541 F   0  0  0  0  0  0  0  0  0  0  0  0
    5.7546   -3.7215   24.9520 C   0  0  0  0  0  0  0  0  0  0  0  0
    5.2775   -3.1380   24.1766 H   0  0  0  0  0  0  0  0  0  0  0  0
    5.6625   -3.9923   28.3481 H   0  0  0  0  0  0  0  0  0  0  0  0
    7.4271   -5.7436   27.8441 H   0  0  0  0  0  0  0  0  0  0  0  0
    8.0748   -6.1549   25.4515 H   0  0  0  0  0  0  0  0  0  0  0  0
    5.6662   -4.1336   22.2463 H   0  0  0  0  0  0  0  0  0  0  0  0
    7.0421   -4.9239   21.4367 H   0  0  0  0  0  0  0  0  0  0  0  0
    6.9595   -2.1356   21.0124 N   0  0  0  0  0  4  0  0  0  0  0  0
    7.3846   -0.7208   20.9968 C   0  0  0  0  0  0  0  0  0  0  0  0
    6.6351   -0.0259   19.9023 C   0  0  0  0  0  0  0  0  0  0  0  0
    5.4258    0.6383   20.1463 C   0  0  0  0  0  0  0  0  0  0  0  0
    4.7958    1.3070   19.0946 C   0  0  0  0  0  0  0  0  0  0  0  0
    5.3962    1.2847   17.8311 C   0  0  0  0  0  0  0  0  0  0  0  0
    6.5475    0.6483   17.5765 N   0  0  0  0  0  0  0  0  0  0  0  0
    7.1478    0.0228   18.5961 C   0  0  0  0  0  0  0  0  0  0  0  0
    8.1090   -0.4316   18.3565 H   0  0  0  0  0  0  0  0  0  0  0  0
    4.9362    1.7999   16.9867 H   0  0  0  0  0  0  0  0  0  0  0  0
    3.8715    1.8564   19.2396 H   0  0  0  0  0  0  0  0  0  0  0  0
    4.9986    0.6503   21.1515 H   0  0  0  0  0  0  0  0  0  0  0  0
    8.4649   -0.6412   20.8361 H   0  0  0  0  0  0  0  0  0  0  0  0
    7.1742   -0.2597   21.9707 H   0  0  0  0  0  0  0  0  0  0  0  0
    7.3070   -2.5589   20.1079 H   0  0  0  0  0  0  0  0  0  0  0  0
    5.9152   -2.1099   20.9420 H   0  0  0  0  0  0  0  0  0  0  0  0
    7.2640   -2.3672   23.1037 H   0  0  0  0  0  0  0  0  0  0  0  0
    9.3799   -3.7601   22.7937 H   0  0  0  0  0  0  0  0  0  0  0  0
    9.1933   -3.4854   21.0378 H   0  0  0  0  0  0  0  0  0  0  0  0
    9.5108   -2.1264   22.1273 H   0  0  0  0  0  0  0  0  0  0  0  0
  1  2  1  0
  2  3  1  0
  3  4  1  0
  4  5  1  0
  5  6  2  0
  6  7  1  0
  7  8  2  0
  8  9  1  0
  9 10  1  0
  9 11  2  0
 11 12  1  0
  8 13  1  0
  7 14  1  0
  6 15  1  0
  3 16  1  0
  3 17  1  0
  2 18  1  0
 18 19  1  0
 19 20  1  0
 20 21  2  0
 21 22  1  0
 22 23  2  0
 23 24  1  0
 24 25  2  0
 25 26  1  0
 23 27  1  0
 22 28  1  0
 21 29  1  0
 19 30  1  0
 19 31  1  0
 18 32  1  0
 18 33  1  0
  2 34  1  0
  1 35  1  0
  1 36  1  0
  1 37  1  0
 11  5  1  0
 25 20  1  0
M  CHG  1  18   1
M  END
>  <plip>  (1) 
-0.07142857142857142

>  <filename>  (1) 
[H][c]1[n][c]([H])[c]([C]([H])([H])[N+]([H])([H])[C]([H])([C]([H])([H])[H])[C]([H])([H])[O][c]2[c]([H])[c]([H])[c]([H])[c]([F])[c]2[H])[c]([H])[c]1[H]

$$$$
