
     RDKit          3D

 22 23  0  0  0  0  0  0  0  0999 V2000
    4.9729    1.6809   17.0069 H   0  0  0  0  0  0  0  0  0  0  0  0
    5.4929    1.2261   17.8484 C   0  0  0  0  0  0  0  0  0  0  0  0
    6.6723    0.6379   17.5820 N   0  0  0  0  0  0  0  0  0  0  0  0
    7.3361    0.0682   18.6023 C   0  0  0  0  0  0  0  0  0  0  0  0
    8.2689   -0.4238   18.3367 H   0  0  0  0  0  0  0  0  0  0  0  0
    6.8486    0.0613   19.9313 C   0  0  0  0  0  0  0  0  0  0  0  0
    7.6189   -0.5209   20.9775 O   0  0  0  0  0  0  0  0  0  0  0  0
    6.8424   -1.1164   22.3063 S   0  0  0  0  0  0  0  0  0  0  0  0
    5.9651   -2.1888   21.8722 O   0  0  0  0  0  0  0  0  0  0  0  0
    6.3289   -0.0114   23.0860 O   0  0  0  0  0  0  0  0  0  0  0  0
    8.2475   -1.7815   23.1972 C   0  0  0  0  0  0  0  0  0  0  0  0
    9.3440   -2.2450   22.6172 N   0  0  0  0  0  0  0  0  0  0  0  0
   10.0005   -2.8424   23.6168 N   0  0  0  0  0  0  0  0  0  0  0  0
   10.8689   -3.3164   23.4113 H   0  0  0  0  0  0  0  0  0  0  0  0
    9.3512   -2.7812   24.8027 C   0  0  0  0  0  0  0  0  0  0  0  0
    9.7157   -3.2684   25.6979 H   0  0  0  0  0  0  0  0  0  0  0  0
    8.1990   -2.0695   24.5863 C   0  0  0  0  0  0  0  0  0  0  0  0
    7.4461   -1.7756   25.3131 H   0  0  0  0  0  0  0  0  0  0  0  0
    5.6215    0.6702   20.1965 C   0  0  0  0  0  0  0  0  0  0  0  0
    5.2261    0.6835   21.2080 H   0  0  0  0  0  0  0  0  0  0  0  0
    4.9326    1.2571   19.1276 C   0  0  0  0  0  0  0  0  0  0  0  0
    3.9753    1.7381   19.2978 H   0  0  0  0  0  0  0  0  0  0  0  0
  1  2  1  0
  2  3  2  0
  3  4  1  0
  4  5  1  0
  4  6  2  0
  6  7  1  0
  7  8  1  0
  8  9  2  0
  8 10  2  0
  8 11  1  0
 11 12  2  0
 12 13  1  0
 13 14  1  0
 13 15  1  0
 15 16  1  0
 15 17  2  0
 17 18  1  0
  6 19  1  0
 19 20  1  0
 19 21  2  0
 21 22  1  0
 21  2  1  0
 17 11  1  0
M  END
>  <plip>  (1) 
-0.034482758620689655

>  <filename>  (1) 
[H][c]1[n][c]([H])[c]([O][S](=[O])(=[O])[c]2[n][n]([H])[c]([H])[c]2[H])[c]([H])[c]1[H]

$$$$
