
     RDKit          3D

 27 29  0  0  0  0  0  0  0  0999 V2000
    4.7926    1.3122   19.0945 C   0  0  0  0  0  0  0  0  0  0  0  0
    5.3947    1.2968   17.8343 C   0  0  0  0  0  0  0  0  0  0  0  0
    6.5592    0.6808   17.5814 N   0  0  0  0  0  0  0  0  0  0  0  0
    7.1659    0.0727   18.6055 C   0  0  0  0  0  0  0  0  0  0  0  0
    6.6525    0.0218   19.9083 C   0  0  0  0  0  0  0  0  0  0  0  0
    7.4316   -0.6953   20.9863 C   0  0  0  0  0  0  0  0  0  0  0  0
    8.8029   -0.3003   21.0693 O   0  0  0  0  0  0  0  0  0  0  0  0
    9.1301    0.9484   21.5274 C   0  0  0  0  0  0  0  0  0  0  0  0
   10.5132    1.2718   21.4451 C   0  0  0  0  0  0  0  0  0  0  0  0
   10.9941    2.4910   21.8954 C   0  0  0  0  0  0  0  0  0  0  0  0
   10.0915    3.4134   22.4508 C   0  0  0  0  0  0  0  0  0  0  0  0
   10.3319    5.0225   23.0746 S   0  0  0  0  0  0  0  0  0  0  0  0
    8.7007    5.2684   23.4343 N   0  0  0  0  0  0  0  0  0  0  0  0
    8.0076    4.2268   23.0983 C   0  0  0  0  0  0  0  0  0  0  0  0
    8.7235    3.1104   22.5239 C   0  0  0  0  0  0  0  0  0  0  0  0
    8.2339    1.8644   22.0642 C   0  0  0  0  0  0  0  0  0  0  0  0
    7.1776    1.6305   22.1319 H   0  0  0  0  0  0  0  0  0  0  0  0
    6.9352    4.2407   23.2718 H   0  0  0  0  0  0  0  0  0  0  0  0
   12.0516    2.7253   21.8144 H   0  0  0  0  0  0  0  0  0  0  0  0
   11.1736    0.5160   21.0410 H   0  0  0  0  0  0  0  0  0  0  0  0
    7.5025   -1.7671   20.7733 H   0  0  0  0  0  0  0  0  0  0  0  0
    6.9348   -0.5921   21.9605 H   0  0  0  0  0  0  0  0  0  0  0  0
    5.4284    0.6545   20.1505 C   0  0  0  0  0  0  0  0  0  0  0  0
    4.9860    0.6402   21.1536 H   0  0  0  0  0  0  0  0  0  0  0  0
    8.1134   -0.4175   18.3769 H   0  0  0  0  0  0  0  0  0  0  0  0
    4.9261    1.7912   16.9841 H   0  0  0  0  0  0  0  0  0  0  0  0
    3.8646    1.8497   19.2390 H   0  0  0  0  0  0  0  0  0  0  0  0
  1  2  2  0
  2  3  1  0
  3  4  2  0
  4  5  1  0
  5  6  1  0
  6  7  1  0
  7  8  1  0
  8  9  2  0
  9 10  1  0
 10 11  2  0
 11 12  1  0
 12 13  1  0
 13 14  2  0
 14 15  1  0
 15 16  2  0
 16 17  1  0
 14 18  1  0
 10 19  1  0
  9 20  1  0
  6 21  1  0
  6 22  1  0
  5 23  2  0
 23 24  1  0
  4 25  1  0
  2 26  1  0
  1 27  1  0
 23  1  1  0
 16  8  1  0
 15 11  1  0
M  END
>  <plip>  (1) 
-0.07142857142857142

>  <filename>  (1) 
[H][c]1[n][c]([H])[c]([C]([H])([H])[O][c]2[c]([H])[c]([H])[c]3[s][n][c]([H])[c]3[c]2[H])[c]([H])[c]1[H]

$$$$
