
     RDKit          3D

 46 47  0  0  0  0  0  0  0  0999 V2000
    7.2264   -4.7168   27.1636 C   0  0  0  0  0  0  0  0  0  0  0  0
    7.0186   -3.7148   26.0325 C   0  0  0  0  0  0  0  0  0  0  0  0
    8.1081   -3.9616   24.5820 S   0  0  0  0  0  0  0  0  0  0  0  0
    7.1340   -4.9708   23.4683 C   0  0  0  0  0  0  0  0  0  0  0  0
    7.6588   -6.2228   23.1105 C   0  0  0  0  0  0  0  0  0  0  0  0
    6.9747   -7.0641   22.2305 C   0  0  0  0  0  0  0  0  0  0  0  0
    5.7445   -6.6678   21.6996 C   0  0  0  0  0  0  0  0  0  0  0  0
    5.2320   -5.4147   22.0271 C   0  0  0  0  0  0  0  0  0  0  0  0
    5.9258   -4.5384   22.8783 C   0  0  0  0  0  0  0  0  0  0  0  0
    5.4028   -3.1218   22.9761 C   0  0  0  0  0  0  0  0  0  0  0  0
    5.8426   -2.2981   21.7652 C   0  0  0  0  0  0  0  0  0  0  0  0
    5.6096   -2.6621   20.6239 O   0  0  0  0  0  0  0  0  0  0  0  0
    6.5017   -1.1504   22.0741 N   0  0  0  0  0  0  0  0  0  0  0  0
    7.4340   -0.5344   21.1490 C   0  0  0  0  0  0  0  0  0  0  0  0
    8.5252   -1.5529   20.7513 C   0  0  0  0  0  0  0  0  0  0  0  0
    9.1169   -1.1766   19.9155 H   0  0  0  0  0  0  0  0  0  0  0  0
    9.2106   -1.7259   21.5883 H   0  0  0  0  0  0  0  0  0  0  0  0
    8.0507   -2.5003   20.5009 H   0  0  0  0  0  0  0  0  0  0  0  0
    8.0916    0.5926   21.9521 C   0  0  0  0  0  0  0  0  0  0  0  0
    8.7210    0.0226   23.2567 C   0  0  0  0  0  0  0  0  0  0  0  0
    7.9183   -0.4944   24.0814 O   0  0  0  0  0  0  0  0  0  0  0  0
    9.9493    0.1121   23.3656 O   0  0  0  0  0  1  0  0  0  0  0  0
    8.8829    1.0717   21.3781 H   0  0  0  0  0  0  0  0  0  0  0  0
    7.3486    1.3568   22.2167 H   0  0  0  0  0  0  0  0  0  0  0  0
    6.6886    0.0654   19.9527 C   0  0  0  0  0  0  0  0  0  0  0  0
    5.4726    0.7548   20.1267 C   0  0  0  0  0  0  0  0  0  0  0  0
    4.8727    1.3760   19.0306 C   0  0  0  0  0  0  0  0  0  0  0  0
    5.5024    1.2993   17.7853 C   0  0  0  0  0  0  0  0  0  0  0  0
    6.6500    0.6404   17.5867 N   0  0  0  0  0  0  0  0  0  0  0  0
    7.2132    0.0559   18.6555 C   0  0  0  0  0  0  0  0  0  0  0  0
    8.1461   -0.4595   18.4388 H   0  0  0  0  0  0  0  0  0  0  0  0
    5.0700    1.7774   16.9087 H   0  0  0  0  0  0  0  0  0  0  0  0
    3.9538    1.9421   19.1287 H   0  0  0  0  0  0  0  0  0  0  0  0
    5.0075    0.7908   21.1124 H   0  0  0  0  0  0  0  0  0  0  0  0
    6.8038   -1.0118   23.0478 H   0  0  0  0  0  0  0  0  0  0  0  0
    4.3092   -3.1415   22.9434 H   0  0  0  0  0  0  0  0  0  0  0  0
    5.7184   -2.6113   23.8936 H   0  0  0  0  0  0  0  0  0  0  0  0
    4.2922   -5.0729   21.6055 H   0  0  0  0  0  0  0  0  0  0  0  0
    5.2031   -7.3070   21.0110 H   0  0  0  0  0  0  0  0  0  0  0  0
    7.3980   -8.0331   21.9765 H   0  0  0  0  0  0  0  0  0  0  0  0
    8.6049   -6.5405   23.5396 H   0  0  0  0  0  0  0  0  0  0  0  0
    7.2396   -2.6915   26.3584 H   0  0  0  0  0  0  0  0  0  0  0  0
    5.9766   -3.7272   25.7008 H   0  0  0  0  0  0  0  0  0  0  0  0
    7.0698   -5.7431   26.8185 H   0  0  0  0  0  0  0  0  0  0  0  0
    6.5101   -4.5281   27.9730 H   0  0  0  0  0  0  0  0  0  0  0  0
    8.2367   -4.6523   27.5785 H   0  0  0  0  0  0  0  0  0  0  0  0
  1  2  1  0
  2  3  1  0
  3  4  1  0
  4  5  2  0
  5  6  1  0
  6  7  2  0
  7  8  1  0
  8  9  2  0
  9 10  1  0
 10 11  1  0
 11 12  2  0
 11 13  1  0
 13 14  1  0
 14 15  1  0
 15 16  1  0
 15 17  1  0
 15 18  1  0
 14 19  1  0
 19 20  1  0
 20 21  2  0
 20 22  1  0
 19 23  1  0
 19 24  1  0
 14 25  1  0
 25 26  2  0
 26 27  1  0
 27 28  2  0
 28 29  1  0
 29 30  2  0
 30 31  1  0
 28 32  1  0
 27 33  1  0
 26 34  1  0
 13 35  1  0
 10 36  1  0
 10 37  1  0
  8 38  1  0
  7 39  1  0
  6 40  1  0
  5 41  1  0
  2 42  1  0
  2 43  1  0
  1 44  1  0
  1 45  1  0
  1 46  1  0
  9  4  1  0
 30 25  1  0
M  CHG  1  22  -1
M  END
>  <plip>  (1) 
-0.13333333333333333

>  <filename>  (1) 
[H][c]1[n][c]([H])[c]([C]([N]([H])[C](=[O])[C]([H])([H])[c]2[c]([H])[c]([H])[c]([H])[c]([H])[c]2[S][C]([H])([H])[C]([H])([H])[H])([C]([H])([H])[H])[C]([H])([H])[C](=[O])[O-])[c]([H])[c]1[H]

$$$$
