
     RDKit          3D

 53 56  0  0  0  0  0  0  0  0999 V2000
    1.8243   -4.7848   22.0811 F   0  0  0  0  0  0  0  0  0  0  0  0
    1.9725   -5.6837   23.0786 C   0  0  0  0  0  0  0  0  0  0  0  0
    0.8182   -6.1840   23.6723 C   0  0  0  0  0  0  0  0  0  0  0  0
    0.9293   -7.1473   24.6775 C   0  0  0  0  0  0  0  0  0  0  0  0
    2.1943   -7.5539   25.1136 C   0  0  0  0  0  0  0  0  0  0  0  0
    3.3524   -7.0259   24.5333 C   0  0  0  0  0  0  0  0  0  0  0  0
    3.2597   -6.0947   23.4817 C   0  0  0  0  0  0  0  0  0  0  0  0
    4.4234   -5.5713   22.8409 N   0  0  0  0  0  0  0  0  0  0  0  0
    4.5482   -4.3197   22.3121 C   0  0  0  0  0  0  0  0  0  0  0  0
    5.7275   -4.2660   21.6150 C   0  0  0  0  0  0  0  0  0  0  0  0
    6.2760   -3.1406   20.8013 C   0  0  0  0  0  0  0  0  0  0  0  0
    6.5326   -1.9904   21.7201 N   0  0  0  0  0  4  0  0  0  0  0  0
    7.3183   -0.8448   21.1508 C   0  0  0  0  0  0  0  0  0  0  0  0
    6.5451   -0.1768   20.0187 C   0  0  0  0  0  0  0  0  0  0  0  0
    5.3833    0.5999   20.1791 C   0  0  0  0  0  0  0  0  0  0  0  0
    4.8770    1.2870   19.0697 C   0  0  0  0  0  0  0  0  0  0  0  0
    5.5293    1.1627   17.8388 C   0  0  0  0  0  0  0  0  0  0  0  0
    6.6243    0.4126   17.6591 N   0  0  0  0  0  0  0  0  0  0  0  0
    7.1086   -0.2195   18.7379 C   0  0  0  0  0  0  0  0  0  0  0  0
    8.0300   -0.7827   18.5847 H   0  0  0  0  0  0  0  0  0  0  0  0
    5.1494    1.6862   16.9611 H   0  0  0  0  0  0  0  0  0  0  0  0
    4.0246    1.9534   19.1493 H   0  0  0  0  0  0  0  0  0  0  0  0
    4.9053    0.7117   21.1552 H   0  0  0  0  0  0  0  0  0  0  0  0
    7.7628    0.1617   22.2404 C   0  0  0  0  0  0  0  0  0  0  0  0
    8.6366   -0.4680   23.3481 C   0  0  0  0  0  0  0  0  0  0  0  0
   10.0224   -0.8845   22.8380 C   0  0  0  0  0  0  0  0  0  0  0  0
   10.7675    0.3064   22.2230 C   0  0  0  0  0  0  0  0  0  0  0  0
    9.9355    1.0206   21.1501 C   0  0  0  0  0  0  0  0  0  0  0  0
    8.5318    1.3823   21.6580 C   0  0  0  0  0  0  0  0  0  0  0  0
    7.9541    1.8727   20.8637 H   0  0  0  0  0  0  0  0  0  0  0  0
    8.6372    2.1266   22.4579 H   0  0  0  0  0  0  0  0  0  0  0  0
    9.8342    0.3788   20.2680 H   0  0  0  0  0  0  0  0  0  0  0  0
   10.4591    1.9253   20.8162 H   0  0  0  0  0  0  0  0  0  0  0  0
   10.9989    1.0262   23.0199 H   0  0  0  0  0  0  0  0  0  0  0  0
   11.7299   -0.0150   21.8088 H   0  0  0  0  0  0  0  0  0  0  0  0
   10.6072   -1.3085   23.6609 H   0  0  0  0  0  0  0  0  0  0  0  0
    9.9181   -1.6843   22.0923 H   0  0  0  0  0  0  0  0  0  0  0  0
    8.1334   -1.3135   23.8309 H   0  0  0  0  0  0  0  0  0  0  0  0
    8.7700    0.2809   24.1414 H   0  0  0  0  0  0  0  0  0  0  0  0
    6.8391    0.5327   22.6993 H   0  0  0  0  0  0  0  0  0  0  0  0
    8.2100   -1.2874   20.6967 H   0  0  0  0  0  0  0  0  0  0  0  0
    6.9577   -2.3954   22.5851 H   0  0  0  0  0  0  0  0  0  0  0  0
    5.6004   -1.5956   21.9937 H   0  0  0  0  0  0  0  0  0  0  0  0
    7.2036   -3.4397   20.3009 H   0  0  0  0  0  0  0  0  0  0  0  0
    5.5828   -2.8440   20.0032 H   0  0  0  0  0  0  0  0  0  0  0  0
    6.2810   -5.5542   21.8244 C   0  0  0  0  0  0  0  0  0  0  0  0
    5.5054   -6.3307   22.5612 N   0  0  0  0  0  0  0  0  0  0  0  0
    7.2366   -5.9184   21.4663 H   0  0  0  0  0  0  0  0  0  0  0  0
    3.8248   -3.5657   22.5674 H   0  0  0  0  0  0  0  0  0  0  0  0
    4.3338   -7.3286   24.8948 H   0  0  0  0  0  0  0  0  0  0  0  0
    2.2781   -8.2836   25.9138 H   0  0  0  0  0  0  0  0  0  0  0  0
    0.0317   -7.5561   25.1371 H   0  0  0  0  0  0  0  0  0  0  0  0
   -0.1490   -5.8121   23.3492 H   0  0  0  0  0  0  0  0  0  0  0  0
  1  2  1  0
  2  3  2  0
  3  4  1  0
  4  5  2  0
  5  6  1  0
  6  7  2  0
  7  8  1  0
  8  9  1  0
  9 10  2  0
 10 11  1  0
 11 12  1  0
 12 13  1  0
 13 14  1  0
 14 15  2  0
 15 16  1  0
 16 17  2  0
 17 18  1  0
 18 19  2  0
 19 20  1  0
 17 21  1  0
 16 22  1  0
 15 23  1  0
 13 24  1  0
 24 25  1  0
 25 26  1  0
 26 27  1  0
 27 28  1  0
 28 29  1  0
 29 30  1  0
 29 31  1  0
 28 32  1  0
 28 33  1  0
 27 34  1  0
 27 35  1  0
 26 36  1  0
 26 37  1  0
 25 38  1  0
 25 39  1  0
 24 40  1  0
 13 41  1  0
 12 42  1  0
 12 43  1  0
 11 44  1  0
 11 45  1  0
 10 46  1  0
 46 47  2  0
 46 48  1  0
  9 49  1  0
  6 50  1  0
  5 51  1  0
  4 52  1  0
  3 53  1  0
  7  2  1  0
 47  8  1  0
 19 14  1  0
 29 24  1  0
M  CHG  1  12   1
M  END
>  <plip>  (1) 
-0.14285714285714285

>  <filename>  (1) 
[H][c]1[n][c]([H])[c]([C]([H])([C]2([H])[C]([H])([H])[C]([H])([H])[C]([H])([H])[C]([H])([H])[C]2([H])[H])[N+]([H])([H])[C]([H])([H])[c]2[c]([H])[n][n](-[c]3[c]([H])[c]([H])[c]([H])[c]([H])[c]3[F])[c]2[H])[c]([H])[c]1[H]

$$$$
