
     RDKit          3D

 32 34  0  0  0  0  0  0  0  0999 V2000
    4.9198    1.7932   16.9802 H   0  0  0  0  0  0  0  0  0  0  0  0
    5.3918    1.2943   17.8246 C   0  0  0  0  0  0  0  0  0  0  0  0
    6.5514    0.6768   17.5609 N   0  0  0  0  0  0  0  0  0  0  0  0
    7.1683    0.0758   18.5897 C   0  0  0  0  0  0  0  0  0  0  0  0
    8.1148   -0.4106   18.3496 H   0  0  0  0  0  0  0  0  0  0  0  0
    6.6778    0.0478   19.9031 C   0  0  0  0  0  0  0  0  0  0  0  0
    7.3842   -0.7259   20.9830 C   0  0  0  0  0  0  0  0  0  0  0  0
    7.3077   -0.1771   21.9344 H   0  0  0  0  0  0  0  0  0  0  0  0
    8.4611   -0.7871   20.7692 H   0  0  0  0  0  0  0  0  0  0  0  0
    6.8238   -2.1222   21.1418 C   0  0  0  0  0  0  0  0  0  0  0  0
    6.0916   -2.9238   20.2356 C   0  0  0  0  0  0  0  0  0  0  0  0
    5.7804   -2.6757   19.2290 H   0  0  0  0  0  0  0  0  0  0  0  0
    5.7838   -4.1119   20.7395 N   0  0  0  0  0  0  0  0  0  0  0  0
    6.3232   -4.0828   21.9765 N   0  0  0  0  0  0  0  0  0  0  0  0
    6.2392   -4.8989   22.5668 H   0  0  0  0  0  0  0  0  0  0  0  0
    6.9566   -2.9116   22.2611 C   0  0  0  0  0  0  0  0  0  0  0  0
    7.6397   -2.6292   23.5550 C   0  0  2  0  0  0  0  0  0  0  0  0
    8.0944   -1.6323   23.5048 H   0  0  0  0  0  0  0  0  0  0  0  0
    8.7594   -3.6252   23.9085 C   0  0  0  0  0  0  0  0  0  0  0  0
    8.5438   -4.6303   23.5145 H   0  0  0  0  0  0  0  0  0  0  0  0
    9.7374   -3.3345   23.5063 H   0  0  0  0  0  0  0  0  0  0  0  0
    8.8394   -3.6455   25.3204 O   0  0  0  0  0  0  0  0  0  0  0  0
    7.6921   -3.0607   25.9264 C   0  0  0  0  0  0  0  0  0  0  0  0
    8.0106   -2.1891   26.5157 H   0  0  0  0  0  0  0  0  0  0  0  0
    7.2538   -3.7815   26.6295 H   0  0  0  0  0  0  0  0  0  0  0  0
    6.7255   -2.6789   24.7967 C   0  0  0  0  0  0  0  0  0  0  0  0
    6.2053   -1.7326   24.9791 H   0  0  0  0  0  0  0  0  0  0  0  0
    5.9515   -3.4432   24.6670 H   0  0  0  0  0  0  0  0  0  0  0  0
    5.4492    0.6717   20.1475 C   0  0  0  0  0  0  0  0  0  0  0  0
    5.0134    0.6315   21.1502 H   0  0  0  0  0  0  0  0  0  0  0  0
    4.8006    1.3167   19.0923 C   0  0  0  0  0  0  0  0  0  0  0  0
    3.8683    1.8421   19.2412 H   0  0  0  0  0  0  0  0  0  0  0  0
  1  2  1  0
  2  3  2  0
  3  4  1  0
  4  5  1  0
  4  6  2  0
  6  7  1  0
  7  8  1  0
  7  9  1  0
  7 10  1  0
 10 11  1  0
 11 12  1  0
 11 13  2  0
 13 14  1  0
 14 15  1  0
 14 16  1  0
 16 17  1  0
 17 18  1  6
 17 19  1  0
 19 20  1  0
 19 21  1  0
 19 22  1  0
 22 23  1  0
 23 24  1  0
 23 25  1  0
 23 26  1  0
 26 27  1  0
 26 28  1  0
  6 29  1  0
 29 30  1  0
 29 31  2  0
 31 32  1  0
 31  2  1  0
 16 10  2  0
 26 17  1  0
M  END
>  <plip>  (1) 
-0.07142857142857142

>  <filename>  (1) 
[H][c]1[n][c]([H])[c]([C]([H])([H])[c]2[c]([H])[n][n]([H])[c]2[C@]2([H])[C]([H])([H])[O][C]([H])([H])[C]2([H])[H])[c]([H])[c]1[H]

$$$$
