
     RDKit          3D

 35 36  0  0  0  0  0  0  0  0999 V2000
    6.6850   -2.0311   21.2923 C   0  0  0  0  0  0  0  0  0  0  0  0
    7.4243   -0.7468   20.9575 C   0  0  0  0  0  0  0  0  0  0  0  0
    7.5198    0.0708   22.1583 N   0  0  0  0  0  0  0  0  0  0  0  0
    8.3145    1.2250   22.2341 C   0  0  0  0  0  0  0  0  0  0  0  0
    8.9921    1.4509   21.2230 O   0  0  0  0  0  0  0  0  0  0  0  0
    8.3660    2.1746   23.4383 C   0  0  0  0  0  0  0  0  0  0  0  0
    7.6381    1.9864   24.4225 O   0  0  0  0  0  0  0  0  0  0  0  0
    9.2109    3.2936   23.5155 N   0  0  0  0  0  0  0  0  0  0  0  0
    9.1640    4.2529   24.5251 C   0  0  0  0  0  0  0  0  0  0  0  0
    7.9285    4.6597   25.0401 C   0  0  0  0  0  0  0  0  0  0  0  0
    7.8609    5.6489   26.0334 C   0  0  0  0  0  0  0  0  0  0  0  0
    9.0546    6.1800   26.5479 C   0  0  0  0  0  0  0  0  0  0  0  0
   10.2966    5.7706   26.0344 C   0  0  0  0  0  0  0  0  0  0  0  0
   11.7679    6.4241   26.7216 Cl  0  0  0  0  0  0  0  0  0  0  0  0
   10.3499    4.8376   24.9845 C   0  0  0  0  0  0  0  0  0  0  0  0
   12.0265    4.3306   24.1856 Br  0  0  0  0  0  0  0  0  0  0  0  0
    9.0298    6.9182   27.3461 H   0  0  0  0  0  0  0  0  0  0  0  0
    6.8961    6.0066   26.3983 H   0  0  0  0  0  0  0  0  0  0  0  0
    7.0323    4.2144   24.6147 H   0  0  0  0  0  0  0  0  0  0  0  0
    9.9837    3.3792   22.8562 H   0  0  0  0  0  0  0  0  0  0  0  0
    6.8904   -0.1594   22.9279 H   0  0  0  0  0  0  0  0  0  0  0  0
    6.6645    0.0043   19.8974 C   0  0  0  0  0  0  0  0  0  0  0  0
    5.4467    0.6451   20.1530 C   0  0  0  0  0  0  0  0  0  0  0  0
    4.8178    1.2982   19.0947 C   0  0  0  0  0  0  0  0  0  0  0  0
    5.4061    1.2955   17.8278 C   0  0  0  0  0  0  0  0  0  0  0  0
    6.5710    0.6757   17.5761 N   0  0  0  0  0  0  0  0  0  0  0  0
    7.1842    0.0537   18.5990 C   0  0  0  0  0  0  0  0  0  0  0  0
    8.1328   -0.4409   18.4149 H   0  0  0  0  0  0  0  0  0  0  0  0
    4.9068    1.8198   17.0197 H   0  0  0  0  0  0  0  0  0  0  0  0
    3.8823    1.8275   19.2349 H   0  0  0  0  0  0  0  0  0  0  0  0
    5.0017    0.6452   21.1459 H   0  0  0  0  0  0  0  0  0  0  0  0
    8.4290   -0.9989   20.5880 H   0  0  0  0  0  0  0  0  0  0  0  0
    6.6120   -2.6645   20.4018 H   0  0  0  0  0  0  0  0  0  0  0  0
    5.6774   -1.7978   21.6485 H   0  0  0  0  0  0  0  0  0  0  0  0
    7.2139   -2.5806   22.0759 H   0  0  0  0  0  0  0  0  0  0  0  0
  1  2  1  0
  2  3  1  0
  3  4  1  0
  4  5  2  0
  4  6  1  0
  6  7  2  0
  6  8  1  0
  8  9  1  0
  9 10  2  0
 10 11  1  0
 11 12  2  0
 12 13  1  0
 13 14  1  0
 13 15  2  0
 15 16  1  0
 12 17  1  0
 11 18  1  0
 10 19  1  0
  8 20  1  0
  3 21  1  0
  2 22  1  0
 22 23  2  0
 23 24  1  0
 24 25  2  0
 25 26  1  0
 26 27  2  0
 27 28  1  0
 25 29  1  0
 24 30  1  0
 23 31  1  0
  2 32  1  0
  1 33  1  0
  1 34  1  0
  1 35  1  0
 15  9  1  0
 27 22  1  0
M  END
>  <plip>  (1) 
-0.17857142857142858

>  <filename>  (1) 
[H][c]1[n][c]([H])[c]([C]([H])([N]([H])[C](=[O])[C](=[O])[N]([H])[c]2[c]([H])[c]([H])[c]([H])[c]([Cl])[c]2[Br])[C]([H])([H])[H])[c]([H])[c]1[H]

$$$$
