
     RDKit          3D

 30 31  0  0  0  0  0  0  0  0999 V2000
    4.9151    1.7736   17.0035 H   0  0  0  0  0  0  0  0  0  0  0  0
    5.4056    1.2884   17.8471 C   0  0  0  0  0  0  0  0  0  0  0  0
    6.5702    0.6759   17.5847 N   0  0  0  0  0  0  0  0  0  0  0  0
    7.1815    0.0585   18.5996 C   0  0  0  0  0  0  0  0  0  0  0  0
    8.1275   -0.4325   18.3796 H   0  0  0  0  0  0  0  0  0  0  0  0
    6.6656    0.0036   19.9070 C   0  0  0  0  0  0  0  0  0  0  0  0
    7.4154   -0.7184   20.9494 C   0  0  0  0  0  0  0  0  0  0  0  0
    8.5438   -1.3363   20.7533 N   0  0  0  0  0  0  0  0  0  0  0  0
    9.0335   -1.9319   21.8843 N   0  0  0  0  0  0  0  0  0  0  0  0
    8.2688   -1.7622   22.9225 C   0  0  0  0  0  0  0  0  0  0  0  0
    8.5620   -2.2796   24.2982 C   0  0  0  0  0  0  0  0  0  0  0  0
    8.6226   -1.4331   24.9898 H   0  0  0  0  0  0  0  0  0  0  0  0
    9.5511   -2.7460   24.2852 H   0  0  0  0  0  0  0  0  0  0  0  0
    7.5231   -3.2779   24.8371 C   0  0  0  0  0  0  0  0  0  0  0  0
    7.7155   -3.4434   25.9064 H   0  0  0  0  0  0  0  0  0  0  0  0
    6.5233   -2.8273   24.7920 H   0  0  0  0  0  0  0  0  0  0  0  0
    7.4829   -4.5729   24.1744 N   0  0  0  0  0  0  0  0  0  0  0  0
    8.7406   -5.3025   24.2069 C   0  0  0  0  0  0  0  0  0  0  0  0
    8.5842   -6.3616   23.9771 H   0  0  0  0  0  0  0  0  0  0  0  0
    9.4733   -4.9123   23.4790 H   0  0  0  0  0  0  0  0  0  0  0  0
    9.2013   -5.2560   25.2002 H   0  0  0  0  0  0  0  0  0  0  0  0
    6.8907   -4.5855   22.8447 C   0  0  0  0  0  0  0  0  0  0  0  0
    7.5804   -4.2117   22.0722 H   0  0  0  0  0  0  0  0  0  0  0  0
    6.5954   -5.6042   22.5655 H   0  0  0  0  0  0  0  0  0  0  0  0
    5.9864   -3.9701   22.8143 H   0  0  0  0  0  0  0  0  0  0  0  0
    6.8475   -0.8229   22.5912 S   0  0  0  0  0  0  0  0  0  0  0  0
    5.4437    0.6491   20.1655 C   0  0  0  0  0  0  0  0  0  0  0  0
    5.0011    0.6341   21.1647 H   0  0  0  0  0  0  0  0  0  0  0  0
    4.8070    1.3087   19.1123 C   0  0  0  0  0  0  0  0  0  0  0  0
    3.8752    1.8425   19.2651 H   0  0  0  0  0  0  0  0  0  0  0  0
  1  2  1  0
  2  3  2  0
  3  4  1  0
  4  5  1  0
  4  6  2  0
  6  7  1  0
  7  8  2  0
  8  9  1  0
  9 10  2  0
 10 11  1  0
 11 12  1  0
 11 13  1  0
 11 14  1  0
 14 15  1  0
 14 16  1  0
 14 17  1  0
 17 18  1  0
 18 19  1  0
 18 20  1  0
 18 21  1  0
 17 22  1  0
 22 23  1  0
 22 24  1  0
 22 25  1  0
 10 26  1  0
  6 27  1  0
 27 28  1  0
 27 29  2  0
 29 30  1  0
 29  2  1  0
 26  7  1  0
M  END
>  <plip>  (1) 
-0.03571428571428571

>  <filename>  (1) 
[H][c]1[n][c]([H])[c](-[c]2[n][n][c]([C]([H])([H])[C]([H])([H])[N]([C]([H])([H])[H])[C]([H])([H])[H])[s]2)[c]([H])[c]1[H]

$$$$
