
     RDKit          3D

 28 30  0  0  0  0  0  0  0  0999 V2000
    4.9367    1.8242   16.9762 H   0  0  0  0  0  0  0  0  0  0  0  0
    5.4045    1.3057   17.8090 C   0  0  0  0  0  0  0  0  0  0  0  0
    6.5602    0.6753   17.5449 N   0  0  0  0  0  0  0  0  0  0  0  0
    7.1637    0.0496   18.5628 C   0  0  0  0  0  0  0  0  0  0  0  0
    8.1020   -0.4502   18.3181 H   0  0  0  0  0  0  0  0  0  0  0  0
    6.6661   -0.0034   19.8831 C   0  0  0  0  0  0  0  0  0  0  0  0
    7.4264   -0.7091   20.9411 C   0  0  0  0  0  0  0  0  0  0  0  0
    6.6596   -1.2472   22.4061 S   0  0  0  0  0  0  0  0  0  0  0  0
    8.1414   -1.8415   23.0644 C   0  0  0  0  0  0  0  0  0  0  0  0
    8.1745   -2.5977   24.3717 C   0  0  0  0  0  0  0  0  0  0  0  0
    9.1628   -2.4855   24.8421 H   0  0  0  0  0  0  0  0  0  0  0  0
    7.4435   -2.1897   25.0759 H   0  0  0  0  0  0  0  0  0  0  0  0
    7.9031   -4.0597   24.0881 C   0  0  0  0  0  0  0  0  0  0  0  0
    6.2988   -4.6705   23.8752 S   0  0  0  0  0  0  0  0  0  0  0  0
    6.8963   -6.1724   23.2852 C   0  0  0  0  0  0  0  0  0  0  0  0
    6.2148   -6.9447   22.9445 H   0  0  0  0  0  0  0  0  0  0  0  0
    8.2528   -6.2229   23.3004 C   0  0  0  0  0  0  0  0  0  0  0  0
    8.8213   -7.0893   22.9712 H   0  0  0  0  0  0  0  0  0  0  0  0
    8.8328   -5.0065   23.7739 C   0  0  0  0  0  0  0  0  0  0  0  0
    9.8984   -4.8267   23.8818 H   0  0  0  0  0  0  0  0  0  0  0  0
    9.1627   -1.6645   22.1758 C   0  0  0  0  0  0  0  0  0  0  0  0
   10.1834   -1.9799   22.3731 H   0  0  0  0  0  0  0  0  0  0  0  0
    8.7626   -1.0171   20.9721 C   0  0  0  0  0  0  0  0  0  0  0  0
    9.4538   -0.7608   20.1744 H   0  0  0  0  0  0  0  0  0  0  0  0
    5.4417    0.6578   20.1245 C   0  0  0  0  0  0  0  0  0  0  0  0
    5.0129    0.6732   21.1259 H   0  0  0  0  0  0  0  0  0  0  0  0
    4.8033    1.3159   19.0726 C   0  0  0  0  0  0  0  0  0  0  0  0
    3.8645    1.8434   19.2227 H   0  0  0  0  0  0  0  0  0  0  0  0
  1  2  1  0
  2  3  2  0
  3  4  1  0
  4  5  1  0
  4  6  2  0
  6  7  1  0
  7  8  1  0
  8  9  1  0
  9 10  1  0
 10 11  1  0
 10 12  1  0
 10 13  1  0
 13 14  1  0
 14 15  1  0
 15 16  1  0
 15 17  2  0
 17 18  1  0
 17 19  1  0
 19 20  1  0
  9 21  2  0
 21 22  1  0
 21 23  1  0
 23 24  1  0
  6 25  1  0
 25 26  1  0
 25 27  2  0
 27 28  1  0
 27  2  1  0
 23  7  2  0
 19 13  2  0
M  END
>  <plip>  (1) 
-0.06896551724137931

>  <filename>  (1) 
[H][c]1[n][c]([H])[c](-[c]2[s][c]([C]([H])([H])[c]3[s][c]([H])[c]([H])[c]3[H])[c]([H])[c]2[H])[c]([H])[c]1[H]

$$$$
