
     RDKit          3D

 29 29  0  0  0  0  0  0  0  0999 V2000
    8.3282   -6.3388   21.6825 H   0  0  0  0  0  0  0  0  0  0  0  0
    7.7805   -5.5652   21.8572 O   0  0  0  0  0  0  0  0  0  0  0  0
    6.8172   -5.9102   22.8434 C   0  0  0  0  0  0  0  0  0  0  0  0
    6.2961   -6.8481   22.5865 H   0  0  0  0  0  0  0  0  0  0  0  0
    7.3056   -6.0677   23.8210 H   0  0  0  0  0  0  0  0  0  0  0  0
    5.8149   -4.7742   22.9342 C   0  0  0  0  0  0  0  0  0  0  0  0
    4.9951   -5.0728   23.5957 H   0  0  0  0  0  0  0  0  0  0  0  0
    5.3750   -4.6261   21.9428 H   0  0  0  0  0  0  0  0  0  0  0  0
    6.4111   -3.4460   23.4239 C   0  0  0  0  0  0  0  0  0  0  0  0
    7.0444   -3.6203   24.3159 H   0  0  0  0  0  0  0  0  0  0  0  0
    5.5990   -2.7892   23.7718 H   0  0  0  0  0  0  0  0  0  0  0  0
    7.1930   -2.7243   22.4262 N   0  0  0  0  0  0  0  0  0  0  0  0
    7.7965   -3.3832   21.9425 H   0  0  0  0  0  0  0  0  0  0  0  0
    6.4773   -1.9383   21.4582 C   0  0  2  0  0  0  0  0  0  0  0  0
    5.5582   -1.5510   21.9058 H   0  0  0  0  0  0  0  0  0  0  0  0
    5.9152   -2.9513   20.0651 Cl  0  0  0  0  0  0  0  0  0  0  0  0
    7.3356   -0.7628   20.9527 C   0  0  0  0  0  0  0  0  0  0  0  0
    7.5314   -0.1286   21.8272 H   0  0  0  0  0  0  0  0  0  0  0  0
    8.2916   -1.1806   20.6294 H   0  0  0  0  0  0  0  0  0  0  0  0
    6.6834    0.0526   19.8520 C   0  0  0  0  0  0  0  0  0  0  0  0
    7.1888    0.1128   18.5408 C   0  0  0  0  0  0  0  0  0  0  0  0
    8.1323   -0.3769   18.2918 H   0  0  0  0  0  0  0  0  0  0  0  0
    6.5796    0.7330   17.5205 N   0  0  0  0  0  0  0  0  0  0  0  0
    5.4123    1.3384   17.7777 C   0  0  0  0  0  0  0  0  0  0  0  0
    4.9228    1.8328   16.9383 H   0  0  0  0  0  0  0  0  0  0  0  0
    4.8172    1.3473   19.0403 C   0  0  0  0  0  0  0  0  0  0  0  0
    3.8690    1.8488   19.1909 H   0  0  0  0  0  0  0  0  0  0  0  0
    5.4639    0.7000   20.0920 C   0  0  0  0  0  0  0  0  0  0  0  0
    5.0287    0.6991   21.0936 H   0  0  0  0  0  0  0  0  0  0  0  0
  1  2  1  0
  2  3  1  0
  3  4  1  0
  3  5  1  0
  3  6  1  0
  6  7  1  0
  6  8  1  0
  6  9  1  0
  9 10  1  0
  9 11  1  0
  9 12  1  0
 12 13  1  0
 12 14  1  0
 14 15  1  1
 14 16  1  0
 14 17  1  0
 17 18  1  0
 17 19  1  0
 17 20  1  0
 20 21  2  0
 21 22  1  0
 21 23  1  0
 23 24  2  0
 24 25  1  0
 24 26  1  0
 26 27  1  0
 26 28  2  0
 28 29  1  0
 28 20  1  0
M  END
>  <plip>  (1) 
-0.034482758620689655

>  <filename>  (1) 
[H][O][C]([H])([H])[C]([H])([H])[C]([H])([H])[N]([H])[C@]([H])([Cl])[C]([H])([H])[c]1[c]([H])[n][c]([H])[c]([H])[c]1[H]

$$$$
