
     RDKit          3D

 33 35  0  0  0  0  0  0  0  0999 V2000
   10.1160   -5.8529   25.6968 C   0  0  0  0  0  0  0  0  0  0  0  0
   10.1297   -4.3761   26.1277 C   0  0  0  0  0  0  0  0  0  0  0  0
    8.8682   -3.6604   25.7175 C   0  0  0  0  0  0  0  0  0  0  0  0
    7.7076   -3.7603   26.5009 C   0  0  0  0  0  0  0  0  0  0  0  0
    6.5275   -3.1920   26.0236 C   0  0  0  0  0  0  0  0  0  0  0  0
    6.5636   -2.5289   24.7972 C   0  0  0  0  0  0  0  0  0  0  0  0
    7.7751   -2.4545   24.0934 C   0  0  0  0  0  0  0  0  0  0  0  0
    7.8557   -1.7805   22.7913 C   0  0  0  0  0  0  0  0  0  0  0  0
    6.8537   -1.1896   22.0547 C   0  0  0  0  0  0  0  0  0  0  0  0
    7.4007   -0.6922   20.9251 N   0  0  0  0  0  0  0  0  0  0  0  0
    6.7040    0.0013   19.9098 C   0  0  0  0  0  0  0  0  0  0  0  0
    5.4871    0.6546   20.1673 C   0  0  0  0  0  0  0  0  0  0  0  0
    4.8540    1.2927   19.1033 C   0  0  0  0  0  0  0  0  0  0  0  0
    5.4576    1.2650   17.8417 C   0  0  0  0  0  0  0  0  0  0  0  0
    6.6174    0.6319   17.5923 N   0  0  0  0  0  0  0  0  0  0  0  0
    7.2302    0.0213   18.6100 C   0  0  0  0  0  0  0  0  0  0  0  0
    8.1773   -0.4771   18.4102 H   0  0  0  0  0  0  0  0  0  0  0  0
    4.9947    1.7708   17.0002 H   0  0  0  0  0  0  0  0  0  0  0  0
    3.9139    1.8152   19.2474 H   0  0  0  0  0  0  0  0  0  0  0  0
    5.0582    0.6995   21.1714 H   0  0  0  0  0  0  0  0  0  0  0  0
    8.7207   -0.9580   20.8564 N   0  0  0  0  0  0  0  0  0  0  0  0
    9.0017   -1.6014   21.9768 C   0  0  0  0  0  0  0  0  0  0  0  0
   10.0113   -1.9322   22.1715 H   0  0  0  0  0  0  0  0  0  0  0  0
    5.7955   -1.1005   22.1952 H   0  0  0  0  0  0  0  0  0  0  0  0
    8.9069   -3.0178   24.5469 N   0  0  0  0  0  0  0  0  0  0  0  0
    5.6643   -2.0957   24.3744 H   0  0  0  0  0  0  0  0  0  0  0  0
    5.6040   -3.2762   26.5939 H   0  0  0  0  0  0  0  0  0  0  0  0
    7.7601   -4.2716   27.4588 H   0  0  0  0  0  0  0  0  0  0  0  0
   10.2648   -4.3023   27.2122 H   0  0  0  0  0  0  0  0  0  0  0  0
   10.9758   -3.8658   25.6640 H   0  0  0  0  0  0  0  0  0  0  0  0
   10.0647   -5.9401   24.6077 H   0  0  0  0  0  0  0  0  0  0  0  0
   11.0079   -6.3727   26.0496 H   0  0  0  0  0  0  0  0  0  0  0  0
    9.2447   -6.3928   26.0805 H   0  0  0  0  0  0  0  0  0  0  0  0
  1  2  1  0
  2  3  1  0
  3  4  2  0
  4  5  1  0
  5  6  2  0
  6  7  1  0
  7  8  1  0
  8  9  2  0
  9 10  1  0
 10 11  1  0
 11 12  2  0
 12 13  1  0
 13 14  2  0
 14 15  1  0
 15 16  2  0
 16 17  1  0
 14 18  1  0
 13 19  1  0
 12 20  1  0
 10 21  1  0
 21 22  2  0
 22 23  1  0
  9 24  1  0
  7 25  2  0
  6 26  1  0
  5 27  1  0
  4 28  1  0
  2 29  1  0
  2 30  1  0
  1 31  1  0
  1 32  1  0
  1 33  1  0
 25  3  1  0
 22  8  1  0
 16 11  1  0
M  END
>  <plip>  (1) 
-0.07142857142857142

>  <filename>  (1) 
[H][c]1[n][c]([H])[c](-[n]2[n][c]([H])[c](-[c]3[n][c]([C]([H])([H])[C]([H])([H])[H])[c]([H])[c]([H])[c]3[H])[c]2[H])[c]([H])[c]1[H]

$$$$
