
     RDKit          3D

 41 44  0  0  0  0  0  0  0  0999 V2000
    5.4115    1.6497   16.9014 H   0  0  0  0  0  0  0  0  0  0  0  0
    5.7474    1.0664   17.7578 C   0  0  0  0  0  0  0  0  0  0  0  0
    6.8572    0.3369   17.5773 N   0  0  0  0  0  0  0  0  0  0  0  0
    7.3067   -0.3645   18.6279 C   0  0  0  0  0  0  0  0  0  0  0  0
    8.2124   -0.9449   18.4487 H   0  0  0  0  0  0  0  0  0  0  0  0
    6.7049   -0.3913   19.9020 C   0  0  0  0  0  0  0  0  0  0  0  0
    7.3908   -1.0684   21.0810 C   0  0  2  0  0  0  0  0  0  0  0  0
    8.2332   -1.6544   20.6919 H   0  0  0  0  0  0  0  0  0  0  0  0
    6.4870   -2.0937   21.8240 C   0  0  0  0  0  0  0  0  0  0  0  0
    6.6255   -3.0768   21.3622 H   0  0  0  0  0  0  0  0  0  0  0  0
    5.4264   -1.8473   21.6865 H   0  0  0  0  0  0  0  0  0  0  0  0
    6.8287   -2.2523   23.3561 C   0  0  1  0  0  0  0  0  0  0  0  0
    6.6131   -3.2945   23.6803 H   0  0  0  0  0  0  0  0  0  0  0  0
    8.3026   -1.8997   23.4518 N   0  0  0  0  0  0  0  0  0  0  0  0
    8.9873   -2.5441   24.4865 N   0  0  0  0  0  0  0  0  0  0  0  0
    8.8918   -2.1420   25.9129 C   0  0  0  0  0  0  0  0  0  0  0  0
    8.9415   -0.9759   26.2738 O   0  0  0  0  0  0  0  0  0  0  0  0
   10.2563   -4.6341   25.1221 C   0  0  0  0  0  0  0  0  0  0  0  0
    9.4844   -3.0459   26.5567 H   0  0  0  0  0  0  0  0  0  0  0  0
    9.9768   -4.2646   26.9788 H   0  0  0  0  0  0  0  0  0  0  0  0
   10.2449   -4.5608   25.3410 C   0  0  0  0  0  0  0  0  0  0  0  0
   11.4819   -4.8139   25.2001 H   0  0  0  0  0  0  0  0  0  0  0  0
   10.0281   -5.8286   25.3417 H   0  0  0  0  0  0  0  0  0  0  0  0
    9.5676   -3.8695   24.0765 C   0  0  0  0  0  0  0  0  0  0  0  0
    8.7527   -4.4382   23.5420 H   0  0  0  0  0  0  0  0  0  0  0  0
   10.2272   -3.6611   23.1911 H   0  0  0  0  0  0  0  0  0  0  0  0
    8.2481   -0.4179   23.4624 C   0  0  2  0  0  0  0  0  0  0  0  0
    9.1645    0.0167   23.8680 H   0  0  0  0  0  0  0  0  0  0  0  0
    6.9877   -0.0714   24.3604 C   0  0  0  0  0  0  0  0  0  0  0  0
    6.4682    0.8565   24.0019 H   0  0  0  0  0  0  0  0  0  0  0  0
    7.2830    0.1399   25.4113 H   0  0  0  0  0  0  0  0  0  0  0  0
    6.2462   -1.2976   24.2687 C   0  0  0  0  0  0  0  0  0  0  0  0
    7.4283   -2.8879   26.4273 H   0  0  0  0  0  0  0  0  0  0  0  0
    5.3640   -1.4336   24.8837 H   0  0  0  0  0  0  0  0  0  0  0  0
    8.0215    0.0194   22.0055 C   0  0  0  0  0  0  0  0  0  0  0  0
    8.9751    0.3138   21.5594 H   0  0  0  0  0  0  0  0  0  0  0  0
    7.3933    0.9217   22.0014 H   0  0  0  0  0  0  0  0  0  0  0  0
    5.5208    0.3517   20.0447 C   0  0  0  0  0  0  0  0  0  0  0  0
    4.9926    0.3721   21.0014 H   0  0  0  0  0  0  0  0  0  0  0  0
    5.0401    1.0968   18.9626 C   0  0  0  0  0  0  0  0  0  0  0  0
    4.1548    1.7176   19.0453 H   0  0  0  0  0  0  0  0  0  0  0  0
  1  2  1  0
  2  3  2  0
  3  4  1  0
  4  5  1  0
  4  6  2  0
  6  7  1  0
  7  8  1  6
  7  9  1  0
  9 10  1  0
  9 11  1  0
  9 12  1  0
 12 13  1  1
 12 14  1  0
 14 15  1  0
 15 16  1  0
 16 17  2  0
 16 18  1  0
 18 19  1  0
 18 20  1  0
 18 21  1  0
 21 22  1  0
 21 23  1  0
 21 24  1  0
 24 25  1  0
 24 26  1  0
 14 27  1  0
 27 28  1  1
 27 29  1  0
 29 30  1  0
 29 31  1  0
 29 32  1  0
 32 33  1  0
 32 34  1  0
 27 35  1  0
 35 36  1  0
 35 37  1  0
  6 38  1  0
 38 39  1  0
 38 40  2  0
 40 41  1  0
 40  2  1  0
 35  7  1  0
 32 12  1  0
 24 15  1  0
M  END
>  <plip>  (1) 
-0.03571428571428571

>  <filename>  (1) 
[H][c]1[n][c]([H])[c]([C@]2([H])[C]([H])([H])[C@@]3([H])[N]([N]4[C](=[O])[C]([H])([H])[C]([H])([H])[C]4([H])[H])[C@]([H])([C]([H])([H])[C]3([H])[H])[C]2([H])[H])[c]([H])[c]1[H]

$$$$
