
     RDKit          3D

 31 33  0  0  0  0  0  0  0  0999 V2000
    4.9314    1.8264   16.9419 H   0  0  0  0  0  0  0  0  0  0  0  0
    5.3908    1.3182   17.7881 C   0  0  0  0  0  0  0  0  0  0  0  0
    6.5501    0.6894   17.5385 N   0  0  0  0  0  0  0  0  0  0  0  0
    7.1470    0.0773   18.5683 C   0  0  0  0  0  0  0  0  0  0  0  0
    8.0843   -0.4280   18.3409 H   0  0  0  0  0  0  0  0  0  0  0  0
    6.6377    0.0310   19.8795 C   0  0  0  0  0  0  0  0  0  0  0  0
    7.3629   -0.7173   20.9335 C   0  0  0  0  0  0  0  0  0  0  0  0
    6.7595   -1.4428   21.9203 C   0  0  0  0  0  0  0  0  0  0  0  0
    5.7058   -1.5977   22.0706 H   0  0  0  0  0  0  0  0  0  0  0  0
    7.8734   -2.2508   22.9386 S   0  0  0  0  0  0  0  0  0  0  0  0
    9.2219   -1.5983   22.0665 C   0  0  0  0  0  0  0  0  0  0  0  0
   10.6582   -1.7564   22.5073 C   0  0  0  0  0  0  0  0  0  0  0  0
   10.7680   -2.6031   23.1959 H   0  0  0  0  0  0  0  0  0  0  0  0
   11.2732   -1.9692   21.6218 H   0  0  0  0  0  0  0  0  0  0  0  0
   11.1472   -0.4653   23.1554 C   0  0  0  0  0  0  0  0  0  0  0  0
   11.8073    0.5056   22.3866 C   0  0  0  0  0  0  0  0  0  0  0  0
   11.9857    0.2995   21.3340 H   0  0  0  0  0  0  0  0  0  0  0  0
   12.1965    1.7274   22.9372 C   0  0  0  0  0  0  0  0  0  0  0  0
   12.7662    2.4224   22.3307 H   0  0  0  0  0  0  0  0  0  0  0  0
   11.9034    2.0158   24.2722 C   0  0  0  0  0  0  0  0  0  0  0  0
   12.1506    2.9899   24.6811 H   0  0  0  0  0  0  0  0  0  0  0  0
   11.2503    1.0664   25.0639 C   0  0  0  0  0  0  0  0  0  0  0  0
   11.0124    1.2601   26.1052 H   0  0  0  0  0  0  0  0  0  0  0  0
   10.8579   -0.1489   24.4919 C   0  0  0  0  0  0  0  0  0  0  0  0
    9.8950   -1.2352   25.4459 Cl  0  0  0  0  0  0  0  0  0  0  0  0
    8.7881   -0.8256   21.0318 C   0  0  0  0  0  0  0  0  0  0  0  0
    9.4771   -0.2887   20.3864 H   0  0  0  0  0  0  0  0  0  0  0  0
    5.4183    0.6895   20.1118 C   0  0  0  0  0  0  0  0  0  0  0  0
    4.9803    0.7088   21.1101 H   0  0  0  0  0  0  0  0  0  0  0  0
    4.7867    1.3408   19.0500 C   0  0  0  0  0  0  0  0  0  0  0  0
    3.8481    1.8678   19.1834 H   0  0  0  0  0  0  0  0  0  0  0  0
  1  2  1  0
  2  3  2  0
  3  4  1  0
  4  5  1  0
  4  6  2  0
  6  7  1  0
  7  8  2  0
  8  9  1  0
  8 10  1  0
 10 11  1  0
 11 12  1  0
 12 13  1  0
 12 14  1  0
 12 15  1  0
 15 16  2  0
 16 17  1  0
 16 18  1  0
 18 19  1  0
 18 20  2  0
 20 21  1  0
 20 22  1  0
 22 23  1  0
 22 24  2  0
 24 25  1  0
 11 26  2  0
 26 27  1  0
  6 28  1  0
 28 29  1  0
 28 30  2  0
 30 31  1  0
 30  2  1  0
 26  7  1  0
 24 15  1  0
M  END
>  <plip>  (1) 
-0.06896551724137931

>  <filename>  (1) 
[H][c]1[n][c]([H])[c](-[c]2[c]([H])[s][c]([C]([H])([H])[c]3[c]([H])[c]([H])[c]([H])[c]([H])[c]3[Cl])[c]2[H])[c]([H])[c]1[H]

$$$$
