
     RDKit          3D

 27 29  0  0  0  0  0  0  0  0999 V2000
    4.9161    1.7929   16.9882 H   0  0  0  0  0  0  0  0  0  0  0  0
    5.3941    1.2994   17.8295 C   0  0  0  0  0  0  0  0  0  0  0  0
    6.5573    0.6864   17.5557 N   0  0  0  0  0  0  0  0  0  0  0  0
    7.1513    0.0422   18.5660 C   0  0  0  0  0  0  0  0  0  0  0  0
    8.1146   -0.4220   18.3693 H   0  0  0  0  0  0  0  0  0  0  0  0
    6.6162   -0.0528   19.8610 C   0  0  0  0  0  0  0  0  0  0  0  0
    7.5982   -0.8654   21.1000 S   0  0  0  0  0  0  0  0  0  0  0  0
    8.8394    0.7058   21.6918 S   0  0  0  0  0  0  0  0  0  0  0  0
    7.7896    1.4921   22.8677 C   0  0  0  0  0  0  0  0  0  0  0  0
    6.8241    2.4568   22.6855 C   0  0  0  0  0  0  0  0  0  0  0  0
    6.5742    2.9512   21.7578 H   0  0  0  0  0  0  0  0  0  0  0  0
    6.1364    2.6036   23.9322 C   0  0  0  0  0  0  0  0  0  0  0  0
    5.1008    3.4443   24.3823 C   0  0  0  0  0  0  0  0  0  0  0  0
    4.6517    4.1436   23.6792 H   0  0  0  0  0  0  0  0  0  0  0  0
    4.7037    3.3640   25.7143 C   0  0  0  0  0  0  0  0  0  0  0  0
    3.9116    4.0157   26.0781 H   0  0  0  0  0  0  0  0  0  0  0  0
    5.3243    2.4435   26.6054 C   0  0  0  0  0  0  0  0  0  0  0  0
    4.9941    2.4018   27.6429 H   0  0  0  0  0  0  0  0  0  0  0  0
    6.3431    1.5923   26.1839 C   0  0  0  0  0  0  0  0  0  0  0  0
    6.8324    0.8821   26.8533 H   0  0  0  0  0  0  0  0  0  0  0  0
    6.7307    1.6890   24.8395 C   0  0  0  0  0  0  0  0  0  0  0  0
    7.7154    1.0209   24.1554 N   0  0  0  0  0  0  0  0  0  0  0  0
    8.2860    0.2790   24.5227 H   0  0  0  0  0  0  0  0  0  0  0  0
    5.4121    0.6068   20.1445 C   0  0  0  0  0  0  0  0  0  0  0  0
    5.0082    0.6111   21.1631 H   0  0  0  0  0  0  0  0  0  0  0  0
    4.7964    1.3054   19.0966 C   0  0  0  0  0  0  0  0  0  0  0  0
    3.8717    1.8509   19.2536 H   0  0  0  0  0  0  0  0  0  0  0  0
  1  2  1  0
  2  3  2  0
  3  4  1  0
  4  5  1  0
  4  6  2  0
  6  7  1  0
  7  8  1  0
  8  9  1  0
  9 10  2  0
 10 11  1  0
 10 12  1  0
 12 13  2  0
 13 14  1  0
 13 15  1  0
 15 16  1  0
 15 17  2  0
 17 18  1  0
 17 19  1  0
 19 20  1  0
 19 21  2  0
 21 22  1  0
 22 23  1  0
  6 24  1  0
 24 25  1  0
 24 26  2  0
 26 27  1  0
 26  2  1  0
 22  9  1  0
 21 12  1  0
M  END
>  <plip>  (1) 
-0.0

>  <filename>  (1) 
[H][c]1[n][c]([H])[c]([S][S][c]2[c]([H])[c]3[c]([H])[c]([H])[c]([H])[c]([H])[c]3[n]2[H])[c]([H])[c]1[H]

$$$$
