
     RDKit          3D

 34 34  0  0  0  0  0  0  0  0999 V2000
    5.0848    1.7300   17.0660 H   0  0  0  0  0  0  0  0  0  0  0  0
    5.5123    1.2226   17.9359 C   0  0  0  0  0  0  0  0  0  0  0  0
    6.6671    0.5696   17.7364 N   0  0  0  0  0  0  0  0  0  0  0  0
    7.2275   -0.0491   18.7748 C   0  0  0  0  0  0  0  0  0  0  0  0
    8.1593   -0.5883   18.6066 H   0  0  0  0  0  0  0  0  0  0  0  0
    6.6534   -0.0312   20.0350 C   0  0  0  0  0  0  0  0  0  0  0  0
    7.5432   -0.9108   21.2554 S   0  0  0  0  0  0  0  0  0  0  0  0
    8.4975   -1.7663   20.5487 O   0  0  0  0  0  0  0  0  0  0  0  0
    6.5645   -1.5024   22.1605 O   0  0  0  0  0  0  0  0  0  0  0  0
    8.5627    0.4129   22.0788 C   0  0  0  0  0  0  0  0  0  0  0  0
    7.7048    1.3992   22.8865 C   0  0  0  0  0  0  0  0  0  0  0  0
    7.0761    2.0170   22.2346 H   0  0  0  0  0  0  0  0  0  0  0  0
    8.3561    2.0768   23.4612 H   0  0  0  0  0  0  0  0  0  0  0  0
    7.0627    0.8620   23.5898 H   0  0  0  0  0  0  0  0  0  0  0  0
    9.4408    1.1334   21.0457 C   0  0  0  0  0  0  0  0  0  0  0  0
   10.1833    1.7641   21.5575 H   0  0  0  0  0  0  0  0  0  0  0  0
    8.8441    1.7708   20.3881 H   0  0  0  0  0  0  0  0  0  0  0  0
    9.9778    0.3935   20.4461 H   0  0  0  0  0  0  0  0  0  0  0  0
    9.4795   -0.4439   22.9512 C   0  0  0  0  0  0  0  0  0  0  0  0
   10.1790    0.2346   23.4757 H   0  0  0  0  0  0  0  0  0  0  0  0
   10.1024   -1.0798   22.2945 H   0  0  0  0  0  0  0  0  0  0  0  0
    8.7264   -1.1880   23.9216 N   0  0  0  0  0  0  0  0  0  0  0  0
    8.2131   -1.9714   23.5372 H   0  0  0  0  0  0  0  0  0  0  0  0
    9.4683   -1.4999   25.1329 C   0  0  0  0  0  0  0  0  0  0  0  0
    9.0496   -2.4038   25.5877 H   0  0  0  0  0  0  0  0  0  0  0  0
   10.5289   -1.7283   24.9110 H   0  0  0  0  0  0  0  0  0  0  0  0
    9.4048   -0.3528   26.1454 C   0  0  0  0  0  0  0  0  0  0  0  0
    9.9567   -0.6017   27.0579 H   0  0  0  0  0  0  0  0  0  0  0  0
    8.3668   -0.1394   26.4208 H   0  0  0  0  0  0  0  0  0  0  0  0
    9.8385    0.5735   25.7504 H   0  0  0  0  0  0  0  0  0  0  0  0
    5.4449    0.6280   20.2692 C   0  0  0  0  0  0  0  0  0  0  0  0
    4.9644    0.6292   21.2500 H   0  0  0  0  0  0  0  0  0  0  0  0
    4.8632    1.2693   19.1739 C   0  0  0  0  0  0  0  0  0  0  0  0
    3.9272    1.8071   19.2702 H   0  0  0  0  0  0  0  0  0  0  0  0
  1  2  1  0
  2  3  2  0
  3  4  1  0
  4  5  1  0
  4  6  2  0
  6  7  1  0
  7  8  2  0
  7  9  2  0
  7 10  1  0
 10 11  1  0
 11 12  1  0
 11 13  1  0
 11 14  1  0
 10 15  1  0
 15 16  1  0
 15 17  1  0
 15 18  1  0
 10 19  1  0
 19 20  1  0
 19 21  1  0
 19 22  1  0
 22 23  1  0
 22 24  1  0
 24 25  1  0
 24 26  1  0
 24 27  1  0
 27 28  1  0
 27 29  1  0
 27 30  1  0
  6 31  1  0
 31 32  1  0
 31 33  2  0
 33 34  1  0
 33  2  1  0
M  END
>  <plip>  (1) 
-0.034482758620689655

>  <filename>  (1) 
[H][c]1[n][c]([H])[c]([S](=[O])(=[O])[C]([C]([H])([H])[H])([C]([H])([H])[H])[C]([H])([H])[N]([H])[C]([H])([H])[C]([H])([H])[H])[c]([H])[c]1[H]

$$$$
