
     RDKit          3D

 28 29  0  0  0  0  0  0  0  0999 V2000
    4.9118    1.7777   16.9989 H   0  0  0  0  0  0  0  0  0  0  0  0
    5.4004    1.2919   17.8442 C   0  0  0  0  0  0  0  0  0  0  0  0
    6.5692    0.6726   17.5946 N   0  0  0  0  0  0  0  0  0  0  0  0
    7.1806    0.0578   18.6123 C   0  0  0  0  0  0  0  0  0  0  0  0
    8.1247   -0.4359   18.3915 H   0  0  0  0  0  0  0  0  0  0  0  0
    6.6706    0.0019   19.9337 C   0  0  0  0  0  0  0  0  0  0  0  0
    7.4048   -0.7160   20.8393 O   0  0  0  0  0  0  0  0  0  0  0  0
    7.0500   -0.7485   22.2365 C   0  0  2  0  0  0  0  0  0  0  0  0
    6.0123   -1.0897   22.3223 H   0  0  0  0  0  0  0  0  0  0  0  0
    7.1864    0.6062   22.9109 C   0  0  0  0  0  0  0  0  0  0  0  0
    6.2298    1.0501   23.8342 C   0  0  0  0  0  0  0  0  0  0  0  0
    5.3672    0.4258   24.0459 H   0  0  0  0  0  0  0  0  0  0  0  0
    6.3513    2.2768   24.4886 C   0  0  0  0  0  0  0  0  0  0  0  0
    5.6021    2.6240   25.1899 H   0  0  0  0  0  0  0  0  0  0  0  0
    7.4672    3.0590   24.2120 C   0  0  0  0  0  0  0  0  0  0  0  0
    7.5996    4.2423   24.8284 F   0  0  0  0  0  0  0  0  0  0  0  0
    8.4594    2.6605   23.3232 C   0  0  0  0  0  0  0  0  0  0  0  0
    9.3269    3.2788   23.1254 H   0  0  0  0  0  0  0  0  0  0  0  0
    8.2957    1.4317   22.6924 C   0  0  0  0  0  0  0  0  0  0  0  0
    9.2690    1.0367   21.8541 F   0  0  0  0  0  0  0  0  0  0  0  0
    7.9422   -1.7834   22.9002 C   0  0  0  0  0  0  0  0  0  0  0  0
    8.9913   -1.4915   22.8238 H   0  0  0  0  0  0  0  0  0  0  0  0
    7.6889   -1.8642   23.9626 H   0  0  0  0  0  0  0  0  0  0  0  0
    7.8068   -2.7622   22.4376 H   0  0  0  0  0  0  0  0  0  0  0  0
    5.4496    0.6475   20.1782 C   0  0  0  0  0  0  0  0  0  0  0  0
    5.0032    0.6324   21.1753 H   0  0  0  0  0  0  0  0  0  0  0  0
    4.8142    1.3061   19.1119 C   0  0  0  0  0  0  0  0  0  0  0  0
    3.8796    1.8387   19.2633 H   0  0  0  0  0  0  0  0  0  0  0  0
  1  2  1  0
  2  3  2  0
  3  4  1  0
  4  5  1  0
  4  6  2  0
  6  7  1  0
  7  8  1  0
  8  9  1  6
  8 10  1  0
 10 11  2  0
 11 12  1  0
 11 13  1  0
 13 14  1  0
 13 15  2  0
 15 16  1  0
 15 17  1  0
 17 18  1  0
 17 19  2  0
 19 20  1  0
  8 21  1  0
 21 22  1  0
 21 23  1  0
 21 24  1  0
  6 25  1  0
 25 26  1  0
 25 27  2  0
 27 28  1  0
 27  2  1  0
 19 10  1  0
M  END
>  <plip>  (1) 
-0.03571428571428571

>  <filename>  (1) 
[H][c]1[n][c]([H])[c]([O][C@]([H])([c]2[c]([H])[c]([H])[c]([F])[c]([H])[c]2[F])[C]([H])([H])[H])[c]([H])[c]1[H]

$$$$
