
     RDKit          3D

 47 49  0  0  0  0  0  0  0  0999 V2000
    6.4641   -5.7215   29.2078 C   0  0  0  0  0  0  0  0  0  0  0  0
    6.6638   -6.7720   28.1176 C   0  0  0  0  0  0  0  0  0  0  0  0
    6.1584   -6.3790   26.7219 C   0  0  0  0  0  0  0  0  0  0  0  0
    6.9478   -5.2864   25.9826 C   0  0  0  0  0  0  0  0  0  0  0  0
    8.3695   -5.7172   25.5969 C   0  0  0  0  0  0  0  0  0  0  0  0
    8.3757   -6.5480   24.8844 H   0  0  0  0  0  0  0  0  0  0  0  0
    8.9139   -4.8885   25.1303 H   0  0  0  0  0  0  0  0  0  0  0  0
    8.9519   -6.0348   26.4679 H   0  0  0  0  0  0  0  0  0  0  0  0
    6.1625   -4.7293   24.7789 C   0  0  0  0  0  0  0  0  0  0  0  0
    5.7885   -5.7015   23.6485 C   0  0  0  0  0  0  0  0  0  0  0  0
    5.1044   -4.9660   22.4714 C   0  0  0  0  0  0  0  0  0  0  0  0
    5.9820   -3.9008   21.8878 C   0  0  0  0  0  0  0  0  0  0  0  0
    5.7416   -2.6491   21.6317 N   0  0  0  0  0  0  0  0  0  0  0  0
    7.0061   -2.1732   21.3274 C   0  0  0  0  0  0  0  0  0  0  0  0
    7.3440   -0.7243   21.0733 C   0  0  0  0  0  0  0  0  0  0  0  0
    6.6135   -0.0280   19.9437 C   0  0  0  0  0  0  0  0  0  0  0  0
    5.3873    0.6214   20.1421 C   0  0  0  0  0  0  0  0  0  0  0  0
    4.7891    1.2926   19.0704 C   0  0  0  0  0  0  0  0  0  0  0  0
    5.4408    1.2895   17.8314 C   0  0  0  0  0  0  0  0  0  0  0  0
    6.6044    0.6607   17.6086 N   0  0  0  0  0  0  0  0  0  0  0  0
    7.1642    0.0267   18.6472 C   0  0  0  0  0  0  0  0  0  0  0  0
    8.1120   -0.4749   18.4597 H   0  0  0  0  0  0  0  0  0  0  0  0
    5.0031    1.7902   16.9714 H   0  0  0  0  0  0  0  0  0  0  0  0
    3.8513    1.8273   19.1790 H   0  0  0  0  0  0  0  0  0  0  0  0
    4.9357    0.6151   21.1345 H   0  0  0  0  0  0  0  0  0  0  0  0
    8.7830   -0.3017   21.3103 C   0  0  0  0  0  0  0  0  0  0  0  0
    7.7295    0.1280   22.2842 C   0  0  0  0  0  0  0  0  0  0  0  0
    7.7145   -0.3327   23.2714 H   0  0  0  0  0  0  0  0  0  0  0  0
    7.4231    1.1751   22.2642 H   0  0  0  0  0  0  0  0  0  0  0  0
    9.4890   -1.0712   21.6227 H   0  0  0  0  0  0  0  0  0  0  0  0
    9.2052    0.4566   20.6506 H   0  0  0  0  0  0  0  0  0  0  0  0
    7.9275   -3.1026   21.3098 N   0  0  0  0  0  0  0  0  0  0  0  0
    7.2522   -4.2486   21.6606 O   0  0  0  0  0  0  0  0  0  0  0  0
    4.8363   -5.6677   21.6735 H   0  0  0  0  0  0  0  0  0  0  0  0
    4.1797   -4.4762   22.7877 H   0  0  0  0  0  0  0  0  0  0  0  0
    6.6892   -6.2070   23.2814 H   0  0  0  0  0  0  0  0  0  0  0  0
    5.1279   -6.4973   24.0152 H   0  0  0  0  0  0  0  0  0  0  0  0
    5.2389   -4.2664   25.1525 H   0  0  0  0  0  0  0  0  0  0  0  0
    6.7562   -3.9060   24.3572 H   0  0  0  0  0  0  0  0  0  0  0  0
    7.0588   -4.4332   26.6704 H   0  0  0  0  0  0  0  0  0  0  0  0
    5.1113   -6.0519   26.8157 H   0  0  0  0  0  0  0  0  0  0  0  0
    6.1241   -7.2803   26.0957 H   0  0  0  0  0  0  0  0  0  0  0  0
    7.7250   -7.0485   28.0761 H   0  0  0  0  0  0  0  0  0  0  0  0
    6.1346   -7.6838   28.4199 H   0  0  0  0  0  0  0  0  0  0  0  0
    5.4156   -5.4080   29.2655 H   0  0  0  0  0  0  0  0  0  0  0  0
    6.7406   -6.1276   30.1860 H   0  0  0  0  0  0  0  0  0  0  0  0
    7.0736   -4.8272   29.0416 H   0  0  0  0  0  0  0  0  0  0  0  0
  1  2  1  0
  2  3  1  0
  3  4  1  0
  4  5  1  0
  5  6  1  0
  5  7  1  0
  5  8  1  0
  4  9  1  0
  9 10  1  0
 10 11  1  0
 11 12  1  0
 12 13  2  0
 13 14  1  0
 14 15  1  0
 15 16  1  0
 16 17  2  0
 17 18  1  0
 18 19  2  0
 19 20  1  0
 20 21  2  0
 21 22  1  0
 19 23  1  0
 18 24  1  0
 17 25  1  0
 15 26  1  0
 26 27  1  0
 27 28  1  0
 27 29  1  0
 26 30  1  0
 26 31  1  0
 14 32  2  0
 32 33  1  0
 11 34  1  0
 11 35  1  0
 10 36  1  0
 10 37  1  0
  9 38  1  0
  9 39  1  0
  4 40  1  0
  3 41  1  0
  3 42  1  0
  2 43  1  0
  2 44  1  0
  1 45  1  0
  1 46  1  0
  1 47  1  0
 33 12  1  0
 27 15  1  0
 21 16  1  0
M  END
>  <plip>  (1) 
-0.06896551724137931

>  <filename>  (1) 
[H][c]1[n][c]([H])[c]([C]2([c]3[n][o][c]([C]([H])([H])[C]([H])([H])[C]([H])([H])[C]([H])([C]([H])([H])[H])[C]([H])([H])[C]([H])([H])[C]([H])([H])[H])[n]3)[C]([H])([H])[C]2([H])[H])[c]([H])[c]1[H]

$$$$
