
     RDKit          3D

 34 35  0  0  0  0  0  0  0  0999 V2000
    9.4973   -1.8153   20.7853 C   0  0  0  0  0  0  0  0  0  0  0  0
    8.7491   -0.5516   21.1951 C   0  0  0  0  0  0  0  0  0  0  0  0
    7.3011   -0.6783   20.9997 N   0  0  0  0  0  0  0  0  0  0  0  0
    6.5507   -1.5396   21.8332 C   0  0  0  0  0  0  0  0  0  0  0  0
    5.7851   -2.3749   21.3938 O   0  0  0  0  0  0  0  0  0  0  0  0
    6.7574   -1.3551   23.2934 C   0  0  0  0  0  0  0  0  0  0  0  0
    7.0794   -0.1293   23.9027 C   0  0  0  0  0  0  0  0  0  0  0  0
    7.1652   -0.0713   25.2924 C   0  0  0  0  0  0  0  0  0  0  0  0
    7.6873    1.4246   26.0814 S   0  0  0  0  0  0  0  0  0  0  0  0
    9.4705    1.1568   25.9529 C   0  0  0  0  0  0  0  0  0  0  0  0
    9.7802    0.2909   26.5420 H   0  0  0  0  0  0  0  0  0  0  0  0
    9.9558    2.0537   26.3327 H   0  0  0  0  0  0  0  0  0  0  0  0
    9.7670    1.0106   24.9106 H   0  0  0  0  0  0  0  0  0  0  0  0
    6.9148   -1.2512   26.0125 C   0  0  0  0  0  0  0  0  0  0  0  0
    6.5999   -2.4204   25.4371 N   0  0  0  0  0  0  0  0  0  0  0  0
    6.5067   -2.4618   24.1068 C   0  0  0  0  0  0  0  0  0  0  0  0
    6.2335   -3.4147   23.6585 H   0  0  0  0  0  0  0  0  0  0  0  0
    6.9705   -1.2339   27.0981 H   0  0  0  0  0  0  0  0  0  0  0  0
    7.2575    0.7716   23.3219 H   0  0  0  0  0  0  0  0  0  0  0  0
    6.6508   -0.0256   19.9102 C   0  0  0  0  0  0  0  0  0  0  0  0
    5.4238    0.6261   20.1284 C   0  0  0  0  0  0  0  0  0  0  0  0
    4.8100    1.2996   19.0729 C   0  0  0  0  0  0  0  0  0  0  0  0
    5.4300    1.2889   17.8204 C   0  0  0  0  0  0  0  0  0  0  0  0
    6.5944    0.6696   17.5779 N   0  0  0  0  0  0  0  0  0  0  0  0
    7.1970    0.0502   18.6054 C   0  0  0  0  0  0  0  0  0  0  0  0
    8.1551   -0.4175   18.3801 H   0  0  0  0  0  0  0  0  0  0  0  0
    4.9747    1.8022   16.9751 H   0  0  0  0  0  0  0  0  0  0  0  0
    3.8766    1.8408   19.2143 H   0  0  0  0  0  0  0  0  0  0  0  0
    4.9685    0.6143   21.1192 H   0  0  0  0  0  0  0  0  0  0  0  0
    8.9671   -0.2969   22.2382 H   0  0  0  0  0  0  0  0  0  0  0  0
    9.1062    0.3051   20.6121 H   0  0  0  0  0  0  0  0  0  0  0  0
    9.1014   -2.7298   21.2376 H   0  0  0  0  0  0  0  0  0  0  0  0
    9.3996   -1.9391   19.7072 H   0  0  0  0  0  0  0  0  0  0  0  0
   10.5574   -1.7348   21.0337 H   0  0  0  0  0  0  0  0  0  0  0  0
  1  2  1  0
  2  3  1  0
  3  4  1  0
  4  5  2  0
  4  6  1  0
  6  7  2  0
  7  8  1  0
  8  9  1  0
  9 10  1  0
 10 11  1  0
 10 12  1  0
 10 13  1  0
  8 14  2  0
 14 15  1  0
 15 16  2  0
 16 17  1  0
 14 18  1  0
  7 19  1  0
  3 20  1  0
 20 21  2  0
 21 22  1  0
 22 23  2  0
 23 24  1  0
 24 25  2  0
 25 26  1  0
 23 27  1  0
 22 28  1  0
 21 29  1  0
  2 30  1  0
  2 31  1  0
  1 32  1  0
  1 33  1  0
  1 34  1  0
 16  6  1  0
 25 20  1  0
M  END
>  <plip>  (1) 
-0.07142857142857142

>  <filename>  (1) 
[H][c]1[n][c]([H])[c]([N]([C](=[O])[c]2[c]([H])[n][c]([H])[c]([S][C]([H])([H])[H])[c]2[H])[C]([H])([H])[C]([H])([H])[H])[c]([H])[c]1[H]

$$$$
