
     RDKit          3D

 23 23  0  0  0  0  0  0  0  0999 V2000
    7.8622   -0.5447   25.3920 H   0  0  0  0  0  0  0  0  0  0  0  0
    8.6477   -0.0411   24.8291 C   0  0  0  0  0  0  0  0  0  0  0  0
    8.9368    0.9510   25.1643 H   0  0  0  0  0  0  0  0  0  0  0  0
    9.2169   -0.6083   23.7712 C   0  0  0  0  0  0  0  0  0  0  0  0
    9.9959   -0.0803   23.2158 H   0  0  0  0  0  0  0  0  0  0  0  0
    8.7927   -1.9782   23.2834 C   0  0  0  0  0  0  0  0  0  0  0  0
    8.9166   -2.7029   24.0882 H   0  0  0  0  0  0  0  0  0  0  0  0
    9.4026   -2.3122   22.4406 H   0  0  0  0  0  0  0  0  0  0  0  0
    7.3897   -2.1059   22.9879 O   0  0  0  0  0  0  0  0  0  0  0  0
    6.8455   -1.3842   21.9681 C   0  0  0  0  0  0  0  0  0  0  0  0
    5.7636   -1.4500   21.9526 H   0  0  0  0  0  0  0  0  0  0  0  0
    7.4106   -0.7023   20.9704 C   0  0  0  0  0  0  0  0  0  0  0  0
    8.7652   -0.6678   20.8102 F   0  0  0  0  0  0  0  0  0  0  0  0
    6.6732    0.0166   19.9107 C   0  0  0  0  0  0  0  0  0  0  0  0
    7.1864    0.0723   18.5967 C   0  0  0  0  0  0  0  0  0  0  0  0
    8.1264   -0.4251   18.3702 H   0  0  0  0  0  0  0  0  0  0  0  0
    6.5677    0.6747   17.5759 N   0  0  0  0  0  0  0  0  0  0  0  0
    5.4028    1.2896   17.8407 C   0  0  0  0  0  0  0  0  0  0  0  0
    4.9152    1.7773   16.9996 H   0  0  0  0  0  0  0  0  0  0  0  0
    4.8063    1.3085   19.1075 C   0  0  0  0  0  0  0  0  0  0  0  0
    3.8736    1.8421   19.2611 H   0  0  0  0  0  0  0  0  0  0  0  0
    5.4400    0.6447   20.1568 C   0  0  0  0  0  0  0  0  0  0  0  0
    5.0035    0.6428   21.1600 H   0  0  0  0  0  0  0  0  0  0  0  0
  1  2  1  0
  2  3  1  0
  2  4  2  3
  4  5  1  0
  4  6  1  0
  6  7  1  0
  6  8  1  0
  6  9  1  0
  9 10  1  0
 10 11  1  0
 10 12  2  3
 12 13  1  0
 12 14  1  0
 14 15  2  0
 15 16  1  0
 15 17  1  0
 17 18  2  0
 18 19  1  0
 18 20  1  0
 20 21  1  0
 20 22  2  0
 22 23  1  0
 22 14  1  0
M  END
>  <plip>  (1) 
-0.034482758620689655

>  <filename>  (1) 
[H][C]([H])=[C]([H])[C]([H])([H])[O][C]([H])=[C]([F])[c]1[c]([H])[n][c]([H])[c]([H])[c]1[H]

$$$$
