
     RDKit          3D

 38 40  0  0  0  0  0  0  0  0999 V2000
    4.9106    1.7916   16.9877 H   0  0  0  0  0  0  0  0  0  0  0  0
    5.3937    1.3004   17.8277 C   0  0  0  0  0  0  0  0  0  0  0  0
    6.5576    0.6863   17.5590 N   0  0  0  0  0  0  0  0  0  0  0  0
    7.1755    0.0766   18.5815 C   0  0  0  0  0  0  0  0  0  0  0  0
    8.1180   -0.4147   18.3584 H   0  0  0  0  0  0  0  0  0  0  0  0
    6.6769    0.0036   19.9082 C   0  0  0  0  0  0  0  0  0  0  0  0
    7.3719   -0.6758   20.9235 N   0  0  0  0  0  0  0  0  0  0  0  0
    6.6597   -1.6709   21.6982 C   0  0  0  0  0  0  0  0  0  0  0  0
    6.1771   -2.4177   21.0509 H   0  0  0  0  0  0  0  0  0  0  0  0
    7.3280   -2.1861   22.3979 H   0  0  0  0  0  0  0  0  0  0  0  0
    5.8878   -1.2018   22.3078 H   0  0  0  0  0  0  0  0  0  0  0  0
    8.7768   -0.3708   21.2322 C   0  0  1  0  0  0  0  0  0  0  0  0
    9.0561    0.4604   20.5728 H   0  0  0  0  0  0  0  0  0  0  0  0
    8.9617    0.0975   22.6739 C   0  0  0  0  0  0  0  0  0  0  0  0
    9.4224   -0.7695   23.6483 C   0  0  0  0  0  0  0  0  0  0  0  0
    9.6991   -1.7914   23.3900 H   0  0  0  0  0  0  0  0  0  0  0  0
    9.5589   -0.3617   25.0016 C   0  0  0  0  0  0  0  0  0  0  0  0
    9.9358   -1.0763   25.7278 H   0  0  0  0  0  0  0  0  0  0  0  0
    9.2153    0.9110   25.3799 C   0  0  0  0  0  0  0  0  0  0  0  0
    9.3170    1.2358   26.4133 H   0  0  0  0  0  0  0  0  0  0  0  0
    8.7029    1.8376   24.4166 C   0  0  0  0  0  0  0  0  0  0  0  0
    8.3219    3.1572   24.8116 C   0  0  0  0  0  0  0  0  0  0  0  0
    8.4453    3.4289   25.8587 H   0  0  0  0  0  0  0  0  0  0  0  0
    7.8116    4.0501   23.9029 C   0  0  0  0  0  0  0  0  0  0  0  0
    7.5230    5.0531   24.2181 H   0  0  0  0  0  0  0  0  0  0  0  0
    7.6547    3.6671   22.5415 C   0  0  0  0  0  0  0  0  0  0  0  0
    7.2506    4.3868   21.8323 H   0  0  0  0  0  0  0  0  0  0  0  0
    8.0155    2.4019   22.1208 C   0  0  0  0  0  0  0  0  0  0  0  0
    7.8733    2.1294   21.0742 H   0  0  0  0  0  0  0  0  0  0  0  0
    8.5583    1.4387   23.0451 C   0  0  0  0  0  0  0  0  0  0  0  0
    9.6569   -1.5553   20.8331 C   0  0  0  0  0  0  0  0  0  0  0  0
    9.3472   -2.4907   21.3073 H   0  0  0  0  0  0  0  0  0  0  0  0
    9.5163   -1.6883   19.7608 H   0  0  0  0  0  0  0  0  0  0  0  0
   10.7085   -1.3579   21.0729 H   0  0  0  0  0  0  0  0  0  0  0  0
    5.4437    0.6358   20.1559 C   0  0  0  0  0  0  0  0  0  0  0  0
    5.0320    0.6192   21.1663 H   0  0  0  0  0  0  0  0  0  0  0  0
    4.8095    1.3062   19.1011 C   0  0  0  0  0  0  0  0  0  0  0  0
    3.8789    1.8374   19.2589 H   0  0  0  0  0  0  0  0  0  0  0  0
  1  2  1  0
  2  3  2  0
  3  4  1  0
  4  5  1  0
  4  6  2  0
  6  7  1  0
  7  8  1  0
  8  9  1  0
  8 10  1  0
  8 11  1  0
  7 12  1  0
 12 13  1  6
 12 14  1  0
 14 15  2  0
 15 16  1  0
 15 17  1  0
 17 18  1  0
 17 19  2  0
 19 20  1  0
 19 21  1  0
 21 22  2  0
 22 23  1  0
 22 24  1  0
 24 25  1  0
 24 26  2  0
 26 27  1  0
 26 28  1  0
 28 29  1  0
 28 30  2  0
 12 31  1  0
 31 32  1  0
 31 33  1  0
 31 34  1  0
  6 35  1  0
 35 36  1  0
 35 37  2  0
 37 38  1  0
 37  2  1  0
 30 14  1  0
 30 21  1  0
M  END
>  <plip>  (1) 
-0.03571428571428571

>  <filename>  (1) 
[H][c]1[n][c]([H])[c]([N]([C]([H])([H])[H])[C@@]([H])([c]2[c]([H])[c]([H])[c]([H])[c]3[c]([H])[c]([H])[c]([H])[c]([H])[c]23)[C]([H])([H])[H])[c]([H])[c]1[H]

$$$$
