
     RDKit          3D

 46 48  0  0  0  0  0  0  0  0999 V2000
    8.8445    2.6506   22.0189 C   0  0  0  0  0  0  0  0  0  0  0  0
    7.8490    2.0256   22.9960 C   0  0  0  0  0  0  0  0  0  0  0  0
    8.5418    1.0525   23.9113 N   0  0  0  0  0  4  0  0  0  0  0  0
    8.8935   -0.2701   23.3590 C   0  0  0  0  0  0  0  0  0  0  0  0
    7.6494   -1.1346   23.2535 C   0  0  0  0  0  0  0  0  0  0  0  0
    7.1191   -1.7851   24.3784 C   0  0  0  0  0  0  0  0  0  0  0  0
    6.1064   -2.7423   24.2445 C   0  0  0  0  0  0  0  0  0  0  0  0
    5.6001   -3.0445   22.9748 C   0  0  0  0  0  0  0  0  0  0  0  0
    6.0522   -2.3405   21.8520 C   0  0  0  0  0  0  0  0  0  0  0  0
    7.0252   -1.3510   22.0094 C   0  0  0  0  0  0  0  0  0  0  0  0
    7.5103   -0.6345   20.9330 O   0  0  0  0  0  0  0  0  0  0  0  0
    6.7059   -0.0467   19.9859 C   0  0  0  0  0  0  0  0  0  0  0  0
    5.4776    0.5718   20.2466 C   0  0  0  0  0  0  0  0  0  0  0  0
    4.8470    1.2397   19.1852 C   0  0  0  0  0  0  0  0  0  0  0  0
    5.4525    1.2447   17.9242 C   0  0  0  0  0  0  0  0  0  0  0  0
    6.6180    0.6257   17.6676 N   0  0  0  0  0  0  0  0  0  0  0  0
    7.2253   -0.0012   18.6793 C   0  0  0  0  0  0  0  0  0  0  0  0
    8.1732   -0.4982   18.4738 H   0  0  0  0  0  0  0  0  0  0  0  0
    4.9904    1.7606   17.0845 H   0  0  0  0  0  0  0  0  0  0  0  0
    3.9077    1.7676   19.3224 H   0  0  0  0  0  0  0  0  0  0  0  0
    5.0437    0.5238   21.2471 H   0  0  0  0  0  0  0  0  0  0  0  0
    5.6812   -2.5335   20.8491 H   0  0  0  0  0  0  0  0  0  0  0  0
    4.8398   -3.8108   22.8663 H   0  0  0  0  0  0  0  0  0  0  0  0
    5.7259   -3.2540   25.1268 H   0  0  0  0  0  0  0  0  0  0  0  0
    7.5040   -1.5506   25.3717 H   0  0  0  0  0  0  0  0  0  0  0  0
    9.3474   -0.1687   22.3684 H   0  0  0  0  0  0  0  0  0  0  0  0
    9.6211   -0.7705   24.0083 H   0  0  0  0  0  0  0  0  0  0  0  0
    9.3391    1.5640   24.3197 H   0  0  0  0  0  0  0  0  0  0  0  0
    7.9007    0.8921   24.7133 H   0  0  0  0  0  0  0  0  0  0  0  0
    7.1258    3.0422   23.8677 C   0  0  0  0  0  0  0  0  0  0  0  0
    5.7372    3.2030   23.7107 C   0  0  0  0  0  0  0  0  0  0  0  0
    5.0214    4.1749   24.4156 C   0  0  0  0  0  0  0  0  0  0  0  0
    5.6911    5.0286   25.2990 C   0  0  0  0  0  0  0  0  0  0  0  0
    7.0682    4.8979   25.4853 C   0  0  0  0  0  0  0  0  0  0  0  0
    7.7602    3.8865   24.8095 C   0  0  0  0  0  0  0  0  0  0  0  0
    9.1860    3.7366   25.1569 N   0  0  0  0  0  4  0  0  0  0  0  0
    9.5554    2.6557   25.6218 O   0  0  0  0  0  0  0  0  0  0  0  0
    9.9246    4.6926   24.9972 O   0  0  0  0  0  1  0  0  0  0  0  0
    7.6221    5.5644   26.1400 H   0  0  0  0  0  0  0  0  0  0  0  0
    5.1547    5.8143   25.8264 H   0  0  0  0  0  0  0  0  0  0  0  0
    3.9487    4.2798   24.2662 H   0  0  0  0  0  0  0  0  0  0  0  0
    5.2154    2.5648   23.0008 H   0  0  0  0  0  0  0  0  0  0  0  0
    7.0898    1.4823   22.4152 H   0  0  0  0  0  0  0  0  0  0  0  0
    8.3458    3.3968   21.3943 H   0  0  0  0  0  0  0  0  0  0  0  0
    9.2573    1.8784   21.3612 H   0  0  0  0  0  0  0  0  0  0  0  0
    9.6767    3.1412   22.5329 H   0  0  0  0  0  0  0  0  0  0  0  0
  1  2  1  0
  2  3  1  0
  3  4  1  0
  4  5  1  0
  5  6  2  0
  6  7  1  0
  7  8  2  0
  8  9  1  0
  9 10  2  0
 10 11  1  0
 11 12  1  0
 12 13  2  0
 13 14  1  0
 14 15  2  0
 15 16  1  0
 16 17  2  0
 17 18  1  0
 15 19  1  0
 14 20  1  0
 13 21  1  0
  9 22  1  0
  8 23  1  0
  7 24  1  0
  6 25  1  0
  4 26  1  0
  4 27  1  0
  3 28  1  0
  3 29  1  0
  2 30  1  0
 30 31  2  0
 31 32  1  0
 32 33  2  0
 33 34  1  0
 34 35  2  0
 35 36  1  0
 36 37  2  0
 36 38  1  0
 34 39  1  0
 33 40  1  0
 32 41  1  0
 31 42  1  0
  2 43  1  0
  1 44  1  0
  1 45  1  0
  1 46  1  0
 10  5  1  0
 17 12  1  0
 35 30  1  0
M  CHG  3   3   1  36   1  38  -1
M  END
>  <plip>  (1) 
-0.034482758620689655

>  <filename>  (1) 
[H][c]1[n][c]([H])[c]([O][c]2[c]([H])[c]([H])[c]([H])[c]([H])[c]2[C]([H])([H])[N+]([H])([H])[C]([H])([c]2[c]([H])[c]([H])[c]([H])[c]([H])[c]2[N+](=[O])[O-])[C]([H])([H])[H])[c]([H])[c]1[H]

$$$$
