
     RDKit          3D

 47 49  0  0  0  0  0  0  0  0999 V2000
    9.2060    0.6921   20.8350 C   0  0  0  0  0  0  0  0  0  0  0  0
    8.3238   -0.4100   21.4035 C   0  0  0  0  0  0  0  0  0  0  0  0
    7.0818   -0.6689   20.9707 C   0  0  0  0  0  0  0  0  0  0  0  0
    6.4292    0.0371   19.8473 C   0  0  0  0  0  0  0  0  0  0  0  0
    5.2147    0.7184   20.0177 C   0  0  0  0  0  0  0  0  0  0  0  0
    4.6604    1.4052   18.9362 C   0  0  0  0  0  0  0  0  0  0  0  0
    5.3499    1.3945   17.7173 C   0  0  0  0  0  0  0  0  0  0  0  0
    6.4967    0.7266   17.5167 N   0  0  0  0  0  0  0  0  0  0  0  0
    7.0053    0.0635   18.5628 C   0  0  0  0  0  0  0  0  0  0  0  0
    7.9183   -0.5037   18.3776 H   0  0  0  0  0  0  0  0  0  0  0  0
    4.9642    1.9449   16.8649 H   0  0  0  0  0  0  0  0  0  0  0  0
    3.7275    1.9562   19.0273 H   0  0  0  0  0  0  0  0  0  0  0  0
    4.7384    0.7181   21.0004 H   0  0  0  0  0  0  0  0  0  0  0  0
    6.4687   -1.4274   21.4803 H   0  0  0  0  0  0  0  0  0  0  0  0
    8.9100   -1.2627   22.5180 C   0  0  0  0  0  0  0  0  0  0  0  0
    8.9687   -2.4809   22.4483 O   0  0  0  0  0  0  0  0  0  0  0  0
    9.4078   -0.5698   23.6155 N   0  0  0  0  0  0  0  0  0  0  0  0
   10.6100   -1.1428   24.2076 C   0  0  0  0  0  0  0  0  0  0  0  0
   10.4189   -2.1494   24.5890 H   0  0  0  0  0  0  0  0  0  0  0  0
   10.9918   -0.5169   25.0220 H   0  0  0  0  0  0  0  0  0  0  0  0
   11.3840   -1.2381   23.4325 H   0  0  0  0  0  0  0  0  0  0  0  0
    8.8651    0.7078   24.0772 C   0  0  0  0  0  0  0  0  0  0  0  0
    7.4385    0.6129   24.6748 C   0  0  0  0  0  0  0  0  0  0  0  0
    6.9235    1.8916   25.1219 N   0  0  0  0  0  0  0  0  0  0  0  0
    6.7875    2.3148   26.5135 C   0  0  0  0  0  0  0  0  0  0  0  0
    6.1209    3.7203   26.4364 C   0  0  0  0  0  0  0  0  0  0  0  0
    5.9597    3.9621   24.9483 C   0  0  0  0  0  0  0  0  0  0  0  0
    5.4398    5.0393   24.2293 C   0  0  0  0  0  0  0  0  0  0  0  0
    5.4353    5.0009   22.8260 C   0  0  0  0  0  0  0  0  0  0  0  0
    5.9337    3.8835   22.1410 C   0  0  0  0  0  0  0  0  0  0  0  0
    6.4316    2.7859   22.8492 C   0  0  0  0  0  0  0  0  0  0  0  0
    6.4541    2.8469   24.2504 C   0  0  0  0  0  0  0  0  0  0  0  0
    6.7992    1.9029   22.3292 H   0  0  0  0  0  0  0  0  0  0  0  0
    5.9411    3.8671   21.0506 H   0  0  0  0  0  0  0  0  0  0  0  0
    5.0412    5.8378   22.2572 H   0  0  0  0  0  0  0  0  0  0  0  0
    5.0344    5.9103   24.7398 H   0  0  0  0  0  0  0  0  0  0  0  0
    6.7414    4.4935   26.9073 H   0  0  0  0  0  0  0  0  0  0  0  0
    5.1567    3.7338   26.9587 H   0  0  0  0  0  0  0  0  0  0  0  0
    6.1713    1.5972   27.0791 H   0  0  0  0  0  0  0  0  0  0  0  0
    7.7689    2.3643   27.0117 H   0  0  0  0  0  0  0  0  0  0  0  0
    7.4452   -0.0817   25.5235 H   0  0  0  0  0  0  0  0  0  0  0  0
    6.7607    0.1861   23.9161 H   0  0  0  0  0  0  0  0  0  0  0  0
    9.5428    1.1182   24.8341 H   0  0  0  0  0  0  0  0  0  0  0  0
    8.8458    1.4416   23.2628 H   0  0  0  0  0  0  0  0  0  0  0  0
    8.6918    1.6628   20.7720 H   0  0  0  0  0  0  0  0  0  0  0  0
    9.5422    0.4624   19.8165 H   0  0  0  0  0  0  0  0  0  0  0  0
   10.1054    0.8184   21.4403 H   0  0  0  0  0  0  0  0  0  0  0  0
  1  2  1  0
  2  3  2  3
  3  4  1  0
  4  5  2  0
  5  6  1  0
  6  7  2  0
  7  8  1  0
  8  9  2  0
  9 10  1  0
  7 11  1  0
  6 12  1  0
  5 13  1  0
  3 14  1  0
  2 15  1  0
 15 16  2  0
 15 17  1  0
 17 18  1  0
 18 19  1  0
 18 20  1  0
 18 21  1  0
 17 22  1  0
 22 23  1  0
 23 24  1  0
 24 25  1  0
 25 26  1  0
 26 27  1  0
 27 28  2  0
 28 29  1  0
 29 30  2  0
 30 31  1  0
 31 32  2  0
 31 33  1  0
 30 34  1  0
 29 35  1  0
 28 36  1  0
 26 37  1  0
 26 38  1  0
 25 39  1  0
 25 40  1  0
 23 41  1  0
 23 42  1  0
 22 43  1  0
 22 44  1  0
  1 45  1  0
  1 46  1  0
  1 47  1  0
  9  4  1  0
 32 24  1  0
 32 27  1  0
M  END
>  <plip>  (1) 
-0.03571428571428571

>  <filename>  (1) 
[H][C](=[C]([C](=[O])[N]([C]([H])([H])[H])[C]([H])([H])[C]([H])([H])[N]1[c]2[c]([H])[c]([H])[c]([H])[c]([H])[c]2[C]([H])([H])[C]1([H])[H])[C]([H])([H])[H])[c]1[c]([H])[n][c]([H])[c]([H])[c]1[H]

$$$$
