
     RDKit          3D

 42 45  0  0  0  0  0  0  0  0999 V2000
    4.7984    1.3160   19.0920 C   0  0  0  0  0  0  0  0  0  0  0  0
    5.3955    1.3027   17.8247 C   0  0  0  0  0  0  0  0  0  0  0  0
    6.5585    0.6932   17.5557 N   0  0  0  0  0  0  0  0  0  0  0  0
    7.1560    0.0610   18.5740 C   0  0  0  0  0  0  0  0  0  0  0  0
    6.6285   -0.0275   19.8740 C   0  0  0  0  0  0  0  0  0  0  0  0
    7.3782   -0.6986   20.9974 C   0  0  0  0  0  0  0  0  0  0  0  0
    8.1346    0.3306   21.8568 C   0  0  0  0  0  0  0  0  0  0  0  0
    9.2897    1.0267   21.1334 C   0  0  0  0  0  0  0  0  0  0  0  0
   10.4212    1.2164   22.1603 C   0  0  0  0  0  0  0  0  0  0  0  0
    9.9562    0.5457   23.4584 C   0  0  0  0  0  0  0  0  0  0  0  0
    8.7585   -0.2961   23.0678 N   0  0  0  0  0  4  0  0  0  0  0  0
    7.8009   -0.5000   24.1998 C   0  0  0  0  0  0  0  0  0  0  0  0
    8.4038   -1.3140   25.2735 C   0  0  0  0  0  0  0  0  0  0  0  0
    8.6065   -2.6626   25.3387 C   0  0  0  0  0  0  0  0  0  0  0  0
    8.3443   -3.7392   24.4543 C   0  0  0  0  0  0  0  0  0  0  0  0
    8.7138   -5.0055   24.8561 C   0  0  0  0  0  0  0  0  0  0  0  0
    9.3547   -5.2051   26.1340 C   0  0  0  0  0  0  0  0  0  0  0  0
    9.6261   -4.1766   27.0057 C   0  0  0  0  0  0  0  0  0  0  0  0
    9.2438   -2.8369   26.6069 C   0  0  0  0  0  0  0  0  0  0  0  0
    9.4045   -1.6777   27.2388 N   0  0  0  0  0  0  0  0  0  0  0  0
    8.8708   -0.7353   26.3809 O   0  0  0  0  0  0  0  0  0  0  0  0
   10.1125   -4.3375   27.9630 H   0  0  0  0  0  0  0  0  0  0  0  0
    9.6303   -6.2215   26.4137 H   0  0  0  0  0  0  0  0  0  0  0  0
    8.5196   -5.8648   24.2141 H   0  0  0  0  0  0  0  0  0  0  0  0
    7.8626   -3.5316   23.4987 H   0  0  0  0  0  0  0  0  0  0  0  0
    6.9059   -1.0262   23.8442 H   0  0  0  0  0  0  0  0  0  0  0  0
    7.4714    0.4707   24.5870 H   0  0  0  0  0  0  0  0  0  0  0  0
    9.1039   -1.2503   22.8012 H   0  0  0  0  0  0  0  0  0  0  0  0
   10.7168   -0.0817   23.9313 H   0  0  0  0  0  0  0  0  0  0  0  0
    9.6175    1.2720   24.2014 H   0  0  0  0  0  0  0  0  0  0  0  0
   10.6304    2.2734   22.3465 H   0  0  0  0  0  0  0  0  0  0  0  0
   11.3530    0.7657   21.8068 H   0  0  0  0  0  0  0  0  0  0  0  0
    9.6193    0.4215   20.2826 H   0  0  0  0  0  0  0  0  0  0  0  0
    8.9363    1.9708   20.7139 H   0  0  0  0  0  0  0  0  0  0  0  0
    7.4188    1.0827   22.2137 H   0  0  0  0  0  0  0  0  0  0  0  0
    8.1101   -1.4228   20.6152 H   0  0  0  0  0  0  0  0  0  0  0  0
    6.6790   -1.2533   21.6403 H   0  0  0  0  0  0  0  0  0  0  0  0
    5.4270    0.6442   20.1401 C   0  0  0  0  0  0  0  0  0  0  0  0
    5.0152    0.6357   21.1563 H   0  0  0  0  0  0  0  0  0  0  0  0
    8.1106   -0.4180   18.3548 H   0  0  0  0  0  0  0  0  0  0  0  0
    4.9134    1.7947   16.9843 H   0  0  0  0  0  0  0  0  0  0  0  0
    3.8697    1.8504   19.2486 H   0  0  0  0  0  0  0  0  0  0  0  0
  1  2  2  0
  2  3  1  0
  3  4  2  0
  4  5  1  0
  5  6  1  0
  6  7  1  0
  7  8  1  0
  8  9  1  0
  9 10  1  0
 10 11  1  0
 11 12  1  0
 12 13  1  0
 13 14  2  0
 14 15  1  0
 15 16  2  0
 16 17  1  0
 17 18  2  0
 18 19  1  0
 19 20  2  0
 20 21  1  0
 18 22  1  0
 17 23  1  0
 16 24  1  0
 15 25  1  0
 12 26  1  0
 12 27  1  0
 11 28  1  0
 10 29  1  0
 10 30  1  0
  9 31  1  0
  9 32  1  0
  8 33  1  0
  8 34  1  0
  7 35  1  0
  6 36  1  0
  6 37  1  0
  5 38  2  0
 38 39  1  0
  4 40  1  0
  2 41  1  0
  1 42  1  0
 38  1  1  0
 11  7  1  0
 21 13  1  0
 19 14  1  0
M  CHG  1  11   1
M  END
>  <plip>  (1) 
-0.07142857142857142

>  <filename>  (1) 
[H][c]1[n][c]([H])[c]([C]([H])([H])[C]2([H])[C]([H])([H])[C]([H])([H])[C]([H])([H])[N+]2([H])[C]([H])([H])[c]2[o][n][c]3[c]([H])[c]([H])[c]([H])[c]([H])[c]23)[c]([H])[c]1[H]

$$$$
