
     RDKit          3D

 31 33  0  0  0  0  0  0  0  0999 V2000
    4.9806    1.8198   16.9458 H   0  0  0  0  0  0  0  0  0  0  0  0
    5.4316    1.3048   17.7899 C   0  0  0  0  0  0  0  0  0  0  0  0
    6.5926    0.6697   17.5468 N   0  0  0  0  0  0  0  0  0  0  0  0
    7.1838    0.0441   18.5643 C   0  0  0  0  0  0  0  0  0  0  0  0
    8.1180   -0.4633   18.3464 H   0  0  0  0  0  0  0  0  0  0  0  0
    6.6636    0.0157   19.8637 C   0  0  0  0  0  0  0  0  0  0  0  0
    7.3651   -0.6631   20.8997 N   0  0  0  0  0  0  0  0  0  0  0  0
    8.5211   -1.2861   20.7369 N   0  0  0  0  0  0  0  0  0  0  0  0
    8.8226   -1.7996   21.8950 N   0  0  0  0  0  0  0  0  0  0  0  0
    7.8147   -1.4677   22.7380 C   0  0  0  0  0  0  0  0  0  0  0  0
    7.7400   -1.8776   24.1882 C   0  0  0  0  0  0  0  0  0  0  0  0
    6.7333   -1.5799   24.5039 H   0  0  0  0  0  0  0  0  0  0  0  0
    8.7996   -1.1032   25.0413 C   0  0  0  0  0  0  0  0  0  0  0  0
    9.7425   -1.0534   24.4705 H   0  0  0  0  0  0  0  0  0  0  0  0
    8.4770   -0.0699   25.2046 H   0  0  0  0  0  0  0  0  0  0  0  0
    9.1143   -1.7908   26.3826 C   0  0  0  0  0  0  0  0  0  0  0  0
    8.2418   -1.7856   27.0595 H   0  0  0  0  0  0  0  0  0  0  0  0
    9.8904   -1.2005   26.8874 H   0  0  0  0  0  0  0  0  0  0  0  0
    9.6129   -3.1620   26.1671 N   0  0  0  0  0  0  0  0  0  0  0  0
    9.3185   -3.7609   26.9317 H   0  0  0  0  0  0  0  0  0  0  0  0
    9.3074   -3.7657   24.8684 C   0  0  0  0  0  0  0  0  0  0  0  0
    9.4745   -4.8438   24.9207 H   0  0  0  0  0  0  0  0  0  0  0  0
   10.0136   -3.3692   24.1223 H   0  0  0  0  0  0  0  0  0  0  0  0
    7.8954   -3.4244   24.3714 C   0  0  0  0  0  0  0  0  0  0  0  0
    7.6879   -3.9522   23.4286 H   0  0  0  0  0  0  0  0  0  0  0  0
    7.1629   -3.7772   25.1104 H   0  0  0  0  0  0  0  0  0  0  0  0
    6.8908   -0.7466   22.1338 N   0  0  0  0  0  0  0  0  0  0  0  0
    5.4457    0.6657   20.1195 C   0  0  0  0  0  0  0  0  0  0  0  0
    5.0094    0.6657   21.1198 H   0  0  0  0  0  0  0  0  0  0  0  0
    4.8265    1.3157   19.0521 C   0  0  0  0  0  0  0  0  0  0  0  0
    3.8891    1.8417   19.1855 H   0  0  0  0  0  0  0  0  0  0  0  0
  1  2  1  0
  2  3  2  0
  3  4  1  0
  4  5  1  0
  4  6  2  0
  6  7  1  0
  7  8  1  0
  8  9  2  0
  9 10  1  0
 10 11  1  0
 11 12  1  0
 11 13  1  0
 13 14  1  0
 13 15  1  0
 13 16  1  0
 16 17  1  0
 16 18  1  0
 16 19  1  0
 19 20  1  0
 19 21  1  0
 21 22  1  0
 21 23  1  0
 21 24  1  0
 24 25  1  0
 24 26  1  0
 10 27  2  0
  6 28  1  0
 28 29  1  0
 28 30  2  0
 30 31  1  0
 30  2  1  0
 27  7  1  0
 24 11  1  0
M  END
>  <plip>  (1) 
-0.06896551724137931

>  <filename>  (1) 
[H][c]1[n][c]([H])[c](-[n]2[n][n][c]([C]3([H])[C]([H])([H])[C]([H])([H])[N]([H])[C]([H])([H])[C]3([H])[H])[n]2)[c]([H])[c]1[H]

$$$$
