
     RDKit          3D

 24 25  0  0  0  0  0  0  0  0999 V2000
    6.3403   -6.9960   22.2251 H   0  0  0  0  0  0  0  0  0  0  0  0
    6.1572   -6.1815   21.5063 C   0  0  0  0  0  0  0  0  0  0  0  0
    5.5454   -6.4605   20.3236 N   0  0  0  0  0  0  0  0  0  0  0  0
    5.5737   -5.2576   19.7597 C   0  0  0  0  0  0  0  0  0  0  0  0
    5.1580   -5.0497   18.7880 H   0  0  0  0  0  0  0  0  0  0  0  0
    6.1356   -4.3246   20.5144 N   0  0  0  0  0  0  0  0  0  0  0  0
    6.7588   -2.4948   21.8035 C   0  0  0  0  0  0  0  0  0  0  0  0
    6.5979   -2.8261   20.5228 H   0  0  0  0  0  0  0  0  0  0  0  0
    8.0074   -2.9298   21.6945 H   0  0  0  0  0  0  0  0  0  0  0  0
    6.8663   -2.2702   21.7022 C   0  0  0  0  0  0  0  0  0  0  0  0
    7.0108   -1.9974   22.9942 H   0  0  0  0  0  0  0  0  0  0  0  0
    5.6351   -1.7929   21.7828 H   0  0  0  0  0  0  0  0  0  0  0  0
    7.7628   -0.0559   21.3216 S   0  0  0  0  0  0  0  0  0  0  0  0
    6.8670    0.5170   19.9382 C   0  0  0  0  0  0  0  0  0  0  0  0
    7.3656    0.3664   18.6198 C   0  0  0  0  0  0  0  0  0  0  0  0
    8.3564   -0.0548   18.4620 H   0  0  0  0  0  0  0  0  0  0  0  0
    6.7024    0.7349   17.5214 N   0  0  0  0  0  0  0  0  0  0  0  0
    5.4861    1.2848   17.6853 C   0  0  0  0  0  0  0  0  0  0  0  0
    4.9759    1.5954   16.7757 H   0  0  0  0  0  0  0  0  0  0  0  0
    4.8878    1.4546   18.9381 C   0  0  0  0  0  0  0  0  0  0  0  0
    3.9077    1.9127   19.0089 H   0  0  0  0  0  0  0  0  0  0  0  0
    5.5739    1.0478   20.0806 C   0  0  0  0  0  0  0  0  0  0  0  0
    5.1434    1.1960   21.0699 H   0  0  0  0  0  0  0  0  0  0  0  0
    6.5113   -4.9143   21.6449 N   0  0  0  0  0  0  0  0  0  0  0  0
  1  2  1  0
  2  3  1  0
  3  4  2  0
  4  5  1  0
  4  6  1  0
  6  7  1  0
  7  8  1  0
  7  9  1  0
  7 10  1  0
 10 11  1  0
 10 12  1  0
 10 13  1  0
 13 14  1  0
 14 15  2  0
 15 16  1  0
 15 17  1  0
 17 18  2  0
 18 19  1  0
 18 20  1  0
 20 21  1  0
 20 22  2  0
 22 23  1  0
  6 24  1  0
 24  2  2  0
 22 14  1  0
M  END
>  <plip>  (1) 
-0.14285714285714285

>  <filename>  (1) 
[H][c]1[n][c]([H])[n]([C]([H])([H])[C]([H])([H])[S][c]2[c]([H])[n][c]([H])[c]([H])[c]2[H])[n]1

$$$$
