
     RDKit          3D

 50 53  0  0  0  0  0  0  0  0999 V2000
   10.8249    0.4614   26.1433 C   0  0  0  0  0  0  0  0  0  0  0  0
   10.1961    0.4579   24.7971 C   0  0  0  0  0  0  0  0  0  0  0  0
    9.1333   -0.3477   24.4889 C   0  0  0  0  0  0  0  0  0  0  0  0
    8.5057   -0.3723   23.3047 N   0  0  0  0  0  0  0  0  0  0  0  0
    8.9758    0.3732   22.3237 C   0  0  0  0  0  0  0  0  0  0  0  0
    8.2864    0.2742   21.1677 N   0  0  0  0  0  0  0  0  0  0  0  0
    7.0848   -0.5411   20.9858 C   0  0  0  0  0  0  0  0  0  0  0  0
    7.4672   -2.0321   21.0028 C   0  0  0  0  0  0  0  0  0  0  0  0
    6.3613   -3.0638   20.7711 C   0  0  0  0  0  0  0  0  0  0  0  0
    6.8623   -4.5156   20.9268 C   0  0  0  0  0  0  0  0  0  0  0  0
    5.8632   -5.3080   20.0920 C   0  0  0  0  0  0  0  0  0  0  0  0
    5.4187   -4.4340   19.0660 O   0  0  0  0  0  0  0  0  0  0  0  0
    5.7243   -3.0817   19.3633 C   0  0  0  0  0  0  0  0  0  0  0  0
    6.3945   -2.6736   18.5898 H   0  0  0  0  0  0  0  0  0  0  0  0
    4.8151   -2.4742   19.2818 H   0  0  0  0  0  0  0  0  0  0  0  0
    6.2869   -6.2018   19.6250 H   0  0  0  0  0  0  0  0  0  0  0  0
    5.0107   -5.6445   20.6971 H   0  0  0  0  0  0  0  0  0  0  0  0
    7.8761   -4.6188   20.5231 H   0  0  0  0  0  0  0  0  0  0  0  0
    6.9071   -4.8631   21.9659 H   0  0  0  0  0  0  0  0  0  0  0  0
    5.5603   -2.9043   21.5102 H   0  0  0  0  0  0  0  0  0  0  0  0
    8.2968   -2.1676   20.3027 H   0  0  0  0  0  0  0  0  0  0  0  0
    7.8993   -2.2029   21.9927 H   0  0  0  0  0  0  0  0  0  0  0  0
    6.3899   -0.0033   19.7575 C   0  0  0  0  0  0  0  0  0  0  0  0
    5.1488    0.6421   19.8605 C   0  0  0  0  0  0  0  0  0  0  0  0
    4.6526    1.3412   18.7587 C   0  0  0  0  0  0  0  0  0  0  0  0
    5.3955    1.3356   17.5738 C   0  0  0  0  0  0  0  0  0  0  0  0
    6.5480    0.6657   17.4290 N   0  0  0  0  0  0  0  0  0  0  0  0
    7.0206    0.0130   18.5032 C   0  0  0  0  0  0  0  0  0  0  0  0
    7.9503   -0.5323   18.3265 H   0  0  0  0  0  0  0  0  0  0  0  0
    5.0565    1.8944   16.7057 H   0  0  0  0  0  0  0  0  0  0  0  0
    3.7361    1.9194   18.8188 H   0  0  0  0  0  0  0  0  0  0  0  0
    4.6043    0.6260   20.8070 H   0  0  0  0  0  0  0  0  0  0  0  0
    6.4190   -0.3801   21.8463 H   0  0  0  0  0  0  0  0  0  0  0  0
    8.6422    0.7847   20.3888 H   0  0  0  0  0  0  0  0  0  0  0  0
   10.1194    1.2571   22.4695 C   0  0  0  0  0  0  0  0  0  0  0  0
   10.6727    2.0944   21.4646 C   0  0  0  0  0  0  0  0  0  0  0  0
   11.6919    2.9799   21.7261 C   0  0  0  0  0  0  0  0  0  0  0  0
   12.2643    3.0389   23.0173 C   0  0  0  0  0  0  0  0  0  0  0  0
   13.2986    3.9347   23.2909 N   0  0  0  0  0  0  0  0  0  0  0  0
   14.0082    3.5162   23.8779 H   0  0  0  0  0  0  0  0  0  0  0  0
   13.7105    4.2822   22.4358 H   0  0  0  0  0  0  0  0  0  0  0  0
   11.7815    2.2146   24.0045 C   0  0  0  0  0  0  0  0  0  0  0  0
   10.7093    1.3134   23.7662 C   0  0  0  0  0  0  0  0  0  0  0  0
   12.2349    2.2696   24.9856 H   0  0  0  0  0  0  0  0  0  0  0  0
   12.0587    3.6525   20.9541 H   0  0  0  0  0  0  0  0  0  0  0  0
   10.3053    2.0376   20.4550 H   0  0  0  0  0  0  0  0  0  0  0  0
    8.7585   -1.0499   25.2350 H   0  0  0  0  0  0  0  0  0  0  0  0
   10.3394   -0.2009   26.8691 H   0  0  0  0  0  0  0  0  0  0  0  0
   10.8039    1.4799   26.5322 H   0  0  0  0  0  0  0  0  0  0  0  0
   11.8693    0.1668   26.0300 H   0  0  0  0  0  0  0  0  0  0  0  0
  1  2  1  0
  2  3  2  0
  3  4  1  0
  4  5  2  0
  5  6  1  0
  6  7  1  0
  7  8  1  0
  8  9  1  0
  9 10  1  0
 10 11  1  0
 11 12  1  0
 12 13  1  0
 13 14  1  0
 13 15  1  0
 11 16  1  0
 11 17  1  0
 10 18  1  0
 10 19  1  0
  9 20  1  0
  8 21  1  0
  8 22  1  0
  7 23  1  0
 23 24  2  0
 24 25  1  0
 25 26  2  0
 26 27  1  0
 27 28  2  0
 28 29  1  0
 26 30  1  0
 25 31  1  0
 24 32  1  0
  7 33  1  0
  6 34  1  0
  5 35  1  0
 35 36  2  0
 36 37  1  0
 37 38  2  0
 38 39  1  0
 39 40  1  0
 39 41  1  0
 38 42  1  0
 42 43  2  0
 42 44  1  0
 37 45  1  0
 36 46  1  0
  3 47  1  0
  1 48  1  0
  1 49  1  0
  1 50  1  0
 43  2  1  0
 13  9  1  0
 28 23  1  0
 43 35  1  0
M  END
>  <plip>  (1) 
-0.15625

>  <filename>  (1) 
[H][c]1[n][c]([H])[c]([C]([H])([N]([H])[c]2[n][c]([H])[c]([C]([H])([H])[H])[c]3[c]([H])[c]([N]([H])[H])[c]([H])[c]([H])[c]23)[C]([H])([H])[C]2([H])[C]([H])([H])[O][C]([H])([H])[C]2([H])[H])[c]([H])[c]1[H]

$$$$
