
     RDKit          3D

 39 41  0  0  0  0  0  0  0  0999 V2000
   12.4215    4.8337   20.5474 F   0  0  0  0  0  0  0  0  0  0  0  0
   12.6671    4.4547   21.8095 C   0  0  0  0  0  0  0  0  0  0  0  0
   14.0083    4.3623   21.9276 F   0  0  0  0  0  0  0  0  0  0  0  0
   12.2776    5.4642   22.6031 F   0  0  0  0  0  0  0  0  0  0  0  0
   12.0108    3.0684   22.1532 C   0  0  0  0  0  0  0  0  0  0  0  0
   11.9852    2.1745   21.1508 N   0  0  0  0  0  0  0  0  0  0  0  0
   11.6293    0.9421   21.4551 C   0  0  0  0  0  0  0  0  0  0  0  0
   11.2526    0.5270   22.7217 C   0  0  0  0  0  0  0  0  0  0  0  0
   10.8267   -0.8955   22.8563 C   0  0  0  0  0  0  0  0  0  0  0  0
    9.3736   -1.0057   22.5503 N   0  0  0  0  0  4  0  0  0  0  0  0
    8.7927   -2.3410   22.9031 C   0  0  0  0  0  0  0  0  0  0  0  0
    7.2880   -2.1715   23.0421 C   0  0  0  0  0  0  0  0  0  0  0  0
    6.6844   -1.5015   21.8345 C   0  0  0  0  0  0  0  0  0  0  0  0
    7.3826   -0.7458   20.9727 C   0  0  0  0  0  0  0  0  0  0  0  0
    6.6845   -0.0062   19.8769 C   0  0  0  0  0  0  0  0  0  0  0  0
    5.4555    0.6510   20.1039 C   0  0  0  0  0  0  0  0  0  0  0  0
    4.8313    1.3304   19.0576 C   0  0  0  0  0  0  0  0  0  0  0  0
    5.4388    1.3215   17.7981 C   0  0  0  0  0  0  0  0  0  0  0  0
    6.5910    0.6830   17.5426 N   0  0  0  0  0  0  0  0  0  0  0  0
    7.1853    0.0484   18.5619 C   0  0  0  0  0  0  0  0  0  0  0  0
    8.1121   -0.4703   18.3137 H   0  0  0  0  0  0  0  0  0  0  0  0
    4.9753    1.8420   16.9611 H   0  0  0  0  0  0  0  0  0  0  0  0
    3.8980    1.8677   19.2044 H   0  0  0  0  0  0  0  0  0  0  0  0
    5.0063    0.6418   21.0976 H   0  0  0  0  0  0  0  0  0  0  0  0
    8.8984   -0.6478   21.0805 C   0  0  0  0  0  0  0  0  0  0  0  0
    9.3776   -1.3572   20.3906 H   0  0  0  0  0  0  0  0  0  0  0  0
    9.2242    0.3645   20.8324 H   0  0  0  0  0  0  0  0  0  0  0  0
    5.6125   -1.6285   21.6835 H   0  0  0  0  0  0  0  0  0  0  0  0
    7.0879   -1.5447   23.9230 H   0  0  0  0  0  0  0  0  0  0  0  0
    6.8200   -3.1416   23.2222 H   0  0  0  0  0  0  0  0  0  0  0  0
    9.2382   -2.7009   23.8356 H   0  0  0  0  0  0  0  0  0  0  0  0
    9.0361   -3.0678   22.1151 H   0  0  0  0  0  0  0  0  0  0  0  0
    8.9001   -0.2816   23.1451 H   0  0  0  0  0  0  0  0  0  0  0  0
   11.0420   -1.3080   23.8527 H   0  0  0  0  0  0  0  0  0  0  0  0
   11.4002   -1.5081   22.1438 H   0  0  0  0  0  0  0  0  0  0  0  0
   11.2721    1.5264   23.6904 C   0  0  0  0  0  0  0  0  0  0  0  0
   11.6268    2.7839   23.4119 N   0  0  0  0  0  0  0  0  0  0  0  0
   11.0391    1.3222   24.7422 H   0  0  0  0  0  0  0  0  0  0  0  0
   11.6432    0.1973   20.6597 H   0  0  0  0  0  0  0  0  0  0  0  0
  1  2  1  0
  2  3  1  0
  2  4  1  0
  2  5  1  0
  5  6  2  0
  6  7  1  0
  7  8  2  0
  8  9  1  0
  9 10  1  0
 10 11  1  0
 11 12  1  0
 12 13  1  0
 13 14  2  0
 14 15  1  0
 15 16  2  0
 16 17  1  0
 17 18  2  0
 18 19  1  0
 19 20  2  0
 20 21  1  0
 18 22  1  0
 17 23  1  0
 16 24  1  0
 14 25  1  0
 25 26  1  0
 25 27  1  0
 13 28  1  0
 12 29  1  0
 12 30  1  0
 11 31  1  0
 11 32  1  0
 10 33  1  0
  9 34  1  0
  9 35  1  0
  8 36  1  0
 36 37  2  0
 36 38  1  0
  7 39  1  0
 37  5  1  0
 25 10  1  0
 20 15  1  0
M  CHG  1  10   1
M  END
>  <plip>  (1) 
-0.06896551724137931

>  <filename>  (1) 
[H][C]1=[C]([c]2[c]([H])[n][c]([H])[c]([H])[c]2[H])[C]([H])([H])[N+]([H])([C]([H])([H])[c]2[c]([H])[n][c]([C]([F])([F])[F])[n][c]2[H])[C]([H])([H])[C]1([H])[H]

$$$$
