
     RDKit          3D

 47 48  0  0  0  0  0  0  0  0999 V2000
    8.6103   -0.9463   26.5158 C   0  0  0  0  0  0  0  0  0  0  0  0
    7.3740   -0.6094   25.9235 O   0  0  0  0  0  0  0  0  0  0  0  0
    7.4500    0.1937   24.7558 C   0  0  0  0  0  0  0  0  0  0  0  0
    7.6797   -0.6587   23.4943 C   0  0  0  0  0  0  0  0  0  0  0  0
    7.5977    0.1102   22.2278 N   0  0  0  0  0  0  0  0  0  0  0  0
    7.3751   -0.7025   21.0044 C   0  0  0  0  0  0  0  0  0  0  0  0
    6.6779    0.0870   19.9297 C   0  0  0  0  0  0  0  0  0  0  0  0
    5.4473    0.7195   20.1500 C   0  0  0  0  0  0  0  0  0  0  0  0
    4.8076    1.3395   19.0737 C   0  0  0  0  0  0  0  0  0  0  0  0
    5.4250    1.3196   17.8157 C   0  0  0  0  0  0  0  0  0  0  0  0
    6.6041    0.7250   17.5878 N   0  0  0  0  0  0  0  0  0  0  0  0
    7.2008    0.1324   18.6304 C   0  0  0  0  0  0  0  0  0  0  0  0
    8.1554   -0.3477   18.4172 H   0  0  0  0  0  0  0  0  0  0  0  0
    4.9521    1.7974   16.9598 H   0  0  0  0  0  0  0  0  0  0  0  0
    3.8527    1.8396   19.1929 H   0  0  0  0  0  0  0  0  0  0  0  0
    4.9938    0.7160   21.1460 H   0  0  0  0  0  0  0  0  0  0  0  0
    6.7104   -1.5335   21.2835 H   0  0  0  0  0  0  0  0  0  0  0  0
    8.2961   -1.1649   20.6095 H   0  0  0  0  0  0  0  0  0  0  0  0
    8.8844    1.1587   22.0105 S   0  0  0  0  0  0  0  0  0  0  0  0
   10.0770    0.6303   22.6424 O   0  0  0  0  0  0  0  0  0  0  0  0
    8.9219    1.5436   20.6169 O   0  0  0  0  0  0  0  0  0  0  0  0
    8.3843    2.4998   22.9222 N   0  0  0  0  0  0  0  0  0  0  0  0
    9.5349    3.4568   22.9784 C   0  0  0  0  0  0  0  0  0  0  0  0
    9.1892    4.8257   23.6141 C   0  0  0  0  0  0  0  0  0  0  0  0
    7.9336    5.4175   23.0918 N   0  0  0  0  0  4  0  0  0  0  0  0
    6.7801    4.4201   23.1840 C   0  0  0  0  0  0  0  0  0  0  0  0
    5.5604    5.1689   22.6826 C   0  0  0  0  0  0  0  0  0  0  0  0
    5.7050    5.4577   21.6321 H   0  0  0  0  0  0  0  0  0  0  0  0
    4.6416    4.5840   22.7612 H   0  0  0  0  0  0  0  0  0  0  0  0
    5.4238    6.0788   23.2805 H   0  0  0  0  0  0  0  0  0  0  0  0
    7.1240    3.1258   22.4027 C   0  0  0  0  0  0  0  0  0  0  0  0
    6.2943    2.4238   22.5100 H   0  0  0  0  0  0  0  0  0  0  0  0
    7.1959    3.3950   21.3404 H   0  0  0  0  0  0  0  0  0  0  0  0
    6.6763    4.1273   24.2329 H   0  0  0  0  0  0  0  0  0  0  0  0
    8.0318    5.6694   22.0673 H   0  0  0  0  0  0  0  0  0  0  0  0
    7.6720    6.2858   23.6047 H   0  0  0  0  0  0  0  0  0  0  0  0
   10.0308    5.4899   23.4137 H   0  0  0  0  0  0  0  0  0  0  0  0
    9.1061    4.6607   24.6929 H   0  0  0  0  0  0  0  0  0  0  0  0
    9.9264    3.6470   21.9719 H   0  0  0  0  0  0  0  0  0  0  0  0
   10.3377    3.0051   23.5725 H   0  0  0  0  0  0  0  0  0  0  0  0
    8.6270   -1.2185   23.5780 H   0  0  0  0  0  0  0  0  0  0  0  0
    6.8634   -1.3900   23.4687 H   0  0  0  0  0  0  0  0  0  0  0  0
    6.4801    0.7000   24.6681 H   0  0  0  0  0  0  0  0  0  0  0  0
    8.2234    0.9684   24.8503 H   0  0  0  0  0  0  0  0  0  0  0  0
    9.3026   -1.4275   25.8091 H   0  0  0  0  0  0  0  0  0  0  0  0
    8.3983   -1.6528   27.3243 H   0  0  0  0  0  0  0  0  0  0  0  0
    9.1213   -0.0689   26.9414 H   0  0  0  0  0  0  0  0  0  0  0  0
  1  2  1  0
  2  3  1  0
  3  4  1  0
  4  5  1  0
  5  6  1  0
  6  7  1  0
  7  8  2  0
  8  9  1  0
  9 10  2  0
 10 11  1  0
 11 12  2  0
 12 13  1  0
 10 14  1  0
  9 15  1  0
  8 16  1  0
  6 17  1  0
  6 18  1  0
  5 19  1  0
 19 20  2  0
 19 21  2  0
 19 22  1  0
 22 23  1  0
 23 24  1  0
 24 25  1  0
 25 26  1  0
 26 27  1  0
 27 28  1  0
 27 29  1  0
 27 30  1  0
 26 31  1  0
 31 32  1  0
 31 33  1  0
 26 34  1  0
 25 35  1  0
 25 36  1  0
 24 37  1  0
 24 38  1  0
 23 39  1  0
 23 40  1  0
  4 41  1  0
  4 42  1  0
  3 43  1  0
  3 44  1  0
  1 45  1  0
  1 46  1  0
  1 47  1  0
 12  7  1  0
 31 22  1  0
M  CHG  1  25   1
M  END
>  <plip>  (1) 
-0.10714285714285714

>  <filename>  (1) 
[H][c]1[n][c]([H])[c]([C]([H])([H])[N]([C]([H])([H])[C]([H])([H])[O][C]([H])([H])[H])[S](=[O])(=[O])[N]2[C]([H])([H])[C]([H])([H])[N+]([H])([H])[C]([H])([C]([H])([H])[H])[C]2([H])[H])[c]([H])[c]1[H]

$$$$
