
     RDKit          3D

 42 44  0  0  0  0  0  0  0  0999 V2000
    5.4209    1.8956   17.0341 H   0  0  0  0  0  0  0  0  0  0  0  0
    5.7746    1.3467   17.9019 C   0  0  0  0  0  0  0  0  0  0  0  0
    6.9228    0.6760   17.7297 N   0  0  0  0  0  0  0  0  0  0  0  0
    7.3818   -0.0169   18.7733 C   0  0  0  0  0  0  0  0  0  0  0  0
    8.3210   -0.5446   18.6161 H   0  0  0  0  0  0  0  0  0  0  0  0
    6.7173   -0.0931   20.0001 C   0  0  0  0  0  0  0  0  0  0  0  0
    7.2695   -1.0088   21.0196 C   0  0  0  0  0  0  0  0  0  0  0  0
    6.5959   -1.8881   21.5205 O   0  0  0  0  0  0  0  0  0  0  0  0
    8.6187   -0.7949   21.2660 N   0  0  0  0  0  0  0  0  0  0  0  0
    8.7836    0.1724   21.5083 H   0  0  0  0  0  0  0  0  0  0  0  0
    9.2341   -1.5860   22.2742 C   0  0  0  0  0  0  0  0  0  0  0  0
    9.2384   -0.8863   23.5046 N   0  0  0  0  0  0  0  0  0  0  0  0
   10.3845    0.0167   23.7196 C   0  0  0  0  0  0  0  0  0  0  0  0
   10.9226    0.1252   22.7708 H   0  0  0  0  0  0  0  0  0  0  0  0
   11.1106   -0.4011   24.4404 H   0  0  0  0  0  0  0  0  0  0  0  0
   10.0051    1.4414   24.1585 C   0  0  0  0  0  0  0  0  0  0  0  0
    9.2494    1.8051   23.4394 H   0  0  0  0  0  0  0  0  0  0  0  0
   10.8982    2.0727   23.9978 H   0  0  0  0  0  0  0  0  0  0  0  0
    9.5357    1.6332   25.5401 N   0  0  0  0  0  0  0  0  0  0  0  0
    8.5298    2.6873   25.6432 C   0  0  0  0  0  0  0  0  0  0  0  0
    8.8274    3.5559   25.0384 H   0  0  0  0  0  0  0  0  0  0  0  0
    8.4486    3.0567   26.6736 H   0  0  0  0  0  0  0  0  0  0  0  0
    7.5187    2.3769   25.3172 H   0  0  0  0  0  0  0  0  0  0  0  0
    9.2094    0.4362   26.3251 C   0  0  0  0  0  0  0  0  0  0  0  0
    8.8123    0.7948   27.2831 H   0  0  0  0  0  0  0  0  0  0  0  0
   10.1383   -0.1008   26.5781 H   0  0  0  0  0  0  0  0  0  0  0  0
    8.2001   -0.5631   25.7355 C   0  0  0  0  0  0  0  0  0  0  0  0
    7.8279   -1.1597   26.5792 H   0  0  0  0  0  0  0  0  0  0  0  0
    7.3422   -0.0239   25.3095 H   0  0  0  0  0  0  0  0  0  0  0  0
    8.7251   -1.5487   24.6874 C   0  0  0  0  0  0  0  0  0  0  0  0
    9.4609   -2.2426   25.1547 H   0  0  0  0  0  0  0  0  0  0  0  0
    7.8807   -2.1742   24.3646 H   0  0  0  0  0  0  0  0  0  0  0  0
   10.4673   -2.3366   21.8498 C   0  0  0  0  0  0  0  0  0  0  0  0
   10.7928   -2.1557   20.8381 H   0  0  0  0  0  0  0  0  0  0  0  0
   11.2483   -2.4475   22.5930 H   0  0  0  0  0  0  0  0  0  0  0  0
    9.1730   -3.0693   22.0676 C   0  0  0  0  0  0  0  0  0  0  0  0
    8.6344   -3.3702   21.1760 H   0  0  0  0  0  0  0  0  0  0  0  0
    9.0774   -3.7480   22.9095 H   0  0  0  0  0  0  0  0  0  0  0  0
    5.5111    0.6032   20.1731 C   0  0  0  0  0  0  0  0  0  0  0  0
    4.9606    0.5510   21.1149 H   0  0  0  0  0  0  0  0  0  0  0  0
    5.0443    1.3518   19.0961 C   0  0  0  0  0  0  0  0  0  0  0  0
    4.1289    1.9300   19.1640 H   0  0  0  0  0  0  0  0  0  0  0  0
  1  2  1  0
  2  3  2  0
  3  4  1  0
  4  5  1  0
  4  6  2  0
  6  7  1  0
  7  8  2  0
  7  9  1  0
  9 10  1  0
  9 11  1  0
 11 12  1  0
 12 13  1  0
 13 14  1  0
 13 15  1  0
 13 16  1  0
 16 17  1  0
 16 18  1  0
 16 19  1  0
 19 20  1  0
 20 21  1  0
 20 22  1  0
 20 23  1  0
 19 24  1  0
 24 25  1  0
 24 26  1  0
 24 27  1  0
 27 28  1  0
 27 29  1  0
 27 30  1  0
 30 31  1  0
 30 32  1  0
 11 33  1  0
 33 34  1  0
 33 35  1  0
 33 36  1  0
 36 37  1  0
 36 38  1  0
  6 39  1  0
 39 40  1  0
 39 41  2  0
 41 42  1  0
 41  2  1  0
 36 11  1  0
 30 12  1  0
M  END
>  <plip>  (1) 
-0.03571428571428571

>  <filename>  (1) 
[H][c]1[n][c]([H])[c]([C](=[O])[N]([H])[C]2([N]3[C]([H])([H])[C]([H])([H])[N]([C]([H])([H])[H])[C]([H])([H])[C]([H])([H])[C]3([H])[H])[C]([H])([H])[C]2([H])[H])[c]([H])[c]1[H]

$$$$
