
     RDKit          3D

 32 33  0  0  0  0  0  0  0  0999 V2000
    6.9044   -0.6610   21.9525 H   0  0  0  0  0  0  0  0  0  0  0  0
    7.3695   -0.6992   20.9601 C   0  0  0  0  0  0  0  0  0  0  0  0
    8.4726   -1.3330   20.7619 N   0  0  0  0  0  0  0  0  0  0  0  0
    9.0087   -2.0688   21.7855 N   0  0  0  0  0  0  0  0  0  0  0  0
    9.9456   -2.4258   21.7527 H   0  0  0  0  0  0  0  0  0  0  0  0
    8.5400   -2.4078   23.3727 S   0  0  0  0  0  0  0  0  0  0  0  0
    8.3217   -1.1699   24.0955 O   0  0  0  0  0  0  0  0  0  0  0  0
    9.5561   -3.3607   23.7715 O   0  0  0  0  0  0  0  0  0  0  0  0
    6.9680   -3.2110   23.1223 C   0  0  0  0  0  0  0  0  0  0  0  0
    6.7901   -4.1259   22.0723 C   0  0  0  0  0  0  0  0  0  0  0  0
    7.5866   -4.3712   21.3666 H   0  0  0  0  0  0  0  0  0  0  0  0
    5.5460   -4.7399   21.9210 C   0  0  0  0  0  0  0  0  0  0  0  0
    5.4034   -5.4647   21.1283 H   0  0  0  0  0  0  0  0  0  0  0  0
    4.4695   -4.4619   22.7774 C   0  0  0  0  0  0  0  0  0  0  0  0
    3.1230   -5.1262   22.5939 C   0  0  0  0  0  0  0  0  0  0  0  0
    3.2152   -6.1212   22.1483 H   0  0  0  0  0  0  0  0  0  0  0  0
    2.4625   -4.5512   21.9394 H   0  0  0  0  0  0  0  0  0  0  0  0
    2.5882   -5.2335   23.5424 H   0  0  0  0  0  0  0  0  0  0  0  0
    4.6840   -3.5343   23.8075 C   0  0  0  0  0  0  0  0  0  0  0  0
    3.8679   -3.3002   24.4810 H   0  0  0  0  0  0  0  0  0  0  0  0
    5.9128   -2.9024   23.9910 C   0  0  0  0  0  0  0  0  0  0  0  0
    6.0229   -2.1766   24.7993 H   0  0  0  0  0  0  0  0  0  0  0  0
    6.6683    0.0057   19.9010 C   0  0  0  0  0  0  0  0  0  0  0  0
    7.1867    0.0492   18.5953 C   0  0  0  0  0  0  0  0  0  0  0  0
    8.1350   -0.4331   18.3667 H   0  0  0  0  0  0  0  0  0  0  0  0
    6.5726    0.6652   17.5821 N   0  0  0  0  0  0  0  0  0  0  0  0
    5.4112    1.2827   17.8445 C   0  0  0  0  0  0  0  0  0  0  0  0
    4.9403    1.7826   17.0029 H   0  0  0  0  0  0  0  0  0  0  0  0
    4.8106    1.3037   19.1091 C   0  0  0  0  0  0  0  0  0  0  0  0
    3.8782    1.8375   19.2523 H   0  0  0  0  0  0  0  0  0  0  0  0
    5.4469    0.6501   20.1594 C   0  0  0  0  0  0  0  0  0  0  0  0
    5.0080    0.6416   21.1607 H   0  0  0  0  0  0  0  0  0  0  0  0
  1  2  1  0
  2  3  2  3
  3  4  1  0
  4  5  1  0
  4  6  1  0
  6  7  2  0
  6  8  2  0
  6  9  1  0
  9 10  2  0
 10 11  1  0
 10 12  1  0
 12 13  1  0
 12 14  2  0
 14 15  1  0
 15 16  1  0
 15 17  1  0
 15 18  1  0
 14 19  1  0
 19 20  1  0
 19 21  2  0
 21 22  1  0
  2 23  1  0
 23 24  2  0
 24 25  1  0
 24 26  1  0
 26 27  2  0
 27 28  1  0
 27 29  1  0
 29 30  1  0
 29 31  2  0
 31 32  1  0
 21  9  1  0
 31 23  1  0
M  END
>  <plip>  (1) 
-0.03333333333333333

>  <filename>  (1) 
[H][C](=[N][N]([H])[S](=[O])(=[O])[c]1[c]([H])[c]([H])[c]([C]([H])([H])[H])[c]([H])[c]1[H])[c]1[c]([H])[n][c]([H])[c]([H])[c]1[H]

$$$$
