
     RDKit          3D

 51 53  0  0  0  0  0  0  0  0999 V2000
    6.6232   -4.4490   20.8425 C   0  0  0  0  0  0  0  0  0  0  0  0
    7.2664   -3.1675   20.7374 O   0  0  0  0  0  0  0  0  0  0  0  0
    6.6331   -2.1253   21.2968 C   0  0  0  0  0  0  0  0  0  0  0  0
    5.6063   -2.2511   21.9193 O   0  0  0  0  0  0  0  0  0  0  0  0
    7.3760   -0.7747   21.0174 C   0  0  0  0  0  0  0  0  0  0  0  0
    7.5404    0.0638   22.2169 N   0  0  0  0  0  0  0  0  0  0  0  0
    8.3815    1.1486   22.2211 C   0  0  0  0  0  0  0  0  0  0  0  0
    9.1237    1.3806   21.2844 O   0  0  0  0  0  0  0  0  0  0  0  0
    8.3488    2.0244   23.4980 C   0  0  0  0  0  0  0  0  0  0  0  0
    8.3853    3.5272   23.2125 C   0  0  0  0  0  0  0  0  0  0  0  0
    7.5254    3.8298   22.6035 H   0  0  0  0  0  0  0  0  0  0  0  0
    9.2975    3.7876   22.6692 H   0  0  0  0  0  0  0  0  0  0  0  0
    8.3624    4.1044   24.1441 H   0  0  0  0  0  0  0  0  0  0  0  0
    9.7905    1.6058   24.5885 S   0  0  0  0  0  0  0  0  0  0  0  0
    9.2521   -0.0078   25.1042 C   0  0  0  0  0  0  0  0  0  0  0  0
    8.4018   -0.1326   26.2142 C   0  0  0  0  0  0  0  0  0  0  0  0
    7.8838   -1.3797   26.5518 C   0  0  0  0  0  0  0  0  0  0  0  0
    8.2026   -2.5264   25.8041 C   0  0  0  0  0  0  0  0  0  0  0  0
    7.6466   -3.8800   26.2280 C   0  0  0  0  0  0  0  0  0  0  0  0
    7.7033   -4.9445   25.1184 C   0  0  0  0  0  0  0  0  0  0  0  0
    9.0931   -4.9619   24.4633 C   0  0  0  0  0  0  0  0  0  0  0  0
    9.3992   -3.6029   23.8065 C   0  0  0  0  0  0  0  0  0  0  0  0
    9.0709   -2.4065   24.6959 C   0  0  0  0  0  0  0  0  0  0  0  0
    9.5960   -1.1447   24.3655 C   0  0  0  0  0  0  0  0  0  0  0  0
   10.2183   -1.0242   23.4810 H   0  0  0  0  0  0  0  0  0  0  0  0
   10.4557   -3.5492   23.5122 H   0  0  0  0  0  0  0  0  0  0  0  0
    8.8272   -3.5029   22.8690 H   0  0  0  0  0  0  0  0  0  0  0  0
    9.1598   -5.7678   23.7228 H   0  0  0  0  0  0  0  0  0  0  0  0
    9.8536   -5.1759   25.2301 H   0  0  0  0  0  0  0  0  0  0  0  0
    6.9410   -4.7209   24.3518 H   0  0  0  0  0  0  0  0  0  0  0  0
    7.4494   -5.9290   25.5314 H   0  0  0  0  0  0  0  0  0  0  0  0
    8.2292   -4.2250   27.0975 H   0  0  0  0  0  0  0  0  0  0  0  0
    6.6184   -3.7530   26.5931 H   0  0  0  0  0  0  0  0  0  0  0  0
    7.2073   -1.4701   27.4013 H   0  0  0  0  0  0  0  0  0  0  0  0
    8.1359    0.7576   26.7795 H   0  0  0  0  0  0  0  0  0  0  0  0
    7.4487    1.7811   24.0726 H   0  0  0  0  0  0  0  0  0  0  0  0
    6.8677   -0.0215   22.9673 H   0  0  0  0  0  0  0  0  0  0  0  0
    6.6682    0.0149   19.9064 C   0  0  0  0  0  0  0  0  0  0  0  0
    5.4487    0.6599   20.1451 C   0  0  0  0  0  0  0  0  0  0  0  0
    4.8097    1.3133   19.0906 C   0  0  0  0  0  0  0  0  0  0  0  0
    5.4047    1.2946   17.8248 C   0  0  0  0  0  0  0  0  0  0  0  0
    6.5708    0.6840   17.5724 N   0  0  0  0  0  0  0  0  0  0  0  0
    7.1831    0.0781   18.6021 C   0  0  0  0  0  0  0  0  0  0  0  0
    8.1308   -0.4056   18.3584 H   0  0  0  0  0  0  0  0  0  0  0  0
    4.9300    1.7926   16.9797 H   0  0  0  0  0  0  0  0  0  0  0  0
    3.8740    1.8384   19.2379 H   0  0  0  0  0  0  0  0  0  0  0  0
    4.9986    0.6416   21.1405 H   0  0  0  0  0  0  0  0  0  0  0  0
    8.3795   -1.0454   20.6700 H   0  0  0  0  0  0  0  0  0  0  0  0
    7.2678   -5.1348   20.2953 H   0  0  0  0  0  0  0  0  0  0  0  0
    5.6165   -4.4228   20.4103 H   0  0  0  0  0  0  0  0  0  0  0  0
    6.5294   -4.7320   21.8962 H   0  0  0  0  0  0  0  0  0  0  0  0
  1  2  1  0
  2  3  1  0
  3  4  2  0
  3  5  1  0
  5  6  1  0
  6  7  1  0
  7  8  2  0
  7  9  1  0
  9 10  1  0
 10 11  1  0
 10 12  1  0
 10 13  1  0
  9 14  1  0
 14 15  1  0
 15 16  2  0
 16 17  1  0
 17 18  2  0
 18 19  1  0
 19 20  1  0
 20 21  1  0
 21 22  1  0
 22 23  1  0
 23 24  2  0
 24 25  1  0
 22 26  1  0
 22 27  1  0
 21 28  1  0
 21 29  1  0
 20 30  1  0
 20 31  1  0
 19 32  1  0
 19 33  1  0
 17 34  1  0
 16 35  1  0
  9 36  1  0
  6 37  1  0
  5 38  1  0
 38 39  2  0
 39 40  1  0
 40 41  2  0
 41 42  1  0
 42 43  2  0
 43 44  1  0
 41 45  1  0
 40 46  1  0
 39 47  1  0
  5 48  1  0
  1 49  1  0
  1 50  1  0
  1 51  1  0
 24 15  1  0
 43 38  1  0
 23 18  1  0
M  END
>  <plip>  (1) 
-0.17857142857142858

>  <filename>  (1) 
[H][c]1[n][c]([H])[c]([C]([H])([C](=[O])[O][C]([H])([H])[H])[N]([H])[C](=[O])[C]([H])([S][c]2[c]([H])[c]([H])[c]3[c]([c]2[H])[C]([H])([H])[C]([H])([H])[C]([H])([H])[C]3([H])[H])[C]([H])([H])[H])[c]([H])[c]1[H]

$$$$
