
     RDKit          3D

 24 25  0  0  0  0  0  0  0  0999 V2000
    7.4712    1.9951   22.6536 C   0  0  0  0  0  0  0  0  0  0  0  0
    8.6227    1.2705   22.1405 N   0  0  0  0  0  0  0  0  0  0  0  0
    9.9394    1.5800   22.0617 C   0  0  0  0  0  0  0  0  0  0  0  0
   10.6819    0.6705   21.5191 N   0  0  0  0  0  0  0  0  0  0  0  0
    9.8281   -0.3976   21.2288 C   0  0  0  0  0  0  0  0  0  0  0  0
   10.0980   -1.4966   20.7987 O   0  0  0  0  0  0  0  0  0  0  0  0
    8.5312    0.0073   21.5673 N   0  0  0  0  0  0  0  0  0  0  0  0
    7.3284   -0.6536   21.0818 C   0  0  0  0  0  0  0  0  0  0  0  0
    6.6212    0.0494   19.9365 C   0  0  0  0  0  0  0  0  0  0  0  0
    5.3965    0.7012   20.1388 C   0  0  0  0  0  0  0  0  0  0  0  0
    4.7751    1.3388   19.0620 C   0  0  0  0  0  0  0  0  0  0  0  0
    5.4034    1.3039   17.8151 C   0  0  0  0  0  0  0  0  0  0  0  0
    6.5662    0.6737   17.5928 N   0  0  0  0  0  0  0  0  0  0  0  0
    7.1534    0.0671   18.6353 C   0  0  0  0  0  0  0  0  0  0  0  0
    8.0958   -0.4349   18.4115 H   0  0  0  0  0  0  0  0  0  0  0  0
    4.9585    1.8083   16.9583 H   0  0  0  0  0  0  0  0  0  0  0  0
    3.8347    1.8648   19.1762 H   0  0  0  0  0  0  0  0  0  0  0  0
    4.9459    0.7267   21.1344 H   0  0  0  0  0  0  0  0  0  0  0  0
    6.6318   -0.7932   21.9197 H   0  0  0  0  0  0  0  0  0  0  0  0
    7.6652   -1.6538   20.7873 H   0  0  0  0  0  0  0  0  0  0  0  0
   10.3447    2.5216   22.4536 H   0  0  0  0  0  0  0  0  0  0  0  0
    6.9284    2.5161   21.8527 H   0  0  0  0  0  0  0  0  0  0  0  0
    7.7985    2.7432   23.3806 H   0  0  0  0  0  0  0  0  0  0  0  0
    6.7854    1.3207   23.1870 H   0  0  0  0  0  0  0  0  0  0  0  0
  1  2  1  0
  2  3  1  0
  3  4  2  0
  4  5  1  0
  5  6  2  0
  5  7  1  0
  7  8  1  0
  8  9  1  0
  9 10  2  0
 10 11  1  0
 11 12  2  0
 12 13  1  0
 13 14  2  0
 14 15  1  0
 12 16  1  0
 11 17  1  0
 10 18  1  0
  8 19  1  0
  8 20  1  0
  3 21  1  0
  1 22  1  0
  1 23  1  0
  1 24  1  0
  7  2  1  0
 14  9  1  0
M  END
>  <plip>  (1) 
-0.07142857142857142

>  <filename>  (1) 
[H][c]1[n][c]([H])[c]([C]([H])([H])[n]2[c](=[O])[n][c]([H])[n]2[C]([H])([H])[H])[c]([H])[c]1[H]

$$$$
