
     RDKit          3D

 23 23  0  0  0  0  0  0  0  0999 V2000
    8.6389   -6.1988   23.8668 H   0  0  0  0  0  0  0  0  0  0  0  0
    9.3318   -5.4142   24.1549 C   0  0  0  0  0  0  0  0  0  0  0  0
   10.0791   -5.6763   24.9017 H   0  0  0  0  0  0  0  0  0  0  0  0
    9.3204   -4.1668   23.5569 C   0  0  0  0  0  0  0  0  0  0  0  0
   10.0446   -3.4290   23.8779 H   0  0  0  0  0  0  0  0  0  0  0  0
    8.3402   -3.7557   22.5572 C   0  0  0  0  0  0  0  0  0  0  0  0
    7.7091   -4.5864   21.9211 O   0  0  0  0  0  0  0  0  0  0  0  0
    8.2027   -2.4086   22.2999 N   0  0  0  0  0  0  0  0  0  0  0  0
    8.9393   -1.8034   22.6547 H   0  0  0  0  0  0  0  0  0  0  0  0
    7.2984   -1.8854   21.3816 C   0  0  0  0  0  0  0  0  0  0  0  0
    5.9287   -2.9951   20.6061 Br  0  0  0  0  0  0  0  0  0  0  0  0
    7.4257   -0.5686   21.0217 C   0  0  0  0  0  0  0  0  0  0  0  0
    8.2223    0.0066   21.4823 H   0  0  0  0  0  0  0  0  0  0  0  0
    6.6508    0.0524   19.9445 C   0  0  0  0  0  0  0  0  0  0  0  0
    7.1703    0.0585   18.6342 C   0  0  0  0  0  0  0  0  0  0  0  0
    8.1232   -0.4355   18.4660 H   0  0  0  0  0  0  0  0  0  0  0  0
    6.5665    0.6594   17.5924 N   0  0  0  0  0  0  0  0  0  0  0  0
    5.3999    1.2822   17.8336 C   0  0  0  0  0  0  0  0  0  0  0  0
    4.9055    1.7722   17.0034 H   0  0  0  0  0  0  0  0  0  0  0  0
    4.8057    1.3151   19.1030 C   0  0  0  0  0  0  0  0  0  0  0  0
    3.8686    1.8493   19.2252 H   0  0  0  0  0  0  0  0  0  0  0  0
    5.4357    0.6973   20.1864 C   0  0  0  0  0  0  0  0  0  0  0  0
    5.0047    0.7467   21.1869 H   0  0  0  0  0  0  0  0  0  0  0  0
  1  2  1  0
  2  3  1  0
  2  4  2  3
  4  5  1  0
  4  6  1  0
  6  7  2  0
  6  8  1  0
  8  9  1  0
  8 10  1  0
 10 11  1  0
 10 12  2  3
 12 13  1  0
 12 14  1  0
 14 15  2  0
 15 16  1  0
 15 17  1  0
 17 18  2  0
 18 19  1  0
 18 20  1  0
 20 21  1  0
 20 22  2  0
 22 23  1  0
 22 14  1  0
M  END
>  <plip>  (1) 
-0.06896551724137931

>  <filename>  (1) 
[H][C]([H])=[C]([H])[C](=[O])[N]([H])[C]([Br])=[C]([H])[c]1[c]([H])[n][c]([H])[c]([H])[c]1[H]

$$$$
