
     RDKit          3D

 33 35  0  0  0  0  0  0  0  0999 V2000
    4.9400    1.7578   16.7777 H   0  0  0  0  0  0  0  0  0  0  0  0
    5.3450    1.3578   17.7056 C   0  0  0  0  0  0  0  0  0  0  0  0
    6.5381    0.7582   17.6070 N   0  0  0  0  0  0  0  0  0  0  0  0
    7.0679    0.2630   18.7339 C   0  0  0  0  0  0  0  0  0  0  0  0
    8.0417   -0.2039   18.6167 H   0  0  0  0  0  0  0  0  0  0  0  0
    6.4650    0.3332   20.0096 C   0  0  0  0  0  0  0  0  0  0  0  0
    7.1759   -0.2187   21.2465 C   0  0  2  0  0  0  0  0  0  0  0  0
    6.5484   -0.0269   22.1196 H   0  0  0  0  0  0  0  0  0  0  0  0
    8.5860    0.4181   21.4594 C   0  0  0  0  0  0  0  0  0  0  0  0
    8.8019    0.5455   22.5381 H   0  0  0  0  0  0  0  0  0  0  0  0
    8.6868    1.3995   20.9749 H   0  0  0  0  0  0  0  0  0  0  0  0
    9.4669   -0.5582   20.8412 N   0  0  0  0  0  0  0  0  0  0  0  0
   10.4746   -0.5066   20.7944 H   0  0  0  0  0  0  0  0  0  0  0  0
    9.0060   -1.8295   20.9725 C   0  0  0  0  0  0  0  0  0  0  0  0
    9.7155   -2.8036   20.8813 O   0  0  0  0  0  0  0  0  0  0  0  0
    7.4657   -1.7626   21.1436 C   0  0  1  0  0  0  0  0  0  0  0  0
    7.0736   -2.1475   20.1923 H   0  0  0  0  0  0  0  0  0  0  0  0
    6.8646   -2.5985   22.1913 N   0  0  0  0  0  0  0  0  0  0  0  0
    5.6748   -3.2616   21.9865 C   0  0  0  0  0  0  0  0  0  0  0  0
    5.0769   -3.3426   20.9343 O   0  0  0  0  0  0  0  0  0  0  0  0
    5.2771   -3.9233   23.2913 C   0  0  0  0  0  0  0  0  0  0  0  0
    4.8315   -4.8974   23.0738 H   0  0  0  0  0  0  0  0  0  0  0  0
    4.4928   -3.3207   23.7570 H   0  0  0  0  0  0  0  0  0  0  0  0
    6.5688   -3.9665   24.1251 C   0  0  0  0  0  0  0  0  0  0  0  0
    6.4212   -3.6167   25.1520 H   0  0  0  0  0  0  0  0  0  0  0  0
    6.9487   -4.9919   24.1975 H   0  0  0  0  0  0  0  0  0  0  0  0
    7.5822   -3.0562   23.3786 C   0  0  0  0  0  0  0  0  0  0  0  0
    8.4803   -3.6062   23.0765 H   0  0  0  0  0  0  0  0  0  0  0  0
    7.9262   -2.2070   23.9825 H   0  0  0  0  0  0  0  0  0  0  0  0
    5.2045    0.9513   20.0769 C   0  0  0  0  0  0  0  0  0  0  0  0
    4.6743    1.0425   21.0287 H   0  0  0  0  0  0  0  0  0  0  0  0
    4.6356    1.4698   18.9057 C   0  0  0  0  0  0  0  0  0  0  0  0
    3.6730    1.9723   18.9089 H   0  0  0  0  0  0  0  0  0  0  0  0
  1  2  1  0
  2  3  2  0
  3  4  1  0
  4  5  1  0
  4  6  2  0
  6  7  1  0
  7  8  1  1
  7  9  1  0
  9 10  1  0
  9 11  1  0
  9 12  1  0
 12 13  1  0
 12 14  1  0
 14 15  2  0
 14 16  1  0
 16 17  1  6
 16 18  1  0
 18 19  1  0
 19 20  2  0
 19 21  1  0
 21 22  1  0
 21 23  1  0
 21 24  1  0
 24 25  1  0
 24 26  1  0
 24 27  1  0
 27 28  1  0
 27 29  1  0
  6 30  1  0
 30 31  1  0
 30 32  2  0
 32 33  1  0
 32  2  1  0
 16  7  1  0
 27 18  1  0
M  END
>  <plip>  (1) 
-0.06666666666666667

>  <filename>  (1) 
[H][c]1[n][c]([H])[c]([C@]2([H])[C]([H])([H])[N]([H])[C](=[O])[C@@]2([H])[N]2[C](=[O])[C]([H])([H])[C]([H])([H])[C]2([H])[H])[c]([H])[c]1[H]

$$$$
