
     RDKit          3D

 49 52  0  0  0  0  0  0  0  0999 V2000
    2.3469    7.4111   22.4875 C   0  0  0  0  0  0  0  0  0  0  0  0
    3.3141    6.3902   22.3661 O   0  0  0  0  0  0  0  0  0  0  0  0
    4.6342    6.7202   22.3437 C   0  0  0  0  0  0  0  0  0  0  0  0
    5.1536    8.0232   22.3199 C   0  0  0  0  0  0  0  0  0  0  0  0
    6.5439    8.2083   22.2427 C   0  0  0  0  0  0  0  0  0  0  0  0
    7.4170    7.1224   22.2431 C   0  0  0  0  0  0  0  0  0  0  0  0
    6.8916    5.8145   22.3018 C   0  0  0  0  0  0  0  0  0  0  0  0
    7.7094    4.6005   22.2886 C   0  0  0  0  0  0  0  0  0  0  0  0
    7.3730    3.3165   21.9854 C   0  0  0  0  0  0  0  0  0  0  0  0
    8.6035    2.5771   21.9670 C   0  0  0  0  0  0  0  0  0  0  0  0
    8.8516    1.1861   21.5183 C   0  0  0  0  0  0  0  0  0  0  0  0
    9.7336    0.9091   20.7174 O   0  0  0  0  0  0  0  0  0  0  0  0
    7.9706    0.2119   22.0003 N   0  0  0  0  0  0  0  0  0  0  0  0
    7.2449    0.3215   23.2694 C   0  0  0  0  0  0  0  0  0  0  0  0
    7.1439   -1.0658   23.8979 C   0  0  0  0  0  0  0  0  0  0  0  0
    6.5130   -2.0362   23.0433 O   0  0  0  0  0  0  0  0  0  0  0  0
    6.5479   -1.9246   21.6971 C   0  0  0  0  0  0  0  0  0  0  0  0
    5.9848   -2.7427   21.0216 O   0  0  0  0  0  0  0  0  0  0  0  0
    7.3977   -0.7675   21.0385 C   0  0  0  0  0  0  0  0  0  0  0  0
    6.6519   -0.0256   19.9105 C   0  0  0  0  0  0  0  0  0  0  0  0
    5.4407    0.6404   20.1326 C   0  0  0  0  0  0  0  0  0  0  0  0
    4.8379    1.3107   19.0639 C   0  0  0  0  0  0  0  0  0  0  0  0
    5.4836    1.3098   17.8231 C   0  0  0  0  0  0  0  0  0  0  0  0
    6.6602    0.7110   17.5989 N   0  0  0  0  0  0  0  0  0  0  0  0
    7.2309    0.0796   18.6364 C   0  0  0  0  0  0  0  0  0  0  0  0
    8.2032   -0.3774   18.4426 H   0  0  0  0  0  0  0  0  0  0  0  0
    5.0382    1.8167   16.9705 H   0  0  0  0  0  0  0  0  0  0  0  0
    3.8970    1.8347   19.1817 H   0  0  0  0  0  0  0  0  0  0  0  0
    4.9693    0.6330   21.1191 H   0  0  0  0  0  0  0  0  0  0  0  0
    8.2276   -1.3297   20.5867 H   0  0  0  0  0  0  0  0  0  0  0  0
    8.1407   -1.4325   24.1632 H   0  0  0  0  0  0  0  0  0  0  0  0
    6.5213   -1.0315   24.7968 H   0  0  0  0  0  0  0  0  0  0  0  0
    6.2273    0.7161   23.1255 H   0  0  0  0  0  0  0  0  0  0  0  0
    7.7702    1.0017   23.9477 H   0  0  0  0  0  0  0  0  0  0  0  0
    9.5987    3.4545   22.2616 C   0  0  0  0  0  0  0  0  0  0  0  0
   11.0776    3.3062   22.2563 C   0  0  0  0  0  0  0  0  0  0  0  0
   11.6003    4.2478   22.4494 H   0  0  0  0  0  0  0  0  0  0  0  0
   11.3758    2.5501   22.9885 H   0  0  0  0  0  0  0  0  0  0  0  0
   11.3781    2.9059   21.2805 H   0  0  0  0  0  0  0  0  0  0  0  0
    9.0563    4.6732   22.5138 O   0  0  0  0  0  0  0  0  0  0  0  0
    6.3957    2.9405   21.6915 H   0  0  0  0  0  0  0  0  0  0  0  0
    5.5057    5.6308   22.3158 C   0  0  0  0  0  0  0  0  0  0  0  0
    5.0671    4.6376   22.2774 H   0  0  0  0  0  0  0  0  0  0  0  0
    8.4913    7.2651   22.1757 H   0  0  0  0  0  0  0  0  0  0  0  0
    6.9353    9.2199   22.1562 H   0  0  0  0  0  0  0  0  0  0  0  0
    4.4842    8.8771   22.3288 H   0  0  0  0  0  0  0  0  0  0  0  0
    1.3848    6.8992   22.5295 H   0  0  0  0  0  0  0  0  0  0  0  0
    2.4912    7.9935   23.4084 H   0  0  0  0  0  0  0  0  0  0  0  0
    2.3531    8.0912   21.6234 H   0  0  0  0  0  0  0  0  0  0  0  0
  1  2  1  0
  2  3  1  0
  3  4  2  0
  4  5  1  0
  5  6  2  0
  6  7  1  0
  7  8  1  0
  8  9  2  0
  9 10  1  0
 10 11  1  0
 11 12  2  0
 11 13  1  0
 13 14  1  0
 14 15  1  0
 15 16  1  0
 16 17  1  0
 17 18  2  0
 17 19  1  0
 19 20  1  0
 20 21  2  0
 21 22  1  0
 22 23  2  0
 23 24  1  0
 24 25  2  0
 25 26  1  0
 23 27  1  0
 22 28  1  0
 21 29  1  0
 19 30  1  0
 15 31  1  0
 15 32  1  0
 14 33  1  0
 14 34  1  0
 10 35  2  0
 35 36  1  0
 36 37  1  0
 36 38  1  0
 36 39  1  0
 35 40  1  0
  9 41  1  0
  7 42  2  0
 42 43  1  0
  6 44  1  0
  5 45  1  0
  4 46  1  0
  1 47  1  0
  1 48  1  0
  1 49  1  0
 42  3  1  0
 40  8  1  0
 19 13  1  0
 25 20  1  0
M  END
>  <plip>  (1) 
-0.14285714285714285

>  <filename>  (1) 
[H][c]1[n][c]([H])[c]([C]2([H])[C](=[O])[O][C]([H])([H])[C]([H])([H])[N]2[C](=[O])[c]2[c]([C]([H])([H])[H])[o][c](-[c]3[c]([H])[c]([H])[c]([H])[c]([O][C]([H])([H])[H])[c]3[H])[c]2[H])[c]([H])[c]1[H]

$$$$
