
     RDKit          3D

 42 43  0  0  0  0  0  0  0  0999 V2000
    9.9366   -0.0144   22.2523 C   0  0  0  0  0  0  0  0  0  0  0  0
    8.9449    0.5216   21.2910 N   0  0  0  0  0  4  0  0  0  0  0  0
    8.6782    1.9395   21.6319 C   0  0  0  0  0  0  0  0  0  0  0  0
    9.6206    2.4954   21.7234 H   0  0  0  0  0  0  0  0  0  0  0  0
    8.0699    2.4209   20.8555 H   0  0  0  0  0  0  0  0  0  0  0  0
    8.1383    2.0168   22.5850 H   0  0  0  0  0  0  0  0  0  0  0  0
    7.6922   -0.2930   21.2817 C   0  0  0  0  0  0  0  0  0  0  0  0
    7.7927   -1.8612   21.3955 C   0  0  0  0  0  0  0  0  0  0  0  0
    8.8483   -2.4534   21.1603 O   0  0  0  0  0  0  0  0  0  0  0  0
    6.6839   -2.6114   21.8017 N   0  0  0  0  0  0  0  0  0  0  0  0
    6.5780   -4.0599   21.8080 N   0  0  0  0  0  0  0  0  0  0  0  0
    5.4904   -4.7357   22.3633 C   0  0  0  0  0  0  0  0  0  0  0  0
    4.9936   -4.4119   23.6254 C   0  0  0  0  0  0  0  0  0  0  0  0
    3.9407   -5.1492   24.1865 C   0  0  0  0  0  0  0  0  0  0  0  0
    3.3806   -6.2176   23.4850 C   0  0  0  0  0  0  0  0  0  0  0  0
    2.0008   -7.2787   24.2842 Br  0  0  0  0  0  0  0  0  0  0  0  0
    3.8685   -6.5369   22.2146 C   0  0  0  0  0  0  0  0  0  0  0  0
    4.9473   -5.8105   21.6468 C   0  0  0  0  0  0  0  0  0  0  0  0
    5.5465   -6.1160   20.2853 C   0  0  0  0  0  0  0  0  0  0  0  0
    5.3010   -5.1035   19.4105 F   0  0  0  0  0  0  0  0  0  0  0  0
    5.0142   -7.2606   19.7759 F   0  0  0  0  0  0  0  0  0  0  0  0
    6.9026   -6.2061   20.3898 F   0  0  0  0  0  0  0  0  0  0  0  0
    3.3876   -7.3617   21.6967 H   0  0  0  0  0  0  0  0  0  0  0  0
    3.5569   -4.9162   25.1755 H   0  0  0  0  0  0  0  0  0  0  0  0
    5.4554   -3.5976   24.1732 H   0  0  0  0  0  0  0  0  0  0  0  0
    7.0269   -4.5802   21.0487 H   0  0  0  0  0  0  0  0  0  0  0  0
    5.8775   -2.0712   22.1110 H   0  0  0  0  0  0  0  0  0  0  0  0
    6.9816    0.2022   20.0367 C   0  0  0  0  0  0  0  0  0  0  0  0
    5.6910    0.7171   20.1565 C   0  0  0  0  0  0  0  0  0  0  0  0
    5.0682    1.1901   19.0060 C   0  0  0  0  0  0  0  0  0  0  0  0
    5.7382    1.1502   17.7801 C   0  0  0  0  0  0  0  0  0  0  0  0
    6.9951    0.6851   17.6660 N   0  0  0  0  0  0  0  0  0  0  0  0
    7.6062    0.2296   18.7750 C   0  0  0  0  0  0  0  0  0  0  0  0
    8.6260   -0.1338   18.7012 H   0  0  0  0  0  0  0  0  0  0  0  0
    5.2252    1.4953   16.8856 H   0  0  0  0  0  0  0  0  0  0  0  0
    4.0706    1.6115   19.0401 H   0  0  0  0  0  0  0  0  0  0  0  0
    5.1757    0.7702   21.1152 H   0  0  0  0  0  0  0  0  0  0  0  0
    7.0887   -0.0130   22.1505 H   0  0  0  0  0  0  0  0  0  0  0  0
    9.3409    0.4852   20.3432 H   0  0  0  0  0  0  0  0  0  0  0  0
   10.2104   -1.0464   22.0032 H   0  0  0  0  0  0  0  0  0  0  0  0
    9.5355   -0.0077   23.2740 H   0  0  0  0  0  0  0  0  0  0  0  0
   10.8485    0.5921   22.2416 H   0  0  0  0  0  0  0  0  0  0  0  0
  1  2  1  0
  2  3  1  0
  3  4  1  0
  3  5  1  0
  3  6  1  0
  2  7  1  0
  7  8  1  0
  8  9  2  0
  8 10  1  0
 10 11  1  0
 11 12  1  0
 12 13  2  0
 13 14  1  0
 14 15  2  0
 15 16  1  0
 15 17  1  0
 17 18  2  0
 18 19  1  0
 19 20  1  0
 19 21  1  0
 19 22  1  0
 17 23  1  0
 14 24  1  0
 13 25  1  0
 11 26  1  0
 10 27  1  0
  7 28  1  0
 28 29  2  0
 29 30  1  0
 30 31  2  0
 31 32  1  0
 32 33  2  0
 33 34  1  0
 31 35  1  0
 30 36  1  0
 29 37  1  0
  7 38  1  0
  2 39  1  0
  1 40  1  0
  1 41  1  0
  1 42  1  0
 18 12  1  0
 33 28  1  0
M  CHG  1   2   1
M  END
>  <plip>  (1) 
-0.13333333333333333

>  <filename>  (1) 
[H][c]1[n][c]([H])[c]([C]([H])([C](=[O])[N]([H])[N]([H])[c]2[c]([H])[c]([H])[c]([Br])[c]([H])[c]2[C]([F])([F])[F])[N+]([H])([C]([H])([H])[H])[C]([H])([H])[H])[c]([H])[c]1[H]

$$$$
