
     RDKit          3D

 25 27  0  0  0  0  0  0  0  0999 V2000
    8.0349   -5.1167   26.4953 H   0  0  0  0  0  0  0  0  0  0  0  0
    7.7165   -4.5107   25.6514 C   0  0  0  0  0  0  0  0  0  0  0  0
    6.4954   -4.4903   25.2036 N   0  0  0  0  0  0  0  0  0  0  0  0
    6.4059   -3.6333   24.1408 C   0  0  0  0  0  0  0  0  0  0  0  0
    5.4507   -3.4905   23.6496 H   0  0  0  0  0  0  0  0  0  0  0  0
    7.5539   -2.9999   23.7576 C   0  0  0  0  0  0  0  0  0  0  0  0
    7.6699   -2.0690   22.6660 C   0  0  0  0  0  0  0  0  0  0  0  0
    6.7302   -1.6091   21.8014 C   0  0  0  0  0  0  0  0  0  0  0  0
    5.6775   -1.8313   21.7139 H   0  0  0  0  0  0  0  0  0  0  0  0
    7.3288   -0.6895   20.9542 N   0  0  0  0  0  0  0  0  0  0  0  0
    6.6537   -0.0049   19.8976 C   0  0  0  0  0  0  0  0  0  0  0  0
    7.1734    0.0399   18.5873 C   0  0  0  0  0  0  0  0  0  0  0  0
    8.1261   -0.4328   18.3567 H   0  0  0  0  0  0  0  0  0  0  0  0
    6.5545    0.6573   17.5743 N   0  0  0  0  0  0  0  0  0  0  0  0
    5.4001    1.2886   17.8371 C   0  0  0  0  0  0  0  0  0  0  0  0
    4.9368    1.7968   16.9964 H   0  0  0  0  0  0  0  0  0  0  0  0
    4.8090    1.3095   19.1058 C   0  0  0  0  0  0  0  0  0  0  0  0
    3.8780    1.8438   19.2568 H   0  0  0  0  0  0  0  0  0  0  0  0
    5.4432    0.6448   20.1585 C   0  0  0  0  0  0  0  0  0  0  0  0
    5.0381    0.6329   21.1731 H   0  0  0  0  0  0  0  0  0  0  0  0
    8.6524   -0.5243   21.3228 C   0  0  0  0  0  0  0  0  0  0  0  0
    9.8113    0.5275   20.7859 S   0  0  0  0  0  0  0  0  0  0  0  0
    8.8405   -1.4123   22.3247 N   0  0  0  0  0  0  0  0  0  0  0  0
    9.7536   -1.4475   22.7440 H   0  0  0  0  0  0  0  0  0  0  0  0
    8.8383   -3.4938   24.8091 S   0  0  0  0  0  0  0  0  0  0  0  0
  1  2  1  0
  2  3  2  0
  3  4  1  0
  4  5  1  0
  4  6  2  0
  6  7  1  0
  7  8  2  0
  8  9  1  0
  8 10  1  0
 10 11  1  0
 11 12  2  0
 12 13  1  0
 12 14  1  0
 14 15  2  0
 15 16  1  0
 15 17  1  0
 17 18  1  0
 17 19  2  0
 19 20  1  0
 10 21  1  0
 21 22  2  0
 21 23  1  0
 23 24  1  0
  6 25  1  0
 25  2  1  0
 23  7  1  0
 19 11  1  0
M  END
>  <plip>  (1) 
-0.03571428571428571

>  <filename>  (1) 
[H][c]1[n][c]([H])[c](-[c]2[c]([H])[n](-[c]3[c]([H])[n][c]([H])[c]([H])[c]3[H])[c](=[S])[n]2[H])[s]1

$$$$
