
     RDKit          3D

 21 22  0  0  0  0  0  0  0  0999 V2000
    4.9013    1.8242   16.9565 H   0  0  0  0  0  0  0  0  0  0  0  0
    5.3686    1.3161   17.8020 C   0  0  0  0  0  0  0  0  0  0  0  0
    6.5307    0.6959   17.5401 N   0  0  0  0  0  0  0  0  0  0  0  0
    7.1386    0.0716   18.5572 C   0  0  0  0  0  0  0  0  0  0  0  0
    8.0853   -0.4129   18.3242 H   0  0  0  0  0  0  0  0  0  0  0  0
    6.6390   -0.0074   19.8747 C   0  0  0  0  0  0  0  0  0  0  0  0
    7.3873   -0.7209   20.9382 C   0  0  0  0  0  0  0  0  0  0  0  0
    8.7726   -0.5185   21.2607 C   0  0  0  0  0  0  0  0  0  0  0  0
    9.4249    0.1584   20.7073 H   0  0  0  0  0  0  0  0  0  0  0  0
    9.2885   -1.1508   22.2687 N   0  0  0  0  0  0  0  0  0  0  0  0
    8.0873   -2.1190   22.9671 S   0  0  0  0  0  0  0  0  0  0  0  0
    6.8851   -1.6723   21.8081 C   0  0  0  0  0  0  0  0  0  0  0  0
    5.6750   -2.2962   21.7349 N   0  0  0  0  0  0  0  0  0  0  0  0
    5.0265   -1.8211   21.1129 H   0  0  0  0  0  0  0  0  0  0  0  0
    5.1288   -3.1281   22.7210 N   0  0  0  0  0  0  0  0  0  0  0  0
    5.7159   -3.9502   22.8758 H   0  0  0  0  0  0  0  0  0  0  0  0
    5.0887   -2.6106   23.6078 H   0  0  0  0  0  0  0  0  0  0  0  0
    5.4241    0.6579   20.1204 C   0  0  0  0  0  0  0  0  0  0  0  0
    5.0200    0.6732   21.1329 H   0  0  0  0  0  0  0  0  0  0  0  0
    4.7810    1.3298   19.0713 C   0  0  0  0  0  0  0  0  0  0  0  0
    3.8499    1.8669   19.2213 H   0  0  0  0  0  0  0  0  0  0  0  0
  1  2  1  0
  2  3  2  0
  3  4  1  0
  4  5  1  0
  4  6  2  0
  6  7  1  0
  7  8  1  0
  8  9  1  0
  8 10  2  0
 10 11  1  0
 11 12  1  0
 12 13  1  0
 13 14  1  0
 13 15  1  0
 15 16  1  0
 15 17  1  0
  6 18  1  0
 18 19  1  0
 18 20  2  0
 20 21  1  0
 20  2  1  0
 12  7  2  0
M  END
>  <plip>  (1) 
-0.10714285714285714

>  <filename>  (1) 
[H][c]1[n][c]([H])[c](-[c]2[c]([H])[n][s][c]2[N]([H])[N]([H])[H])[c]([H])[c]1[H]

$$$$
