
     RDKit          3D

 27 28  0  0  0  0  0  0  0  0999 V2000
   10.3449    5.0341   22.7354 H   0  0  0  0  0  0  0  0  0  0  0  0
   11.0344    4.3619   22.7022 O   0  0  0  0  0  0  0  0  0  0  0  0
   10.4209    3.2159   22.2939 C   0  0  0  0  0  0  0  0  0  0  0  0
   11.2181    2.1802   21.7913 C   0  0  0  0  0  0  0  0  0  0  0  0
   12.2914    2.3408   21.7115 H   0  0  0  0  0  0  0  0  0  0  0  0
   10.6260    0.9845   21.3870 C   0  0  0  0  0  0  0  0  0  0  0  0
   11.2345    0.1589   21.0254 H   0  0  0  0  0  0  0  0  0  0  0  0
    9.2261    0.8290   21.4623 C   0  0  0  0  0  0  0  0  0  0  0  0
    8.7399   -0.3997   21.0989 O   0  0  0  0  0  0  0  0  0  0  0  0
    7.3379   -0.6642   21.0595 C   0  0  2  0  0  0  0  0  0  0  0  0
    6.8769   -0.3671   22.0216 H   0  0  0  0  0  0  0  0  0  0  0  0
    7.3219   -2.0362   20.8755 O   0  0  0  0  0  0  0  0  0  0  0  0
    8.2428   -2.2467   21.0762 H   0  0  0  0  0  0  0  0  0  0  0  0
    6.6093    0.0332   19.9402 C   0  0  0  0  0  0  0  0  0  0  0  0
    7.1615    0.0177   18.6538 C   0  0  0  0  0  0  0  0  0  0  0  0
    8.0909   -0.5138   18.4541 H   0  0  0  0  0  0  0  0  0  0  0  0
    6.6077    0.6389   17.6042 N   0  0  0  0  0  0  0  0  0  0  0  0
    5.4517    1.2867   17.8090 C   0  0  0  0  0  0  0  0  0  0  0  0
    5.0182    1.7766   16.9412 H   0  0  0  0  0  0  0  0  0  0  0  0
    4.8034    1.3417   19.0491 C   0  0  0  0  0  0  0  0  0  0  0  0
    3.8634    1.8765   19.1445 H   0  0  0  0  0  0  0  0  0  0  0  0
    5.4026    0.7114   20.1392 C   0  0  0  0  0  0  0  0  0  0  0  0
    4.9413    0.7489   21.1301 H   0  0  0  0  0  0  0  0  0  0  0  0
    8.4299    1.8831   21.9216 C   0  0  0  0  0  0  0  0  0  0  0  0
    7.3464    1.7794   21.9467 H   0  0  0  0  0  0  0  0  0  0  0  0
    9.0302    3.0745   22.3418 C   0  0  0  0  0  0  0  0  0  0  0  0
    8.4095    3.8949   22.7041 H   0  0  0  0  0  0  0  0  0  0  0  0
  1  2  1  0
  2  3  1  0
  3  4  2  0
  4  5  1  0
  4  6  1  0
  6  7  1  0
  6  8  2  0
  8  9  1  0
  9 10  1  0
 10 11  1  1
 10 12  1  0
 12 13  1  0
 10 14  1  0
 14 15  2  0
 15 16  1  0
 15 17  1  0
 17 18  2  0
 18 19  1  0
 18 20  1  0
 20 21  1  0
 20 22  2  0
 22 23  1  0
  8 24  1  0
 24 25  1  0
 24 26  2  0
 26 27  1  0
 26  3  1  0
 22 14  1  0
M  END
>  <plip>  (1) 
-0.10714285714285714

>  <filename>  (1) 
[H][O][c]1[c]([H])[c]([H])[c]([O][C@]([H])([O][H])[c]2[c]([H])[n][c]([H])[c]([H])[c]2[H])[c]([H])[c]1[H]

$$$$
