
     RDKit          3D

 28 29  0  0  0  0  0  0  0  0999 V2000
    4.9727    1.8299   17.0365 H   0  0  0  0  0  0  0  0  0  0  0  0
    5.4680    1.3135   17.8560 C   0  0  0  0  0  0  0  0  0  0  0  0
    6.6411    0.7324   17.5597 N   0  0  0  0  0  0  0  0  0  0  0  0
    7.2674    0.0816   18.5501 C   0  0  0  0  0  0  0  0  0  0  0  0
    8.2116   -0.3919   18.2879 H   0  0  0  0  0  0  0  0  0  0  0  0
    6.7713   -0.0462   19.8722 C   0  0  0  0  0  0  0  0  0  0  0  0
    7.4395   -0.8278   20.9454 C   0  0  0  0  0  0  0  0  0  0  0  0
    8.6405   -0.8815   21.6234 C   0  0  0  0  0  0  0  0  0  0  0  0
    9.7964   -0.2089   21.6293 O   0  0  0  0  0  0  0  0  0  0  0  0
    9.8557    1.0168   20.8787 C   0  0  0  0  0  0  0  0  0  0  0  0
    9.5115    0.8226   19.8600 H   0  0  0  0  0  0  0  0  0  0  0  0
   10.9180    1.2763   20.8457 H   0  0  0  0  0  0  0  0  0  0  0  0
    9.0391    2.1511   21.4941 C   0  0  0  0  0  0  0  0  0  0  0  0
    8.9462    2.9619   20.7553 H   0  0  0  0  0  0  0  0  0  0  0  0
    8.0278    1.7697   21.6680 H   0  0  0  0  0  0  0  0  0  0  0  0
    9.5372    2.6155   22.7317 O   0  0  0  0  0  0  0  0  0  0  0  0
   10.7295    3.3718   22.6847 C   0  0  0  0  0  0  0  0  0  0  0  0
   11.4789    2.9828   21.9767 H   0  0  0  0  0  0  0  0  0  0  0  0
   11.1647    3.3260   23.6841 H   0  0  0  0  0  0  0  0  0  0  0  0
   10.5469    4.4272   22.4366 H   0  0  0  0  0  0  0  0  0  0  0  0
    8.2299   -1.9830   22.5310 C   0  0  0  0  0  0  0  0  0  0  0  0
    8.7295   -2.6377   23.4078 O   0  0  0  0  0  0  0  0  0  0  0  0
    6.8454   -1.9089   21.7957 C   0  0  0  0  0  0  0  0  0  0  0  0
    5.7874   -2.4848   21.8472 O   0  0  0  0  0  0  0  0  0  0  0  0
    5.5389    0.5697   20.1400 C   0  0  0  0  0  0  0  0  0  0  0  0
    5.1289    0.5128   21.1473 H   0  0  0  0  0  0  0  0  0  0  0  0
    4.8791    1.2607   19.1216 C   0  0  0  0  0  0  0  0  0  0  0  0
    3.9309    1.7599   19.2958 H   0  0  0  0  0  0  0  0  0  0  0  0
  1  2  1  0
  2  3  2  0
  3  4  1  0
  4  5  1  0
  4  6  2  0
  6  7  1  0
  7  8  2  0
  8  9  1  0
  9 10  1  0
 10 11  1  0
 10 12  1  0
 10 13  1  0
 13 14  1  0
 13 15  1  0
 13 16  1  0
 16 17  1  0
 17 18  1  0
 17 19  1  0
 17 20  1  0
  8 21  1  0
 21 22  2  0
 21 23  1  0
 23 24  2  0
  6 25  1  0
 25 26  1  0
 25 27  2  0
 27 28  1  0
 27  2  1  0
 23  7  1  0
M  END
>  <plip>  (1) 
-0.07142857142857142

>  <filename>  (1) 
[H][c]1[n][c]([H])[c](-[c]2[c]([O][C]([H])([H])[C]([H])([H])[O][C]([H])([H])[H])[c](=[O])[c]2=[O])[c]([H])[c]1[H]

$$$$
