
     RDKit          3D

 41 44  0  0  0  0  0  0  0  0999 V2000
    4.9715    1.9068   16.8526 H   0  0  0  0  0  0  0  0  0  0  0  0
    5.4060    1.3641   17.6915 C   0  0  0  0  0  0  0  0  0  0  0  0
    6.5502    0.7082   17.4462 N   0  0  0  0  0  0  0  0  0  0  0  0
    7.1105    0.0467   18.4687 C   0  0  0  0  0  0  0  0  0  0  0  0
    8.0358   -0.4808   18.2279 H   0  0  0  0  0  0  0  0  0  0  0  0
    6.5928   -0.0038   19.7797 C   0  0  0  0  0  0  0  0  0  0  0  0
    7.2706   -0.7700   20.8848 C   0  0  0  0  0  0  0  0  0  0  0  0
    6.5094   -1.1339   21.5877 H   0  0  0  0  0  0  0  0  0  0  0  0
    7.7394   -1.6728   20.4745 H   0  0  0  0  0  0  0  0  0  0  0  0
    8.3591   -0.0425   21.7426 C   0  0  1  0  0  0  0  0  0  0  0  0
    8.8693   -1.0124   22.8450 C   0  0  0  0  0  0  0  0  0  0  0  0
    8.7643   -2.3022   22.5944 N   0  0  0  0  0  0  0  0  0  0  0  0
    9.0196   -3.1991   23.5951 C   0  0  0  0  0  0  0  0  0  0  0  0
    8.8176   -4.5726   23.2856 C   0  0  0  0  0  0  0  0  0  0  0  0
    8.4841   -4.7845   22.2774 H   0  0  0  0  0  0  0  0  0  0  0  0
    8.9907   -5.5300   24.2609 C   0  0  0  0  0  0  0  0  0  0  0  0
    8.8094   -6.5787   24.0544 H   0  0  0  0  0  0  0  0  0  0  0  0
    9.4022   -5.1602   25.5698 C   0  0  0  0  0  0  0  0  0  0  0  0
    9.5174   -5.9368   26.3234 H   0  0  0  0  0  0  0  0  0  0  0  0
    9.6488   -3.8435   25.8888 C   0  0  0  0  0  0  0  0  0  0  0  0
    9.9740   -3.5699   26.8909 H   0  0  0  0  0  0  0  0  0  0  0  0
    9.4596   -2.8216   24.9034 C   0  0  0  0  0  0  0  0  0  0  0  0
    9.6709   -1.4272   25.1127 C   0  0  0  0  0  0  0  0  0  0  0  0
    9.9646   -1.0695   26.1018 H   0  0  0  0  0  0  0  0  0  0  0  0
    9.4186   -0.5425   24.0897 C   0  0  0  0  0  0  0  0  0  0  0  0
    9.6209    0.5182   24.2145 H   0  0  0  0  0  0  0  0  0  0  0  0
    9.5748    0.4242   20.8999 C   0  0  0  0  0  0  0  0  0  0  0  0
    9.2307    0.8296   19.9384 H   0  0  0  0  0  0  0  0  0  0  0  0
   10.2868   -0.3815   20.6777 H   0  0  0  0  0  0  0  0  0  0  0  0
   10.1975    1.5033   21.6569 N   0  0  0  0  0  0  0  0  0  0  0  0
   10.7104    1.0936   22.4336 H   0  0  0  0  0  0  0  0  0  0  0  0
    9.0763    2.2892   22.1907 C   0  0  0  0  0  0  0  0  0  0  0  0
    9.3639    2.7815   23.1282 H   0  0  0  0  0  0  0  0  0  0  0  0
    8.8324    3.0917   21.4813 H   0  0  0  0  0  0  0  0  0  0  0  0
    7.8729    1.3178   22.3521 C   0  0  0  0  0  0  0  0  0  0  0  0
    6.9985    1.7066   21.8192 H   0  0  0  0  0  0  0  0  0  0  0  0
    7.5698    1.2009   23.3991 H   0  0  0  0  0  0  0  0  0  0  0  0
    5.3739    0.6621   19.9942 C   0  0  0  0  0  0  0  0  0  0  0  0
    4.9030    0.6330   20.9807 H   0  0  0  0  0  0  0  0  0  0  0  0
    4.7788    1.3594   18.9398 C   0  0  0  0  0  0  0  0  0  0  0  0
    3.8561    1.9093   19.0786 H   0  0  0  0  0  0  0  0  0  0  0  0
  1  2  1  0
  2  3  2  0
  3  4  1  0
  4  5  1  0
  4  6  2  0
  6  7  1  0
  7  8  1  0
  7  9  1  0
 10  7  1  6
 10 11  1  0
 11 12  2  0
 12 13  1  0
 13 14  2  0
 14 15  1  0
 14 16  1  0
 16 17  1  0
 16 18  2  0
 18 19  1  0
 18 20  1  0
 20 21  1  0
 20 22  2  0
 22 23  1  0
 23 24  1  0
 23 25  2  0
 25 26  1  0
 10 27  1  0
 27 28  1  0
 27 29  1  0
 27 30  1  0
 30 31  1  0
 30 32  1  0
 32 33  1  0
 32 34  1  0
 32 35  1  0
 35 36  1  0
 35 37  1  0
  6 38  1  0
 38 39  1  0
 38 40  2  0
 40 41  1  0
 40  2  1  0
 35 10  1  0
 25 11  1  0
 22 13  1  0
M  END
>  <plip>  (1) 
-0.10714285714285714

>  <filename>  (1) 
[H][c]1[n][c]([H])[c]([C]([H])([H])[C@@]2([c]3[n][c]4[c]([H])[c]([H])[c]([H])[c]([H])[c]4[c]([H])[c]3[H])[C]([H])([H])[N]([H])[C]([H])([H])[C]2([H])[H])[c]([H])[c]1[H]

$$$$
