
     RDKit          3D

 21 22  0  0  0  0  0  0  0  0999 V2000
    4.9285    1.7768   16.9971 H   0  0  0  0  0  0  0  0  0  0  0  0
    5.4064    1.2888   17.8430 C   0  0  0  0  0  0  0  0  0  0  0  0
    6.5693    0.6719   17.5902 N   0  0  0  0  0  0  0  0  0  0  0  0
    7.1732    0.0560   18.6081 C   0  0  0  0  0  0  0  0  0  0  0  0
    8.1201   -0.4304   18.3863 H   0  0  0  0  0  0  0  0  0  0  0  0
    6.6390    0.0070   19.9051 C   0  0  0  0  0  0  0  0  0  0  0  0
    7.4391   -0.7268   20.9314 C   0  0  0  0  0  0  0  0  0  0  0  0
    8.4550   -1.3122   20.6694 O   0  0  0  0  0  0  0  0  0  0  0  0
    6.8659   -0.6163   22.6817 S   0  0  0  0  0  0  0  0  0  0  0  0
    7.7474    0.7922   23.0645 N   0  0  0  0  0  0  0  0  0  0  0  0
    7.2179    2.0198   22.8782 N   0  0  0  0  0  0  0  0  0  0  0  0
    8.1791    2.8559   23.2346 C   0  0  0  0  0  0  0  0  0  0  0  0
    8.0061    3.9238   23.2198 H   0  0  0  0  0  0  0  0  0  0  0  0
    9.3500    2.1731   23.6342 C   0  0  0  0  0  0  0  0  0  0  0  0
   10.2790    2.5984   23.9763 H   0  0  0  0  0  0  0  0  0  0  0  0
    9.0385    0.8461   23.5015 C   0  0  0  0  0  0  0  0  0  0  0  0
    9.6013   -0.0663   23.6594 H   0  0  0  0  0  0  0  0  0  0  0  0
    5.4270    0.6590   20.1639 C   0  0  0  0  0  0  0  0  0  0  0  0
    4.9833    0.6557   21.1659 H   0  0  0  0  0  0  0  0  0  0  0  0
    4.8028    1.3135   19.1046 C   0  0  0  0  0  0  0  0  0  0  0  0
    3.8710    1.8466   19.2541 H   0  0  0  0  0  0  0  0  0  0  0  0
  1  2  1  0
  2  3  2  0
  3  4  1  0
  4  5  1  0
  4  6  2  0
  6  7  1  0
  7  8  2  0
  7  9  1  0
  9 10  1  0
 10 11  1  0
 11 12  2  0
 12 13  1  0
 12 14  1  0
 14 15  1  0
 14 16  2  0
 16 17  1  0
  6 18  1  0
 18 19  1  0
 18 20  2  0
 20 21  1  0
 20  2  1  0
 16 10  1  0
M  END
>  <plip>  (1) 
-0.03571428571428571

>  <filename>  (1) 
[H][c]1[n][c]([H])[c]([C](=[O])[S][n]2[n][c]([H])[c]([H])[c]2[H])[c]([H])[c]1[H]

$$$$
