
     RDKit          3D

 30 31  0  0  0  0  0  0  0  0999 V2000
    4.9905    1.7994   17.0186 H   0  0  0  0  0  0  0  0  0  0  0  0
    5.4364    1.2684   17.8577 C   0  0  0  0  0  0  0  0  0  0  0  0
    6.5852    0.6192   17.6088 N   0  0  0  0  0  0  0  0  0  0  0  0
    7.1507   -0.0245   18.6347 C   0  0  0  0  0  0  0  0  0  0  0  0
    8.0892   -0.5388   18.4410 H   0  0  0  0  0  0  0  0  0  0  0  0
    6.6294   -0.0704   19.9412 C   0  0  0  0  0  0  0  0  0  0  0  0
    7.3343   -0.7886   20.9211 N   0  0  0  0  0  0  0  0  0  0  0  0
    8.3302   -0.8748   20.7126 H   0  0  0  0  0  0  0  0  0  0  0  0
    7.0721   -0.5292   22.2646 N   0  0  0  0  0  0  0  0  0  0  0  0
    6.8575   -1.6003   23.1298 C   0  0  0  0  0  0  0  0  0  0  0  0
    7.0047   -1.3512   24.4400 N   0  0  0  0  0  0  0  0  0  0  0  0
    6.8675   -2.3835   25.2726 C   0  0  0  0  0  0  0  0  0  0  0  0
    7.0128   -2.1554   26.3251 H   0  0  0  0  0  0  0  0  0  0  0  0
    6.5682   -3.6792   24.8694 C   0  0  0  0  0  0  0  0  0  0  0  0
    6.4672   -4.4598   25.6094 H   0  0  0  0  0  0  0  0  0  0  0  0
    6.3803   -3.9474   23.5006 C   0  0  0  0  0  0  0  0  0  0  0  0
    6.0630   -5.3359   23.0013 C   0  0  0  0  0  0  0  0  0  0  0  0
    5.4719   -5.2980   22.0788 H   0  0  0  0  0  0  0  0  0  0  0  0
    6.9790   -5.9004   22.7845 H   0  0  0  0  0  0  0  0  0  0  0  0
    5.4952   -5.8966   23.7504 H   0  0  0  0  0  0  0  0  0  0  0  0
    6.5154   -2.8782   22.6309 C   0  0  0  0  0  0  0  0  0  0  0  0
    6.3801   -2.9675   21.5624 H   0  0  0  0  0  0  0  0  0  0  0  0
    7.3394    0.8020   22.8061 C   0  0  0  0  0  0  0  0  0  0  0  0
    7.4023    1.5382   21.9964 H   0  0  0  0  0  0  0  0  0  0  0  0
    6.5239    1.0824   23.4859 H   0  0  0  0  0  0  0  0  0  0  0  0
    8.2745    0.8052   23.3837 H   0  0  0  0  0  0  0  0  0  0  0  0
    5.4261    0.5990   20.1808 C   0  0  0  0  0  0  0  0  0  0  0  0
    4.9934    0.5968   21.1838 H   0  0  0  0  0  0  0  0  0  0  0  0
    4.8243    1.2759   19.1159 C   0  0  0  0  0  0  0  0  0  0  0  0
    3.8973    1.8204   19.2558 H   0  0  0  0  0  0  0  0  0  0  0  0
  1  2  1  0
  2  3  2  0
  3  4  1  0
  4  5  1  0
  4  6  2  0
  6  7  1  0
  7  8  1  0
  7  9  1  0
  9 10  1  0
 10 11  2  0
 11 12  1  0
 12 13  1  0
 12 14  2  0
 14 15  1  0
 14 16  1  0
 16 17  1  0
 17 18  1  0
 17 19  1  0
 17 20  1  0
 16 21  2  0
 21 22  1  0
  9 23  1  0
 23 24  1  0
 23 25  1  0
 23 26  1  0
  6 27  1  0
 27 28  1  0
 27 29  2  0
 29 30  1  0
 29  2  1  0
 21 10  1  0
M  END
>  <plip>  (1) 
-0.0

>  <filename>  (1) 
[H][c]1[n][c]([H])[c]([N]([H])[N]([c]2[n][c]([H])[c]([H])[c]([C]([H])([H])[H])[c]2[H])[C]([H])([H])[H])[c]([H])[c]1[H]

$$$$
