
     RDKit          3D

 43 46  0  0  0  0  0  0  0  0999 V2000
    7.1269   -6.5105   27.9597 H   0  0  0  0  0  0  0  0  0  0  0  0
    6.3665   -6.5262   27.1732 C   0  0  0  0  0  0  0  0  0  0  0  0
    6.6453   -5.7911   26.0958 N   0  0  0  0  0  0  0  0  0  0  0  0
    5.7444   -5.7501   25.1004 C   0  0  0  0  0  0  0  0  0  0  0  0
    6.0560   -4.9467   24.0274 N   0  0  0  0  0  0  0  0  0  0  0  0
    5.1746   -4.7742   22.8564 C   0  0  0  0  0  0  0  0  0  0  0  0
    4.7628   -5.7360   22.5349 H   0  0  0  0  0  0  0  0  0  0  0  0
    4.3172   -4.1311   23.0986 H   0  0  0  0  0  0  0  0  0  0  0  0
    5.9363   -4.1691   21.6511 C   0  0  0  0  0  0  0  0  0  0  0  0
    6.6943   -4.9139   21.3441 H   0  0  0  0  0  0  0  0  0  0  0  0
    5.2433   -4.0610   20.8097 H   0  0  0  0  0  0  0  0  0  0  0  0
    6.5235   -2.8529   21.9618 N   0  0  0  0  0  0  0  0  0  0  0  0
    7.2967   -2.2347   20.9167 C   0  0  2  0  0  0  0  0  0  0  0  0
    6.8452   -2.5391   19.9602 H   0  0  0  0  0  0  0  0  0  0  0  0
    8.6926   -2.5672   20.9680 N   0  0  0  0  0  0  0  0  0  0  0  0
    9.0086   -3.3556   21.4957 H   0  0  0  0  0  0  0  0  0  0  0  0
    9.4755   -1.4714   21.2034 C   0  0  0  0  0  0  0  0  0  0  0  0
   10.6273   -1.4984   21.5185 O   0  0  0  0  0  0  0  0  0  0  0  0
    8.7524   -0.3409   21.0180 O   0  0  0  0  0  0  0  0  0  0  0  0
    7.3576   -0.6678   20.9943 C   0  0  1  0  0  0  0  0  0  0  0  0
    6.9064   -0.3620   21.9485 H   0  0  0  0  0  0  0  0  0  0  0  0
    6.6923    0.0689   19.8659 C   0  0  0  0  0  0  0  0  0  0  0  0
    7.2831    0.1626   18.5931 C   0  0  0  0  0  0  0  0  0  0  0  0
    8.2663   -0.2655   18.4022 H   0  0  0  0  0  0  0  0  0  0  0  0
    6.6998    0.7647   17.5487 N   0  0  0  0  0  0  0  0  0  0  0  0
    5.5039    1.3395   17.7516 C   0  0  0  0  0  0  0  0  0  0  0  0
    5.0535    1.8289   16.8895 H   0  0  0  0  0  0  0  0  0  0  0  0
    4.8388    1.3239   18.9814 C   0  0  0  0  0  0  0  0  0  0  0  0
    3.8822    1.8254   19.0844 H   0  0  0  0  0  0  0  0  0  0  0  0
    5.4446    0.6746   20.0571 C   0  0  0  0  0  0  0  0  0  0  0  0
    4.9675    0.6472   21.0396 H   0  0  0  0  0  0  0  0  0  0  0  0
    6.9340   -2.7083   23.3725 C   0  0  0  0  0  0  0  0  0  0  0  0
    6.1185   -2.2349   23.9416 H   0  0  0  0  0  0  0  0  0  0  0  0
    7.8071   -2.0465   23.4529 H   0  0  0  0  0  0  0  0  0  0  0  0
    7.2486   -4.0713   24.0353 C   0  0  0  0  0  0  0  0  0  0  0  0
    8.0562   -4.5572   23.4650 H   0  0  0  0  0  0  0  0  0  0  0  0
    7.5998   -3.9249   25.0555 H   0  0  0  0  0  0  0  0  0  0  0  0
    4.5290   -6.4851   25.1575 C   0  0  0  0  0  0  0  0  0  0  0  0
    3.8358   -6.4097   24.3324 H   0  0  0  0  0  0  0  0  0  0  0  0
    4.2560   -7.2486   26.2866 C   0  0  0  0  0  0  0  0  0  0  0  0
    3.3203   -7.8156   26.3549 H   0  0  0  0  0  0  0  0  0  0  0  0
    5.1927   -7.2648   27.3285 C   0  0  0  0  0  0  0  0  0  0  0  0
    5.0369   -7.8457   28.2307 H   0  0  0  0  0  0  0  0  0  0  0  0
  1  2  1  0
  2  3  2  0
  3  4  1  0
  4  5  1  0
  5  6  1  0
  6  7  1  0
  6  8  1  0
  6  9  1  0
  9 10  1  0
  9 11  1  0
  9 12  1  0
 12 13  1  0
 13 14  1  6
 13 15  1  0
 15 16  1  0
 15 17  1  0
 17 18  2  0
 17 19  1  0
 19 20  1  0
 20 21  1  1
 20 22  1  0
 22 23  2  0
 23 24  1  0
 23 25  1  0
 25 26  2  0
 26 27  1  0
 26 28  1  0
 28 29  1  0
 28 30  2  0
 30 31  1  0
 12 32  1  0
 32 33  1  0
 32 34  1  0
 32 35  1  0
 35 36  1  0
 35 37  1  0
  4 38  2  0
 38 39  1  0
 38 40  1  0
 40 41  1  0
 40 42  2  0
 42 43  1  0
 42  2  1  0
 35  5  1  0
 20 13  1  0
 30 22  1  0
M  END
>  <plip>  (1) 
-0.06896551724137931

>  <filename>  (1) 
[H][c]1[n][c]([N]2[C]([H])([H])[C]([H])([H])[N]([C@]3([H])[N]([H])[C](=[O])[O][C@@]3([H])[c]3[c]([H])[n][c]([H])[c]([H])[c]3[H])[C]([H])([H])[C]2([H])[H])[c]([H])[c]([H])[c]1[H]

$$$$
