
     RDKit          3D

 45 47  0  0  0  0  0  0  0  0999 V2000
   10.0728    2.0023   21.6038 C   0  0  0  0  0  0  0  0  0  0  0  0
    8.6692    1.4508   21.4582 C   0  0  0  0  0  0  0  0  0  0  0  0
    8.6839   -0.0536   21.2871 N   0  0  0  0  0  4  0  0  0  0  0  0
    9.4383   -0.7507   22.4527 C   0  0  0  0  0  0  0  0  0  0  0  0
    8.8007   -0.6151   23.8301 C   0  0  0  0  0  0  0  0  0  0  0  0
    7.9008   -1.5790   24.3308 C   0  0  0  0  0  0  0  0  0  0  0  0
    7.2529   -1.3629   25.5564 C   0  0  0  0  0  0  0  0  0  0  0  0
    7.5402   -0.1824   26.2375 C   0  0  0  0  0  0  0  0  0  0  0  0
    7.0512    0.3697   27.5543 C   0  0  0  0  0  0  0  0  0  0  0  0
    7.7857    1.7304   27.7271 C   0  0  0  0  0  0  0  0  0  0  0  0
    8.6240    1.9493   26.4449 C   0  0  0  0  0  0  0  0  0  0  0  0
    8.4623    0.6959   25.6589 C   0  0  0  0  0  0  0  0  0  0  0  0
    9.1235    0.4860   24.5191 N   0  0  0  0  0  0  0  0  0  0  0  0
    8.2672    2.7985   25.8578 H   0  0  0  0  0  0  0  0  0  0  0  0
    9.6845    2.1223   26.6013 H   0  0  0  0  0  0  0  0  0  0  0  0
    8.4112    1.7092   28.6231 H   0  0  0  0  0  0  0  0  0  0  0  0
    7.0734    2.5492   27.8594 H   0  0  0  0  0  0  0  0  0  0  0  0
    5.9629    0.4925   27.5824 H   0  0  0  0  0  0  0  0  0  0  0  0
    7.2944   -0.3150   28.3687 H   0  0  0  0  0  0  0  0  0  0  0  0
    6.5620   -2.1106   25.9518 H   0  0  0  0  0  0  0  0  0  0  0  0
    7.7062   -2.4740   23.7583 H   0  0  0  0  0  0  0  0  0  0  0  0
   10.4346   -0.3171   22.5203 H   0  0  0  0  0  0  0  0  0  0  0  0
    9.5622   -1.8077   22.2198 H   0  0  0  0  0  0  0  0  0  0  0  0
    7.2961   -0.6495   21.0605 C   0  0  0  0  0  0  0  0  0  0  0  0
    7.4921   -2.1378   20.7903 C   0  0  0  0  0  0  0  0  0  0  0  0
    8.4502   -2.2354   20.2708 H   0  0  0  0  0  0  0  0  0  0  0  0
    6.6863   -2.5614   20.1853 H   0  0  0  0  0  0  0  0  0  0  0  0
    7.5840   -2.6989   21.7215 H   0  0  0  0  0  0  0  0  0  0  0  0
    6.5870    0.0557   19.9326 C   0  0  0  0  0  0  0  0  0  0  0  0
    5.3569    0.7035   20.1261 C   0  0  0  0  0  0  0  0  0  0  0  0
    4.7593    1.3450   19.0413 C   0  0  0  0  0  0  0  0  0  0  0  0
    5.4085    1.3085   17.8010 C   0  0  0  0  0  0  0  0  0  0  0  0
    6.5720    0.6738   17.5910 N   0  0  0  0  0  0  0  0  0  0  0  0
    7.1427    0.0749   18.6463 C   0  0  0  0  0  0  0  0  0  0  0  0
    8.0946   -0.4229   18.4473 H   0  0  0  0  0  0  0  0  0  0  0  0
    4.9763    1.8121   16.9410 H   0  0  0  0  0  0  0  0  0  0  0  0
    3.8232    1.8852   19.1489 H   0  0  0  0  0  0  0  0  0  0  0  0
    4.8904    0.7160   21.1158 H   0  0  0  0  0  0  0  0  0  0  0  0
    6.7235   -0.4666   21.9807 H   0  0  0  0  0  0  0  0  0  0  0  0
    9.1912   -0.2374   20.3964 H   0  0  0  0  0  0  0  0  0  0  0  0
    8.0824    1.6942   22.3514 H   0  0  0  0  0  0  0  0  0  0  0  0
    8.1543    1.8983   20.6032 H   0  0  0  0  0  0  0  0  0  0  0  0
   10.7365    1.6397   20.8109 H   0  0  0  0  0  0  0  0  0  0  0  0
   10.4853    1.7200   22.5748 H   0  0  0  0  0  0  0  0  0  0  0  0
   10.0483    3.0895   21.5652 H   0  0  0  0  0  0  0  0  0  0  0  0
  1  2  1  0
  2  3  1  0
  3  4  1  0
  4  5  1  0
  5  6  2  0
  6  7  1  0
  7  8  2  0
  8  9  1  0
  9 10  1  0
 10 11  1  0
 11 12  1  0
 12 13  2  0
 11 14  1  0
 11 15  1  0
 10 16  1  0
 10 17  1  0
  9 18  1  0
  9 19  1  0
  7 20  1  0
  6 21  1  0
  4 22  1  0
  4 23  1  0
  3 24  1  0
 24 25  1  0
 25 26  1  0
 25 27  1  0
 25 28  1  0
 24 29  1  0
 29 30  2  0
 30 31  1  0
 31 32  2  0
 32 33  1  0
 33 34  2  0
 34 35  1  0
 32 36  1  0
 31 37  1  0
 30 38  1  0
 24 39  1  0
  3 40  1  0
  2 41  1  0
  2 42  1  0
  1 43  1  0
  1 44  1  0
  1 45  1  0
 13  5  1  0
 34 29  1  0
 12  8  1  0
M  CHG  1   3   1
M  END
>  <plip>  (1) 
-0.06896551724137931

>  <filename>  (1) 
[H][c]1[n][c]([H])[c]([C]([H])([C]([H])([H])[H])[N+]([H])([C]([H])([H])[c]2[n][c]3[c]([c]([H])[c]2[H])[C]([H])([H])[C]([H])([H])[C]3([H])[H])[C]([H])([H])[C]([H])([H])[H])[c]([H])[c]1[H]

$$$$
