
     RDKit          3D

 27 28  0  0  0  0  0  0  0  0999 V2000
    6.4822    2.1782   25.2416 H   0  0  0  0  0  0  0  0  0  0  0  0
    6.8427    2.2884   24.2262 C   0  0  0  0  0  0  0  0  0  0  0  0
    7.4125    1.2328   23.6374 N   0  0  0  0  0  0  0  0  0  0  0  0
    7.8549    1.4269   22.3666 C   0  0  0  0  0  0  0  0  0  0  0  0
    8.4539    0.2329   21.6821 C   0  0  2  0  0  0  0  0  0  0  0  0
    9.0176   -0.3249   22.4368 H   0  0  0  0  0  0  0  0  0  0  0  0
    9.3485    0.6567   20.6928 F   0  0  0  0  0  0  0  0  0  0  0  0
    7.4092   -0.6850   21.0152 C   0  0  0  0  0  0  0  0  0  0  0  0
    6.7358   -1.0523   21.8012 H   0  0  0  0  0  0  0  0  0  0  0  0
    7.9476   -1.5640   20.6439 H   0  0  0  0  0  0  0  0  0  0  0  0
    6.6350   -0.0152   19.8980 C   0  0  0  0  0  0  0  0  0  0  0  0
    7.1493    0.0564   18.5862 C   0  0  0  0  0  0  0  0  0  0  0  0
    8.1097   -0.4025   18.3496 H   0  0  0  0  0  0  0  0  0  0  0  0
    6.5500    0.6792   17.5637 N   0  0  0  0  0  0  0  0  0  0  0  0
    5.3887    1.3018   17.8197 C   0  0  0  0  0  0  0  0  0  0  0  0
    4.9266    1.8133   16.9761 H   0  0  0  0  0  0  0  0  0  0  0  0
    4.7877    1.3112   19.0821 C   0  0  0  0  0  0  0  0  0  0  0  0
    3.8591    1.8533   19.2235 H   0  0  0  0  0  0  0  0  0  0  0  0
    5.4182    0.6409   20.1358 C   0  0  0  0  0  0  0  0  0  0  0  0
    4.9955    0.6423   21.1434 H   0  0  0  0  0  0  0  0  0  0  0  0
    7.7241    2.6667   21.7239 C   0  0  0  0  0  0  0  0  0  0  0  0
    8.1139    2.7693   20.7196 H   0  0  0  0  0  0  0  0  0  0  0  0
    7.1373    3.7407   22.3054 N   0  0  0  0  0  0  0  0  0  0  0  0
    6.7017    3.5473   23.5533 C   0  0  0  0  0  0  0  0  0  0  0  0
    6.1366    4.6425   24.1061 N   0  0  0  0  0  0  0  0  0  0  0  0
    6.1088    5.4174   23.4642 H   0  0  0  0  0  0  0  0  0  0  0  0
    5.7664    4.6212   25.0363 H   0  0  0  0  0  0  0  0  0  0  0  0
  1  2  1  0
  2  3  2  0
  3  4  1  0
  4  5  1  0
  5  6  1  1
  5  7  1  0
  5  8  1  0
  8  9  1  0
  8 10  1  0
  8 11  1  0
 11 12  2  0
 12 13  1  0
 12 14  1  0
 14 15  2  0
 15 16  1  0
 15 17  1  0
 17 18  1  0
 17 19  2  0
 19 20  1  0
  4 21  2  0
 21 22  1  0
 21 23  1  0
 23 24  2  0
 24 25  1  0
 25 26  1  0
 25 27  1  0
 24  2  1  0
 19 11  1  0
M  END
>  <plip>  (1) 
-0.03571428571428571

>  <filename>  (1) 
[H][c]1[n][c]([C@]([H])([F])[C]([H])([H])[c]2[c]([H])[n][c]([H])[c]([H])[c]2[H])[c]([H])[n][c]1[N]([H])[H]

$$$$
