
     RDKit          3D

 47 49  0  0  0  0  0  0  0  0999 V2000
    2.8160    3.8297   24.4834 C   0  0  0  0  0  0  0  0  0  0  0  0
    3.1101    3.9548   25.9932 C   0  0  0  0  0  0  0  0  0  0  0  0
    4.3839    4.6844   26.2983 C   0  0  0  0  0  0  0  0  0  0  0  0
    4.4211    5.9460   26.6437 N   0  0  0  0  0  0  0  0  0  0  0  0
    5.7663    6.2399   26.7763 C   0  0  0  0  0  0  0  0  0  0  0  0
    6.3924    7.4472   27.1235 C   0  0  0  0  0  0  0  0  0  0  0  0
    7.7797    7.4702   27.2277 C   0  0  0  0  0  0  0  0  0  0  0  0
    8.5487    6.3072   26.9800 C   0  0  0  0  0  0  0  0  0  0  0  0
    7.9439    5.1044   26.6188 C   0  0  0  0  0  0  0  0  0  0  0  0
    6.5448    5.0943   26.5161 C   0  0  0  0  0  0  0  0  0  0  0  0
    5.6346    4.0992   26.1977 N   0  0  0  0  0  0  0  0  0  0  0  0
    6.0011    2.7553   25.7652 C   0  0  0  0  0  0  0  0  0  0  0  0
    6.5858    2.7262   24.3442 C   0  0  0  0  0  0  0  0  0  0  0  0
    6.8733    1.3727   23.8701 N   0  0  0  0  0  0  0  0  0  0  0  0
    7.3367    1.1685   22.6023 C   0  0  0  0  0  0  0  0  0  0  0  0
    7.5195    2.0970   21.8302 O   0  0  0  0  0  0  0  0  0  0  0  0
    7.5996   -0.2922   22.2260 C   0  0  0  0  0  0  0  0  0  0  0  0
    7.3684   -0.7069   20.9733 C   0  0  0  0  0  0  0  0  0  0  0  0
    6.6350    0.0156   19.9044 C   0  0  0  0  0  0  0  0  0  0  0  0
    5.4174    0.6635   20.1410 C   0  0  0  0  0  0  0  0  0  0  0  0
    4.7892    1.3151   19.0811 C   0  0  0  0  0  0  0  0  0  0  0  0
    5.3900    1.3005   17.8204 C   0  0  0  0  0  0  0  0  0  0  0  0
    6.5531    0.6734   17.5664 N   0  0  0  0  0  0  0  0  0  0  0  0
    7.1472    0.0564   18.5921 C   0  0  0  0  0  0  0  0  0  0  0  0
    8.0995   -0.4254   18.3622 H   0  0  0  0  0  0  0  0  0  0  0  0
    4.9290    1.8065   16.9727 H   0  0  0  0  0  0  0  0  0  0  0  0
    3.8631    1.8528   19.2277 H   0  0  0  0  0  0  0  0  0  0  0  0
    4.9954    0.6531   21.1461 H   0  0  0  0  0  0  0  0  0  0  0  0
    7.7709   -1.6859   20.6682 H   0  0  0  0  0  0  0  0  0  0  0  0
    8.2357   -1.2478   23.2379 C   0  0  0  0  0  0  0  0  0  0  0  0
    7.4974   -1.8846   23.7485 H   0  0  0  0  0  0  0  0  0  0  0  0
    8.9395   -1.9359   22.7442 H   0  0  0  0  0  0  0  0  0  0  0  0
    8.8030   -0.7107   24.0046 H   0  0  0  0  0  0  0  0  0  0  0  0
    6.7008    0.5417   24.4112 H   0  0  0  0  0  0  0  0  0  0  0  0
    5.8962    3.2161   23.6400 H   0  0  0  0  0  0  0  0  0  0  0  0
    7.5050    3.3313   24.3024 H   0  0  0  0  0  0  0  0  0  0  0  0
    6.7418    2.3702   26.4772 H   0  0  0  0  0  0  0  0  0  0  0  0
    5.1194    2.1092   25.8388 H   0  0  0  0  0  0  0  0  0  0  0  0
    8.5234    4.2052   26.4253 H   0  0  0  0  0  0  0  0  0  0  0  0
    9.6277    6.3584   27.0687 H   0  0  0  0  0  0  0  0  0  0  0  0
    8.2764    8.3938   27.5063 H   0  0  0  0  0  0  0  0  0  0  0  0
    5.7701    8.3181   27.3059 H   0  0  0  0  0  0  0  0  0  0  0  0
    2.3182    4.5270   26.4885 H   0  0  0  0  0  0  0  0  0  0  0  0
    3.1273    2.9667   26.4724 H   0  0  0  0  0  0  0  0  0  0  0  0
    3.5500    3.1913   23.9735 H   0  0  0  0  0  0  0  0  0  0  0  0
    2.8555    4.8139   23.9999 H   0  0  0  0  0  0  0  0  0  0  0  0
    1.8185    3.4126   24.3067 H   0  0  0  0  0  0  0  0  0  0  0  0
  1  2  1  0
  2  3  1  0
  3  4  2  0
  4  5  1  0
  5  6  2  0
  6  7  1  0
  7  8  2  0
  8  9  1  0
  9 10  2  0
 10 11  1  0
 11 12  1  0
 12 13  1  0
 13 14  1  0
 14 15  1  0
 15 16  2  0
 15 17  1  0
 17 18  2  3
 18 19  1  0
 19 20  2  0
 20 21  1  0
 21 22  2  0
 22 23  1  0
 23 24  2  0
 24 25  1  0
 22 26  1  0
 21 27  1  0
 20 28  1  0
 18 29  1  0
 17 30  1  0
 30 31  1  0
 30 32  1  0
 30 33  1  0
 14 34  1  0
 13 35  1  0
 13 36  1  0
 12 37  1  0
 12 38  1  0
  9 39  1  0
  8 40  1  0
  7 41  1  0
  6 42  1  0
  2 43  1  0
  2 44  1  0
  1 45  1  0
  1 46  1  0
  1 47  1  0
 11  3  1  0
 24 19  1  0
 10  5  1  0
M  END
>  <plip>  (1) 
-0.07142857142857142

>  <filename>  (1) 
[H][C](=[C]([C](=[O])[N]([H])[C]([H])([H])[C]([H])([H])[n]1[c]([C]([H])([H])[C]([H])([H])[H])[n][c]2[c]([H])[c]([H])[c]([H])[c]([H])[c]21)[C]([H])([H])[H])[c]1[c]([H])[n][c]([H])[c]([H])[c]1[H]

$$$$
