
     RDKit          3D

 44 46  0  0  0  0  0  0  0  0999 V2000
    9.5350    2.0413   22.1667 C   0  0  0  0  0  0  0  0  0  0  0  0
    8.9543    1.0740   21.3223 O   0  0  0  0  0  0  0  0  0  0  0  0
    8.0072    0.2675   21.9893 C   0  0  0  0  0  0  0  0  0  0  0  0
    7.3934   -0.7280   20.9975 C   0  0  1  0  0  0  0  0  0  0  0  0
    6.5466   -1.6777   21.7117 N   0  0  0  0  0  0  0  0  0  0  0  0
    6.0865   -2.8067   21.1173 C   0  0  0  0  0  0  0  0  0  0  0  0
    6.2705   -3.0678   19.9418 O   0  0  0  0  0  0  0  0  0  0  0  0
    5.3656   -3.7804   22.0289 C   0  0  0  0  0  0  0  0  0  0  0  0
    6.3378   -4.7568   22.7190 C   0  0  0  0  0  0  0  0  0  0  0  0
    7.3121   -4.0825   23.5501 N   0  0  0  0  0  0  0  0  0  0  0  0
    8.5975   -3.7454   23.1809 C   0  0  0  0  0  0  0  0  0  0  0  0
    9.1666   -2.9439   24.1215 C   0  0  0  0  0  0  0  0  0  0  0  0
    8.1826   -2.7188   25.1419 C   0  0  0  0  0  0  0  0  0  0  0  0
    8.0991   -1.9929   26.3451 C   0  0  0  0  0  0  0  0  0  0  0  0
    6.8886   -2.0371   27.0331 C   0  0  0  0  0  0  0  0  0  0  0  0
    5.8104   -2.7827   26.5176 C   0  0  0  0  0  0  0  0  0  0  0  0
    5.8487   -3.4821   25.3710 N   0  0  0  0  0  0  0  0  0  0  0  0
    7.0231   -3.4383   24.7374 C   0  0  0  0  0  0  0  0  0  0  0  0
    4.8690   -2.8107   27.0627 H   0  0  0  0  0  0  0  0  0  0  0  0
    6.7486   -1.4999   27.9608 H   0  0  0  0  0  0  0  0  0  0  0  0
    8.9581   -1.4295   26.7095 H   0  0  0  0  0  0  0  0  0  0  0  0
   10.1627   -2.5229   24.1017 H   0  0  0  0  0  0  0  0  0  0  0  0
    8.9698   -4.0835   22.2232 H   0  0  0  0  0  0  0  0  0  0  0  0
    5.7794   -5.4724   23.3337 H   0  0  0  0  0  0  0  0  0  0  0  0
    6.8959   -5.3412   21.9771 H   0  0  0  0  0  0  0  0  0  0  0  0
    4.7312   -4.3688   21.3729 H   0  0  0  0  0  0  0  0  0  0  0  0
    4.7407   -3.2873   22.7824 H   0  0  0  0  0  0  0  0  0  0  0  0
    6.2165   -1.5041   22.6497 H   0  0  0  0  0  0  0  0  0  0  0  0
    6.6209   -0.0315   19.8891 C   0  0  0  0  0  0  0  0  0  0  0  0
    5.4180    0.6401   20.1368 C   0  0  0  0  0  0  0  0  0  0  0  0
    4.7978    1.3153   19.0859 C   0  0  0  0  0  0  0  0  0  0  0  0
    5.4006    1.3014   17.8213 C   0  0  0  0  0  0  0  0  0  0  0  0
    6.5596    0.6810   17.5646 N   0  0  0  0  0  0  0  0  0  0  0  0
    7.1422    0.0402   18.5919 C   0  0  0  0  0  0  0  0  0  0  0  0
    8.1047   -0.4236   18.3659 H   0  0  0  0  0  0  0  0  0  0  0  0
    4.9361    1.8051   16.9747 H   0  0  0  0  0  0  0  0  0  0  0  0
    3.8721    1.8531   19.2361 H   0  0  0  0  0  0  0  0  0  0  0  0
    4.9906    0.6465   21.1427 H   0  0  0  0  0  0  0  0  0  0  0  0
    8.2216   -1.2817   20.5323 H   0  0  0  0  0  0  0  0  0  0  0  0
    7.1985    0.8842   22.4229 H   0  0  0  0  0  0  0  0  0  0  0  0
    8.4810   -0.2844   22.8167 H   0  0  0  0  0  0  0  0  0  0  0  0
   10.2438    2.6204   21.5704 H   0  0  0  0  0  0  0  0  0  0  0  0
    8.7889    2.7306   22.5934 H   0  0  0  0  0  0  0  0  0  0  0  0
   10.0726    1.5766   23.0070 H   0  0  0  0  0  0  0  0  0  0  0  0
  1  2  1  0
  2  3  1  0
  3  4  1  0
  4  5  1  0
  5  6  1  0
  6  7  2  0
  6  8  1  0
  8  9  1  0
  9 10  1  0
 10 11  1  0
 11 12  2  0
 12 13  1  0
 13 14  2  0
 14 15  1  0
 15 16  2  0
 16 17  1  0
 17 18  2  0
 16 19  1  0
 15 20  1  0
 14 21  1  0
 12 22  1  0
 11 23  1  0
  9 24  1  0
  9 25  1  0
  8 26  1  0
  8 27  1  0
  5 28  1  0
  4 29  1  0
 29 30  2  0
 30 31  1  0
 31 32  2  0
 32 33  1  0
 33 34  2  0
 34 35  1  0
 32 36  1  0
 31 37  1  0
 30 38  1  0
  4 39  1  6
  3 40  1  0
  3 41  1  0
  1 42  1  0
  1 43  1  0
  1 44  1  0
 18 10  1  0
 34 29  1  0
 18 13  1  0
M  END
>  <plip>  (1) 
-0.20689655172413793

>  <filename>  (1) 
[H][c]1[n][c]([H])[c]([C@]([H])([N]([H])[C](=[O])[C]([H])([H])[C]([H])([H])[n]2[c]([H])[c]([H])[c]3[c]([H])[c]([H])[c]([H])[n][c]32)[C]([H])([H])[O][C]([H])([H])[H])[c]([H])[c]1[H]

$$$$
