
     RDKit          3D

 52 55  0  0  0  0  0  0  0  0999 V2000
    5.4211   -5.7232   20.5704 O   0  0  0  0  0  0  0  0  0  0  0  0
    5.8163   -4.8733   21.3338 C   0  0  0  0  0  0  0  0  0  0  0  0
    6.8907   -3.8608   21.0216 C   0  0  0  0  0  0  0  0  0  0  0  0
    6.9410   -2.8895   22.2014 C   0  0  0  0  0  0  0  0  0  0  0  0
    6.5231   -1.5301   21.7628 N   0  0  0  0  0  4  0  0  0  0  0  0
    7.4872   -0.6943   20.9588 C   0  0  0  0  0  0  0  0  0  0  0  0
    6.6523   -0.0365   19.8722 C   0  0  0  0  0  0  0  0  0  0  0  0
    5.4212    0.6034   20.1077 C   0  0  0  0  0  0  0  0  0  0  0  0
    4.8013    1.2918   19.0605 C   0  0  0  0  0  0  0  0  0  0  0  0
    5.4093    1.2960   17.8017 C   0  0  0  0  0  0  0  0  0  0  0  0
    6.5528    0.6497   17.5407 N   0  0  0  0  0  0  0  0  0  0  0  0
    7.1414    0.0067   18.5572 C   0  0  0  0  0  0  0  0  0  0  0  0
    8.0588   -0.5249   18.3045 H   0  0  0  0  0  0  0  0  0  0  0  0
    4.9580    1.8412   16.9725 H   0  0  0  0  0  0  0  0  0  0  0  0
    3.8677    1.8267   19.1961 H   0  0  0  0  0  0  0  0  0  0  0  0
    4.9622    0.5964   21.1018 H   0  0  0  0  0  0  0  0  0  0  0  0
    8.3215    0.3140   21.8096 C   0  0  0  0  0  0  0  0  0  0  0  0
    9.2265   -0.3958   22.8382 C   0  0  0  0  0  0  0  0  0  0  0  0
   10.0740    0.6156   23.6201 C   0  0  0  0  0  0  0  0  0  0  0  0
    9.2665    1.6039   24.2392 O   0  0  0  0  0  0  0  0  0  0  0  0
    8.4460    2.3246   23.3340 C   0  0  0  0  0  0  0  0  0  0  0  0
    7.5073    1.3948   22.5557 C   0  0  0  0  0  0  0  0  0  0  0  0
    6.8910    1.9765   21.8605 H   0  0  0  0  0  0  0  0  0  0  0  0
    6.8269    0.9151   23.2762 H   0  0  0  0  0  0  0  0  0  0  0  0
    7.8850    3.0386   23.9453 H   0  0  0  0  0  0  0  0  0  0  0  0
    9.0718    2.9032   22.6304 H   0  0  0  0  0  0  0  0  0  0  0  0
   10.6232    0.1316   24.4343 H   0  0  0  0  0  0  0  0  0  0  0  0
   10.8127    1.0920   22.9511 H   0  0  0  0  0  0  0  0  0  0  0  0
    8.5909   -0.9307   23.5591 H   0  0  0  0  0  0  0  0  0  0  0  0
    9.8770   -1.1368   22.3554 H   0  0  0  0  0  0  0  0  0  0  0  0
    8.9577    0.8318   21.0760 H   0  0  0  0  0  0  0  0  0  0  0  0
    8.2145   -1.3668   20.4857 H   0  0  0  0  0  0  0  0  0  0  0  0
    6.2519   -0.9400   22.5793 H   0  0  0  0  0  0  0  0  0  0  0  0
    5.6785   -1.6041   21.1476 H   0  0  0  0  0  0  0  0  0  0  0  0
    5.9626   -3.4631   23.2509 C   0  0  0  0  0  0  0  0  0  0  0  0
    5.4104   -4.6730   22.6467 N   0  0  0  0  0  0  0  0  0  0  0  0
    4.7956   -5.6900   23.4267 C   0  0  0  0  0  0  0  0  0  0  0  0
    5.4796   -6.1388   24.5680 C   0  0  0  0  0  0  0  0  0  0  0  0
    5.0314   -7.2257   25.3139 C   0  0  0  0  0  0  0  0  0  0  0  0
    3.8600   -7.8901   24.9363 C   0  0  0  0  0  0  0  0  0  0  0  0
    3.1380   -7.4386   23.8332 C   0  0  0  0  0  0  0  0  0  0  0  0
    3.5758   -6.3244   23.1043 C   0  0  0  0  0  0  0  0  0  0  0  0
    2.4967   -5.7332   21.8952 Cl  0  0  0  0  0  0  0  0  0  0  0  0
    2.2181   -7.9269   23.5206 H   0  0  0  0  0  0  0  0  0  0  0  0
    3.5034   -8.7435   25.5067 H   0  0  0  0  0  0  0  0  0  0  0  0
    5.5907   -7.5170   26.1969 H   0  0  0  0  0  0  0  0  0  0  0  0
    6.3937   -5.6314   24.8495 H   0  0  0  0  0  0  0  0  0  0  0  0
    5.1586   -2.7582   23.4888 H   0  0  0  0  0  0  0  0  0  0  0  0
    6.4793   -3.6684   24.1946 H   0  0  0  0  0  0  0  0  0  0  0  0
    7.9529   -2.8396   22.6198 H   0  0  0  0  0  0  0  0  0  0  0  0
    6.6261   -3.3682   20.0848 H   0  0  0  0  0  0  0  0  0  0  0  0
    7.8211   -4.4086   20.8694 H   0  0  0  0  0  0  0  0  0  0  0  0
  1  2  2  0
  2  3  1  0
  3  4  1  0
  4  5  1  0
  5  6  1  0
  6  7  1  0
  7  8  2  0
  8  9  1  0
  9 10  2  0
 10 11  1  0
 11 12  2  0
 12 13  1  0
 10 14  1  0
  9 15  1  0
  8 16  1  0
  6 17  1  0
 17 18  1  0
 18 19  1  0
 19 20  1  0
 20 21  1  0
 21 22  1  0
 22 23  1  0
 22 24  1  0
 21 25  1  0
 21 26  1  0
 19 27  1  0
 19 28  1  0
 18 29  1  0
 18 30  1  0
 17 31  1  0
  6 32  1  0
  5 33  1  0
  5 34  1  0
  4 35  1  0
 35 36  1  0
 36 37  1  0
 37 38  2  0
 38 39  1  0
 39 40  2  0
 40 41  1  0
 41 42  2  0
 42 43  1  0
 41 44  1  0
 40 45  1  0
 39 46  1  0
 38 47  1  0
 35 48  1  0
 35 49  1  0
  4 50  1  0
  3 51  1  0
  3 52  1  0
 36  2  1  0
 42 37  1  0
 12  7  1  0
 22 17  1  0
M  CHG  1   5   1
M  END
>  <plip>  (1) 
-0.14285714285714285

>  <filename>  (1) 
[H][c]1[n][c]([H])[c]([C]([H])([C]2([H])[C]([H])([H])[C]([H])([H])[O][C]([H])([H])[C]2([H])[H])[N+]([H])([H])[C]2([H])[C]([H])([H])[C](=[O])[N]([c]3[c]([H])[c]([H])[c]([H])[c]([H])[c]3[Cl])[C]2([H])[H])[c]([H])[c]1[H]

$$$$
