
     RDKit          3D

 39 41  0  0  0  0  0  0  0  0999 V2000
    4.9181    1.7914   16.9850 H   0  0  0  0  0  0  0  0  0  0  0  0
    5.3957    1.2990   17.8280 C   0  0  0  0  0  0  0  0  0  0  0  0
    6.5597    0.6841   17.5670 N   0  0  0  0  0  0  0  0  0  0  0  0
    7.1595    0.0622   18.5910 C   0  0  0  0  0  0  0  0  0  0  0  0
    8.1123   -0.4171   18.3622 H   0  0  0  0  0  0  0  0  0  0  0  0
    6.6420   -0.0057   19.8957 C   0  0  0  0  0  0  0  0  0  0  0  0
    7.4181   -0.6590   21.0139 C   0  0  0  0  0  0  0  0  0  0  0  0
    6.7264   -1.0086   21.7914 H   0  0  0  0  0  0  0  0  0  0  0  0
    7.9374   -1.5517   20.6364 H   0  0  0  0  0  0  0  0  0  0  0  0
    8.4435    0.2857   21.6694 C   0  0  0  0  0  0  0  0  0  0  0  0
    7.8857    1.5702   22.2634 C   0  0  0  0  0  0  0  0  0  0  0  0
    7.8896    2.7492   21.5267 C   0  0  0  0  0  0  0  0  0  0  0  0
    8.3506    2.6824   20.5465 H   0  0  0  0  0  0  0  0  0  0  0  0
    7.3605    3.9423   22.0474 C   0  0  0  0  0  0  0  0  0  0  0  0
    7.3638    4.8488   21.4485 H   0  0  0  0  0  0  0  0  0  0  0  0
    6.8281    3.9810   23.3410 C   0  0  0  0  0  0  0  0  0  0  0  0
    6.3102    5.0946   23.9316 O   0  0  0  0  0  0  0  0  0  0  0  0
    6.2633    6.3299   23.2403 C   0  0  0  0  0  0  0  0  0  0  0  0
    5.6460    6.2890   22.3316 H   0  0  0  0  0  0  0  0  0  0  0  0
    7.2611    6.7092   22.9782 H   0  0  0  0  0  0  0  0  0  0  0  0
    5.8021    7.0222   23.9436 H   0  0  0  0  0  0  0  0  0  0  0  0
    6.8217    2.7706   24.1153 C   0  0  0  0  0  0  0  0  0  0  0  0
    6.3017    2.8416   25.3702 O   0  0  0  0  0  0  0  0  0  0  0  0
    6.2553    1.6968   26.1995 C   0  0  0  0  0  0  0  0  0  0  0  0
    7.2521    1.3002   26.4376 H   0  0  0  0  0  0  0  0  0  0  0  0
    5.6383    0.8893   25.7811 H   0  0  0  0  0  0  0  0  0  0  0  0
    5.7915    2.0443   27.1212 H   0  0  0  0  0  0  0  0  0  0  0  0
    7.3415    1.5985   23.5559 C   0  0  0  0  0  0  0  0  0  0  0  0
    7.3611    0.6800   24.1293 H   0  0  0  0  0  0  0  0  0  0  0  0
    9.8266    0.3197   21.0540 C   0  0  0  0  0  0  0  0  0  0  0  0
   10.0147   -0.3048   20.1811 H   0  0  0  0  0  0  0  0  0  0  0  0
   10.3755    1.2595   21.0449 H   0  0  0  0  0  0  0  0  0  0  0  0
    9.6074   -0.3649   22.3753 C   0  0  0  0  0  0  0  0  0  0  0  0
    9.9815    0.1192   23.2742 H   0  0  0  0  0  0  0  0  0  0  0  0
    9.6421   -1.4518   22.4175 H   0  0  0  0  0  0  0  0  0  0  0  0
    5.4268    0.6467   20.1436 C   0  0  0  0  0  0  0  0  0  0  0  0
    5.0117    0.6457   21.1573 H   0  0  0  0  0  0  0  0  0  0  0  0
    4.7968    1.3145   19.0930 C   0  0  0  0  0  0  0  0  0  0  0  0
    3.8675    1.8498   19.2458 H   0  0  0  0  0  0  0  0  0  0  0  0
  1  2  1  0
  2  3  2  0
  3  4  1  0
  4  5  1  0
  4  6  2  0
  6  7  1  0
  7  8  1  0
  7  9  1  0
  7 10  1  0
 10 11  1  0
 11 12  2  0
 12 13  1  0
 12 14  1  0
 14 15  1  0
 14 16  2  0
 16 17  1  0
 17 18  1  0
 18 19  1  0
 18 20  1  0
 18 21  1  0
 16 22  1  0
 22 23  1  0
 23 24  1  0
 24 25  1  0
 24 26  1  0
 24 27  1  0
 22 28  2  0
 28 29  1  0
 10 30  1  0
 30 31  1  0
 30 32  1  0
 30 33  1  0
 33 34  1  0
 33 35  1  0
  6 36  1  0
 36 37  1  0
 36 38  2  0
 38 39  1  0
 38  2  1  0
 33 10  1  0
 28 11  1  0
M  END
>  <plip>  (1) 
-0.03571428571428571

>  <filename>  (1) 
[H][c]1[n][c]([H])[c]([C]([H])([H])[C]2([c]3[c]([H])[c]([H])[c]([O][C]([H])([H])[H])[c]([O][C]([H])([H])[H])[c]3[H])[C]([H])([H])[C]2([H])[H])[c]([H])[c]1[H]

$$$$
