
     RDKit          3D

 47 49  0  0  0  0  0  0  0  0999 V2000
   13.5230    4.3551   23.5193 C   0  0  0  0  0  0  0  0  0  0  0  0
   12.1721    4.1690   23.9170 O   0  0  0  0  0  0  0  0  0  0  0  0
   11.5616    5.0852   24.7224 C   0  0  0  0  0  0  0  0  0  0  0  0
   12.2213    6.1947   25.2711 C   0  0  0  0  0  0  0  0  0  0  0  0
   11.5185    7.1013   26.0687 C   0  0  0  0  0  0  0  0  0  0  0  0
   10.1665    6.9000   26.3496 C   0  0  0  0  0  0  0  0  0  0  0  0
    9.5176    5.7770   25.8362 C   0  0  0  0  0  0  0  0  0  0  0  0
   10.1931    4.8628   25.0076 C   0  0  0  0  0  0  0  0  0  0  0  0
    9.4788    3.6909   24.4608 C   0  0  0  0  0  0  0  0  0  0  0  0
    8.4172    3.1307   24.9953 N   0  0  0  0  0  0  0  0  0  0  0  0
    8.0131    2.1231   24.1807 N   0  0  0  0  0  0  0  0  0  0  0  0
    8.8164    2.0808   23.1417 C   0  0  0  0  0  0  0  0  0  0  0  0
    8.6825    1.1290   21.9451 C   0  0  0  0  0  0  0  0  0  0  0  0
    9.3998    1.2048   20.9574 O   0  0  0  0  0  0  0  0  0  0  0  0
    7.7179    0.1795   22.0926 N   0  0  0  0  0  0  0  0  0  0  0  0
    7.3481   -0.7414   21.0243 C   0  0  0  0  0  0  0  0  0  0  0  0
    6.6057    0.0199   19.9262 C   0  0  0  0  0  0  0  0  0  0  0  0
    5.3869    0.6891   20.1314 C   0  0  0  0  0  0  0  0  0  0  0  0
    4.7870    1.3340   19.0463 C   0  0  0  0  0  0  0  0  0  0  0  0
    5.4194    1.3044   17.8003 C   0  0  0  0  0  0  0  0  0  0  0  0
    6.5897    0.6889   17.5853 N   0  0  0  0  0  0  0  0  0  0  0  0
    7.1583    0.0845   18.6406 C   0  0  0  0  0  0  0  0  0  0  0  0
    8.1201   -0.3936   18.4491 H   0  0  0  0  0  0  0  0  0  0  0  0
    4.9733    1.8002   16.9386 H   0  0  0  0  0  0  0  0  0  0  0  0
    3.8503    1.8677   19.1531 H   0  0  0  0  0  0  0  0  0  0  0  0
    4.9146    0.7285   21.1167 H   0  0  0  0  0  0  0  0  0  0  0  0
    6.5663   -1.9463   21.6102 C   0  0  0  0  0  0  0  0  0  0  0  0
    7.3621   -2.7372   22.6638 C   0  0  0  0  0  0  0  0  0  0  0  0
    8.3145   -3.0824   22.2402 H   0  0  0  0  0  0  0  0  0  0  0  0
    6.8037   -3.6302   22.9674 H   0  0  0  0  0  0  0  0  0  0  0  0
    7.5870   -2.1743   23.5751 H   0  0  0  0  0  0  0  0  0  0  0  0
    6.0682   -2.9296   20.5427 C   0  0  0  0  0  0  0  0  0  0  0  0
    6.8611   -3.6192   20.2401 H   0  0  0  0  0  0  0  0  0  0  0  0
    5.2633   -3.5424   20.9623 H   0  0  0  0  0  0  0  0  0  0  0  0
    5.6908   -2.4157   19.6526 H   0  0  0  0  0  0  0  0  0  0  0  0
    5.6917   -1.5064   22.0886 H   0  0  0  0  0  0  0  0  0  0  0  0
    8.2855   -1.1225   20.5994 H   0  0  0  0  0  0  0  0  0  0  0  0
    7.0899    0.2932   22.8729 H   0  0  0  0  0  0  0  0  0  0  0  0
    9.7754    3.0507   23.2946 N   0  0  0  0  0  0  0  0  0  0  0  0
   10.5656    3.2706   22.7093 H   0  0  0  0  0  0  0  0  0  0  0  0
    8.4674    5.5989   26.0646 H   0  0  0  0  0  0  0  0  0  0  0  0
    9.6198    7.6151   26.9585 H   0  0  0  0  0  0  0  0  0  0  0  0
   12.0347    7.9667   26.4758 H   0  0  0  0  0  0  0  0  0  0  0  0
   13.2735    6.3600   25.0652 H   0  0  0  0  0  0  0  0  0  0  0  0
   13.6074    5.2054   22.8316 H   0  0  0  0  0  0  0  0  0  0  0  0
   14.1802    4.5291   24.3788 H   0  0  0  0  0  0  0  0  0  0  0  0
   13.8291    3.4319   23.0204 H   0  0  0  0  0  0  0  0  0  0  0  0
  1  2  1  0
  2  3  1  0
  3  4  2  0
  4  5  1  0
  5  6  2  0
  6  7  1  0
  7  8  2  0
  8  9  1  0
  9 10  2  0
 10 11  1  0
 11 12  2  0
 12 13  1  0
 13 14  2  0
 13 15  1  0
 15 16  1  0
 16 17  1  0
 17 18  2  0
 18 19  1  0
 19 20  2  0
 20 21  1  0
 21 22  2  0
 22 23  1  0
 20 24  1  0
 19 25  1  0
 18 26  1  0
 16 27  1  0
 27 28  1  0
 28 29  1  0
 28 30  1  0
 28 31  1  0
 27 32  1  0
 32 33  1  0
 32 34  1  0
 32 35  1  0
 27 36  1  0
 16 37  1  0
 15 38  1  0
 12 39  1  0
 39 40  1  0
  7 41  1  0
  6 42  1  0
  5 43  1  0
  4 44  1  0
  1 45  1  0
  1 46  1  0
  1 47  1  0
  8  3  1  0
 39  9  1  0
 22 17  1  0
M  END
>  <plip>  (1) 
-0.20689655172413793

>  <filename>  (1) 
[H][c]1[n][c]([H])[c]([C]([H])([N]([H])[C](=[O])[c]2[n][n][c](-[c]3[c]([H])[c]([H])[c]([H])[c]([H])[c]3[O][C]([H])([H])[H])[n]2[H])[C]([H])([C]([H])([H])[H])[C]([H])([H])[H])[c]([H])[c]1[H]

$$$$
