
     RDKit          3D

 25 27  0  0  0  0  0  0  0  0999 V2000
    9.0250   -1.5943   24.7289 H   0  0  0  0  0  0  0  0  0  0  0  0
    8.5922   -0.7724   24.3078 N   0  0  0  0  0  0  0  0  0  0  0  0
    8.2696   -1.0529   23.1196 C   0  0  0  0  0  0  0  0  0  0  0  0
    8.4733   -2.5992   22.2842 S   0  0  0  0  0  0  0  0  0  0  0  0
    7.6854   -1.9849   20.8726 C   0  0  0  0  0  0  0  0  0  0  0  0
    7.3189   -2.5916   20.0661 H   0  0  0  0  0  0  0  0  0  0  0  0
    7.3717   -0.6909   20.9710 C   0  0  0  0  0  0  0  0  0  0  0  0
    6.6518    0.0427   19.9215 C   0  0  0  0  0  0  0  0  0  0  0  0
    7.1566    0.0673   18.6115 C   0  0  0  0  0  0  0  0  0  0  0  0
    8.1081   -0.4043   18.3632 H   0  0  0  0  0  0  0  0  0  0  0  0
    6.5490    0.6701   17.5835 N   0  0  0  0  0  0  0  0  0  0  0  0
    5.3857    1.2912   17.8263 C   0  0  0  0  0  0  0  0  0  0  0  0
    4.9300    1.7990   16.9742 H   0  0  0  0  0  0  0  0  0  0  0  0
    4.7812    1.3091   19.0881 C   0  0  0  0  0  0  0  0  0  0  0  0
    3.8521    1.8486   19.2246 H   0  0  0  0  0  0  0  0  0  0  0  0
    5.4188    0.6711   20.1510 C   0  0  0  0  0  0  0  0  0  0  0  0
    4.9983    0.6530   21.1572 H   0  0  0  0  0  0  0  0  0  0  0  0
    7.6664   -0.1427   22.2366 N   0  0  0  0  0  0  0  0  0  0  0  0
    7.4475    1.1911   22.6131 C   0  0  0  0  0  0  0  0  0  0  0  0
    7.9530    2.5301   21.6389 S   0  0  0  0  0  0  0  0  0  0  0  0
    7.2869    3.5801   22.8469 C   0  0  0  0  0  0  0  0  0  0  0  0
    7.3297    4.6556   22.7192 H   0  0  0  0  0  0  0  0  0  0  0  0
    6.7547    3.0032   23.8809 N   0  0  0  0  0  0  0  0  0  0  0  0
    6.8579    1.6434   23.7591 C   0  0  0  0  0  0  0  0  0  0  0  0
    6.5066    0.9805   24.5412 H   0  0  0  0  0  0  0  0  0  0  0  0
  1  2  1  0
  2  3  2  3
  3  4  1  0
  4  5  1  0
  5  6  1  0
  5  7  2  0
  7  8  1  0
  8  9  2  0
  9 10  1  0
  9 11  1  0
 11 12  2  0
 12 13  1  0
 12 14  1  0
 14 15  1  0
 14 16  2  0
 16 17  1  0
  7 18  1  0
 18 19  1  0
 19 20  1  0
 20 21  1  0
 21 22  1  0
 21 23  2  0
 23 24  1  0
 24 25  1  0
 18  3  1  0
 24 19  2  0
 16  8  1  0
M  END
>  <plip>  (1) 
-0.0

>  <filename>  (1) 
[H][N]=[c]1[s][c]([H])[c](-[c]2[c]([H])[n][c]([H])[c]([H])[c]2[H])[n]1-[c]1[s][c]([H])[n][c]1[H]

$$$$
