
     RDKit          3D

 28 30  0  0  0  0  0  0  0  0999 V2000
    4.8039    1.3107   19.1017 C   0  0  0  0  0  0  0  0  0  0  0  0
    5.4026    1.2901   17.8363 C   0  0  0  0  0  0  0  0  0  0  0  0
    6.5620    0.6676   17.5781 N   0  0  0  0  0  0  0  0  0  0  0  0
    7.1575    0.0439   18.6038 C   0  0  0  0  0  0  0  0  0  0  0  0
    6.6447   -0.0090   19.9062 C   0  0  0  0  0  0  0  0  0  0  0  0
    7.3803   -0.7537   20.9895 C   0  0  0  0  0  0  0  0  0  0  0  0
    6.9637   -2.1337   21.0269 N   0  0  0  0  0  0  0  0  0  0  0  0
    7.4260   -3.0433   21.9318 C   0  0  0  0  0  0  0  0  0  0  0  0
    8.3603   -2.7849   22.8795 C   0  0  0  0  0  0  0  0  0  0  0  0
    8.7671   -4.1531   23.8710 S   0  0  0  0  0  0  0  0  0  0  0  0
    7.6241   -5.1380   22.9729 C   0  0  0  0  0  0  0  0  0  0  0  0
    7.4265   -6.4316   23.2251 N   0  0  0  0  0  0  0  0  0  0  0  0
    6.5114   -7.0476   22.4770 C   0  0  0  0  0  0  0  0  0  0  0  0
    5.7885   -6.4289   21.4409 C   0  0  0  0  0  0  0  0  0  0  0  0
    6.0210   -5.0889   21.1681 C   0  0  0  0  0  0  0  0  0  0  0  0
    6.9648   -4.4122   21.9575 C   0  0  0  0  0  0  0  0  0  0  0  0
    5.4921   -4.5744   20.3659 H   0  0  0  0  0  0  0  0  0  0  0  0
    5.0708   -7.0082   20.8689 H   0  0  0  0  0  0  0  0  0  0  0  0
    6.3374   -8.0985   22.7072 H   0  0  0  0  0  0  0  0  0  0  0  0
    8.8277   -1.8253   23.0315 H   0  0  0  0  0  0  0  0  0  0  0  0
    6.2589   -2.4423   20.3873 H   0  0  0  0  0  0  0  0  0  0  0  0
    8.4662   -0.7132   20.8200 H   0  0  0  0  0  0  0  0  0  0  0  0
    7.1879   -0.2799   21.9641 H   0  0  0  0  0  0  0  0  0  0  0  0
    5.4348    0.6482   20.1573 C   0  0  0  0  0  0  0  0  0  0  0  0
    5.0036    0.6369   21.1621 H   0  0  0  0  0  0  0  0  0  0  0  0
    8.1119   -0.4255   18.3730 H   0  0  0  0  0  0  0  0  0  0  0  0
    4.9250    1.7840   16.9915 H   0  0  0  0  0  0  0  0  0  0  0  0
    3.8726    1.8460   19.2521 H   0  0  0  0  0  0  0  0  0  0  0  0
  1  2  2  0
  2  3  1  0
  3  4  2  0
  4  5  1  0
  5  6  1  0
  6  7  1  0
  7  8  1  0
  8  9  2  0
  9 10  1  0
 10 11  1  0
 11 12  2  0
 12 13  1  0
 13 14  2  0
 14 15  1  0
 15 16  2  0
 15 17  1  0
 14 18  1  0
 13 19  1  0
  9 20  1  0
  7 21  1  0
  6 22  1  0
  6 23  1  0
  5 24  2  0
 24 25  1  0
  4 26  1  0
  2 27  1  0
  1 28  1  0
 24  1  1  0
 16  8  1  0
 16 11  1  0
M  END
>  <plip>  (1) 
-0.034482758620689655

>  <filename>  (1) 
[H][c]1[n][c]([H])[c]([C]([H])([H])[N]([H])[c]2[c]([H])[s][c]3[n][c]([H])[c]([H])[c]([H])[c]23)[c]([H])[c]1[H]

$$$$
