
     RDKit          3D

 37 38  0  0  0  0  0  0  0  0999 V2000
   14.2756    6.8601   22.1821 C   0  0  0  0  0  0  0  0  0  0  0  0
   13.5710    5.9152   21.4006 O   0  0  0  0  0  0  0  0  0  0  0  0
   13.2928    4.6952   21.9320 C   0  0  0  0  0  0  0  0  0  0  0  0
   13.7615    4.1701   23.1547 C   0  0  0  0  0  0  0  0  0  0  0  0
   13.3824    2.9735   23.6337 N   0  0  0  0  0  0  0  0  0  0  0  0
   12.5404    2.2339   22.9237 C   0  0  0  0  0  0  0  0  0  0  0  0
   12.0642    2.6345   21.6743 C   0  0  0  0  0  0  0  0  0  0  0  0
   11.2113    1.6862   20.9082 C   0  0  0  0  0  0  0  0  0  0  0  0
    9.8664    1.6954   21.3906 O   0  0  0  0  0  0  0  0  0  0  0  0
    9.1680    0.5245   20.9194 N   0  0  0  0  0  4  0  0  0  0  0  0
    8.0668    0.2080   21.6453 C   0  0  0  0  0  0  0  0  0  0  0  0
    7.9241    0.6174   22.8985 N   0  0  0  0  0  0  0  0  0  0  0  0
    8.4500    1.4617   23.1243 H   0  0  0  0  0  0  0  0  0  0  0  0
    7.0247    0.5029   23.3445 H   0  0  0  0  0  0  0  0  0  0  0  0
    7.0936   -0.7193   21.0046 C   0  0  0  0  0  0  0  0  0  0  0  0
    6.4057   -0.1228   19.7616 C   0  0  0  0  0  0  0  0  0  0  0  0
    5.3051    0.7329   19.9025 C   0  0  0  0  0  0  0  0  0  0  0  0
    4.8712    1.4729   18.7982 C   0  0  0  0  0  0  0  0  0  0  0  0
    5.5331    1.3143   17.5790 C   0  0  0  0  0  0  0  0  0  0  0  0
    6.5365    0.4421   17.3993 N   0  0  0  0  0  0  0  0  0  0  0  0
    6.9387   -0.2662   18.4644 C   0  0  0  0  0  0  0  0  0  0  0  0
    7.7380   -0.9838   18.2671 H   0  0  0  0  0  0  0  0  0  0  0  0
    5.2408    1.9124   16.7148 H   0  0  0  0  0  0  0  0  0  0  0  0
    4.0435    2.1706   18.8711 H   0  0  0  0  0  0  0  0  0  0  0  0
    4.7954    0.8237   20.8629 H   0  0  0  0  0  0  0  0  0  0  0  0
    7.6115   -1.6473   20.7165 H   0  0  0  0  0  0  0  0  0  0  0  0
    6.3422   -1.0013   21.7552 H   0  0  0  0  0  0  0  0  0  0  0  0
    8.8426    0.6945   19.9606 H   0  0  0  0  0  0  0  0  0  0  0  0
   11.6213    0.6678   20.9751 H   0  0  0  0  0  0  0  0  0  0  0  0
   11.2475    2.0343   19.8783 H   0  0  0  0  0  0  0  0  0  0  0  0
   12.4611    3.8737   21.1618 C   0  0  0  0  0  0  0  0  0  0  0  0
   12.1495    4.2377   20.1822 H   0  0  0  0  0  0  0  0  0  0  0  0
   12.2210    1.2829   23.3571 H   0  0  0  0  0  0  0  0  0  0  0  0
   14.4706    4.7243   23.7669 H   0  0  0  0  0  0  0  0  0  0  0  0
   15.2816    6.4879   22.3908 H   0  0  0  0  0  0  0  0  0  0  0  0
   13.7585    7.0733   23.1274 H   0  0  0  0  0  0  0  0  0  0  0  0
   14.3397    7.7667   21.5820 H   0  0  0  0  0  0  0  0  0  0  0  0
  1  2  1  0
  2  3  1  0
  3  4  2  0
  4  5  1  0
  5  6  2  0
  6  7  1  0
  7  8  1  0
  8  9  1  0
  9 10  1  0
 10 11  2  3
 11 12  1  0
 12 13  1  0
 12 14  1  0
 11 15  1  0
 15 16  1  0
 16 17  2  0
 17 18  1  0
 18 19  2  0
 19 20  1  0
 20 21  2  0
 21 22  1  0
 19 23  1  0
 18 24  1  0
 17 25  1  0
 15 26  1  0
 15 27  1  0
 10 28  1  0
  8 29  1  0
  8 30  1  0
  7 31  2  0
 31 32  1  0
  6 33  1  0
  4 34  1  0
  1 35  1  0
  1 36  1  0
  1 37  1  0
 31  3  1  0
 21 16  1  0
M  CHG  1  10   1
M  END
>  <plip>  (1) 
-0.12903225806451613

>  <filename>  (1) 
[H][c]1[n][c]([H])[c]([C]([H])([H])[C]([N]([H])[H])=[N+]([H])[O][C]([H])([H])[c]2[c]([H])[n][c]([H])[c]([O][C]([H])([H])[H])[c]2[H])[c]([H])[c]1[H]

$$$$
