
     RDKit          3D

 33 35  0  0  0  0  0  0  0  0999 V2000
    4.9883    1.8059   16.8950 H   0  0  0  0  0  0  0  0  0  0  0  0
    5.4050    1.3444   17.7910 C   0  0  0  0  0  0  0  0  0  0  0  0
    6.5841    0.7271   17.6390 N   0  0  0  0  0  0  0  0  0  0  0  0
    7.1237    0.1631   18.7252 C   0  0  0  0  0  0  0  0  0  0  0  0
    8.0668   -0.3591   18.5599 H   0  0  0  0  0  0  0  0  0  0  0  0
    6.5537    0.1794   20.0019 C   0  0  0  0  0  0  0  0  0  0  0  0
    7.3453   -0.4476   21.1312 C   0  0  2  0  0  0  0  0  0  0  0  0
    6.7896   -0.3180   22.0706 H   0  0  0  0  0  0  0  0  0  0  0  0
    8.6480    0.2111   21.2751 N   0  0  0  0  0  0  0  0  0  0  0  0
    8.4819    1.2078   21.3885 H   0  0  0  0  0  0  0  0  0  0  0  0
    9.1632    0.1198   20.4023 H   0  0  0  0  0  0  0  0  0  0  0  0
    7.5695   -1.9578   20.8934 C   0  0  0  0  0  0  0  0  0  0  0  0
    6.6855   -2.3985   20.4184 H   0  0  0  0  0  0  0  0  0  0  0  0
    8.3764   -1.9976   20.1513 H   0  0  0  0  0  0  0  0  0  0  0  0
    8.0163   -2.7571   22.1047 C   0  0  0  0  0  0  0  0  0  0  0  0
    9.4161   -2.8276   22.3448 C   0  0  0  0  0  0  0  0  0  0  0  0
   10.0835   -2.3369   21.6350 H   0  0  0  0  0  0  0  0  0  0  0  0
    9.9479   -3.5115   23.4273 C   0  0  0  0  0  0  0  0  0  0  0  0
   11.0195   -3.5625   23.5969 H   0  0  0  0  0  0  0  0  0  0  0  0
    9.0451   -4.1345   24.3008 C   0  0  0  0  0  0  0  0  0  0  0  0
    7.6393   -4.0486   24.1353 C   0  0  0  0  0  0  0  0  0  0  0  0
    7.1302   -3.3733   22.9972 C   0  0  0  0  0  0  0  0  0  0  0  0
    6.0488   -3.3482   22.8416 H   0  0  0  0  0  0  0  0  0  0  0  0
    7.0651   -4.7391   25.2673 C   0  0  0  0  0  0  0  0  0  0  0  0
    6.0133   -4.8516   25.5054 H   0  0  0  0  0  0  0  0  0  0  0  0
    8.0998   -5.2262   26.0151 C   0  0  0  0  0  0  0  0  0  0  0  0
    8.0892   -5.8155   26.9243 H   0  0  0  0  0  0  0  0  0  0  0  0
    9.3014   -4.8639   25.4335 N   0  0  0  0  0  0  0  0  0  0  0  0
   10.2234   -5.1966   25.6686 H   0  0  0  0  0  0  0  0  0  0  0  0
    5.3038    0.8038   20.1381 C   0  0  0  0  0  0  0  0  0  0  0  0
    4.7924    0.8295   21.1021 H   0  0  0  0  0  0  0  0  0  0  0  0
    4.7213    1.3930   19.0102 C   0  0  0  0  0  0  0  0  0  0  0  0
    3.7623    1.8973   19.0569 H   0  0  0  0  0  0  0  0  0  0  0  0
  1  2  1  0
  2  3  2  0
  3  4  1  0
  4  5  1  0
  4  6  2  0
  6  7  1  0
  7  8  1  1
  7  9  1  0
  9 10  1  0
  9 11  1  0
  7 12  1  0
 12 13  1  0
 12 14  1  0
 12 15  1  0
 15 16  2  0
 16 17  1  0
 16 18  1  0
 18 19  1  0
 18 20  2  0
 20 21  1  0
 21 22  2  0
 22 23  1  0
 21 24  1  0
 24 25  1  0
 24 26  2  0
 26 27  1  0
 26 28  1  0
 28 29  1  0
  6 30  1  0
 30 31  1  0
 30 32  2  0
 32 33  1  0
 32  2  1  0
 22 15  1  0
 28 20  1  0
M  END
>  <plip>  (1) 
-0.10344827586206896

>  <filename>  (1) 
[H][c]1[n][c]([H])[c]([C@]([H])([N]([H])[H])[C]([H])([H])[c]2[c]([H])[c]([H])[c]3[c]([c]2[H])[c]([H])[c]([H])[n]3[H])[c]([H])[c]1[H]

$$$$
