
     RDKit          3D

 36 37  0  0  0  0  0  0  0  0999 V2000
    8.6368    3.5625   23.1617 C   0  0  0  0  0  0  0  0  0  0  0  0
    9.2064    2.2086   22.7945 C   0  0  0  0  0  0  0  0  0  0  0  0
    9.8924    1.5203   23.9946 C   0  0  0  0  0  0  0  0  0  0  0  0
    8.9871    1.1001   25.0452 N   0  0  0  0  0  0  0  0  0  0  0  0
    8.4541   -0.1278   25.2462 C   0  0  0  0  0  0  0  0  0  0  0  0
    7.6509   -0.0359   26.3625 C   0  0  0  0  0  0  0  0  0  0  0  0
    7.7803    1.3092   26.7737 C   0  0  0  0  0  0  0  0  0  0  0  0
    8.5886    1.9809   25.9631 N   0  0  0  0  0  0  0  0  0  0  0  0
    7.3281    1.8188   27.6185 H   0  0  0  0  0  0  0  0  0  0  0  0
    7.0595   -0.8137   26.8310 H   0  0  0  0  0  0  0  0  0  0  0  0
    8.6925   -0.9386   24.5620 H   0  0  0  0  0  0  0  0  0  0  0  0
   10.6248    2.1988   24.4318 H   0  0  0  0  0  0  0  0  0  0  0  0
   10.3960    0.6216   23.6445 H   0  0  0  0  0  0  0  0  0  0  0  0
    8.1225    1.3537   22.2401 N   0  0  0  0  0  4  0  0  0  0  0  0
    8.5737    0.1296   21.5471 C   0  0  0  0  0  0  0  0  0  0  0  0
    7.4051   -0.6883   21.0080 C   0  0  0  0  0  0  0  0  0  0  0  0
    6.6427   -0.0007   19.8967 C   0  0  0  0  0  0  0  0  0  0  0  0
    5.4305    0.6542   20.1437 C   0  0  0  0  0  0  0  0  0  0  0  0
    4.7967    1.3206   19.0915 C   0  0  0  0  0  0  0  0  0  0  0  0
    5.3928    1.3036   17.8261 C   0  0  0  0  0  0  0  0  0  0  0  0
    6.5551    0.6888   17.5650 N   0  0  0  0  0  0  0  0  0  0  0  0
    7.1557    0.0660   18.5855 C   0  0  0  0  0  0  0  0  0  0  0  0
    8.1076   -0.4134   18.3589 H   0  0  0  0  0  0  0  0  0  0  0  0
    4.9169    1.7967   16.9798 H   0  0  0  0  0  0  0  0  0  0  0  0
    3.8672    1.8514   19.2445 H   0  0  0  0  0  0  0  0  0  0  0  0
    5.0100    0.6365   21.1545 H   0  0  0  0  0  0  0  0  0  0  0  0
    6.7347   -0.9437   21.8384 H   0  0  0  0  0  0  0  0  0  0  0  0
    7.8104   -1.6410   20.6384 H   0  0  0  0  0  0  0  0  0  0  0  0
    9.1810   -0.4958   22.2132 H   0  0  0  0  0  0  0  0  0  0  0  0
    9.2287    0.3960   20.7070 H   0  0  0  0  0  0  0  0  0  0  0  0
    7.4678    1.1284   23.0303 H   0  0  0  0  0  0  0  0  0  0  0  0
    7.5347    1.9142   21.5722 H   0  0  0  0  0  0  0  0  0  0  0  0
    9.9830    2.3424   22.0270 H   0  0  0  0  0  0  0  0  0  0  0  0
    7.8286    3.4764   23.8910 H   0  0  0  0  0  0  0  0  0  0  0  0
    9.4165    4.1760   23.6248 H   0  0  0  0  0  0  0  0  0  0  0  0
    8.2828    4.0953   22.2725 H   0  0  0  0  0  0  0  0  0  0  0  0
  1  2  1  0
  2  3  1  0
  3  4  1  0
  4  5  1  0
  5  6  2  0
  6  7  1  0
  7  8  2  0
  7  9  1  0
  6 10  1  0
  5 11  1  0
  3 12  1  0
  3 13  1  0
  2 14  1  0
 14 15  1  0
 15 16  1  0
 16 17  1  0
 17 18  2  0
 18 19  1  0
 19 20  2  0
 20 21  1  0
 21 22  2  0
 22 23  1  0
 20 24  1  0
 19 25  1  0
 18 26  1  0
 16 27  1  0
 16 28  1  0
 15 29  1  0
 15 30  1  0
 14 31  1  0
 14 32  1  0
  2 33  1  0
  1 34  1  0
  1 35  1  0
  1 36  1  0
  8  4  1  0
 22 17  1  0
M  CHG  1  14   1
M  END
>  <plip>  (1) 
-0.03571428571428571

>  <filename>  (1) 
[H][c]1[n][c]([H])[c]([C]([H])([H])[C]([H])([H])[N+]([H])([H])[C]([H])([C]([H])([H])[H])[C]([H])([H])[n]2[n][c]([H])[c]([H])[c]2[H])[c]([H])[c]1[H]

$$$$
