
     RDKit          3D

 23 25  0  0  0  0  0  0  0  0999 V2000
    4.8023    1.3180   19.1006 C   0  0  0  0  0  0  0  0  0  0  0  0
    5.4009    1.2964   17.8337 C   0  0  0  0  0  0  0  0  0  0  0  0
    6.5638    0.6759   17.5671 N   0  0  0  0  0  0  0  0  0  0  0  0
    7.1648    0.0654   18.5958 C   0  0  0  0  0  0  0  0  0  0  0  0
    6.6431    0.0032   19.8990 C   0  0  0  0  0  0  0  0  0  0  0  0
    7.3328   -0.7392   20.9681 C   0  0  0  0  0  0  0  0  0  0  0  0
    6.6817   -1.7583   21.6584 C   0  0  0  0  0  0  0  0  0  0  0  0
    7.3443   -2.4824   22.6681 C   0  0  0  0  0  0  0  0  0  0  0  0
    8.6603   -2.1812   23.0136 C   0  0  0  0  0  0  0  0  0  0  0  0
    9.3231   -1.1485   22.3405 C   0  0  0  0  0  0  0  0  0  0  0  0
    8.6661   -0.4334   21.3261 C   0  0  0  0  0  0  0  0  0  0  0  0
    9.5356    0.5931   20.8320 C   0  0  0  0  0  0  0  0  0  0  0  0
   10.7224    0.6861   21.3385 N   0  0  0  0  0  0  0  0  0  0  0  0
   10.9338   -0.4976   22.5304 S   0  0  0  0  0  0  0  0  0  0  0  0
    9.2078    1.2761   20.0654 H   0  0  0  0  0  0  0  0  0  0  0  0
    9.1713   -2.7272   23.7966 H   0  0  0  0  0  0  0  0  0  0  0  0
    6.8073   -3.2718   23.1875 H   0  0  0  0  0  0  0  0  0  0  0  0
    5.6558   -1.9903   21.3890 H   0  0  0  0  0  0  0  0  0  0  0  0
    5.4235    0.6486   20.1511 C   0  0  0  0  0  0  0  0  0  0  0  0
    5.0048    0.6312   21.1618 H   0  0  0  0  0  0  0  0  0  0  0  0
    8.1135   -0.4297   18.3783 H   0  0  0  0  0  0  0  0  0  0  0  0
    4.9149    1.7823   16.9937 H   0  0  0  0  0  0  0  0  0  0  0  0
    3.8678    1.8489   19.2570 H   0  0  0  0  0  0  0  0  0  0  0  0
  1  2  2  0
  2  3  1  0
  3  4  2  0
  4  5  1  0
  5  6  1  0
  6  7  2  0
  7  8  1  0
  8  9  2  0
  9 10  1  0
 10 11  2  0
 11 12  1  0
 12 13  2  0
 13 14  1  0
 12 15  1  0
  9 16  1  0
  8 17  1  0
  7 18  1  0
  5 19  2  0
 19 20  1  0
  4 21  1  0
  2 22  1  0
  1 23  1  0
 19  1  1  0
 11  6  1  0
 14 10  1  0
M  END
>  <plip>  (1) 
-0.07142857142857142

>  <filename>  (1) 
[H][c]1[n][c]([H])[c](-[c]2[c]([H])[c]([H])[c]([H])[c]3[s][n][c]([H])[c]23)[c]([H])[c]1[H]

$$$$
