
     RDKit          3D

 51 54  0  0  0  0  0  0  0  0999 V2000
    9.5383   -1.9302   20.4368 C   0  0  0  0  0  0  0  0  0  0  0  0
    8.0574   -1.9838   20.5903 N   0  0  0  0  0  4  0  0  0  0  0  0
    7.6580   -3.0329   21.6281 C   0  0  0  0  0  0  0  0  0  0  0  0
    7.3633   -2.2186   22.8819 C   0  0  0  0  0  0  0  0  0  0  0  0
    6.7590   -0.9196   22.3394 C   0  0  1  0  0  0  0  0  0  0  0  0
    6.8421    0.2649   23.2849 C   0  0  0  0  0  0  0  0  0  0  0  0
    5.9659    0.1095   24.4494 N   0  0  0  0  0  4  0  0  0  0  0  0
    6.1181    1.1965   25.4999 C   0  0  0  0  0  0  0  0  0  0  0  0
    7.3797    0.9789   26.3904 C   0  0  0  0  0  0  0  0  0  0  0  0
    7.1163    0.4663   27.8154 C   0  0  0  0  0  0  0  0  0  0  0  0
    5.7484   -0.7348   27.8241 S   0  0  0  0  0  0  0  0  0  0  0  0
    4.5206    0.4560   27.3398 C   0  0  0  0  0  0  0  0  0  0  0  0
    3.3474    0.6213   28.0885 C   0  0  0  0  0  0  0  0  0  0  0  0
    2.4331    1.6206   27.7428 C   0  0  0  0  0  0  0  0  0  0  0  0
    2.6832    2.4496   26.6431 C   0  0  0  0  0  0  0  0  0  0  0  0
    3.8595    2.2872   25.9050 C   0  0  0  0  0  0  0  0  0  0  0  0
    4.8036    1.3025   26.2481 C   0  0  0  0  0  0  0  0  0  0  0  0
    4.0657    2.9365   25.0561 H   0  0  0  0  0  0  0  0  0  0  0  0
    1.9681    3.2197   26.3610 H   0  0  0  0  0  0  0  0  0  0  0  0
    1.5300    1.7505   28.3367 H   0  0  0  0  0  0  0  0  0  0  0  0
    3.1962   -0.0110   28.9607 H   0  0  0  0  0  0  0  0  0  0  0  0
    7.9984   -0.0115   28.2539 H   0  0  0  0  0  0  0  0  0  0  0  0
    6.8171    1.2823   28.4797 H   0  0  0  0  0  0  0  0  0  0  0  0
    8.0462    0.2682   25.8863 H   0  0  0  0  0  0  0  0  0  0  0  0
    7.9207    1.9288   26.4620 H   0  0  0  0  0  0  0  0  0  0  0  0
    6.2575    2.1282   24.9505 H   0  0  0  0  0  0  0  0  0  0  0  0
    4.9571    0.0438   24.1584 H   0  0  0  0  0  0  0  0  0  0  0  0
    6.1471   -0.7832   24.9805 H   0  0  0  0  0  0  0  0  0  0  0  0
    6.6302    1.2117   22.7603 H   0  0  0  0  0  0  0  0  0  0  0  0
    7.8939    0.3542   23.5968 H   0  0  0  0  0  0  0  0  0  0  0  0
    7.4854   -0.6255   21.0257 C   0  0  2  0  0  0  0  0  0  0  0  0
    6.6471   -0.0020   19.9277 C   0  0  0  0  0  0  0  0  0  0  0  0
    5.4292    0.6571   20.1588 C   0  0  0  0  0  0  0  0  0  0  0  0
    4.8037    1.3119   19.0975 C   0  0  0  0  0  0  0  0  0  0  0  0
    5.4056    1.2906   17.8356 C   0  0  0  0  0  0  0  0  0  0  0  0
    6.5669    0.6694   17.5896 N   0  0  0  0  0  0  0  0  0  0  0  0
    7.1559    0.0422   18.6156 C   0  0  0  0  0  0  0  0  0  0  0  0
    8.1064   -0.4298   18.3719 H   0  0  0  0  0  0  0  0  0  0  0  0
    4.9265    1.7849   16.9914 H   0  0  0  0  0  0  0  0  0  0  0  0
    3.8736    1.8453   19.2484 H   0  0  0  0  0  0  0  0  0  0  0  0
    4.9768    0.6576   21.1545 H   0  0  0  0  0  0  0  0  0  0  0  0
    8.3479    0.0206   21.2135 H   0  0  0  0  0  0  0  0  0  0  0  0
    5.7367   -1.1260   22.0365 H   0  0  0  0  0  0  0  0  0  0  0  0
    6.6875   -2.7553   23.5549 H   0  0  0  0  0  0  0  0  0  0  0  0
    8.2896   -2.0039   23.4326 H   0  0  0  0  0  0  0  0  0  0  0  0
    8.4715   -3.7519   21.7573 H   0  0  0  0  0  0  0  0  0  0  0  0
    6.7693   -3.5611   21.2718 H   0  0  0  0  0  0  0  0  0  0  0  0
    7.5908   -2.1765   19.6795 H   0  0  0  0  0  0  0  0  0  0  0  0
   10.0300   -1.7131   21.3911 H   0  0  0  0  0  0  0  0  0  0  0  0
    9.9488   -2.8791   20.0813 H   0  0  0  0  0  0  0  0  0  0  0  0
    9.8293   -1.1365   19.7387 H   0  0  0  0  0  0  0  0  0  0  0  0
  1  2  1  0
  2  3  1  0
  3  4  1  0
  4  5  1  0
  5  6  1  0
  6  7  1  0
  7  8  1  0
  8  9  1  0
  9 10  1  0
 10 11  1  0
 11 12  1  0
 12 13  2  0
 13 14  1  0
 14 15  2  0
 15 16  1  0
 16 17  2  0
 16 18  1  0
 15 19  1  0
 14 20  1  0
 13 21  1  0
 10 22  1  0
 10 23  1  0
  9 24  1  0
  9 25  1  0
  8 26  1  0
  7 27  1  0
  7 28  1  0
  6 29  1  0
  6 30  1  0
  5 31  1  0
 31 32  1  0
 32 33  2  0
 33 34  1  0
 34 35  2  0
 35 36  1  0
 36 37  2  0
 37 38  1  0
 35 39  1  0
 34 40  1  0
 33 41  1  0
 31 42  1  1
  5 43  1  6
  4 44  1  0
  4 45  1  0
  3 46  1  0
  3 47  1  0
  2 48  1  0
  1 49  1  0
  1 50  1  0
  1 51  1  0
 31  2  1  0
 37 32  1  0
 17  8  1  0
 17 12  1  0
M  CHG  2   2   1   7   1
M  END
>  <plip>  (1) 
-0.10344827586206896

>  <filename>  (1) 
[H][c]1[n][c]([H])[c]([C@@]2([H])[C@]([H])([C]([H])([H])[N+]([H])([H])[C]3([H])[c]4[c]([H])[c]([H])[c]([H])[c]([H])[c]4[S][C]([H])([H])[C]3([H])[H])[C]([H])([H])[C]([H])([H])[N+]2([H])[C]([H])([H])[H])[c]([H])[c]1[H]

$$$$
