
     RDKit          3D

 45 48  0  0  0  0  0  0  0  0999 V2000
    8.2476    1.4562   23.1438 O   0  0  0  0  0  0  0  0  0  0  0  0
    8.9556    0.8426   22.3680 C   0  0  0  0  0  0  0  0  0  0  0  0
   10.4808    0.7539   22.4818 C   0  0  0  0  0  0  0  0  0  0  0  0
   10.9090   -0.6699   22.7869 C   0  0  0  0  0  0  0  0  0  0  0  0
   11.7911   -1.4556   22.1210 C   0  0  0  0  0  0  0  0  0  0  0  0
   11.8368   -2.7341   22.6028 O   0  0  0  0  0  0  0  0  0  0  0  0
   10.9349   -2.7953   23.6180 C   0  0  0  0  0  0  0  0  0  0  0  0
   10.7171   -3.8877   24.4620 C   0  0  0  0  0  0  0  0  0  0  0  0
    9.7409   -3.7138   25.4382 C   0  0  0  0  0  0  0  0  0  0  0  0
    9.3867   -5.0331   26.5170 Cl  0  0  0  0  0  0  0  0  0  0  0  0
    9.0378   -2.5036   25.5912 C   0  0  0  0  0  0  0  0  0  0  0  0
    9.3145   -1.4152   24.7654 C   0  0  0  0  0  0  0  0  0  0  0  0
   10.3127   -1.5483   23.7778 C   0  0  0  0  0  0  0  0  0  0  0  0
    8.7647   -0.4805   24.8586 H   0  0  0  0  0  0  0  0  0  0  0  0
    8.2678   -2.4444   26.3507 H   0  0  0  0  0  0  0  0  0  0  0  0
   11.2946   -4.7999   24.3901 H   0  0  0  0  0  0  0  0  0  0  0  0
   12.4521   -1.2793   21.2857 H   0  0  0  0  0  0  0  0  0  0  0  0
   10.7748    1.4667   23.2566 H   0  0  0  0  0  0  0  0  0  0  0  0
   10.9289    1.1041   21.5449 H   0  0  0  0  0  0  0  0  0  0  0  0
    8.4754    0.1070   21.3276 N   0  0  0  0  0  0  0  0  0  0  0  0
    7.1107   -0.3911   21.2123 C   0  0  0  0  0  0  0  0  0  0  0  0
    6.4364    0.2948   20.0478 C   0  0  0  0  0  0  0  0  0  0  0  0
    5.1752    0.8989   20.1161 C   0  0  0  0  0  0  0  0  0  0  0  0
    4.6363    1.4462   18.9454 C   0  0  0  0  0  0  0  0  0  0  0  0
    5.3676    1.3516   17.7586 C   0  0  0  0  0  0  0  0  0  0  0  0
    6.5720    0.7646   17.6744 N   0  0  0  0  0  0  0  0  0  0  0  0
    7.0814    0.2644   18.8036 C   0  0  0  0  0  0  0  0  0  0  0  0
    8.0620   -0.2103   18.7074 H   0  0  0  0  0  0  0  0  0  0  0  0
    4.9699    1.7503   16.8276 H   0  0  0  0  0  0  0  0  0  0  0  0
    3.6831    1.9650   18.9511 H   0  0  0  0  0  0  0  0  0  0  0  0
    4.6398    0.9485   21.0663 H   0  0  0  0  0  0  0  0  0  0  0  0
    7.1705   -1.9040   20.9460 C   0  0  0  0  0  0  0  0  0  0  0  0
    7.8469   -2.7996   21.9858 C   0  0  0  0  0  0  0  0  0  0  0  0
    7.2698   -4.1924   21.6868 C   0  0  0  0  0  0  0  0  0  0  0  0
    6.1800   -4.0001   20.7913 O   0  0  0  0  0  0  0  0  0  0  0  0
    5.8393   -2.6262   20.7777 C   0  0  0  0  0  0  0  0  0  0  0  0
    5.3474   -2.3909   19.8292 H   0  0  0  0  0  0  0  0  0  0  0  0
    5.1475   -2.4031   21.6089 H   0  0  0  0  0  0  0  0  0  0  0  0
    7.9938   -4.8480   21.1906 H   0  0  0  0  0  0  0  0  0  0  0  0
    6.9263   -4.6961   22.6030 H   0  0  0  0  0  0  0  0  0  0  0  0
    8.9319   -2.7728   21.9193 H   0  0  0  0  0  0  0  0  0  0  0  0
    7.5569   -2.4898   22.9924 H   0  0  0  0  0  0  0  0  0  0  0  0
    7.7175   -2.0060   20.0051 H   0  0  0  0  0  0  0  0  0  0  0  0
    6.5707   -0.1736   22.1449 H   0  0  0  0  0  0  0  0  0  0  0  0
    9.1830   -0.4483   20.8805 H   0  0  0  0  0  0  0  0  0  0  0  0
  1  2  2  0
  2  3  1  0
  3  4  1  0
  4  5  2  0
  5  6  1  0
  6  7  1  0
  7  8  2  0
  8  9  1  0
  9 10  1  0
  9 11  2  0
 11 12  1  0
 12 13  2  0
 12 14  1  0
 11 15  1  0
  8 16  1  0
  5 17  1  0
  3 18  1  0
  3 19  1  0
  2 20  1  0
 20 21  1  0
 21 22  1  0
 22 23  2  0
 23 24  1  0
 24 25  2  0
 25 26  1  0
 26 27  2  0
 27 28  1  0
 25 29  1  0
 24 30  1  0
 23 31  1  0
 21 32  1  0
 32 33  1  0
 33 34  1  0
 34 35  1  0
 35 36  1  0
 36 37  1  0
 36 38  1  0
 34 39  1  0
 34 40  1  0
 33 41  1  0
 33 42  1  0
 32 43  1  0
 21 44  1  0
 20 45  1  0
 13  4  1  0
 27 22  1  0
 36 32  1  0
 13  7  1  0
M  END
>  <plip>  (1) 
-0.13793103448275862

>  <filename>  (1) 
[H][c]1[n][c]([H])[c]([C]([H])([N]([H])[C](=[O])[C]([H])([H])[c]2[c]([H])[o][c]3[c]([H])[c]([Cl])[c]([H])[c]([H])[c]23)[C]2([H])[C]([H])([H])[O][C]([H])([H])[C]2([H])[H])[c]([H])[c]1[H]

$$$$
