
     RDKit          3D

 33 34  0  0  0  0  0  0  0  0999 V2000
    8.0724    0.4282   28.8201 F   0  0  0  0  0  0  0  0  0  0  0  0
    8.5035    0.3614   27.5534 C   0  0  0  0  0  0  0  0  0  0  0  0
    9.6968   -0.2760   27.2331 C   0  0  0  0  0  0  0  0  0  0  0  0
   10.1023   -0.2428   25.8915 C   0  0  0  0  0  0  0  0  0  0  0  0
    9.2482    0.3183   24.9296 C   0  0  0  0  0  0  0  0  0  0  0  0
    9.5773    0.2752   23.4419 C   0  0  0  0  0  0  0  0  0  0  0  0
    9.3927   -1.0781   22.7224 N   0  0  0  0  0  4  0  0  0  0  0  0
    7.9866   -1.6353   22.9500 C   0  0  0  0  0  0  0  0  0  0  0  0
    6.9750   -0.7848   22.1932 C   0  0  0  0  0  0  0  0  0  0  0  0
    7.4707   -0.6778   20.8516 O   0  0  0  0  0  0  0  0  0  0  0  0
    6.7034   -0.0211   19.9348 C   0  0  0  0  0  0  0  0  0  0  0  0
    5.4809    0.6211   20.1817 C   0  0  0  0  0  0  0  0  0  0  0  0
    4.8457    1.2815   19.1173 C   0  0  0  0  0  0  0  0  0  0  0  0
    5.4429    1.2804   17.8566 C   0  0  0  0  0  0  0  0  0  0  0  0
    6.6031    0.6452   17.6046 N   0  0  0  0  0  0  0  0  0  0  0  0
    7.2110    0.0182   18.6173 C   0  0  0  0  0  0  0  0  0  0  0  0
    8.1576   -0.4838   18.4189 H   0  0  0  0  0  0  0  0  0  0  0  0
    4.9797    1.8055   17.0194 H   0  0  0  0  0  0  0  0  0  0  0  0
    3.9078    1.8089   19.2664 H   0  0  0  0  0  0  0  0  0  0  0  0
    5.0459    0.6265   21.1806 H   0  0  0  0  0  0  0  0  0  0  0  0
    5.9926   -1.2669   22.1800 H   0  0  0  0  0  0  0  0  0  0  0  0
    6.8807    0.2192   22.6360 H   0  0  0  0  0  0  0  0  0  0  0  0
    7.7481   -1.6310   24.0129 H   0  0  0  0  0  0  0  0  0  0  0  0
    7.9189   -2.6646   22.6003 H   0  0  0  0  0  0  0  0  0  0  0  0
    9.4149   -0.9374   21.6753 H   0  0  0  0  0  0  0  0  0  0  0  0
   10.1414   -1.7630   22.9758 H   0  0  0  0  0  0  0  0  0  0  0  0
    8.8955    0.9881   22.9838 H   0  0  0  0  0  0  0  0  0  0  0  0
   10.5839    0.6467   23.2768 H   0  0  0  0  0  0  0  0  0  0  0  0
    8.0896    0.9198   25.2579 N   0  0  0  0  0  0  0  0  0  0  0  0
    7.7387    0.9610   26.5502 C   0  0  0  0  0  0  0  0  0  0  0  0
    6.8070    1.4571   26.7971 H   0  0  0  0  0  0  0  0  0  0  0  0
   11.0727   -0.6123   25.5741 H   0  0  0  0  0  0  0  0  0  0  0  0
   10.2688   -0.7366   28.0349 H   0  0  0  0  0  0  0  0  0  0  0  0
  1  2  1  0
  2  3  2  0
  3  4  1  0
  4  5  2  0
  5  6  1  0
  6  7  1  0
  7  8  1  0
  8  9  1  0
  9 10  1  0
 10 11  1  0
 11 12  2  0
 12 13  1  0
 13 14  2  0
 14 15  1  0
 15 16  2  0
 16 17  1  0
 14 18  1  0
 13 19  1  0
 12 20  1  0
  9 21  1  0
  9 22  1  0
  8 23  1  0
  8 24  1  0
  7 25  1  0
  7 26  1  0
  6 27  1  0
  6 28  1  0
  5 29  1  0
 29 30  2  0
 30 31  1  0
  4 32  1  0
  3 33  1  0
 30  2  1  0
 16 11  1  0
M  CHG  1   7   1
M  END
>  <plip>  (1) 
-0.034482758620689655

>  <filename>  (1) 
[H][c]1[n][c]([H])[c]([O][C]([H])([H])[C]([H])([H])[N+]([H])([H])[C]([H])([H])[c]2[n][c]([H])[c]([F])[c]([H])[c]2[H])[c]([H])[c]1[H]

$$$$
