
     RDKit          3D

 38 41  0  0  0  0  0  0  0  0999 V2000
    4.9566    2.4489   16.4061 H   0  0  0  0  0  0  0  0  0  0  0  0
    5.3090    1.8203   17.2199 C   0  0  0  0  0  0  0  0  0  0  0  0
    6.4000    1.0812   16.9629 N   0  0  0  0  0  0  0  0  0  0  0  0
    6.8657    0.3204   17.9542 C   0  0  0  0  0  0  0  0  0  0  0  0
    7.7501   -0.2683   17.7140 H   0  0  0  0  0  0  0  0  0  0  0  0
    6.2767    0.2277   19.2292 C   0  0  0  0  0  0  0  0  0  0  0  0
    6.8759   -0.6605   20.2330 C   0  0  0  0  0  0  0  0  0  0  0  0
    6.2220   -1.5269   21.0164 C   0  0  0  0  0  0  0  0  0  0  0  0
    5.1574   -1.6091   21.0556 H   0  0  0  0  0  0  0  0  0  0  0  0
    6.9307   -2.4723   21.8463 C   0  0  0  0  0  0  0  0  0  0  0  0
    6.3953   -3.4226   22.3838 O   0  0  0  0  0  0  0  0  0  0  0  0
    8.3100   -2.2444   22.0183 N   0  0  0  0  0  0  0  0  0  0  0  0
    8.9948   -3.0103   23.0351 C   0  0  1  0  0  0  0  0  0  0  0  0
    9.1910   -4.0505   22.7772 H   0  0  0  0  0  0  0  0  0  0  0  0
    9.9574   -2.3099   23.9243 C   0  0  0  0  0  0  0  0  0  0  0  0
   10.8336   -2.8806   24.2231 H   0  0  0  0  0  0  0  0  0  0  0  0
   10.1527   -1.2660   23.7020 H   0  0  0  0  0  0  0  0  0  0  0  0
    8.6057   -2.7065   24.4596 C   0  0  2  0  0  0  0  0  0  0  0  0
    7.8988   -1.8875   24.5780 H   0  0  0  0  0  0  0  0  0  0  0  0
    8.4328   -3.7792   25.4966 C   0  0  0  0  0  0  0  0  0  0  0  0
    9.2300   -3.7624   26.6459 C   0  0  0  0  0  0  0  0  0  0  0  0
    9.9183   -2.9422   26.7743 H   0  0  0  0  0  0  0  0  0  0  0  0
    9.1485   -4.7664   27.6101 C   0  0  0  0  0  0  0  0  0  0  0  0
    9.8153   -4.7295   28.4651 H   0  0  0  0  0  0  0  0  0  0  0  0
    8.2320   -5.8086   27.4508 C   0  0  0  0  0  0  0  0  0  0  0  0
    8.2069   -6.6024   28.1969 H   0  0  0  0  0  0  0  0  0  0  0  0
    7.3818   -5.8154   26.3362 C   0  0  0  0  0  0  0  0  0  0  0  0
    6.6536   -6.6184   26.2276 H   0  0  0  0  0  0  0  0  0  0  0  0
    7.4768   -4.8004   25.3683 C   0  0  0  0  0  0  0  0  0  0  0  0
    6.7965   -4.7771   24.5209 H   0  0  0  0  0  0  0  0  0  0  0  0
    8.9765   -1.2896   21.2812 C   0  0  0  0  0  0  0  0  0  0  0  0
   10.1391   -0.9688   21.4152 O   0  0  0  0  0  0  0  0  0  0  0  0
    8.2499   -0.6626   20.3066 N   0  0  0  0  0  0  0  0  0  0  0  0
    8.8069    0.0929   19.9594 H   0  0  0  0  0  0  0  0  0  0  0  0
    5.1063    0.9694   19.4634 C   0  0  0  0  0  0  0  0  0  0  0  0
    4.5923    0.9179   20.4256 H   0  0  0  0  0  0  0  0  0  0  0  0
    4.6319    1.7949   18.4436 C   0  0  0  0  0  0  0  0  0  0  0  0
    3.7612    2.4271   18.5789 H   0  0  0  0  0  0  0  0  0  0  0  0
  1  2  1  0
  2  3  2  0
  3  4  1  0
  4  5  1  0
  4  6  2  0
  6  7  1  0
  7  8  2  0
  8  9  1  0
  8 10  1  0
 10 11  2  0
 10 12  1  0
 12 13  1  0
 13 14  1  6
 13 15  1  0
 15 16  1  0
 15 17  1  0
 15 18  1  0
 18 19  1  6
 18 20  1  0
 20 21  2  0
 21 22  1  0
 21 23  1  0
 23 24  1  0
 23 25  2  0
 25 26  1  0
 25 27  1  0
 27 28  1  0
 27 29  2  0
 29 30  1  0
 12 31  1  0
 31 32  2  0
 31 33  1  0
 33 34  1  0
  6 35  1  0
 35 36  1  0
 35 37  2  0
 37 38  1  0
 37  2  1  0
 33  7  1  0
 18 13  1  0
 29 20  1  0
M  END
>  <plip>  (1) 
-0.10344827586206896

>  <filename>  (1) 
[H][c]1[n][c]([H])[c](-[c]2[c]([H])[c](=[O])[n]([C@@]3([H])[C]([H])([H])[C@]3([H])[c]3[c]([H])[c]([H])[c]([H])[c]([H])[c]3[H])[c](=[O])[n]2[H])[c]([H])[c]1[H]

$$$$
