
     RDKit          3D

 47 49  0  0  0  0  0  0  0  0999 V2000
    8.1608    2.1496   23.2238 C   0  0  0  0  0  0  0  0  0  0  0  0
    7.4328    1.1326   22.5743 O   0  0  0  0  0  0  0  0  0  0  0  0
    8.2217    0.2073   21.8548 C   0  0  0  0  0  0  0  0  0  0  0  0
    7.3578   -0.7492   21.0074 C   0  0  1  0  0  0  0  0  0  0  0  0
    6.5260   -1.6170   21.8332 N   0  0  0  0  0  0  0  0  0  0  0  0
    5.8618   -2.6674   21.2528 C   0  0  0  0  0  0  0  0  0  0  0  0
    5.9371   -2.9011   20.0592 O   0  0  0  0  0  0  0  0  0  0  0  0
    5.0154   -3.5559   22.1844 C   0  0  0  0  0  0  0  0  0  0  0  0
    5.7792   -4.1334   23.2328 O   0  0  0  0  0  0  0  0  0  0  0  0
    5.1485   -4.8464   24.2184 C   0  0  0  0  0  0  0  0  0  0  0  0
    3.7588   -5.0201   24.3705 C   0  0  0  0  0  0  0  0  0  0  0  0
    3.2579   -5.7822   25.4345 C   0  0  0  0  0  0  0  0  0  0  0  0
    4.1256   -6.3603   26.3603 C   0  0  0  0  0  0  0  0  0  0  0  0
    3.5873   -7.0967   27.3786 O   0  0  0  0  0  0  0  0  0  0  0  0
    4.3847   -7.6602   28.3680 C   0  0  0  0  0  0  0  0  0  0  0  0
    3.8383   -8.2242   29.2769 O   0  0  0  0  0  0  0  0  0  0  0  0
    5.8382   -7.4907   28.2388 C   0  0  0  0  0  0  0  0  0  0  0  0
    6.3810   -6.7100   27.2867 C   0  0  0  0  0  0  0  0  0  0  0  0
    7.8384   -6.3365   27.2704 C   0  0  0  0  0  0  0  0  0  0  0  0
    7.9326   -5.2478   27.3033 H   0  0  0  0  0  0  0  0  0  0  0  0
    8.3725   -6.7491   28.1257 H   0  0  0  0  0  0  0  0  0  0  0  0
    8.3236   -6.6882   26.3553 H   0  0  0  0  0  0  0  0  0  0  0  0
    5.5139   -6.1565   26.2398 C   0  0  0  0  0  0  0  0  0  0  0  0
    6.0052   -5.4194   25.1479 C   0  0  0  0  0  0  0  0  0  0  0  0
    7.0729   -5.2770   25.0147 H   0  0  0  0  0  0  0  0  0  0  0  0
    6.4334   -8.0121   28.9833 H   0  0  0  0  0  0  0  0  0  0  0  0
    2.1936   -5.9334   25.5723 H   0  0  0  0  0  0  0  0  0  0  0  0
    3.0725   -4.5708   23.6616 H   0  0  0  0  0  0  0  0  0  0  0  0
    4.5706   -4.3374   21.5646 H   0  0  0  0  0  0  0  0  0  0  0  0
    4.2174   -2.9479   22.6142 H   0  0  0  0  0  0  0  0  0  0  0  0
    6.1636   -1.2261   22.6868 H   0  0  0  0  0  0  0  0  0  0  0  0
    6.5690   -0.0486   19.9100 C   0  0  0  0  0  0  0  0  0  0  0  0
    5.3703    0.6442   20.1269 C   0  0  0  0  0  0  0  0  0  0  0  0
    4.7888    1.3231   19.0510 C   0  0  0  0  0  0  0  0  0  0  0  0
    5.4267    1.2953   17.8040 C   0  0  0  0  0  0  0  0  0  0  0  0
    6.5553    0.6119   17.5690 N   0  0  0  0  0  0  0  0  0  0  0  0
    7.0878   -0.0460   18.6079 C   0  0  0  0  0  0  0  0  0  0  0  0
    8.0035   -0.5992   18.3974 H   0  0  0  0  0  0  0  0  0  0  0  0
    5.0101    1.8382   16.9547 H   0  0  0  0  0  0  0  0  0  0  0  0
    3.8647    1.8808   19.1595 H   0  0  0  0  0  0  0  0  0  0  0  0
    4.9031    0.6782   21.1154 H   0  0  0  0  0  0  0  0  0  0  0  0
    8.0725   -1.4091   20.5023 H   0  0  0  0  0  0  0  0  0  0  0  0
    8.9166    0.7250   21.1718 H   0  0  0  0  0  0  0  0  0  0  0  0
    8.8327   -0.4115   22.5325 H   0  0  0  0  0  0  0  0  0  0  0  0
    8.8011    1.7550   24.0270 H   0  0  0  0  0  0  0  0  0  0  0  0
    7.4240    2.8257   23.6635 H   0  0  0  0  0  0  0  0  0  0  0  0
    8.7949    2.7270   22.5315 H   0  0  0  0  0  0  0  0  0  0  0  0
  1  2  1  0
  2  3  1  0
  3  4  1  0
  4  5  1  0
  5  6  1  0
  6  7  2  0
  6  8  1  0
  8  9  1  0
  9 10  1  0
 10 11  2  0
 11 12  1  0
 12 13  2  0
 13 14  1  0
 14 15  1  0
 15 16  2  0
 15 17  1  0
 17 18  2  0
 18 19  1  0
 19 20  1  0
 19 21  1  0
 19 22  1  0
 18 23  1  0
 23 24  2  0
 24 25  1  0
 17 26  1  0
 12 27  1  0
 11 28  1  0
  8 29  1  0
  8 30  1  0
  5 31  1  0
  4 32  1  0
 32 33  2  0
 33 34  1  0
 34 35  2  0
 35 36  1  0
 36 37  2  0
 37 38  1  0
 35 39  1  0
 34 40  1  0
 33 41  1  0
  4 42  1  6
  3 43  1  0
  3 44  1  0
  1 45  1  0
  1 46  1  0
  1 47  1  0
 24 10  1  0
 37 32  1  0
 23 13  1  0
M  END
>  <plip>  (1) 
-0.25

>  <filename>  (1) 
[H][c]1[n][c]([H])[c]([C@]([H])([N]([H])[C](=[O])[C]([H])([H])[O][c]2[c]([H])[c]([H])[c]3[o][c](=[O])[c]([H])[c]([C]([H])([H])[H])[c]3[c]2[H])[C]([H])([H])[O][C]([H])([H])[H])[c]([H])[c]1[H]

$$$$
