
     RDKit          3D

 38 39  0  0  0  0  0  0  0  0999 V2000
    4.9545    1.7943   16.9604 H   0  0  0  0  0  0  0  0  0  0  0  0
    5.4044    1.2873   17.8132 C   0  0  0  0  0  0  0  0  0  0  0  0
    6.5634    0.6608   17.5748 N   0  0  0  0  0  0  0  0  0  0  0  0
    7.1683    0.0653   18.6183 C   0  0  0  0  0  0  0  0  0  0  0  0
    8.1142   -0.4092   18.3645 H   0  0  0  0  0  0  0  0  0  0  0  0
    6.6682    0.0388   19.9284 C   0  0  0  0  0  0  0  0  0  0  0  0
    7.3750   -0.7536   21.0506 C   0  0  0  0  0  0  0  0  0  0  0  0
    7.2225   -0.1170   22.3474 N   0  0  0  0  0  0  0  0  0  0  0  0
    6.6701   -0.6000   23.0374 H   0  0  0  0  0  0  0  0  0  0  0  0
    7.6776    1.1379   22.7115 C   0  0  0  0  0  0  0  0  0  0  0  0
    8.1287    2.0825   21.7745 C   0  0  0  0  0  0  0  0  0  0  0  0
    8.1031    1.8436   20.7167 H   0  0  0  0  0  0  0  0  0  0  0  0
    8.5629    3.3348   22.2191 C   0  0  0  0  0  0  0  0  0  0  0  0
    8.8054    4.1054   21.4951 H   0  0  0  0  0  0  0  0  0  0  0  0
    8.6341    3.6698   23.5747 C   0  0  0  0  0  0  0  0  0  0  0  0
    9.1905    5.0190   23.9905 C   0  0  0  0  0  0  0  0  0  0  0  0
    9.6273    5.5413   23.1342 H   0  0  0  0  0  0  0  0  0  0  0  0
    8.4198    5.6802   24.4052 H   0  0  0  0  0  0  0  0  0  0  0  0
    9.9742    4.9456   24.7544 H   0  0  0  0  0  0  0  0  0  0  0  0
    8.1384    2.7303   24.5193 C   0  0  0  0  0  0  0  0  0  0  0  0
    8.1266    3.0833   25.9889 C   0  0  0  0  0  0  0  0  0  0  0  0
    7.6280    4.0474   26.1510 H   0  0  0  0  0  0  0  0  0  0  0  0
    9.1481    3.1990   26.3733 H   0  0  0  0  0  0  0  0  0  0  0  0
    7.6149    2.3215   26.5864 H   0  0  0  0  0  0  0  0  0  0  0  0
    7.6540    1.4939   24.0732 C   0  0  0  0  0  0  0  0  0  0  0  0
    7.2447    0.7698   24.7824 H   0  0  0  0  0  0  0  0  0  0  0  0
    8.8855   -0.9634   20.7954 C   0  0  0  0  0  0  0  0  0  0  0  0
    9.0622   -1.6669   19.9773 H   0  0  0  0  0  0  0  0  0  0  0  0
    9.4029   -0.0257   20.5661 H   0  0  0  0  0  0  0  0  0  0  0  0
    9.3408   -1.3804   21.6998 H   0  0  0  0  0  0  0  0  0  0  0  0
    6.6840   -2.1180   21.1450 C   0  0  0  0  0  0  0  0  0  0  0  0
    5.6148   -1.9974   21.3554 H   0  0  0  0  0  0  0  0  0  0  0  0
    7.1360   -2.7399   21.9257 H   0  0  0  0  0  0  0  0  0  0  0  0
    6.7814   -2.6402   20.1886 H   0  0  0  0  0  0  0  0  0  0  0  0
    5.4297    0.6765   20.1413 C   0  0  0  0  0  0  0  0  0  0  0  0
    4.9681    0.6806   21.1306 H   0  0  0  0  0  0  0  0  0  0  0  0
    4.7965    1.3177   19.0727 C   0  0  0  0  0  0  0  0  0  0  0  0
    3.8592    1.8457   19.2083 H   0  0  0  0  0  0  0  0  0  0  0  0
  1  2  1  0
  2  3  2  0
  3  4  1  0
  4  5  1  0
  4  6  2  0
  6  7  1  0
  7  8  1  0
  8  9  1  0
  8 10  1  0
 10 11  2  0
 11 12  1  0
 11 13  1  0
 13 14  1  0
 13 15  2  0
 15 16  1  0
 16 17  1  0
 16 18  1  0
 16 19  1  0
 15 20  1  0
 20 21  1  0
 21 22  1  0
 21 23  1  0
 21 24  1  0
 20 25  2  0
 25 26  1  0
  7 27  1  0
 27 28  1  0
 27 29  1  0
 27 30  1  0
  7 31  1  0
 31 32  1  0
 31 33  1  0
 31 34  1  0
  6 35  1  0
 35 36  1  0
 35 37  2  0
 37 38  1  0
 37  2  1  0
 25 10  1  0
M  END
>  <plip>  (1) 
-0.10714285714285714

>  <filename>  (1) 
[H][c]1[n][c]([H])[c]([C]([N]([H])[c]2[c]([H])[c]([H])[c]([C]([H])([H])[H])[c]([C]([H])([H])[H])[c]2[H])([C]([H])([H])[H])[C]([H])([H])[H])[c]([H])[c]1[H]

$$$$
