
     RDKit          3D

 36 38  0  0  0  0  0  0  0  0999 V2000
    9.3297   -2.5735   23.6453 H   0  0  0  0  0  0  0  0  0  0  0  0
    8.7500   -2.0322   22.9021 C   0  0  0  0  0  0  0  0  0  0  0  0
    9.1996   -1.9838   21.6533 N   0  0  0  0  0  0  0  0  0  0  0  0
    8.4873   -1.3119   20.7432 N   0  0  0  0  0  0  0  0  0  0  0  0
    7.3385   -0.7039   21.0972 C   0  0  0  0  0  0  0  0  0  0  0  0
    6.6319   -0.0053   20.0023 C   0  0  0  0  0  0  0  0  0  0  0  0
    7.1826    0.0164   18.7062 C   0  0  0  0  0  0  0  0  0  0  0  0
    8.1310   -0.4643   18.4772 H   0  0  0  0  0  0  0  0  0  0  0  0
    6.6037    0.6211   17.6664 N   0  0  0  0  0  0  0  0  0  0  0  0
    5.4439    1.2526   17.8883 C   0  0  0  0  0  0  0  0  0  0  0  0
    5.0013    1.7508   17.0281 H   0  0  0  0  0  0  0  0  0  0  0  0
    4.8101    1.2939   19.1340 C   0  0  0  0  0  0  0  0  0  0  0  0
    3.8745    1.8373   19.2484 H   0  0  0  0  0  0  0  0  0  0  0  0
    5.4109    0.6537   20.2164 C   0  0  0  0  0  0  0  0  0  0  0  0
    4.9523    0.6647   21.2083 H   0  0  0  0  0  0  0  0  0  0  0  0
    6.8135   -0.6995   22.3345 N   0  0  0  0  0  0  0  0  0  0  0  0
    7.5294   -1.3716   23.2404 C   0  0  0  0  0  0  0  0  0  0  0  0
    6.9905   -1.3273   24.4736 N   0  0  0  0  0  0  0  0  0  0  0  0
    6.1096   -0.8290   24.3849 H   0  0  0  0  0  0  0  0  0  0  0  0
    7.3898   -2.1436   25.6139 C   0  0  0  0  0  0  0  0  0  0  0  0
    8.4808   -2.0327   25.7126 H   0  0  0  0  0  0  0  0  0  0  0  0
    7.1099   -3.6573   25.4418 C   0  0  0  0  0  0  0  0  0  0  0  0
    7.5180   -4.0020   24.4839 H   0  0  0  0  0  0  0  0  0  0  0  0
    7.6764   -4.1801   26.2301 H   0  0  0  0  0  0  0  0  0  0  0  0
    5.6164   -4.0119   25.5681 C   0  0  0  0  0  0  0  0  0  0  0  0
    5.0663   -3.5356   24.7412 H   0  0  0  0  0  0  0  0  0  0  0  0
    5.4718   -5.0946   25.4541 H   0  0  0  0  0  0  0  0  0  0  0  0
    5.0437   -3.5286   26.9126 C   0  0  0  0  0  0  0  0  0  0  0  0
    3.9710   -3.7569   26.9803 H   0  0  0  0  0  0  0  0  0  0  0  0
    5.5171   -4.0891   27.7351 H   0  0  0  0  0  0  0  0  0  0  0  0
    5.2825   -2.0182   27.1099 C   0  0  0  0  0  0  0  0  0  0  0  0
    4.9526   -1.7124   28.1114 H   0  0  0  0  0  0  0  0  0  0  0  0
    4.6621   -1.4508   26.3963 H   0  0  0  0  0  0  0  0  0  0  0  0
    6.7669   -1.6420   26.9220 C   0  0  0  0  0  0  0  0  0  0  0  0
    7.3606   -2.1081   27.7217 H   0  0  0  0  0  0  0  0  0  0  0  0
    6.9198   -0.5580   26.9970 H   0  0  0  0  0  0  0  0  0  0  0  0
  1  2  1  0
  2  3  2  0
  3  4  1  0
  4  5  2  0
  5  6  1  0
  6  7  2  0
  7  8  1  0
  7  9  1  0
  9 10  2  0
 10 11  1  0
 10 12  1  0
 12 13  1  0
 12 14  2  0
 14 15  1  0
  5 16  1  0
 16 17  2  0
 17 18  1  0
 18 19  1  0
 18 20  1  0
 20 21  1  0
 20 22  1  0
 22 23  1  0
 22 24  1  0
 22 25  1  0
 25 26  1  0
 25 27  1  0
 25 28  1  0
 28 29  1  0
 28 30  1  0
 28 31  1  0
 31 32  1  0
 31 33  1  0
 31 34  1  0
 34 35  1  0
 34 36  1  0
 17  2  1  0
 34 20  1  0
 14  6  1  0
M  END
>  <plip>  (1) 
-0.03571428571428571

>  <filename>  (1) 
[H][c]1[n][n][c](-[c]2[c]([H])[n][c]([H])[c]([H])[c]2[H])[n][c]1[N]([H])[C]1([H])[C]([H])([H])[C]([H])([H])[C]([H])([H])[C]([H])([H])[C]1([H])[H]

$$$$
