
     RDKit          3D

 37 38  0  0  0  0  0  0  0  0999 V2000
    7.9384   -1.8984   20.6458 C   0  0  0  0  0  0  0  0  0  0  0  0
    7.3932   -0.5644   21.0909 C   0  0  0  0  0  0  0  0  0  0  0  0
    6.5197   -0.7716   22.3119 C   0  0  0  0  0  0  0  0  0  0  0  0
    7.1250   -1.1509   23.1379 H   0  0  0  0  0  0  0  0  0  0  0  0
    5.7537   -1.5097   22.0825 H   0  0  0  0  0  0  0  0  0  0  0  0
    6.0563    0.1678   22.6273 H   0  0  0  0  0  0  0  0  0  0  0  0
    8.5087    0.2615   21.4649 N   0  0  0  0  0  4  0  0  0  0  0  0
    9.2371   -0.2958   22.5999 C   0  0  0  0  0  0  0  0  0  0  0  0
   10.4268    0.5615   22.7515 C   0  0  0  0  0  0  0  0  0  0  0  0
   11.6753    0.0746   22.3796 C   0  0  0  0  0  0  0  0  0  0  0  0
   11.7503   -1.1047   21.6931 O   0  0  0  0  0  0  0  0  0  0  0  0
   10.9431   -1.2224   21.1709 H   0  0  0  0  0  0  0  0  0  0  0  0
   12.8232    0.7813   22.7255 C   0  0  0  0  0  0  0  0  0  0  0  0
   14.5397    0.0910   22.3284 Br  0  0  0  0  0  0  0  0  0  0  0  0
   12.7199    2.0124   23.3741 C   0  0  0  0  0  0  0  0  0  0  0  0
   11.4570    2.5597   23.6256 C   0  0  0  0  0  0  0  0  0  0  0  0
   10.3033    1.8376   23.3105 C   0  0  0  0  0  0  0  0  0  0  0  0
    9.0745    2.3593   23.5427 F   0  0  0  0  0  0  0  0  0  0  0  0
   11.3621    3.5368   24.0911 H   0  0  0  0  0  0  0  0  0  0  0  0
   13.6262    2.5374   23.6665 H   0  0  0  0  0  0  0  0  0  0  0  0
    9.5282   -1.3388   22.4157 H   0  0  0  0  0  0  0  0  0  0  0  0
    8.6240   -0.2984   23.5132 H   0  0  0  0  0  0  0  0  0  0  0  0
    8.1489    1.1811   21.7027 H   0  0  0  0  0  0  0  0  0  0  0  0
    9.1419    0.3464   20.6714 H   0  0  0  0  0  0  0  0  0  0  0  0
    6.6995    0.1447   19.9772 C   0  0  0  0  0  0  0  0  0  0  0  0
    5.4583    0.7665   20.1526 C   0  0  0  0  0  0  0  0  0  0  0  0
    4.8785    1.3715   19.0447 C   0  0  0  0  0  0  0  0  0  0  0  0
    5.5298    1.3380   17.8096 C   0  0  0  0  0  0  0  0  0  0  0  0
    6.7290    0.7495   17.6418 N   0  0  0  0  0  0  0  0  0  0  0  0
    7.3007    0.1793   18.7138 C   0  0  0  0  0  0  0  0  0  0  0  0
    8.2687   -0.2957   18.5843 H   0  0  0  0  0  0  0  0  0  0  0  0
    5.0459    1.8042   16.9565 H   0  0  0  0  0  0  0  0  0  0  0  0
    3.9276    1.8835   19.1319 H   0  0  0  0  0  0  0  0  0  0  0  0
    4.9623    0.7816   21.1237 H   0  0  0  0  0  0  0  0  0  0  0  0
    8.7117   -1.7373   19.8907 H   0  0  0  0  0  0  0  0  0  0  0  0
    8.3820   -2.4141   21.5007 H   0  0  0  0  0  0  0  0  0  0  0  0
    7.1355   -2.5171   20.2373 H   0  0  0  0  0  0  0  0  0  0  0  0
  1  2  1  0
  2  3  1  0
  3  4  1  0
  3  5  1  0
  3  6  1  0
  2  7  1  0
  7  8  1  0
  8  9  1  0
  9 10  2  0
 10 11  1  0
 11 12  1  0
 10 13  1  0
 13 14  1  0
 13 15  2  0
 15 16  1  0
 16 17  2  0
 17 18  1  0
 16 19  1  0
 15 20  1  0
  8 21  1  0
  8 22  1  0
  7 23  1  0
  7 24  1  0
  2 25  1  0
 25 26  2  0
 26 27  1  0
 27 28  2  0
 28 29  1  0
 29 30  2  0
 30 31  1  0
 28 32  1  0
 27 33  1  0
 26 34  1  0
  1 35  1  0
  1 36  1  0
  1 37  1  0
 17  9  1  0
 30 25  1  0
M  CHG  1   7   1
M  END
>  <plip>  (1) 
-0.10344827586206896

>  <filename>  (1) 
[H][O][c]1[c]([Br])[c]([H])[c]([H])[c]([F])[c]1[C]([H])([H])[N+]([H])([H])[C]([c]1[c]([H])[n][c]([H])[c]([H])[c]1[H])([C]([H])([H])[H])[C]([H])([H])[H]

$$$$
