
     RDKit          3D

 51 54  0  0  0  0  0  0  0  0999 V2000
    6.3627   -5.0151   20.6394 C   0  0  0  0  0  0  0  0  0  0  0  0
    6.3449   -4.2514   21.9186 C   0  0  0  0  0  0  0  0  0  0  0  0
    5.3491   -4.4344   22.7708 N   0  0  0  0  0  0  0  0  0  0  0  0
    5.6361   -3.6630   23.8380 N   0  0  0  0  0  0  0  0  0  0  0  0
    4.8154   -3.6601   24.9890 C   0  0  0  0  0  0  0  0  0  0  0  0
    4.1648   -4.8184   25.4458 C   0  0  0  0  0  0  0  0  0  0  0  0
    3.3955   -4.7704   26.6095 C   0  0  0  0  0  0  0  0  0  0  0  0
    3.2556   -3.5769   27.3262 C   0  0  0  0  0  0  0  0  0  0  0  0
    3.9039   -2.4219   26.8861 C   0  0  0  0  0  0  0  0  0  0  0  0
    4.6715   -2.4812   25.7348 C   0  0  0  0  0  0  0  0  0  0  0  0
    5.3113   -1.3622   25.3333 F   0  0  0  0  0  0  0  0  0  0  0  0
    3.8395   -1.4732   27.4086 H   0  0  0  0  0  0  0  0  0  0  0  0
    2.6492   -3.5408   28.2266 H   0  0  0  0  0  0  0  0  0  0  0  0
    2.9022   -5.6711   26.9599 H   0  0  0  0  0  0  0  0  0  0  0  0
    4.2738   -5.7442   24.8826 H   0  0  0  0  0  0  0  0  0  0  0  0
    6.8251   -3.0110   23.6697 C   0  0  0  0  0  0  0  0  0  0  0  0
    7.3114   -3.3580   22.4358 C   0  0  0  0  0  0  0  0  0  0  0  0
    8.4996   -2.8642   21.6751 C   0  0  0  0  0  0  0  0  0  0  0  0
    8.0213   -1.9266   20.6388 N   0  0  0  0  0  4  0  0  0  0  0  0
    7.3632   -0.6363   21.1203 C   0  0  0  0  0  0  0  0  0  0  0  0
    6.6555   -0.0386   19.9247 C   0  0  0  0  0  0  0  0  0  0  0  0
    5.4493    0.6605   20.1372 C   0  0  0  0  0  0  0  0  0  0  0  0
    4.8388    1.2993   19.0580 C   0  0  0  0  0  0  0  0  0  0  0  0
    5.4473    1.2412   17.8017 C   0  0  0  0  0  0  0  0  0  0  0  0
    6.5741    0.5555   17.5673 N   0  0  0  0  0  0  0  0  0  0  0  0
    7.1475   -0.0697   18.6072 C   0  0  0  0  0  0  0  0  0  0  0  0
    8.0699   -0.5943   18.3516 H   0  0  0  0  0  0  0  0  0  0  0  0
    5.0186    1.7763   16.9532 H   0  0  0  0  0  0  0  0  0  0  0  0
    3.9135    1.8474   19.1780 H   0  0  0  0  0  0  0  0  0  0  0  0
    5.0146    0.7203   21.1383 H   0  0  0  0  0  0  0  0  0  0  0  0
    8.3593    0.2743   21.8976 C   0  0  0  0  0  0  0  0  0  0  0  0
    9.5822    0.7652   21.1079 C   0  0  0  0  0  0  0  0  0  0  0  0
    9.8441    2.1435   21.7132 C   0  0  0  0  0  0  0  0  0  0  0  0
    8.4266    2.6057   22.0614 C   0  0  0  0  0  0  0  0  0  0  0  0
    7.6983    1.4281   22.4000 O   0  0  0  0  0  0  0  0  0  0  0  0
    7.9383    3.0924   21.2075 H   0  0  0  0  0  0  0  0  0  0  0  0
    8.4013    3.2928   22.9152 H   0  0  0  0  0  0  0  0  0  0  0  0
   10.4592    2.0852   22.6192 H   0  0  0  0  0  0  0  0  0  0  0  0
   10.3519    2.8074   21.0108 H   0  0  0  0  0  0  0  0  0  0  0  0
   10.4262    0.0725   21.1916 H   0  0  0  0  0  0  0  0  0  0  0  0
    9.3275    0.8656   20.0459 H   0  0  0  0  0  0  0  0  0  0  0  0
    8.6894   -0.3218   22.7579 H   0  0  0  0  0  0  0  0  0  0  0  0
    6.6052   -0.8968   21.8658 H   0  0  0  0  0  0  0  0  0  0  0  0
    8.7533   -1.6644   19.9598 H   0  0  0  0  0  0  0  0  0  0  0  0
    7.2571   -2.4331   20.1398 H   0  0  0  0  0  0  0  0  0  0  0  0
    9.0415   -3.6989   21.2182 H   0  0  0  0  0  0  0  0  0  0  0  0
    9.2029   -2.3695   22.3543 H   0  0  0  0  0  0  0  0  0  0  0  0
    7.1738   -2.3428   24.4472 H   0  0  0  0  0  0  0  0  0  0  0  0
    7.3816   -5.3028   20.3631 H   0  0  0  0  0  0  0  0  0  0  0  0
    5.7531   -5.9169   20.7552 H   0  0  0  0  0  0  0  0  0  0  0  0
    5.9467   -4.4224   19.8172 H   0  0  0  0  0  0  0  0  0  0  0  0
  1  2  1  0
  2  3  2  0
  3  4  1  0
  4  5  1  0
  5  6  2  0
  6  7  1  0
  7  8  2  0
  8  9  1  0
  9 10  2  0
 10 11  1  0
  9 12  1  0
  8 13  1  0
  7 14  1  0
  6 15  1  0
  4 16  1  0
 16 17  2  0
 17 18  1  0
 18 19  1  0
 19 20  1  0
 20 21  1  0
 21 22  2  0
 22 23  1  0
 23 24  2  0
 24 25  1  0
 25 26  2  0
 26 27  1  0
 24 28  1  0
 23 29  1  0
 22 30  1  0
 20 31  1  0
 31 32  1  0
 32 33  1  0
 33 34  1  0
 34 35  1  0
 34 36  1  0
 34 37  1  0
 33 38  1  0
 33 39  1  0
 32 40  1  0
 32 41  1  0
 31 42  1  0
 20 43  1  0
 19 44  1  0
 19 45  1  0
 18 46  1  0
 18 47  1  0
 16 48  1  0
  1 49  1  0
  1 50  1  0
  1 51  1  0
 17  2  1  0
 26 21  1  0
 35 31  1  0
 10  5  1  0
M  CHG  1  19   1
M  END
>  <plip>  (1) 
-0.1

>  <filename>  (1) 
[H][c]1[n][c]([H])[c]([C]([H])([C]2([H])[O][C]([H])([H])[C]([H])([H])[C]2([H])[H])[N+]([H])([H])[C]([H])([H])[c]2[c]([C]([H])([H])[H])[n][n](-[c]3[c]([H])[c]([H])[c]([H])[c]([H])[c]3[F])[c]2[H])[c]([H])[c]1[H]

$$$$
