
     RDKit          3D

 20 21  0  0  0  0  0  0  0  0999 V2000
    4.9267    1.8351   16.9821 H   0  0  0  0  0  0  0  0  0  0  0  0
    5.3774    1.2906   17.8108 C   0  0  0  0  0  0  0  0  0  0  0  0
    6.5204    0.6497   17.5302 N   0  0  0  0  0  0  0  0  0  0  0  0
    7.1347    0.0093   18.5289 C   0  0  0  0  0  0  0  0  0  0  0  0
    8.0903   -0.4542   18.2901 H   0  0  0  0  0  0  0  0  0  0  0  0
    6.6405   -0.0378   19.8462 C   0  0  0  0  0  0  0  0  0  0  0  0
    7.6158   -0.8095   21.1386 S   0  0  0  0  0  0  0  0  0  0  0  0
    8.4488    0.6281   21.7712 C   0  0  0  0  0  0  0  0  0  0  0  0
    8.0341    1.4960   22.6316 N   0  0  0  0  0  0  0  0  0  0  0  0
    9.0141    2.4839   22.6863 N   0  0  0  0  0  0  0  0  0  0  0  0
    9.9475    2.1258   21.8725 C   0  0  0  0  0  0  0  0  0  0  0  0
   11.2735    2.7495   21.6229 C   0  0  0  0  0  0  0  0  0  0  0  0
   11.2276    3.8040   21.8940 H   0  0  0  0  0  0  0  0  0  0  0  0
   12.0338    2.2317   22.2197 H   0  0  0  0  0  0  0  0  0  0  0  0
   11.5512    2.6562   20.5737 H   0  0  0  0  0  0  0  0  0  0  0  0
    9.6629    0.9505   21.2541 O   0  0  0  0  0  0  0  0  0  0  0  0
    5.4341    0.6186   20.1237 C   0  0  0  0  0  0  0  0  0  0  0  0
    5.0313    0.6374   21.1376 H   0  0  0  0  0  0  0  0  0  0  0  0
    4.7907    1.2920   19.0806 C   0  0  0  0  0  0  0  0  0  0  0  0
    3.8740    1.8491   19.2381 H   0  0  0  0  0  0  0  0  0  0  0  0
  1  2  1  0
  2  3  2  0
  3  4  1  0
  4  5  1  0
  4  6  2  0
  6  7  1  0
  7  8  1  0
  8  9  2  0
  9 10  1  0
 10 11  2  0
 11 12  1  0
 12 13  1  0
 12 14  1  0
 12 15  1  0
 11 16  1  0
  6 17  1  0
 17 18  1  0
 17 19  2  0
 19 20  1  0
 19  2  1  0
 16  8  1  0
M  END
>  <plip>  (1) 
-0.07142857142857142

>  <filename>  (1) 
[H][c]1[n][c]([H])[c]([S][c]2[n][n][c]([C]([H])([H])[H])[o]2)[c]([H])[c]1[H]

$$$$
