
     RDKit          3D

 38 40  0  0  0  0  0  0  0  0999 V2000
    7.9853    1.4084   22.3387 C   0  0  0  0  0  0  0  0  0  0  0  0
    8.5202    0.1813   21.6107 C   0  0  0  0  0  0  0  0  0  0  0  0
    7.4083   -0.6971   20.9894 C   0  0  0  0  0  0  0  0  0  0  0  0
    6.6325   -0.0241   19.8741 C   0  0  0  0  0  0  0  0  0  0  0  0
    5.4212    0.6452   20.1142 C   0  0  0  0  0  0  0  0  0  0  0  0
    4.7828    1.3179   19.0670 C   0  0  0  0  0  0  0  0  0  0  0  0
    5.3867    1.3090   17.8065 C   0  0  0  0  0  0  0  0  0  0  0  0
    6.5434    0.6799   17.5444 N   0  0  0  0  0  0  0  0  0  0  0  0
    7.1387    0.0429   18.5604 C   0  0  0  0  0  0  0  0  0  0  0  0
    8.0914   -0.4300   18.3168 H   0  0  0  0  0  0  0  0  0  0  0  0
    4.9266    1.8320   16.9702 H   0  0  0  0  0  0  0  0  0  0  0  0
    3.8533    1.8633   19.2179 H   0  0  0  0  0  0  0  0  0  0  0  0
    4.9980    0.6627   21.1210 H   0  0  0  0  0  0  0  0  0  0  0  0
    7.8932   -1.6108   20.6243 H   0  0  0  0  0  0  0  0  0  0  0  0
    6.7448   -1.0157   21.8031 H   0  0  0  0  0  0  0  0  0  0  0  0
    9.3586   -0.6172   22.4976 N   0  0  0  0  0  0  0  0  0  0  0  0
    8.9348   -1.2333   23.6193 C   0  0  0  0  0  0  0  0  0  0  0  0
    7.7405   -1.1791   24.1112 N   0  0  0  0  0  0  0  0  0  0  0  0
    7.6677   -1.9304   25.2787 C   0  0  0  0  0  0  0  0  0  0  0  0
    6.5130   -2.1056   26.0471 C   0  0  0  0  0  0  0  0  0  0  0  0
    6.5516   -2.9201   27.1930 C   0  0  0  0  0  0  0  0  0  0  0  0
    5.2812   -3.0883   27.9891 C   0  0  0  0  0  0  0  0  0  0  0  0
    4.1827   -2.8324   27.5342 O   0  0  0  0  0  0  0  0  0  0  0  0
    5.3411   -3.5780   29.2768 N   0  0  0  0  0  0  0  0  0  0  0  0
    4.4392   -3.4063   29.6869 H   0  0  0  0  0  0  0  0  0  0  0  0
    6.1110   -3.2932   29.8632 H   0  0  0  0  0  0  0  0  0  0  0  0
    7.7643   -3.5790   27.5310 C   0  0  0  0  0  0  0  0  0  0  0  0
    8.9302   -3.3802   26.8014 C   0  0  0  0  0  0  0  0  0  0  0  0
    8.8659   -2.5694   25.6701 C   0  0  0  0  0  0  0  0  0  0  0  0
   10.1176   -2.2188   24.5064 S   0  0  0  0  0  0  0  0  0  0  0  0
    9.8609   -3.8581   27.1020 H   0  0  0  0  0  0  0  0  0  0  0  0
    7.8071   -4.2650   28.3731 H   0  0  0  0  0  0  0  0  0  0  0  0
    5.6098   -1.6037   25.7037 H   0  0  0  0  0  0  0  0  0  0  0  0
   10.3239   -0.7638   22.2749 H   0  0  0  0  0  0  0  0  0  0  0  0
    9.1797    0.5148   20.7949 H   0  0  0  0  0  0  0  0  0  0  0  0
    7.2818    1.1096   23.1203 H   0  0  0  0  0  0  0  0  0  0  0  0
    7.4804    2.0950   21.6537 H   0  0  0  0  0  0  0  0  0  0  0  0
    8.8096    1.9405   22.8184 H   0  0  0  0  0  0  0  0  0  0  0  0
  1  2  1  0
  2  3  1  0
  3  4  1  0
  4  5  2  0
  5  6  1  0
  6  7  2  0
  7  8  1  0
  8  9  2  0
  9 10  1  0
  7 11  1  0
  6 12  1  0
  5 13  1  0
  3 14  1  0
  3 15  1  0
  2 16  1  0
 16 17  1  0
 17 18  2  0
 18 19  1  0
 19 20  2  0
 20 21  1  0
 21 22  1  0
 22 23  2  0
 22 24  1  0
 24 25  1  0
 24 26  1  0
 21 27  2  0
 27 28  1  0
 28 29  2  0
 29 30  1  0
 28 31  1  0
 27 32  1  0
 20 33  1  0
 16 34  1  0
  2 35  1  0
  1 36  1  0
  1 37  1  0
  1 38  1  0
  9  4  1  0
 30 17  1  0
 29 19  1  0
M  END
>  <plip>  (1) 
-0.0

>  <filename>  (1) 
[H][c]1[n][c]([H])[c]([C]([H])([H])[C]([H])([N]([H])[c]2[n][c]3[c]([H])[c]([C](=[O])[N]([H])[H])[c]([H])[c]([H])[c]3[s]2)[C]([H])([H])[H])[c]([H])[c]1[H]

$$$$
