
     RDKit          3D

 42 43  0  0  0  0  0  0  0  0999 V2000
    7.1206   -6.0926   26.3122 C   0  0  0  0  0  0  0  0  0  0  0  0
    6.5222   -5.0097   25.4483 C   0  0  0  0  0  0  0  0  0  0  0  0
    7.2090   -4.2967   24.4723 C   0  0  0  0  0  0  0  0  0  0  0  0
    8.6532   -4.3903   24.1041 C   0  0  0  0  0  0  0  0  0  0  0  0
    9.4007   -5.1976   24.8671 F   0  0  0  0  0  0  0  0  0  0  0  0
    9.2716   -3.1902   24.1268 F   0  0  0  0  0  0  0  0  0  0  0  0
    8.7678   -4.8700   22.8316 F   0  0  0  0  0  0  0  0  0  0  0  0
    6.4704   -3.3616   23.6895 C   0  0  0  0  0  0  0  0  0  0  0  0
    7.0887   -2.7139   22.6607 N   0  0  0  0  0  0  0  0  0  0  0  0
    6.4978   -1.5301   22.0541 C   0  0  0  0  0  0  0  0  0  0  0  0
    7.3966   -0.8382   21.0104 C   0  0  0  0  0  0  0  0  0  0  0  0
    6.6578   -0.0814   19.9318 C   0  0  0  0  0  0  0  0  0  0  0  0
    5.4353    0.5738   20.1406 C   0  0  0  0  0  0  0  0  0  0  0  0
    4.8604    1.2718   19.0775 C   0  0  0  0  0  0  0  0  0  0  0  0
    5.5314    1.2976   17.8506 C   0  0  0  0  0  0  0  0  0  0  0  0
    6.7083    0.6883   17.6375 N   0  0  0  0  0  0  0  0  0  0  0  0
    7.2557    0.0377   18.6683 C   0  0  0  0  0  0  0  0  0  0  0  0
    8.2216   -0.4315   18.4728 H   0  0  0  0  0  0  0  0  0  0  0  0
    5.1100    1.8292   17.0013 H   0  0  0  0  0  0  0  0  0  0  0  0
    3.9219    1.8044   19.1879 H   0  0  0  0  0  0  0  0  0  0  0  0
    4.9645    0.5610   21.1298 H   0  0  0  0  0  0  0  0  0  0  0  0
    8.4488    0.1760   21.5755 N   0  0  0  0  0  4  0  0  0  0  0  0
    7.8614    1.3499   22.3232 C   0  0  0  0  0  0  0  0  0  0  0  0
    7.1665    1.9059   21.6908 H   0  0  0  0  0  0  0  0  0  0  0  0
    8.6632    2.0244   22.6488 H   0  0  0  0  0  0  0  0  0  0  0  0
    7.3220    1.0115   23.2153 H   0  0  0  0  0  0  0  0  0  0  0  0
    9.5024   -0.4462   22.4301 C   0  0  0  0  0  0  0  0  0  0  0  0
    9.0794   -0.7765   23.3852 H   0  0  0  0  0  0  0  0  0  0  0  0
    9.9467   -1.3187   21.9427 H   0  0  0  0  0  0  0  0  0  0  0  0
   10.2960    0.2829   22.6377 H   0  0  0  0  0  0  0  0  0  0  0  0
    8.8713    0.5530   20.6979 H   0  0  0  0  0  0  0  0  0  0  0  0
    7.9943   -1.6336   20.5463 H   0  0  0  0  0  0  0  0  0  0  0  0
    6.2447   -0.8260   22.8560 H   0  0  0  0  0  0  0  0  0  0  0  0
    5.5386   -1.7829   21.5833 H   0  0  0  0  0  0  0  0  0  0  0  0
    7.7945   -3.2492   22.1884 H   0  0  0  0  0  0  0  0  0  0  0  0
    5.1925   -3.0982   23.9474 N   0  0  0  0  0  0  0  0  0  0  0  0
    4.5259   -3.7544   24.9106 N   0  0  0  0  0  0  0  0  0  0  0  0
    5.1489   -4.6742   25.6277 C   0  0  0  0  0  0  0  0  0  0  0  0
    4.5370   -5.1834   26.3640 H   0  0  0  0  0  0  0  0  0  0  0  0
    7.9586   -6.5869   25.8314 H   0  0  0  0  0  0  0  0  0  0  0  0
    6.3733   -6.8595   26.5402 H   0  0  0  0  0  0  0  0  0  0  0  0
    7.4643   -5.7046   27.2750 H   0  0  0  0  0  0  0  0  0  0  0  0
  1  2  1  0
  2  3  2  0
  3  4  1  0
  4  5  1  0
  4  6  1  0
  4  7  1  0
  3  8  1  0
  8  9  1  0
  9 10  1  0
 10 11  1  0
 11 12  1  0
 12 13  2  0
 13 14  1  0
 14 15  2  0
 15 16  1  0
 16 17  2  0
 17 18  1  0
 15 19  1  0
 14 20  1  0
 13 21  1  0
 11 22  1  0
 22 23  1  0
 23 24  1  0
 23 25  1  0
 23 26  1  0
 22 27  1  0
 27 28  1  0
 27 29  1  0
 27 30  1  0
 22 31  1  0
 11 32  1  0
 10 33  1  0
 10 34  1  0
  9 35  1  0
  8 36  2  0
 36 37  1  0
 37 38  2  0
 38 39  1  0
  1 40  1  0
  1 41  1  0
  1 42  1  0
 38  2  1  0
 17 12  1  0
M  CHG  1  22   1
M  END
>  <plip>  (1) 
-0.10344827586206896

>  <filename>  (1) 
[H][c]1[n][c]([H])[c]([C]([H])([C]([H])([H])[N]([H])[c]2[n][n][c]([H])[c]([C]([H])([H])[H])[c]2[C]([F])([F])[F])[N+]([H])([C]([H])([H])[H])[C]([H])([H])[H])[c]([H])[c]1[H]

$$$$
