
     RDKit          3D

 20 21  0  0  0  0  0  0  0  0999 V2000
    4.9281    1.8036   16.9853 H   0  0  0  0  0  0  0  0  0  0  0  0
    5.3950    1.2953   17.8302 C   0  0  0  0  0  0  0  0  0  0  0  0
    6.5580    0.6740   17.5715 N   0  0  0  0  0  0  0  0  0  0  0  0
    7.1589    0.0505   18.5977 C   0  0  0  0  0  0  0  0  0  0  0  0
    8.1112   -0.4281   18.3644 H   0  0  0  0  0  0  0  0  0  0  0  0
    6.6451   -0.0155   19.9074 C   0  0  0  0  0  0  0  0  0  0  0  0
    7.3687   -0.7169   21.0184 C   0  0  0  0  0  0  0  0  0  0  0  0
    6.9143   -2.1620   21.3059 N   0  0  0  0  0  4  0  0  0  0  0  0
    5.8215   -2.3049   21.8246 O   0  0  0  0  0  0  0  0  0  0  0  0
    7.6672   -3.0771   21.0230 O   0  0  0  0  0  1  0  0  0  0  0  0
    7.7295    0.0200   22.2807 C   0  0  0  0  0  0  0  0  0  0  0  0
    7.6353   -0.5460   23.2037 H   0  0  0  0  0  0  0  0  0  0  0  0
    7.4189    1.0597   22.3699 H   0  0  0  0  0  0  0  0  0  0  0  0
    8.8079   -0.3788   21.2994 C   0  0  0  0  0  0  0  0  0  0  0  0
    9.4961   -1.1859   21.5398 H   0  0  0  0  0  0  0  0  0  0  0  0
    9.2681    0.4078   20.7019 H   0  0  0  0  0  0  0  0  0  0  0  0
    5.4300    0.6388   20.1448 C   0  0  0  0  0  0  0  0  0  0  0  0
    5.0158    0.6150   21.1546 H   0  0  0  0  0  0  0  0  0  0  0  0
    4.7954    1.3054   19.0939 C   0  0  0  0  0  0  0  0  0  0  0  0
    3.8677    1.8448   19.2399 H   0  0  0  0  0  0  0  0  0  0  0  0
  1  2  1  0
  2  3  2  0
  3  4  1  0
  4  5  1  0
  4  6  2  0
  6  7  1  0
  7  8  1  0
  8  9  2  0
  8 10  1  0
  7 11  1  0
 11 12  1  0
 11 13  1  0
 11 14  1  0
 14 15  1  0
 14 16  1  0
  6 17  1  0
 17 18  1  0
 17 19  2  0
 19 20  1  0
 19  2  1  0
 14  7  1  0
M  CHG  2   8   1  10  -1
M  END
>  <plip>  (1) 
-0.0

>  <filename>  (1) 
[H][c]1[n][c]([H])[c]([C]2([N+](=[O])[O-])[C]([H])([H])[C]2([H])[H])[c]([H])[c]1[H]

$$$$
