
     RDKit          3D

 50 53  0  0  0  0  0  0  0  0999 V2000
    6.3110   -2.9258   19.8622 O   0  0  0  0  0  0  0  0  0  0  0  0
    6.0599   -2.8249   21.0542 C   0  0  0  0  0  0  0  0  0  0  0  0
    6.4773   -1.6572   21.6664 N   0  0  0  0  0  0  0  0  0  0  0  0
    7.3830   -0.7130   21.0219 C   0  0  0  0  0  0  0  0  0  0  0  0
    6.6333   -0.0045   19.9220 C   0  0  0  0  0  0  0  0  0  0  0  0
    5.4231    0.6564   20.1594 C   0  0  0  0  0  0  0  0  0  0  0  0
    4.8110    1.3041   19.0899 C   0  0  0  0  0  0  0  0  0  0  0  0
    5.4210    1.2870   17.8314 C   0  0  0  0  0  0  0  0  0  0  0  0
    6.5798    0.6440   17.5971 N   0  0  0  0  0  0  0  0  0  0  0  0
    7.1666    0.0079   18.6244 C   0  0  0  0  0  0  0  0  0  0  0  0
    8.1135   -0.4930   18.4354 H   0  0  0  0  0  0  0  0  0  0  0  0
    4.9360    1.8148   17.0177 H   0  0  0  0  0  0  0  0  0  0  0  0
    3.8808    1.8425   19.2266 H   0  0  0  0  0  0  0  0  0  0  0  0
    4.9887    0.6762   21.1585 H   0  0  0  0  0  0  0  0  0  0  0  0
    7.9327    0.2766   22.0678 C   0  0  0  0  0  0  0  0  0  0  0  0
    8.7060   -0.4812   23.1639 C   0  0  0  0  0  0  0  0  0  0  0  0
    9.2675    0.4767   24.2150 C   0  0  0  0  0  0  0  0  0  0  0  0
   10.1728    1.5259   23.5688 C   0  0  0  0  0  0  0  0  0  0  0  0
    9.4255    2.2858   22.4701 C   0  0  0  0  0  0  0  0  0  0  0  0
    8.8537    1.3282   21.4202 C   0  0  0  0  0  0  0  0  0  0  0  0
    9.6770    0.8282   20.9021 H   0  0  0  0  0  0  0  0  0  0  0  0
    8.2946    1.8980   20.6727 H   0  0  0  0  0  0  0  0  0  0  0  0
   10.1018    2.9981   21.9903 H   0  0  0  0  0  0  0  0  0  0  0  0
    8.6089    2.8573   22.9195 H   0  0  0  0  0  0  0  0  0  0  0  0
   11.0504    1.0348   23.1393 H   0  0  0  0  0  0  0  0  0  0  0  0
   10.5264    2.2263   24.3295 H   0  0  0  0  0  0  0  0  0  0  0  0
    8.4414    0.9770   24.7276 H   0  0  0  0  0  0  0  0  0  0  0  0
    9.8306   -0.0864   24.9648 H   0  0  0  0  0  0  0  0  0  0  0  0
    8.0452   -1.2044   23.6495 H   0  0  0  0  0  0  0  0  0  0  0  0
    9.5298   -1.0430   22.7130 H   0  0  0  0  0  0  0  0  0  0  0  0
    7.0847    0.7941   22.5299 H   0  0  0  0  0  0  0  0  0  0  0  0
    8.2308   -1.2738   20.6032 H   0  0  0  0  0  0  0  0  0  0  0  0
    6.0014   -1.3675   22.5142 H   0  0  0  0  0  0  0  0  0  0  0  0
    5.2853   -3.8886   21.7485 C   0  0  0  0  0  0  0  0  0  0  0  0
    4.6547   -3.8238   22.9541 C   0  0  0  0  0  0  0  0  0  0  0  0
    3.9591   -5.0072   23.0470 N   0  0  0  0  0  0  0  0  0  0  0  0
    3.1255   -5.3412   24.1080 C   0  0  0  0  0  0  0  0  0  0  0  0
    3.4945   -4.9398   25.3976 C   0  0  0  0  0  0  0  0  0  0  0  0
    2.7272   -5.3041   26.5013 C   0  0  0  0  0  0  0  0  0  0  0  0
    1.5593   -6.0580   26.3155 C   0  0  0  0  0  0  0  0  0  0  0  0
    1.1679   -6.4424   25.0215 C   0  0  0  0  0  0  0  0  0  0  0  0
    1.9526   -6.0901   23.9152 C   0  0  0  0  0  0  0  0  0  0  0  0
    1.4150   -6.6102   22.1502 Br  0  0  0  0  0  0  0  0  0  0  0  0
    0.2525   -7.0139   24.8726 H   0  0  0  0  0  0  0  0  0  0  0  0
    0.9625   -6.3348   27.1786 H   0  0  0  0  0  0  0  0  0  0  0  0
    3.0516   -5.0017   27.4959 H   0  0  0  0  0  0  0  0  0  0  0  0
    4.4121   -4.3706   25.5259 H   0  0  0  0  0  0  0  0  0  0  0  0
    4.2153   -5.7875   21.9666 N   0  0  0  0  0  0  0  0  0  0  0  0
    5.0285   -5.1478   21.2056 N   0  0  0  0  0  0  0  0  0  0  0  0
    4.6179   -3.0082   23.6721 H   0  0  0  0  0  0  0  0  0  0  0  0
  1  2  2  0
  2  3  1  0
  3  4  1  0
  4  5  1  0
  5  6  2  0
  6  7  1  0
  7  8  2  0
  8  9  1  0
  9 10  2  0
 10 11  1  0
  8 12  1  0
  7 13  1  0
  6 14  1  0
  4 15  1  0
 15 16  1  0
 16 17  1  0
 17 18  1  0
 18 19  1  0
 19 20  1  0
 20 21  1  0
 20 22  1  0
 19 23  1  0
 19 24  1  0
 18 25  1  0
 18 26  1  0
 17 27  1  0
 17 28  1  0
 16 29  1  0
 16 30  1  0
 15 31  1  0
  4 32  1  0
  3 33  1  0
  2 34  1  0
 34 35  2  0
 35 36  1  0
 36 37  1  0
 37 38  2  0
 38 39  1  0
 39 40  2  0
 40 41  1  0
 41 42  2  0
 42 43  1  0
 41 44  1  0
 40 45  1  0
 39 46  1  0
 38 47  1  0
 36 48  1  0
 48 49  2  0
 35 50  1  0
 10  5  1  0
 20 15  1  0
 49 34  1  0
 42 37  1  0
M  END
>  <plip>  (1) 
-0.10714285714285714

>  <filename>  (1) 
[H][c]1[n][c]([H])[c]([C]([H])([N]([H])[C](=[O])[c]2[n][n][n](-[c]3[c]([H])[c]([H])[c]([H])[c]([H])[c]3[Br])[c]2[H])[C]2([H])[C]([H])([H])[C]([H])([H])[C]([H])([H])[C]([H])([H])[C]2([H])[H])[c]([H])[c]1[H]

$$$$
