
     RDKit          3D

 29 31  0  0  0  0  0  0  0  0999 V2000
    6.9026   -6.1629   22.3724 O   0  0  0  0  0  0  0  0  0  0  0  0
    7.5722   -5.2118   22.6614 C   0  0  0  0  0  0  0  0  0  0  0  0
    8.3084   -4.9945   23.7944 N   0  0  0  0  0  0  0  0  0  0  0  0
    8.9442   -3.7701   23.7447 C   0  0  0  0  0  0  0  0  0  0  0  0
    8.5792   -3.2187   22.5182 C   0  0  0  0  0  0  0  0  0  0  0  0
    7.7525   -4.0991   21.8586 O   0  0  0  0  0  0  0  0  0  0  0  0
    9.0285   -1.9635   22.1171 C   0  0  0  0  0  0  0  0  0  0  0  0
    8.5909   -1.3393   20.8229 C   0  0  0  0  0  0  0  0  0  0  0  0
    7.3189   -0.6623   20.9611 N   0  0  0  0  0  0  0  0  0  0  0  0
    6.6745   -0.0044   19.9239 C   0  0  0  0  0  0  0  0  0  0  0  0
    5.4478    0.6452   20.1688 C   0  0  0  0  0  0  0  0  0  0  0  0
    4.8150    1.3040   19.1133 C   0  0  0  0  0  0  0  0  0  0  0  0
    5.3992    1.2938   17.8381 C   0  0  0  0  0  0  0  0  0  0  0  0
    6.5643    0.6816   17.5750 N   0  0  0  0  0  0  0  0  0  0  0  0
    7.1788    0.0610   18.5937 C   0  0  0  0  0  0  0  0  0  0  0  0
    8.1239   -0.4260   18.3642 H   0  0  0  0  0  0  0  0  0  0  0  0
    4.9094    1.7803   16.9977 H   0  0  0  0  0  0  0  0  0  0  0  0
    3.8810    1.8376   19.2656 H   0  0  0  0  0  0  0  0  0  0  0  0
    5.0120    0.6260   21.1707 H   0  0  0  0  0  0  0  0  0  0  0  0
    6.8739   -0.6463   21.8673 H   0  0  0  0  0  0  0  0  0  0  0  0
    9.3639   -0.6545   20.4441 H   0  0  0  0  0  0  0  0  0  0  0  0
    8.4904   -2.1069   20.0668 H   0  0  0  0  0  0  0  0  0  0  0  0
    9.8694   -1.2828   23.0149 C   0  0  0  0  0  0  0  0  0  0  0  0
   10.2295   -1.8407   24.2546 C   0  0  0  0  0  0  0  0  0  0  0  0
    9.7686   -3.1097   24.6379 C   0  0  0  0  0  0  0  0  0  0  0  0
   10.0213   -3.5805   25.5836 H   0  0  0  0  0  0  0  0  0  0  0  0
   10.8690   -1.2844   24.9292 H   0  0  0  0  0  0  0  0  0  0  0  0
   10.2346   -0.2932   22.7495 H   0  0  0  0  0  0  0  0  0  0  0  0
    8.3327   -5.6633   24.5352 H   0  0  0  0  0  0  0  0  0  0  0  0
  1  2  2  0
  2  3  1  0
  3  4  1  0
  4  5  2  0
  5  6  1  0
  5  7  1  0
  7  8  1  0
  8  9  1  0
  9 10  1  0
 10 11  2  0
 11 12  1  0
 12 13  2  0
 13 14  1  0
 14 15  2  0
 15 16  1  0
 13 17  1  0
 12 18  1  0
 11 19  1  0
  9 20  1  0
  8 21  1  0
  8 22  1  0
  7 23  2  0
 23 24  1  0
 24 25  2  0
 25 26  1  0
 24 27  1  0
 23 28  1  0
  3 29  1  0
  6  2  1  0
 15 10  1  0
 25  4  1  0
M  END
>  <plip>  (1) 
-0.06896551724137931

>  <filename>  (1) 
[H][c]1[n][c]([H])[c]([N]([H])[C]([H])([H])[c]2[c]([H])[c]([H])[c]([H])[c]3[c]2[o][c](=[O])[n]3[H])[c]([H])[c]1[H]

$$$$
