
     RDKit          3D

 35 37  0  0  0  0  0  0  0  0999 V2000
    4.9282    1.8504   16.9563 H   0  0  0  0  0  0  0  0  0  0  0  0
    5.3847    1.3362   17.8011 C   0  0  0  0  0  0  0  0  0  0  0  0
    6.5530    0.7225   17.5623 N   0  0  0  0  0  0  0  0  0  0  0  0
    7.1432    0.0976   18.5895 C   0  0  0  0  0  0  0  0  0  0  0  0
    8.0992   -0.3704   18.3649 H   0  0  0  0  0  0  0  0  0  0  0  0
    6.6126    0.0331   19.8930 C   0  0  0  0  0  0  0  0  0  0  0  0
    7.3627   -0.6599   21.0292 C   0  0  1  0  0  0  0  0  0  0  0  0
    6.7770   -0.5343   21.9558 H   0  0  0  0  0  0  0  0  0  0  0  0
    7.5871   -2.2027   20.9035 C   0  0  0  0  0  0  0  0  0  0  0  0
    6.7881   -3.0907   20.7583 O   0  0  0  0  0  0  0  0  0  0  0  0
    8.9285   -2.3830   21.0701 N   0  0  0  0  0  0  0  0  0  0  0  0
    9.4232   -3.2128   20.8084 H   0  0  0  0  0  0  0  0  0  0  0  0
    9.6291   -1.2169   21.2080 C   0  0  0  0  0  0  0  0  0  0  0  0
   10.8365   -1.1558   21.2913 O   0  0  0  0  0  0  0  0  0  0  0  0
    8.7406   -0.1886   21.1906 N   0  0  0  0  0  0  0  0  0  0  0  0
    9.2420    1.1472   21.4113 C   0  0  0  0  0  0  0  0  0  0  0  0
    9.8762    1.4247   20.5592 H   0  0  0  0  0  0  0  0  0  0  0  0
    8.4201    1.8719   21.4676 H   0  0  0  0  0  0  0  0  0  0  0  0
   10.0718    1.2022   22.5813 N   0  0  0  0  0  0  0  0  0  0  0  0
   10.8599    0.5913   22.3882 H   0  0  0  0  0  0  0  0  0  0  0  0
    9.5574    0.9016   23.8503 C   0  0  0  0  0  0  0  0  0  0  0  0
   10.4759    0.5560   24.8559 C   0  0  0  0  0  0  0  0  0  0  0  0
   11.5306    0.5189   24.6001 H   0  0  0  0  0  0  0  0  0  0  0  0
   10.0403    0.2823   26.1521 C   0  0  0  0  0  0  0  0  0  0  0  0
   10.7647    0.0459   26.9275 H   0  0  0  0  0  0  0  0  0  0  0  0
    8.6767    0.3309   26.4641 C   0  0  0  0  0  0  0  0  0  0  0  0
    8.3413    0.1341   27.4789 H   0  0  0  0  0  0  0  0  0  0  0  0
    7.7575    0.6572   25.4632 C   0  0  0  0  0  0  0  0  0  0  0  0
    6.6956    0.6959   25.6962 H   0  0  0  0  0  0  0  0  0  0  0  0
    8.1910    0.9476   24.1651 C   0  0  0  0  0  0  0  0  0  0  0  0
    7.4788    1.1921   23.3849 H   0  0  0  0  0  0  0  0  0  0  0  0
    5.3782    0.6673   20.1128 C   0  0  0  0  0  0  0  0  0  0  0  0
    4.9140    0.6807   21.1016 H   0  0  0  0  0  0  0  0  0  0  0  0
    4.7598    1.3344   19.0502 C   0  0  0  0  0  0  0  0  0  0  0  0
    3.8231    1.8671   19.1772 H   0  0  0  0  0  0  0  0  0  0  0  0
  1  2  1  0
  2  3  2  0
  3  4  1  0
  4  5  1  0
  4  6  2  0
  6  7  1  0
  7  8  1  1
  7  9  1  0
  9 10  2  0
  9 11  1  0
 11 12  1  0
 11 13  1  0
 13 14  2  0
 13 15  1  0
 15 16  1  0
 16 17  1  0
 16 18  1  0
 16 19  1  0
 19 20  1  0
 19 21  1  0
 21 22  2  0
 22 23  1  0
 22 24  1  0
 24 25  1  0
 24 26  2  0
 26 27  1  0
 26 28  1  0
 28 29  1  0
 28 30  2  0
 30 31  1  0
  6 32  1  0
 32 33  1  0
 32 34  2  0
 34 35  1  0
 34  2  1  0
 15  7  1  0
 30 21  1  0
M  END
>  <plip>  (1) 
-0.06451612903225806

>  <filename>  (1) 
[H][c]1[n][c]([H])[c]([C@@]2([H])[C](=[O])[N]([H])[C](=[O])[N]2[C]([H])([H])[N]([H])[c]2[c]([H])[c]([H])[c]([H])[c]([H])[c]2[H])[c]([H])[c]1[H]

$$$$
