
     RDKit          3D

 40 43  0  0  0  0  0  0  0  0999 V2000
    4.9996    1.8382   16.9623 H   0  0  0  0  0  0  0  0  0  0  0  0
    5.4365    1.3150   17.8134 C   0  0  0  0  0  0  0  0  0  0  0  0
    6.5821    0.6542   17.5794 N   0  0  0  0  0  0  0  0  0  0  0  0
    7.1472    0.0270   18.6149 C   0  0  0  0  0  0  0  0  0  0  0  0
    8.0489   -0.5391   18.3959 H   0  0  0  0  0  0  0  0  0  0  0  0
    6.6456    0.0472   19.9223 C   0  0  0  0  0  0  0  0  0  0  0  0
    7.4539   -0.6332   20.9418 C   0  0  0  0  0  0  0  0  0  0  0  0
    8.0332   -1.7943   20.7327 N   0  0  0  0  0  0  0  0  0  0  0  0
    8.6072   -2.1508   21.9239 C   0  0  0  0  0  0  0  0  0  0  0  0
    9.0947   -3.1077   22.0596 H   0  0  0  0  0  0  0  0  0  0  0  0
    8.4142   -1.1689   22.8530 C   0  0  0  0  0  0  0  0  0  0  0  0
    8.7234   -1.0958   23.8836 H   0  0  0  0  0  0  0  0  0  0  0  0
    7.6778   -0.1854   22.2144 N   0  0  0  0  0  0  0  0  0  0  0  0
    7.3158    1.1213   22.7333 C   0  0  0  0  0  0  0  0  0  0  0  0
    7.7712    1.2240   23.7336 H   0  0  0  0  0  0  0  0  0  0  0  0
    6.2257    1.1454   22.8665 H   0  0  0  0  0  0  0  0  0  0  0  0
    7.7334    2.1878   21.8309 N   0  0  0  0  0  0  0  0  0  0  0  0
    9.1919    2.3243   21.7001 C   0  0  0  0  0  0  0  0  0  0  0  0
    9.3612    2.8123   20.7299 H   0  0  0  0  0  0  0  0  0  0  0  0
    9.6535    1.3328   21.6092 H   0  0  0  0  0  0  0  0  0  0  0  0
    9.8869    3.1454   22.7939 C   0  0  0  0  0  0  0  0  0  0  0  0
   11.2889    3.1257   22.9063 C   0  0  0  0  0  0  0  0  0  0  0  0
   11.8774    2.4619   22.2683 H   0  0  0  0  0  0  0  0  0  0  0  0
   11.9422    3.9935   23.7860 C   0  0  0  0  0  0  0  0  0  0  0  0
   13.0302    4.0247   23.8189 H   0  0  0  0  0  0  0  0  0  0  0  0
   11.1961    4.8638   24.5888 C   0  0  0  0  0  0  0  0  0  0  0  0
   11.7147    5.5600   25.2422 H   0  0  0  0  0  0  0  0  0  0  0  0
    9.7981    4.8525   24.5217 C   0  0  0  0  0  0  0  0  0  0  0  0
    9.2168    5.4937   25.1850 H   0  0  0  0  0  0  0  0  0  0  0  0
    9.1283    4.0174   23.6128 C   0  0  0  0  0  0  0  0  0  0  0  0
    7.6062    4.0729   23.4847 C   0  0  0  0  0  0  0  0  0  0  0  0
    7.1326    3.5400   24.3231 H   0  0  0  0  0  0  0  0  0  0  0  0
    7.2725    5.1153   23.5505 H   0  0  0  0  0  0  0  0  0  0  0  0
    7.1269    3.4884   22.1437 C   0  0  0  0  0  0  0  0  0  0  0  0
    7.4251    4.1998   21.3607 H   0  0  0  0  0  0  0  0  0  0  0  0
    6.0318    3.4052   22.1007 H   0  0  0  0  0  0  0  0  0  0  0  0
    5.4186    0.6952   20.1436 C   0  0  0  0  0  0  0  0  0  0  0  0
    4.9404    0.6916   21.1247 H   0  0  0  0  0  0  0  0  0  0  0  0
    4.8078    1.3331   19.0638 C   0  0  0  0  0  0  0  0  0  0  0  0
    3.8649    1.8556   19.1782 H   0  0  0  0  0  0  0  0  0  0  0  0
  1  2  1  0
  2  3  2  0
  3  4  1  0
  4  5  1  0
  4  6  2  0
  6  7  1  0
  7  8  2  0
  8  9  1  0
  9 10  1  0
  9 11  2  0
 11 12  1  0
 11 13  1  0
 13 14  1  0
 14 15  1  0
 14 16  1  0
 14 17  1  0
 17 18  1  0
 18 19  1  0
 18 20  1  0
 18 21  1  0
 21 22  2  0
 22 23  1  0
 22 24  1  0
 24 25  1  0
 24 26  2  0
 26 27  1  0
 26 28  1  0
 28 29  1  0
 28 30  2  0
 30 31  1  0
 31 32  1  0
 31 33  1  0
 31 34  1  0
 34 35  1  0
 34 36  1  0
  6 37  1  0
 37 38  1  0
 37 39  2  0
 39 40  1  0
 39  2  1  0
 13  7  1  0
 34 17  1  0
 30 21  1  0
M  END
>  <plip>  (1) 
-0.13793103448275862

>  <filename>  (1) 
[H][c]1[n][c]([H])[c](-[c]2[n][c]([H])[c]([H])[n]2[C]([H])([H])[N]2[C]([H])([H])[c]3[c]([H])[c]([H])[c]([H])[c]([H])[c]3[C]([H])([H])[C]2([H])[H])[c]([H])[c]1[H]

$$$$
