
     RDKit          3D

 31 31  0  0  0  0  0  0  0  0999 V2000
    4.9093    1.8198   16.9568 H   0  0  0  0  0  0  0  0  0  0  0  0
    5.3802    1.3132   17.7993 C   0  0  0  0  0  0  0  0  0  0  0  0
    6.5437    0.7008   17.5361 N   0  0  0  0  0  0  0  0  0  0  0  0
    7.1601    0.0936   18.5589 C   0  0  0  0  0  0  0  0  0  0  0  0
    8.1067   -0.3934   18.3212 H   0  0  0  0  0  0  0  0  0  0  0  0
    6.6680    0.0416   19.8699 C   0  0  0  0  0  0  0  0  0  0  0  0
    7.4473   -0.6777   20.9451 C   0  0  2  0  0  0  0  0  0  0  0  0
    8.3295   -1.1624   20.5100 H   0  0  0  0  0  0  0  0  0  0  0  0
    6.4680   -2.1046   21.5580 S   0  0  0  0  0  0  0  0  0  0  0  0
    7.5443   -2.9127   22.4977 O   0  0  0  0  0  0  0  0  0  0  0  0
    7.3577   -2.7962   23.9815 C   0  0  0  0  0  0  0  0  0  0  0  0
    7.1912   -1.7374   24.2093 H   0  0  0  0  0  0  0  0  0  0  0  0
    6.4471   -3.3484   24.2478 H   0  0  0  0  0  0  0  0  0  0  0  0
    8.5824   -3.3642   24.6697 C   0  0  0  0  0  0  0  0  0  0  0  0
    8.7383   -4.3674   24.2423 H   0  0  0  0  0  0  0  0  0  0  0  0
    8.2602   -3.4791   26.1661 C   0  0  0  0  0  0  0  0  0  0  0  0
    8.0526   -2.4840   26.5857 H   0  0  0  0  0  0  0  0  0  0  0  0
    7.3655   -4.0960   26.3231 H   0  0  0  0  0  0  0  0  0  0  0  0
    9.0812   -3.9213   26.7417 H   0  0  0  0  0  0  0  0  0  0  0  0
    9.8479   -2.5283   24.4179 C   0  0  0  0  0  0  0  0  0  0  0  0
   10.7068   -2.9805   24.9255 H   0  0  0  0  0  0  0  0  0  0  0  0
   10.0960   -2.4637   23.3517 H   0  0  0  0  0  0  0  0  0  0  0  0
    9.7367   -1.5045   24.8051 H   0  0  0  0  0  0  0  0  0  0  0  0
    7.8760    0.2623   22.0761 C   0  0  0  0  0  0  0  0  0  0  0  0
    7.0008    0.6183   22.6294 H   0  0  0  0  0  0  0  0  0  0  0  0
    8.5316   -0.2519   22.7824 H   0  0  0  0  0  0  0  0  0  0  0  0
    8.4118    1.1337   21.6733 H   0  0  0  0  0  0  0  0  0  0  0  0
    5.4479    0.6812   20.1227 C   0  0  0  0  0  0  0  0  0  0  0  0
    5.0062    0.6588   21.1235 H   0  0  0  0  0  0  0  0  0  0  0  0
    4.7926    1.3237   19.0699 C   0  0  0  0  0  0  0  0  0  0  0  0
    3.8557    1.8479   19.2225 H   0  0  0  0  0  0  0  0  0  0  0  0
  1  2  1  0
  2  3  2  0
  3  4  1  0
  4  5  1  0
  4  6  2  0
  6  7  1  0
  7  8  1  6
  7  9  1  0
  9 10  1  0
 10 11  1  0
 11 12  1  0
 11 13  1  0
 11 14  1  0
 14 15  1  0
 14 16  1  0
 16 17  1  0
 16 18  1  0
 16 19  1  0
 14 20  1  0
 20 21  1  0
 20 22  1  0
 20 23  1  0
  7 24  1  0
 24 25  1  0
 24 26  1  0
 24 27  1  0
  6 28  1  0
 28 29  1  0
 28 30  2  0
 30 31  1  0
 30  2  1  0
M  END
>  <plip>  (1) 
-0.034482758620689655

>  <filename>  (1) 
[H][c]1[n][c]([H])[c]([C@]([H])([S][O][C]([H])([H])[C]([H])([C]([H])([H])[H])[C]([H])([H])[H])[C]([H])([H])[H])[c]([H])[c]1[H]

$$$$
