
     RDKit          3D

 25 26  0  0  0  0  0  0  0  0999 V2000
    4.9099    1.8609   16.9973 H   0  0  0  0  0  0  0  0  0  0  0  0
    5.3647    1.3070   17.8142 C   0  0  0  0  0  0  0  0  0  0  0  0
    6.5086    0.6618   17.5277 N   0  0  0  0  0  0  0  0  0  0  0  0
    7.1151    0.0126   18.5305 C   0  0  0  0  0  0  0  0  0  0  0  0
    8.0457   -0.4928   18.2820 H   0  0  0  0  0  0  0  0  0  0  0  0
    6.6164   -0.0284   19.8570 C   0  0  0  0  0  0  0  0  0  0  0  0
    7.3085   -0.6448   20.9471 N   0  0  0  0  0  0  0  0  0  0  0  0
    6.7537   -1.2155   21.5699 H   0  0  0  0  0  0  0  0  0  0  0  0
    8.5765   -0.3792   21.3586 C   0  0  0  0  0  0  0  0  0  0  0  0
    9.5044    0.8411   20.7534 S   0  0  0  0  0  0  0  0  0  0  0  0
    9.1500   -1.3239   22.3825 C   0  0  0  0  0  0  0  0  0  0  0  0
   10.3567   -1.9755   22.0498 C   0  0  0  0  0  0  0  0  0  0  0  0
   10.7907   -1.8256   21.0632 H   0  0  0  0  0  0  0  0  0  0  0  0
   11.0216   -2.7837   22.9666 C   0  0  0  0  0  0  0  0  0  0  0  0
   11.9879   -3.2054   22.6977 H   0  0  0  0  0  0  0  0  0  0  0  0
   10.4655   -2.9968   24.2335 C   0  0  0  0  0  0  0  0  0  0  0  0
   10.9365   -3.6503   24.9635 H   0  0  0  0  0  0  0  0  0  0  0  0
    9.2558   -2.3860   24.5802 C   0  0  0  0  0  0  0  0  0  0  0  0
    8.5677   -2.7437   26.1324 Cl  0  0  0  0  0  0  0  0  0  0  0  0
    8.6083   -1.5216   23.6731 C   0  0  0  0  0  0  0  0  0  0  0  0
    7.1991   -0.6443   24.1774 Cl  0  0  0  0  0  0  0  0  0  0  0  0
    5.4048    0.6140   20.1266 C   0  0  0  0  0  0  0  0  0  0  0  0
    5.0058    0.6017   21.1450 H   0  0  0  0  0  0  0  0  0  0  0  0
    4.7741    1.3031   19.0825 C   0  0  0  0  0  0  0  0  0  0  0  0
    3.8487    1.8428   19.2519 H   0  0  0  0  0  0  0  0  0  0  0  0
  1  2  1  0
  2  3  2  0
  3  4  1  0
  4  5  1  0
  4  6  2  0
  6  7  1  0
  7  8  1  0
  7  9  1  0
  9 10  2  0
  9 11  1  0
 11 12  2  0
 12 13  1  0
 12 14  1  0
 14 15  1  0
 14 16  2  0
 16 17  1  0
 16 18  1  0
 18 19  1  0
 18 20  2  0
 20 21  1  0
  6 22  1  0
 22 23  1  0
 22 24  2  0
 24 25  1  0
 24  2  1  0
 20 11  1  0
M  END
>  <plip>  (1) 
-0.10714285714285714

>  <filename>  (1) 
[H][c]1[n][c]([H])[c]([N]([H])[C](=[S])[c]2[c]([H])[c]([H])[c]([H])[c]([Cl])[c]2[Cl])[c]([H])[c]1[H]

$$$$
