
     RDKit          3D

 31 33  0  0  0  0  0  0  0  0999 V2000
    8.7864    0.0455   21.2750 C   0  0  0  0  0  0  0  0  0  0  0  0
    7.3865   -0.5503   21.1091 C   0  0  2  0  0  0  0  0  0  0  0  0
    7.4150   -1.9768   20.9713 N   0  0  0  0  0  0  0  0  0  0  0  0
    7.7331   -2.8521   21.9497 C   0  0  0  0  0  0  0  0  0  0  0  0
    7.8857   -2.5092   23.3265 C   0  0  0  0  0  0  0  0  0  0  0  0
    8.2221   -3.4837   24.2648 C   0  0  0  0  0  0  0  0  0  0  0  0
    8.3998   -4.7728   23.7501 C   0  0  0  0  0  0  0  0  0  0  0  0
    8.8040   -6.0059   24.2313 N   0  0  0  0  0  0  0  0  0  0  0  0
    8.8222   -6.8429   23.1383 C   0  0  0  0  0  0  0  0  0  0  0  0
    8.4545   -6.2774   22.0364 N   0  0  0  0  0  0  0  0  0  0  0  0
    8.1967   -4.9851   22.3606 C   0  0  0  0  0  0  0  0  0  0  0  0
    7.8805   -4.0751   21.4583 N   0  0  0  0  0  0  0  0  0  0  0  0
    9.2083   -7.8552   23.1645 H   0  0  0  0  0  0  0  0  0  0  0  0
    9.0801   -6.2172   25.1798 H   0  0  0  0  0  0  0  0  0  0  0  0
    8.3491   -3.2575   25.3263 H   0  0  0  0  0  0  0  0  0  0  0  0
    7.7492   -1.4816   23.6296 H   0  0  0  0  0  0  0  0  0  0  0  0
    7.5369   -2.4212   20.0734 H   0  0  0  0  0  0  0  0  0  0  0  0
    6.6304   -0.0033   19.9301 C   0  0  0  0  0  0  0  0  0  0  0  0
    5.4079    0.6466   20.1118 C   0  0  0  0  0  0  0  0  0  0  0  0
    4.8172    1.2947   19.0297 C   0  0  0  0  0  0  0  0  0  0  0  0
    5.4591    1.2334   17.7873 C   0  0  0  0  0  0  0  0  0  0  0  0
    6.5843    0.5335   17.5731 N   0  0  0  0  0  0  0  0  0  0  0  0
    7.1381   -0.0876   18.6266 C   0  0  0  0  0  0  0  0  0  0  0  0
    8.0434   -0.6554   18.3984 H   0  0  0  0  0  0  0  0  0  0  0  0
    5.0383    1.7498   16.9262 H   0  0  0  0  0  0  0  0  0  0  0  0
    3.8913    1.8481   19.1452 H   0  0  0  0  0  0  0  0  0  0  0  0
    4.9404    0.6383   21.0990 H   0  0  0  0  0  0  0  0  0  0  0  0
    6.8112   -0.3145   22.0183 H   0  0  0  0  0  0  0  0  0  0  0  0
    8.7351    1.1228   21.4505 H   0  0  0  0  0  0  0  0  0  0  0  0
    9.3949   -0.1247   20.3821 H   0  0  0  0  0  0  0  0  0  0  0  0
    9.2976   -0.4214   22.1218 H   0  0  0  0  0  0  0  0  0  0  0  0
  1  2  1  0
  2  3  1  0
  3  4  1  0
  4  5  2  0
  5  6  1  0
  6  7  2  0
  7  8  1  0
  8  9  1  0
  9 10  2  0
 10 11  1  0
 11 12  2  0
  9 13  1  0
  8 14  1  0
  6 15  1  0
  5 16  1  0
  3 17  1  0
  2 18  1  0
 18 19  2  0
 19 20  1  0
 20 21  2  0
 21 22  1  0
 22 23  2  0
 23 24  1  0
 21 25  1  0
 20 26  1  0
 19 27  1  0
  2 28  1  1
  1 29  1  0
  1 30  1  0
  1 31  1  0
 12  4  1  0
 23 18  1  0
 11  7  1  0
M  END
>  <plip>  (1) 
-0.16666666666666666

>  <filename>  (1) 
[H][c]1[n][c]([H])[c]([C@@]([H])([N]([H])[c]2[n][c]3[n][c]([H])[n]([H])[c]3[c]([H])[c]2[H])[C]([H])([H])[H])[c]([H])[c]1[H]

$$$$
