
     RDKit          3D

 43 45  0  0  0  0  0  0  0  0999 V2000
    6.7923   -0.9302   24.0760 O   0  0  0  0  0  0  0  0  0  0  0  0
    8.0073   -1.0284   24.0388 C   0  0  0  0  0  0  0  0  0  0  0  0
    8.7335   -1.7164   25.0008 N   0  0  0  0  0  0  0  0  0  0  0  0
    8.0014   -2.5855   25.9176 C   0  0  0  0  0  0  0  0  0  0  0  0
    7.2639   -3.7327   25.2413 C   0  0  0  0  0  0  0  0  0  0  0  0
    5.8598   -3.7798   25.1688 C   0  0  0  0  0  0  0  0  0  0  0  0
    5.1971   -4.8453   24.5478 C   0  0  0  0  0  0  0  0  0  0  0  0
    5.9371   -5.8630   23.9372 C   0  0  0  0  0  0  0  0  0  0  0  0
    7.3373   -5.8340   23.9762 C   0  0  0  0  0  0  0  0  0  0  0  0
    7.9687   -4.7880   24.6456 C   0  0  0  0  0  0  0  0  0  0  0  0
    9.3175   -4.8059   24.7343 F   0  0  0  0  0  0  0  0  0  0  0  0
    7.9380   -6.6188   23.5241 H   0  0  0  0  0  0  0  0  0  0  0  0
    5.4293   -6.6990   23.4598 H   0  0  0  0  0  0  0  0  0  0  0  0
    4.1102   -4.8829   24.5566 H   0  0  0  0  0  0  0  0  0  0  0  0
    5.2876   -2.9507   25.5872 H   0  0  0  0  0  0  0  0  0  0  0  0
    8.7291   -2.9843   26.6308 H   0  0  0  0  0  0  0  0  0  0  0  0
    7.2917   -1.9815   26.4964 H   0  0  0  0  0  0  0  0  0  0  0  0
    9.5212   -2.1553   24.5562 H   0  0  0  0  0  0  0  0  0  0  0  0
    8.7842   -0.4778   23.0506 N   0  0  0  0  0  0  0  0  0  0  0  0
   10.2053   -0.1511   23.1927 C   0  0  0  0  0  0  0  0  0  0  0  0
   10.4066    1.0696   22.2883 C   0  0  0  0  0  0  0  0  0  0  0  0
    9.2590    0.9999   21.2708 C   0  0  0  0  0  0  0  0  0  0  0  0
    8.1137    0.2463   21.9627 C   0  0  0  0  0  0  0  0  0  0  0  0
    7.3452   -0.7239   21.0371 C   0  0  0  0  0  0  0  0  0  0  0  0
    6.6314   -0.0370   19.8957 C   0  0  0  0  0  0  0  0  0  0  0  0
    5.4228    0.6386   20.1270 C   0  0  0  0  0  0  0  0  0  0  0  0
    4.8114    1.3081   19.0662 C   0  0  0  0  0  0  0  0  0  0  0  0
    5.4243    1.3019   17.8099 C   0  0  0  0  0  0  0  0  0  0  0  0
    6.5754    0.6586   17.5612 N   0  0  0  0  0  0  0  0  0  0  0  0
    7.1522    0.0197   18.5900 C   0  0  0  0  0  0  0  0  0  0  0  0
    8.0847   -0.4967   18.3551 H   0  0  0  0  0  0  0  0  0  0  0  0
    4.9712    1.8331   16.9715 H   0  0  0  0  0  0  0  0  0  0  0  0
    3.8813    1.8457   19.2075 H   0  0  0  0  0  0  0  0  0  0  0  0
    4.9771    0.6327   21.1258 H   0  0  0  0  0  0  0  0  0  0  0  0
    6.6166   -1.2596   21.6557 H   0  0  0  0  0  0  0  0  0  0  0  0
    8.0644   -1.4607   20.6605 H   0  0  0  0  0  0  0  0  0  0  0  0
    7.3873    0.9546   22.3914 H   0  0  0  0  0  0  0  0  0  0  0  0
    9.5703    0.4410   20.3788 H   0  0  0  0  0  0  0  0  0  0  0  0
    8.9446    1.9896   20.9263 H   0  0  0  0  0  0  0  0  0  0  0  0
   11.3826    1.0472   21.7939 H   0  0  0  0  0  0  0  0  0  0  0  0
   10.3703    1.9957   22.8776 H   0  0  0  0  0  0  0  0  0  0  0  0
   10.4604    0.0921   24.2331 H   0  0  0  0  0  0  0  0  0  0  0  0
   10.8325   -0.9976   22.8739 H   0  0  0  0  0  0  0  0  0  0  0  0
  1  2  2  0
  2  3  1  0
  3  4  1  0
  4  5  1  0
  5  6  2  0
  6  7  1  0
  7  8  2  0
  8  9  1  0
  9 10  2  0
 10 11  1  0
  9 12  1  0
  8 13  1  0
  7 14  1  0
  6 15  1  0
  4 16  1  0
  4 17  1  0
  3 18  1  0
  2 19  1  0
 19 20  1  0
 20 21  1  0
 21 22  1  0
 22 23  1  0
 23 24  1  0
 24 25  1  0
 25 26  2  0
 26 27  1  0
 27 28  2  0
 28 29  1  0
 29 30  2  0
 30 31  1  0
 28 32  1  0
 27 33  1  0
 26 34  1  0
 24 35  1  0
 24 36  1  0
 23 37  1  0
 22 38  1  0
 22 39  1  0
 21 40  1  0
 21 41  1  0
 20 42  1  0
 20 43  1  0
 10  5  1  0
 23 19  1  0
 30 25  1  0
M  END
>  <plip>  (1) 
-0.07142857142857142

>  <filename>  (1) 
[H][c]1[n][c]([H])[c]([C]([H])([H])[C]2([H])[N]([C](=[O])[N]([H])[C]([H])([H])[c]3[c]([H])[c]([H])[c]([H])[c]([H])[c]3[F])[C]([H])([H])[C]([H])([H])[C]2([H])[H])[c]([H])[c]1[H]

$$$$
