
     RDKit          3D

 52 53  0  0  0  0  0  0  0  0999 V2000
   10.2547   -2.3755   24.3911 C   0  0  0  0  0  0  0  0  0  0  0  0
    9.7536   -2.0734   23.1151 O   0  0  0  0  0  0  0  0  0  0  0  0
   10.6057   -1.3018   22.3028 C   0  0  0  0  0  0  0  0  0  0  0  0
    9.8606   -0.8956   21.0342 C   0  0  0  0  0  0  0  0  0  0  0  0
    8.6782   -0.0493   21.2500 N   0  0  0  0  0  0  0  0  0  0  0  0
    7.3421   -0.6070   21.0715 C   0  0  0  0  0  0  0  0  0  0  0  0
    6.5736    0.0615   19.9486 C   0  0  0  0  0  0  0  0  0  0  0  0
    5.3424    0.7025   20.1302 C   0  0  0  0  0  0  0  0  0  0  0  0
    4.7444    1.3416   19.0372 C   0  0  0  0  0  0  0  0  0  0  0  0
    5.3939    1.3116   17.8000 C   0  0  0  0  0  0  0  0  0  0  0  0
    6.5577    0.6794   17.5973 N   0  0  0  0  0  0  0  0  0  0  0  0
    7.1237    0.0816   18.6543 C   0  0  0  0  0  0  0  0  0  0  0  0
    8.0701   -0.4171   18.4534 H   0  0  0  0  0  0  0  0  0  0  0  0
    4.9633    1.8192   16.9348 H   0  0  0  0  0  0  0  0  0  0  0  0
    3.8061    1.8742   19.1354 H   0  0  0  0  0  0  0  0  0  0  0  0
    4.8529    0.7188   21.1087 H   0  0  0  0  0  0  0  0  0  0  0  0
    7.4673   -1.6729   20.8526 H   0  0  0  0  0  0  0  0  0  0  0  0
    6.7670   -0.5770   22.0100 H   0  0  0  0  0  0  0  0  0  0  0  0
    8.9013    1.2708   21.6230 C   0  0  0  0  0  0  0  0  0  0  0  0
    9.9810    1.8173   21.4478 O   0  0  0  0  0  0  0  0  0  0  0  0
    7.8445    1.8913   22.2333 N   0  0  0  0  0  0  0  0  0  0  0  0
    7.9516    3.1799   22.8973 C   0  0  0  0  0  0  0  0  0  0  0  0
    8.2363    3.1433   24.4407 C   0  0  0  0  0  0  0  0  0  0  0  0
    9.5273    2.3306   24.7091 C   0  0  0  0  0  0  0  0  0  0  0  0
    9.7932    2.3777   25.7722 H   0  0  0  0  0  0  0  0  0  0  0  0
    9.3808    1.2735   24.4576 H   0  0  0  0  0  0  0  0  0  0  0  0
   10.3704    2.6927   24.1061 H   0  0  0  0  0  0  0  0  0  0  0  0
    7.0901    2.4381   25.2141 C   0  0  0  0  0  0  0  0  0  0  0  0
    7.2754    2.5089   26.2935 H   0  0  0  0  0  0  0  0  0  0  0  0
    7.0336    1.3730   24.9593 H   0  0  0  0  0  0  0  0  0  0  0  0
    6.1064    2.8806   25.0177 H   0  0  0  0  0  0  0  0  0  0  0  0
    8.3561    4.6146   24.9256 C   0  0  0  0  0  0  0  0  0  0  0  0
    7.2139    5.4400   24.9890 C   0  0  0  0  0  0  0  0  0  0  0  0
    7.2880    6.7503   25.4752 C   0  0  0  0  0  0  0  0  0  0  0  0
    8.5081    7.2720   25.9202 C   0  0  0  0  0  0  0  0  0  0  0  0
    9.6581    6.4853   25.8304 C   0  0  0  0  0  0  0  0  0  0  0  0
    9.5836    5.1908   25.3044 C   0  0  0  0  0  0  0  0  0  0  0  0
   10.4992    4.6236   25.1829 H   0  0  0  0  0  0  0  0  0  0  0  0
   10.6157    6.8670   26.1759 H   0  0  0  0  0  0  0  0  0  0  0  0
    8.5610    8.2789   26.3282 H   0  0  0  0  0  0  0  0  0  0  0  0
    6.3891    7.3597   25.5186 H   0  0  0  0  0  0  0  0  0  0  0  0
    6.2461    5.0573   24.6667 H   0  0  0  0  0  0  0  0  0  0  0  0
    8.7542    3.7478   22.4089 H   0  0  0  0  0  0  0  0  0  0  0  0
    7.0179    3.7326   22.7240 H   0  0  0  0  0  0  0  0  0  0  0  0
    7.0918    1.2752   22.4824 H   0  0  0  0  0  0  0  0  0  0  0  0
   10.5700   -0.3655   20.3998 H   0  0  0  0  0  0  0  0  0  0  0  0
    9.5608   -1.8090   20.5058 H   0  0  0  0  0  0  0  0  0  0  0  0
   10.9599   -0.3933   22.8229 H   0  0  0  0  0  0  0  0  0  0  0  0
   11.5065   -1.8660   22.0017 H   0  0  0  0  0  0  0  0  0  0  0  0
    9.4058   -2.7086   24.9983 H   0  0  0  0  0  0  0  0  0  0  0  0
   10.7017   -1.4872   24.8710 H   0  0  0  0  0  0  0  0  0  0  0  0
   11.0068   -3.1818   24.3621 H   0  0  0  0  0  0  0  0  0  0  0  0
  1  2  1  0
  2  3  1  0
  3  4  1  0
  4  5  1  0
  5  6  1  0
  6  7  1  0
  7  8  2  0
  8  9  1  0
  9 10  2  0
 10 11  1  0
 11 12  2  0
 12 13  1  0
 10 14  1  0
  9 15  1  0
  8 16  1  0
  6 17  1  0
  6 18  1  0
  5 19  1  0
 19 20  2  0
 19 21  1  0
 21 22  1  0
 22 23  1  0
 23 24  1  0
 24 25  1  0
 24 26  1  0
 24 27  1  0
 23 28  1  0
 28 29  1  0
 28 30  1  0
 28 31  1  0
 23 32  1  0
 32 33  2  0
 33 34  1  0
 34 35  2  0
 35 36  1  0
 36 37  2  0
 37 38  1  0
 36 39  1  0
 35 40  1  0
 34 41  1  0
 33 42  1  0
 22 43  1  0
 22 44  1  0
 21 45  1  0
  4 46  1  0
  4 47  1  0
  3 48  1  0
  3 49  1  0
  1 50  1  0
  1 51  1  0
  1 52  1  0
 12  7  1  0
 37 32  1  0
M  END
>  <plip>  (1) 
-0.07142857142857142

>  <filename>  (1) 
[H][c]1[n][c]([H])[c]([C]([H])([H])[N]([C](=[O])[N]([H])[C]([H])([H])[C]([c]2[c]([H])[c]([H])[c]([H])[c]([H])[c]2[H])([C]([H])([H])[H])[C]([H])([H])[H])[C]([H])([H])[C]([H])([H])[O][C]([H])([H])[H])[c]([H])[c]1[H]

$$$$
