
     RDKit          3D

 29 30  0  0  0  0  0  0  0  0999 V2000
    4.9291    1.8389   16.9100 H   0  0  0  0  0  0  0  0  0  0  0  0
    5.3744    1.3504   17.7739 C   0  0  0  0  0  0  0  0  0  0  0  0
    6.5368    0.7153   17.5577 N   0  0  0  0  0  0  0  0  0  0  0  0
    7.1171    0.1213   18.6062 C   0  0  0  0  0  0  0  0  0  0  0  0
    8.0574   -0.3943   18.4015 H   0  0  0  0  0  0  0  0  0  0  0  0
    6.5968    0.1369   19.9106 C   0  0  0  0  0  0  0  0  0  0  0  0
    7.3750   -0.5159   21.0255 C   0  0  1  0  0  0  0  0  0  0  0  0
    6.7263   -0.6441   21.9019 H   0  0  0  0  0  0  0  0  0  0  0  0
    7.7772   -1.8788   20.5913 O   0  0  0  0  0  0  0  0  0  0  0  0
    6.5988   -3.1287   20.7306 S   0  0  0  0  0  0  0  0  0  0  0  0
    7.0632   -3.9631   22.1660 C   0  0  0  0  0  0  0  0  0  0  0  0
    7.9452   -5.0579   22.1003 C   0  0  0  0  0  0  0  0  0  0  0  0
    8.2719   -5.3860   21.1206 H   0  0  0  0  0  0  0  0  0  0  0  0
    8.3854   -5.6583   23.2841 C   0  0  0  0  0  0  0  0  0  0  0  0
    9.0290   -6.5298   23.2508 H   0  0  0  0  0  0  0  0  0  0  0  0
    8.0027   -5.1329   24.5243 C   0  0  0  0  0  0  0  0  0  0  0  0
    8.4318   -5.5244   25.4438 H   0  0  0  0  0  0  0  0  0  0  0  0
    7.1107   -4.0586   24.5795 C   0  0  0  0  0  0  0  0  0  0  0  0
    6.8047   -3.6564   25.5391 H   0  0  0  0  0  0  0  0  0  0  0  0
    6.6127   -3.4962   23.4096 C   0  0  0  0  0  0  0  0  0  0  0  0
    5.8648   -2.7056   23.4213 H   0  0  0  0  0  0  0  0  0  0  0  0
    8.6672    0.1796   21.4367 C   0  0  0  0  0  0  0  0  0  0  0  0
    9.3562    0.2804   20.5919 H   0  0  0  0  0  0  0  0  0  0  0  0
    9.1739   -0.4006   22.2166 H   0  0  0  0  0  0  0  0  0  0  0  0
    8.4559    1.1755   21.8372 H   0  0  0  0  0  0  0  0  0  0  0  0
    5.3630    0.7789   20.1055 C   0  0  0  0  0  0  0  0  0  0  0  0
    4.9056    0.7983   21.0957 H   0  0  0  0  0  0  0  0  0  0  0  0
    4.7374    1.3939   19.0192 C   0  0  0  0  0  0  0  0  0  0  0  0
    3.7860    1.9041   19.1202 H   0  0  0  0  0  0  0  0  0  0  0  0
  1  2  1  0
  2  3  2  0
  3  4  1  0
  4  5  1  0
  4  6  2  0
  6  7  1  0
  7  8  1  1
  7  9  1  0
  9 10  1  0
 10 11  1  0
 11 12  2  0
 12 13  1  0
 12 14  1  0
 14 15  1  0
 14 16  2  0
 16 17  1  0
 16 18  1  0
 18 19  1  0
 18 20  2  0
 20 21  1  0
  7 22  1  0
 22 23  1  0
 22 24  1  0
 22 25  1  0
  6 26  1  0
 26 27  1  0
 26 28  2  0
 28 29  1  0
 28  2  1  0
 20 11  1  0
M  END
>  <plip>  (1) 
-0.07142857142857142

>  <filename>  (1) 
[H][c]1[n][c]([H])[c]([C@@]([H])([O][S][c]2[c]([H])[c]([H])[c]([H])[c]([H])[c]2[H])[C]([H])([H])[H])[c]([H])[c]1[H]

$$$$
