
     RDKit          3D

 51 52  0  0  0  0  0  0  0  0999 V2000
    3.7610    3.1885   26.3166 C   0  0  0  0  0  0  0  0  0  0  0  0
    5.0004    2.4923   25.8027 C   0  0  0  0  0  0  0  0  0  0  0  0
    4.9285    1.2653   25.1297 C   0  0  0  0  0  0  0  0  0  0  0  0
    6.0816    0.6643   24.6120 C   0  0  0  0  0  0  0  0  0  0  0  0
    7.3268    1.2871   24.7581 C   0  0  0  0  0  0  0  0  0  0  0  0
    8.5058    0.7147   24.1930 N   0  0  0  0  0  0  0  0  0  0  0  0
    8.6155   -0.0667   23.0801 C   0  0  0  0  0  0  0  0  0  0  0  0
    9.7622   -1.2684   23.0372 S   0  0  0  0  0  0  0  0  0  0  0  0
    7.7745    0.2227   22.0771 N   0  0  0  0  0  0  0  0  0  0  0  0
    7.4417   -0.7147   21.0129 C   0  0  0  0  0  0  0  0  0  0  0  0
    6.6442   -1.8959   21.5938 C   0  0  0  0  0  0  0  0  0  0  0  0
    6.3785   -3.0216   20.6032 C   0  0  0  0  0  0  0  0  0  0  0  0
    5.6696   -4.2435   21.2018 N   0  0  0  0  0  4  0  0  0  0  0  0
    6.5805   -5.1246   22.0148 C   0  0  0  0  0  0  0  0  0  0  0  0
    7.5638   -5.2101   21.5469 H   0  0  0  0  0  0  0  0  0  0  0  0
    6.7119   -4.6942   23.0110 H   0  0  0  0  0  0  0  0  0  0  0  0
    6.1386   -6.1189   22.1473 H   0  0  0  0  0  0  0  0  0  0  0  0
    4.4619   -3.9224   22.0322 C   0  0  0  0  0  0  0  0  0  0  0  0
    3.8053   -3.2113   21.5329 H   0  0  0  0  0  0  0  0  0  0  0  0
    3.9120   -4.8384   22.2811 H   0  0  0  0  0  0  0  0  0  0  0  0
    4.7780   -3.4418   22.9622 H   0  0  0  0  0  0  0  0  0  0  0  0
    5.3757   -4.8206   20.3923 H   0  0  0  0  0  0  0  0  0  0  0  0
    5.8078   -2.6490   19.7425 H   0  0  0  0  0  0  0  0  0  0  0  0
    7.3359   -3.3929   20.2406 H   0  0  0  0  0  0  0  0  0  0  0  0
    7.1942   -2.2806   22.4609 H   0  0  0  0  0  0  0  0  0  0  0  0
    5.6931   -1.5008   21.9524 H   0  0  0  0  0  0  0  0  0  0  0  0
    6.6918    0.0398   19.9413 C   0  0  0  0  0  0  0  0  0  0  0  0
    5.4726    0.6996   20.1723 C   0  0  0  0  0  0  0  0  0  0  0  0
    4.8312    1.3237   19.1013 C   0  0  0  0  0  0  0  0  0  0  0  0
    5.4329    1.2957   17.8385 C   0  0  0  0  0  0  0  0  0  0  0  0
    6.6023    0.6850   17.5970 N   0  0  0  0  0  0  0  0  0  0  0  0
    7.2020    0.0927   18.6365 C   0  0  0  0  0  0  0  0  0  0  0  0
    8.1538   -0.3906   18.4163 H   0  0  0  0  0  0  0  0  0  0  0  0
    4.9580    1.7824   16.9875 H   0  0  0  0  0  0  0  0  0  0  0  0
    3.8937    1.8547   19.2339 H   0  0  0  0  0  0  0  0  0  0  0  0
    5.0268    0.7367   21.1708 H   0  0  0  0  0  0  0  0  0  0  0  0
    8.3925   -1.0773   20.5955 H   0  0  0  0  0  0  0  0  0  0  0  0
    7.1460    0.9919   22.2519 H   0  0  0  0  0  0  0  0  0  0  0  0
    9.2180    0.4203   24.8449 H   0  0  0  0  0  0  0  0  0  0  0  0
    7.4389    2.4828   25.4978 C   0  0  0  0  0  0  0  0  0  0  0  0
    8.7814    3.1088   25.7665 C   0  0  0  0  0  0  0  0  0  0  0  0
    9.3713    3.1828   24.8464 H   0  0  0  0  0  0  0  0  0  0  0  0
    8.6791    4.1092   26.1965 H   0  0  0  0  0  0  0  0  0  0  0  0
    9.3570    2.4974   26.4707 H   0  0  0  0  0  0  0  0  0  0  0  0
    6.2680    3.0667   25.9955 C   0  0  0  0  0  0  0  0  0  0  0  0
    6.3527    3.9944   26.5649 H   0  0  0  0  0  0  0  0  0  0  0  0
    6.0239   -0.3025   24.1201 H   0  0  0  0  0  0  0  0  0  0  0  0
    3.9689    0.7676   25.0166 H   0  0  0  0  0  0  0  0  0  0  0  0
    3.3643    3.8896   25.5702 H   0  0  0  0  0  0  0  0  0  0  0  0
    2.9610    2.4769   26.5523 H   0  0  0  0  0  0  0  0  0  0  0  0
    3.9745    3.7644   27.2256 H   0  0  0  0  0  0  0  0  0  0  0  0
  1  2  1  0
  2  3  2  0
  3  4  1  0
  4  5  2  0
  5  6  1  0
  6  7  1  0
  7  8  2  0
  7  9  1  0
  9 10  1  0
 10 11  1  0
 11 12  1  0
 12 13  1  0
 13 14  1  0
 14 15  1  0
 14 16  1  0
 14 17  1  0
 13 18  1  0
 18 19  1  0
 18 20  1  0
 18 21  1  0
 13 22  1  0
 12 23  1  0
 12 24  1  0
 11 25  1  0
 11 26  1  0
 10 27  1  0
 27 28  2  0
 28 29  1  0
 29 30  2  0
 30 31  1  0
 31 32  2  0
 32 33  1  0
 30 34  1  0
 29 35  1  0
 28 36  1  0
 10 37  1  0
  9 38  1  0
  6 39  1  0
  5 40  1  0
 40 41  1  0
 41 42  1  0
 41 43  1  0
 41 44  1  0
 40 45  2  0
 45 46  1  0
  4 47  1  0
  3 48  1  0
  1 49  1  0
  1 50  1  0
  1 51  1  0
 45  2  1  0
 32 27  1  0
M  CHG  1  13   1
M  END
>  <plip>  (1) 
-0.10714285714285714

>  <filename>  (1) 
[H][c]1[n][c]([H])[c]([C]([H])([N]([H])[C](=[S])[N]([H])[c]2[c]([H])[c]([H])[c]([C]([H])([H])[H])[c]([H])[c]2[C]([H])([H])[H])[C]([H])([H])[C]([H])([H])[N+]([H])([C]([H])([H])[H])[C]([H])([H])[H])[c]([H])[c]1[H]

$$$$
