
     RDKit          3D

 27 29  0  0  0  0  0  0  0  0999 V2000
    4.9276    1.7845   16.9907 H   0  0  0  0  0  0  0  0  0  0  0  0
    5.4032    1.2929   17.8346 C   0  0  0  0  0  0  0  0  0  0  0  0
    6.5657    0.6751   17.5802 N   0  0  0  0  0  0  0  0  0  0  0  0
    7.1684    0.0571   18.5984 C   0  0  0  0  0  0  0  0  0  0  0  0
    8.1166   -0.4339   18.3776 H   0  0  0  0  0  0  0  0  0  0  0  0
    6.6357    0.0198   19.8920 C   0  0  0  0  0  0  0  0  0  0  0  0
    7.3649   -0.7010   20.9292 C   0  0  0  0  0  0  0  0  0  0  0  0
    8.0162   -1.8293   20.7872 N   0  0  0  0  0  0  0  0  0  0  0  0
    8.4413   -2.1830   22.0187 N   0  0  0  0  0  0  0  0  0  0  0  0
    8.0961   -1.3086   22.8962 N   0  0  0  0  0  0  0  0  0  0  0  0
    7.4178   -0.3528   22.2444 N   0  0  0  0  0  0  0  0  0  0  0  0
    6.9837    0.8165   22.8759 N   0  0  0  0  0  0  0  0  0  0  0  0
    7.3529    2.0747   22.4110 C   0  0  0  0  0  0  0  0  0  0  0  0
    7.9066    2.3221   21.3649 O   0  0  0  0  0  0  0  0  0  0  0  0
    6.9227    3.0724   23.4665 C   0  0  0  0  0  0  0  0  0  0  0  0
    6.2745    3.8211   23.0098 H   0  0  0  0  0  0  0  0  0  0  0  0
    7.8131    3.6160   23.7849 H   0  0  0  0  0  0  0  0  0  0  0  0
    6.2407    2.2761   24.5927 C   0  0  0  0  0  0  0  0  0  0  0  0
    6.6331    2.5409   25.5809 H   0  0  0  0  0  0  0  0  0  0  0  0
    5.1620    2.4747   24.6278 H   0  0  0  0  0  0  0  0  0  0  0  0
    6.5170    0.7902   24.2686 C   0  0  0  0  0  0  0  0  0  0  0  0
    7.2833    0.3547   24.9245 H   0  0  0  0  0  0  0  0  0  0  0  0
    5.6190    0.1703   24.3663 H   0  0  0  0  0  0  0  0  0  0  0  0
    5.4138    0.6556   20.1508 C   0  0  0  0  0  0  0  0  0  0  0  0
    4.9805    0.6479   21.1560 H   0  0  0  0  0  0  0  0  0  0  0  0
    4.7949    1.3118   19.0948 C   0  0  0  0  0  0  0  0  0  0  0  0
    3.8673    1.8467   19.2468 H   0  0  0  0  0  0  0  0  0  0  0  0
  1  2  1  0
  2  3  2  0
  3  4  1  0
  4  5  1  0
  4  6  2  0
  6  7  1  0
  7  8  2  0
  8  9  1  0
  9 10  2  0
 10 11  1  0
 11 12  1  0
 12 13  1  0
 13 14  2  0
 13 15  1  0
 15 16  1  0
 15 17  1  0
 15 18  1  0
 18 19  1  0
 18 20  1  0
 18 21  1  0
 21 22  1  0
 21 23  1  0
  6 24  1  0
 24 25  1  0
 24 26  2  0
 26 27  1  0
 26  2  1  0
 11  7  1  0
 21 12  1  0
M  END
>  <plip>  (1) 
-0.034482758620689655

>  <filename>  (1) 
[H][c]1[n][c]([H])[c](-[c]2[n][n][n][n]2[N]2[C](=[O])[C]([H])([H])[C]([H])([H])[C]2([H])[H])[c]([H])[c]1[H]

$$$$
