
     RDKit          3D

 31 33  0  0  0  0  0  0  0  0999 V2000
    7.3675   -2.0264   21.0773 C   0  0  0  0  0  0  0  0  0  0  0  0
    7.2533   -0.5108   21.2013 C   0  0  1  0  0  0  0  0  0  0  0  0
    8.6191    0.0148   21.2741 N   0  0  0  0  0  0  0  0  0  0  0  0
    9.2862    0.0644   22.4831 C   0  0  0  0  0  0  0  0  0  0  0  0
    8.6723   -0.6163   23.4478 N   0  0  0  0  0  0  0  0  0  0  0  0
    9.1891   -0.5434   24.6796 C   0  0  0  0  0  0  0  0  0  0  0  0
   10.3070    0.1904   25.0179 C   0  0  0  0  0  0  0  0  0  0  0  0
   11.0021    0.8644   24.0162 C   0  0  0  0  0  0  0  0  0  0  0  0
   10.4735    0.8078   22.7086 C   0  0  0  0  0  0  0  0  0  0  0  0
   11.3905    1.7488   21.3052 Br  0  0  0  0  0  0  0  0  0  0  0  0
   11.9131    1.4200   24.2431 H   0  0  0  0  0  0  0  0  0  0  0  0
   10.4212    0.0559   26.4008 N   0  0  0  0  0  0  0  0  0  0  0  0
    9.4546   -0.7476   26.9417 N   0  0  0  0  0  0  0  0  0  0  0  0
    8.7070   -1.1124   25.9218 C   0  0  0  0  0  0  0  0  0  0  0  0
    7.8303   -1.7468   26.0011 H   0  0  0  0  0  0  0  0  0  0  0  0
   11.0745    0.6032   26.9757 H   0  0  0  0  0  0  0  0  0  0  0  0
    8.8938    0.6921   20.5773 H   0  0  0  0  0  0  0  0  0  0  0  0
    6.6190    0.1400   20.0167 C   0  0  0  0  0  0  0  0  0  0  0  0
    5.3784    0.7831   20.1133 C   0  0  0  0  0  0  0  0  0  0  0  0
    4.8642    1.3729   18.9614 C   0  0  0  0  0  0  0  0  0  0  0  0
    5.5825    1.3023   17.7649 C   0  0  0  0  0  0  0  0  0  0  0  0
    6.7768    0.6895   17.6759 N   0  0  0  0  0  0  0  0  0  0  0  0
    7.2877    0.1322   18.7879 C   0  0  0  0  0  0  0  0  0  0  0  0
    8.2634   -0.3392   18.7227 H   0  0  0  0  0  0  0  0  0  0  0  0
    5.1545    1.7547   16.8754 H   0  0  0  0  0  0  0  0  0  0  0  0
    3.9202    1.9036   18.9789 H   0  0  0  0  0  0  0  0  0  0  0  0
    4.8349    0.8441   21.0561 H   0  0  0  0  0  0  0  0  0  0  0  0
    6.6676   -0.2674   22.1000 H   0  0  0  0  0  0  0  0  0  0  0  0
    8.2992   -2.2876   20.5668 H   0  0  0  0  0  0  0  0  0  0  0  0
    6.5246   -2.4401   20.5177 H   0  0  0  0  0  0  0  0  0  0  0  0
    7.3849   -2.4757   22.0765 H   0  0  0  0  0  0  0  0  0  0  0  0
  1  2  1  0
  2  3  1  0
  3  4  1  0
  4  5  2  0
  5  6  1  0
  6  7  2  0
  7  8  1  0
  8  9  2  0
  9 10  1  0
  8 11  1  0
  7 12  1  0
 12 13  1  0
 13 14  2  0
 14 15  1  0
 12 16  1  0
  3 17  1  0
  2 18  1  0
 18 19  2  0
 19 20  1  0
 20 21  2  0
 21 22  1  0
 22 23  2  0
 23 24  1  0
 21 25  1  0
 20 26  1  0
 19 27  1  0
  2 28  1  1
  1 29  1  0
  1 30  1  0
  1 31  1  0
  9  4  1  0
 23 18  1  0
 14  6  1  0
M  END
>  <plip>  (1) 
-0.10714285714285714

>  <filename>  (1) 
[H][c]1[n][c]([H])[c]([C@]([H])([N]([H])[c]2[n][c]3[c]([H])[n][n]([H])[c]3[c]([H])[c]2[Br])[C]([H])([H])[H])[c]([H])[c]1[H]

$$$$
