
     RDKit          3D

 35 38  0  0  0  0  0  0  0  0999 V2000
    8.0606    1.4996   29.9358 O   0  0  0  0  0  0  0  0  0  0  0  0
    7.5557    2.2984   29.1662 N   0  0  0  0  0  4  0  0  0  0  0  0
    7.2530    3.4400   29.4728 O   0  0  0  0  0  1  0  0  0  0  0  0
    7.2957    1.8659   27.7769 C   0  0  0  0  0  0  0  0  0  0  0  0
    6.7108    2.7860   26.8768 C   0  0  0  0  0  0  0  0  0  0  0  0
    6.4496    2.4178   25.5629 C   0  0  0  0  0  0  0  0  0  0  0  0
    6.7815    1.1216   25.1783 C   0  0  0  0  0  0  0  0  0  0  0  0
    6.6581    0.4277   23.9875 N   0  0  0  0  0  0  0  0  0  0  0  0
    7.1520   -0.8155   24.2180 C   0  0  0  0  0  0  0  0  0  0  0  0
    7.2108   -1.7393   23.2304 N   0  0  0  0  0  0  0  0  0  0  0  0
    6.6876   -1.6191   21.9195 C   0  0  2  0  0  0  0  0  0  0  0  0
    7.5307   -2.1939   20.8292 C   0  0  0  0  0  0  0  0  0  0  0  0
    7.4190   -0.7023   20.9678 C   0  0  1  0  0  0  0  0  0  0  0  0
    6.6714    0.0501   19.9119 C   0  0  0  0  0  0  0  0  0  0  0  0
    5.4480    0.6873   20.1544 C   0  0  0  0  0  0  0  0  0  0  0  0
    4.7993    1.3311   19.0967 C   0  0  0  0  0  0  0  0  0  0  0  0
    5.3895    1.3054   17.8276 C   0  0  0  0  0  0  0  0  0  0  0  0
    6.5550    0.6939   17.5685 N   0  0  0  0  0  0  0  0  0  0  0  0
    7.1690    0.0930   18.5956 C   0  0  0  0  0  0  0  0  0  0  0  0
    8.1090   -0.4090   18.3689 H   0  0  0  0  0  0  0  0  0  0  0  0
    4.9131    1.7949   16.9800 H   0  0  0  0  0  0  0  0  0  0  0  0
    3.8567    1.8466   19.2391 H   0  0  0  0  0  0  0  0  0  0  0  0
    5.0143    0.6481   21.1567 H   0  0  0  0  0  0  0  0  0  0  0  0
    8.2773   -0.1813   21.3979 H   0  0  0  0  0  0  0  0  0  0  0  0
    6.9718   -2.6335   20.0103 H   0  0  0  0  0  0  0  0  0  0  0  0
    8.4597   -2.6917   21.0960 H   0  0  0  0  0  0  0  0  0  0  0  0
    5.6019   -1.7032   21.8026 H   0  0  0  0  0  0  0  0  0  0  0  0
    7.5544   -2.6084   23.5953 H   0  0  0  0  0  0  0  0  0  0  0  0
    7.5839   -1.0307   25.4268 N   0  0  0  0  0  0  0  0  0  0  0  0
    7.3665    0.1860   26.0707 C   0  0  0  0  0  0  0  0  0  0  0  0
    7.6342    0.5656   27.3907 C   0  0  0  0  0  0  0  0  0  0  0  0
    8.0923   -0.1304   28.0853 H   0  0  0  0  0  0  0  0  0  0  0  0
    6.3318    0.7110   23.0830 H   0  0  0  0  0  0  0  0  0  0  0  0
    6.0038    3.1167   24.8658 H   0  0  0  0  0  0  0  0  0  0  0  0
    6.4709    3.7825   27.2264 H   0  0  0  0  0  0  0  0  0  0  0  0
  1  2  2  0
  2  3  1  0
  2  4  1  0
  4  5  2  0
  5  6  1  0
  6  7  2  0
  7  8  1  0
  8  9  1  0
  9 10  1  0
 10 11  1  0
 11 12  1  0
 12 13  1  0
 13 14  1  0
 14 15  2  0
 15 16  1  0
 16 17  2  0
 17 18  1  0
 18 19  2  0
 19 20  1  0
 17 21  1  0
 16 22  1  0
 15 23  1  0
 13 24  1  1
 12 25  1  0
 12 26  1  0
 11 27  1  1
 10 28  1  0
  9 29  2  0
 29 30  1  0
 30 31  2  0
 31 32  1  0
  8 33  1  0
  6 34  1  0
  5 35  1  0
 31  4  1  0
 30  7  1  0
 13 11  1  0
 19 14  1  0
M  CHG  2   2   1   3  -1
M  END
>  <plip>  (1) 
-0.03571428571428571

>  <filename>  (1) 
[H][c]1[n][c]([H])[c]([C@]2([H])[C]([H])([H])[C@@]2([H])[N]([H])[c]2[n][c]3[c]([H])[c]([N+](=[O])[O-])[c]([H])[c]([H])[c]3[n]2[H])[c]([H])[c]1[H]

$$$$
