
     RDKit          3D

 37 38  0  0  0  0  0  0  0  0999 V2000
    5.2723    2.2054   16.5416 H   0  0  0  0  0  0  0  0  0  0  0  0
    5.7383    1.6718   17.3699 C   0  0  0  0  0  0  0  0  0  0  0  0
    6.9019    1.0611   17.1008 N   0  0  0  0  0  0  0  0  0  0  0  0
    7.4883    0.3720   18.0864 C   0  0  0  0  0  0  0  0  0  0  0  0
    8.4201   -0.1332   17.8307 H   0  0  0  0  0  0  0  0  0  0  0  0
    6.9452    0.2353   19.3771 C   0  0  0  0  0  0  0  0  0  0  0  0
    7.5844   -0.5812   20.3786 C   0  0  0  0  0  0  0  0  0  0  0  0
    6.9820   -1.6583   21.1414 C   0  0  0  0  0  0  0  0  0  0  0  0
    5.9414   -2.2286   20.8842 O   0  0  0  0  0  0  0  0  0  0  0  0
    5.8416   -2.8708   23.5645 O   0  0  0  0  0  0  0  0  0  0  0  0
    5.1428   -3.8813   23.2427 C   0  0  0  0  0  0  0  0  0  0  0  0
    5.6199   -4.5590   22.4489 H   0  0  0  0  0  0  0  0  0  0  0  0
    4.1263   -3.6020   22.7880 H   0  0  0  0  0  0  0  0  0  0  0  0
    4.7638   -4.8264   24.4707 C   0  0  0  0  0  0  0  0  0  0  0  0
    4.2477   -5.7197   24.1032 H   0  0  0  0  0  0  0  0  0  0  0  0
    4.0360   -4.2935   25.0976 H   0  0  0  0  0  0  0  0  0  0  0  0
    5.9584   -5.2155   25.3371 C   0  0  0  0  0  0  0  0  0  0  0  0
    6.6673   -5.8088   24.7329 H   0  0  0  0  0  0  0  0  0  0  0  0
    6.4912   -4.3045   25.6838 H   0  0  0  0  0  0  0  0  0  0  0  0
    5.5745   -6.0608   26.4667 N   0  0  0  0  0  0  0  0  0  0  0  0
    4.6305   -5.4485   27.3901 C   0  0  0  0  0  0  0  0  0  0  0  0
    4.4676   -6.1287   28.2313 H   0  0  0  0  0  0  0  0  0  0  0  0
    4.9726   -4.4802   27.8010 H   0  0  0  0  0  0  0  0  0  0  0  0
    3.6551   -5.2877   26.9256 H   0  0  0  0  0  0  0  0  0  0  0  0
    6.7645   -6.4933   27.1836 C   0  0  0  0  0  0  0  0  0  0  0  0
    7.4407   -6.9813   26.4792 H   0  0  0  0  0  0  0  0  0  0  0  0
    6.4939   -7.1983   27.9795 H   0  0  0  0  0  0  0  0  0  0  0  0
    7.3316   -5.6582   27.6395 H   0  0  0  0  0  0  0  0  0  0  0  0
    8.0158   -1.9537   22.1705 C   0  0  0  0  0  0  0  0  0  0  0  0
    7.9110   -2.6221   22.9922 H   0  0  0  0  0  0  0  0  0  0  0  0
    9.0990   -1.2614   21.9291 N   0  0  0  0  0  0  0  0  0  0  0  0
    8.8365   -0.4858   20.8590 N   0  0  0  0  0  0  0  0  0  0  0  0
    9.5301    0.1915   20.5919 H   0  0  0  0  0  0  0  0  0  0  0  0
    5.7216    0.8800   19.6391 C   0  0  0  0  0  0  0  0  0  0  0  0
    5.2629    0.7816   20.6246 H   0  0  0  0  0  0  0  0  0  0  0  0
    5.1237    1.6292   18.6254 C   0  0  0  0  0  0  0  0  0  0  0  0
    4.2040    2.1773   18.7859 H   0  0  0  0  0  0  0  0  0  0  0  0
  1  2  1  0
  2  3  2  0
  3  4  1  0
  4  5  1  0
  4  6  2  0
  6  7  1  0
  7  8  2  0
  8  9  1  0
  9 10  1  0
 10 11  1  0
 11 12  1  0
 11 13  1  0
 11 14  1  0
 14 15  1  0
 14 16  1  0
 14 17  1  0
 17 18  1  0
 17 19  1  0
 17 20  1  0
 20 21  1  0
 21 22  1  0
 21 23  1  0
 21 24  1  0
 20 25  1  0
 25 26  1  0
 25 27  1  0
 25 28  1  0
  8 29  1  0
 29 30  1  0
 29 31  2  0
 31 32  1  0
 32 33  1  0
  6 34  1  0
 34 35  1  0
 34 36  2  0
 36 37  1  0
 36  2  1  0
 32  7  1  0
M  END
>  <plip>  (1) 
-0.10714285714285714

>  <filename>  (1) 
[H][c]1[n][c]([H])[c](-[c]2[c]([O][O][C]([H])([H])[C]([H])([H])[C]([H])([H])[N]([C]([H])([H])[H])[C]([H])([H])[H])[c]([H])[n][n]2[H])[c]([H])[c]1[H]

$$$$
