
     RDKit          3D

 34 35  0  0  0  0  0  0  0  0999 V2000
    8.0039   -6.8560   26.3440 O   0  0  0  0  0  0  0  0  0  0  0  0
    6.8742   -6.0904   26.7705 C   0  0  0  0  0  0  0  0  0  0  0  0
    7.2027   -4.6431   26.4923 C   0  0  0  0  0  0  0  0  0  0  0  0
    8.1393   -3.9527   27.2751 C   0  0  0  0  0  0  0  0  0  0  0  0
    8.5003   -2.6566   26.8974 C   0  0  0  0  0  0  0  0  0  0  0  0
    7.9365   -2.1252   25.7331 C   0  0  0  0  0  0  0  0  0  0  0  0
    7.0173   -2.8917   25.0107 C   0  0  0  0  0  0  0  0  0  0  0  0
    6.4332   -2.4523   23.6990 C   0  0  0  0  0  0  0  0  0  0  0  0
    7.4178   -3.1168   22.3022 S   0  0  0  0  0  0  0  0  0  0  0  0
    6.7309   -2.0853   20.9897 C   0  0  0  0  0  0  0  0  0  0  0  0
    7.3344   -0.6787   20.9003 C   0  0  0  0  0  0  0  0  0  0  0  0
    6.6692    0.1071   19.7910 C   0  0  0  0  0  0  0  0  0  0  0  0
    5.4452    0.7614   20.0092 C   0  0  0  0  0  0  0  0  0  0  0  0
    4.8187    1.4061   18.9440 C   0  0  0  0  0  0  0  0  0  0  0  0
    5.4230    1.3638   17.6851 C   0  0  0  0  0  0  0  0  0  0  0  0
    6.5821    0.7322   17.4429 N   0  0  0  0  0  0  0  0  0  0  0  0
    7.1788    0.1283   18.4802 C   0  0  0  0  0  0  0  0  0  0  0  0
    8.1196   -0.3750   18.2468 H   0  0  0  0  0  0  0  0  0  0  0  0
    4.9526    1.8526   16.8353 H   0  0  0  0  0  0  0  0  0  0  0  0
    3.8852    1.9452   19.0769 H   0  0  0  0  0  0  0  0  0  0  0  0
    4.9864    0.7606   21.0007 H   0  0  0  0  0  0  0  0  0  0  0  0
    8.4167   -0.7553   20.7425 H   0  0  0  0  0  0  0  0  0  0  0  0
    7.2036   -0.1604   21.8604 H   0  0  0  0  0  0  0  0  0  0  0  0
    5.6435   -2.0255   21.1136 H   0  0  0  0  0  0  0  0  0  0  0  0
    6.9118   -2.6185   20.0556 H   0  0  0  0  0  0  0  0  0  0  0  0
    5.4103   -2.8292   23.6362 H   0  0  0  0  0  0  0  0  0  0  0  0
    6.4134   -1.3604   23.6372 H   0  0  0  0  0  0  0  0  0  0  0  0
    6.6247   -4.1049   25.4106 N   0  0  0  0  0  0  0  0  0  0  0  0
    8.2101   -1.1408   25.3704 H   0  0  0  0  0  0  0  0  0  0  0  0
    9.2043   -2.0769   27.4882 H   0  0  0  0  0  0  0  0  0  0  0  0
    8.6096   -4.4603   28.1133 H   0  0  0  0  0  0  0  0  0  0  0  0
    6.6770   -6.2163   27.8510 H   0  0  0  0  0  0  0  0  0  0  0  0
    5.9674   -6.3560   26.2114 H   0  0  0  0  0  0  0  0  0  0  0  0
    7.7860   -7.7995   26.4704 H   0  0  0  0  0  0  0  0  0  0  0  0
  1  2  1  0
  2  3  1  0
  3  4  2  0
  4  5  1  0
  5  6  2  0
  6  7  1  0
  7  8  1  0
  8  9  1  0
  9 10  1  0
 10 11  1  0
 11 12  1  0
 12 13  2  0
 13 14  1  0
 14 15  2  0
 15 16  1  0
 16 17  2  0
 17 18  1  0
 15 19  1  0
 14 20  1  0
 13 21  1  0
 11 22  1  0
 11 23  1  0
 10 24  1  0
 10 25  1  0
  8 26  1  0
  8 27  1  0
  7 28  2  0
  6 29  1  0
  5 30  1  0
  4 31  1  0
  2 32  1  0
  2 33  1  0
  1 34  1  0
 28  3  1  0
 17 12  1  0
M  END
>  <plip>  (1) 
-0.07142857142857142

>  <filename>  (1) 
[H][O][C]([H])([H])[c]1[n][c]([C]([H])([H])[S][C]([H])([H])[C]([H])([H])[c]2[c]([H])[n][c]([H])[c]([H])[c]2[H])[c]([H])[c]([H])[c]1[H]

$$$$
