
     RDKit          3D

 27 29  0  0  0  0  0  0  0  0999 V2000
    4.9780    1.8231   16.9816 H   0  0  0  0  0  0  0  0  0  0  0  0
    5.4277    1.2993   17.8209 C   0  0  0  0  0  0  0  0  0  0  0  0
    6.5792    0.6526   17.5672 N   0  0  0  0  0  0  0  0  0  0  0  0
    7.1586    0.0008   18.5825 C   0  0  0  0  0  0  0  0  0  0  0  0
    8.0911   -0.5210   18.3667 H   0  0  0  0  0  0  0  0  0  0  0  0
    6.6348   -0.0505   19.8962 C   0  0  0  0  0  0  0  0  0  0  0  0
    7.3286   -0.7935   20.9124 N   0  0  0  0  0  0  0  0  0  0  0  0
    8.3156   -0.5434   21.0186 H   0  0  0  0  0  0  0  0  0  0  0  0
    6.8710   -0.7308   22.5643 S   0  0  0  0  0  4  0  0  0  0  0  0
    8.1412   -0.1992   23.1319 O   0  0  0  0  0  0  0  0  0  0  0  0
    6.7193   -2.5316   22.8978 C   0  0  0  0  0  0  0  0  0  0  0  0
    7.6105   -3.3996   22.5823 N   0  0  0  0  0  0  0  0  0  0  0  0
    7.1177   -4.6829   22.7500 C   0  0  0  0  0  0  0  0  0  0  0  0
    7.8039   -5.8566   22.3927 C   0  0  0  0  0  0  0  0  0  0  0  0
    8.8288   -5.7673   22.0593 H   0  0  0  0  0  0  0  0  0  0  0  0
    7.1439   -7.0769   22.4629 C   0  0  0  0  0  0  0  0  0  0  0  0
    7.6643   -7.9952   22.1929 H   0  0  0  0  0  0  0  0  0  0  0  0
    5.8062   -7.1343   22.9146 C   0  0  0  0  0  0  0  0  0  0  0  0
    5.3160   -8.0985   22.9589 H   0  0  0  0  0  0  0  0  0  0  0  0
    5.1352   -5.9885   23.3400 C   0  0  0  0  0  0  0  0  0  0  0  0
    4.1248   -6.0437   23.7395 H   0  0  0  0  0  0  0  0  0  0  0  0
    5.8036   -4.7605   23.2501 C   0  0  0  0  0  0  0  0  0  0  0  0
    5.2373   -3.1512   23.5870 S   0  0  0  0  0  0  0  0  0  0  0  0
    5.4320    0.6227   20.1399 C   0  0  0  0  0  0  0  0  0  0  0  0
    5.0081    0.6093   21.1446 H   0  0  0  0  0  0  0  0  0  0  0  0
    4.8235    1.3064   19.0825 C   0  0  0  0  0  0  0  0  0  0  0  0
    3.8977    1.8500   19.2324 H   0  0  0  0  0  0  0  0  0  0  0  0
  1  2  1  0
  2  3  2  0
  3  4  1  0
  4  5  1  0
  4  6  2  0
  6  7  1  0
  7  8  1  0
  9  7  1  1
  9 10  2  0
  9 11  1  0
 11 12  2  0
 12 13  1  0
 13 14  2  0
 14 15  1  0
 14 16  1  0
 16 17  1  0
 16 18  2  0
 18 19  1  0
 18 20  1  0
 20 21  1  0
 20 22  2  0
 22 23  1  0
  6 24  1  0
 24 25  1  0
 24 26  2  0
 26 27  1  0
 26  2  1  0
 23 11  1  0
 22 13  1  0
M  END
>  <plip>  (1) 
-0.06666666666666667

>  <filename>  (1) 
[H][c]1[n][c]([H])[c]([N]([H])[S@@](=[O])[c]2[n][c]3[c]([H])[c]([H])[c]([H])[c]([H])[c]3[s]2)[c]([H])[c]1[H]

$$$$
