
     RDKit          3D

 34 36  0  0  0  0  0  0  0  0999 V2000
    4.8799    1.8306   16.9291 H   0  0  0  0  0  0  0  0  0  0  0  0
    5.3383    1.3445   17.7741 C   0  0  0  0  0  0  0  0  0  0  0  0
    6.5000    0.7424   17.4989 N   0  0  0  0  0  0  0  0  0  0  0  0
    7.1505    0.1981   18.5223 C   0  0  0  0  0  0  0  0  0  0  0  0
    8.0644   -0.3174   18.2599 H   0  0  0  0  0  0  0  0  0  0  0  0
    6.6512    0.1912   19.8595 C   0  0  0  0  0  0  0  0  0  0  0  0
    7.3353   -0.6792   20.9526 N   0  0  0  0  0  0  0  0  0  0  0  0
    7.5549   -0.3776   22.2568 C   0  0  0  0  0  0  0  0  0  0  0  0
    7.1116    0.7598   22.6765 O   0  0  0  0  0  0  0  0  0  0  0  0
    7.1977    1.2188   24.0712 C   0  0  0  0  0  0  0  0  0  0  0  0
    8.2084    1.0396   24.4482 H   0  0  0  0  0  0  0  0  0  0  0  0
    6.1944    0.4591   24.9453 C   0  0  0  0  0  0  0  0  0  0  0  0
    5.1822    0.5969   24.5287 H   0  0  0  0  0  0  0  0  0  0  0  0
    6.4370   -0.6081   24.9105 H   0  0  0  0  0  0  0  0  0  0  0  0
    6.1857    0.9757   26.4050 C   0  0  0  0  0  0  0  0  0  0  0  0
    7.1518    0.7706   26.8868 H   0  0  0  0  0  0  0  0  0  0  0  0
    5.4306    0.4519   27.0124 H   0  0  0  0  0  0  0  0  0  0  0  0
    5.9415    2.4150   26.5045 N   0  0  0  0  0  0  0  0  0  0  0  0
    5.0162    2.5884   26.1133 H   0  0  0  0  0  0  0  0  0  0  0  0
    6.8983    3.1782   25.7026 C   0  0  0  0  0  0  0  0  0  0  0  0
    7.8851    3.0515   26.1677 H   0  0  0  0  0  0  0  0  0  0  0  0
    6.6570    4.2474   25.8214 H   0  0  0  0  0  0  0  0  0  0  0  0
    6.9273    2.7411   24.2077 C   0  0  0  0  0  0  0  0  0  0  0  0
    5.9497    3.0037   23.7735 H   0  0  0  0  0  0  0  0  0  0  0  0
    7.6843    3.3312   23.6760 H   0  0  0  0  0  0  0  0  0  0  0  0
    8.2826   -1.1599   23.1850 N   0  0  0  0  0  0  0  0  0  0  0  0
    8.8103   -2.2516   22.9979 N   0  0  0  0  0  0  0  0  0  0  0  0
    9.1439   -3.0947   22.5970 H   0  0  0  0  0  0  0  0  0  0  0  0
    7.8324   -2.0065   20.5109 C   0  0  0  0  0  0  0  0  0  0  0  0
    7.8324   -2.0064   20.5109 O   0  0  0  0  0  0  0  0  0  0  0  0
    5.4028    0.7489   20.1365 C   0  0  0  0  0  0  0  0  0  0  0  0
    4.9955    0.6534   21.1644 H   0  0  0  0  0  0  0  0  0  0  0  0
    4.7401    1.3609   19.0411 C   0  0  0  0  0  0  0  0  0  0  0  0
    3.7980    1.8846   19.2056 H   0  0  0  0  0  0  0  0  0  0  0  0
  1  2  1  0
  2  3  2  0
  3  4  1  0
  4  5  1  0
  4  6  2  0
  6  7  1  0
  7  8  1  0
  8  9  1  0
  9 10  1  0
 10 11  1  0
 10 12  1  0
 12 13  1  0
 12 14  1  0
 12 15  1  0
 15 16  1  0
 15 17  1  0
 15 18  1  0
 18 19  1  0
 18 20  1  0
 20 21  1  0
 20 22  1  0
 20 23  1  0
 23 24  1  0
 23 25  1  0
  8 26  2  0
 26 27  1  0
 27 28  1  0
 27 29  1  0
 29 30  2  0
  6 31  1  0
 31 32  1  0
 31 33  2  0
 33 34  1  0
 33  2  1  0
 29  7  1  0
 23 10  1  0
M  END
>  <plip>  (1) 
-0.0

>  <filename>  (1) 
[H][c]1[n][c]([H])[c](-[n]2[c]([O][C]3([H])[C]([H])([H])[C]([H])([H])[N]([H])[C]([H])([H])[C]3([H])[H])[n][n]([H])[c]2=[O])[c]([H])[c]1[H]

$$$$
