
     RDKit          3D

 26 27  0  0  0  0  0  0  0  0999 V2000
    6.5434    0.1713   24.9402 O   0  0  0  0  0  0  0  0  0  0  0  0
    6.6743    1.0885   24.1513 C   0  0  0  0  0  0  0  0  0  0  0  0
    6.3400    2.5359   24.5831 C   0  0  0  0  0  0  0  0  0  0  0  0
    5.0939    3.0862   24.1501 O   0  0  0  0  0  0  0  0  0  0  0  0
    4.3612    2.6488   24.6065 H   0  0  0  0  0  0  0  0  0  0  0  0
    6.4316    2.5154   25.6758 H   0  0  0  0  0  0  0  0  0  0  0  0
    7.0988    3.2197   24.1884 H   0  0  0  0  0  0  0  0  0  0  0  0
    7.1470    0.9313   22.8739 N   0  0  0  0  0  0  0  0  0  0  0  0
    7.5515   -0.3007   22.3472 C   0  0  0  0  0  0  0  0  0  0  0  0
    7.3824   -0.6599   21.0287 C   0  0  0  0  0  0  0  0  0  0  0  0
    6.6657    0.0238   19.9245 C   0  0  0  0  0  0  0  0  0  0  0  0
    5.4354    0.6641   20.1515 C   0  0  0  0  0  0  0  0  0  0  0  0
    4.7941    1.3139   19.0933 C   0  0  0  0  0  0  0  0  0  0  0  0
    5.3930    1.2963   17.8321 C   0  0  0  0  0  0  0  0  0  0  0  0
    6.5567    0.6745   17.5788 N   0  0  0  0  0  0  0  0  0  0  0  0
    7.1680    0.0599   18.5998 C   0  0  0  0  0  0  0  0  0  0  0  0
    8.1177   -0.4172   18.3567 H   0  0  0  0  0  0  0  0  0  0  0  0
    4.9303    1.7995   16.9851 H   0  0  0  0  0  0  0  0  0  0  0  0
    3.8625    1.8443   19.2374 H   0  0  0  0  0  0  0  0  0  0  0  0
    5.0019    0.6381   21.1486 H   0  0  0  0  0  0  0  0  0  0  0  0
    8.1290   -2.1878   20.7746 S   0  0  0  0  0  0  0  0  0  0  0  0
    8.6523   -2.3271   22.3958 C   0  0  0  0  0  0  0  0  0  0  0  0
    8.2686   -1.2521   23.1324 C   0  0  0  0  0  0  0  0  0  0  0  0
    8.4513   -1.0886   24.1904 H   0  0  0  0  0  0  0  0  0  0  0  0
    9.2043   -3.2121   22.6938 H   0  0  0  0  0  0  0  0  0  0  0  0
    7.0488    1.6790   22.2033 H   0  0  0  0  0  0  0  0  0  0  0  0
  1  2  2  0
  2  3  1  0
  3  4  1  0
  4  5  1  0
  3  6  1  0
  3  7  1  0
  2  8  1  0
  8  9  1  0
  9 10  2  0
 10 11  1  0
 11 12  2  0
 12 13  1  0
 13 14  2  0
 14 15  1  0
 15 16  2  0
 16 17  1  0
 14 18  1  0
 13 19  1  0
 12 20  1  0
 10 21  1  0
 21 22  1  0
 22 23  2  0
 23 24  1  0
 22 25  1  0
  8 26  1  0
 23  9  1  0
 16 11  1  0
M  END
>  <plip>  (1) 
-0.03571428571428571

>  <filename>  (1) 
[H][O][C]([H])([H])[C](=[O])[N]([H])[c]1[c](-[c]2[c]([H])[n][c]([H])[c]([H])[c]2[H])[s][c]([H])[c]1[H]

$$$$
