
     RDKit          3D

 40 41  0  0  0  0  0  0  0  0999 V2000
   11.7310    8.1102   26.3373 F   0  0  0  0  0  0  0  0  0  0  0  0
   12.2773    6.9348   25.9566 C   0  0  0  0  0  0  0  0  0  0  0  0
   13.0370    7.1816   24.8827 F   0  0  0  0  0  0  0  0  0  0  0  0
   13.1030    6.5578   26.9508 F   0  0  0  0  0  0  0  0  0  0  0  0
   11.1712    5.8831   25.6767 C   0  0  0  0  0  0  0  0  0  0  0  0
    9.9392    5.9349   26.3570 C   0  0  0  0  0  0  0  0  0  0  0  0
    8.9640    4.9824   26.0377 C   0  0  0  0  0  0  0  0  0  0  0  0
    9.2368    4.0327   25.0653 C   0  0  0  0  0  0  0  0  0  0  0  0
   10.5153    4.0272   24.4951 C   0  0  0  0  0  0  0  0  0  0  0  0
   10.9622    3.0995   23.6239 N   0  0  0  0  0  0  0  0  0  0  0  0
   10.2812    1.9039   23.2131 C   0  0  0  0  0  0  0  0  0  0  0  0
    9.1569    2.2099   22.2107 C   0  0  0  0  0  0  0  0  0  0  0  0
    8.0434    1.1759   22.1894 C   0  0  0  0  0  0  0  0  0  0  0  0
    8.4678   -0.0182   21.3706 N   0  0  0  0  0  4  0  0  0  0  0  0
    7.3327   -0.8817   20.9589 C   0  0  0  0  0  0  0  0  0  0  0  0
    6.6118   -0.1517   19.8545 C   0  0  0  0  0  0  0  0  0  0  0  0
    5.4047    0.5250   20.0654 C   0  0  0  0  0  0  0  0  0  0  0  0
    4.8666    1.2840   19.0214 C   0  0  0  0  0  0  0  0  0  0  0  0
    5.5509    1.3268   17.8040 C   0  0  0  0  0  0  0  0  0  0  0  0
    6.7047    0.6781   17.5826 N   0  0  0  0  0  0  0  0  0  0  0  0
    7.2216   -0.0244   18.5970 C   0  0  0  0  0  0  0  0  0  0  0  0
    8.1643   -0.5303   18.3781 H   0  0  0  0  0  0  0  0  0  0  0  0
    5.1520    1.8986   16.9681 H   0  0  0  0  0  0  0  0  0  0  0  0
    3.9534    1.8564   19.1449 H   0  0  0  0  0  0  0  0  0  0  0  0
    4.9227    0.4816   21.0455 H   0  0  0  0  0  0  0  0  0  0  0  0
    7.6926   -1.8565   20.6219 H   0  0  0  0  0  0  0  0  0  0  0  0
    6.6499   -1.0532   21.8009 H   0  0  0  0  0  0  0  0  0  0  0  0
    8.8713    0.3669   20.4823 H   0  0  0  0  0  0  0  0  0  0  0  0
    9.2059   -0.5208   21.9054 H   0  0  0  0  0  0  0  0  0  0  0  0
    7.1270    1.5841   21.7582 H   0  0  0  0  0  0  0  0  0  0  0  0
    7.7612    0.8704   23.2090 H   0  0  0  0  0  0  0  0  0  0  0  0
    8.7166    3.1787   22.4639 H   0  0  0  0  0  0  0  0  0  0  0  0
    9.5878    2.3518   21.2100 H   0  0  0  0  0  0  0  0  0  0  0  0
    9.8681    1.3773   24.0920 H   0  0  0  0  0  0  0  0  0  0  0  0
   11.0292    1.2282   22.7849 H   0  0  0  0  0  0  0  0  0  0  0  0
   11.9175    3.3401   23.4261 H   0  0  0  0  0  0  0  0  0  0  0  0
   11.4624    4.9220   24.7889 N   0  0  0  0  0  0  0  0  0  0  0  0
    8.5366    3.2882   24.7282 H   0  0  0  0  0  0  0  0  0  0  0  0
    7.9828    5.0062   26.5117 H   0  0  0  0  0  0  0  0  0  0  0  0
    9.7279    6.6777   27.1136 H   0  0  0  0  0  0  0  0  0  0  0  0
  1  2  1  0
  2  3  1  0
  2  4  1  0
  2  5  1  0
  5  6  2  0
  6  7  1  0
  7  8  2  0
  8  9  1  0
  9 10  1  0
 10 11  1  0
 11 12  1  0
 12 13  1  0
 13 14  1  0
 14 15  1  0
 15 16  1  0
 16 17  2  0
 17 18  1  0
 18 19  2  0
 19 20  1  0
 20 21  2  0
 21 22  1  0
 19 23  1  0
 18 24  1  0
 17 25  1  0
 15 26  1  0
 15 27  1  0
 14 28  1  0
 14 29  1  0
 13 30  1  0
 13 31  1  0
 12 32  1  0
 12 33  1  0
 11 34  1  0
 11 35  1  0
 10 36  1  0
  9 37  2  0
  8 38  1  0
  7 39  1  0
  6 40  1  0
 37  5  1  0
 21 16  1  0
M  CHG  1  14   1
M  END
>  <plip>  (1) 
-0.10714285714285714

>  <filename>  (1) 
[H][c]1[n][c]([H])[c]([C]([H])([H])[N+]([H])([H])[C]([H])([H])[C]([H])([H])[C]([H])([H])[N]([H])[c]2[n][c]([C]([F])([F])[F])[c]([H])[c]([H])[c]2[H])[c]([H])[c]1[H]

$$$$
