
     RDKit          3D

 28 28  0  0  0  0  0  0  0  0999 V2000
    4.9103    1.7842   16.9933 H   0  0  0  0  0  0  0  0  0  0  0  0
    5.3997    1.2967   17.8324 C   0  0  0  0  0  0  0  0  0  0  0  0
    6.5621    0.6851   17.5603 N   0  0  0  0  0  0  0  0  0  0  0  0
    7.1622    0.0619   18.5807 C   0  0  0  0  0  0  0  0  0  0  0  0
    8.1134   -0.4224   18.3657 H   0  0  0  0  0  0  0  0  0  0  0  0
    6.6490   -0.0100   19.8861 C   0  0  0  0  0  0  0  0  0  0  0  0
    7.3937   -0.6975   21.0056 C   0  0  0  0  0  0  0  0  0  0  0  0
    6.6857   -1.2662   21.6246 H   0  0  0  0  0  0  0  0  0  0  0  0
    8.1137   -1.4198   20.5995 H   0  0  0  0  0  0  0  0  0  0  0  0
    8.1328    0.3003   21.9064 C   0  0  1  0  0  0  0  0  0  0  0  0
    7.4272    1.0487   22.2875 H   0  0  0  0  0  0  0  0  0  0  0  0
    8.6194   -0.4111   23.0022 F   0  0  0  0  0  0  0  0  0  0  0  0
    9.2961    0.9950   21.2174 C   0  0  0  0  0  0  0  0  0  0  0  0
    8.8985    1.5273   20.3506 H   0  0  0  0  0  0  0  0  0  0  0  0
    9.9985    0.2417   20.8445 H   0  0  0  0  0  0  0  0  0  0  0  0
   10.0442    1.9733   22.1011 C   0  0  0  0  0  0  0  0  0  0  0  0
   10.4005    1.4373   22.9848 H   0  0  0  0  0  0  0  0  0  0  0  0
   10.9413    2.3467   21.5732 H   0  0  0  0  0  0  0  0  0  0  0  0
    9.1750    3.0523   22.5421 N   0  0  0  0  0  0  0  0  0  0  0  0
    8.9357    3.6020   21.7191 H   0  0  0  0  0  0  0  0  0  0  0  0
    9.8482    3.9419   23.4760 C   0  0  0  0  0  0  0  0  0  0  0  0
   10.7883    4.3715   23.0882 H   0  0  0  0  0  0  0  0  0  0  0  0
    9.1892    4.7600   23.7764 H   0  0  0  0  0  0  0  0  0  0  0  0
   10.0964    3.3837   24.3828 H   0  0  0  0  0  0  0  0  0  0  0  0
    5.4413    0.6488   20.1488 C   0  0  0  0  0  0  0  0  0  0  0  0
    5.0156    0.6316   21.1615 H   0  0  0  0  0  0  0  0  0  0  0  0
    4.8042    1.3118   19.1012 C   0  0  0  0  0  0  0  0  0  0  0  0
    3.8707    1.8465   19.2581 H   0  0  0  0  0  0  0  0  0  0  0  0
  1  2  1  0
  2  3  2  0
  3  4  1  0
  4  5  1  0
  4  6  2  0
  6  7  1  0
  7  8  1  0
  7  9  1  0
  7 10  1  0
 10 11  1  1
 10 12  1  0
 10 13  1  0
 13 14  1  0
 13 15  1  0
 13 16  1  0
 16 17  1  0
 16 18  1  0
 16 19  1  0
 19 20  1  0
 19 21  1  0
 21 22  1  0
 21 23  1  0
 21 24  1  0
  6 25  1  0
 25 26  1  0
 25 27  2  0
 27 28  1  0
 27  2  1  0
M  END
>  <plip>  (1) 
-0.10714285714285714

>  <filename>  (1) 
[H][c]1[n][c]([H])[c]([C]([H])([H])[C@@]([H])([F])[C]([H])([H])[C]([H])([H])[N]([H])[C]([H])([H])[H])[c]([H])[c]1[H]

$$$$
