
     RDKit          3D

 44 46  0  0  0  0  0  0  0  0999 V2000
    9.5983   -0.0885   20.9137 C   0  0  0  0  0  0  0  0  0  0  0  0
    8.4971   -1.1568   20.9828 C   0  0  0  0  0  0  0  0  0  0  0  0
    7.2180   -0.5059   21.0884 O   0  0  0  0  0  0  0  0  0  0  0  0
    6.6658    0.0538   19.9587 C   0  0  0  0  0  0  0  0  0  0  0  0
    5.4405    0.6923   20.1231 C   0  0  0  0  0  0  0  0  0  0  0  0
    4.8512    1.3058   19.0192 C   0  0  0  0  0  0  0  0  0  0  0  0
    5.4926    1.2670   17.7772 C   0  0  0  0  0  0  0  0  0  0  0  0
    6.6649    0.6266   17.5941 N   0  0  0  0  0  0  0  0  0  0  0  0
    7.2353    0.0332   18.6658 C   0  0  0  0  0  0  0  0  0  0  0  0
    8.1815   -0.4814   18.5216 H   0  0  0  0  0  0  0  0  0  0  0  0
    5.0270    1.7730   16.9374 H   0  0  0  0  0  0  0  0  0  0  0  0
    3.9068    1.8283   19.1193 H   0  0  0  0  0  0  0  0  0  0  0  0
    4.9761    0.7117   21.1068 H   0  0  0  0  0  0  0  0  0  0  0  0
    8.6915   -2.1358   22.1655 C   0  0  0  0  0  0  0  0  0  0  0  0
    8.9875   -3.3051   21.9512 O   0  0  0  0  0  0  0  0  0  0  0  0
    8.4669   -1.7408   23.4761 N   0  0  0  0  0  0  0  0  0  0  0  0
    8.4505   -2.6371   24.6392 C   0  0  0  0  0  0  0  0  0  0  0  0
    8.0342   -1.8226   25.8602 C   0  0  0  0  0  0  0  0  0  0  0  0
    7.3940   -2.8143   26.8302 C   0  0  0  0  0  0  0  0  0  0  0  0
    6.9402   -3.9074   25.9681 N   0  0  0  0  0  0  0  0  0  0  0  0
    6.0130   -4.8694   26.4080 C   0  0  0  0  0  0  0  0  0  0  0  0
    6.4900   -6.1173   26.8160 C   0  0  0  0  0  0  0  0  0  0  0  0
    5.6346   -7.1013   27.3276 C   0  0  0  0  0  0  0  0  0  0  0  0
    4.2675   -6.8514   27.4203 C   0  0  0  0  0  0  0  0  0  0  0  0
    3.7662   -5.6014   27.0208 C   0  0  0  0  0  0  0  0  0  0  0  0
    4.6366   -4.5972   26.5399 C   0  0  0  0  0  0  0  0  0  0  0  0
    3.9347   -2.8374   26.2046 Br  0  0  0  0  0  0  0  0  0  0  0  0
    2.6996   -5.4056   27.1082 H   0  0  0  0  0  0  0  0  0  0  0  0
    3.6140   -7.6290   27.8143 H   0  0  0  0  0  0  0  0  0  0  0  0
    6.0354   -8.0553   27.6520 H   0  0  0  0  0  0  0  0  0  0  0  0
    7.5491   -6.3046   26.7574 H   0  0  0  0  0  0  0  0  0  0  0  0
    7.4049   -3.7634   24.5760 C   0  0  0  0  0  0  0  0  0  0  0  0
    6.5798   -3.4671   23.9228 H   0  0  0  0  0  0  0  0  0  0  0  0
    7.8554   -4.6838   24.1923 H   0  0  0  0  0  0  0  0  0  0  0  0
    8.1379   -3.1837   27.5451 H   0  0  0  0  0  0  0  0  0  0  0  0
    6.5674   -2.3459   27.3773 H   0  0  0  0  0  0  0  0  0  0  0  0
    7.2936   -1.0713   25.5666 H   0  0  0  0  0  0  0  0  0  0  0  0
    8.8877   -1.3069   26.3135 H   0  0  0  0  0  0  0  0  0  0  0  0
    9.4405   -3.0733   24.8210 H   0  0  0  0  0  0  0  0  0  0  0  0
    8.0514   -0.8227   23.6070 H   0  0  0  0  0  0  0  0  0  0  0  0
    8.5244   -1.7438   20.0648 H   0  0  0  0  0  0  0  0  0  0  0  0
   10.5858   -0.5554   20.8406 H   0  0  0  0  0  0  0  0  0  0  0  0
    9.4454    0.5384   20.0309 H   0  0  0  0  0  0  0  0  0  0  0  0
    9.5761    0.5563   21.7985 H   0  0  0  0  0  0  0  0  0  0  0  0
  1  2  1  0
  2  3  1  0
  3  4  1  0
  4  5  2  0
  5  6  1  0
  6  7  2  0
  7  8  1  0
  8  9  2  0
  9 10  1  0
  7 11  1  0
  6 12  1  0
  5 13  1  0
  2 14  1  0
 14 15  2  0
 14 16  1  0
 16 17  1  0
 17 18  1  0
 18 19  1  0
 19 20  1  0
 20 21  1  0
 21 22  2  0
 22 23  1  0
 23 24  2  0
 24 25  1  0
 25 26  2  0
 26 27  1  0
 25 28  1  0
 24 29  1  0
 23 30  1  0
 22 31  1  0
 20 32  1  0
 32 33  1  0
 32 34  1  0
 19 35  1  0
 19 36  1  0
 18 37  1  0
 18 38  1  0
 17 39  1  0
 16 40  1  0
  2 41  1  0
  1 42  1  0
  1 43  1  0
  1 44  1  0
  9  4  1  0
 32 17  1  0
 26 21  1  0
M  END
>  <plip>  (1) 
-0.07142857142857142

>  <filename>  (1) 
[H][c]1[n][c]([H])[c]([O][C]([H])([C](=[O])[N]([H])[C]2([H])[C]([H])([H])[N]([c]3[c]([H])[c]([H])[c]([H])[c]([H])[c]3[Br])[C]([H])([H])[C]2([H])[H])[C]([H])([H])[H])[c]([H])[c]1[H]

$$$$
