
     RDKit          3D

 39 41  0  0  0  0  0  0  0  0999 V2000
    6.8263   -3.2122   26.6091 C   0  0  0  0  0  0  0  0  0  0  0  0
    7.0868   -4.3442   25.6168 C   0  0  0  0  0  0  0  0  0  0  0  0
    8.3041   -5.2443   25.9568 C   0  0  0  0  0  0  0  0  0  0  0  0
    9.4158   -4.6485   25.1276 C   0  0  0  0  0  0  0  0  0  0  0  0
   10.7889   -4.8327   25.0950 C   0  0  0  0  0  0  0  0  0  0  0  0
   11.5853   -4.1507   24.2599 N   0  0  0  0  0  0  0  0  0  0  0  0
   11.0370   -3.2268   23.4601 C   0  0  0  0  0  0  0  0  0  0  0  0
    9.6783   -2.9404   23.4222 C   0  0  0  0  0  0  0  0  0  0  0  0
    8.8669   -3.7544   24.2128 C   0  0  0  0  0  0  0  0  0  0  0  0
    7.4805   -3.7984   24.2977 N   0  0  0  0  0  0  0  0  0  0  0  0
    6.5631   -3.1827   23.4606 C   0  0  0  0  0  0  0  0  0  0  0  0
    5.4379   -2.8914   23.8233 O   0  0  0  0  0  0  0  0  0  0  0  0
    7.0240   -3.0147   22.1737 N   0  0  0  0  0  0  0  0  0  0  0  0
    6.5423   -2.0781   21.1719 C   0  0  0  0  0  0  0  0  0  0  0  0
    7.3133   -0.7486   20.9719 C   0  0  0  0  0  0  0  0  0  0  0  0
    7.3795   -0.0364   22.1370 F   0  0  0  0  0  0  0  0  0  0  0  0
    8.6158   -1.0487   20.6472 F   0  0  0  0  0  0  0  0  0  0  0  0
    6.6879    0.0890   19.8839 C   0  0  0  0  0  0  0  0  0  0  0  0
    5.4700    0.7499   20.1000 C   0  0  0  0  0  0  0  0  0  0  0  0
    4.8394    1.3519   19.0126 C   0  0  0  0  0  0  0  0  0  0  0  0
    5.4491    1.2911   17.7569 C   0  0  0  0  0  0  0  0  0  0  0  0
    6.6190    0.6731   17.5433 N   0  0  0  0  0  0  0  0  0  0  0  0
    7.2226    0.0999   18.5902 C   0  0  0  0  0  0  0  0  0  0  0  0
    8.1724   -0.3858   18.3767 H   0  0  0  0  0  0  0  0  0  0  0  0
    4.9789    1.7491   16.8868 H   0  0  0  0  0  0  0  0  0  0  0  0
    3.8967    1.8705   19.1256 H   0  0  0  0  0  0  0  0  0  0  0  0
    5.0221    0.7754   21.0939 H   0  0  0  0  0  0  0  0  0  0  0  0
    6.5897   -2.5478   20.1817 H   0  0  0  0  0  0  0  0  0  0  0  0
    5.4954   -1.8230   21.3620 H   0  0  0  0  0  0  0  0  0  0  0  0
    7.8516   -3.5539   21.9847 H   0  0  0  0  0  0  0  0  0  0  0  0
    9.3041   -2.0931   22.8542 H   0  0  0  0  0  0  0  0  0  0  0  0
   11.7251   -2.7020   22.7960 H   0  0  0  0  0  0  0  0  0  0  0  0
   11.2733   -5.5668   25.7418 H   0  0  0  0  0  0  0  0  0  0  0  0
    8.5404   -5.2685   27.0241 H   0  0  0  0  0  0  0  0  0  0  0  0
    8.1004   -6.2768   25.6502 H   0  0  0  0  0  0  0  0  0  0  0  0
    6.1695   -4.9385   25.5247 H   0  0  0  0  0  0  0  0  0  0  0  0
    7.7306   -2.6174   26.7961 H   0  0  0  0  0  0  0  0  0  0  0  0
    6.4750   -3.6444   27.5507 H   0  0  0  0  0  0  0  0  0  0  0  0
    6.0459   -2.5608   26.2032 H   0  0  0  0  0  0  0  0  0  0  0  0
  1  2  1  0
  2  3  1  0
  3  4  1  0
  4  5  2  0
  5  6  1  0
  6  7  2  0
  7  8  1  0
  8  9  2  0
  9 10  1  0
 10 11  1  0
 11 12  2  0
 11 13  1  0
 13 14  1  0
 14 15  1  0
 15 16  1  0
 15 17  1  0
 15 18  1  0
 18 19  2  0
 19 20  1  0
 20 21  2  0
 21 22  1  0
 22 23  2  0
 23 24  1  0
 21 25  1  0
 20 26  1  0
 19 27  1  0
 14 28  1  0
 14 29  1  0
 13 30  1  0
  8 31  1  0
  7 32  1  0
  5 33  1  0
  3 34  1  0
  3 35  1  0
  2 36  1  0
  1 37  1  0
  1 38  1  0
  1 39  1  0
 10  2  1  0
 23 18  1  0
  9  4  1  0
M  END
>  <plip>  (1) 
-0.06896551724137931

>  <filename>  (1) 
[H][c]1[n][c]([H])[c]([C]([F])([F])[C]([H])([H])[N]([H])[C](=[O])[N]2[c]3[c]([H])[c]([H])[n][c]([H])[c]3[C]([H])([H])[C]2([H])[C]([H])([H])[H])[c]([H])[c]1[H]

$$$$
