
     RDKit          3D

 53 54  0  0  0  0  0  0  0  0999 V2000
    5.1327    3.2710   23.5197 C   0  0  0  0  0  0  0  0  0  0  0  0
    5.8619    3.7856   22.2934 C   0  0  0  0  0  0  0  0  0  0  0  0
    7.0455    2.9617   21.9723 N   0  0  0  0  0  0  0  0  0  0  0  0
    8.2825    3.1526   22.6922 C   0  0  0  0  0  0  0  0  0  0  0  0
    8.4652    4.1141   23.6925 C   0  0  0  0  0  0  0  0  0  0  0  0
    9.6700    4.1589   24.4152 C   0  0  0  0  0  0  0  0  0  0  0  0
   10.6850    3.2374   24.1540 C   0  0  0  0  0  0  0  0  0  0  0  0
   10.5028    2.2752   23.1545 C   0  0  0  0  0  0  0  0  0  0  0  0
    9.3265    2.2356   22.4004 C   0  0  0  0  0  0  0  0  0  0  0  0
    9.1006    1.1666   21.3658 C   0  0  0  0  0  0  0  0  0  0  0  0
    7.9161    0.4490   21.8339 N   0  0  0  0  0  4  0  0  0  0  0  0
    7.3912   -0.6423   21.0207 C   0  0  0  0  0  0  0  0  0  0  0  0
    6.6745   -1.5870   21.9857 C   0  0  0  0  0  0  0  0  0  0  0  0
    5.7800   -2.6272   21.3437 C   0  0  0  0  0  0  0  0  0  0  0  0
    6.5571   -3.6028   20.4952 N   0  0  0  0  0  4  0  0  0  0  0  0
    5.6642   -4.3871   19.5966 C   0  0  0  0  0  0  0  0  0  0  0  0
    5.0033   -5.0250   20.2034 H   0  0  0  0  0  0  0  0  0  0  0  0
    5.0208   -3.7282   19.0019 H   0  0  0  0  0  0  0  0  0  0  0  0
    6.2591   -5.0291   18.9373 H   0  0  0  0  0  0  0  0  0  0  0  0
    7.3628   -4.5769   21.3057 C   0  0  0  0  0  0  0  0  0  0  0  0
    6.6790   -5.1792   21.9218 H   0  0  0  0  0  0  0  0  0  0  0  0
    8.0621   -4.0546   21.9643 H   0  0  0  0  0  0  0  0  0  0  0  0
    7.9199   -5.2482   20.6397 H   0  0  0  0  0  0  0  0  0  0  0  0
    7.2009   -3.0241   19.9053 H   0  0  0  0  0  0  0  0  0  0  0  0
    5.0775   -2.1217   20.6853 H   0  0  0  0  0  0  0  0  0  0  0  0
    5.1977   -3.1599   22.1064 H   0  0  0  0  0  0  0  0  0  0  0  0
    6.0970   -0.9818   22.6861 H   0  0  0  0  0  0  0  0  0  0  0  0
    7.4486   -2.0740   22.5838 H   0  0  0  0  0  0  0  0  0  0  0  0
    6.5662   -0.0326   19.9058 C   0  0  0  0  0  0  0  0  0  0  0  0
    5.3455    0.6357   20.0925 C   0  0  0  0  0  0  0  0  0  0  0  0
    4.7908    1.3306   19.0135 C   0  0  0  0  0  0  0  0  0  0  0  0
    5.4583    1.3093   17.7846 C   0  0  0  0  0  0  0  0  0  0  0  0
    6.5964    0.6351   17.5746 N   0  0  0  0  0  0  0  0  0  0  0  0
    7.1265   -0.0085   18.6211 C   0  0  0  0  0  0  0  0  0  0  0  0
    8.0585   -0.5434   18.4286 H   0  0  0  0  0  0  0  0  0  0  0  0
    5.0545    1.8477   16.9287 H   0  0  0  0  0  0  0  0  0  0  0  0
    3.8772    1.9075   19.1146 H   0  0  0  0  0  0  0  0  0  0  0  0
    4.8438    0.6429   21.0648 H   0  0  0  0  0  0  0  0  0  0  0  0
    8.2311   -1.1774   20.5531 H   0  0  0  0  0  0  0  0  0  0  0  0
    7.1789    1.2202   21.9346 H   0  0  0  0  0  0  0  0  0  0  0  0
    8.0846    0.1452   22.8135 H   0  0  0  0  0  0  0  0  0  0  0  0
    8.9205    1.5937   20.3685 H   0  0  0  0  0  0  0  0  0  0  0  0
    9.9716    0.5018   21.2766 H   0  0  0  0  0  0  0  0  0  0  0  0
   11.2760    1.5260   22.9823 H   0  0  0  0  0  0  0  0  0  0  0  0
   11.6088    3.2394   24.7273 H   0  0  0  0  0  0  0  0  0  0  0  0
    9.7983    4.9089   25.1946 H   0  0  0  0  0  0  0  0  0  0  0  0
    7.6533    4.7931   23.9346 H   0  0  0  0  0  0  0  0  0  0  0  0
    7.2504    3.1198   20.9877 H   0  0  0  0  0  0  0  0  0  0  0  0
    6.1206    4.8496   22.4089 H   0  0  0  0  0  0  0  0  0  0  0  0
    5.1894    3.7160   21.4282 H   0  0  0  0  0  0  0  0  0  0  0  0
    5.7696    3.2905   24.4074 H   0  0  0  0  0  0  0  0  0  0  0  0
    4.8162    2.2374   23.3573 H   0  0  0  0  0  0  0  0  0  0  0  0
    4.2450    3.8801   23.7202 H   0  0  0  0  0  0  0  0  0  0  0  0
  1  2  1  0
  2  3  1  0
  3  4  1  0
  4  5  2  0
  5  6  1  0
  6  7  2  0
  7  8  1  0
  8  9  2  0
  9 10  1  0
 10 11  1  0
 11 12  1  0
 12 13  1  0
 13 14  1  0
 14 15  1  0
 15 16  1  0
 16 17  1  0
 16 18  1  0
 16 19  1  0
 15 20  1  0
 20 21  1  0
 20 22  1  0
 20 23  1  0
 15 24  1  0
 14 25  1  0
 14 26  1  0
 13 27  1  0
 13 28  1  0
 12 29  1  0
 29 30  2  0
 30 31  1  0
 31 32  2  0
 32 33  1  0
 33 34  2  0
 34 35  1  0
 32 36  1  0
 31 37  1  0
 30 38  1  0
 12 39  1  0
 11 40  1  0
 11 41  1  0
 10 42  1  0
 10 43  1  0
  8 44  1  0
  7 45  1  0
  6 46  1  0
  5 47  1  0
  3 48  1  0
  2 49  1  0
  2 50  1  0
  1 51  1  0
  1 52  1  0
  1 53  1  0
  9  4  1  0
 34 29  1  0
M  CHG  2  11   1  15   1
M  END
>  <plip>  (1) 
-0.21428571428571427

>  <filename>  (1) 
[H][c]1[n][c]([H])[c]([C]([H])([C]([H])([H])[C]([H])([H])[N+]([H])([C]([H])([H])[H])[C]([H])([H])[H])[N+]([H])([H])[C]([H])([H])[c]2[c]([H])[c]([H])[c]([H])[c]([H])[c]2[N]([H])[C]([H])([H])[C]([H])([H])[H])[c]([H])[c]1[H]

$$$$
