
     RDKit          3D

 34 35  0  0  0  0  0  0  0  0999 V2000
    4.9911    1.7919   16.9841 H   0  0  0  0  0  0  0  0  0  0  0  0
    5.4392    1.2765   17.8332 C   0  0  0  0  0  0  0  0  0  0  0  0
    6.6003    0.6491   17.5947 N   0  0  0  0  0  0  0  0  0  0  0  0
    7.1811    0.0193   18.6238 C   0  0  0  0  0  0  0  0  0  0  0  0
    8.1387   -0.4493   18.4157 H   0  0  0  0  0  0  0  0  0  0  0  0
    6.6391   -0.0381   19.9178 C   0  0  0  0  0  0  0  0  0  0  0  0
    7.3562   -0.7634   21.0247 C   0  0  2  0  0  0  0  0  0  0  0  0
    7.0027   -0.3622   21.9825 H   0  0  0  0  0  0  0  0  0  0  0  0
    8.7583   -0.4970   20.9533 O   0  0  0  0  0  0  0  0  0  0  0  0
    9.4901   -1.6249   21.1032 C   0  0  0  0  0  0  0  0  0  0  0  0
   10.6794   -1.6700   21.1904 O   0  0  0  0  0  0  0  0  0  0  0  0
    8.6319   -2.7053   21.1629 N   0  0  0  0  0  0  0  0  0  0  0  0
    9.0352   -3.5219   20.7319 H   0  0  0  0  0  0  0  0  0  0  0  0
    7.2335   -2.3165   20.9896 C   0  0  1  0  0  0  0  0  0  0  0  0
    6.8089   -2.6610   20.0418 H   0  0  0  0  0  0  0  0  0  0  0  0
    6.2236   -2.8329   22.0612 C   0  0  0  0  0  0  0  0  0  0  0  0
    5.0970   -3.1670   21.7481 O   0  0  0  0  0  0  0  0  0  0  0  0
    6.7245   -2.8379   23.3299 N   0  0  0  0  0  0  0  0  0  0  0  0
    7.7291   -2.7431   23.3514 H   0  0  0  0  0  0  0  0  0  0  0  0
    6.0887   -3.4038   24.5185 C   0  0  0  0  0  0  0  0  0  0  0  0
    6.8277   -3.3656   25.3278 H   0  0  0  0  0  0  0  0  0  0  0  0
    5.8249   -4.4588   24.3711 H   0  0  0  0  0  0  0  0  0  0  0  0
    4.8461   -2.6190   24.9653 C   0  0  0  0  0  0  0  0  0  0  0  0
    4.0370   -2.8054   24.2553 H   0  0  0  0  0  0  0  0  0  0  0  0
    5.0918   -1.5474   24.9350 H   0  0  0  0  0  0  0  0  0  0  0  0
    4.3859   -3.0049   26.2463 O   0  0  0  0  0  0  0  0  0  0  0  0
    4.8249   -2.2091   27.3244 C   0  0  0  0  0  0  0  0  0  0  0  0
    4.2704   -2.5368   28.2060 H   0  0  0  0  0  0  0  0  0  0  0  0
    5.9011   -2.3174   27.5317 H   0  0  0  0  0  0  0  0  0  0  0  0
    4.6189   -1.1372   27.1730 H   0  0  0  0  0  0  0  0  0  0  0  0
    5.4241    0.6209   20.1474 C   0  0  0  0  0  0  0  0  0  0  0  0
    4.9777    0.6285   21.1457 H   0  0  0  0  0  0  0  0  0  0  0  0
    4.8129    1.2904   19.0848 C   0  0  0  0  0  0  0  0  0  0  0  0
    3.8828    1.8351   19.2123 H   0  0  0  0  0  0  0  0  0  0  0  0
  1  2  1  0
  2  3  2  0
  3  4  1  0
  4  5  1  0
  4  6  2  0
  6  7  1  0
  7  8  1  1
  7  9  1  0
  9 10  1  0
 10 11  2  0
 10 12  1  0
 12 13  1  0
 12 14  1  0
 14 15  1  6
 14 16  1  0
 16 17  2  0
 16 18  1  0
 18 19  1  0
 18 20  1  0
 20 21  1  0
 20 22  1  0
 20 23  1  0
 23 24  1  0
 23 25  1  0
 23 26  1  0
 26 27  1  0
 27 28  1  0
 27 29  1  0
 27 30  1  0
  6 31  1  0
 31 32  1  0
 31 33  2  0
 33 34  1  0
 33  2  1  0
 14  7  1  0
M  END
>  <plip>  (1) 
-0.034482758620689655

>  <filename>  (1) 
[H][c]1[n][c]([H])[c]([C@]2([H])[O][C](=[O])[N]([H])[C@@]2([H])[C](=[O])[N]([H])[C]([H])([H])[C]([H])([H])[O][C]([H])([H])[H])[c]([H])[c]1[H]

$$$$
