
     RDKit          3D

 33 34  0  0  0  0  0  0  0  0999 V2000
    4.9267    1.7781   16.9984 H   0  0  0  0  0  0  0  0  0  0  0  0
    5.4062    1.2883   17.8434 C   0  0  0  0  0  0  0  0  0  0  0  0
    6.5703    0.6701   17.5899 N   0  0  0  0  0  0  0  0  0  0  0  0
    7.1762    0.0507   18.6090 C   0  0  0  0  0  0  0  0  0  0  0  0
    8.1226   -0.4330   18.3804 H   0  0  0  0  0  0  0  0  0  0  0  0
    6.6646    0.0019   19.9147 C   0  0  0  0  0  0  0  0  0  0  0  0
    7.4361   -0.7355   20.9297 C   0  0  0  0  0  0  0  0  0  0  0  0
    8.4476   -1.5601   20.7329 N   0  0  0  0  0  0  0  0  0  0  0  0
    8.7654   -1.9398   22.0001 C   0  0  0  0  0  0  0  0  0  0  0  0
    9.7838   -2.7944   22.2225 N   0  0  0  0  0  0  0  0  0  0  0  0
   10.2439   -3.0634   21.3801 H   0  0  0  0  0  0  0  0  0  0  0  0
   10.1390   -3.2683   23.5501 C   0  0  0  0  0  0  0  0  0  0  0  0
   11.1467   -3.6889   23.5227 H   0  0  0  0  0  0  0  0  0  0  0  0
   10.1781   -2.4199   24.2395 H   0  0  0  0  0  0  0  0  0  0  0  0
    9.1540   -4.3091   24.1107 C   0  0  0  0  0  0  0  0  0  0  0  0
    9.1506   -5.1989   23.4528 H   0  0  0  0  0  0  0  0  0  0  0  0
    8.1541   -3.8701   24.0247 H   0  0  0  0  0  0  0  0  0  0  0  0
    9.4263   -4.6753   25.5064 N   0  0  0  0  0  0  0  0  0  0  0  0
   10.4718   -5.6851   25.6096 C   0  0  0  0  0  0  0  0  0  0  0  0
   10.1834   -6.6343   25.1150 H   0  0  0  0  0  0  0  0  0  0  0  0
   11.4032   -5.3344   25.1544 H   0  0  0  0  0  0  0  0  0  0  0  0
   10.6805   -5.9013   26.6624 H   0  0  0  0  0  0  0  0  0  0  0  0
    8.2152   -5.1367   26.1723 C   0  0  0  0  0  0  0  0  0  0  0  0
    8.4298   -5.3947   27.2152 H   0  0  0  0  0  0  0  0  0  0  0  0
    7.4663   -4.3372   26.1805 H   0  0  0  0  0  0  0  0  0  0  0  0
    7.7643   -6.0268   25.6867 H   0  0  0  0  0  0  0  0  0  0  0  0
    8.0361   -1.4181   22.9662 N   0  0  0  0  0  0  0  0  0  0  0  0
    7.1772   -0.6398   22.2419 N   0  0  0  0  0  0  0  0  0  0  0  0
    6.5043   -0.0516   22.6993 H   0  0  0  0  0  0  0  0  0  0  0  0
    5.4393    0.6535   20.1638 C   0  0  0  0  0  0  0  0  0  0  0  0
    4.9741    0.6463   21.1538 H   0  0  0  0  0  0  0  0  0  0  0  0
    4.8085    1.3081   19.1084 C   0  0  0  0  0  0  0  0  0  0  0  0
    3.8760    1.8413   19.2577 H   0  0  0  0  0  0  0  0  0  0  0  0
  1  2  1  0
  2  3  2  0
  3  4  1  0
  4  5  1  0
  4  6  2  0
  6  7  1  0
  7  8  2  0
  8  9  1  0
  9 10  1  0
 10 11  1  0
 10 12  1  0
 12 13  1  0
 12 14  1  0
 12 15  1  0
 15 16  1  0
 15 17  1  0
 15 18  1  0
 18 19  1  0
 19 20  1  0
 19 21  1  0
 19 22  1  0
 18 23  1  0
 23 24  1  0
 23 25  1  0
 23 26  1  0
  9 27  2  0
 27 28  1  0
 28 29  1  0
  6 30  1  0
 30 31  1  0
 30 32  2  0
 32 33  1  0
 32  2  1  0
 28  7  1  0
M  END
>  <plip>  (1) 
-0.06666666666666667

>  <filename>  (1) 
[H][c]1[n][c]([H])[c](-[c]2[n][c]([N]([H])[C]([H])([H])[C]([H])([H])[N]([C]([H])([H])[H])[C]([H])([H])[H])[n][n]2[H])[c]([H])[c]1[H]

$$$$
