
     RDKit          3D

 31 32  0  0  0  0  0  0  0  0999 V2000
    9.1459   -0.5109   20.3355 H   0  0  0  0  0  0  0  0  0  0  0  0
    8.5821   -1.2739   20.5870 O   0  0  0  0  0  0  0  0  0  0  0  0
    7.3973   -0.7008   21.0813 C   0  0  1  0  0  0  0  0  0  0  0  0
    6.7538   -1.5098   21.4523 H   0  0  0  0  0  0  0  0  0  0  0  0
    7.6853    0.1760   22.3399 C   0  0  0  0  0  0  0  0  0  0  0  0
    7.2140   -0.0581   23.4362 O   0  0  0  0  0  0  0  0  0  0  0  0
    8.6864    1.3298   22.0110 C   0  0  0  0  0  0  0  0  0  0  0  0
    9.3560    1.2571   20.9688 O   0  0  0  0  0  0  0  0  0  0  0  0
    8.7866    2.3931   22.8439 N   0  0  0  0  0  0  0  0  0  0  0  0
    9.4456    3.6115   22.3682 C   0  0  0  0  0  0  0  0  0  0  0  0
   10.3722    3.3577   21.8507 H   0  0  0  0  0  0  0  0  0  0  0  0
    8.7609    4.1187   21.6717 H   0  0  0  0  0  0  0  0  0  0  0  0
    9.6463    4.4183   23.6367 C   0  0  0  0  0  0  0  0  0  0  0  0
   10.5398    4.0606   24.1617 H   0  0  0  0  0  0  0  0  0  0  0  0
    9.7716    5.4891   23.4514 H   0  0  0  0  0  0  0  0  0  0  0  0
    8.3731    4.1069   24.4302 C   0  0  0  0  0  0  0  0  0  0  0  0
    8.4837    4.2916   25.5046 H   0  0  0  0  0  0  0  0  0  0  0  0
    7.5484    4.7389   24.0746 H   0  0  0  0  0  0  0  0  0  0  0  0
    8.0497    2.6353   24.0969 C   0  0  0  0  0  0  0  0  0  0  0  0
    6.9770    2.4740   23.9370 H   0  0  0  0  0  0  0  0  0  0  0  0
    8.3727    1.9409   24.8814 H   0  0  0  0  0  0  0  0  0  0  0  0
    6.6857    0.0530   19.9665 C   0  0  0  0  0  0  0  0  0  0  0  0
    7.1931    0.0478   18.6523 C   0  0  0  0  0  0  0  0  0  0  0  0
    8.1075   -0.4939   18.4254 H   0  0  0  0  0  0  0  0  0  0  0  0
    6.6044    0.6466   17.6085 N   0  0  0  0  0  0  0  0  0  0  0  0
    5.4521    1.2835   17.8503 C   0  0  0  0  0  0  0  0  0  0  0  0
    4.9795    1.7596   16.9915 H   0  0  0  0  0  0  0  0  0  0  0  0
    4.8436    1.3365   19.1111 C   0  0  0  0  0  0  0  0  0  0  0  0
    3.9000    1.8582   19.2317 H   0  0  0  0  0  0  0  0  0  0  0  0
    5.4743    0.7150   20.1926 C   0  0  0  0  0  0  0  0  0  0  0  0
    5.0368    0.7416   21.1946 H   0  0  0  0  0  0  0  0  0  0  0  0
  1  2  1  0
  2  3  1  0
  3  4  1  1
  3  5  1  0
  5  6  2  0
  5  7  1  0
  7  8  2  0
  7  9  1  0
  9 10  1  0
 10 11  1  0
 10 12  1  0
 10 13  1  0
 13 14  1  0
 13 15  1  0
 13 16  1  0
 16 17  1  0
 16 18  1  0
 16 19  1  0
 19 20  1  0
 19 21  1  0
  3 22  1  0
 22 23  2  0
 23 24  1  0
 23 25  1  0
 25 26  2  0
 26 27  1  0
 26 28  1  0
 28 29  1  0
 28 30  2  0
 30 31  1  0
 19  9  1  0
 30 22  1  0
M  END
>  <plip>  (1) 
-0.07142857142857142

>  <filename>  (1) 
[H][O][C@@]([H])([C](=[O])[C](=[O])[N]1[C]([H])([H])[C]([H])([H])[C]([H])([H])[C]1([H])[H])[c]1[c]([H])[n][c]([H])[c]([H])[c]1[H]

$$$$
