
     RDKit          3D

 28 29  0  0  0  0  0  0  0  0999 V2000
    7.1283   -0.3397   22.4393 O   0  0  0  0  0  0  0  0  0  0  0  0
    7.5344   -0.8773   21.1622 S   0  0  0  0  0  0  0  0  0  0  0  0
    8.9140   -0.8535   20.7418 O   0  0  0  0  0  0  0  0  0  0  0  0
    6.9960   -2.4214   21.0587 O   0  0  0  0  0  0  0  0  0  0  0  0
    7.4639   -3.3906   21.9657 C   0  0  0  0  0  0  0  0  0  0  0  0
    8.3965   -3.1416   22.9824 C   0  0  0  0  0  0  0  0  0  0  0  0
    8.8218   -4.1857   23.8340 C   0  0  0  0  0  0  0  0  0  0  0  0
    9.8558   -3.9315   24.9156 C   0  0  0  0  0  0  0  0  0  0  0  0
    9.7229   -2.6902   25.4139 F   0  0  0  0  0  0  0  0  0  0  0  0
   11.1139   -4.0479   24.4516 F   0  0  0  0  0  0  0  0  0  0  0  0
    9.7590   -4.7848   25.9526 F   0  0  0  0  0  0  0  0  0  0  0  0
    8.3028   -5.4736   23.6661 C   0  0  0  0  0  0  0  0  0  0  0  0
    7.3720   -5.7173   22.6597 C   0  0  0  0  0  0  0  0  0  0  0  0
    6.9468   -4.6904   21.8116 C   0  0  0  0  0  0  0  0  0  0  0  0
    5.7799   -5.0872   20.5927 Cl  0  0  0  0  0  0  0  0  0  0  0  0
    6.9513   -6.7047   22.5148 H   0  0  0  0  0  0  0  0  0  0  0  0
    8.6004   -6.2883   24.3223 H   0  0  0  0  0  0  0  0  0  0  0  0
    8.7702   -2.1273   23.1092 H   0  0  0  0  0  0  0  0  0  0  0  0
    6.5880   -0.1151   19.9433 C   0  0  0  0  0  0  0  0  0  0  0  0
    5.4050    0.5812   20.2262 C   0  0  0  0  0  0  0  0  0  0  0  0
    4.8278    1.2521   19.1540 C   0  0  0  0  0  0  0  0  0  0  0  0
    5.4657    1.2240   17.9102 C   0  0  0  0  0  0  0  0  0  0  0  0
    6.6211    0.5883   17.6804 N   0  0  0  0  0  0  0  0  0  0  0  0
    7.1915   -0.0546   18.6943 C   0  0  0  0  0  0  0  0  0  0  0  0
    8.1647   -0.4930   18.4812 H   0  0  0  0  0  0  0  0  0  0  0  0
    5.0335    1.7398   17.0556 H   0  0  0  0  0  0  0  0  0  0  0  0
    3.9134    1.8221   19.2696 H   0  0  0  0  0  0  0  0  0  0  0  0
    4.9644    0.6366   21.2267 H   0  0  0  0  0  0  0  0  0  0  0  0
  1  2  2  0
  2  3  2  0
  2  4  1  0
  4  5  1  0
  5  6  2  0
  6  7  1  0
  7  8  1  0
  8  9  1  0
  8 10  1  0
  8 11  1  0
  7 12  2  0
 12 13  1  0
 13 14  2  0
 14 15  1  0
 13 16  1  0
 12 17  1  0
  6 18  1  0
  2 19  1  0
 19 20  2  0
 20 21  1  0
 21 22  2  0
 22 23  1  0
 23 24  2  0
 24 25  1  0
 22 26  1  0
 21 27  1  0
 20 28  1  0
 14  5  1  0
 24 19  1  0
M  END
>  <plip>  (1) 
-0.03333333333333333

>  <filename>  (1) 
[H][c]1[n][c]([H])[c]([S](=[O])(=[O])[O][c]2[c]([H])[c]([C]([F])([F])[F])[c]([H])[c]([H])[c]2[Cl])[c]([H])[c]1[H]

$$$$
