
     RDKit          3D

 32 34  0  0  0  0  0  0  0  0999 V2000
    4.9204    1.7795   16.9987 H   0  0  0  0  0  0  0  0  0  0  0  0
    5.4052    1.2893   17.8446 C   0  0  0  0  0  0  0  0  0  0  0  0
    6.5715    0.6722   17.5911 N   0  0  0  0  0  0  0  0  0  0  0  0
    7.1850    0.0528   18.6035 C   0  0  0  0  0  0  0  0  0  0  0  0
    8.1300   -0.4317   18.3722 H   0  0  0  0  0  0  0  0  0  0  0  0
    6.6697   -0.0037   19.9129 C   0  0  0  0  0  0  0  0  0  0  0  0
    7.3708   -0.6864   20.9612 N   0  0  0  0  0  0  0  0  0  0  0  0
    8.3408   -1.5866   20.7225 N   0  0  0  0  0  0  0  0  0  0  0  0
    8.7844   -2.0197   21.8613 N   0  0  0  0  0  0  0  0  0  0  0  0
    8.1029   -1.3976   22.8702 C   0  0  0  0  0  0  0  0  0  0  0  0
    8.3302   -1.6375   24.2197 N   0  0  0  0  0  0  0  0  0  0  0  0
    7.4781   -1.0452   25.1979 C   0  0  0  0  0  0  0  0  0  0  0  0
    6.0951   -1.2921   25.1675 C   0  0  0  0  0  0  0  0  0  0  0  0
    5.6940   -1.9286   24.3843 H   0  0  0  0  0  0  0  0  0  0  0  0
    5.2543   -0.7390   26.1410 C   0  0  0  0  0  0  0  0  0  0  0  0
    4.1858   -0.9336   26.0983 H   0  0  0  0  0  0  0  0  0  0  0  0
    5.7776    0.0724   27.1542 C   0  0  0  0  0  0  0  0  0  0  0  0
    5.1181    0.5045   27.9046 H   0  0  0  0  0  0  0  0  0  0  0  0
    7.1561    0.3174   27.1943 C   0  0  0  0  0  0  0  0  0  0  0  0
    7.5721    0.9366   27.9871 H   0  0  0  0  0  0  0  0  0  0  0  0
    8.0006   -0.2436   26.2278 C   0  0  0  0  0  0  0  0  0  0  0  0
    9.0714   -0.0584   26.2678 H   0  0  0  0  0  0  0  0  0  0  0  0
    9.5561   -2.3005   24.6310 C   0  0  0  0  0  0  0  0  0  0  0  0
    9.4641   -2.6063   25.6757 H   0  0  0  0  0  0  0  0  0  0  0  0
   10.4476   -1.6640   24.5413 H   0  0  0  0  0  0  0  0  0  0  0  0
    9.7308   -3.1966   24.0307 H   0  0  0  0  0  0  0  0  0  0  0  0
    7.1986   -0.5421   22.2991 C   0  0  0  0  0  0  0  0  0  0  0  0
    6.4992    0.1295   22.7547 H   0  0  0  0  0  0  0  0  0  0  0  0
    5.4506    0.6419   20.1706 C   0  0  0  0  0  0  0  0  0  0  0  0
    4.9948    0.6289   21.1639 H   0  0  0  0  0  0  0  0  0  0  0  0
    4.8159    1.3008   19.1127 C   0  0  0  0  0  0  0  0  0  0  0  0
    3.8828    1.8358   19.2664 H   0  0  0  0  0  0  0  0  0  0  0  0
  1  2  1  0
  2  3  2  0
  3  4  1  0
  4  5  1  0
  4  6  2  0
  6  7  1  0
  7  8  1  0
  8  9  2  0
  9 10  1  0
 10 11  1  0
 11 12  1  0
 12 13  2  0
 13 14  1  0
 13 15  1  0
 15 16  1  0
 15 17  2  0
 17 18  1  0
 17 19  1  0
 19 20  1  0
 19 21  2  0
 21 22  1  0
 11 23  1  0
 23 24  1  0
 23 25  1  0
 23 26  1  0
 10 27  2  0
 27 28  1  0
  6 29  1  0
 29 30  1  0
 29 31  2  0
 31 32  1  0
 31  2  1  0
 27  7  1  0
 21 12  1  0
M  END
>  <plip>  (1) 
-0.034482758620689655

>  <filename>  (1) 
[H][c]1[n][c]([H])[c](-[n]2[n][n][c]([N]([c]3[c]([H])[c]([H])[c]([H])[c]([H])[c]3[H])[C]([H])([H])[H])[c]2[H])[c]([H])[c]1[H]

$$$$
