
     RDKit          3D

 24 25  0  0  0  0  0  0  0  0999 V2000
    4.9884    1.7730   17.0346 H   0  0  0  0  0  0  0  0  0  0  0  0
    5.4388    1.2541   17.8800 C   0  0  0  0  0  0  0  0  0  0  0  0
    6.5988    0.6233   17.6352 N   0  0  0  0  0  0  0  0  0  0  0  0
    7.1615   -0.0155   18.6652 C   0  0  0  0  0  0  0  0  0  0  0  0
    8.1132   -0.5071   18.4695 H   0  0  0  0  0  0  0  0  0  0  0  0
    6.6317   -0.0819   19.9608 C   0  0  0  0  0  0  0  0  0  0  0  0
    7.4737   -0.7075   20.9911 C   0  0  0  0  0  0  0  0  0  0  0  0
    8.7855   -0.4376   21.2928 C   0  0  0  0  0  0  0  0  0  0  0  0
    9.4501    0.1958   20.7337 H   0  0  0  0  0  0  0  0  0  0  0  0
    9.0442   -1.1311   22.4929 C   0  0  0  0  0  0  0  0  0  0  0  0
    9.9627   -1.1497   23.0683 H   0  0  0  0  0  0  0  0  0  0  0  0
    7.9982   -1.8178   22.8987 N   0  0  0  0  0  0  0  0  0  0  0  0
    7.0479   -1.6209   21.9228 N   0  0  0  0  0  0  0  0  0  0  0  0
    5.9611   -2.5620   21.7106 C   0  0  0  0  0  0  0  0  0  0  0  0
    5.5491   -2.8178   20.6011 O   0  0  0  0  0  0  0  0  0  0  0  0
    5.5427   -3.0913   22.9146 N   0  0  0  0  0  0  0  0  0  0  0  0
    6.1029   -2.7153   23.6752 H   0  0  0  0  0  0  0  0  0  0  0  0
    4.2628   -3.6171   23.1326 N   0  0  0  0  0  0  0  0  0  0  0  0
    4.3181   -4.5345   23.5720 H   0  0  0  0  0  0  0  0  0  0  0  0
    3.6664   -2.9980   23.6861 H   0  0  0  0  0  0  0  0  0  0  0  0
    5.4151    0.5825   20.2026 C   0  0  0  0  0  0  0  0  0  0  0  0
    4.9820    0.6042   21.2053 H   0  0  0  0  0  0  0  0  0  0  0  0
    4.8180    1.2584   19.1338 C   0  0  0  0  0  0  0  0  0  0  0  0
    3.8928    1.8071   19.2604 H   0  0  0  0  0  0  0  0  0  0  0  0
  1  2  1  0
  2  3  2  0
  3  4  1  0
  4  5  1  0
  4  6  2  0
  6  7  1  0
  7  8  2  0
  8  9  1  0
  8 10  1  0
 10 11  1  0
 10 12  2  0
 12 13  1  0
 13 14  1  0
 14 15  2  0
 14 16  1  0
 16 17  1  0
 16 18  1  0
 18 19  1  0
 18 20  1  0
  6 21  1  0
 21 22  1  0
 21 23  2  0
 23 24  1  0
 23  2  1  0
 13  7  1  0
M  END
>  <plip>  (1) 
-0.07142857142857142

>  <filename>  (1) 
[H][c]1[n][c]([H])[c](-[c]2[c]([H])[c]([H])[n][n]2[C](=[O])[N]([H])[N]([H])[H])[c]([H])[c]1[H]

$$$$
