
     RDKit          3D

 23 23  0  0  0  0  0  0  0  0999 V2000
    5.0501    1.7171   16.9325 H   0  0  0  0  0  0  0  0  0  0  0  0
    5.4599    1.2862   17.8434 C   0  0  0  0  0  0  0  0  0  0  0  0
    6.6362    0.6598   17.7061 N   0  0  0  0  0  0  0  0  0  0  0  0
    7.1572    0.1209   18.8148 C   0  0  0  0  0  0  0  0  0  0  0  0
    8.1071   -0.3908   18.6777 H   0  0  0  0  0  0  0  0  0  0  0  0
    6.5677    0.1564   20.0857 C   0  0  0  0  0  0  0  0  0  0  0  0
    7.3074   -0.4983   21.2302 C   0  0  2  0  0  0  0  0  0  0  0  0
    6.8037   -0.2384   22.1709 H   0  0  0  0  0  0  0  0  0  0  0  0
    8.6601    0.0554   21.2857 N   0  0  0  0  0  0  0  0  0  0  0  0
    9.1335   -0.2102   20.4275 H   0  0  0  0  0  0  0  0  0  0  0  0
    9.1785   -0.4022   22.0285 H   0  0  0  0  0  0  0  0  0  0  0  0
    7.3864   -2.0334   21.0981 C   0  0  0  0  0  0  0  0  0  0  0  0
    7.8455   -2.4161   22.0150 H   0  0  0  0  0  0  0  0  0  0  0  0
    8.1191   -2.2164   20.3087 H   0  0  0  0  0  0  0  0  0  0  0  0
    6.0629   -2.7656   20.7930 C   0  0  0  0  0  0  0  0  0  0  0  0
    5.5772   -2.2982   19.9263 H   0  0  0  0  0  0  0  0  0  0  0  0
    5.3563   -2.6856   21.6314 H   0  0  0  0  0  0  0  0  0  0  0  0
    6.2240   -4.1999   20.4776 C   0  0  0  0  0  0  0  0  0  0  0  0
    6.3039   -5.3149   20.1801 N   0  0  0  0  0  0  0  0  0  0  0  0
    5.3162    0.7890   20.1960 C   0  0  0  0  0  0  0  0  0  0  0  0
    4.8001    0.8544   21.1601 H   0  0  0  0  0  0  0  0  0  0  0  0
    4.7507    1.3620   19.0495 C   0  0  0  0  0  0  0  0  0  0  0  0
    3.7873    1.8769   19.0741 H   0  0  0  0  0  0  0  0  0  0  0  0
  1  2  1  0
  2  3  2  0
  3  4  1  0
  4  5  1  0
  4  6  2  0
  6  7  1  0
  7  8  1  1
  7  9  1  0
  9 10  1  0
  9 11  1  0
  7 12  1  0
 12 13  1  0
 12 14  1  0
 12 15  1  0
 15 16  1  0
 15 17  1  0
 15 18  1  0
 18 19  3  0
  6 20  1  0
 20 21  1  0
 20 22  2  0
 22 23  1  0
 22  2  1  0
M  END
>  <plip>  (1) 
-0.13793103448275862

>  <filename>  (1) 
[H][c]1[n][c]([H])[c]([C@]([H])([N]([H])[H])[C]([H])([H])[C]([H])([H])[C]#[N])[c]([H])[c]1[H]

$$$$
