
     RDKit          3D

 25 26  0  0  0  0  0  0  0  0999 V2000
    6.9387   -0.6632   21.9752 H   0  0  0  0  0  0  0  0  0  0  0  0
    7.3909   -0.7277   20.9794 C   0  0  0  0  0  0  0  0  0  0  0  0
    8.4822   -1.3498   20.7898 N   0  0  0  0  0  0  0  0  0  0  0  0
    9.1946   -1.9303   21.8672 C   0  0  0  0  0  0  0  0  0  0  0  0
   10.5883   -1.9937   21.7061 C   0  0  0  0  0  0  0  0  0  0  0  0
   11.0017   -1.5002   20.8342 H   0  0  0  0  0  0  0  0  0  0  0  0
   11.3781   -2.6734   22.6340 C   0  0  0  0  0  0  0  0  0  0  0  0
   12.4491   -2.7467   22.4712 H   0  0  0  0  0  0  0  0  0  0  0  0
   10.7920   -3.2868   23.7480 C   0  0  0  0  0  0  0  0  0  0  0  0
   11.3830   -3.8624   24.4566 H   0  0  0  0  0  0  0  0  0  0  0  0
    9.4127   -3.1472   23.9616 C   0  0  0  0  0  0  0  0  0  0  0  0
    8.8406   -3.6644   25.1884 C   0  0  0  0  0  0  0  0  0  0  0  0
    8.4099   -4.0505   26.1921 N   0  0  0  0  0  0  0  0  0  0  0  0
    8.6109   -2.4668   23.0271 C   0  0  0  0  0  0  0  0  0  0  0  0
    7.5433   -2.3761   23.2020 H   0  0  0  0  0  0  0  0  0  0  0  0
    6.6735   -0.0215   19.9111 C   0  0  0  0  0  0  0  0  0  0  0  0
    7.1950    0.0264   18.6039 C   0  0  0  0  0  0  0  0  0  0  0  0
    8.1420   -0.4607   18.3730 H   0  0  0  0  0  0  0  0  0  0  0  0
    6.5907    0.6559   17.5941 N   0  0  0  0  0  0  0  0  0  0  0  0
    5.4313    1.2792   17.8498 C   0  0  0  0  0  0  0  0  0  0  0  0
    4.9614    1.7889   17.0107 H   0  0  0  0  0  0  0  0  0  0  0  0
    4.8316    1.2919   19.1112 C   0  0  0  0  0  0  0  0  0  0  0  0
    3.8980    1.8191   19.2522 H   0  0  0  0  0  0  0  0  0  0  0  0
    5.4607    0.6353   20.1619 C   0  0  0  0  0  0  0  0  0  0  0  0
    5.0268    0.6409   21.1592 H   0  0  0  0  0  0  0  0  0  0  0  0
  1  2  1  0
  2  3  2  3
  3  4  1  0
  4  5  2  0
  5  6  1  0
  5  7  1  0
  7  8  1  0
  7  9  2  0
  9 10  1  0
  9 11  1  0
 11 12  1  0
 12 13  3  0
 11 14  2  0
 14 15  1  0
  2 16  1  0
 16 17  2  0
 17 18  1  0
 17 19  1  0
 19 20  2  0
 20 21  1  0
 20 22  1  0
 22 23  1  0
 22 24  2  0
 24 25  1  0
 14  4  1  0
 24 16  1  0
M  END
>  <plip>  (1) 
-0.07142857142857142

>  <filename>  (1) 
[H][C](=[N][c]1[c]([H])[c]([H])[c]([H])[c]([C]#[N])[c]1[H])[c]1[c]([H])[n][c]([H])[c]([H])[c]1[H]

$$$$
