
     RDKit          3D

 32 34  0  0  0  0  0  0  0  0999 V2000
    9.6307   -0.1745   20.6055 H   0  0  0  0  0  0  0  0  0  0  0  0
    8.8420   -0.7114   21.1186 C   0  0  0  0  0  0  0  0  0  0  0  0
    7.5367   -0.7462   20.8090 C   0  0  0  0  0  0  0  0  0  0  0  0
    6.7968    0.0008   19.7728 C   0  0  0  0  0  0  0  0  0  0  0  0
    7.2772    0.1381   18.4545 C   0  0  0  0  0  0  0  0  0  0  0  0
    8.2236   -0.3246   18.1768 H   0  0  0  0  0  0  0  0  0  0  0  0
    6.6240    0.7772   17.4770 N   0  0  0  0  0  0  0  0  0  0  0  0
    5.4468    1.3429   17.7889 C   0  0  0  0  0  0  0  0  0  0  0  0
    4.9189    1.8434   16.9775 H   0  0  0  0  0  0  0  0  0  0  0  0
    4.8831    1.2781   19.0663 C   0  0  0  0  0  0  0  0  0  0  0  0
    3.9352    1.7633   19.2569 H   0  0  0  0  0  0  0  0  0  0  0  0
    5.5578    0.5911   20.0715 C   0  0  0  0  0  0  0  0  0  0  0  0
    5.1543    0.5075   21.0818 H   0  0  0  0  0  0  0  0  0  0  0  0
    6.8440   -1.6934   21.7396 C   0  0  0  0  0  0  0  0  0  0  0  0
    5.7080   -2.1291   21.6718 O   0  0  0  0  0  0  0  0  0  0  0  0
    7.8218   -2.0699   22.6697 N   0  0  0  0  0  0  0  0  0  0  0  0
    7.6671   -2.9810   23.7303 C   0  0  0  0  0  0  0  0  0  0  0  0
    8.3098   -2.9323   25.0219 C   0  0  0  0  0  0  0  0  0  0  0  0
    9.3050   -1.9527   25.5779 C   0  0  0  0  0  0  0  0  0  0  0  0
   10.2378   -1.9943   25.0031 H   0  0  0  0  0  0  0  0  0  0  0  0
    9.5077   -2.1984   26.6264 H   0  0  0  0  0  0  0  0  0  0  0  0
    8.9430   -0.9202   25.5242 H   0  0  0  0  0  0  0  0  0  0  0  0
    7.9161   -3.9297   25.7657 N   0  0  0  0  0  0  0  0  0  0  0  0
    7.0255   -4.6569   25.0053 O   0  0  0  0  0  0  0  0  0  0  0  0
    6.8833   -4.1084   23.7903 C   0  0  0  0  0  0  0  0  0  0  0  0
    5.9153   -4.7758   22.8671 C   0  0  0  0  0  0  0  0  0  0  0  0
    4.9589   -4.2454   22.9210 H   0  0  0  0  0  0  0  0  0  0  0  0
    6.2260   -4.6904   21.8252 H   0  0  0  0  0  0  0  0  0  0  0  0
    5.7782   -5.8274   23.1305 H   0  0  0  0  0  0  0  0  0  0  0  0
    9.1327   -1.5582   22.3149 C   0  0  0  0  0  0  0  0  0  0  0  0
    9.5596   -0.9915   23.1491 H   0  0  0  0  0  0  0  0  0  0  0  0
    9.8147   -2.3863   22.0718 H   0  0  0  0  0  0  0  0  0  0  0  0
  1  2  1  0
  2  3  2  0
  3  4  1  0
  4  5  2  0
  5  6  1  0
  5  7  1  0
  7  8  2  0
  8  9  1  0
  8 10  1  0
 10 11  1  0
 10 12  2  0
 12 13  1  0
  3 14  1  0
 14 15  2  0
 14 16  1  0
 16 17  1  0
 17 18  1  0
 18 19  1  0
 19 20  1  0
 19 21  1  0
 19 22  1  0
 18 23  2  0
 23 24  1  0
 24 25  1  0
 25 26  1  0
 26 27  1  0
 26 28  1  0
 26 29  1  0
 16 30  1  0
 30 31  1  0
 30 32  1  0
 30  2  1  0
 12  4  1  0
 25 17  2  0
M  END
>  <plip>  (1) 
-0.07142857142857142

>  <filename>  (1) 
[H][C]1=[C]([c]2[c]([H])[n][c]([H])[c]([H])[c]2[H])[C](=[O])[N]([c]2[c]([C]([H])([H])[H])[n][o][c]2[C]([H])([H])[H])[C]1([H])[H]

$$$$
