
     RDKit          3D

 24 24  0  0  0  0  0  0  0  0999 V2000
    9.6921   -5.0540   26.4285 H   0  0  0  0  0  0  0  0  0  0  0  0
   10.2423   -4.7845   25.6688 O   0  0  0  0  0  0  0  0  0  0  0  0
    9.4905   -3.8586   24.9264 N   0  0  0  0  0  0  0  0  0  0  0  0
   10.0852   -3.0701   24.7030 H   0  0  0  0  0  0  0  0  0  0  0  0
    8.7415   -4.2722   23.8059 C   0  0  0  0  0  0  0  0  0  0  0  0
    8.3334   -5.4001   23.6283 O   0  0  0  0  0  0  0  0  0  0  0  0
    8.4034   -3.1154   22.9358 C   0  0  0  0  0  0  0  0  0  0  0  0
    8.8769   -2.1683   23.1889 H   0  0  0  0  0  0  0  0  0  0  0  0
    7.5002   -3.3007   21.9617 C   0  0  0  0  0  0  0  0  0  0  0  0
    7.0371   -4.2706   21.8039 H   0  0  0  0  0  0  0  0  0  0  0  0
    7.0286   -2.3753   21.0675 O   0  0  0  0  0  0  0  0  0  0  0  0
    7.5819   -0.8453   21.1952 S   0  0  0  0  0  0  0  0  0  0  0  0
    8.9602   -0.8176   20.7639 O   0  0  0  0  0  0  0  0  0  0  0  0
    7.2021   -0.3199   22.4814 O   0  0  0  0  0  0  0  0  0  0  0  0
    6.6030   -0.1180   19.9707 C   0  0  0  0  0  0  0  0  0  0  0  0
    7.1963   -0.0857   18.7186 C   0  0  0  0  0  0  0  0  0  0  0  0
    8.1636   -0.5513   18.5364 H   0  0  0  0  0  0  0  0  0  0  0  0
    6.6302    0.5530   17.6991 N   0  0  0  0  0  0  0  0  0  0  0  0
    5.4767    1.2023   17.9186 C   0  0  0  0  0  0  0  0  0  0  0  0
    5.0563    1.7392   17.0685 H   0  0  0  0  0  0  0  0  0  0  0  0
    4.8332    1.2304   19.1610 C   0  0  0  0  0  0  0  0  0  0  0  0
    3.9251    1.8105   19.2816 H   0  0  0  0  0  0  0  0  0  0  0  0
    5.4070    0.5575   20.2364 C   0  0  0  0  0  0  0  0  0  0  0  0
    4.9646    0.5952   21.2362 H   0  0  0  0  0  0  0  0  0  0  0  0
  1  2  1  0
  2  3  1  0
  3  4  1  0
  3  5  1  0
  5  6  2  0
  5  7  1  0
  7  8  1  0
  7  9  2  3
  9 10  1  0
  9 11  1  0
 11 12  1  0
 12 13  2  0
 12 14  2  0
 12 15  1  0
 15 16  2  0
 16 17  1  0
 16 18  1  0
 18 19  2  0
 19 20  1  0
 19 21  1  0
 21 22  1  0
 21 23  2  0
 23 24  1  0
 23 15  1  0
M  END
>  <plip>  (1) 
-0.03333333333333333

>  <filename>  (1) 
[H][O][N]([H])[C](=[O])[C]([H])=[C]([H])[O][S](=[O])(=[O])[c]1[c]([H])[n][c]([H])[c]([H])[c]1[H]

$$$$
