
     RDKit          3D

 20 20  0  0  0  0  0  0  0  0999 V2000
    4.9120    1.7834   16.9962 H   0  0  0  0  0  0  0  0  0  0  0  0
    5.3988    1.2942   17.8380 C   0  0  0  0  0  0  0  0  0  0  0  0
    6.5627    0.6798   17.5760 N   0  0  0  0  0  0  0  0  0  0  0  0
    7.1758    0.0617   18.5917 C   0  0  0  0  0  0  0  0  0  0  0  0
    8.1221   -0.4196   18.3511 H   0  0  0  0  0  0  0  0  0  0  0  0
    6.6808   -0.0139   19.9266 C   0  0  0  0  0  0  0  0  0  0  0  0
    7.3157   -0.6876   20.9665 N   0  0  0  0  0  0  0  0  0  0  0  0
    6.9082   -0.6372   21.8908 H   0  0  0  0  0  0  0  0  0  0  0  0
    8.5585   -1.3826   20.8299 C   0  0  0  0  0  0  0  0  0  0  0  0
    8.4574   -2.1415   20.0588 H   0  0  0  0  0  0  0  0  0  0  0  0
    9.3632   -0.7220   20.4796 H   0  0  0  0  0  0  0  0  0  0  0  0
    9.0847   -2.1544   22.3701 S   0  0  0  0  0  0  0  0  0  0  0  0
    8.0007   -3.6245   22.2549 C   0  0  0  0  0  0  0  0  0  0  0  0
    6.7171   -3.3046   22.1126 F   0  0  0  0  0  0  0  0  0  0  0  0
    8.3254   -4.3997   21.2155 F   0  0  0  0  0  0  0  0  0  0  0  0
    8.1397   -4.3509   23.3672 F   0  0  0  0  0  0  0  0  0  0  0  0
    5.4558    0.6401   20.1702 C   0  0  0  0  0  0  0  0  0  0  0  0
    5.0215    0.6217   21.1706 H   0  0  0  0  0  0  0  0  0  0  0  0
    4.8200    1.3003   19.1147 C   0  0  0  0  0  0  0  0  0  0  0  0
    3.8864    1.8334   19.2664 H   0  0  0  0  0  0  0  0  0  0  0  0
  1  2  1  0
  2  3  2  0
  3  4  1  0
  4  5  1  0
  4  6  2  0
  6  7  1  0
  7  8  1  0
  7  9  1  0
  9 10  1  0
  9 11  1  0
  9 12  1  0
 12 13  1  0
 13 14  1  0
 13 15  1  0
 13 16  1  0
  6 17  1  0
 17 18  1  0
 17 19  2  0
 19 20  1  0
 19  2  1  0
M  END
>  <plip>  (1) 
-0.06896551724137931

>  <filename>  (1) 
[H][c]1[n][c]([H])[c]([N]([H])[C]([H])([H])[S][C]([F])([F])[F])[c]([H])[c]1[H]

$$$$
