
     RDKit          3D

 29 30  0  0  0  0  0  0  0  0999 V2000
    4.9512    1.8259   16.9500 H   0  0  0  0  0  0  0  0  0  0  0  0
    5.4228    1.3118   17.7883 C   0  0  0  0  0  0  0  0  0  0  0  0
    6.5934    0.7042   17.5408 N   0  0  0  0  0  0  0  0  0  0  0  0
    7.1966    0.0632   18.5569 C   0  0  0  0  0  0  0  0  0  0  0  0
    8.1372   -0.4188   18.3058 H   0  0  0  0  0  0  0  0  0  0  0  0
    6.6832   -0.0307   19.8837 C   0  0  0  0  0  0  0  0  0  0  0  0
    7.3586   -0.6984   20.9382 N   0  0  0  0  0  0  0  0  0  0  0  0
    8.7641   -0.4062   21.1936 C   0  0  0  0  0  0  0  0  0  0  0  0
    9.3954   -0.6750   20.3333 H   0  0  0  0  0  0  0  0  0  0  0  0
    8.9243    0.6638   21.4113 H   0  0  0  0  0  0  0  0  0  0  0  0
    9.1121   -1.0059   22.0431 H   0  0  0  0  0  0  0  0  0  0  0  0
    6.6482   -1.5849   21.8840 C   0  0  1  0  0  0  0  0  0  0  0  0
    5.6247   -1.6928   21.5007 H   0  0  0  0  0  0  0  0  0  0  0  0
    7.2003   -2.9752   21.8748 N   0  0  0  0  0  0  0  0  0  0  0  0
    8.0630   -3.4106   22.8242 N   0  0  0  0  0  0  0  0  0  0  0  0
    8.3564   -4.6593   22.4985 C   0  0  0  0  0  0  0  0  0  0  0  0
    9.0033   -5.2564   23.1344 H   0  0  0  0  0  0  0  0  0  0  0  0
    7.7068   -5.0424   21.3061 C   0  0  0  0  0  0  0  0  0  0  0  0
    7.7712   -5.9936   20.7947 H   0  0  0  0  0  0  0  0  0  0  0  0
    6.9649   -3.9443   20.9399 C   0  0  0  0  0  0  0  0  0  0  0  0
    6.3190   -3.7870   20.0829 H   0  0  0  0  0  0  0  0  0  0  0  0
    6.6181   -1.0328   23.3162 C   0  0  0  0  0  0  0  0  0  0  0  0
    6.0366   -1.7148   23.9429 H   0  0  0  0  0  0  0  0  0  0  0  0
    7.6226   -0.9596   23.7429 H   0  0  0  0  0  0  0  0  0  0  0  0
    6.1479   -0.0463   23.3546 H   0  0  0  0  0  0  0  0  0  0  0  0
    5.4456    0.6097   20.0962 C   0  0  0  0  0  0  0  0  0  0  0  0
    5.0055    0.5915   21.0913 H   0  0  0  0  0  0  0  0  0  0  0  0
    4.8141    1.2866   19.0460 C   0  0  0  0  0  0  0  0  0  0  0  0
    3.8676    1.7993   19.1937 H   0  0  0  0  0  0  0  0  0  0  0  0
  1  2  1  0
  2  3  2  0
  3  4  1  0
  4  5  1  0
  4  6  2  0
  6  7  1  0
  7  8  1  0
  8  9  1  0
  8 10  1  0
  8 11  1  0
  7 12  1  0
 12 13  1  6
 12 14  1  0
 14 15  1  0
 15 16  2  0
 16 17  1  0
 16 18  1  0
 18 19  1  0
 18 20  2  0
 20 21  1  0
 12 22  1  0
 22 23  1  0
 22 24  1  0
 22 25  1  0
  6 26  1  0
 26 27  1  0
 26 28  2  0
 28 29  1  0
 28  2  1  0
 20 14  1  0
M  END
>  <plip>  (1) 
-0.0

>  <filename>  (1) 
[H][c]1[n][c]([H])[c]([N]([C]([H])([H])[H])[C@@]([H])([n]2[n][c]([H])[c]([H])[c]2[H])[C]([H])([H])[H])[c]([H])[c]1[H]

$$$$
