
     RDKit          3D

 43 45  0  0  0  0  0  0  0  0999 V2000
    8.6240    2.4723   22.5874 C   0  0  0  0  0  0  0  0  0  0  0  0
    8.1921    1.4433   21.6834 O   0  0  0  0  0  0  0  0  0  0  0  0
    7.8867    0.2398   22.1982 C   0  0  0  0  0  0  0  0  0  0  0  0
    8.1383   -0.1001   23.3294 O   0  0  0  0  0  0  0  0  0  0  0  0
    7.2392   -0.6968   21.1108 C   0  0  0  0  0  0  0  0  0  0  0  0
    6.3456   -1.7112   21.6864 N   0  0  0  0  0  0  0  0  0  0  0  0
    5.8435   -2.7332   20.9409 C   0  0  0  0  0  0  0  0  0  0  0  0
    5.8831   -2.7694   19.7214 O   0  0  0  0  0  0  0  0  0  0  0  0
    5.1124   -3.8405   21.7084 C   0  0  0  0  0  0  0  0  0  0  0  0
    5.7945   -4.3192   22.8693 O   0  0  0  0  0  0  0  0  0  0  0  0
    5.2156   -5.3218   23.5905 C   0  0  0  0  0  0  0  0  0  0  0  0
    5.9370   -5.7770   24.7211 C   0  0  0  0  0  0  0  0  0  0  0  0
    5.3531   -6.7000   25.5747 C   0  0  0  0  0  0  0  0  0  0  0  0
    4.0576   -7.2018   25.3228 C   0  0  0  0  0  0  0  0  0  0  0  0
    3.3268   -8.0659   26.2291 C   0  0  0  0  0  0  0  0  0  0  0  0
    2.1424   -8.5859   25.8502 C   0  0  0  0  0  0  0  0  0  0  0  0
    1.5354   -8.2383   24.5552 C   0  0  0  0  0  0  0  0  0  0  0  0
    0.4880   -8.6621   24.1463 O   0  0  0  0  0  0  0  0  0  0  0  0
    2.2245   -7.3455   23.7557 O   0  0  0  0  0  0  0  0  0  0  0  0
    3.4259   -6.8243   24.1271 C   0  0  0  0  0  0  0  0  0  0  0  0
    3.9803   -5.8796   23.2695 C   0  0  0  0  0  0  0  0  0  0  0  0
    3.4304   -5.6035   22.3805 H   0  0  0  0  0  0  0  0  0  0  0  0
    1.5528   -9.2709   26.4416 H   0  0  0  0  0  0  0  0  0  0  0  0
    3.7583   -8.2361   27.2156 H   0  0  0  0  0  0  0  0  0  0  0  0
    5.9058   -7.0543   26.4455 H   0  0  0  0  0  0  0  0  0  0  0  0
    6.9324   -5.3814   24.8986 H   0  0  0  0  0  0  0  0  0  0  0  0
    4.1237   -3.4387   21.9803 H   0  0  0  0  0  0  0  0  0  0  0  0
    4.9952   -4.6423   20.9736 H   0  0  0  0  0  0  0  0  0  0  0  0
    6.2394   -1.7692   22.6866 H   0  0  0  0  0  0  0  0  0  0  0  0
    6.5355    0.0089   19.9627 C   0  0  0  0  0  0  0  0  0  0  0  0
    5.3261    0.6850   20.1413 C   0  0  0  0  0  0  0  0  0  0  0  0
    4.7732    1.3442   19.0399 C   0  0  0  0  0  0  0  0  0  0  0  0
    5.4455    1.2805   17.8116 C   0  0  0  0  0  0  0  0  0  0  0  0
    6.5907    0.6102   17.6107 N   0  0  0  0  0  0  0  0  0  0  0  0
    7.1036   -0.0091   18.6831 C   0  0  0  0  0  0  0  0  0  0  0  0
    8.0276   -0.5694   18.5285 H   0  0  0  0  0  0  0  0  0  0  0  0
    5.0390    1.7802   16.9381 H   0  0  0  0  0  0  0  0  0  0  0  0
    3.8443    1.8999   19.1202 H   0  0  0  0  0  0  0  0  0  0  0  0
    4.8333    0.6843   21.1180 H   0  0  0  0  0  0  0  0  0  0  0  0
    8.1151   -1.2093   20.6801 H   0  0  0  0  0  0  0  0  0  0  0  0
    7.9138    2.5974   23.4107 H   0  0  0  0  0  0  0  0  0  0  0  0
    8.6679    3.3811   21.9873 H   0  0  0  0  0  0  0  0  0  0  0  0
    9.6051    2.2397   23.0106 H   0  0  0  0  0  0  0  0  0  0  0  0
  1  2  1  0
  2  3  1  0
  3  4  2  0
  3  5  1  0
  5  6  1  0
  6  7  1  0
  7  8  2  0
  7  9  1  0
  9 10  1  0
 10 11  1  0
 11 12  2  0
 12 13  1  0
 13 14  2  0
 14 15  1  0
 15 16  2  0
 16 17  1  0
 17 18  2  0
 17 19  1  0
 19 20  1  0
 20 21  2  0
 21 22  1  0
 16 23  1  0
 15 24  1  0
 13 25  1  0
 12 26  1  0
  9 27  1  0
  9 28  1  0
  6 29  1  0
  5 30  1  0
 30 31  2  0
 31 32  1  0
 32 33  2  0
 33 34  1  0
 34 35  2  0
 35 36  1  0
 33 37  1  0
 32 38  1  0
 31 39  1  0
  5 40  1  0
  1 41  1  0
  1 42  1  0
  1 43  1  0
 21 11  1  0
 35 30  1  0
 20 14  1  0
M  END
>  <plip>  (1) 
-0.21428571428571427

>  <filename>  (1) 
[H][c]1[n][c]([H])[c]([C]([H])([C](=[O])[O][C]([H])([H])[H])[N]([H])[C](=[O])[C]([H])([H])[O][c]2[c]([H])[c]([H])[c]3[c]([H])[c]([H])[c](=[O])[o][c]3[c]2[H])[c]([H])[c]1[H]

$$$$
