
     RDKit          3D

 28 29  0  0  0  0  0  0  0  0999 V2000
    4.9481    1.8088   16.9820 H   0  0  0  0  0  0  0  0  0  0  0  0
    5.4051    1.2968   17.8291 C   0  0  0  0  0  0  0  0  0  0  0  0
    6.5620    0.6709   17.5754 N   0  0  0  0  0  0  0  0  0  0  0  0
    7.1601    0.0377   18.5891 C   0  0  0  0  0  0  0  0  0  0  0  0
    8.1058   -0.4411   18.3468 H   0  0  0  0  0  0  0  0  0  0  0  0
    6.6531   -0.0087   19.8985 C   0  0  0  0  0  0  0  0  0  0  0  0
    7.4223   -0.6971   20.9493 C   0  0  0  0  0  0  0  0  0  0  0  0
    7.9459   -1.8829   20.7350 N   0  0  0  0  0  0  0  0  0  0  0  0
    8.5588   -2.2483   21.9058 O   0  0  0  0  0  0  0  0  0  0  0  0
    8.4202   -1.2620   22.8010 C   0  0  0  0  0  0  0  0  0  0  0  0
    8.9287   -1.4515   23.7384 H   0  0  0  0  0  0  0  0  0  0  0  0
    7.7030   -0.2290   22.2814 C   0  0  0  0  0  0  0  0  0  0  0  0
    7.4307    1.1413   22.8575 C   0  0  0  0  0  0  0  0  0  0  0  0
    7.6809    1.1369   23.9264 H   0  0  0  0  0  0  0  0  0  0  0  0
    6.3595    1.3802   22.8200 H   0  0  0  0  0  0  0  0  0  0  0  0
    8.2583    2.2215   22.1361 C   0  0  0  0  0  0  0  0  0  0  0  0
    7.9924    2.2089   21.0677 H   0  0  0  0  0  0  0  0  0  0  0  0
    7.9992    3.2245   22.5124 H   0  0  0  0  0  0  0  0  0  0  0  0
    9.7667    1.9816   22.3042 C   0  0  0  0  0  0  0  0  0  0  0  0
   10.0079    1.9038   23.3782 H   0  0  0  0  0  0  0  0  0  0  0  0
   10.0319    1.0163   21.8470 H   0  0  0  0  0  0  0  0  0  0  0  0
   10.6153    3.0102   21.7276 N   0  0  0  0  0  0  0  0  0  0  0  0
   10.3245    3.9138   22.1085 H   0  0  0  0  0  0  0  0  0  0  0  0
   10.3858    3.1112   20.7353 H   0  0  0  0  0  0  0  0  0  0  0  0
    5.4336    0.6420   20.1471 C   0  0  0  0  0  0  0  0  0  0  0  0
    4.9893    0.6392   21.1427 H   0  0  0  0  0  0  0  0  0  0  0  0
    4.8035    1.3051   19.0915 C   0  0  0  0  0  0  0  0  0  0  0  0
    3.8726    1.8375   19.2356 H   0  0  0  0  0  0  0  0  0  0  0  0
  1  2  1  0
  2  3  2  0
  3  4  1  0
  4  5  1  0
  4  6  2  0
  6  7  1  0
  7  8  2  0
  8  9  1  0
  9 10  1  0
 10 11  1  0
 10 12  2  0
 12 13  1  0
 13 14  1  0
 13 15  1  0
 13 16  1  0
 16 17  1  0
 16 18  1  0
 16 19  1  0
 19 20  1  0
 19 21  1  0
 19 22  1  0
 22 23  1  0
 22 24  1  0
  6 25  1  0
 25 26  1  0
 25 27  2  0
 27 28  1  0
 27  2  1  0
 12  7  1  0
M  END
>  <plip>  (1) 
-0.10344827586206896

>  <filename>  (1) 
[H][c]1[n][c]([H])[c](-[c]2[n][o][c]([H])[c]2[C]([H])([H])[C]([H])([H])[C]([H])([H])[N]([H])[H])[c]([H])[c]1[H]

$$$$
