
     RDKit          3D

 45 47  0  0  0  0  0  0  0  0999 V2000
    8.6325    2.4217   22.5590 C   0  0  0  0  0  0  0  0  0  0  0  0
    8.1547    1.3987   21.6727 O   0  0  0  0  0  0  0  0  0  0  0  0
    7.7779    0.2226   22.2031 C   0  0  0  0  0  0  0  0  0  0  0  0
    7.9463   -0.0892   23.3606 O   0  0  0  0  0  0  0  0  0  0  0  0
    7.1901   -0.7348   21.1019 C   0  0  0  0  0  0  0  0  0  0  0  0
    6.3230   -1.7824   21.6679 N   0  0  0  0  0  0  0  0  0  0  0  0
    5.7831   -2.8017   20.9359 C   0  0  0  0  0  0  0  0  0  0  0  0
    5.7992   -2.8318   19.7182 O   0  0  0  0  0  0  0  0  0  0  0  0
    5.1321   -3.9147   21.7633 C   0  0  0  0  0  0  0  0  0  0  0  0
    6.0336   -4.5128   22.8164 C   0  0  0  0  0  0  0  0  0  0  0  0
    6.9543   -5.4939   22.4214 C   0  0  0  0  0  0  0  0  0  0  0  0
    7.8341   -6.0322   23.3502 C   0  0  0  0  0  0  0  0  0  0  0  0
    7.8562   -5.5627   24.6753 C   0  0  0  0  0  0  0  0  0  0  0  0
    9.0742   -6.3116   25.7277 S   0  0  0  0  0  0  0  0  0  0  0  0
    9.0204   -5.2293   27.1835 C   0  0  0  0  0  0  0  0  0  0  0  0
    7.5890   -4.8679   27.5627 C   0  0  0  0  0  0  0  0  0  0  0  0
    6.9107   -3.9956   26.5034 C   0  0  0  0  0  0  0  0  0  0  0  0
    6.9417   -4.5761   25.0989 C   0  0  0  0  0  0  0  0  0  0  0  0
    6.0269   -4.0854   24.1472 C   0  0  0  0  0  0  0  0  0  0  0  0
    5.2818   -3.3554   24.4681 H   0  0  0  0  0  0  0  0  0  0  0  0
    5.8630   -3.8198   26.7846 H   0  0  0  0  0  0  0  0  0  0  0  0
    7.3817   -2.9990   26.4802 H   0  0  0  0  0  0  0  0  0  0  0  0
    7.6024   -4.3584   28.5304 H   0  0  0  0  0  0  0  0  0  0  0  0
    7.0127   -5.7914   27.6930 H   0  0  0  0  0  0  0  0  0  0  0  0
    9.6282   -4.3397   26.9892 H   0  0  0  0  0  0  0  0  0  0  0  0
    9.5056   -5.7831   27.9893 H   0  0  0  0  0  0  0  0  0  0  0  0
    8.5118   -6.8305   23.0659 H   0  0  0  0  0  0  0  0  0  0  0  0
    6.9691   -5.8245   21.3826 H   0  0  0  0  0  0  0  0  0  0  0  0
    4.2052   -3.5370   22.2108 H   0  0  0  0  0  0  0  0  0  0  0  0
    4.8649   -4.7022   21.0577 H   0  0  0  0  0  0  0  0  0  0  0  0
    6.3289   -1.9062   22.6689 H   0  0  0  0  0  0  0  0  0  0  0  0
    6.4919   -0.0310   19.9442 C   0  0  0  0  0  0  0  0  0  0  0  0
    5.2973    0.6760   20.1088 C   0  0  0  0  0  0  0  0  0  0  0  0
    4.7692    1.3538   19.0036 C   0  0  0  0  0  0  0  0  0  0  0  0
    5.4447    1.2877   17.7794 C   0  0  0  0  0  0  0  0  0  0  0  0
    6.5823    0.6040   17.5979 N   0  0  0  0  0  0  0  0  0  0  0  0
    7.0780   -0.0290   18.6716 C   0  0  0  0  0  0  0  0  0  0  0  0
    8.0113   -0.5677   18.5084 H   0  0  0  0  0  0  0  0  0  0  0  0
    5.0586    1.8063   16.9021 H   0  0  0  0  0  0  0  0  0  0  0  0
    3.8588    1.9356   19.0744 H   0  0  0  0  0  0  0  0  0  0  0  0
    4.7944    0.6974   21.0792 H   0  0  0  0  0  0  0  0  0  0  0  0
    8.1098   -1.1959   20.7025 H   0  0  0  0  0  0  0  0  0  0  0  0
    7.9243    2.6002   23.3753 H   0  0  0  0  0  0  0  0  0  0  0  0
    9.6075    2.1460   22.9708 H   0  0  0  0  0  0  0  0  0  0  0  0
    8.7246    3.3142   21.9418 H   0  0  0  0  0  0  0  0  0  0  0  0
  1  2  1  0
  2  3  1  0
  3  4  2  0
  3  5  1  0
  5  6  1  0
  6  7  1  0
  7  8  2  0
  7  9  1  0
  9 10  1  0
 10 11  2  0
 11 12  1  0
 12 13  2  0
 13 14  1  0
 14 15  1  0
 15 16  1  0
 16 17  1  0
 17 18  1  0
 18 19  2  0
 19 20  1  0
 17 21  1  0
 17 22  1  0
 16 23  1  0
 16 24  1  0
 15 25  1  0
 15 26  1  0
 12 27  1  0
 11 28  1  0
  9 29  1  0
  9 30  1  0
  6 31  1  0
  5 32  1  0
 32 33  2  0
 33 34  1  0
 34 35  2  0
 35 36  1  0
 36 37  2  0
 37 38  1  0
 35 39  1  0
 34 40  1  0
 33 41  1  0
  5 42  1  0
  1 43  1  0
  1 44  1  0
  1 45  1  0
 19 10  1  0
 37 32  1  0
 18 13  1  0
M  END
>  <plip>  (1) 
-0.1724137931034483

>  <filename>  (1) 
[H][c]1[n][c]([H])[c]([C]([H])([C](=[O])[O][C]([H])([H])[H])[N]([H])[C](=[O])[C]([H])([H])[c]2[c]([H])[c]([H])[c]3[c]([c]2[H])[C]([H])([H])[C]([H])([H])[C]([H])([H])[S]3)[c]([H])[c]1[H]

$$$$
