
     RDKit          3D

 26 28  0  0  0  0  0  0  0  0999 V2000
    4.9221    1.7874   16.9907 H   0  0  0  0  0  0  0  0  0  0  0  0
    5.4031    1.2958   17.8352 C   0  0  0  0  0  0  0  0  0  0  0  0
    6.5681    0.6761   17.5865 N   0  0  0  0  0  0  0  0  0  0  0  0
    7.1690    0.0506   18.6067 C   0  0  0  0  0  0  0  0  0  0  0  0
    8.1240   -0.4166   18.3721 H   0  0  0  0  0  0  0  0  0  0  0  0
    6.6492    0.0083   19.9178 C   0  0  0  0  0  0  0  0  0  0  0  0
    7.3557   -0.6501   20.9756 N   0  0  0  0  0  0  0  0  0  0  0  0
    7.7501   -1.9579   20.8829 C   0  0  0  0  0  0  0  0  0  0  0  0
    7.4499   -2.4544   19.9870 H   0  0  0  0  0  0  0  0  0  0  0  0
    8.2770   -2.3876   22.0726 C   0  0  0  0  0  0  0  0  0  0  0  0
    8.6688   -3.3862   22.2751 H   0  0  0  0  0  0  0  0  0  0  0  0
    8.1715   -1.3002   22.9696 C   0  0  0  0  0  0  0  0  0  0  0  0
    8.4530   -1.2634   24.0153 H   0  0  0  0  0  0  0  0  0  0  0  0
    7.6116   -0.2429   22.2820 C   0  0  0  0  0  0  0  0  0  0  0  0
    7.3691    1.0622   22.7056 N   0  0  0  0  0  0  0  0  0  0  0  0
    7.0843    1.2941   24.0028 N   0  0  0  0  0  0  0  0  0  0  0  0
    7.0118    2.6031   24.1072 C   0  0  0  0  0  0  0  0  0  0  0  0
    6.8016    3.0342   25.0765 H   0  0  0  0  0  0  0  0  0  0  0  0
    7.2683    3.2495   22.8744 C   0  0  0  0  0  0  0  0  0  0  0  0
    7.2792    4.3144   22.6891 H   0  0  0  0  0  0  0  0  0  0  0  0
    7.5074    2.2287   21.9969 C   0  0  0  0  0  0  0  0  0  0  0  0
    7.7458    2.2111   20.9402 H   0  0  0  0  0  0  0  0  0  0  0  0
    5.4228    0.6430   20.1613 C   0  0  0  0  0  0  0  0  0  0  0  0
    5.0069    0.6432   21.1723 H   0  0  0  0  0  0  0  0  0  0  0  0
    4.8040    1.3058   19.1002 C   0  0  0  0  0  0  0  0  0  0  0  0
    3.8755    1.8412   19.2540 H   0  0  0  0  0  0  0  0  0  0  0  0
  1  2  1  0
  2  3  2  0
  3  4  1  0
  4  5  1  0
  4  6  2  0
  6  7  1  0
  7  8  1  0
  8  9  1  0
  8 10  2  0
 10 11  1  0
 10 12  1  0
 12 13  1  0
 12 14  2  0
 14 15  1  0
 15 16  1  0
 16 17  2  0
 17 18  1  0
 17 19  1  0
 19 20  1  0
 19 21  2  0
 21 22  1  0
  6 23  1  0
 23 24  1  0
 23 25  2  0
 25 26  1  0
 25  2  1  0
 14  7  1  0
 21 15  1  0
M  END
>  <plip>  (1) 
-0.0

>  <filename>  (1) 
[H][c]1[n][c]([H])[c](-[n]2[c]([H])[c]([H])[c]([H])[c]2-[n]2[n][c]([H])[c]([H])[c]2[H])[c]([H])[c]1[H]

$$$$
