
     RDKit          3D

 43 45  0  0  0  0  0  0  0  0999 V2000
    8.0731   -3.6167   22.0771 H   0  0  0  0  0  0  0  0  0  0  0  0
    8.0543   -2.5387   22.0805 C   0  0  0  0  0  0  0  0  0  0  0  0
    8.8083   -1.7540   22.9009 C   0  0  0  0  0  0  0  0  0  0  0  0
    9.5688   -2.2907   24.1113 C   0  0  0  0  0  0  0  0  0  0  0  0
    9.5516   -1.7578   25.2030 O   0  0  0  0  0  0  0  0  0  0  0  0
   10.2687   -3.4420   23.8505 N   0  0  0  0  0  0  0  0  0  0  0  0
   10.1373   -3.7757   22.9099 H   0  0  0  0  0  0  0  0  0  0  0  0
   10.4671   -4.4625   24.8710 C   0  0  0  0  0  0  0  0  0  0  0  0
   10.9967   -4.0181   25.7147 H   0  0  0  0  0  0  0  0  0  0  0  0
   11.1247   -5.2322   24.4552 H   0  0  0  0  0  0  0  0  0  0  0  0
    9.1463   -5.0915   25.3622 C   0  0  0  0  0  0  0  0  0  0  0  0
    8.6272   -4.3384   25.9659 H   0  0  0  0  0  0  0  0  0  0  0  0
    9.3775   -5.9238   26.0446 H   0  0  0  0  0  0  0  0  0  0  0  0
    8.2281   -5.5500   24.2391 C   0  0  0  0  0  0  0  0  0  0  0  0
    8.5554   -6.6415   23.4149 C   0  0  0  0  0  0  0  0  0  0  0  0
    9.5221   -7.1320   23.5259 H   0  0  0  0  0  0  0  0  0  0  0  0
    7.6165   -7.1564   22.5058 C   0  0  0  0  0  0  0  0  0  0  0  0
    7.8124   -8.0885   21.9848 H   0  0  0  0  0  0  0  0  0  0  0  0
    6.3776   -6.5284   22.3325 C   0  0  0  0  0  0  0  0  0  0  0  0
    5.6372   -6.9467   21.6502 H   0  0  0  0  0  0  0  0  0  0  0  0
    6.0922   -5.3637   23.0608 C   0  0  0  0  0  0  0  0  0  0  0  0
    5.1543   -4.8336   22.8925 H   0  0  0  0  0  0  0  0  0  0  0  0
    7.0133   -4.8779   23.9969 C   0  0  0  0  0  0  0  0  0  0  0  0
    6.8376   -3.9175   24.4841 H   0  0  0  0  0  0  0  0  0  0  0  0
    8.8285   -0.2748   22.6108 C   0  0  0  0  0  0  0  0  0  0  0  0
    9.5450   -0.0730   21.7987 H   0  0  0  0  0  0  0  0  0  0  0  0
    9.1579    0.2985   23.4837 H   0  0  0  0  0  0  0  0  0  0  0  0
    7.4326    0.1838   22.1517 C   0  0  0  0  0  0  0  0  0  0  0  0
    6.7211    0.1053   22.9921 H   0  0  0  0  0  0  0  0  0  0  0  0
    7.4554    1.2325   21.8344 H   0  0  0  0  0  0  0  0  0  0  0  0
    6.9799   -0.6355   21.0228 N   0  0  0  0  0  0  0  0  0  0  0  0
    6.4195    0.0048   19.8633 C   0  0  0  0  0  0  0  0  0  0  0  0
    7.0401   -0.0495   18.5945 C   0  0  0  0  0  0  0  0  0  0  0  0
    7.9152   -0.6804   18.4512 H   0  0  0  0  0  0  0  0  0  0  0  0
    6.6131    0.6409   17.5255 N   0  0  0  0  0  0  0  0  0  0  0  0
    5.5201    1.4079   17.6761 C   0  0  0  0  0  0  0  0  0  0  0  0
    5.2177    1.9855   16.8055 H   0  0  0  0  0  0  0  0  0  0  0  0
    4.8025    1.4987   18.8740 C   0  0  0  0  0  0  0  0  0  0  0  0
    3.9256    2.1356   18.9294 H   0  0  0  0  0  0  0  0  0  0  0  0
    5.2592    0.7791   19.9848 C   0  0  0  0  0  0  0  0  0  0  0  0
    4.7474    0.8112   20.9471 H   0  0  0  0  0  0  0  0  0  0  0  0
    7.0261   -2.0367   21.1341 C   0  0  0  0  0  0  0  0  0  0  0  0
    6.3080   -2.7884   20.5009 O   0  0  0  0  0  0  0  0  0  0  0  0
  1  2  1  0
  2  3  2  0
  3  4  1  0
  4  5  2  0
  4  6  1  0
  6  7  1  0
  6  8  1  0
  8  9  1  0
  8 10  1  0
  8 11  1  0
 11 12  1  0
 11 13  1  0
 11 14  1  0
 14 15  2  0
 15 16  1  0
 15 17  1  0
 17 18  1  0
 17 19  2  0
 19 20  1  0
 19 21  1  0
 21 22  1  0
 21 23  2  0
 23 24  1  0
  3 25  1  0
 25 26  1  0
 25 27  1  0
 25 28  1  0
 28 29  1  0
 28 30  1  0
 28 31  1  0
 31 32  1  0
 32 33  2  0
 33 34  1  0
 33 35  1  0
 35 36  2  0
 36 37  1  0
 36 38  1  0
 38 39  1  0
 38 40  2  0
 40 41  1  0
 31 42  1  0
 42 43  2  0
 42  2  1  0
 23 14  1  0
 40 32  1  0
M  END
>  <plip>  (1) 
-0.0967741935483871

>  <filename>  (1) 
[H][C]1=[C]([C](=[O])[N]([H])[C]([H])([H])[C]([H])([H])[c]2[c]([H])[c]([H])[c]([H])[c]([H])[c]2[H])[C]([H])([H])[C]([H])([H])[N]([c]2[c]([H])[n][c]([H])[c]([H])[c]2[H])[C]1=[O]

$$$$
