
     RDKit          3D

 29 31  0  0  0  0  0  0  0  0999 V2000
    4.9266    1.7783   16.9991 H   0  0  0  0  0  0  0  0  0  0  0  0
    5.4098    1.2865   17.8454 C   0  0  0  0  0  0  0  0  0  0  0  0
    6.5760    0.6660   17.5975 N   0  0  0  0  0  0  0  0  0  0  0  0
    7.1855    0.0447   18.6120 C   0  0  0  0  0  0  0  0  0  0  0  0
    8.1294   -0.4352   18.3751 H   0  0  0  0  0  0  0  0  0  0  0  0
    6.6705   -0.0073   19.9194 C   0  0  0  0  0  0  0  0  0  0  0  0
    7.3705   -0.6817   20.9594 N   0  0  0  0  0  0  0  0  0  0  0  0
    8.2929   -1.6236   20.6999 N   0  0  0  0  0  0  0  0  0  0  0  0
    8.7263   -2.0327   21.8844 C   0  0  0  0  0  0  0  0  0  0  0  0
    9.4914   -2.7919   21.9426 H   0  0  0  0  0  0  0  0  0  0  0  0
    8.0814   -1.3364   22.9301 C   0  0  0  0  0  0  0  0  0  0  0  0
    8.3592   -1.5062   24.2625 O   0  0  0  0  0  0  0  0  0  0  0  0
    7.4839   -1.0861   25.2504 C   0  0  0  0  0  0  0  0  0  0  0  0
    6.0921   -1.1572   25.1277 C   0  0  0  0  0  0  0  0  0  0  0  0
    5.6816   -1.5463   24.2057 H   0  0  0  0  0  0  0  0  0  0  0  0
    5.2698   -0.7490   26.1842 C   0  0  0  0  0  0  0  0  0  0  0  0
    4.1910   -0.7825   26.0586 H   0  0  0  0  0  0  0  0  0  0  0  0
    5.8276   -0.2956   27.3821 C   0  0  0  0  0  0  0  0  0  0  0  0
    5.1829    0.0214   28.2005 H   0  0  0  0  0  0  0  0  0  0  0  0
    7.2215   -0.2654   27.5133 C   0  0  0  0  0  0  0  0  0  0  0  0
    7.6616    0.0783   28.4449 H   0  0  0  0  0  0  0  0  0  0  0  0
    8.0519   -0.6643   26.4602 C   0  0  0  0  0  0  0  0  0  0  0  0
    9.1320   -0.6565   26.5678 H   0  0  0  0  0  0  0  0  0  0  0  0
    7.2299   -0.4636   22.2984 C   0  0  0  0  0  0  0  0  0  0  0  0
    6.5665    0.2830   22.7035 H   0  0  0  0  0  0  0  0  0  0  0  0
    5.4491    0.6419   20.1735 C   0  0  0  0  0  0  0  0  0  0  0  0
    4.9951    0.6265   21.1668 H   0  0  0  0  0  0  0  0  0  0  0  0
    4.8184    1.2985   19.1127 C   0  0  0  0  0  0  0  0  0  0  0  0
    3.8849    1.8341   19.2656 H   0  0  0  0  0  0  0  0  0  0  0  0
  1  2  1  0
  2  3  2  0
  3  4  1  0
  4  5  1  0
  4  6  2  0
  6  7  1  0
  7  8  1  0
  8  9  2  0
  9 10  1  0
  9 11  1  0
 11 12  1  0
 12 13  1  0
 13 14  2  0
 14 15  1  0
 14 16  1  0
 16 17  1  0
 16 18  2  0
 18 19  1  0
 18 20  1  0
 20 21  1  0
 20 22  2  0
 22 23  1  0
 11 24  2  0
 24 25  1  0
  6 26  1  0
 26 27  1  0
 26 28  2  0
 28 29  1  0
 28  2  1  0
 24  7  1  0
 22 13  1  0
M  END
>  <plip>  (1) 
-0.034482758620689655

>  <filename>  (1) 
[H][c]1[n][c]([H])[c](-[n]2[n][c]([H])[c]([O][c]3[c]([H])[c]([H])[c]([H])[c]([H])[c]3[H])[c]2[H])[c]([H])[c]1[H]

$$$$
