
     RDKit          3D

 21 22  0  0  0  0  0  0  0  0999 V2000
    5.5771   -2.1180   21.5570 O   0  0  0  0  0  0  0  0  0  0  0  0
    6.7121   -1.7128   21.7770 C   0  0  0  0  0  0  0  0  0  0  0  0
    7.5104   -2.3165   22.8599 C   0  0  0  0  0  0  0  0  0  0  0  0
    8.8080   -2.0007   23.0223 C   0  0  0  0  0  0  0  0  0  0  0  0
    9.3946   -1.0714   22.1979 N   0  0  0  0  0  0  0  0  0  0  0  0
    8.7156   -0.4160   21.2010 C   0  0  0  0  0  0  0  0  0  0  0  0
    7.4017   -0.6617   20.9608 C   0  0  0  0  0  0  0  0  0  0  0  0
    6.6938    0.0729   19.8750 C   0  0  0  0  0  0  0  0  0  0  0  0
    5.4566    0.6840   20.1258 C   0  0  0  0  0  0  0  0  0  0  0  0
    4.8070    1.3289   19.0759 C   0  0  0  0  0  0  0  0  0  0  0  0
    5.3860    1.3141   17.8025 C   0  0  0  0  0  0  0  0  0  0  0  0
    6.5477    0.7021   17.5272 N   0  0  0  0  0  0  0  0  0  0  0  0
    7.1831    0.1156   18.5491 C   0  0  0  0  0  0  0  0  0  0  0  0
    8.1043   -0.4095   18.3017 H   0  0  0  0  0  0  0  0  0  0  0  0
    4.9046    1.8116   16.9625 H   0  0  0  0  0  0  0  0  0  0  0  0
    3.8707    1.8410   19.2316 H   0  0  0  0  0  0  0  0  0  0  0  0
    5.0338    0.5908   21.1287 H   0  0  0  0  0  0  0  0  0  0  0  0
    9.2875    0.3052   20.6209 H   0  0  0  0  0  0  0  0  0  0  0  0
   10.3654   -0.8465   22.3329 H   0  0  0  0  0  0  0  0  0  0  0  0
    9.4669   -2.4337   23.7772 H   0  0  0  0  0  0  0  0  0  0  0  0
    6.9931   -3.0512   23.4648 H   0  0  0  0  0  0  0  0  0  0  0  0
  1  2  2  0
  2  3  1  0
  3  4  2  0
  4  5  1  0
  5  6  1  0
  6  7  2  0
  7  8  1  0
  8  9  2  0
  9 10  1  0
 10 11  2  0
 11 12  1  0
 12 13  2  0
 13 14  1  0
 11 15  1  0
 10 16  1  0
  9 17  1  0
  6 18  1  0
  5 19  1  0
  4 20  1  0
  3 21  1  0
  7  2  1  0
 13  8  1  0
M  END
>  <plip>  (1) 
-0.07142857142857142

>  <filename>  (1) 
[H][c]1[n][c]([H])[c](-[c]2[c]([H])[n]([H])[c]([H])[c]([H])[c]2=[O])[c]([H])[c]1[H]

$$$$
