
     RDKit          3D

 48 51  0  0  0  0  0  0  0  0999 V2000
   10.1896    1.2867   22.4785 C   0  0  0  0  0  0  0  0  0  0  0  0
    9.3497    0.4960   21.6149 O   0  0  0  0  0  0  0  0  0  0  0  0
    8.0709    0.3178   21.9915 C   0  0  0  0  0  0  0  0  0  0  0  0
    7.5574    0.8589   22.9459 O   0  0  0  0  0  0  0  0  0  0  0  0
    7.3454   -0.7122   21.0574 C   0  0  0  0  0  0  0  0  0  0  0  0
    6.4700   -1.5740   21.8430 N   0  0  0  0  0  0  0  0  0  0  0  0
    5.8825   -2.7188   21.4009 C   0  0  0  0  0  0  0  0  0  0  0  0
    6.0054   -3.1404   20.2654 O   0  0  0  0  0  0  0  0  0  0  0  0
    5.0503   -3.3983   22.4600 C   0  0  2  0  0  0  0  0  0  0  0  0
    5.4226   -3.4564   23.9130 C   0  0  0  0  0  0  0  0  0  0  0  0
    5.4604   -4.7240   23.1086 C   0  0  2  0  0  0  0  0  0  0  0  0
    6.7781   -5.3562   22.6330 C   0  0  0  0  0  0  0  0  0  0  0  0
    6.5436   -6.4430   21.5386 C   0  0  0  0  0  0  0  0  0  0  0  0
    5.1214   -6.3922   20.9436 C   0  0  0  0  0  0  0  0  0  0  0  0
    4.0672   -6.4521   22.0429 C   0  0  0  0  0  0  0  0  0  0  0  0
    2.8626   -7.1653   21.9542 C   0  0  0  0  0  0  0  0  0  0  0  0
    1.9925   -7.2428   23.0449 C   0  0  0  0  0  0  0  0  0  0  0  0
    2.3433   -6.6380   24.2546 C   0  0  0  0  0  0  0  0  0  0  0  0
    3.5123   -5.8811   24.3447 C   0  0  0  0  0  0  0  0  0  0  0  0
    4.3364   -5.7190   23.2167 C   0  0  0  0  0  0  0  0  0  0  0  0
    3.8084   -5.4222   25.2823 H   0  0  0  0  0  0  0  0  0  0  0  0
    1.6978   -6.7401   25.1245 H   0  0  0  0  0  0  0  0  0  0  0  0
    1.0522   -7.7832   22.9486 H   0  0  0  0  0  0  0  0  0  0  0  0
    2.5979   -7.6895   21.0376 H   0  0  0  0  0  0  0  0  0  0  0  0
    4.9751   -7.1987   20.2176 H   0  0  0  0  0  0  0  0  0  0  0  0
    5.0060   -5.4406   20.4040 H   0  0  0  0  0  0  0  0  0  0  0  0
    7.2777   -6.3498   20.7286 H   0  0  0  0  0  0  0  0  0  0  0  0
    6.6945   -7.4381   21.9775 H   0  0  0  0  0  0  0  0  0  0  0  0
    7.2936   -5.8070   23.4910 H   0  0  0  0  0  0  0  0  0  0  0  0
    7.4297   -4.5635   22.2482 H   0  0  0  0  0  0  0  0  0  0  0  0
    6.3766   -3.0166   24.2003 H   0  0  0  0  0  0  0  0  0  0  0  0
    4.6348   -3.3250   24.6555 H   0  0  0  0  0  0  0  0  0  0  0  0
    4.0038   -3.3510   22.1960 H   0  0  0  0  0  0  0  0  0  0  0  0
    6.0789   -1.2157   22.7003 H   0  0  0  0  0  0  0  0  0  0  0  0
    6.5919   -0.0470   19.9014 C   0  0  0  0  0  0  0  0  0  0  0  0
    5.4114    0.6818   20.1003 C   0  0  0  0  0  0  0  0  0  0  0  0
    4.8357    1.3291   19.0052 C   0  0  0  0  0  0  0  0  0  0  0  0
    5.4553    1.2327   17.7547 C   0  0  0  0  0  0  0  0  0  0  0  0
    6.5684    0.5164   17.5363 N   0  0  0  0  0  0  0  0  0  0  0  0
    7.1018   -0.1066   18.5950 C   0  0  0  0  0  0  0  0  0  0  0  0
    8.0119   -0.6763   18.3955 H   0  0  0  0  0  0  0  0  0  0  0  0
    5.0415    1.7498   16.8905 H   0  0  0  0  0  0  0  0  0  0  0  0
    3.9313    1.9154   19.1103 H   0  0  0  0  0  0  0  0  0  0  0  0
    4.9500    0.7504   21.0887 H   0  0  0  0  0  0  0  0  0  0  0  0
    8.1377   -1.3356   20.6313 H   0  0  0  0  0  0  0  0  0  0  0  0
   10.0114    2.3538   22.3054 H   0  0  0  0  0  0  0  0  0  0  0  0
   11.2179    1.0343   22.2145 H   0  0  0  0  0  0  0  0  0  0  0  0
   10.0010    1.0404   23.5295 H   0  0  0  0  0  0  0  0  0  0  0  0
  1  2  1  0
  2  3  1  0
  3  4  2  0
  3  5  1  0
  5  6  1  0
  6  7  1  0
  7  8  2  0
  7  9  1  0
  9 10  1  0
 11 10  1  1
 11 12  1  0
 12 13  1  0
 13 14  1  0
 14 15  1  0
 15 16  2  0
 16 17  1  0
 17 18  2  0
 18 19  1  0
 19 20  2  0
 19 21  1  0
 18 22  1  0
 17 23  1  0
 16 24  1  0
 14 25  1  0
 14 26  1  0
 13 27  1  0
 13 28  1  0
 12 29  1  0
 12 30  1  0
 10 31  1  0
 10 32  1  0
  9 33  1  1
  6 34  1  0
  5 35  1  0
 35 36  2  0
 36 37  1  0
 37 38  2  0
 38 39  1  0
 39 40  2  0
 40 41  1  0
 38 42  1  0
 37 43  1  0
 36 44  1  0
  5 45  1  0
  1 46  1  0
  1 47  1  0
  1 48  1  0
 11  9  1  0
 20 15  1  0
 40 35  1  0
 20 11  1  0
M  END
>  <plip>  (1) 
-0.2

>  <filename>  (1) 
[H][c]1[n][c]([H])[c]([C]([H])([C](=[O])[O][C]([H])([H])[H])[N]([H])[C](=[O])[C@]2([H])[C]([H])([H])[C@@]23[c]2[c]([H])[c]([H])[c]([H])[c]([H])[c]2[C]([H])([H])[C]([H])([H])[C]3([H])[H])[c]([H])[c]1[H]

$$$$
