
     RDKit          3D

 34 36  0  0  0  0  0  0  0  0999 V2000
    7.1581   -2.0556   27.2279 O   0  0  0  0  0  0  0  0  0  0  0  0
    6.9303   -1.9494   26.0281 C   0  0  0  0  0  0  0  0  0  0  0  0
    5.9628   -1.5969   25.3628 O   0  0  0  0  0  1  0  0  0  0  0  0
    8.4408   -2.5154   25.0366 C   0  0  0  0  0  0  0  0  0  0  0  0
    9.3907   -3.2846   25.6965 C   0  0  0  0  0  0  0  0  0  0  0  0
   10.4741   -3.7136   24.9198 C   0  0  0  0  0  0  0  0  0  0  0  0
   10.6029   -3.4195   23.6413 N   0  0  0  0  0  0  0  0  0  0  0  0
    9.6044   -2.6988   23.1112 C   0  0  0  0  0  0  0  0  0  0  0  0
    9.7375   -2.5344   21.7957 N   0  0  0  0  0  0  0  0  0  0  0  0
    8.9198   -1.7638   20.9147 C   0  0  1  0  0  0  0  0  0  0  0  0
    7.3864   -1.9446   21.0217 C   0  0  0  0  0  0  0  0  0  0  0  0
    7.2113   -0.4097   21.1606 C   0  0  2  0  0  0  0  0  0  0  0  0
    6.5816   -0.0230   22.3468 O   0  0  0  0  0  0  0  0  0  0  0  0
    6.9750   -0.5636   23.0544 H   0  0  0  0  0  0  0  0  0  0  0  0
    6.5552    0.2163   19.9560 C   0  0  0  0  0  0  0  0  0  0  0  0
    5.3172    0.8776   20.0140 C   0  0  0  0  0  0  0  0  0  0  0  0
    4.7950    1.4376   18.8489 C   0  0  0  0  0  0  0  0  0  0  0  0
    5.5078    1.3048   17.6540 C   0  0  0  0  0  0  0  0  0  0  0  0
    6.6686    0.6424   17.5636 N   0  0  0  0  0  0  0  0  0  0  0  0
    7.1622    0.1144   18.6920 C   0  0  0  0  0  0  0  0  0  0  0  0
    8.1057   -0.4217   18.5632 H   0  0  0  0  0  0  0  0  0  0  0  0
    5.1268    1.7460   16.7347 H   0  0  0  0  0  0  0  0  0  0  0  0
    3.8633    1.9906   18.8510 H   0  0  0  0  0  0  0  0  0  0  0  0
    4.7979    0.9372   20.9698 H   0  0  0  0  0  0  0  0  0  0  0  0
    8.7550   -0.2608   21.2341 C   0  0  0  0  0  0  0  0  0  0  0  0
    9.0722   -0.0445   22.2533 H   0  0  0  0  0  0  0  0  0  0  0  0
    9.2342    0.4554   20.5609 H   0  0  0  0  0  0  0  0  0  0  0  0
    6.8931   -2.3843   20.1562 H   0  0  0  0  0  0  0  0  0  0  0  0
    7.0711   -2.4739   21.9201 H   0  0  0  0  0  0  0  0  0  0  0  0
    9.2946   -1.9338   19.8986 H   0  0  0  0  0  0  0  0  0  0  0  0
   10.6408   -2.9096   21.5735 H   0  0  0  0  0  0  0  0  0  0  0  0
    8.5526   -2.1868   23.7528 N   0  0  0  0  0  0  0  0  0  0  0  0
   11.2658   -4.3214   25.3529 H   0  0  0  0  0  0  0  0  0  0  0  0
    9.3015   -3.5192   26.7420 H   0  0  0  0  0  0  0  0  0  0  0  0
  1  2  2  0
  2  3  1  0
  2  4  1  0
  4  5  2  0
  5  6  1  0
  6  7  2  0
  7  8  1  0
  8  9  1  0
  9 10  1  0
 10 11  1  0
 11 12  1  0
 12 13  1  1
 13 14  1  0
 12 15  1  0
 15 16  2  0
 16 17  1  0
 17 18  2  0
 18 19  1  0
 19 20  2  0
 20 21  1  0
 18 22  1  0
 17 23  1  0
 16 24  1  0
 12 25  1  0
 25 26  1  0
 25 27  1  0
 11 28  1  0
 11 29  1  0
 10 30  1  6
  9 31  1  0
  8 32  2  0
  6 33  1  0
  5 34  1  0
 32  4  1  0
 25 10  1  0
 20 15  1  0
M  CHG  1   3  -1
M  END
>  <plip>  (1) 
-0.034482758620689655

>  <filename>  (1) 
[H][O][C@]1([c]2[c]([H])[n][c]([H])[c]([H])[c]2[H])[C]([H])([H])[C@]([H])([N]([H])[c]2[n][c]([H])[c]([H])[c]([C](=[O])[O-])[n]2)[C]1([H])[H]

$$$$
