
     RDKit          3D

 33 35  0  0  0  0  0  0  0  0999 V2000
    4.9651    1.8220   16.9958 H   0  0  0  0  0  0  0  0  0  0  0  0
    5.4276    1.3040   17.8363 C   0  0  0  0  0  0  0  0  0  0  0  0
    6.5771    0.6628   17.5763 N   0  0  0  0  0  0  0  0  0  0  0  0
    7.1671    0.0384   18.6034 C   0  0  0  0  0  0  0  0  0  0  0  0
    8.0900   -0.4897   18.3560 H   0  0  0  0  0  0  0  0  0  0  0  0
    6.6686    0.0100   19.9177 C   0  0  0  0  0  0  0  0  0  0  0  0
    7.4174   -0.6652   21.0419 C   0  0  0  0  0  0  0  0  0  0  0  0
    8.0811   -1.4546   20.6644 H   0  0  0  0  0  0  0  0  0  0  0  0
    6.7235   -1.1439   21.7360 H   0  0  0  0  0  0  0  0  0  0  0  0
    8.2190    0.2882   21.8015 N   0  0  0  0  0  0  0  0  0  0  0  0
    9.2645    1.0026   21.2973 C   0  0  0  0  0  0  0  0  0  0  0  0
    9.5221    0.9926   20.2508 H   0  0  0  0  0  0  0  0  0  0  0  0
    9.8473    1.6981   22.2298 N   0  0  0  0  0  0  0  0  0  0  0  0
    9.1790    1.4701   23.3929 N   0  0  0  0  0  0  0  0  0  0  0  0
    8.2041    0.6438   23.1373 C   0  0  0  0  0  0  0  0  0  0  0  0
    6.9914    0.1177   24.3975 S   0  0  0  0  0  0  0  0  0  0  0  0
    5.6753    0.4551   23.8682 O   0  0  0  0  0  0  0  0  0  0  0  0
    7.4121    0.5695   25.7153 O   0  0  0  0  0  0  0  0  0  0  0  0
    7.2063   -1.6693   24.3425 C   0  0  0  0  0  0  0  0  0  0  0  0
    8.5376   -2.1015   24.3646 C   0  0  0  0  0  0  0  0  0  0  0  0
    9.3538   -1.3723   24.3724 H   0  0  0  0  0  0  0  0  0  0  0  0
    8.8125   -3.4648   24.4037 C   0  0  0  0  0  0  0  0  0  0  0  0
    9.8356   -3.8152   24.4563 H   0  0  0  0  0  0  0  0  0  0  0  0
    7.7517   -4.3755   24.3993 C   0  0  0  0  0  0  0  0  0  0  0  0
    8.1044   -6.0743   24.4492 Cl  0  0  0  0  0  0  0  0  0  0  0  0
    6.4232   -3.9424   24.3553 C   0  0  0  0  0  0  0  0  0  0  0  0
    5.6250   -4.6779   24.3495 H   0  0  0  0  0  0  0  0  0  0  0  0
    6.1345   -2.5740   24.3471 C   0  0  0  0  0  0  0  0  0  0  0  0
    5.0930   -2.2515   24.3922 H   0  0  0  0  0  0  0  0  0  0  0  0
    5.4616    0.6753   20.1664 C   0  0  0  0  0  0  0  0  0  0  0  0
    5.0294    0.6888   21.1716 H   0  0  0  0  0  0  0  0  0  0  0  0
    4.8310    1.3194   19.0997 C   0  0  0  0  0  0  0  0  0  0  0  0
    3.8918    1.8400   19.2353 H   0  0  0  0  0  0  0  0  0  0  0  0
  1  2  1  0
  2  3  2  0
  3  4  1  0
  4  5  1  0
  4  6  2  0
  6  7  1  0
  7  8  1  0
  7  9  1  0
  7 10  1  0
 10 11  1  0
 11 12  1  0
 11 13  2  0
 13 14  1  0
 14 15  2  0
 15 16  1  0
 16 17  2  0
 16 18  2  0
 16 19  1  0
 19 20  2  0
 20 21  1  0
 20 22  1  0
 22 23  1  0
 22 24  2  0
 24 25  1  0
 24 26  1  0
 26 27  1  0
 26 28  2  0
 28 29  1  0
  6 30  1  0
 30 31  1  0
 30 32  2  0
 32 33  1  0
 32  2  1  0
 15 10  1  0
 28 19  1  0
M  END
>  <plip>  (1) 
-0.07142857142857142

>  <filename>  (1) 
[H][c]1[n][c]([H])[c]([C]([H])([H])[n]2[c]([H])[n][n][c]2[S](=[O])(=[O])[c]2[c]([H])[c]([H])[c]([Cl])[c]([H])[c]2[H])[c]([H])[c]1[H]

$$$$
