
     RDKit          3D

 36 38  0  0  0  0  0  0  0  0999 V2000
    9.4907   -1.3508   22.0839 C   0  0  0  0  0  0  0  0  0  0  0  0
    8.7571   -0.2820   21.2745 C   0  0  0  0  0  0  0  0  0  0  0  0
    8.7400    1.0765   21.9740 C   0  0  0  0  0  0  0  0  0  0  0  0
    9.7681    1.4238   22.1272 H   0  0  0  0  0  0  0  0  0  0  0  0
    8.2159    1.8261   21.3723 H   0  0  0  0  0  0  0  0  0  0  0  0
    8.2486    1.0054   22.9484 H   0  0  0  0  0  0  0  0  0  0  0  0
    7.3963   -0.7400   20.9145 N   0  0  0  0  0  0  0  0  0  0  0  0
    6.6969   -1.7699   21.5944 C   0  0  0  0  0  0  0  0  0  0  0  0
    6.2753   -2.7459   21.0042 O   0  0  0  0  0  0  0  0  0  0  0  0
    6.4574   -1.6156   23.0969 C   0  0  0  0  0  0  0  0  0  0  0  0
    6.5244   -0.5256   23.7982 N   0  0  0  0  0  0  0  0  0  0  0  0
    5.9214   -0.6829   25.0261 C   0  0  0  0  0  0  0  0  0  0  0  0
    5.7249    0.3633   25.9430 C   0  0  0  0  0  0  0  0  0  0  0  0
    5.1059    0.0463   27.1371 C   0  0  0  0  0  0  0  0  0  0  0  0
    4.9650    1.0022   28.0686 F   0  0  0  0  0  0  0  0  0  0  0  0
    4.6271   -1.2427   27.4322 C   0  0  0  0  0  0  0  0  0  0  0  0
    4.7700   -2.2605   26.4907 C   0  0  0  0  0  0  0  0  0  0  0  0
    5.4454   -1.9892   25.2912 C   0  0  0  0  0  0  0  0  0  0  0  0
    5.7893   -3.0116   23.9265 S   0  0  0  0  0  0  0  0  0  0  0  0
    4.3650   -3.2505   26.6855 H   0  0  0  0  0  0  0  0  0  0  0  0
    4.1883   -1.4262   28.4079 H   0  0  0  0  0  0  0  0  0  0  0  0
    6.0286    1.3770   25.7021 H   0  0  0  0  0  0  0  0  0  0  0  0
    6.7099   -0.0497   19.8602 C   0  0  0  0  0  0  0  0  0  0  0  0
    5.4918    0.5958   20.1350 C   0  0  0  0  0  0  0  0  0  0  0  0
    4.8415    1.2879   19.1071 C   0  0  0  0  0  0  0  0  0  0  0  0
    5.4282    1.3082   17.8375 C   0  0  0  0  0  0  0  0  0  0  0  0
    6.5895    0.6990   17.5501 N   0  0  0  0  0  0  0  0  0  0  0  0
    7.2171    0.0526   18.5427 C   0  0  0  0  0  0  0  0  0  0  0  0
    8.1659   -0.4237   18.2864 H   0  0  0  0  0  0  0  0  0  0  0  0
    4.9404    1.8299   17.0171 H   0  0  0  0  0  0  0  0  0  0  0  0
    3.9043    1.8136   19.2757 H   0  0  0  0  0  0  0  0  0  0  0  0
    5.0950    0.5748   21.1518 H   0  0  0  0  0  0  0  0  0  0  0  0
    9.3018   -0.1408   20.3270 H   0  0  0  0  0  0  0  0  0  0  0  0
    9.0336   -1.4762   23.0697 H   0  0  0  0  0  0  0  0  0  0  0  0
   10.5403   -1.0810   22.2374 H   0  0  0  0  0  0  0  0  0  0  0  0
    9.4590   -2.3152   21.5692 H   0  0  0  0  0  0  0  0  0  0  0  0
  1  2  1  0
  2  3  1  0
  3  4  1  0
  3  5  1  0
  3  6  1  0
  2  7  1  0
  7  8  1  0
  8  9  2  0
  8 10  1  0
 10 11  2  0
 11 12  1  0
 12 13  2  0
 13 14  1  0
 14 15  1  0
 14 16  2  0
 16 17  1  0
 17 18  2  0
 18 19  1  0
 17 20  1  0
 16 21  1  0
 13 22  1  0
  7 23  1  0
 23 24  2  0
 24 25  1  0
 25 26  2  0
 26 27  1  0
 27 28  2  0
 28 29  1  0
 26 30  1  0
 25 31  1  0
 24 32  1  0
  2 33  1  0
  1 34  1  0
  1 35  1  0
  1 36  1  0
 19 10  1  0
 28 23  1  0
 18 12  1  0
M  END
>  <plip>  (1) 
-0.07142857142857142

>  <filename>  (1) 
[H][c]1[n][c]([H])[c]([N]([C](=[O])[c]2[n][c]3[c]([H])[c]([F])[c]([H])[c]([H])[c]3[s]2)[C]([H])([C]([H])([H])[H])[C]([H])([H])[H])[c]([H])[c]1[H]

$$$$
