
     RDKit          3D

 41 43  0  0  0  0  0  0  0  0999 V2000
    4.9229    1.7859   16.9923 H   0  0  0  0  0  0  0  0  0  0  0  0
    5.4004    1.2955   17.8367 C   0  0  0  0  0  0  0  0  0  0  0  0
    6.5683    0.6840   17.5743 N   0  0  0  0  0  0  0  0  0  0  0  0
    7.1657    0.0525   18.5915 C   0  0  0  0  0  0  0  0  0  0  0  0
    8.1177   -0.4304   18.3780 H   0  0  0  0  0  0  0  0  0  0  0  0
    6.6264   -0.0325   19.8864 C   0  0  0  0  0  0  0  0  0  0  0  0
    7.5784   -0.8714   21.1428 S   0  0  0  0  0  0  0  0  0  0  0  0
    8.5114    0.5217   21.6750 N   0  0  0  0  0  0  0  0  0  0  0  0
    8.9551    0.8794   20.8243 H   0  0  0  0  0  0  0  0  0  0  0  0
    7.6527    1.5630   22.2338 N   0  0  0  0  0  0  0  0  0  0  0  0
    8.1216    2.9088   21.8872 C   0  0  0  0  0  0  0  0  0  0  0  0
    9.1318    3.1202   22.2938 H   0  0  0  0  0  0  0  0  0  0  0  0
    8.2301    2.9060   20.8094 H   0  0  0  0  0  0  0  0  0  0  0  0
    7.1235    3.9482   22.3861 C   0  0  0  0  0  0  0  0  0  0  0  0
    7.4707    4.9605   22.1525 H   0  0  0  0  0  0  0  0  0  0  0  0
    6.1598    3.8144   21.8820 H   0  0  0  0  0  0  0  0  0  0  0  0
    6.9387    3.8015   23.9107 C   0  0  0  0  0  0  0  0  0  0  0  0
    7.9172    3.9950   24.3792 H   0  0  0  0  0  0  0  0  0  0  0  0
    6.0069    4.7620   24.4847 N   0  0  0  0  0  0  0  0  0  0  0  0
    6.5145    6.1369   24.5915 C   0  0  0  0  0  0  0  0  0  0  0  0
    7.4832    6.2439   24.0824 H   0  0  0  0  0  0  0  0  0  0  0  0
    6.7053    6.4044   25.6395 H   0  0  0  0  0  0  0  0  0  0  0  0
    5.4611    7.0681   23.9586 C   0  0  0  0  0  0  0  0  0  0  0  0
    5.9251    7.8204   23.3135 H   0  0  0  0  0  0  0  0  0  0  0  0
    4.9193    7.6102   24.7388 H   0  0  0  0  0  0  0  0  0  0  0  0
    4.5263    6.1288   23.1848 C   0  0  0  0  0  0  0  0  0  0  0  0
    4.8622    5.9992   22.1490 H   0  0  0  0  0  0  0  0  0  0  0  0
    3.4953    6.4903   23.1503 H   0  0  0  0  0  0  0  0  0  0  0  0
    4.6432    4.8042   23.9413 C   0  0  0  0  0  0  0  0  0  0  0  0
    4.4312    3.9419   23.2993 H   0  0  0  0  0  0  0  0  0  0  0  0
    3.9144    4.7590   24.7631 H   0  0  0  0  0  0  0  0  0  0  0  0
    6.5712    2.3586   24.2815 C   0  0  0  0  0  0  0  0  0  0  0  0
    5.5665    2.1207   23.9138 H   0  0  0  0  0  0  0  0  0  0  0  0
    6.5548    2.2468   25.3684 H   0  0  0  0  0  0  0  0  0  0  0  0
    7.5657    1.3693   23.6786 C   0  0  0  0  0  0  0  0  0  0  0  0
    8.5701    1.4990   24.1193 H   0  0  0  0  0  0  0  0  0  0  0  0
    7.2597    0.3416   23.8811 H   0  0  0  0  0  0  0  0  0  0  0  0
    5.4254    0.6315   20.1598 C   0  0  0  0  0  0  0  0  0  0  0  0
    5.0249    0.6338   21.1785 H   0  0  0  0  0  0  0  0  0  0  0  0
    4.8000    1.3067   19.1041 C   0  0  0  0  0  0  0  0  0  0  0  0
    3.8717    1.8453   19.2532 H   0  0  0  0  0  0  0  0  0  0  0  0
  1  2  1  0
  2  3  2  0
  3  4  1  0
  4  5  1  0
  4  6  2  0
  6  7  1  0
  7  8  1  0
  8  9  1  0
  8 10  1  0
 10 11  1  0
 11 12  1  0
 11 13  1  0
 11 14  1  0
 14 15  1  0
 14 16  1  0
 14 17  1  0
 17 18  1  0
 17 19  1  0
 19 20  1  0
 20 21  1  0
 20 22  1  0
 20 23  1  0
 23 24  1  0
 23 25  1  0
 23 26  1  0
 26 27  1  0
 26 28  1  0
 26 29  1  0
 29 30  1  0
 29 31  1  0
 17 32  1  0
 32 33  1  0
 32 34  1  0
 32 35  1  0
 35 36  1  0
 35 37  1  0
  6 38  1  0
 38 39  1  0
 38 40  2  0
 40 41  1  0
 40  2  1  0
 35 10  1  0
 29 19  1  0
M  END
>  <plip>  (1) 
-0.07142857142857142

>  <filename>  (1) 
[H][c]1[n][c]([H])[c]([S][N]([H])[N]2[C]([H])([H])[C]([H])([H])[C]([H])([N]3[C]([H])([H])[C]([H])([H])[C]([H])([H])[C]3([H])[H])[C]([H])([H])[C]2([H])[H])[c]([H])[c]1[H]

$$$$
