
     RDKit          3D

 33 34  0  0  0  0  0  0  0  0999 V2000
    4.9285    1.8090   16.9335 H   0  0  0  0  0  0  0  0  0  0  0  0
    5.4028    1.3314   17.7871 C   0  0  0  0  0  0  0  0  0  0  0  0
    6.5800    0.7324   17.5541 N   0  0  0  0  0  0  0  0  0  0  0  0
    7.1719    0.1369   18.5989 C   0  0  0  0  0  0  0  0  0  0  0  0
    8.1257   -0.3494   18.3938 H   0  0  0  0  0  0  0  0  0  0  0  0
    6.6398    0.0858   19.9019 C   0  0  0  0  0  0  0  0  0  0  0  0
    7.3190   -0.6722   21.0229 C   0  0  0  0  0  0  0  0  0  0  0  0
    7.3457   -0.0337   21.9139 H   0  0  0  0  0  0  0  0  0  0  0  0
    8.3628   -0.8833   20.7626 H   0  0  0  0  0  0  0  0  0  0  0  0
    6.6101   -2.0007   21.4175 C   0  0  2  0  0  0  0  0  0  0  0  0
    5.6023   -1.7265   21.7602 H   0  0  0  0  0  0  0  0  0  0  0  0
    7.3035   -2.7141   22.5688 C   0  0  0  0  0  0  0  0  0  0  0  0
    8.6594   -3.0947   22.5082 C   0  0  0  0  0  0  0  0  0  0  0  0
    9.2576   -2.9054   21.6139 H   0  0  0  0  0  0  0  0  0  0  0  0
    9.2525   -3.7224   23.6079 C   0  0  0  0  0  0  0  0  0  0  0  0
   10.3037   -3.9914   23.5642 H   0  0  0  0  0  0  0  0  0  0  0  0
    8.5233   -4.0053   24.7732 C   0  0  0  0  0  0  0  0  0  0  0  0
    8.9973   -4.4889   25.6202 H   0  0  0  0  0  0  0  0  0  0  0  0
    7.1748   -3.6487   24.8097 C   0  0  0  0  0  0  0  0  0  0  0  0
    6.2883   -3.8627   25.8679 O   0  0  0  0  0  0  0  0  0  0  0  0
    6.6878   -4.4106   27.0312 C   0  0  0  0  0  0  0  0  0  0  0  0
    7.6978   -3.7307   27.5975 F   0  0  0  0  0  0  0  0  0  0  0  0
    7.1052   -5.6778   26.8833 F   0  0  0  0  0  0  0  0  0  0  0  0
    5.6496   -4.4019   27.8600 F   0  0  0  0  0  0  0  0  0  0  0  0
    6.5729   -3.0173   23.7258 C   0  0  0  0  0  0  0  0  0  0  0  0
    5.5185   -2.7739   23.8137 H   0  0  0  0  0  0  0  0  0  0  0  0
    6.4084   -2.9434   20.3075 N   0  0  0  0  0  0  0  0  0  0  0  0
    7.3184   -3.3111   20.0294 H   0  0  0  0  0  0  0  0  0  0  0  0
    6.0968   -2.4086   19.5014 H   0  0  0  0  0  0  0  0  0  0  0  0
    5.4065    0.7206   20.1158 C   0  0  0  0  0  0  0  0  0  0  0  0
    4.9562    0.7306   21.1140 H   0  0  0  0  0  0  0  0  0  0  0  0
    4.7824    1.3517   19.0409 C   0  0  0  0  0  0  0  0  0  0  0  0
    3.8379    1.8674   19.1647 H   0  0  0  0  0  0  0  0  0  0  0  0
  1  2  1  0
  2  3  2  0
  3  4  1  0
  4  5  1  0
  4  6  2  0
  6  7  1  0
  7  8  1  0
  7  9  1  0
  7 10  1  0
 10 11  1  1
 10 12  1  0
 12 13  2  0
 13 14  1  0
 13 15  1  0
 15 16  1  0
 15 17  2  0
 17 18  1  0
 17 19  1  0
 19 20  1  0
 20 21  1  0
 21 22  1  0
 21 23  1  0
 21 24  1  0
 19 25  2  0
 25 26  1  0
 10 27  1  0
 27 28  1  0
 27 29  1  0
  6 30  1  0
 30 31  1  0
 30 32  2  0
 32 33  1  0
 32  2  1  0
 25 12  1  0
M  END
>  <plip>  (1) 
-0.06896551724137931

>  <filename>  (1) 
[H][c]1[n][c]([H])[c]([C]([H])([H])[C@]([H])([c]2[c]([H])[c]([H])[c]([H])[c]([O][C]([F])([F])[F])[c]2[H])[N]([H])[H])[c]([H])[c]1[H]

$$$$
