
     RDKit          3D

 41 43  0  0  0  0  0  0  0  0999 V2000
    5.1537    1.6902   16.8185 H   0  0  0  0  0  0  0  0  0  0  0  0
    5.5354    1.2328   17.7304 C   0  0  0  0  0  0  0  0  0  0  0  0
    6.6795    0.5430   17.6120 N   0  0  0  0  0  0  0  0  0  0  0  0
    7.1940    0.0046   18.7306 C   0  0  0  0  0  0  0  0  0  0  0  0
    8.1126   -0.5551   18.5606 H   0  0  0  0  0  0  0  0  0  0  0  0
    6.6327    0.1186   20.0204 C   0  0  0  0  0  0  0  0  0  0  0  0
    7.2791   -0.4004   21.3178 C   0  0  1  0  0  0  0  0  0  0  0  0
    6.4296   -0.4811   22.0099 H   0  0  0  0  0  0  0  0  0  0  0  0
    7.8716   -1.8345   21.2404 C   0  0  0  0  0  0  0  0  0  0  0  0
    7.9214   -2.2368   22.2636 H   0  0  0  0  0  0  0  0  0  0  0  0
    7.1590   -2.4648   20.6966 H   0  0  0  0  0  0  0  0  0  0  0  0
    9.2887   -1.9453   20.6552 C   0  0  0  0  0  0  0  0  0  0  0  0
    9.2570   -1.7579   19.5791 H   0  0  0  0  0  0  0  0  0  0  0  0
    9.6536   -2.9685   20.7845 H   0  0  0  0  0  0  0  0  0  0  0  0
   10.2544   -0.9500   21.3062 C   0  0  0  0  0  0  0  0  0  0  0  0
   11.2396   -0.9737   20.8221 H   0  0  0  0  0  0  0  0  0  0  0  0
   10.4086   -1.2578   22.3541 H   0  0  0  0  0  0  0  0  0  0  0  0
    9.6728    0.4717   21.2167 C   0  0  0  0  0  0  0  0  0  0  0  0
   10.3891    1.2060   21.5990 H   0  0  0  0  0  0  0  0  0  0  0  0
    9.5133    0.7161   20.1566 H   0  0  0  0  0  0  0  0  0  0  0  0
    8.3208    0.5928   21.9600 C   0  0  2  0  0  0  0  0  0  0  0  0
    7.9427    1.6222   21.8235 H   0  0  0  0  0  0  0  0  0  0  0  0
    8.4712    0.3272   23.4959 C   0  0  0  0  0  0  0  0  0  0  0  0
    8.5329   -0.7657   23.6385 H   0  0  0  0  0  0  0  0  0  0  0  0
    7.2446    0.8290   24.2875 C   0  0  0  0  0  0  0  0  0  0  0  0
    6.3288    0.3358   23.9419 H   0  0  0  0  0  0  0  0  0  0  0  0
    7.1239    1.9073   24.1147 H   0  0  0  0  0  0  0  0  0  0  0  0
    7.4180    0.5944   25.7926 C   0  0  0  0  0  0  0  0  0  0  0  0
    6.6099    1.0526   26.3748 H   0  0  0  0  0  0  0  0  0  0  0  0
    7.4172   -0.4885   26.0146 H   0  0  0  0  0  0  0  0  0  0  0  0
    8.6153    1.1802   26.2745 O   0  0  0  0  0  0  0  0  0  0  0  0
    9.7805    0.6698   25.6508 C   0  0  0  0  0  0  0  0  0  0  0  0
    9.8783   -0.4116   25.8638 H   0  0  0  0  0  0  0  0  0  0  0  0
   10.6264    1.1755   26.1311 H   0  0  0  0  0  0  0  0  0  0  0  0
    9.7547    0.9127   24.1387 C   0  0  0  0  0  0  0  0  0  0  0  0
    9.7974    1.9946   23.9512 H   0  0  0  0  0  0  0  0  0  0  0  0
   10.6488    0.4687   23.6884 H   0  0  0  0  0  0  0  0  0  0  0  0
    5.3991    0.8014   20.0938 C   0  0  0  0  0  0  0  0  0  0  0  0
    4.8768    0.8895   21.0515 H   0  0  0  0  0  0  0  0  0  0  0  0
    4.8501    1.3694   18.9412 C   0  0  0  0  0  0  0  0  0  0  0  0
    3.9227    1.9366   18.9708 H   0  0  0  0  0  0  0  0  0  0  0  0
  1  2  1  0
  2  3  2  0
  3  4  1  0
  4  5  1  0
  4  6  2  0
  6  7  1  0
  7  8  1  1
  7  9  1  0
  9 10  1  0
  9 11  1  0
  9 12  1  0
 12 13  1  0
 12 14  1  0
 12 15  1  0
 15 16  1  0
 15 17  1  0
 15 18  1  0
 18 19  1  0
 18 20  1  0
 18 21  1  0
 21 22  1  1
 21 23  1  0
 23 24  1  0
 23 25  1  0
 25 26  1  0
 25 27  1  0
 25 28  1  0
 28 29  1  0
 28 30  1  0
 28 31  1  0
 31 32  1  0
 32 33  1  0
 32 34  1  0
 32 35  1  0
 35 36  1  0
 35 37  1  0
  6 38  1  0
 38 39  1  0
 38 40  2  0
 40 41  1  0
 40  2  1  0
 21  7  1  0
 35 23  1  0
M  END
>  <plip>  (1) 
-0.03571428571428571

>  <filename>  (1) 
[H][c]1[n][c]([H])[c]([C@@]2([H])[C]([H])([H])[C]([H])([H])[C]([H])([H])[C]([H])([H])[C@]2([H])[C]2([H])[C]([H])([H])[C]([H])([H])[O][C]([H])([H])[C]2([H])[H])[c]([H])[c]1[H]

$$$$
