
     RDKit          3D

 37 38  0  0  0  0  0  0  0  0999 V2000
    5.0417    1.8173   17.0994 H   0  0  0  0  0  0  0  0  0  0  0  0
    5.5476    1.2791   17.8991 C   0  0  0  0  0  0  0  0  0  0  0  0
    6.7400    0.7405   17.5969 N   0  0  0  0  0  0  0  0  0  0  0  0
    7.3985    0.0772   18.5574 C   0  0  0  0  0  0  0  0  0  0  0  0
    8.3742   -0.3238   18.2839 H   0  0  0  0  0  0  0  0  0  0  0  0
    6.8772   -0.1374   19.8593 C   0  0  0  0  0  0  0  0  0  0  0  0
    7.5480   -0.9071   20.8527 N   0  0  0  0  0  0  0  0  0  0  0  0
    6.8763   -1.6903   21.7743 C   0  0  0  0  0  0  0  0  0  0  0  0
    5.7893   -2.2091   21.6538 O   0  0  0  0  0  0  0  0  0  0  0  0
    7.6957   -1.8627   22.8657 N   0  0  0  0  0  0  0  0  0  0  0  0
    7.4299   -2.6936   23.3667 H   0  0  0  0  0  0  0  0  0  0  0  0
    9.0748   -1.5552   22.5372 C   0  0  0  0  0  0  0  0  0  0  0  0
    9.6919   -2.4486   22.4149 H   0  0  0  0  0  0  0  0  0  0  0  0
    9.5527   -0.9396   23.3126 H   0  0  0  0  0  0  0  0  0  0  0  0
    8.9541   -0.7806   21.1917 C   0  0  2  0  0  0  0  0  0  0  0  0
    9.5666   -1.2661   20.4159 H   0  0  0  0  0  0  0  0  0  0  0  0
    9.3327    0.6042   21.2487 N   0  0  0  0  0  0  0  0  0  0  0  0
   10.3415    0.6890   21.2507 H   0  0  0  0  0  0  0  0  0  0  0  0
    8.7051    1.4434   22.2909 C   0  0  0  0  0  0  0  0  0  0  0  0
    9.3385    1.5539   23.1857 H   0  0  0  0  0  0  0  0  0  0  0  0
    7.7532    1.0134   22.6297 H   0  0  0  0  0  0  0  0  0  0  0  0
    8.4372    2.8302   21.6778 C   0  0  0  0  0  0  0  0  0  0  0  0
    9.4223    3.2312   21.4294 H   0  0  0  0  0  0  0  0  0  0  0  0
    7.9221    2.6187   20.7346 H   0  0  0  0  0  0  0  0  0  0  0  0
    7.6855    3.8441   22.4013 N   0  0  0  0  0  0  0  0  0  0  0  0
    6.2506    3.6949   22.3370 C   0  0  0  0  0  0  0  0  0  0  0  0
    5.8347    2.8778   22.9541 H   0  0  0  0  0  0  0  0  0  0  0  0
    5.9546    3.5043   21.2970 H   0  0  0  0  0  0  0  0  0  0  0  0
    5.7466    4.6204   22.6391 H   0  0  0  0  0  0  0  0  0  0  0  0
    8.2424    4.3610   23.6319 C   0  0  0  0  0  0  0  0  0  0  0  0
    8.2013    3.6783   24.5026 H   0  0  0  0  0  0  0  0  0  0  0  0
    9.2921    4.6385   23.4700 H   0  0  0  0  0  0  0  0  0  0  0  0
    7.7172    5.2835   23.9165 H   0  0  0  0  0  0  0  0  0  0  0  0
    5.6460    0.4633   20.1646 C   0  0  0  0  0  0  0  0  0  0  0  0
    5.2242    0.3447   21.1649 H   0  0  0  0  0  0  0  0  0  0  0  0
    4.9741    1.1825   19.1742 C   0  0  0  0  0  0  0  0  0  0  0  0
    4.0299    1.6809   19.3705 H   0  0  0  0  0  0  0  0  0  0  0  0
  1  2  1  0
  2  3  2  0
  3  4  1  0
  4  5  1  0
  4  6  2  0
  6  7  1  0
  7  8  1  0
  8  9  2  0
  8 10  1  0
 10 11  1  0
 10 12  1  0
 12 13  1  0
 12 14  1  0
 12 15  1  0
 15 16  1  6
 15 17  1  0
 17 18  1  0
 17 19  1  0
 19 20  1  0
 19 21  1  0
 19 22  1  0
 22 23  1  0
 22 24  1  0
 22 25  1  0
 25 26  1  0
 26 27  1  0
 26 28  1  0
 26 29  1  0
 25 30  1  0
 30 31  1  0
 30 32  1  0
 30 33  1  0
  6 34  1  0
 34 35  1  0
 34 36  2  0
 36 37  1  0
 36  2  1  0
 15  7  1  0
M  END
>  <plip>  (1) 
-0.14285714285714285

>  <filename>  (1) 
[H][c]1[n][c]([H])[c]([N]2[C](=[O])[N]([H])[C]([H])([H])[C@]2([H])[N]([H])[C]([H])([H])[C]([H])([H])[N]([C]([H])([H])[H])[C]([H])([H])[H])[c]([H])[c]1[H]

$$$$
