
     RDKit          3D

 25 26  0  0  0  0  0  0  0  0999 V2000
    7.0561   -2.3774   20.3102 H   0  0  0  0  0  0  0  0  0  0  0  0
    7.8907   -1.9473   20.5327 O   0  0  0  0  0  0  0  0  0  0  0  0
    7.4809   -0.6803   20.9876 C   0  0  2  0  0  0  0  0  0  0  0  0
    6.6421    0.0015   19.9198 C   0  0  0  0  0  0  0  0  0  0  0  0
    7.1594    0.0390   18.6175 C   0  0  0  0  0  0  0  0  0  0  0  0
    8.1112   -0.4360   18.3880 H   0  0  0  0  0  0  0  0  0  0  0  0
    6.5602    0.6561   17.5911 N   0  0  0  0  0  0  0  0  0  0  0  0
    5.4028    1.2845   17.8395 C   0  0  0  0  0  0  0  0  0  0  0  0
    4.9380    1.7841   16.9913 H   0  0  0  0  0  0  0  0  0  0  0  0
    4.8032    1.3094   19.0999 C   0  0  0  0  0  0  0  0  0  0  0  0
    3.8761    1.8431   19.2463 H   0  0  0  0  0  0  0  0  0  0  0  0
    5.4259    0.6503   20.1600 C   0  0  0  0  0  0  0  0  0  0  0  0
    4.9723    0.6490   21.1539 H   0  0  0  0  0  0  0  0  0  0  0  0
    8.7026    0.0681   21.2155 N   0  0  0  0  0  0  0  0  0  0  0  0
    9.9529   -0.4531   21.3912 C   0  0  0  0  0  0  0  0  0  0  0  0
   10.1765   -1.5083   21.2924 H   0  0  0  0  0  0  0  0  0  0  0  0
   10.8217    0.4750   21.6862 N   0  0  0  0  0  0  0  0  0  0  0  0
   10.1177    1.6546   21.7251 C   0  0  0  0  0  0  0  0  0  0  0  0
   10.5939    2.5953   21.9504 H   0  0  0  0  0  0  0  0  0  0  0  0
    8.8034    1.4291   21.4476 C   0  0  0  0  0  0  0  0  0  0  0  0
    7.9489    2.0860   21.3744 H   0  0  0  0  0  0  0  0  0  0  0  0
    6.7547   -0.8806   22.3075 C   0  0  0  0  0  0  0  0  0  0  0  0
    5.8344   -1.4362   22.1083 H   0  0  0  0  0  0  0  0  0  0  0  0
    7.3879   -1.4820   22.9675 H   0  0  0  0  0  0  0  0  0  0  0  0
    6.5276    0.0791   22.7856 H   0  0  0  0  0  0  0  0  0  0  0  0
  1  2  1  0
  3  2  1  6
  3  4  1  0
  4  5  2  0
  5  6  1  0
  5  7  1  0
  7  8  2  0
  8  9  1  0
  8 10  1  0
 10 11  1  0
 10 12  2  0
 12 13  1  0
  3 14  1  0
 14 15  1  0
 15 16  1  0
 15 17  2  0
 17 18  1  0
 18 19  1  0
 18 20  2  0
 20 21  1  0
  3 22  1  0
 22 23  1  0
 22 24  1  0
 22 25  1  0
 12  4  1  0
 20 14  1  0
M  END
>  <plip>  (1) 
-0.034482758620689655

>  <filename>  (1) 
[H][O][C@]([c]1[c]([H])[n][c]([H])[c]([H])[c]1[H])([n]1[c]([H])[n][c]([H])[c]1[H])[C]([H])([H])[H]

$$$$
