
     RDKit          3D

 51 53  0  0  0  0  0  0  0  0999 V2000
    6.1195   -2.9102   19.8719 O   0  0  0  0  0  0  0  0  0  0  0  0
    6.0036   -2.7267   21.0648 C   0  0  0  0  0  0  0  0  0  0  0  0
    5.2042   -3.6695   21.9581 C   0  0  0  0  0  0  0  0  0  0  0  0
    5.9765   -4.4027   23.0406 C   0  0  0  0  0  0  0  0  0  0  0  0
    5.4255   -5.2651   23.9051 C   0  0  0  0  0  0  0  0  0  0  0  0
    6.0722   -5.7724   25.1427 C   0  0  0  0  0  0  0  0  0  0  0  0
    5.3684   -6.6911   25.9487 C   0  0  0  0  0  0  0  0  0  0  0  0
    5.8739   -7.0276   27.2002 C   0  0  0  0  0  0  0  0  0  0  0  0
    5.1743   -7.8648   27.9872 F   0  0  0  0  0  0  0  0  0  0  0  0
    7.0836   -6.5200   27.6704 C   0  0  0  0  0  0  0  0  0  0  0  0
    7.8264   -5.6842   26.8368 C   0  0  0  0  0  0  0  0  0  0  0  0
    7.3327   -5.3178   25.5837 C   0  0  0  0  0  0  0  0  0  0  0  0
    7.9217   -4.6442   24.9669 H   0  0  0  0  0  0  0  0  0  0  0  0
    8.7842   -5.2982   27.1763 H   0  0  0  0  0  0  0  0  0  0  0  0
    7.4455   -6.8183   28.6479 H   0  0  0  0  0  0  0  0  0  0  0  0
    4.4315   -7.1451   25.6347 H   0  0  0  0  0  0  0  0  0  0  0  0
    4.3917   -5.5997   23.7817 H   0  0  0  0  0  0  0  0  0  0  0  0
    7.0521   -4.2311   23.1106 H   0  0  0  0  0  0  0  0  0  0  0  0
    4.3803   -3.0959   22.4011 H   0  0  0  0  0  0  0  0  0  0  0  0
    4.7452   -4.4041   21.2989 H   0  0  0  0  0  0  0  0  0  0  0  0
    6.6124   -1.6787   21.7349 N   0  0  0  0  0  0  0  0  0  0  0  0
    7.3906   -0.7001   20.9756 C   0  0  0  0  0  0  0  0  0  0  0  0
    8.0263    0.3388   21.9260 C   0  0  0  0  0  0  0  0  0  0  0  0
    8.9931   -0.2878   22.9323 N   0  0  0  0  0  4  0  0  0  0  0  0
    9.2757    0.5748   24.1350 C   0  0  0  0  0  0  0  0  0  0  0  0
   10.4529    1.4594   23.7237 C   0  0  0  0  0  0  0  0  0  0  0  0
   11.2579    0.6184   22.7147 C   0  0  0  0  0  0  0  0  0  0  0  0
   10.3637   -0.5763   22.3414 C   0  0  0  0  0  0  0  0  0  0  0  0
   10.2787   -0.7126   21.2615 H   0  0  0  0  0  0  0  0  0  0  0  0
   10.7402   -1.5098   22.7674 H   0  0  0  0  0  0  0  0  0  0  0  0
   12.1981    0.2557   23.1389 H   0  0  0  0  0  0  0  0  0  0  0  0
   11.5070    1.2066   21.8266 H   0  0  0  0  0  0  0  0  0  0  0  0
   10.0799    2.3757   23.2517 H   0  0  0  0  0  0  0  0  0  0  0  0
   11.0449    1.7589   24.5931 H   0  0  0  0  0  0  0  0  0  0  0  0
    8.3883    1.1511   24.4102 H   0  0  0  0  0  0  0  0  0  0  0  0
    9.5373   -0.0687   24.9790 H   0  0  0  0  0  0  0  0  0  0  0  0
    8.5302   -1.1744   23.2136 H   0  0  0  0  0  0  0  0  0  0  0  0
    7.2157    0.8492   22.4645 H   0  0  0  0  0  0  0  0  0  0  0  0
    8.5531    1.0959   21.3364 H   0  0  0  0  0  0  0  0  0  0  0  0
    6.5843   -0.0155   19.8906 C   0  0  0  0  0  0  0  0  0  0  0  0
    5.3683    0.6469   20.1145 C   0  0  0  0  0  0  0  0  0  0  0  0
    4.7765    1.3289   19.0471 C   0  0  0  0  0  0  0  0  0  0  0  0
    5.4102    1.3208   17.7989 C   0  0  0  0  0  0  0  0  0  0  0  0
    6.5551    0.6675   17.5581 N   0  0  0  0  0  0  0  0  0  0  0  0
    7.1053    0.0166   18.5909 C   0  0  0  0  0  0  0  0  0  0  0  0
    8.0381   -0.5075   18.3785 H   0  0  0  0  0  0  0  0  0  0  0  0
    4.9785    1.8581   16.9544 H   0  0  0  0  0  0  0  0  0  0  0  0
    3.8512    1.8793   19.1678 H   0  0  0  0  0  0  0  0  0  0  0  0
    4.8869    0.6468   21.0974 H   0  0  0  0  0  0  0  0  0  0  0  0
    8.2033   -1.2611   20.4929 H   0  0  0  0  0  0  0  0  0  0  0  0
    6.0075   -1.2886   22.4454 H   0  0  0  0  0  0  0  0  0  0  0  0
  1  2  2  0
  2  3  1  0
  3  4  1  0
  4  5  2  3
  5  6  1  0
  6  7  2  0
  7  8  1  0
  8  9  1  0
  8 10  2  0
 10 11  1  0
 11 12  2  0
 12 13  1  0
 11 14  1  0
 10 15  1  0
  7 16  1  0
  5 17  1  0
  4 18  1  0
  3 19  1  0
  3 20  1  0
  2 21  1  0
 21 22  1  0
 22 23  1  0
 23 24  1  0
 24 25  1  0
 25 26  1  0
 26 27  1  0
 27 28  1  0
 28 29  1  0
 28 30  1  0
 27 31  1  0
 27 32  1  0
 26 33  1  0
 26 34  1  0
 25 35  1  0
 25 36  1  0
 24 37  1  0
 23 38  1  0
 23 39  1  0
 22 40  1  0
 40 41  2  0
 41 42  1  0
 42 43  2  0
 43 44  1  0
 44 45  2  0
 45 46  1  0
 43 47  1  0
 42 48  1  0
 41 49  1  0
 22 50  1  0
 21 51  1  0
 12  6  1  0
 28 24  1  0
 45 40  1  0
M  CHG  1  24   1
M  END
>  <plip>  (1) 
-0.16129032258064516

>  <filename>  (1) 
[H][C](=[C]([H])[C]([H])([H])[C](=[O])[N]([H])[C]([H])([c]1[c]([H])[n][c]([H])[c]([H])[c]1[H])[C]([H])([H])[N+]1([H])[C]([H])([H])[C]([H])([H])[C]([H])([H])[C]1([H])[H])[c]1[c]([H])[c]([H])[c]([H])[c]([F])[c]1[H]

$$$$
