
     RDKit          3D

 41 42  0  0  0  0  0  0  0  0999 V2000
    2.6280   -7.1755   21.8660 C   0  0  0  0  0  0  0  0  0  0  0  0
    3.5512   -6.0986   22.0160 O   0  0  0  0  0  0  0  0  0  0  0  0
    3.2899   -5.1359   22.9555 C   0  0  0  0  0  0  0  0  0  0  0  0
    2.0792   -5.1174   23.6727 C   0  0  0  0  0  0  0  0  0  0  0  0
    1.8531   -4.1763   24.6834 C   0  0  0  0  0  0  0  0  0  0  0  0
    2.8527   -3.2607   25.0074 C   0  0  0  0  0  0  0  0  0  0  0  0
    4.0442   -3.2590   24.2790 C   0  0  0  0  0  0  0  0  0  0  0  0
    4.2922   -4.1535   23.2168 C   0  0  0  0  0  0  0  0  0  0  0  0
    5.5429   -4.0696   22.4196 C   0  0  0  0  0  0  0  0  0  0  0  0
    6.5493   -3.1988   22.6360 C   0  0  0  0  0  0  0  0  0  0  0  0
    7.7740   -3.0362   21.7701 C   0  0  0  0  0  0  0  0  0  0  0  0
    7.4829   -2.0434   20.7187 N   0  0  0  0  0  4  0  0  0  0  0  0
    7.3984   -0.5801   21.1117 C   0  0  1  0  0  0  0  0  0  0  0  0
    8.7688    0.0435   21.3443 C   0  0  0  0  0  0  0  0  0  0  0  0
    9.4125   -0.0168   20.4601 H   0  0  0  0  0  0  0  0  0  0  0  0
    9.2874   -0.4535   22.1684 H   0  0  0  0  0  0  0  0  0  0  0  0
    8.6442    1.0974   21.5956 H   0  0  0  0  0  0  0  0  0  0  0  0
    6.6399    0.0305   19.9670 C   0  0  0  0  0  0  0  0  0  0  0  0
    5.4158    0.6855   20.1414 C   0  0  0  0  0  0  0  0  0  0  0  0
    4.8211    1.3057   19.0419 C   0  0  0  0  0  0  0  0  0  0  0  0
    5.4696    1.2313   17.8046 C   0  0  0  0  0  0  0  0  0  0  0  0
    6.6188    0.5652   17.6072 N   0  0  0  0  0  0  0  0  0  0  0  0
    7.1700   -0.0318   18.6691 C   0  0  0  0  0  0  0  0  0  0  0  0
    8.0899   -0.5874   18.4621 H   0  0  0  0  0  0  0  0  0  0  0  0
    5.0433    1.7118   16.9277 H   0  0  0  0  0  0  0  0  0  0  0  0
    3.8864    1.8515   19.1312 H   0  0  0  0  0  0  0  0  0  0  0  0
    4.9436    0.6923   21.1266 H   0  0  0  0  0  0  0  0  0  0  0  0
    6.8012   -0.5120   22.0293 H   0  0  0  0  0  0  0  0  0  0  0  0
    6.5299   -2.2524   20.3376 H   0  0  0  0  0  0  0  0  0  0  0  0
    8.1546   -2.0701   19.9299 H   0  0  0  0  0  0  0  0  0  0  0  0
    8.6247   -2.7069   22.3815 H   0  0  0  0  0  0  0  0  0  0  0  0
    8.0644   -3.9906   21.3222 H   0  0  0  0  0  0  0  0  0  0  0  0
    6.5147   -2.5117   23.4857 H   0  0  0  0  0  0  0  0  0  0  0  0
    5.6050   -4.7780   21.5908 H   0  0  0  0  0  0  0  0  0  0  0  0
    4.7908   -2.5134   24.5338 H   0  0  0  0  0  0  0  0  0  0  0  0
    2.7243   -2.5547   25.8219 H   0  0  0  0  0  0  0  0  0  0  0  0
    0.9011   -4.1651   25.2140 H   0  0  0  0  0  0  0  0  0  0  0  0
    1.3249   -5.8646   23.4672 H   0  0  0  0  0  0  0  0  0  0  0  0
    2.9404   -7.7484   20.9943 H   0  0  0  0  0  0  0  0  0  0  0  0
    2.6220   -7.8335   22.7451 H   0  0  0  0  0  0  0  0  0  0  0  0
    1.6012   -6.8276   21.6862 H   0  0  0  0  0  0  0  0  0  0  0  0
  1  2  1  0
  2  3  1  0
  3  4  2  0
  4  5  1  0
  5  6  2  0
  6  7  1  0
  7  8  2  0
  8  9  1  0
  9 10  2  3
 10 11  1  0
 11 12  1  0
 12 13  1  0
 13 14  1  0
 14 15  1  0
 14 16  1  0
 14 17  1  0
 13 18  1  0
 18 19  2  0
 19 20  1  0
 20 21  2  0
 21 22  1  0
 22 23  2  0
 23 24  1  0
 21 25  1  0
 20 26  1  0
 19 27  1  0
 13 28  1  1
 12 29  1  0
 12 30  1  0
 11 31  1  0
 11 32  1  0
 10 33  1  0
  9 34  1  0
  7 35  1  0
  6 36  1  0
  5 37  1  0
  4 38  1  0
  1 39  1  0
  1 40  1  0
  1 41  1  0
  8  3  1  0
 23 18  1  0
M  CHG  1  12   1
M  END
>  <plip>  (1) 
-0.034482758620689655

>  <filename>  (1) 
[H][C](=[C]([H])[C]([H])([H])[N+]([H])([H])[C@]([H])([c]1[c]([H])[n][c]([H])[c]([H])[c]1[H])[C]([H])([H])[H])[c]1[c]([H])[c]([H])[c]([H])[c]([H])[c]1[O][C]([H])([H])[H]

$$$$
