
     RDKit          3D

 35 36  0  0  0  0  0  0  0  0999 V2000
    9.4892    0.5852   21.0527 C   0  0  0  0  0  0  0  0  0  0  0  0
    8.2765    0.1272   21.8538 C   0  0  0  0  0  0  0  0  0  0  0  0
    7.2661   -0.7458   21.0618 C   0  0  0  0  0  0  0  0  0  0  0  0
    6.5522   -0.0540   19.9219 C   0  0  0  0  0  0  0  0  0  0  0  0
    5.3498    0.6331   20.1352 C   0  0  0  0  0  0  0  0  0  0  0  0
    4.7779    1.3433   19.0785 C   0  0  0  0  0  0  0  0  0  0  0  0
    5.4122    1.3330   17.8327 C   0  0  0  0  0  0  0  0  0  0  0  0
    6.5423    0.6553   17.5929 N   0  0  0  0  0  0  0  0  0  0  0  0
    7.0866   -0.0153   18.6180 C   0  0  0  0  0  0  0  0  0  0  0  0
    8.0186   -0.5376   18.3959 H   0  0  0  0  0  0  0  0  0  0  0  0
    4.9911    1.8738   16.9862 H   0  0  0  0  0  0  0  0  0  0  0  0
    3.8647    1.9101   19.2080 H   0  0  0  0  0  0  0  0  0  0  0  0
    4.8910    0.6100   21.1256 H   0  0  0  0  0  0  0  0  0  0  0  0
    7.8019   -1.6295   20.6922 H   0  0  0  0  0  0  0  0  0  0  0  0
    6.5370   -1.1043   21.8012 H   0  0  0  0  0  0  0  0  0  0  0  0
    7.6213    1.2858   22.4447 N   0  0  0  0  0  0  0  0  0  0  0  0
    6.9021    1.1815   23.5973 C   0  0  0  0  0  0  0  0  0  0  0  0
    6.8466    0.1573   24.2578 O   0  0  0  0  0  0  0  0  0  0  0  0
    6.2364    2.4861   24.0319 C   0  0  0  0  0  0  0  0  0  0  0  0
    5.0347    2.8222   23.2818 N   0  0  0  0  0  0  0  0  0  0  0  0
    3.8162    2.5084   23.8100 N   0  0  0  0  0  0  0  0  0  0  0  0
    2.9945    3.0367   22.9287 C   0  0  0  0  0  0  0  0  0  0  0  0
    3.5744    3.6247   21.8451 N   0  0  0  0  0  0  0  0  0  0  0  0
    4.8492    3.4788   22.1105 C   0  0  0  0  0  0  0  0  0  0  0  0
    5.8568    3.9173   21.2607 N   0  0  0  0  0  0  0  0  0  0  0  0
    5.2996    4.1490   20.4337 H   0  0  0  0  0  0  0  0  0  0  0  0
    6.1570    4.8230   21.5990 H   0  0  0  0  0  0  0  0  0  0  0  0
    1.9258    3.0327   23.1059 H   0  0  0  0  0  0  0  0  0  0  0  0
    5.9672    2.3748   25.0833 H   0  0  0  0  0  0  0  0  0  0  0  0
    6.9639    3.2960   23.9302 H   0  0  0  0  0  0  0  0  0  0  0  0
    7.3457    2.0309   21.8099 H   0  0  0  0  0  0  0  0  0  0  0  0
    8.6233   -0.4954   22.6890 H   0  0  0  0  0  0  0  0  0  0  0  0
   10.1311    1.2301   21.6651 H   0  0  0  0  0  0  0  0  0  0  0  0
    9.1812    1.1331   20.1584 H   0  0  0  0  0  0  0  0  0  0  0  0
   10.0883   -0.2710   20.7235 H   0  0  0  0  0  0  0  0  0  0  0  0
  1  2  1  0
  2  3  1  0
  3  4  1  0
  4  5  2  0
  5  6  1  0
  6  7  2  0
  7  8  1  0
  8  9  2  0
  9 10  1  0
  7 11  1  0
  6 12  1  0
  5 13  1  0
  3 14  1  0
  3 15  1  0
  2 16  1  0
 16 17  1  0
 17 18  2  0
 17 19  1  0
 19 20  1  0
 20 21  1  0
 21 22  2  0
 22 23  1  0
 23 24  2  0
 24 25  1  0
 25 26  1  0
 25 27  1  0
 22 28  1  0
 19 29  1  0
 19 30  1  0
 16 31  1  0
  2 32  1  0
  1 33  1  0
  1 34  1  0
  1 35  1  0
  9  4  1  0
 24 20  1  0
M  END
>  <plip>  (1) 
-0.10714285714285714

>  <filename>  (1) 
[H][c]1[n][c]([N]([H])[H])[n]([C]([H])([H])[C](=[O])[N]([H])[C]([H])([C]([H])([H])[H])[C]([H])([H])[c]2[c]([H])[n][c]([H])[c]([H])[c]2[H])[n]1

$$$$
