
     RDKit          3D

 32 35  0  0  0  0  0  0  0  0999 V2000
    4.9458    1.8060   16.9501 H   0  0  0  0  0  0  0  0  0  0  0  0
    5.4132    1.3049   17.8038 C   0  0  0  0  0  0  0  0  0  0  0  0
    6.5796    0.6789   17.5790 N   0  0  0  0  0  0  0  0  0  0  0  0
    7.1600    0.0551   18.6153 C   0  0  0  0  0  0  0  0  0  0  0  0
    8.1058   -0.4288   18.3911 H   0  0  0  0  0  0  0  0  0  0  0  0
    6.6347   -0.0013   19.9309 C   0  0  0  0  0  0  0  0  0  0  0  0
    7.3022   -0.7241   21.0572 C   0  0  0  0  0  0  0  0  0  0  0  0
    7.5213   -0.2862   22.4241 C   0  0  0  0  0  0  0  0  0  0  0  0
    7.1861    0.9946   23.0579 C   0  0  0  0  0  0  0  0  0  0  0  0
    6.7180    1.0104   24.4152 C   0  0  0  0  0  0  0  0  0  0  0  0
    6.6399    0.0750   24.9714 H   0  0  0  0  0  0  0  0  0  0  0  0
    6.3585    2.0935   25.0552 N   0  0  0  0  0  0  0  0  0  0  0  0
    6.4648    3.2908   24.3880 C   0  0  0  0  0  0  0  0  0  0  0  0
    6.0855    4.4721   25.0833 C   0  0  0  0  0  0  0  0  0  0  0  0
    5.7333    4.3403   26.1003 H   0  0  0  0  0  0  0  0  0  0  0  0
    6.1639    5.7022   24.4697 C   0  0  0  0  0  0  0  0  0  0  0  0
    5.8795    6.6077   24.9979 H   0  0  0  0  0  0  0  0  0  0  0  0
    6.6220    5.8023   23.1228 C   0  0  0  0  0  0  0  0  0  0  0  0
    6.6671    6.7749   22.6422 H   0  0  0  0  0  0  0  0  0  0  0  0
    7.0002    4.6811   22.4248 C   0  0  0  0  0  0  0  0  0  0  0  0
    7.3508    4.7486   21.3955 H   0  0  0  0  0  0  0  0  0  0  0  0
    6.9371    3.3962   23.0406 C   0  0  0  0  0  0  0  0  0  0  0  0
    7.3197    2.1957   22.3922 C   0  0  0  0  0  0  0  0  0  0  0  0
    7.6982    2.2388   21.3698 H   0  0  0  0  0  0  0  0  0  0  0  0
    8.1332   -1.2020   23.1320 N   0  0  0  0  0  0  0  0  0  0  0  0
    8.3357   -2.2639   22.2994 O   0  0  0  0  0  0  0  0  0  0  0  0
    7.8310   -1.9798   21.1040 C   0  0  0  0  0  0  0  0  0  0  0  0
    7.8727   -2.8269   20.4500 H   0  0  0  0  0  0  0  0  0  0  0  0
    5.4175    0.6692   20.1308 C   0  0  0  0  0  0  0  0  0  0  0  0
    4.9798    0.6948   21.1285 H   0  0  0  0  0  0  0  0  0  0  0  0
    4.7955    1.3157   19.0567 C   0  0  0  0  0  0  0  0  0  0  0  0
    3.8496    1.8310   19.1760 H   0  0  0  0  0  0  0  0  0  0  0  0
  1  2  1  0
  2  3  2  0
  3  4  1  0
  4  5  1  0
  4  6  2  0
  6  7  1  0
  7  8  1  0
  8  9  1  0
  9 10  2  0
 10 11  1  0
 10 12  1  0
 12 13  2  0
 13 14  1  0
 14 15  1  0
 14 16  2  0
 16 17  1  0
 16 18  1  0
 18 19  1  0
 18 20  2  0
 20 21  1  0
 20 22  1  0
 22 23  2  0
 23 24  1  0
  8 25  2  0
 25 26  1  0
 26 27  1  0
 27 28  1  0
  6 29  1  0
 29 30  1  0
 29 31  2  0
 31 32  1  0
 31  2  1  0
 27  7  2  0
 23  9  1  0
 22 13  1  0
M  END
>  <plip>  (1) 
-0.0

>  <filename>  (1) 
[H][c]1[n][c]([H])[c](-[c]2[c](-[c]3[c]([H])[n][c]4[c]([H])[c]([H])[c]([H])[c]([H])[c]4[c]3[H])[n][o][c]2[H])[c]([H])[c]1[H]

$$$$
