
     RDKit          3D

 36 38  0  0  0  0  0  0  0  0999 V2000
    6.4915   -5.2241   23.0257 C   0  0  0  0  0  0  0  0  0  0  0  0
    6.1109   -5.0540   21.5919 C   0  0  0  0  0  0  0  0  0  0  0  0
    5.9313   -3.8554   20.9538 C   0  0  0  0  0  0  0  0  0  0  0  0
    6.1272   -2.5191   21.5760 C   0  0  0  0  0  0  0  0  0  0  0  0
    7.3717   -2.0107   20.9986 N   0  0  0  0  0  4  0  0  0  0  0  0
    8.6072   -2.5394   21.6071 C   0  0  0  0  0  0  0  0  0  0  0  0
    9.6210   -1.4153   21.4736 C   0  0  0  0  0  0  0  0  0  0  0  0
    8.8199   -0.1362   21.2604 C   0  0  0  0  0  0  0  0  0  0  0  0
    7.3672   -0.5677   21.1552 C   0  0  0  0  0  0  0  0  0  0  0  0
    6.6467    0.0175   19.9836 C   0  0  0  0  0  0  0  0  0  0  0  0
    5.4285    0.6648   20.1736 C   0  0  0  0  0  0  0  0  0  0  0  0
    4.8550    1.2885   19.0695 C   0  0  0  0  0  0  0  0  0  0  0  0
    5.4906    1.2265   17.8244 C   0  0  0  0  0  0  0  0  0  0  0  0
    6.6316    0.5411   17.6336 N   0  0  0  0  0  0  0  0  0  0  0  0
    7.1974   -0.0566   18.6973 C   0  0  0  0  0  0  0  0  0  0  0  0
    8.1234   -0.6043   18.5495 H   0  0  0  0  0  0  0  0  0  0  0  0
    5.0436    1.7512   16.9830 H   0  0  0  0  0  0  0  0  0  0  0  0
    3.9301    1.8381   19.1671 H   0  0  0  0  0  0  0  0  0  0  0  0
    4.9482    0.7025   21.1530 H   0  0  0  0  0  0  0  0  0  0  0  0
    6.8512   -0.2998   22.0825 H   0  0  0  0  0  0  0  0  0  0  0  0
    8.9325    0.5391   22.1130 H   0  0  0  0  0  0  0  0  0  0  0  0
    9.1564    0.3870   20.3609 H   0  0  0  0  0  0  0  0  0  0  0  0
   10.2589   -1.3528   22.3590 H   0  0  0  0  0  0  0  0  0  0  0  0
   10.2618   -1.5923   20.6114 H   0  0  0  0  0  0  0  0  0  0  0  0
    8.4428   -2.7798   22.6634 H   0  0  0  0  0  0  0  0  0  0  0  0
    8.9751   -3.4456   21.1073 H   0  0  0  0  0  0  0  0  0  0  0  0
    7.3684   -2.2223   20.0010 H   0  0  0  0  0  0  0  0  0  0  0  0
    5.2956   -1.8441   21.3430 H   0  0  0  0  0  0  0  0  0  0  0  0
    6.1856   -2.5797   22.6674 H   0  0  0  0  0  0  0  0  0  0  0  0
    5.6103   -4.0986   19.2605 S   0  0  0  0  0  0  0  0  0  0  0  0
    5.7717   -5.8224   19.5574 C   0  0  0  0  0  0  0  0  0  0  0  0
    5.6578   -7.0975   18.1600 Br  0  0  0  0  0  0  0  0  0  0  0  0
    6.0213   -6.1730   20.7900 N   0  0  0  0  0  0  0  0  0  0  0  0
    6.5975   -6.2891   23.2422 H   0  0  0  0  0  0  0  0  0  0  0  0
    5.7315   -4.8162   23.6999 H   0  0  0  0  0  0  0  0  0  0  0  0
    7.4542   -4.7377   23.2012 H   0  0  0  0  0  0  0  0  0  0  0  0
  1  2  1  0
  2  3  2  0
  3  4  1  0
  4  5  1  0
  5  6  1  0
  6  7  1  0
  7  8  1  0
  8  9  1  0
  9 10  1  0
 10 11  2  0
 11 12  1  0
 12 13  2  0
 13 14  1  0
 14 15  2  0
 15 16  1  0
 13 17  1  0
 12 18  1  0
 11 19  1  0
  9 20  1  0
  8 21  1  0
  8 22  1  0
  7 23  1  0
  7 24  1  0
  6 25  1  0
  6 26  1  0
  5 27  1  0
  4 28  1  0
  4 29  1  0
  3 30  1  0
 30 31  1  0
 31 32  1  0
 31 33  2  0
  1 34  1  0
  1 35  1  0
  1 36  1  0
 33  2  1  0
  9  5  1  0
 15 10  1  0
M  CHG  1   5   1
M  END
>  <plip>  (1) 
-0.06896551724137931

>  <filename>  (1) 
[H][c]1[n][c]([H])[c]([C]2([H])[C]([H])([H])[C]([H])([H])[C]([H])([H])[N+]2([H])[C]([H])([H])[c]2[s][c]([Br])[n][c]2[C]([H])([H])[H])[c]([H])[c]1[H]

$$$$
