
     RDKit          3D

 24 25  0  0  0  0  0  0  0  0999 V2000
    5.0913    1.7231   17.0590 H   0  0  0  0  0  0  0  0  0  0  0  0
    5.4745    1.2358   17.9552 C   0  0  0  0  0  0  0  0  0  0  0  0
    6.6306    0.5779   17.8141 N   0  0  0  0  0  0  0  0  0  0  0  0
    7.1300   -0.0290   18.8900 C   0  0  0  0  0  0  0  0  0  0  0  0
    8.0711   -0.5525   18.7418 H   0  0  0  0  0  0  0  0  0  0  0  0
    6.5188   -0.0210   20.1574 C   0  0  0  0  0  0  0  0  0  0  0  0
    7.2376   -0.7604   21.2216 C   0  0  0  0  0  0  0  0  0  0  0  0
    8.2898   -1.4582   20.8617 N   0  0  0  0  0  0  0  0  0  0  0  0
    8.9387   -2.1522   22.2264 S   0  0  0  0  0  0  0  0  0  0  0  0
    7.7316   -1.4060   23.2199 C   0  0  0  0  0  0  0  0  0  0  0  0
    7.8022   -1.3890   24.5757 N   0  0  0  0  0  0  0  0  0  0  0  0
    8.2024   -2.1340   25.1204 H   0  0  0  0  0  0  0  0  0  0  0  0
    6.4012   -1.1772   25.4050 S   0  0  0  0  0  0  0  0  0  0  0  0
    5.3607   -1.9885   24.8378 O   0  0  0  0  0  0  0  0  0  0  0  0
    6.8861   -1.3980   26.7530 O   0  0  0  0  0  0  0  0  0  0  0  0
    6.0796    0.5039   25.1305 C   0  0  0  0  0  0  0  0  0  0  0  0
    5.9514    0.6360   24.0640 H   0  0  0  0  0  0  0  0  0  0  0  0
    5.1839    0.7302   25.6967 H   0  0  0  0  0  0  0  0  0  0  0  0
    6.9376    1.0540   25.4947 H   0  0  0  0  0  0  0  0  0  0  0  0
    6.8600   -0.7276   22.5452 N   0  0  0  0  0  0  0  0  0  0  0  0
    5.3050    0.6717   20.2940 C   0  0  0  0  0  0  0  0  0  0  0  0
    4.7775    0.7226   21.2500 H   0  0  0  0  0  0  0  0  0  0  0  0
    4.7778    1.3088   19.1656 C   0  0  0  0  0  0  0  0  0  0  0  0
    3.8473    1.8678   19.1993 H   0  0  0  0  0  0  0  0  0  0  0  0
  1  2  1  0
  2  3  2  0
  3  4  1  0
  4  5  1  0
  4  6  2  0
  6  7  1  0
  7  8  2  0
  8  9  1  0
  9 10  1  0
 10 11  1  0
 11 12  1  0
 11 13  1  0
 13 14  2  0
 13 15  2  0
 13 16  1  0
 16 17  1  0
 16 18  1  0
 16 19  1  0
 10 20  2  0
  6 21  1  0
 21 22  1  0
 21 23  2  0
 23 24  1  0
 23  2  1  0
 20  7  1  0
M  END
>  <plip>  (1) 
-0.0

>  <filename>  (1) 
[H][c]1[n][c]([H])[c](-[c]2[n][s][c]([N]([H])[S](=[O])(=[O])[C]([H])([H])[H])[n]2)[c]([H])[c]1[H]

$$$$
