
     RDKit          3D

 34 36  0  0  0  0  0  0  0  0999 V2000
    5.0732    1.8596   17.0185 H   0  0  0  0  0  0  0  0  0  0  0  0
    5.5599    1.3157   17.8261 C   0  0  0  0  0  0  0  0  0  0  0  0
    6.6936    0.6724   17.5009 N   0  0  0  0  0  0  0  0  0  0  0  0
    7.3294   -0.0012   18.4646 C   0  0  0  0  0  0  0  0  0  0  0  0
    8.2590   -0.4928   18.1787 H   0  0  0  0  0  0  0  0  0  0  0  0
    6.8556   -0.1026   19.7845 C   0  0  0  0  0  0  0  0  0  0  0  0
    7.5570   -0.8636   20.7476 N   0  0  0  0  0  0  0  0  0  0  0  0
    8.9018   -0.7590   21.0964 C   0  0  0  0  0  0  0  0  0  0  0  0
    9.5201   -0.0559   20.5550 H   0  0  0  0  0  0  0  0  0  0  0  0
    9.1689   -1.6100   22.1235 C   0  0  0  0  0  0  0  0  0  0  0  0
   10.0538   -1.8080   22.7077 H   0  0  0  0  0  0  0  0  0  0  0  0
    7.9675   -2.2627   22.3985 N   0  0  0  0  0  0  0  0  0  0  0  0
    7.5390   -3.2222   23.2580 N   0  0  0  0  0  0  0  0  0  0  0  0
    6.2393   -3.4018   22.9179 C   0  0  0  0  0  0  0  0  0  0  0  0
    5.3397   -4.4847   23.4736 C   0  0  0  0  0  0  0  0  0  0  0  0
    5.3608   -5.0751   24.6191 N   0  0  0  0  0  0  0  0  0  0  0  0
    6.2694   -4.7619   25.5894 N   0  0  0  0  0  0  0  0  0  0  0  0
    6.9410   -4.0016   25.4979 H   0  0  0  0  0  0  0  0  0  0  0  0
    6.3437   -5.3919   26.8020 C   0  0  0  0  0  0  0  0  0  0  0  0
    7.4355   -4.8609   27.9312 S   0  0  0  0  0  0  0  0  0  0  0  0
    5.5062   -6.4252   27.0375 N   0  0  0  0  0  0  0  0  0  0  0  0
    5.0519   -6.8048   26.2211 H   0  0  0  0  0  0  0  0  0  0  0  0
    5.8685   -7.0562   27.7348 H   0  0  0  0  0  0  0  0  0  0  0  0
    4.2422   -5.0432   22.5857 C   0  0  0  0  0  0  0  0  0  0  0  0
    4.0674   -4.4085   21.7242 H   0  0  0  0  0  0  0  0  0  0  0  0
    3.3178   -5.1306   23.1629 H   0  0  0  0  0  0  0  0  0  0  0  0
    4.5308   -6.0406   22.2320 H   0  0  0  0  0  0  0  0  0  0  0  0
    5.8450   -2.5028   21.8795 C   0  0  0  0  0  0  0  0  0  0  0  0
    4.8634   -2.3056   21.5074 H   0  0  0  0  0  0  0  0  0  0  0  0
    6.9967   -1.8118   21.5783 C   0  0  0  0  0  0  0  0  0  0  0  0
    5.6567    0.5500   20.1131 C   0  0  0  0  0  0  0  0  0  0  0  0
    5.2593    0.4718   21.1274 H   0  0  0  0  0  0  0  0  0  0  0  0
    5.0124    1.2856   19.1154 C   0  0  0  0  0  0  0  0  0  0  0  0
    4.0925    1.8241   19.3184 H   0  0  0  0  0  0  0  0  0  0  0  0
  1  2  1  0
  2  3  2  0
  3  4  1  0
  4  5  1  0
  4  6  2  0
  6  7  1  0
  7  8  1  0
  8  9  1  0
  8 10  2  0
 10 11  1  0
 10 12  1  0
 12 13  1  0
 13 14  2  0
 14 15  1  0
 15 16  2  3
 16 17  1  0
 17 18  1  0
 17 19  1  0
 19 20  2  0
 19 21  1  0
 21 22  1  0
 21 23  1  0
 15 24  1  0
 24 25  1  0
 24 26  1  0
 24 27  1  0
 14 28  1  0
 28 29  1  0
 28 30  2  0
  6 31  1  0
 31 32  1  0
 31 33  2  0
 33 34  1  0
 33  2  1  0
 30  7  1  0
 30 12  1  0
M  END
>  <plip>  (1) 
-0.07142857142857142

>  <filename>  (1) 
[H][c]1[n][c]([H])[c](-[n]2[c]([H])[c]([H])[n]3[n][c]([C](=[N][N]([H])[C](=[S])[N]([H])[H])[C]([H])([H])[H])[c]([H])[c]23)[c]([H])[c]1[H]

$$$$
