
     RDKit          3D

 58 61  0  0  0  0  0  0  0  0999 V2000
    2.8605   -4.8206   28.1495 C   0  0  0  0  0  0  0  0  0  0  0  0
    3.5642   -5.9539   27.7321 C   0  0  0  0  0  0  0  0  0  0  0  0
    4.4168   -5.8949   26.6289 C   0  0  0  0  0  0  0  0  0  0  0  0
    4.5749   -4.6863   25.9108 C   0  0  0  0  0  0  0  0  0  0  0  0
    5.4081   -4.6240   24.8223 N   0  0  0  0  0  0  0  0  0  0  0  0
    6.2693   -5.7270   24.4517 C   0  0  0  0  0  0  0  0  0  0  0  0
    7.1504   -5.1474   23.3527 C   0  0  0  0  0  0  0  0  0  0  0  0
    6.3721   -3.9522   22.7791 C   0  0  0  0  0  0  0  0  0  0  0  0
    7.3134   -2.9051   22.2260 C   0  0  0  0  0  0  0  0  0  0  0  0
    6.5750   -1.8267   21.5576 N   0  0  0  0  0  4  0  0  0  0  0  0
    7.3842   -0.7006   20.9960 C   0  0  0  0  0  0  0  0  0  0  0  0
    7.8400    0.2738   22.1039 C   0  0  0  0  0  0  0  0  0  0  0  0
    8.8166    1.3256   21.6621 N   0  0  0  0  0  4  0  0  0  0  0  0
   10.1369    0.7872   21.1468 C   0  0  0  0  0  0  0  0  0  0  0  0
   11.1448    1.9192   21.3421 C   0  0  0  0  0  0  0  0  0  0  0  0
   10.5730    2.8120   22.4649 C   0  0  0  0  0  0  0  0  0  0  0  0
    9.1562    2.3019   22.7646 C   0  0  0  0  0  0  0  0  0  0  0  0
    9.1413    1.7629   23.7168 H   0  0  0  0  0  0  0  0  0  0  0  0
    8.3957    3.0917   22.8143 H   0  0  0  0  0  0  0  0  0  0  0  0
   10.5702    3.8628   22.1674 H   0  0  0  0  0  0  0  0  0  0  0  0
   11.1788    2.7470   23.3724 H   0  0  0  0  0  0  0  0  0  0  0  0
   11.2849    2.4899   20.4176 H   0  0  0  0  0  0  0  0  0  0  0  0
   12.1187    1.5056   21.6211 H   0  0  0  0  0  0  0  0  0  0  0  0
   10.4222   -0.0872   21.7442 H   0  0  0  0  0  0  0  0  0  0  0  0
   10.0141    0.4818   20.1045 H   0  0  0  0  0  0  0  0  0  0  0  0
    8.3592    1.8758   20.8900 H   0  0  0  0  0  0  0  0  0  0  0  0
    8.2929   -0.3291   22.9030 H   0  0  0  0  0  0  0  0  0  0  0  0
    6.9447    0.7370   22.5342 H   0  0  0  0  0  0  0  0  0  0  0  0
    6.5611   -0.0330   19.9168 C   0  0  0  0  0  0  0  0  0  0  0  0
    5.3559    0.6506   20.1370 C   0  0  0  0  0  0  0  0  0  0  0  0
    4.7608    1.3211   19.0657 C   0  0  0  0  0  0  0  0  0  0  0  0
    5.3859    1.2996   17.8146 C   0  0  0  0  0  0  0  0  0  0  0  0
    6.5313    0.6462   17.5804 N   0  0  0  0  0  0  0  0  0  0  0  0
    7.0893    0.0102   18.6158 C   0  0  0  0  0  0  0  0  0  0  0  0
    8.0309   -0.4973   18.4004 H   0  0  0  0  0  0  0  0  0  0  0  0
    4.9550    1.8434   16.9725 H   0  0  0  0  0  0  0  0  0  0  0  0
    3.8415    1.8811   19.1912 H   0  0  0  0  0  0  0  0  0  0  0  0
    4.8807    0.6767   21.1249 H   0  0  0  0  0  0  0  0  0  0  0  0
    8.2860   -1.1246   20.5373 H   0  0  0  0  0  0  0  0  0  0  0  0
    6.0186   -2.2052   20.7534 H   0  0  0  0  0  0  0  0  0  0  0  0
    5.8704   -1.4170   22.2293 H   0  0  0  0  0  0  0  0  0  0  0  0
    8.0327   -3.3775   21.5434 H   0  0  0  0  0  0  0  0  0  0  0  0
    7.9194   -2.5219   23.0603 H   0  0  0  0  0  0  0  0  0  0  0  0
    5.5003   -3.4742   23.9484 C   0  0  0  0  0  0  0  0  0  0  0  0
    4.5043   -3.1604   23.6158 H   0  0  0  0  0  0  0  0  0  0  0  0
    5.9371   -2.6192   24.4886 H   0  0  0  0  0  0  0  0  0  0  0  0
    5.7028   -4.2848   21.9791 H   0  0  0  0  0  0  0  0  0  0  0  0
    7.4082   -5.8938   22.6003 H   0  0  0  0  0  0  0  0  0  0  0  0
    8.0854   -4.7998   23.8039 H   0  0  0  0  0  0  0  0  0  0  0  0
    5.6748   -6.5871   24.1118 H   0  0  0  0  0  0  0  0  0  0  0  0
    6.8579   -6.0613   25.3172 H   0  0  0  0  0  0  0  0  0  0  0  0
    3.8602   -3.5462   26.3389 C   0  0  0  0  0  0  0  0  0  0  0  0
    3.0162   -3.6212   27.4485 C   0  0  0  0  0  0  0  0  0  0  0  0
    2.4818   -2.7290   27.7621 H   0  0  0  0  0  0  0  0  0  0  0  0
    3.9832   -2.6128   25.7992 H   0  0  0  0  0  0  0  0  0  0  0  0
    4.9670   -6.7773   26.3178 H   0  0  0  0  0  0  0  0  0  0  0  0
    3.4605   -6.8960   28.2650 H   0  0  0  0  0  0  0  0  0  0  0  0
    2.2019   -4.8713   29.0135 H   0  0  0  0  0  0  0  0  0  0  0  0
  1  2  2  0
  2  3  1  0
  3  4  2  0
  4  5  1  0
  5  6  1  0
  6  7  1  0
  7  8  1  0
  8  9  1  0
  9 10  1  0
 10 11  1  0
 11 12  1  0
 12 13  1  0
 13 14  1  0
 14 15  1  0
 15 16  1  0
 16 17  1  0
 17 18  1  0
 17 19  1  0
 16 20  1  0
 16 21  1  0
 15 22  1  0
 15 23  1  0
 14 24  1  0
 14 25  1  0
 13 26  1  0
 12 27  1  0
 12 28  1  0
 11 29  1  0
 29 30  2  0
 30 31  1  0
 31 32  2  0
 32 33  1  0
 33 34  2  0
 34 35  1  0
 32 36  1  0
 31 37  1  0
 30 38  1  0
 11 39  1  0
 10 40  1  0
 10 41  1  0
  9 42  1  0
  9 43  1  0
  8 44  1  0
 44 45  1  0
 44 46  1  0
  8 47  1  0
  7 48  1  0
  7 49  1  0
  6 50  1  0
  6 51  1  0
  4 52  1  0
 52 53  2  0
 53 54  1  0
 52 55  1  0
  3 56  1  0
  2 57  1  0
  1 58  1  0
 53  1  1  0
 44  5  1  0
 17 13  1  0
 34 29  1  0
M  CHG  2  10   1  13   1
M  END
>  <plip>  (1) 
-0.17857142857142858

>  <filename>  (1) 
[H][c]1[n][c]([H])[c]([C]([H])([C]([H])([H])[N+]2([H])[C]([H])([H])[C]([H])([H])[C]([H])([H])[C]2([H])[H])[N+]([H])([H])[C]([H])([H])[C]2([H])[C]([H])([H])[N]([c]3[c]([H])[c]([H])[c]([H])[c]([H])[c]3[H])[C]([H])([H])[C]2([H])[H])[c]([H])[c]1[H]

$$$$
