
     RDKit          3D

 29 31  0  0  0  0  0  0  0  0999 V2000
    4.8115    1.3034   19.1048 C   0  0  0  0  0  0  0  0  0  0  0  0
    5.3955    1.2950   17.8306 C   0  0  0  0  0  0  0  0  0  0  0  0
    6.5570    0.6785   17.5649 N   0  0  0  0  0  0  0  0  0  0  0  0
    7.1734    0.0596   18.5833 C   0  0  0  0  0  0  0  0  0  0  0  0
    6.6712    0.0024   19.9191 C   0  0  0  0  0  0  0  0  0  0  0  0
    7.3177   -0.6294   20.9647 N   0  0  0  0  0  0  0  0  0  0  0  0
    8.5908   -1.3057   20.8232 C   0  0  0  0  0  0  0  0  0  0  0  0
    9.0152   -1.9564   22.1152 C   0  0  0  0  0  0  0  0  0  0  0  0
    9.8101   -1.2140   23.0335 C   0  0  0  0  0  0  0  0  0  0  0  0
   10.1916   -1.7305   24.2563 C   0  0  0  0  0  0  0  0  0  0  0  0
    9.7764   -3.0507   24.5845 C   0  0  0  0  0  0  0  0  0  0  0  0
    9.9149   -3.9451   25.6953 C   0  0  0  0  0  0  0  0  0  0  0  0
    9.2978   -5.0875   25.4736 N   0  0  0  0  0  0  0  0  0  0  0  0
    8.7484   -4.9899   24.2436 N   0  0  0  0  0  0  0  0  0  0  0  0
    8.9962   -3.7852   23.6587 C   0  0  0  0  0  0  0  0  0  0  0  0
    8.6035   -3.2503   22.4132 C   0  0  0  0  0  0  0  0  0  0  0  0
    7.9938   -3.8235   21.7225 H   0  0  0  0  0  0  0  0  0  0  0  0
    8.2028   -5.7568   23.8848 H   0  0  0  0  0  0  0  0  0  0  0  0
   10.4118   -3.8015   26.6429 H   0  0  0  0  0  0  0  0  0  0  0  0
   10.7865   -1.1267   24.9365 H   0  0  0  0  0  0  0  0  0  0  0  0
   10.1162   -0.2096   22.7533 H   0  0  0  0  0  0  0  0  0  0  0  0
    8.4990   -2.0731   20.0605 H   0  0  0  0  0  0  0  0  0  0  0  0
    9.3607   -0.6068   20.4608 H   0  0  0  0  0  0  0  0  0  0  0  0
    6.8617   -0.6286   21.8664 H   0  0  0  0  0  0  0  0  0  0  0  0
    5.4433    0.6475   20.1619 C   0  0  0  0  0  0  0  0  0  0  0  0
    5.0202    0.6293   21.1673 H   0  0  0  0  0  0  0  0  0  0  0  0
    8.1220   -0.4177   18.3409 H   0  0  0  0  0  0  0  0  0  0  0  0
    4.9201    1.7968   16.9933 H   0  0  0  0  0  0  0  0  0  0  0  0
    3.8797    1.8338   19.2582 H   0  0  0  0  0  0  0  0  0  0  0  0
  1  2  2  0
  2  3  1  0
  3  4  2  0
  4  5  1  0
  5  6  1  0
  6  7  1  0
  7  8  1  0
  8  9  2  0
  9 10  1  0
 10 11  2  0
 11 12  1  0
 12 13  2  0
 13 14  1  0
 14 15  1  0
 15 16  2  0
 16 17  1  0
 14 18  1  0
 12 19  1  0
 10 20  1  0
  9 21  1  0
  7 22  1  0
  7 23  1  0
  6 24  1  0
  5 25  2  0
 25 26  1  0
  4 27  1  0
  2 28  1  0
  1 29  1  0
 25  1  1  0
 16  8  1  0
 15 11  1  0
M  END
>  <plip>  (1) 
-0.07142857142857142

>  <filename>  (1) 
[H][c]1[n][c]([H])[c]([N]([H])[C]([H])([H])[c]2[c]([H])[c]([H])[c]3[c]([H])[n][n]([H])[c]3[c]2[H])[c]([H])[c]1[H]

$$$$
