
     RDKit          3D

 34 36  0  0  0  0  0  0  0  0999 V2000
    6.7383   -2.3448   21.3923 C   0  0  0  0  0  0  0  0  0  0  0  0
    7.5746   -0.8025   21.1308 S   0  0  0  0  0  0  0  0  0  0  0  0
    8.9514   -1.0032   20.7140 O   0  0  0  0  0  0  0  0  0  0  0  0
    7.2914   -0.0206   22.5570 N   0  0  0  0  0  0  0  0  0  0  0  0
    7.8853    1.1837   22.5028 C   0  0  0  0  0  0  0  0  0  0  0  0
    8.4473    1.6625   21.5166 O   0  0  0  0  0  0  0  0  0  0  0  0
    7.7982    1.9888   23.8148 C   0  0  0  0  0  0  0  0  0  0  0  0
    8.2411    3.2576   24.1467 C   0  0  0  0  0  0  0  0  0  0  0  0
    9.0928    4.3842   23.1565 Cl  0  0  0  0  0  0  0  0  0  0  0  0
    7.8764    3.5549   25.4981 C   0  0  0  0  0  0  0  0  0  0  0  0
    8.0492    4.6790   26.3463 C   0  0  0  0  0  0  0  0  0  0  0  0
    7.5385    4.5973   27.6276 C   0  0  0  0  0  0  0  0  0  0  0  0
    7.6886    5.6410   28.4617 F   0  0  0  0  0  0  0  0  0  0  0  0
    6.8637    3.4552   28.1088 C   0  0  0  0  0  0  0  0  0  0  0  0
    6.6873    2.3490   27.2867 C   0  0  0  0  0  0  0  0  0  0  0  0
    7.1985    2.4014   25.9733 C   0  0  0  0  0  0  0  0  0  0  0  0
    7.1715    1.4827   24.9548 N   0  0  0  0  0  0  0  0  0  0  0  0
    6.7485    0.5645   25.0021 H   0  0  0  0  0  0  0  0  0  0  0  0
    6.1696    1.4670   27.6518 H   0  0  0  0  0  0  0  0  0  0  0  0
    6.4946    3.4745   29.1280 H   0  0  0  0  0  0  0  0  0  0  0  0
    8.5562    5.5838   26.0283 H   0  0  0  0  0  0  0  0  0  0  0  0
    6.6565    0.0591   19.9571 C   0  0  0  0  0  0  0  0  0  0  0  0
    5.4309    0.6760   20.2167 C   0  0  0  0  0  0  0  0  0  0  0  0
    4.8170    1.2982   19.1369 C   0  0  0  0  0  0  0  0  0  0  0  0
    5.4311    1.2599   17.8813 C   0  0  0  0  0  0  0  0  0  0  0  0
    6.5952    0.6354   17.6497 N   0  0  0  0  0  0  0  0  0  0  0  0
    7.2095    0.0583   18.6777 C   0  0  0  0  0  0  0  0  0  0  0  0
    8.1555   -0.4361   18.4512 H   0  0  0  0  0  0  0  0  0  0  0  0
    4.9720    1.7486   17.0256 H   0  0  0  0  0  0  0  0  0  0  0  0
    3.8826    1.8306   19.2520 H   0  0  0  0  0  0  0  0  0  0  0  0
    4.9531    0.6853   21.2004 H   0  0  0  0  0  0  0  0  0  0  0  0
    7.2934   -2.8184   22.2016 H   0  0  0  0  0  0  0  0  0  0  0  0
    6.8118   -2.9139   20.4666 H   0  0  0  0  0  0  0  0  0  0  0  0
    5.7070   -2.1477   21.6889 H   0  0  0  0  0  0  0  0  0  0  0  0
  1  2  1  0
  2  3  2  0
  2  4  2  0
  4  5  1  0
  5  6  2  0
  5  7  1  0
  7  8  2  0
  8  9  1  0
  8 10  1  0
 10 11  2  0
 11 12  1  0
 12 13  1  0
 12 14  2  0
 14 15  1  0
 15 16  2  0
 16 17  1  0
 17 18  1  0
 15 19  1  0
 14 20  1  0
 11 21  1  0
  2 22  1  0
 22 23  2  0
 23 24  1  0
 24 25  2  0
 25 26  1  0
 26 27  2  0
 27 28  1  0
 25 29  1  0
 24 30  1  0
 23 31  1  0
  1 32  1  0
  1 33  1  0
  1 34  1  0
 17  7  1  0
 27 22  1  0
 16 10  1  0
M  END
>  <plip>  (1) 
-0.10344827586206896

>  <filename>  (1) 
[H][c]1[n][c]([H])[c]([S](=[O])(=[N][C](=[O])[c]2[c]([Cl])[c]3[c]([H])[c]([F])[c]([H])[c]([H])[c]3[n]2[H])[C]([H])([H])[H])[c]([H])[c]1[H]

$$$$
