
     RDKit          3D

 43 44  0  0  0  0  0  0  0  0999 V2000
   11.3873   -1.2035   21.8154 C   0  0  0  0  0  0  0  0  0  0  0  0
   10.7179   -0.2602   21.4791 C   0  0  0  0  0  0  0  0  0  0  0  0
    9.8934    0.8934   21.0605 C   0  0  0  0  0  0  0  0  0  0  0  0
    8.7988    1.1785   21.9766 N   0  0  0  0  0  0  0  0  0  0  0  0
    7.7595    0.2914   22.1703 C   0  0  0  0  0  0  0  0  0  0  0  0
    7.0534    0.3127   23.1677 O   0  0  0  0  0  0  0  0  0  0  0  0
    7.4284   -0.6824   21.0284 C   0  0  0  0  0  0  0  0  0  0  0  0
    6.6918    0.0017   19.8754 C   0  0  0  0  0  0  0  0  0  0  0  0
    5.4769    0.6558   20.1351 C   0  0  0  0  0  0  0  0  0  0  0  0
    4.8121    1.3094   19.0923 C   0  0  0  0  0  0  0  0  0  0  0  0
    5.3942    1.3002   17.8206 C   0  0  0  0  0  0  0  0  0  0  0  0
    6.5498    0.6788   17.5427 N   0  0  0  0  0  0  0  0  0  0  0  0
    7.1737    0.0563   18.5536 C   0  0  0  0  0  0  0  0  0  0  0  0
    8.1149   -0.4274   18.2902 H   0  0  0  0  0  0  0  0  0  0  0  0
    4.9123    1.8118   16.9880 H   0  0  0  0  0  0  0  0  0  0  0  0
    3.8754    1.8382   19.2459 H   0  0  0  0  0  0  0  0  0  0  0  0
    5.0724    0.6406   21.1498 H   0  0  0  0  0  0  0  0  0  0  0  0
    8.3282   -1.1879   20.6741 H   0  0  0  0  0  0  0  0  0  0  0  0
    6.7993   -1.4460   21.4933 H   0  0  0  0  0  0  0  0  0  0  0  0
    8.8545    2.3906   22.8183 C   0  0  0  0  0  0  0  0  0  0  0  0
    9.2360    2.0584   24.2739 C   0  0  0  0  0  0  0  0  0  0  0  0
    9.1346    3.2939   25.1655 C   0  0  0  0  0  0  0  0  0  0  0  0
    7.7985    3.9156   25.0927 N   0  0  0  0  0  0  0  0  0  0  0  0
    7.5170    4.8882   26.0201 C   0  0  0  0  0  0  0  0  0  0  0  0
    8.3973    5.3836   26.7088 O   0  0  0  0  0  0  0  0  0  0  0  0
    6.0758    5.3190   26.1928 C   0  0  0  0  0  0  0  0  0  0  0  0
    5.7656    5.9834   25.3807 H   0  0  0  0  0  0  0  0  0  0  0  0
    6.0185    5.8621   27.1361 H   0  0  0  0  0  0  0  0  0  0  0  0
    5.3937    4.4666   26.2171 H   0  0  0  0  0  0  0  0  0  0  0  0
    6.8531    3.4331   24.0817 C   0  0  0  0  0  0  0  0  0  0  0  0
    7.5530    3.2399   22.7283 C   0  0  0  0  0  0  0  0  0  0  0  0
    7.8139    4.2243   22.3192 H   0  0  0  0  0  0  0  0  0  0  0  0
    6.8355    2.7750   22.0406 H   0  0  0  0  0  0  0  0  0  0  0  0
    6.0440    4.1599   23.9623 H   0  0  0  0  0  0  0  0  0  0  0  0
    6.4140    2.4769   24.3991 H   0  0  0  0  0  0  0  0  0  0  0  0
    9.3253    3.0129   26.2103 H   0  0  0  0  0  0  0  0  0  0  0  0
    9.8919    4.0472   24.8988 H   0  0  0  0  0  0  0  0  0  0  0  0
   10.2630    1.6759   24.2911 H   0  0  0  0  0  0  0  0  0  0  0  0
    8.5726    1.2747   24.6579 H   0  0  0  0  0  0  0  0  0  0  0  0
    9.6684    3.0083   22.4029 H   0  0  0  0  0  0  0  0  0  0  0  0
    9.5073    0.7120   20.0490 H   0  0  0  0  0  0  0  0  0  0  0  0
   10.5248    1.7877   20.9890 H   0  0  0  0  0  0  0  0  0  0  0  0
   11.9697   -2.0385   22.1457 H   0  0  0  0  0  0  0  0  0  0  0  0
  1  2  3  0
  2  3  1  0
  3  4  1  0
  4  5  1  0
  5  6  2  0
  5  7  1  0
  7  8  1  0
  8  9  2  0
  9 10  1  0
 10 11  2  0
 11 12  1  0
 12 13  2  0
 13 14  1  0
 11 15  1  0
 10 16  1  0
  9 17  1  0
  7 18  1  0
  7 19  1  0
  4 20  1  0
 20 21  1  0
 21 22  1  0
 22 23  1  0
 23 24  1  0
 24 25  2  0
 24 26  1  0
 26 27  1  0
 26 28  1  0
 26 29  1  0
 23 30  1  0
 30 31  1  0
 31 32  1  0
 31 33  1  0
 30 34  1  0
 30 35  1  0
 22 36  1  0
 22 37  1  0
 21 38  1  0
 21 39  1  0
 20 40  1  0
  3 41  1  0
  3 42  1  0
  1 43  1  0
 13  8  1  0
 31 20  1  0
M  END
>  <plip>  (1) 
-0.07142857142857142

>  <filename>  (1) 
[H][C]#[C][C]([H])([H])[N]([C](=[O])[C]([H])([H])[c]1[c]([H])[n][c]([H])[c]([H])[c]1[H])[C]1([H])[C]([H])([H])[C]([H])([H])[N]([C](=[O])[C]([H])([H])[H])[C]([H])([H])[C]1([H])[H]

$$$$
