
     RDKit          3D

 24 25  0  0  0  0  0  0  0  0999 V2000
    7.7374    4.7604   23.8711 H   0  0  0  0  0  0  0  0  0  0  0  0
    7.9060    3.8058   23.3739 C   0  0  0  0  0  0  0  0  0  0  0  0
    7.0363    2.8359   23.6199 N   0  0  0  0  0  0  0  0  0  0  0  0
    7.2496    1.6787   22.9961 C   0  0  0  0  0  0  0  0  0  0  0  0
    6.5335    0.8890   23.2164 H   0  0  0  0  0  0  0  0  0  0  0  0
    8.3273    1.4553   22.1401 C   0  0  0  0  0  0  0  0  0  0  0  0
    8.6005    0.1672   21.4736 C   0  0  0  0  0  0  0  0  0  0  0  0
   10.1176   -0.3043   21.1190 S   0  0  0  0  0  0  0  0  0  0  0  0
    7.4131   -0.6832   21.0079 C   0  0  0  0  0  0  0  0  0  0  0  0
    7.8007   -1.6424   20.6480 H   0  0  0  0  0  0  0  0  0  0  0  0
    6.7420   -0.9123   21.8484 H   0  0  0  0  0  0  0  0  0  0  0  0
    6.6399    0.0007   19.8962 C   0  0  0  0  0  0  0  0  0  0  0  0
    7.1562    0.0601   18.5890 C   0  0  0  0  0  0  0  0  0  0  0  0
    8.1118   -0.4189   18.3777 H   0  0  0  0  0  0  0  0  0  0  0  0
    6.5570    0.6833   17.5693 N   0  0  0  0  0  0  0  0  0  0  0  0
    5.3935    1.2990   17.8330 C   0  0  0  0  0  0  0  0  0  0  0  0
    4.9124    1.7870   16.9897 H   0  0  0  0  0  0  0  0  0  0  0  0
    4.7962    1.3201   19.0968 C   0  0  0  0  0  0  0  0  0  0  0  0
    3.8656    1.8511   19.2511 H   0  0  0  0  0  0  0  0  0  0  0  0
    5.4301    0.6529   20.1475 C   0  0  0  0  0  0  0  0  0  0  0  0
    5.0071    0.6367   21.1578 H   0  0  0  0  0  0  0  0  0  0  0  0
    9.1683    2.5619   21.9759 C   0  0  0  0  0  0  0  0  0  0  0  0
   10.0389    2.4978   21.3237 H   0  0  0  0  0  0  0  0  0  0  0  0
    8.9742    3.7232   22.5847 N   0  0  0  0  0  0  0  0  0  0  0  0
  1  2  1  0
  2  3  2  0
  3  4  1  0
  4  5  1  0
  4  6  2  0
  6  7  1  0
  7  8  2  0
  7  9  1  0
  9 10  1  0
  9 11  1  0
  9 12  1  0
 12 13  2  0
 13 14  1  0
 13 15  1  0
 15 16  2  0
 16 17  1  0
 16 18  1  0
 18 19  1  0
 18 20  2  0
 20 21  1  0
  6 22  1  0
 22 23  1  0
 22 24  2  0
 24  2  1  0
 20 12  1  0
M  END
>  <plip>  (1) 
-0.03571428571428571

>  <filename>  (1) 
[H][c]1[n][c]([H])[c]([C](=[S])[C]([H])([H])[c]2[c]([H])[n][c]([H])[c]([H])[c]2[H])[c]([H])[n]1

$$$$
