
     RDKit          3D

 26 27  0  0  0  0  0  0  0  0999 V2000
    9.1028   -0.2746   20.3161 H   0  0  0  0  0  0  0  0  0  0  0  0
    8.4959   -0.8136   21.0242 C   0  0  0  0  0  0  0  0  0  0  0  0
    7.1716   -0.6861   20.9392 C   0  0  0  0  0  0  0  0  0  0  0  0
    6.3383   -1.1922   21.8555 F   0  0  0  0  0  0  0  0  0  0  0  0
    6.4929    0.0301   19.8463 C   0  0  0  0  0  0  0  0  0  0  0  0
    7.0782    0.0914   18.5652 C   0  0  0  0  0  0  0  0  0  0  0  0
    8.0085   -0.4315   18.3566 H   0  0  0  0  0  0  0  0  0  0  0  0
    6.5484    0.7332   17.5222 N   0  0  0  0  0  0  0  0  0  0  0  0
    5.3889    1.3786   17.7259 C   0  0  0  0  0  0  0  0  0  0  0  0
    4.9783    1.9095   16.8685 H   0  0  0  0  0  0  0  0  0  0  0  0
    4.7205    1.3886   18.9558 C   0  0  0  0  0  0  0  0  0  0  0  0
    3.7890    1.9363   19.0570 H   0  0  0  0  0  0  0  0  0  0  0  0
    5.2743    0.7058   20.0387 C   0  0  0  0  0  0  0  0  0  0  0  0
    4.7966    0.7015   21.0197 H   0  0  0  0  0  0  0  0  0  0  0  0
    9.2468   -1.5839   21.9945 C   0  0  0  0  0  0  0  0  0  0  0  0
   10.5640   -1.6846   21.7527 N   0  0  0  0  0  0  0  0  0  0  0  0
   11.2750   -2.4125   22.6140 C   0  0  0  0  0  0  0  0  0  0  0  0
   12.3496   -2.4920   22.4408 H   0  0  0  0  0  0  0  0  0  0  0  0
   10.6948   -3.0434   23.7126 C   0  0  0  0  0  0  0  0  0  0  0  0
   11.2736   -3.6449   24.3991 H   0  0  0  0  0  0  0  0  0  0  0  0
    9.3199   -2.8666   23.8831 C   0  0  0  0  0  0  0  0  0  0  0  0
    8.6221   -3.5559   25.0929 C   0  0  0  0  0  0  0  0  0  0  0  0
    8.9961   -4.8528   25.1578 F   0  0  0  0  0  0  0  0  0  0  0  0
    8.9963   -2.9972   26.2608 F   0  0  0  0  0  0  0  0  0  0  0  0
    7.2897   -3.5297   25.0529 F   0  0  0  0  0  0  0  0  0  0  0  0
    8.6037   -2.1321   23.0269 N   0  0  0  0  0  0  0  0  0  0  0  0
  1  2  1  0
  2  3  2  3
  3  4  1  0
  3  5  1  0
  5  6  2  0
  6  7  1  0
  6  8  1  0
  8  9  2  0
  9 10  1  0
  9 11  1  0
 11 12  1  0
 11 13  2  0
 13 14  1  0
  2 15  1  0
 15 16  2  0
 16 17  1  0
 17 18  1  0
 17 19  2  0
 19 20  1  0
 19 21  1  0
 21 22  1  0
 22 23  1  0
 22 24  1  0
 22 25  1  0
 21 26  2  0
 13  5  1  0
 26 15  1  0
M  END
>  <plip>  (1) 
-0.10344827586206896

>  <filename>  (1) 
[H][C](=[C]([F])[c]1[c]([H])[n][c]([H])[c]([H])[c]1[H])[c]1[n][c]([H])[c]([H])[c]([C]([F])([F])[F])[n]1

$$$$
