
     RDKit          3D

 33 35  0  0  0  0  0  0  0  0999 V2000
    9.4038   -0.5247   20.2892 H   0  0  0  0  0  0  0  0  0  0  0  0
    8.6817   -0.9178   21.0027 C   0  0  0  0  0  0  0  0  0  0  0  0
    7.3632   -0.6924   20.9617 C   0  0  0  0  0  0  0  0  0  0  0  0
    6.6505    0.0161   19.9014 C   0  0  0  0  0  0  0  0  0  0  0  0
    7.1678    0.0748   18.5924 C   0  0  0  0  0  0  0  0  0  0  0  0
    8.1048   -0.4229   18.3605 H   0  0  0  0  0  0  0  0  0  0  0  0
    6.5636    0.6788   17.5659 N   0  0  0  0  0  0  0  0  0  0  0  0
    5.4001    1.2961   17.8296 C   0  0  0  0  0  0  0  0  0  0  0  0
    4.9179    1.7839   16.9897 H   0  0  0  0  0  0  0  0  0  0  0  0
    4.7984    1.3161   19.0948 C   0  0  0  0  0  0  0  0  0  0  0  0
    3.8671    1.8484   19.2527 H   0  0  0  0  0  0  0  0  0  0  0  0
    5.4229    0.6562   20.1495 C   0  0  0  0  0  0  0  0  0  0  0  0
    4.9955    0.6379   21.1603 H   0  0  0  0  0  0  0  0  0  0  0  0
    6.6707   -1.2621   22.1880 C   0  0  0  0  0  0  0  0  0  0  0  0
    5.8172   -1.8883   21.9086 H   0  0  0  0  0  0  0  0  0  0  0  0
    6.2621   -0.4523   22.8083 H   0  0  0  0  0  0  0  0  0  0  0  0
    7.7712   -2.0630   22.9159 C   0  0  0  0  0  0  0  0  0  0  0  0
    7.5998   -3.1369   22.8151 H   0  0  0  0  0  0  0  0  0  0  0  0
    7.7717   -1.8487   23.9890 H   0  0  0  0  0  0  0  0  0  0  0  0
    9.1144   -1.6634   22.2401 C   0  0  2  0  0  0  0  0  0  0  0  0
    9.6979   -2.5439   21.9435 H   0  0  0  0  0  0  0  0  0  0  0  0
   10.0214   -0.8297   23.1822 C   0  0  1  0  0  0  0  0  0  0  0  0
   10.3035   -1.4806   24.0297 H   0  0  0  0  0  0  0  0  0  0  0  0
   11.2113   -0.4667   22.4943 O   0  0  0  0  0  0  0  0  0  0  0  0
   11.5216    0.9078   22.6678 C   0  0  0  0  0  0  0  0  0  0  0  0
   12.5862    0.9910   22.9227 H   0  0  0  0  0  0  0  0  0  0  0  0
   11.3521    1.4413   21.7180 H   0  0  0  0  0  0  0  0  0  0  0  0
   10.6033    1.4251   23.7802 C   0  0  0  0  0  0  0  0  0  0  0  0
   10.3335    2.4718   23.6215 H   0  0  0  0  0  0  0  0  0  0  0  0
   11.0939    1.3499   24.7563 H   0  0  0  0  0  0  0  0  0  0  0  0
    9.4049    0.4772   23.7018 C   0  0  0  0  0  0  0  0  0  0  0  0
    8.9019    0.3316   24.6623 H   0  0  0  0  0  0  0  0  0  0  0  0
    8.6531    0.8484   22.9944 H   0  0  0  0  0  0  0  0  0  0  0  0
  1  2  1  0
  2  3  2  0
  3  4  1  0
  4  5  2  0
  5  6  1  0
  5  7  1  0
  7  8  2  0
  8  9  1  0
  8 10  1  0
 10 11  1  0
 10 12  2  0
 12 13  1  0
  3 14  1  0
 14 15  1  0
 14 16  1  0
 14 17  1  0
 17 18  1  0
 17 19  1  0
 17 20  1  0
 20 21  1  6
 20 22  1  0
 22 23  1  1
 22 24  1  0
 24 25  1  0
 25 26  1  0
 25 27  1  0
 25 28  1  0
 28 29  1  0
 28 30  1  0
 28 31  1  0
 31 32  1  0
 31 33  1  0
 20  2  1  0
 31 22  1  0
 12  4  1  0
M  END
>  <plip>  (1) 
-0.03571428571428571

>  <filename>  (1) 
[H][C]1=[C]([c]2[c]([H])[n][c]([H])[c]([H])[c]2[H])[C]([H])([H])[C]([H])([H])[C@]1([H])[C@@]1([H])[O][C]([H])([H])[C]([H])([H])[C]1([H])[H]

$$$$
