
     RDKit          3D

 32 33  0  0  0  0  0  0  0  0999 V2000
    4.9629    1.7750   16.9763 H   0  0  0  0  0  0  0  0  0  0  0  0
    5.4188    1.3060   17.8409 C   0  0  0  0  0  0  0  0  0  0  0  0
    6.5774    0.6653   17.6278 N   0  0  0  0  0  0  0  0  0  0  0  0
    7.1557    0.0786   18.6860 C   0  0  0  0  0  0  0  0  0  0  0  0
    8.0949   -0.4393   18.5015 H   0  0  0  0  0  0  0  0  0  0  0  0
    6.6314    0.1105   20.0095 C   0  0  0  0  0  0  0  0  0  0  0  0
    7.3068   -0.4837   21.1262 N   0  0  0  0  0  0  0  0  0  0  0  0
    7.9588   -1.7956   20.9455 C   0  0  0  0  0  0  0  0  0  0  0  0
    8.9401   -1.7009   20.4588 H   0  0  0  0  0  0  0  0  0  0  0  0
    7.3222   -2.4164   20.3052 H   0  0  0  0  0  0  0  0  0  0  0  0
    8.0922   -2.2992   21.9057 H   0  0  0  0  0  0  0  0  0  0  0  0
    7.2646    0.2250   22.6726 S   0  0  0  0  0  0  0  0  0  0  0  0
    5.9213    0.6522   23.0072 O   0  0  0  0  0  0  0  0  0  0  0  0
    8.0280   -0.6498   23.5338 O   0  0  0  0  0  0  0  0  0  0  0  0
    8.2024    1.7557   22.3463 C   0  0  0  0  0  0  0  0  0  0  0  0
    9.0264    1.5425   21.6714 H   0  0  0  0  0  0  0  0  0  0  0  0
    7.4444    2.3746   21.8597 H   0  0  0  0  0  0  0  0  0  0  0  0
    8.6414    2.3344   23.5759 N   0  0  0  0  0  0  0  0  0  0  0  0
    7.6520    2.4934   24.5366 N   0  0  0  0  0  0  0  0  0  0  0  0
    8.2303    3.2755   25.3797 C   0  0  0  0  0  0  0  0  0  0  0  0
    7.7631    3.8128   26.4838 O   0  0  0  0  0  0  0  0  0  0  0  0
    6.3332    3.8969   26.6068 C   0  0  0  0  0  0  0  0  0  0  0  0
    5.9292    4.5439   25.8190 H   0  0  0  0  0  0  0  0  0  0  0  0
    5.8661    2.9071   26.5471 H   0  0  0  0  0  0  0  0  0  0  0  0
    6.1668    4.3493   27.5860 H   0  0  0  0  0  0  0  0  0  0  0  0
    9.4816    3.6498   25.0910 O   0  0  0  0  0  0  0  0  0  0  0  0
    9.7856    3.0614   23.8868 C   0  0  0  0  0  0  0  0  0  0  0  0
   10.8254    3.1876   23.3080 O   0  0  0  0  0  0  0  0  0  0  0  0
    5.4111    0.7754   20.1943 C   0  0  0  0  0  0  0  0  0  0  0  0
    4.9727    0.8087   21.1847 H   0  0  0  0  0  0  0  0  0  0  0  0
    4.8029    1.3766   19.0920 C   0  0  0  0  0  0  0  0  0  0  0  0
    3.8609    1.8965   19.2085 H   0  0  0  0  0  0  0  0  0  0  0  0
  1  2  1  0
  2  3  2  0
  3  4  1  0
  4  5  1  0
  4  6  2  0
  6  7  1  0
  7  8  1  0
  8  9  1  0
  8 10  1  0
  8 11  1  0
  7 12  1  0
 12 13  2  0
 12 14  2  0
 12 15  1  0
 15 16  1  0
 15 17  1  0
 15 18  1  0
 18 19  1  0
 19 20  2  0
 20 21  1  0
 21 22  1  0
 22 23  1  0
 22 24  1  0
 22 25  1  0
 20 26  1  0
 26 27  1  0
 27 28  2  0
  6 29  1  0
 29 30  1  0
 29 31  2  0
 31 32  1  0
 31  2  1  0
 27 18  1  0
M  END
>  <plip>  (1) 
-0.07142857142857142

>  <filename>  (1) 
[H][c]1[n][c]([H])[c]([N]([C]([H])([H])[H])[S](=[O])(=[O])[C]([H])([H])[n]2[n][c]([O][C]([H])([H])[H])[o][c]2=[O])[c]([H])[c]1[H]

$$$$
