
     RDKit          3D

 27 29  0  0  0  0  0  0  0  0999 V2000
    4.7290    1.3504   18.9583 C   0  0  0  0  0  0  0  0  0  0  0  0
    5.3824    1.3401   17.7214 C   0  0  0  0  0  0  0  0  0  0  0  0
    6.5211    0.6662   17.4954 N   0  0  0  0  0  0  0  0  0  0  0  0
    7.0559    0.0090   18.5327 C   0  0  0  0  0  0  0  0  0  0  0  0
    6.5007   -0.0306   19.8268 C   0  0  0  0  0  0  0  0  0  0  0  0
    7.2258   -0.7054   20.9360 C   0  0  0  0  0  0  0  0  0  0  0  0
    6.5950   -1.6352   21.7773 C   0  0  0  0  0  0  0  0  0  0  0  0
    7.3099   -2.2623   22.8034 C   0  0  0  0  0  0  0  0  0  0  0  0
    8.6442   -1.9220   23.0491 C   0  0  0  0  0  0  0  0  0  0  0  0
    9.2661   -0.9634   22.2331 C   0  0  0  0  0  0  0  0  0  0  0  0
   10.6308   -0.5884   22.4679 N   0  0  0  0  0  0  0  0  0  0  0  0
   11.6429   -0.4472   21.5751 C   0  0  0  0  0  0  0  0  0  0  0  0
   12.7066   -0.0310   22.3316 C   0  0  0  0  0  0  0  0  0  0  0  0
   12.2974    0.0642   23.6300 N   0  0  0  0  0  0  0  0  0  0  0  0
   11.0503   -0.2707   23.7051 N   0  0  0  0  0  0  0  0  0  0  0  0
   13.7176    0.2210   22.0443 H   0  0  0  0  0  0  0  0  0  0  0  0
   11.4920   -0.6636   20.5251 H   0  0  0  0  0  0  0  0  0  0  0  0
    8.5757   -0.3955   21.1593 C   0  0  0  0  0  0  0  0  0  0  0  0
    9.0813    0.2919   20.4877 H   0  0  0  0  0  0  0  0  0  0  0  0
    9.2112   -2.3961   23.8460 H   0  0  0  0  0  0  0  0  0  0  0  0
    6.8239   -3.0171   23.4172 H   0  0  0  0  0  0  0  0  0  0  0  0
    5.5460   -1.8726   21.6211 H   0  0  0  0  0  0  0  0  0  0  0  0
    5.2864    0.6433   20.0244 C   0  0  0  0  0  0  0  0  0  0  0  0
    4.8155    0.6438   21.0097 H   0  0  0  0  0  0  0  0  0  0  0  0
    7.9865   -0.5225   18.3332 H   0  0  0  0  0  0  0  0  0  0  0  0
    4.9753    1.8964   16.8783 H   0  0  0  0  0  0  0  0  0  0  0  0
    3.8205    1.9271   19.0786 H   0  0  0  0  0  0  0  0  0  0  0  0
  1  2  2  0
  2  3  1  0
  3  4  2  0
  4  5  1  0
  5  6  1  0
  6  7  2  0
  7  8  1  0
  8  9  2  0
  9 10  1  0
 10 11  1  0
 11 12  1  0
 12 13  2  0
 13 14  1  0
 14 15  2  0
 13 16  1  0
 12 17  1  0
 10 18  2  0
 18 19  1  0
  9 20  1  0
  8 21  1  0
  7 22  1  0
  5 23  2  0
 23 24  1  0
  4 25  1  0
  2 26  1  0
  1 27  1  0
 23  1  1  0
 18  6  1  0
 15 11  1  0
M  END
>  <plip>  (1) 
-0.03571428571428571

>  <filename>  (1) 
[H][c]1[n][c]([H])[c](-[c]2[c]([H])[c]([H])[c]([H])[c](-[n]3[n][n][c]([H])[c]3[H])[c]2[H])[c]([H])[c]1[H]

$$$$
