
     RDKit          3D

 50 53  0  0  0  0  0  0  0  0999 V2000
    4.6949   -3.9077   23.0801 C   0  0  0  0  0  0  0  0  0  0  0  0
    6.2010   -3.8534   22.9090 C   0  0  0  0  0  0  0  0  0  0  0  0
    6.6736   -2.5089   22.6350 O   0  0  0  0  0  0  0  0  0  0  0  0
    6.3980   -1.9926   21.4243 C   0  0  0  0  0  0  0  0  0  0  0  0
    5.6781   -2.5253   20.6095 O   0  0  0  0  0  0  0  0  0  0  0  0
    7.1547   -0.6119   21.2071 C   0  0  0  0  0  0  0  0  0  0  0  0
    6.5399    0.1461   20.0365 C   0  0  0  0  0  0  0  0  0  0  0  0
    5.2981    0.7871   20.1714 C   0  0  0  0  0  0  0  0  0  0  0  0
    4.7370    1.4003   19.0462 C   0  0  0  0  0  0  0  0  0  0  0  0
    5.4319    1.3595   17.8360 C   0  0  0  0  0  0  0  0  0  0  0  0
    6.6209    0.7588   17.6915 N   0  0  0  0  0  0  0  0  0  0  0  0
    7.1563    0.1950   18.7826 C   0  0  0  0  0  0  0  0  0  0  0  0
    8.1370   -0.2551   18.6479 H   0  0  0  0  0  0  0  0  0  0  0  0
    5.0196    1.8244   16.9412 H   0  0  0  0  0  0  0  0  0  0  0  0
    3.7914    1.9252   19.0927 H   0  0  0  0  0  0  0  0  0  0  0  0
    4.7797    0.8147   21.1314 H   0  0  0  0  0  0  0  0  0  0  0  0
    8.6494   -0.7103   21.1361 N   0  0  0  0  0  0  0  0  0  0  0  0
    9.2333   -1.9068   20.5252 C   0  0  0  0  0  0  0  0  0  0  0  0
    8.6466   -2.7877   20.7849 H   0  0  0  0  0  0  0  0  0  0  0  0
   10.2360   -2.0745   20.9094 H   0  0  0  0  0  0  0  0  0  0  0  0
    9.2907   -1.7931   19.4390 H   0  0  0  0  0  0  0  0  0  0  0  0
    9.5477    0.2306   21.6324 C   0  0  0  0  0  0  0  0  0  0  0  0
   10.7194   -0.0661   21.8281 O   0  0  0  0  0  0  0  0  0  0  0  0
    9.0782    1.6497   21.9420 C   0  0  0  0  0  0  0  0  0  0  0  0
    8.0704    2.2296   21.3176 N   0  0  0  0  0  0  0  0  0  0  0  0
    8.0117    3.5207   21.7985 O   0  0  0  0  0  0  0  0  0  0  0  0
    8.9938    3.7029   22.6936 C   0  0  0  0  0  0  0  0  0  0  0  0
    9.2657    4.9315   23.4161 C   0  0  0  0  0  0  0  0  0  0  0  0
   10.4426    4.9236   24.2027 C   0  0  0  0  0  0  0  0  0  0  0  0
   11.4646    3.8098   24.0040 C   0  0  0  0  0  0  0  0  0  0  0  0
   10.8241    2.4240   23.8416 C   0  0  0  0  0  0  0  0  0  0  0  0
    9.6957    2.5359   22.8586 C   0  0  0  0  0  0  0  0  0  0  0  0
   10.4451    2.0918   24.8200 H   0  0  0  0  0  0  0  0  0  0  0  0
   11.5485    1.6681   23.5169 H   0  0  0  0  0  0  0  0  0  0  0  0
   12.0576    4.0325   23.1045 H   0  0  0  0  0  0  0  0  0  0  0  0
   12.1472    3.8213   24.8465 H   0  0  0  0  0  0  0  0  0  0  0  0
   10.6565    5.9603   25.1186 C   0  0  0  0  0  0  0  0  0  0  0  0
    9.7751    7.0405   25.1948 C   0  0  0  0  0  0  0  0  0  0  0  0
    8.6742    7.1018   24.3226 C   0  0  0  0  0  0  0  0  0  0  0  0
    8.4191    6.0655   23.4315 C   0  0  0  0  0  0  0  0  0  0  0  0
    7.5685    6.1153   22.7547 H   0  0  0  0  0  0  0  0  0  0  0  0
    8.0063    7.9601   24.3591 H   0  0  0  0  0  0  0  0  0  0  0  0
    9.9403    7.8305   25.9245 H   0  0  0  0  0  0  0  0  0  0  0  0
   11.5231    5.9151   25.7769 H   0  0  0  0  0  0  0  0  0  0  0  0
    6.9265   -0.0582   22.1279 H   0  0  0  0  0  0  0  0  0  0  0  0
    6.7290   -4.1299   23.8247 H   0  0  0  0  0  0  0  0  0  0  0  0
    6.5298   -4.5240   22.1054 H   0  0  0  0  0  0  0  0  0  0  0  0
    4.3973   -4.9293   23.3317 H   0  0  0  0  0  0  0  0  0  0  0  0
    4.1944   -3.6265   22.1528 H   0  0  0  0  0  0  0  0  0  0  0  0
    4.3664   -3.2351   23.8774 H   0  0  0  0  0  0  0  0  0  0  0  0
  1  2  1  0
  2  3  1  0
  3  4  1  0
  4  5  2  0
  4  6  1  0
  6  7  1  0
  7  8  2  0
  8  9  1  0
  9 10  2  0
 10 11  1  0
 11 12  2  0
 12 13  1  0
 10 14  1  0
  9 15  1  0
  8 16  1  0
  6 17  1  0
 17 18  1  0
 18 19  1  0
 18 20  1  0
 18 21  1  0
 17 22  1  0
 22 23  2  0
 22 24  1  0
 24 25  2  0
 25 26  1  0
 26 27  1  0
 27 28  1  0
 28 29  2  0
 29 30  1  0
 30 31  1  0
 31 32  1  0
 31 33  1  0
 31 34  1  0
 30 35  1  0
 30 36  1  0
 29 37  1  0
 37 38  2  0
 38 39  1  0
 39 40  2  0
 40 41  1  0
 39 42  1  0
 38 43  1  0
 37 44  1  0
  6 45  1  0
  2 46  1  0
  2 47  1  0
  1 48  1  0
  1 49  1  0
  1 50  1  0
 12  7  1  0
 32 24  1  0
 32 27  2  0
 40 28  1  0
M  END
>  <plip>  (1) 
-0.1724137931034483

>  <filename>  (1) 
[H][c]1[n][c]([H])[c]([C]([H])([C](=[O])[O][C]([H])([H])[C]([H])([H])[H])[N]([C](=[O])[c]2[n][o][c]3[c]2[C]([H])([H])[C]([H])([H])[c]2[c]([H])[c]([H])[c]([H])[c]([H])[c]2-3)[C]([H])([H])[H])[c]([H])[c]1[H]

$$$$
