
     RDKit          3D

 40 42  0  0  0  0  0  0  0  0999 V2000
    8.8257    1.3145   21.4286 C   0  0  0  0  0  0  0  0  0  0  0  0
    7.9490    0.2352   22.0852 C   0  0  0  0  0  0  0  0  0  0  0  0
    8.7423   -0.4886   23.1879 C   0  0  0  0  0  0  0  0  0  0  0  0
    9.6084   -1.0204   22.7715 H   0  0  0  0  0  0  0  0  0  0  0  0
    8.1258   -1.2178   23.7264 H   0  0  0  0  0  0  0  0  0  0  0  0
    9.1247    0.2344   23.9204 H   0  0  0  0  0  0  0  0  0  0  0  0
    7.3479   -0.7399   21.0341 C   0  0  0  0  0  0  0  0  0  0  0  0
    6.5069   -1.7499   21.6729 N   0  0  0  0  0  0  0  0  0  0  0  0
    6.0223   -2.8073   20.9668 C   0  0  0  0  0  0  0  0  0  0  0  0
    6.2020   -2.9519   19.7672 O   0  0  0  0  0  0  0  0  0  0  0  0
    5.2475   -3.8118   21.7519 C   0  0  0  0  0  0  0  0  0  0  0  0
    5.0094   -5.0842   21.3141 C   0  0  0  0  0  0  0  0  0  0  0  0
    5.4637   -5.7524   20.2712 F   0  0  0  0  0  0  0  0  0  0  0  0
    4.0926   -5.6515   22.1410 N   0  0  0  0  0  0  0  0  0  0  0  0
    3.3777   -6.8354   22.0584 C   0  0  0  0  0  0  0  0  0  0  0  0
    2.4739   -7.1430   23.0212 C   0  0  0  0  0  0  0  0  0  0  0  0
    2.2369   -6.2240   24.1027 C   0  0  0  0  0  0  0  0  0  0  0  0
    2.9038   -5.0278   24.1616 C   0  0  0  0  0  0  0  0  0  0  0  0
    3.8656   -4.6877   23.1514 C   0  0  0  0  0  0  0  0  0  0  0  0
    4.5713   -3.5973   22.9333 N   0  0  0  0  0  0  0  0  0  0  0  0
    2.7082   -4.2985   24.9393 H   0  0  0  0  0  0  0  0  0  0  0  0
    1.5116   -6.4916   24.8699 H   0  0  0  0  0  0  0  0  0  0  0  0
    1.9251   -8.0767   22.9626 H   0  0  0  0  0  0  0  0  0  0  0  0
    3.5768   -7.4454   21.1928 H   0  0  0  0  0  0  0  0  0  0  0  0
    5.9761   -1.5253   22.5028 H   0  0  0  0  0  0  0  0  0  0  0  0
    6.5889   -0.0279   19.9185 C   0  0  0  0  0  0  0  0  0  0  0  0
    5.3772    0.6444   20.1351 C   0  0  0  0  0  0  0  0  0  0  0  0
    4.7852    1.3134   19.0625 C   0  0  0  0  0  0  0  0  0  0  0  0
    5.4159    1.2930   17.8149 C   0  0  0  0  0  0  0  0  0  0  0  0
    6.5666    0.6457   17.5794 N   0  0  0  0  0  0  0  0  0  0  0  0
    7.1186    0.0045   18.6213 C   0  0  0  0  0  0  0  0  0  0  0  0
    8.0624   -0.5066   18.4152 H   0  0  0  0  0  0  0  0  0  0  0  0
    4.9846    1.8237   16.9693 H   0  0  0  0  0  0  0  0  0  0  0  0
    3.8644    1.8672   19.1888 H   0  0  0  0  0  0  0  0  0  0  0  0
    4.9153    0.6602   21.1263 H   0  0  0  0  0  0  0  0  0  0  0  0
    8.1872   -1.2793   20.5652 H   0  0  0  0  0  0  0  0  0  0  0  0
    7.0969    0.7386   22.5673 H   0  0  0  0  0  0  0  0  0  0  0  0
    9.6867    0.8647   20.9170 H   0  0  0  0  0  0  0  0  0  0  0  0
    9.2190    2.0016   22.1852 H   0  0  0  0  0  0  0  0  0  0  0  0
    8.2671    1.9066   20.6956 H   0  0  0  0  0  0  0  0  0  0  0  0
  1  2  1  0
  2  3  1  0
  3  4  1  0
  3  5  1  0
  3  6  1  0
  2  7  1  0
  7  8  1  0
  8  9  1  0
  9 10  2  0
  9 11  1  0
 11 12  2  0
 12 13  1  0
 12 14  1  0
 14 15  1  0
 15 16  2  0
 16 17  1  0
 17 18  2  0
 18 19  1  0
 19 20  2  0
 18 21  1  0
 17 22  1  0
 16 23  1  0
 15 24  1  0
  8 25  1  0
  7 26  1  0
 26 27  2  0
 27 28  1  0
 28 29  2  0
 29 30  1  0
 30 31  2  0
 31 32  1  0
 29 33  1  0
 28 34  1  0
 27 35  1  0
  7 36  1  0
  2 37  1  0
  1 38  1  0
  1 39  1  0
  1 40  1  0
 20 11  1  0
 31 26  1  0
 19 14  1  0
M  END
>  <plip>  (1) 
-0.1724137931034483

>  <filename>  (1) 
[H][c]1[n][c]([H])[c]([C]([H])([N]([H])[C](=[O])[c]2[n][c]3[c]([H])[c]([H])[c]([H])[c]([H])[n]3[c]2[F])[C]([H])([C]([H])([H])[H])[C]([H])([H])[H])[c]([H])[c]1[H]

$$$$
