
     RDKit          3D

 35 38  0  0  0  0  0  0  0  0999 V2000
    4.9903    1.8013   16.9287 H   0  0  0  0  0  0  0  0  0  0  0  0
    5.4295    1.2924   17.7880 C   0  0  0  0  0  0  0  0  0  0  0  0
    6.5891    0.6532   17.5733 N   0  0  0  0  0  0  0  0  0  0  0  0
    7.1542    0.0405   18.6231 C   0  0  0  0  0  0  0  0  0  0  0  0
    8.0897   -0.4816   18.4116 H   0  0  0  0  0  0  0  0  0  0  0  0
    6.6122    0.0153   19.9045 C   0  0  0  0  0  0  0  0  0  0  0  0
    7.3424   -0.7313   20.9972 C   0  0  2  0  0  0  0  0  0  0  0  0
    8.3104   -1.0819   20.5903 H   0  0  0  0  0  0  0  0  0  0  0  0
    6.5738   -1.8420   21.4091 O   0  0  0  0  0  0  0  0  0  0  0  0
    6.7367   -2.0162   22.8083 C   0  0  0  0  0  0  0  0  0  0  0  0
    7.6197   -2.6373   23.0295 H   0  0  0  0  0  0  0  0  0  0  0  0
    5.8434   -2.5081   23.2008 H   0  0  0  0  0  0  0  0  0  0  0  0
    6.9198   -0.5993   23.3361 C   0  0  0  0  0  0  0  0  0  0  0  0
    5.9586   -0.1272   23.5851 H   0  0  0  0  0  0  0  0  0  0  0  0
    7.5616   -0.5694   24.2234 H   0  0  0  0  0  0  0  0  0  0  0  0
    7.5504    0.0410   22.2013 N   0  0  0  0  0  0  0  0  0  0  0  0
    8.3297    1.1883   22.3034 C   0  0  0  0  0  0  0  0  0  0  0  0
    9.3386    1.4455   21.3272 C   0  0  0  0  0  0  0  0  0  0  0  0
    9.4289    0.7833   20.4719 H   0  0  0  0  0  0  0  0  0  0  0  0
   10.1765    2.5427   21.4446 C   0  0  0  0  0  0  0  0  0  0  0  0
   10.9750    2.7430   20.7319 H   0  0  0  0  0  0  0  0  0  0  0  0
    9.9475    3.4348   22.5042 C   0  0  0  0  0  0  0  0  0  0  0  0
    8.9488    3.2268   23.4805 C   0  0  0  0  0  0  0  0  0  0  0  0
    8.1460    2.0726   23.3797 C   0  0  0  0  0  0  0  0  0  0  0  0
    7.3663    1.8692   24.1039 H   0  0  0  0  0  0  0  0  0  0  0  0
    8.9591    4.3989   24.3258 C   0  0  0  0  0  0  0  0  0  0  0  0
    8.2876    4.5942   25.1562 H   0  0  0  0  0  0  0  0  0  0  0  0
    9.9015    5.2492   23.8219 C   0  0  0  0  0  0  0  0  0  0  0  0
   10.1883    6.2440   24.1433 H   0  0  0  0  0  0  0  0  0  0  0  0
   10.5378    4.6533   22.7422 N   0  0  0  0  0  0  0  0  0  0  0  0
   10.9797    5.1400   21.9744 H   0  0  0  0  0  0  0  0  0  0  0  0
    5.3961    0.6760   20.1140 C   0  0  0  0  0  0  0  0  0  0  0  0
    4.9311    0.6875   21.1014 H   0  0  0  0  0  0  0  0  0  0  0  0
    4.7948    1.3213   19.0357 C   0  0  0  0  0  0  0  0  0  0  0  0
    3.8636    1.8653   19.1487 H   0  0  0  0  0  0  0  0  0  0  0  0
  1  2  1  0
  2  3  2  0
  3  4  1  0
  4  5  1  0
  4  6  2  0
  6  7  1  0
  7  8  1  6
  7  9  1  0
  9 10  1  0
 10 11  1  0
 10 12  1  0
 10 13  1  0
 13 14  1  0
 13 15  1  0
 13 16  1  0
 16 17  1  0
 17 18  2  0
 18 19  1  0
 18 20  1  0
 20 21  1  0
 20 22  2  0
 22 23  1  0
 23 24  2  0
 24 25  1  0
 23 26  1  0
 26 27  1  0
 26 28  2  0
 28 29  1  0
 28 30  1  0
 30 31  1  0
  6 32  1  0
 32 33  1  0
 32 34  2  0
 34 35  1  0
 34  2  1  0
 16  7  1  0
 24 17  1  0
 30 22  1  0
M  END
>  <plip>  (1) 
-0.07142857142857142

>  <filename>  (1) 
[H][c]1[n][c]([H])[c]([C@]2([H])[O][C]([H])([H])[C]([H])([H])[N]2[c]2[c]([H])[c]([H])[c]3[c]([c]2[H])[c]([H])[c]([H])[n]3[H])[c]([H])[c]1[H]

$$$$
