
     RDKit          3D

 47 49  0  0  0  0  0  0  0  0999 V2000
    8.2545   -0.3280   24.3469 C   0  0  0  0  0  0  0  0  0  0  0  0
    8.7045   -0.3876   23.0100 O   0  0  0  0  0  0  0  0  0  0  0  0
    7.9283    0.2913   22.0454 C   0  0  0  0  0  0  0  0  0  0  0  0
    8.7303    1.1895   21.3442 O   0  0  0  0  0  0  0  0  0  0  0  0
    9.1389    2.3193   22.0945 C   0  0  0  0  0  0  0  0  0  0  0  0
    8.2754    2.9221   22.4201 H   0  0  0  0  0  0  0  0  0  0  0  0
    9.7196    2.0283   22.9800 H   0  0  0  0  0  0  0  0  0  0  0  0
    9.7677    2.9166   21.4319 H   0  0  0  0  0  0  0  0  0  0  0  0
    7.3423   -0.7045   21.0038 C   0  0  0  0  0  0  0  0  0  0  0  0
    6.4709   -1.7041   21.6334 N   0  0  0  0  0  0  0  0  0  0  0  0
    6.0178   -2.8141   20.9845 C   0  0  0  0  0  0  0  0  0  0  0  0
    6.1936   -3.0036   19.7907 O   0  0  0  0  0  0  0  0  0  0  0  0
    5.3243   -3.8088   21.8581 C   0  0  0  0  0  0  0  0  0  0  0  0
    4.7694   -3.7558   23.1241 C   0  0  0  0  0  0  0  0  0  0  0  0
    4.1198   -4.9949   23.3911 C   0  0  0  0  0  0  0  0  0  0  0  0
    3.3457   -5.3443   24.6055 C   0  0  0  0  0  0  0  0  0  0  0  0
    2.3823   -6.3759   24.6137 C   0  0  0  0  0  0  0  0  0  0  0  0
    1.6509   -6.6754   25.7670 C   0  0  0  0  0  0  0  0  0  0  0  0
    1.8715   -5.9393   26.9335 C   0  0  0  0  0  0  0  0  0  0  0  0
    0.9650   -6.3000   28.3742 Cl  0  0  0  0  0  0  0  0  0  0  0  0
    2.8160   -4.9105   26.9566 C   0  0  0  0  0  0  0  0  0  0  0  0
    3.5425   -4.6256   25.8024 C   0  0  0  0  0  0  0  0  0  0  0  0
    4.2851   -3.8317   25.8412 H   0  0  0  0  0  0  0  0  0  0  0  0
    2.9761   -4.3424   27.8669 H   0  0  0  0  0  0  0  0  0  0  0  0
    0.9144   -7.4735   25.7729 H   0  0  0  0  0  0  0  0  0  0  0  0
    2.1801   -6.9533   23.7138 H   0  0  0  0  0  0  0  0  0  0  0  0
    4.3474   -5.7833   22.2754 C   0  0  0  0  0  0  0  0  0  0  0  0
    5.0745   -5.0753   21.3734 N   0  0  0  0  0  0  0  0  0  0  0  0
    5.4030   -5.3917   20.4718 H   0  0  0  0  0  0  0  0  0  0  0  0
    4.0321   -6.8005   22.0792 H   0  0  0  0  0  0  0  0  0  0  0  0
    4.8073   -2.9406   23.8413 H   0  0  0  0  0  0  0  0  0  0  0  0
    6.0428   -1.5187   22.5271 H   0  0  0  0  0  0  0  0  0  0  0  0
    6.5987   -0.0148   19.8783 C   0  0  0  0  0  0  0  0  0  0  0  0
    5.3891    0.6523   20.1008 C   0  0  0  0  0  0  0  0  0  0  0  0
    4.7934    1.3271   19.0346 C   0  0  0  0  0  0  0  0  0  0  0  0
    5.4224    1.3015   17.7822 C   0  0  0  0  0  0  0  0  0  0  0  0
    6.5614    0.6373   17.5399 N   0  0  0  0  0  0  0  0  0  0  0  0
    7.1205   -0.0005   18.5817 C   0  0  0  0  0  0  0  0  0  0  0  0
    8.0450   -0.5400   18.3723 H   0  0  0  0  0  0  0  0  0  0  0  0
    4.9836    1.8298   16.9356 H   0  0  0  0  0  0  0  0  0  0  0  0
    3.8655    1.8720   19.1620 H   0  0  0  0  0  0  0  0  0  0  0  0
    4.9146    0.6343   21.0877 H   0  0  0  0  0  0  0  0  0  0  0  0
    8.2311   -1.1969   20.5876 H   0  0  0  0  0  0  0  0  0  0  0  0
    7.0878    0.8226   22.5312 H   0  0  0  0  0  0  0  0  0  0  0  0
    8.2085    0.7005   24.7357 H   0  0  0  0  0  0  0  0  0  0  0  0
    8.9721   -0.8895   24.9491 H   0  0  0  0  0  0  0  0  0  0  0  0
    7.2641   -0.7893   24.4849 H   0  0  0  0  0  0  0  0  0  0  0  0
  1  2  1  0
  2  3  1  0
  3  4  1  0
  4  5  1  0
  5  6  1  0
  5  7  1  0
  5  8  1  0
  3  9  1  0
  9 10  1  0
 10 11  1  0
 11 12  2  0
 11 13  1  0
 13 14  2  0
 14 15  1  0
 15 16  1  0
 16 17  2  0
 17 18  1  0
 18 19  2  0
 19 20  1  0
 19 21  1  0
 21 22  2  0
 22 23  1  0
 21 24  1  0
 18 25  1  0
 17 26  1  0
 15 27  2  0
 27 28  1  0
 28 29  1  0
 27 30  1  0
 14 31  1  0
 10 32  1  0
  9 33  1  0
 33 34  2  0
 34 35  1  0
 35 36  2  0
 36 37  1  0
 37 38  2  0
 38 39  1  0
 36 40  1  0
 35 41  1  0
 34 42  1  0
  9 43  1  0
  3 44  1  0
  1 45  1  0
  1 46  1  0
  1 47  1  0
 28 13  1  0
 38 33  1  0
 22 16  1  0
M  END
>  <plip>  (1) 
-0.2413793103448276

>  <filename>  (1) 
[H][c]1[n][c]([H])[c]([C]([H])([N]([H])[C](=[O])[c]2[c]([H])[c](-[c]3[c]([H])[c]([H])[c]([Cl])[c]([H])[c]3[H])[c]([H])[n]2[H])[C]([H])([O][C]([H])([H])[H])[O][C]([H])([H])[H])[c]([H])[c]1[H]

$$$$
