
     RDKit          3D

 26 27  0  0  0  0  0  0  0  0999 V2000
    4.8302    1.8158   16.9828 H   0  0  0  0  0  0  0  0  0  0  0  0
    5.3321    1.2964   17.7963 C   0  0  0  0  0  0  0  0  0  0  0  0
    6.4708    0.6504   17.4863 N   0  0  0  0  0  0  0  0  0  0  0  0
    7.1289    0.0407   18.4869 C   0  0  0  0  0  0  0  0  0  0  0  0
    8.0293   -0.5180   18.2268 H   0  0  0  0  0  0  0  0  0  0  0  0
    6.7101    0.0477   19.8440 C   0  0  0  0  0  0  0  0  0  0  0  0
    7.3624   -0.5773   20.9341 N   0  0  0  0  0  0  0  0  0  0  0  0
    6.9088   -0.5877   21.8373 H   0  0  0  0  0  0  0  0  0  0  0  0
    8.9071   -0.9581   21.3708 S   0  0  0  0  0  0  0  0  0  0  0  0
    9.3960   -2.0548   20.5667 O   0  0  0  0  0  0  0  0  0  0  0  0
    8.7354   -1.0312   22.8065 O   0  0  0  0  0  0  0  0  0  0  0  0
    9.8533    0.4517   20.9241 C   0  0  0  0  0  0  0  0  0  0  0  0
   10.9035    0.1765   21.0289 H   0  0  0  0  0  0  0  0  0  0  0  0
    9.5671    0.6018   19.8823 H   0  0  0  0  0  0  0  0  0  0  0  0
    9.3878    1.5913   21.7238 C   0  0  0  0  0  0  0  0  0  0  0  0
    8.4222    2.3462   21.1379 N   0  0  0  0  0  0  0  0  0  0  0  0
    8.0876    3.2524   22.0244 C   0  0  0  0  0  0  0  0  0  0  0  0
    7.3499    4.0344   21.8948 H   0  0  0  0  0  0  0  0  0  0  0  0
    8.7838    3.0767   23.1810 N   0  0  0  0  0  0  0  0  0  0  0  0
    8.7058    3.6616   23.9967 H   0  0  0  0  0  0  0  0  0  0  0  0
    9.6153    1.9891   23.0104 C   0  0  0  0  0  0  0  0  0  0  0  0
   10.2180    1.5583   23.8020 H   0  0  0  0  0  0  0  0  0  0  0  0
    5.5027    0.6959   20.1272 C   0  0  0  0  0  0  0  0  0  0  0  0
    5.1407    0.6919   21.1559 H   0  0  0  0  0  0  0  0  0  0  0  0
    4.7990    1.3210   19.0896 C   0  0  0  0  0  0  0  0  0  0  0  0
    3.8565    1.8241   19.2815 H   0  0  0  0  0  0  0  0  0  0  0  0
  1  2  1  0
  2  3  2  0
  3  4  1  0
  4  5  1  0
  4  6  2  0
  6  7  1  0
  7  8  1  0
  7  9  1  0
  9 10  2  0
  9 11  2  0
  9 12  1  0
 12 13  1  0
 12 14  1  0
 12 15  1  0
 15 16  1  0
 16 17  2  0
 17 18  1  0
 17 19  1  0
 19 20  1  0
 19 21  1  0
 21 22  1  0
  6 23  1  0
 23 24  1  0
 23 25  2  0
 25 26  1  0
 25  2  1  0
 21 15  2  0
M  END
>  <plip>  (1) 
-0.14285714285714285

>  <filename>  (1) 
[H][c]1[n][c]([H])[c]([N]([H])[S](=[O])(=[O])[C]([H])([H])[c]2[n][c]([H])[n]([H])[c]2[H])[c]([H])[c]1[H]

$$$$
