
     RDKit          3D

 32 34  0  0  0  0  0  0  0  0999 V2000
    8.1112   -2.9606   23.5210 H   0  0  0  0  0  0  0  0  0  0  0  0
    8.0559   -2.2198   22.7436 C   0  0  0  0  0  0  0  0  0  0  0  0
    9.0486   -1.4549   22.4078 N   0  0  0  0  0  0  0  0  0  0  0  0
    8.6560   -0.5696   21.4190 C   0  0  0  0  0  0  0  0  0  0  0  0
    9.6020    0.5299   20.9880 C   0  0  0  0  0  0  0  0  0  0  0  0
    9.3466    0.8505   19.9757 H   0  0  0  0  0  0  0  0  0  0  0  0
   10.6138    0.1133   20.9323 H   0  0  0  0  0  0  0  0  0  0  0  0
    9.6667    1.7522   21.8138 N   0  0  0  0  0  0  0  0  0  0  0  0
   10.1141    1.5059   23.1949 C   0  0  0  0  0  0  0  0  0  0  0  0
   10.6357    0.5453   23.2498 H   0  0  0  0  0  0  0  0  0  0  0  0
   10.8411    2.2737   23.4880 H   0  0  0  0  0  0  0  0  0  0  0  0
    8.8727    1.5256   24.1185 C   0  0  0  0  0  0  0  0  0  0  0  0
    8.6482    0.5299   24.5083 H   0  0  0  0  0  0  0  0  0  0  0  0
    9.0647    2.1587   24.9887 H   0  0  0  0  0  0  0  0  0  0  0  0
    7.7211    2.0638   23.2395 C   0  0  0  0  0  0  0  0  0  0  0  0
    6.9601    1.2956   23.0569 H   0  0  0  0  0  0  0  0  0  0  0  0
    7.2027    2.9086   23.7007 H   0  0  0  0  0  0  0  0  0  0  0  0
    8.3954    2.4830   21.9160 C   0  0  0  0  0  0  0  0  0  0  0  0
    8.6011    3.5613   21.9070 H   0  0  0  0  0  0  0  0  0  0  0  0
    7.7557    2.2720   21.0506 H   0  0  0  0  0  0  0  0  0  0  0  0
    7.3678   -0.7304   20.9655 C   0  0  0  0  0  0  0  0  0  0  0  0
    6.6572    0.0080   19.9052 C   0  0  0  0  0  0  0  0  0  0  0  0
    7.1619    0.0659   18.5898 C   0  0  0  0  0  0  0  0  0  0  0  0
    8.1041   -0.4274   18.3601 H   0  0  0  0  0  0  0  0  0  0  0  0
    6.5523    0.6770   17.5664 N   0  0  0  0  0  0  0  0  0  0  0  0
    5.3942    1.2986   17.8297 C   0  0  0  0  0  0  0  0  0  0  0  0
    4.9175    1.7925   16.9854 H   0  0  0  0  0  0  0  0  0  0  0  0
    4.8025    1.3137   19.0979 C   0  0  0  0  0  0  0  0  0  0  0  0
    3.8735    1.8433   19.2515 H   0  0  0  0  0  0  0  0  0  0  0  0
    5.4329    0.6515   20.1504 C   0  0  0  0  0  0  0  0  0  0  0  0
    5.0119    0.6357   21.1581 H   0  0  0  0  0  0  0  0  0  0  0  0
    6.5986   -1.9698   21.8735 S   0  0  0  0  0  0  0  0  0  0  0  0
  1  2  1  0
  2  3  2  0
  3  4  1  0
  4  5  1  0
  5  6  1  0
  5  7  1  0
  5  8  1  0
  8  9  1  0
  9 10  1  0
  9 11  1  0
  9 12  1  0
 12 13  1  0
 12 14  1  0
 12 15  1  0
 15 16  1  0
 15 17  1  0
 15 18  1  0
 18 19  1  0
 18 20  1  0
  4 21  2  0
 21 22  1  0
 22 23  2  0
 23 24  1  0
 23 25  1  0
 25 26  2  0
 26 27  1  0
 26 28  1  0
 28 29  1  0
 28 30  2  0
 30 31  1  0
 21 32  1  0
 32  2  1  0
 18  8  1  0
 30 22  1  0
M  END
>  <plip>  (1) 
-0.07142857142857142

>  <filename>  (1) 
[H][c]1[n][c]([C]([H])([H])[N]2[C]([H])([H])[C]([H])([H])[C]([H])([H])[C]2([H])[H])[c](-[c]2[c]([H])[n][c]([H])[c]([H])[c]2[H])[s]1

$$$$
