
     RDKit          3D

 53 56  0  0  0  0  0  0  0  0999 V2000
    3.3456    9.1034   26.9916 C   0  0  0  0  0  0  0  0  0  0  0  0
    3.1735    7.7161   26.9266 C   0  0  0  0  0  0  0  0  0  0  0  0
    4.2866    6.8804   26.7987 C   0  0  0  0  0  0  0  0  0  0  0  0
    5.5770    7.4228   26.7268 C   0  0  0  0  0  0  0  0  0  0  0  0
    6.7731    6.5403   26.5421 C   0  0  2  0  0  0  0  0  0  0  0  0
    7.6932    6.7765   25.3704 C   0  0  0  0  0  0  0  0  0  0  0  0
    6.8159    5.5578   25.4133 C   0  0  1  0  0  0  0  0  0  0  0  0
    7.4433    4.1969   25.6068 C   0  0  0  0  0  0  0  0  0  0  0  0
    7.9288    3.6322   24.2906 C   0  0  0  0  0  0  0  0  0  0  0  0
    8.5892    2.3359   24.4829 N   0  0  0  0  0  4  0  0  0  0  0  0
    9.0977    1.7373   23.2285 C   0  0  0  0  0  0  0  0  0  0  0  0
    9.8894    0.4596   23.4836 C   0  0  0  0  0  0  0  0  0  0  0  0
    9.3568   -0.6049   22.5069 C   0  0  0  0  0  0  0  0  0  0  0  0
    8.4799    0.1283   21.5232 N   0  0  0  0  0  4  0  0  0  0  0  0
    7.4028   -0.7263   20.9632 C   0  0  0  0  0  0  0  0  0  0  0  0
    6.6574    0.0118   19.8975 C   0  0  0  0  0  0  0  0  0  0  0  0
    5.4411    0.6567   20.1563 C   0  0  0  0  0  0  0  0  0  0  0  0
    4.8048    1.3165   19.1038 C   0  0  0  0  0  0  0  0  0  0  0  0
    5.4026    1.2967   17.8391 C   0  0  0  0  0  0  0  0  0  0  0  0
    6.5700    0.6887   17.5800 N   0  0  0  0  0  0  0  0  0  0  0  0
    7.1794    0.0756   18.6000 C   0  0  0  0  0  0  0  0  0  0  0  0
    8.1242   -0.4193   18.3735 H   0  0  0  0  0  0  0  0  0  0  0  0
    4.9198    1.7837   16.9931 H   0  0  0  0  0  0  0  0  0  0  0  0
    3.8717    1.8460   19.2498 H   0  0  0  0  0  0  0  0  0  0  0  0
    5.0104    0.6359   21.1640 H   0  0  0  0  0  0  0  0  0  0  0  0
    6.7185   -0.9917   21.7836 H   0  0  0  0  0  0  0  0  0  0  0  0
    7.8367   -1.6596   20.5750 H   0  0  0  0  0  0  0  0  0  0  0  0
    7.9683    1.3564   22.2622 C   0  0  0  0  0  0  0  0  0  0  0  0
    7.0709    1.0931   22.8332 H   0  0  0  0  0  0  0  0  0  0  0  0
    7.7052    2.1632   21.5750 H   0  0  0  0  0  0  0  0  0  0  0  0
    9.0300    0.4592   20.6957 H   0  0  0  0  0  0  0  0  0  0  0  0
    8.7265   -1.3318   23.0341 H   0  0  0  0  0  0  0  0  0  0  0  0
   10.1435   -1.1592   21.9846 H   0  0  0  0  0  0  0  0  0  0  0  0
   10.9580    0.6262   23.3197 H   0  0  0  0  0  0  0  0  0  0  0  0
    9.7680    0.1306   24.5191 H   0  0  0  0  0  0  0  0  0  0  0  0
    9.7318    2.4725   22.7214 H   0  0  0  0  0  0  0  0  0  0  0  0
    9.3700    2.4337   25.1799 H   0  0  0  0  0  0  0  0  0  0  0  0
    7.9150    1.6529   24.9199 H   0  0  0  0  0  0  0  0  0  0  0  0
    8.6190    4.3354   23.8033 H   0  0  0  0  0  0  0  0  0  0  0  0
    7.0809    3.5397   23.6015 H   0  0  0  0  0  0  0  0  0  0  0  0
    6.7376    3.5050   26.0846 H   0  0  0  0  0  0  0  0  0  0  0  0
    8.3056    4.2942   26.2772 H   0  0  0  0  0  0  0  0  0  0  0  0
    5.9606    5.5763   24.7375 H   0  0  0  0  0  0  0  0  0  0  0  0
    8.7614    6.6288   25.5050 H   0  0  0  0  0  0  0  0  0  0  0  0
    7.4367    7.5937   24.6989 H   0  0  0  0  0  0  0  0  0  0  0  0
    7.2411    6.2076   27.4671 H   0  0  0  0  0  0  0  0  0  0  0  0
    5.7404    8.8138   26.8008 C   0  0  0  0  0  0  0  0  0  0  0  0
    4.6312    9.6526   26.9290 C   0  0  0  0  0  0  0  0  0  0  0  0
    4.7756   10.7287   26.9795 H   0  0  0  0  0  0  0  0  0  0  0  0
    6.7465    9.2222   26.7272 H   0  0  0  0  0  0  0  0  0  0  0  0
    4.1693    5.8010   26.7282 H   0  0  0  0  0  0  0  0  0  0  0  0
    2.1785    7.2815   26.9765 H   0  0  0  0  0  0  0  0  0  0  0  0
    2.4812    9.7553   27.0979 H   0  0  0  0  0  0  0  0  0  0  0  0
  1  2  2  0
  2  3  1  0
  3  4  2  0
  4  5  1  0
  5  6  1  0
  6  7  1  0
  7  8  1  0
  8  9  1  0
  9 10  1  0
 10 11  1  0
 11 12  1  0
 12 13  1  0
 13 14  1  0
 14 15  1  0
 15 16  1  0
 16 17  2  0
 17 18  1  0
 18 19  2  0
 19 20  1  0
 20 21  2  0
 21 22  1  0
 19 23  1  0
 18 24  1  0
 17 25  1  0
 15 26  1  0
 15 27  1  0
 14 28  1  0
 28 29  1  0
 28 30  1  0
 14 31  1  0
 13 32  1  0
 13 33  1  0
 12 34  1  0
 12 35  1  0
 11 36  1  0
 10 37  1  0
 10 38  1  0
  9 39  1  0
  9 40  1  0
  8 41  1  0
  8 42  1  0
  7 43  1  6
  6 44  1  0
  6 45  1  0
  5 46  1  1
  4 47  1  0
 47 48  2  0
 48 49  1  0
 47 50  1  0
  3 51  1  0
  2 52  1  0
  1 53  1  0
 48  1  1  0
  7  5  1  0
 28 11  1  0
 21 16  1  0
M  CHG  2  10   1  14   1
M  END
>  <plip>  (1) 
-0.07142857142857142

>  <filename>  (1) 
[H][c]1[n][c]([H])[c]([C]([H])([H])[N+]2([H])[C]([H])([H])[C]([H])([H])[C]([H])([N+]([H])([H])[C]([H])([H])[C]([H])([H])[C@]3([H])[C]([H])([H])[C@@]3([H])[c]3[c]([H])[c]([H])[c]([H])[c]([H])[c]3[H])[C]2([H])[H])[c]([H])[c]1[H]

$$$$
