
     RDKit          3D

 49 51  0  0  0  0  0  0  0  0999 V2000
    4.2136    1.1826   32.5854 C   0  0  0  0  0  0  0  0  0  0  0  0
    3.5606    0.8250   31.3988 C   0  0  0  0  0  0  0  0  0  0  0  0
    4.2419    0.8887   30.1820 C   0  0  0  0  0  0  0  0  0  0  0  0
    5.5719    1.3331   30.1247 C   0  0  0  0  0  0  0  0  0  0  0  0
    6.1668    1.4507   28.8521 N   0  0  0  0  0  0  0  0  0  0  0  0
    7.1697    2.4761   28.6023 C   0  0  0  0  0  0  0  0  0  0  0  0
    7.1626    2.8651   27.1223 C   0  0  0  0  0  0  0  0  0  0  0  0
    7.4114    1.6729   26.2204 N   0  0  0  0  0  4  0  0  0  0  0  0
    7.4095    2.0642   24.7795 C   0  0  0  0  0  0  0  0  0  0  0  0
    8.0524    0.9877   23.9165 C   0  0  0  0  0  0  0  0  0  0  0  0
    8.2153    1.4398   22.4661 C   0  0  0  0  0  0  0  0  0  0  0  0
    8.9369    0.1651   21.3978 S   0  0  0  0  0  0  0  0  0  0  0  0
    7.4139   -0.7372   20.9610 C   0  0  0  0  0  0  0  0  0  0  0  0
    6.6183   -0.0375   19.8839 C   0  0  0  0  0  0  0  0  0  0  0  0
    5.4085    0.6307   20.1277 C   0  0  0  0  0  0  0  0  0  0  0  0
    4.7789    1.3108   19.0782 C   0  0  0  0  0  0  0  0  0  0  0  0
    5.3859    1.3084   17.8208 C   0  0  0  0  0  0  0  0  0  0  0  0
    6.5503    0.6877   17.5673 N   0  0  0  0  0  0  0  0  0  0  0  0
    7.1434    0.0507   18.5823 C   0  0  0  0  0  0  0  0  0  0  0  0
    8.1053   -0.4091   18.3534 H   0  0  0  0  0  0  0  0  0  0  0  0
    4.9297    1.8240   16.9761 H   0  0  0  0  0  0  0  0  0  0  0  0
    3.8528    1.8594   19.2242 H   0  0  0  0  0  0  0  0  0  0  0  0
    4.9699    0.6440   21.1274 H   0  0  0  0  0  0  0  0  0  0  0  0
    6.8164   -0.8792   21.8703 H   0  0  0  0  0  0  0  0  0  0  0  0
    7.7567   -1.7325   20.6542 H   0  0  0  0  0  0  0  0  0  0  0  0
    8.8748    2.3129   22.3926 H   0  0  0  0  0  0  0  0  0  0  0  0
    7.2495    1.7373   22.0347 H   0  0  0  0  0  0  0  0  0  0  0  0
    7.4377    0.0796   23.9614 H   0  0  0  0  0  0  0  0  0  0  0  0
    9.0269    0.7231   24.3519 H   0  0  0  0  0  0  0  0  0  0  0  0
    7.9505    3.0140   24.6649 H   0  0  0  0  0  0  0  0  0  0  0  0
    6.3742    2.2546   24.4542 H   0  0  0  0  0  0  0  0  0  0  0  0
    6.3621    0.5987   26.5543 C   0  0  0  0  0  0  0  0  0  0  0  0
    6.3814    0.2483   28.0460 C   0  0  0  0  0  0  0  0  0  0  0  0
    5.5992   -0.4879   28.2607 H   0  0  0  0  0  0  0  0  0  0  0  0
    7.3544   -0.2229   28.2803 H   0  0  0  0  0  0  0  0  0  0  0  0
    5.3761    1.0067   26.2965 H   0  0  0  0  0  0  0  0  0  0  0  0
    6.5350   -0.2973   25.9517 H   0  0  0  0  0  0  0  0  0  0  0  0
    8.3661    1.2827   26.4231 H   0  0  0  0  0  0  0  0  0  0  0  0
    6.1707    3.2635   26.8724 H   0  0  0  0  0  0  0  0  0  0  0  0
    7.9107    3.6412   26.9292 H   0  0  0  0  0  0  0  0  0  0  0  0
    6.9288    3.3637   29.1985 H   0  0  0  0  0  0  0  0  0  0  0  0
    8.1874    2.1321   28.8687 H   0  0  0  0  0  0  0  0  0  0  0  0
    6.2254    1.6821   31.3176 C   0  0  0  0  0  0  0  0  0  0  0  0
    5.5485    1.6042   32.5405 C   0  0  0  0  0  0  0  0  0  0  0  0
    6.0629    1.8824   33.4579 H   0  0  0  0  0  0  0  0  0  0  0  0
    7.2613    2.0042   31.2609 H   0  0  0  0  0  0  0  0  0  0  0  0
    3.7745    0.6264   29.2392 H   0  0  0  0  0  0  0  0  0  0  0  0
    2.5246    0.4941   31.4159 H   0  0  0  0  0  0  0  0  0  0  0  0
    3.6865    1.1319   33.5345 H   0  0  0  0  0  0  0  0  0  0  0  0
  1  2  2  0
  2  3  1  0
  3  4  2  0
  4  5  1  0
  5  6  1  0
  6  7  1  0
  7  8  1  0
  8  9  1  0
  9 10  1  0
 10 11  1  0
 11 12  1  0
 12 13  1  0
 13 14  1  0
 14 15  2  0
 15 16  1  0
 16 17  2  0
 17 18  1  0
 18 19  2  0
 19 20  1  0
 17 21  1  0
 16 22  1  0
 15 23  1  0
 13 24  1  0
 13 25  1  0
 11 26  1  0
 11 27  1  0
 10 28  1  0
 10 29  1  0
  9 30  1  0
  9 31  1  0
  8 32  1  0
 32 33  1  0
 33 34  1  0
 33 35  1  0
 32 36  1  0
 32 37  1  0
  8 38  1  0
  7 39  1  0
  7 40  1  0
  6 41  1  0
  6 42  1  0
  4 43  1  0
 43 44  2  0
 44 45  1  0
 43 46  1  0
  3 47  1  0
  2 48  1  0
  1 49  1  0
 44  1  1  0
 33  5  1  0
 19 14  1  0
M  CHG  1   8   1
M  END
>  <plip>  (1) 
-0.03571428571428571

>  <filename>  (1) 
[H][c]1[n][c]([H])[c]([C]([H])([H])[S][C]([H])([H])[C]([H])([H])[C]([H])([H])[N+]2([H])[C]([H])([H])[C]([H])([H])[N]([c]3[c]([H])[c]([H])[c]([H])[c]([H])[c]3[H])[C]([H])([H])[C]2([H])[H])[c]([H])[c]1[H]

$$$$
