
     RDKit          3D

 31 33  0  0  0  0  0  0  0  0999 V2000
    4.9443    1.6246   16.9976 H   0  0  0  0  0  0  0  0  0  0  0  0
    5.4635    1.1591   17.8336 C   0  0  0  0  0  0  0  0  0  0  0  0
    6.6581    0.6071   17.5485 N   0  0  0  0  0  0  0  0  0  0  0  0
    7.3368    0.0460   18.5587 C   0  0  0  0  0  0  0  0  0  0  0  0
    8.3061   -0.3963   18.3168 H   0  0  0  0  0  0  0  0  0  0  0  0
    6.8647    0.0132   19.8942 C   0  0  0  0  0  0  0  0  0  0  0  0
    7.7712   -0.4370   20.8566 O   0  0  0  0  0  0  0  0  0  0  0  0
    7.4127   -0.9047   22.3972 S   0  0  0  0  0  0  0  0  0  0  0  0
    8.6854   -1.3815   22.8824 O   0  0  0  0  0  0  0  0  0  0  0  0
    6.2551   -1.7705   22.3714 O   0  0  0  0  0  0  0  0  0  0  0  0
    7.0324    0.6598   23.1820 C   0  0  0  0  0  0  0  0  0  0  0  0
    7.4959    1.8399   22.6131 C   0  0  0  0  0  0  0  0  0  0  0  0
    7.9347    1.9025   21.6195 H   0  0  0  0  0  0  0  0  0  0  0  0
    7.3714    3.0648   23.3066 C   0  0  0  0  0  0  0  0  0  0  0  0
    7.7407    3.9761   22.8396 H   0  0  0  0  0  0  0  0  0  0  0  0
    6.8008    3.1206   24.5489 C   0  0  0  0  0  0  0  0  0  0  0  0
    6.7119    4.0603   25.0959 H   0  0  0  0  0  0  0  0  0  0  0  0
    6.2949    1.9365   25.1608 C   0  0  0  0  0  0  0  0  0  0  0  0
    5.7211    2.0028   26.4707 C   0  0  0  0  0  0  0  0  0  0  0  0
    5.6741    2.9661   26.9764 H   0  0  0  0  0  0  0  0  0  0  0  0
    5.2565    0.8658   27.0888 C   0  0  0  0  0  0  0  0  0  0  0  0
    4.8620    0.9085   28.1034 H   0  0  0  0  0  0  0  0  0  0  0  0
    5.2971   -0.3759   26.3985 C   0  0  0  0  0  0  0  0  0  0  0  0
    4.9198   -1.2666   26.8949 H   0  0  0  0  0  0  0  0  0  0  0  0
    5.8127   -0.4701   25.1187 C   0  0  0  0  0  0  0  0  0  0  0  0
    5.7789   -1.4117   24.5819 H   0  0  0  0  0  0  0  0  0  0  0  0
    6.3762    0.6759   24.4703 C   0  0  0  0  0  0  0  0  0  0  0  0
    5.6011    0.5418   20.1723 C   0  0  0  0  0  0  0  0  0  0  0  0
    5.1700    0.5267   21.1736 H   0  0  0  0  0  0  0  0  0  0  0  0
    4.8991    1.1437   19.1109 C   0  0  0  0  0  0  0  0  0  0  0  0
    3.9360    1.6211   19.2707 H   0  0  0  0  0  0  0  0  0  0  0  0
  1  2  1  0
  2  3  2  0
  3  4  1  0
  4  5  1  0
  4  6  2  0
  6  7  1  0
  7  8  1  0
  8  9  2  0
  8 10  2  0
  8 11  1  0
 11 12  2  0
 12 13  1  0
 12 14  1  0
 14 15  1  0
 14 16  2  0
 16 17  1  0
 16 18  1  0
 18 19  2  0
 19 20  1  0
 19 21  1  0
 21 22  1  0
 21 23  2  0
 23 24  1  0
 23 25  1  0
 25 26  1  0
 25 27  2  0
  6 28  1  0
 28 29  1  0
 28 30  2  0
 30 31  1  0
 30  2  1  0
 27 11  1  0
 27 18  1  0
M  END
>  <plip>  (1) 
-0.0

>  <filename>  (1) 
[H][c]1[n][c]([H])[c]([O][S](=[O])(=[O])[c]2[c]([H])[c]([H])[c]([H])[c]3[c]([H])[c]([H])[c]([H])[c]([H])[c]23)[c]([H])[c]1[H]

$$$$
