
     RDKit          3D

 35 37  0  0  0  0  0  0  0  0999 V2000
   12.6174    7.2710   24.4189 F   0  0  0  0  0  0  0  0  0  0  0  0
   11.6266    6.3644   24.3406 C   0  0  0  0  0  0  0  0  0  0  0  0
   11.2333    6.1068   25.6038 F   0  0  0  0  0  0  0  0  0  0  0  0
   10.5641    6.9327   23.7339 F   0  0  0  0  0  0  0  0  0  0  0  0
   12.0312    5.0989   23.6181 C   0  0  0  0  0  0  0  0  0  0  0  0
   13.3717    4.7673   23.3733 C   0  0  0  0  0  0  0  0  0  0  0  0
   13.6681    3.5407   22.7783 C   0  0  0  0  0  0  0  0  0  0  0  0
   12.6555    2.6460   22.4363 C   0  0  0  0  0  0  0  0  0  0  0  0
   11.3111    3.0039   22.6245 C   0  0  0  0  0  0  0  0  0  0  0  0
   10.2281    2.1679   22.2246 N   0  0  0  0  0  0  0  0  0  0  0  0
   10.2763    0.9622   21.5892 C   0  0  0  0  0  0  0  0  0  0  0  0
    8.9771    0.5264   21.4920 C   0  0  0  0  0  0  0  0  0  0  0  0
    8.5960   -0.6546   20.9406 O   0  0  0  0  0  0  0  0  0  0  0  0
    7.1921   -0.9234   20.8772 C   0  0  0  0  0  0  0  0  0  0  0  0
    6.4908   -0.1029   19.8140 C   0  0  0  0  0  0  0  0  0  0  0  0
    5.2864    0.5820   20.0258 C   0  0  0  0  0  0  0  0  0  0  0  0
    4.7419    1.3275   18.9748 C   0  0  0  0  0  0  0  0  0  0  0  0
    5.4139    1.3578   17.7508 C   0  0  0  0  0  0  0  0  0  0  0  0
    6.5652    0.7053   17.5248 N   0  0  0  0  0  0  0  0  0  0  0  0
    7.0837    0.0102   18.5433 C   0  0  0  0  0  0  0  0  0  0  0  0
    8.0208   -0.5037   18.3329 H   0  0  0  0  0  0  0  0  0  0  0  0
    5.0138    1.9346   16.9176 H   0  0  0  0  0  0  0  0  0  0  0  0
    3.8291    1.9006   19.0990 H   0  0  0  0  0  0  0  0  0  0  0  0
    4.7758    0.5425   20.9915 H   0  0  0  0  0  0  0  0  0  0  0  0
    6.7332   -0.7665   21.8673 H   0  0  0  0  0  0  0  0  0  0  0  0
    7.1499   -1.9932   20.6518 H   0  0  0  0  0  0  0  0  0  0  0  0
    8.1972    1.5570   22.0810 C   0  0  0  0  0  0  0  0  0  0  0  0
    8.9653    2.5302   22.5243 N   0  0  0  0  0  0  0  0  0  0  0  0
    7.1191    1.6139   22.1564 H   0  0  0  0  0  0  0  0  0  0  0  0
   11.1951    0.5519   21.1964 H   0  0  0  0  0  0  0  0  0  0  0  0
   11.0115    4.2248   23.2342 C   0  0  0  0  0  0  0  0  0  0  0  0
    9.9684    4.4491   23.4272 H   0  0  0  0  0  0  0  0  0  0  0  0
   12.9278    1.6852   22.0186 H   0  0  0  0  0  0  0  0  0  0  0  0
   14.7027    3.2675   22.5883 H   0  0  0  0  0  0  0  0  0  0  0  0
   14.1601    5.4660   23.6267 H   0  0  0  0  0  0  0  0  0  0  0  0
  1  2  1  0
  2  3  1  0
  2  4  1  0
  2  5  1  0
  5  6  2  0
  6  7  1  0
  7  8  2  0
  8  9  1  0
  9 10  1  0
 10 11  1  0
 11 12  2  0
 12 13  1  0
 13 14  1  0
 14 15  1  0
 15 16  2  0
 16 17  1  0
 17 18  2  0
 18 19  1  0
 19 20  2  0
 20 21  1  0
 18 22  1  0
 17 23  1  0
 16 24  1  0
 14 25  1  0
 14 26  1  0
 12 27  1  0
 27 28  2  0
 27 29  1  0
 11 30  1  0
  9 31  2  0
 31 32  1  0
  8 33  1  0
  7 34  1  0
  6 35  1  0
 31  5  1  0
 28 10  1  0
 20 15  1  0
M  END
>  <plip>  (1) 
-0.03571428571428571

>  <filename>  (1) 
[H][c]1[n][c]([H])[c]([C]([H])([H])[O][c]2[c]([H])[n][n](-[c]3[c]([H])[c]([H])[c]([H])[c]([C]([F])([F])[F])[c]3[H])[c]2[H])[c]([H])[c]1[H]

$$$$
