
     RDKit          3D

 46 48  0  0  0  0  0  0  0  0999 V2000
    9.1102    1.4214   21.0113 O   0  0  0  0  0  0  0  0  0  0  0  0
    8.3472    1.2362   21.9430 C   0  0  0  0  0  0  0  0  0  0  0  0
    8.2085    2.2301   23.0952 C   0  0  0  0  0  0  0  0  0  0  0  0
    9.3253    2.0933   24.1795 C   0  0  0  0  0  0  0  0  0  0  0  0
    9.1843    3.1481   25.3230 C   0  0  0  0  0  0  0  0  0  0  0  0
    9.3828    4.3425   25.3112 O   0  0  0  0  0  0  0  0  0  0  0  0
    8.7929    2.4603   26.4394 N   0  0  0  0  0  0  0  0  0  0  0  0
    8.9165    1.0798   26.2853 C   0  0  0  0  0  0  0  0  0  0  0  0
    8.7026    0.0748   27.2265 C   0  0  0  0  0  0  0  0  0  0  0  0
    8.9160   -1.2515   26.8458 C   0  0  0  0  0  0  0  0  0  0  0  0
    9.3664   -1.5386   25.5478 C   0  0  0  0  0  0  0  0  0  0  0  0
    9.7511   -3.1876   25.1429 Cl  0  0  0  0  0  0  0  0  0  0  0  0
    9.5640   -0.5298   24.5971 C   0  0  0  0  0  0  0  0  0  0  0  0
    9.2916    0.7903   24.9634 C   0  0  0  0  0  0  0  0  0  0  0  0
    9.9072   -0.7900   23.5975 H   0  0  0  0  0  0  0  0  0  0  0  0
    8.7398   -2.0694   27.5411 H   0  0  0  0  0  0  0  0  0  0  0  0
    8.4164    0.3193   28.2482 H   0  0  0  0  0  0  0  0  0  0  0  0
    8.7585    2.9786   27.2998 H   0  0  0  0  0  0  0  0  0  0  0  0
   10.2880    2.2860   23.6954 H   0  0  0  0  0  0  0  0  0  0  0  0
    7.2220    2.1323   23.5615 H   0  0  0  0  0  0  0  0  0  0  0  0
    8.2764    3.2240   22.6458 H   0  0  0  0  0  0  0  0  0  0  0  0
    7.6076    0.0886   22.0597 N   0  0  0  0  0  0  0  0  0  0  0  0
    7.3600   -0.7765   20.9124 C   0  0  0  0  0  0  0  0  0  0  0  0
    6.5714   -2.0298   21.3355 C   0  0  0  0  0  0  0  0  0  0  0  0
    7.2110   -2.9517   22.3921 C   0  0  0  0  0  0  0  0  0  0  0  0
    8.4451   -3.7064   21.9005 C   0  0  0  0  0  0  0  0  0  0  0  0
    8.8007   -4.7892   22.7324 O   0  0  0  0  0  0  0  0  0  0  0  0
    8.0385   -5.3703   22.8072 H   0  0  0  0  0  0  0  0  0  0  0  0
    8.2788   -4.0753   20.8772 H   0  0  0  0  0  0  0  0  0  0  0  0
    9.3141   -3.0374   21.8718 H   0  0  0  0  0  0  0  0  0  0  0  0
    6.4599   -3.6956   22.6921 H   0  0  0  0  0  0  0  0  0  0  0  0
    7.4635   -2.3966   23.3033 H   0  0  0  0  0  0  0  0  0  0  0  0
    5.5773   -1.7069   21.6676 H   0  0  0  0  0  0  0  0  0  0  0  0
    6.3826   -2.6218   20.4318 H   0  0  0  0  0  0  0  0  0  0  0  0
    6.6387    0.0024   19.8130 C   0  0  0  0  0  0  0  0  0  0  0  0
    5.4354    0.6882   20.0447 C   0  0  0  0  0  0  0  0  0  0  0  0
    4.8156    1.3453   18.9793 C   0  0  0  0  0  0  0  0  0  0  0  0
    5.4252    1.3128   17.7191 C   0  0  0  0  0  0  0  0  0  0  0  0
    6.5809    0.6779   17.4763 N   0  0  0  0  0  0  0  0  0  0  0  0
    7.1665    0.0663   18.5185 C   0  0  0  0  0  0  0  0  0  0  0  0
    8.1266   -0.4036   18.3013 H   0  0  0  0  0  0  0  0  0  0  0  0
    4.9675    1.8183   16.8692 H   0  0  0  0  0  0  0  0  0  0  0  0
    3.8938    1.9018   19.1190 H   0  0  0  0  0  0  0  0  0  0  0  0
    4.9997    0.7326   21.0474 H   0  0  0  0  0  0  0  0  0  0  0  0
    8.3299   -1.0897   20.5053 H   0  0  0  0  0  0  0  0  0  0  0  0
    6.9091    0.0880   22.7811 H   0  0  0  0  0  0  0  0  0  0  0  0
  1  2  2  0
  2  3  1  0
  3  4  1  0
  4  5  1  0
  5  6  2  0
  5  7  1  0
  7  8  1  0
  8  9  2  0
  9 10  1  0
 10 11  2  0
 11 12  1  0
 11 13  1  0
 13 14  2  0
 13 15  1  0
 10 16  1  0
  9 17  1  0
  7 18  1  0
  4 19  1  0
  3 20  1  0
  3 21  1  0
  2 22  1  0
 22 23  1  0
 23 24  1  0
 24 25  1  0
 25 26  1  0
 26 27  1  0
 27 28  1  0
 26 29  1  0
 26 30  1  0
 25 31  1  0
 25 32  1  0
 24 33  1  0
 24 34  1  0
 23 35  1  0
 35 36  2  0
 36 37  1  0
 37 38  2  0
 38 39  1  0
 39 40  2  0
 40 41  1  0
 38 42  1  0
 37 43  1  0
 36 44  1  0
 23 45  1  0
 22 46  1  0
 14  4  1  0
 40 35  1  0
 14  8  1  0
M  END
>  <plip>  (1) 
-0.1

>  <filename>  (1) 
[H][O][C]([H])([H])[C]([H])([H])[C]([H])([H])[C]([H])([c]1[c]([H])[n][c]([H])[c]([H])[c]1[H])[N]([H])[C](=[O])[C]([H])([H])[C]1([H])[C](=[O])[N]([H])[c]2[c]([H])[c]([H])[c]([Cl])[c]([H])[c]21

$$$$
