
     RDKit          3D

 32 34  0  0  0  0  0  0  0  0999 V2000
    7.8174    0.2501   22.1098 C   0  0  0  0  0  0  0  0  0  0  0  0
    7.4071   -0.7274   21.0045 C   0  0  0  0  0  0  0  0  0  0  0  0
    6.6176   -1.8364   21.5356 N   0  0  0  0  0  0  0  0  0  0  0  0
    7.1685   -2.8409   22.2582 C   0  0  0  0  0  0  0  0  0  0  0  0
    8.3739   -2.9209   22.4407 O   0  0  0  0  0  0  0  0  0  0  0  0
    6.2086   -3.9030   22.8264 C   0  0  0  0  0  0  0  0  0  0  0  0
    4.9237   -3.9168   22.6766 N   0  0  0  0  0  0  0  0  0  0  0  0
    4.3784   -5.0086   23.3222 C   0  0  0  0  0  0  0  0  0  0  0  0
    3.0125   -5.3295   23.3756 C   0  0  0  0  0  0  0  0  0  0  0  0
    2.6351   -6.4736   24.0646 C   0  0  0  0  0  0  0  0  0  0  0  0
    3.6284   -7.2665   24.6815 C   0  0  0  0  0  0  0  0  0  0  0  0
    4.9358   -6.9877   24.6444 N   0  0  0  0  0  0  0  0  0  0  0  0
    5.2871   -5.8738   23.9787 C   0  0  0  0  0  0  0  0  0  0  0  0
    6.9013   -5.2310   23.7505 S   0  0  0  0  0  0  0  0  0  0  0  0
    3.3423   -8.1665   25.2238 H   0  0  0  0  0  0  0  0  0  0  0  0
    1.5909   -6.7612   24.1326 H   0  0  0  0  0  0  0  0  0  0  0  0
    2.2983   -4.6765   22.8786 H   0  0  0  0  0  0  0  0  0  0  0  0
    5.6207   -1.8339   21.3941 H   0  0  0  0  0  0  0  0  0  0  0  0
    6.6450   -0.0262   19.9091 C   0  0  0  0  0  0  0  0  0  0  0  0
    5.4380    0.6412   20.1577 C   0  0  0  0  0  0  0  0  0  0  0  0
    4.8076    1.3092   19.1074 C   0  0  0  0  0  0  0  0  0  0  0  0
    5.4036    1.2906   17.8417 C   0  0  0  0  0  0  0  0  0  0  0  0
    6.5688    0.6767   17.5845 N   0  0  0  0  0  0  0  0  0  0  0  0
    7.1633    0.0511   18.6092 C   0  0  0  0  0  0  0  0  0  0  0  0
    8.1156   -0.4263   18.3774 H   0  0  0  0  0  0  0  0  0  0  0  0
    4.9155    1.7786   16.9995 H   0  0  0  0  0  0  0  0  0  0  0  0
    3.8755    1.8425   19.2619 H   0  0  0  0  0  0  0  0  0  0  0  0
    5.0000    0.6385   21.1605 H   0  0  0  0  0  0  0  0  0  0  0  0
    8.3191   -1.1574   20.5768 H   0  0  0  0  0  0  0  0  0  0  0  0
    8.4511   -0.2604   22.8379 H   0  0  0  0  0  0  0  0  0  0  0  0
    6.9354    0.6430   22.6265 H   0  0  0  0  0  0  0  0  0  0  0  0
    8.3669    1.0927   21.6795 H   0  0  0  0  0  0  0  0  0  0  0  0
  1  2  1  0
  2  3  1  0
  3  4  1  0
  4  5  2  0
  4  6  1  0
  6  7  2  0
  7  8  1  0
  8  9  2  0
  9 10  1  0
 10 11  2  0
 11 12  1  0
 12 13  2  0
 13 14  1  0
 11 15  1  0
 10 16  1  0
  9 17  1  0
  3 18  1  0
  2 19  1  0
 19 20  2  0
 20 21  1  0
 21 22  2  0
 22 23  1  0
 23 24  2  0
 24 25  1  0
 22 26  1  0
 21 27  1  0
 20 28  1  0
  2 29  1  0
  1 30  1  0
  1 31  1  0
  1 32  1  0
 14  6  1  0
 24 19  1  0
 13  8  1  0
M  END
>  <plip>  (1) 
-0.0967741935483871

>  <filename>  (1) 
[H][c]1[n][c]([H])[c]([C]([H])([N]([H])[C](=[O])[c]2[n][c]3[c]([H])[c]([H])[c]([H])[n][c]3[s]2)[C]([H])([H])[H])[c]([H])[c]1[H]

$$$$
