
     RDKit          3D

 28 29  0  0  0  0  0  0  0  0999 V2000
    4.9257    1.8141   16.9687 H   0  0  0  0  0  0  0  0  0  0  0  0
    5.3842    1.3012   17.8150 C   0  0  0  0  0  0  0  0  0  0  0  0
    6.5417    0.6713   17.5574 N   0  0  0  0  0  0  0  0  0  0  0  0
    7.1474    0.0484   18.5762 C   0  0  0  0  0  0  0  0  0  0  0  0
    8.1040   -0.4137   18.3377 H   0  0  0  0  0  0  0  0  0  0  0  0
    6.6519    0.0081   19.8915 C   0  0  0  0  0  0  0  0  0  0  0  0
    7.3935   -0.6973   20.9635 C   0  0  0  0  0  0  0  0  0  0  0  0
    7.6410   -2.0372   20.9342 C   0  0  0  0  0  0  0  0  0  0  0  0
    7.2347   -2.7247   20.2077 H   0  0  0  0  0  0  0  0  0  0  0  0
    8.5213   -2.5809   22.2997 S   0  0  0  0  0  0  0  0  0  0  0  0
    8.5430   -0.9926   22.9720 C   0  0  0  0  0  0  0  0  0  0  0  0
    9.0025   -0.8569   23.9468 H   0  0  0  0  0  0  0  0  0  0  0  0
    7.9179   -0.0826   22.1650 C   0  0  0  0  0  0  0  0  0  0  0  0
    7.7399    1.3872   22.4718 C   0  0  0  0  0  0  0  0  0  0  0  0
    7.7653    1.9690   21.5444 H   0  0  0  0  0  0  0  0  0  0  0  0
    8.5689    1.7386   23.1092 H   0  0  0  0  0  0  0  0  0  0  0  0
    6.4881    1.6877   23.0669 O   0  0  0  0  0  0  0  0  0  0  0  0
    6.4673    1.5015   24.4702 C   0  0  0  0  0  0  0  0  0  0  0  0
    7.1545    2.2183   24.9531 H   0  0  0  0  0  0  0  0  0  0  0  0
    6.8360    0.4950   24.7208 H   0  0  0  0  0  0  0  0  0  0  0  0
    5.0495    1.7003   24.9629 C   0  0  0  0  0  0  0  0  0  0  0  0
    4.6832    2.6957   24.6956 H   0  0  0  0  0  0  0  0  0  0  0  0
    5.0213    1.6033   26.0527 H   0  0  0  0  0  0  0  0  0  0  0  0
    4.3732    0.9553   24.5325 H   0  0  0  0  0  0  0  0  0  0  0  0
    5.4371    0.6675   20.1367 C   0  0  0  0  0  0  0  0  0  0  0  0
    5.0402    0.6718   21.1506 H   0  0  0  0  0  0  0  0  0  0  0  0
    4.7924    1.3181   19.0825 C   0  0  0  0  0  0  0  0  0  0  0  0
    3.8583    1.8530   19.2218 H   0  0  0  0  0  0  0  0  0  0  0  0
  1  2  1  0
  2  3  2  0
  3  4  1  0
  4  5  1  0
  4  6  2  0
  6  7  1  0
  7  8  2  0
  8  9  1  0
  8 10  1  0
 10 11  1  0
 11 12  1  0
 11 13  2  0
 13 14  1  0
 14 15  1  0
 14 16  1  0
 14 17  1  0
 17 18  1  0
 18 19  1  0
 18 20  1  0
 18 21  1  0
 21 22  1  0
 21 23  1  0
 21 24  1  0
  6 25  1  0
 25 26  1  0
 25 27  2  0
 27 28  1  0
 27  2  1  0
 13  7  1  0
M  END
>  <plip>  (1) 
-0.0

>  <filename>  (1) 
[H][c]1[n][c]([H])[c](-[c]2[c]([H])[s][c]([H])[c]2[C]([H])([H])[O][C]([H])([H])[C]([H])([H])[H])[c]([H])[c]1[H]

$$$$
