
     RDKit          3D

 25 26  0  0  0  0  0  0  0  0999 V2000
    5.0049    1.7681   17.0151 H   0  0  0  0  0  0  0  0  0  0  0  0
    5.4409    1.2435   17.8620 C   0  0  0  0  0  0  0  0  0  0  0  0
    6.5986    0.6114   17.6218 N   0  0  0  0  0  0  0  0  0  0  0  0
    7.1775   -0.0122   18.6488 C   0  0  0  0  0  0  0  0  0  0  0  0
    8.1439   -0.4637   18.4302 H   0  0  0  0  0  0  0  0  0  0  0  0
    6.6411   -0.0460   19.9365 C   0  0  0  0  0  0  0  0  0  0  0  0
    7.4408   -0.6371   20.9969 C   0  0  0  0  0  0  0  0  0  0  0  0
    7.3027   -0.2079   22.1972 N   0  0  0  0  0  0  0  0  0  0  0  0
    7.8154   -0.8612   23.2786 C   0  0  0  0  0  0  0  0  0  0  0  0
    8.2322   -2.0169   23.2432 O   0  0  0  0  0  0  0  0  0  0  0  0
    7.7900   -0.0234   24.5300 C   0  0  0  0  0  0  0  0  0  0  0  0
    8.2336   -0.5211   25.7220 O   0  0  0  0  0  0  0  0  0  0  0  0
    8.1568    0.4776   26.6258 C   0  0  0  0  0  0  0  0  0  0  0  0
    8.4908    0.2371   27.6246 H   0  0  0  0  0  0  0  0  0  0  0  0
    7.6685    1.6107   26.0571 C   0  0  0  0  0  0  0  0  0  0  0  0
    7.5146    2.5612   26.5513 H   0  0  0  0  0  0  0  0  0  0  0  0
    7.4237    1.2837   24.6948 C   0  0  0  0  0  0  0  0  0  0  0  0
    7.0362    1.9201   23.9094 H   0  0  0  0  0  0  0  0  0  0  0  0
    8.3581   -1.5549   20.6375 N   0  0  0  0  0  0  0  0  0  0  0  0
    8.5920   -2.0629   21.4937 H   0  0  0  0  0  0  0  0  0  0  0  0
    8.0194   -2.1299   19.8834 H   0  0  0  0  0  0  0  0  0  0  0  0
    5.4219    0.6116   20.1822 C   0  0  0  0  0  0  0  0  0  0  0  0
    4.9992    0.6451   21.1925 H   0  0  0  0  0  0  0  0  0  0  0  0
    4.8114    1.2631   19.1155 C   0  0  0  0  0  0  0  0  0  0  0  0
    3.8920    1.8275   19.2483 H   0  0  0  0  0  0  0  0  0  0  0  0
  1  2  1  0
  2  3  2  0
  3  4  1  0
  4  5  1  0
  4  6  2  0
  6  7  1  0
  7  8  2  3
  8  9  1  0
  9 10  2  0
  9 11  1  0
 11 12  1  0
 12 13  1  0
 13 14  1  0
 13 15  2  0
 15 16  1  0
 15 17  1  0
 17 18  1  0
  7 19  1  0
 19 20  1  0
 19 21  1  0
  6 22  1  0
 22 23  1  0
 22 24  2  0
 24 25  1  0
 24  2  1  0
 17 11  2  0
M  END
>  <plip>  (1) 
-0.0

>  <filename>  (1) 
[H][c]1[n][c]([H])[c]([C](=[N][C](=[O])[c]2[o][c]([H])[c]([H])[c]2[H])[N]([H])[H])[c]([H])[c]1[H]

$$$$
