
     RDKit          3D

 46 49  0  0  0  0  0  0  0  0999 V2000
    6.0149   -2.6549   19.0342 O   0  0  0  0  0  0  0  0  0  0  0  0
    6.0322   -2.8510   20.2427 C   0  0  0  0  0  0  0  0  0  0  0  0
    6.1608   -1.8537   21.1520 N   0  0  0  0  0  0  0  0  0  0  0  0
    6.8806   -0.6155   20.8934 C   0  0  0  0  0  0  0  0  0  0  0  0
    8.3891   -0.8431   20.6488 C   0  0  0  0  0  0  0  0  0  0  0  0
    9.1874   -1.3826   21.7753 N   0  0  0  0  0  4  0  0  0  0  0  0
    9.4667   -0.4720   22.9480 C   0  0  0  0  0  0  0  0  0  0  0  0
   10.6367   -1.1626   23.6668 C   0  0  0  0  0  0  0  0  0  0  0  0
   11.2980   -2.0796   22.6087 C   0  0  0  0  0  0  0  0  0  0  0  0
   10.5662   -1.7630   21.3184 C   0  0  0  0  0  0  0  0  0  0  0  0
   10.5293   -2.5816   20.5972 H   0  0  0  0  0  0  0  0  0  0  0  0
   11.0298   -0.9012   20.8119 H   0  0  0  0  0  0  0  0  0  0  0  0
   11.1785   -3.1381   22.8659 H   0  0  0  0  0  0  0  0  0  0  0  0
   12.3686   -1.9036   22.4818 H   0  0  0  0  0  0  0  0  0  0  0  0
   11.3361   -0.4241   24.0676 H   0  0  0  0  0  0  0  0  0  0  0  0
   10.2898   -1.7481   24.5222 H   0  0  0  0  0  0  0  0  0  0  0  0
    8.5821   -0.3411   23.5793 H   0  0  0  0  0  0  0  0  0  0  0  0
    9.7715    0.5165   22.5761 H   0  0  0  0  0  0  0  0  0  0  0  0
    8.7096   -2.2454   22.1610 H   0  0  0  0  0  0  0  0  0  0  0  0
    8.8134    0.1146   20.3154 H   0  0  0  0  0  0  0  0  0  0  0  0
    8.4535   -1.5504   19.8114 H   0  0  0  0  0  0  0  0  0  0  0  0
    6.2580    0.1481   19.7423 C   0  0  0  0  0  0  0  0  0  0  0  0
    5.0718    0.8646   19.9251 C   0  0  0  0  0  0  0  0  0  0  0  0
    4.5598    1.6022   18.8535 C   0  0  0  0  0  0  0  0  0  0  0  0
    5.2517    1.5927   17.6367 C   0  0  0  0  0  0  0  0  0  0  0  0
    6.3646    0.8761   17.4270 N   0  0  0  0  0  0  0  0  0  0  0  0
    6.8282    0.1666   18.4597 C   0  0  0  0  0  0  0  0  0  0  0  0
    7.7266   -0.4123   18.2547 H   0  0  0  0  0  0  0  0  0  0  0  0
    4.9024    2.1754   16.7895 H   0  0  0  0  0  0  0  0  0  0  0  0
    3.6619    2.2017   18.9533 H   0  0  0  0  0  0  0  0  0  0  0  0
    4.5656    0.8448   20.8942 H   0  0  0  0  0  0  0  0  0  0  0  0
    6.7731   -0.0149   21.8100 H   0  0  0  0  0  0  0  0  0  0  0  0
    6.1368   -2.1757   22.1087 H   0  0  0  0  0  0  0  0  0  0  0  0
    5.8941   -4.2132   20.7970 C   0  0  0  0  0  0  0  0  0  0  0  0
    5.4749   -5.2987   20.0834 C   0  0  0  0  0  0  0  0  0  0  0  0
    5.2441   -6.6955   21.0501 S   0  0  0  0  0  0  0  0  0  0  0  0
    5.7631   -5.8677   22.4740 C   0  0  0  0  0  0  0  0  0  0  0  0
    5.8118   -6.3371   23.7938 C   0  0  0  0  0  0  0  0  0  0  0  0
    6.3817   -5.4812   24.7274 C   0  0  0  0  0  0  0  0  0  0  0  0
    6.5412   -6.0149   26.3694 Cl  0  0  0  0  0  0  0  0  0  0  0  0
    6.8597   -4.2088   24.3329 C   0  0  0  0  0  0  0  0  0  0  0  0
    6.7313   -3.7380   23.0934 N   0  0  0  0  0  0  0  0  0  0  0  0
    6.1585   -4.5490   22.1674 C   0  0  0  0  0  0  0  0  0  0  0  0
    7.3161   -3.5648   25.0858 H   0  0  0  0  0  0  0  0  0  0  0  0
    5.4060   -7.3059   24.0943 H   0  0  0  0  0  0  0  0  0  0  0  0
    5.2500   -5.3450   19.0201 H   0  0  0  0  0  0  0  0  0  0  0  0
  1  2  2  0
  2  3  1  0
  3  4  1  0
  4  5  1  0
  5  6  1  0
  6  7  1  0
  7  8  1  0
  8  9  1  0
  9 10  1  0
 10 11  1  0
 10 12  1  0
  9 13  1  0
  9 14  1  0
  8 15  1  0
  8 16  1  0
  7 17  1  0
  7 18  1  0
  6 19  1  0
  5 20  1  0
  5 21  1  0
  4 22  1  0
 22 23  2  0
 23 24  1  0
 24 25  2  0
 25 26  1  0
 26 27  2  0
 27 28  1  0
 25 29  1  0
 24 30  1  0
 23 31  1  0
  4 32  1  0
  3 33  1  0
  2 34  1  0
 34 35  2  0
 35 36  1  0
 36 37  1  0
 37 38  2  0
 38 39  1  0
 39 40  1  0
 39 41  2  0
 41 42  1  0
 42 43  2  0
 41 44  1  0
 38 45  1  0
 35 46  1  0
 10  6  1  0
 27 22  1  0
 43 34  1  0
 43 37  1  0
M  CHG  1   6   1
M  END
>  <plip>  (1) 
-0.21428571428571427

>  <filename>  (1) 
[H][c]1[n][c]([H])[c]([C]([H])([N]([H])[C](=[O])[c]2[c]([H])[s][c]3[c]([H])[c]([Cl])[c]([H])[n][c]23)[C]([H])([H])[N+]2([H])[C]([H])([H])[C]([H])([H])[C]([H])([H])[C]2([H])[H])[c]([H])[c]1[H]

$$$$
