
     RDKit          3D

 40 42  0  0  0  0  0  0  0  0999 V2000
    9.2818    2.3490   21.0396 C   0  0  0  0  0  0  0  0  0  0  0  0
    9.4661    0.8639   21.2965 C   0  0  0  0  0  0  0  0  0  0  0  0
   10.5915    0.6351   22.3069 C   0  0  0  0  0  0  0  0  0  0  0  0
   10.7326   -0.4273   22.5151 H   0  0  0  0  0  0  0  0  0  0  0  0
   11.5383    1.0370   21.9275 H   0  0  0  0  0  0  0  0  0  0  0  0
   10.3608    1.1501   23.2458 H   0  0  0  0  0  0  0  0  0  0  0  0
    8.2200    0.2644   21.7769 N   0  0  0  0  0  0  0  0  0  0  0  0
    7.4556   -0.6795   20.9744 C   0  0  0  0  0  0  0  0  0  0  0  0
    6.6687    0.0058   19.8824 C   0  0  0  0  0  0  0  0  0  0  0  0
    5.4512    0.6535   20.1340 C   0  0  0  0  0  0  0  0  0  0  0  0
    4.8145    1.3104   19.0760 C   0  0  0  0  0  0  0  0  0  0  0  0
    5.4190    1.3083   17.8147 C   0  0  0  0  0  0  0  0  0  0  0  0
    6.5834    0.6947   17.5551 N   0  0  0  0  0  0  0  0  0  0  0  0
    7.1802    0.0691   18.5784 C   0  0  0  0  0  0  0  0  0  0  0  0
    8.1226   -0.4294   18.3430 H   0  0  0  0  0  0  0  0  0  0  0  0
    4.9521    1.8223   16.9758 H   0  0  0  0  0  0  0  0  0  0  0  0
    3.8819    1.8434   19.2219 H   0  0  0  0  0  0  0  0  0  0  0  0
    5.0272    0.6692   21.1415 H   0  0  0  0  0  0  0  0  0  0  0  0
    6.7742   -1.2270   21.6408 H   0  0  0  0  0  0  0  0  0  0  0  0
    8.1442   -1.4191   20.5392 H   0  0  0  0  0  0  0  0  0  0  0  0
    7.5696    0.8725   22.8617 C   0  0  0  0  0  0  0  0  0  0  0  0
    7.1374    2.0101   22.8802 O   0  0  0  0  0  0  0  0  0  0  0  0
    7.4249    0.0103   24.0398 C   0  0  0  0  0  0  0  0  0  0  0  0
    6.7791    0.3436   25.1934 C   0  0  0  0  0  0  0  0  0  0  0  0
    6.7447   -0.7435   26.1103 C   0  0  0  0  0  0  0  0  0  0  0  0
    7.4728   -1.8260   25.6308 C   0  0  0  0  0  0  0  0  0  0  0  0
    8.1179   -1.5830   24.0813 S   0  0  0  0  0  0  0  0  0  0  0  0
    7.6032   -3.0689   26.3600 C   0  0  0  0  0  0  0  0  0  0  0  0
    8.3276   -4.0175   26.1322 O   0  0  0  0  0  0  0  0  0  0  0  0
    6.7142   -3.1347   27.4276 N   0  0  0  0  0  0  0  0  0  0  0  0
    5.9725   -2.0868   27.9399 C   0  0  0  0  0  0  0  0  0  0  0  0
    6.0161   -0.8752   27.3432 C   0  0  0  0  0  0  0  0  0  0  0  0
    5.5273   -0.0236   27.7974 H   0  0  0  0  0  0  0  0  0  0  0  0
    5.3995   -2.2738   28.8467 H   0  0  0  0  0  0  0  0  0  0  0  0
    6.7794   -4.0399   27.8649 H   0  0  0  0  0  0  0  0  0  0  0  0
    6.3449    1.3177   25.4015 H   0  0  0  0  0  0  0  0  0  0  0  0
    9.7236    0.3496   20.3556 H   0  0  0  0  0  0  0  0  0  0  0  0
    8.4656    2.4974   20.3294 H   0  0  0  0  0  0  0  0  0  0  0  0
    9.0225    2.8698   21.9606 H   0  0  0  0  0  0  0  0  0  0  0  0
   10.2097    2.7713   20.6500 H   0  0  0  0  0  0  0  0  0  0  0  0
  1  2  1  0
  2  3  1  0
  3  4  1  0
  3  5  1  0
  3  6  1  0
  2  7  1  0
  7  8  1  0
  8  9  1  0
  9 10  2  0
 10 11  1  0
 11 12  2  0
 12 13  1  0
 13 14  2  0
 14 15  1  0
 12 16  1  0
 11 17  1  0
 10 18  1  0
  8 19  1  0
  8 20  1  0
  7 21  1  0
 21 22  2  0
 21 23  1  0
 23 24  2  0
 24 25  1  0
 25 26  2  0
 26 27  1  0
 26 28  1  0
 28 29  2  0
 28 30  1  0
 30 31  1  0
 31 32  2  0
 32 33  1  0
 31 34  1  0
 30 35  1  0
 24 36  1  0
  2 37  1  0
  1 38  1  0
  1 39  1  0
  1 40  1  0
 14  9  1  0
 27 23  1  0
 32 25  1  0
M  END
>  <plip>  (1) 
-0.0

>  <filename>  (1) 
[H][c]1[n][c]([H])[c]([C]([H])([H])[N]([C](=[O])[c]2[s][c]3[c](=[O])[n]([H])[c]([H])[c]([H])[c]3[c]2[H])[C]([H])([C]([H])([H])[H])[C]([H])([H])[H])[c]([H])[c]1[H]

$$$$
