
     RDKit          3D

 38 40  0  0  0  0  0  0  0  0999 V2000
    4.9542    1.8461   16.9231 H   0  0  0  0  0  0  0  0  0  0  0  0
    5.4131    1.3230   17.7618 C   0  0  0  0  0  0  0  0  0  0  0  0
    6.5624    0.6772   17.5139 N   0  0  0  0  0  0  0  0  0  0  0  0
    7.1449    0.0419   18.5414 C   0  0  0  0  0  0  0  0  0  0  0  0
    8.0753   -0.4670   18.2934 H   0  0  0  0  0  0  0  0  0  0  0  0
    6.6529    0.0165   19.8699 C   0  0  0  0  0  0  0  0  0  0  0  0
    7.3671   -0.6513   20.9738 C   0  0  0  0  0  0  0  0  0  0  0  0
    7.3877   -0.2346   22.2819 C   0  0  0  0  0  0  0  0  0  0  0  0
    6.9426    1.0334   22.7064 N   0  0  0  0  0  0  0  0  0  0  0  0
    6.3978    1.0836   24.0567 C   0  0  0  0  0  0  0  0  0  0  0  0
    7.0594    0.6010   24.7910 H   0  0  0  0  0  0  0  0  0  0  0  0
    5.4287    0.5662   24.0635 H   0  0  0  0  0  0  0  0  0  0  0  0
    6.2121    2.1195   24.3508 H   0  0  0  0  0  0  0  0  0  0  0  0
    7.7485    2.1603   22.1875 C   0  0  0  0  0  0  0  0  0  0  0  0
    7.5577    2.2356   21.1077 H   0  0  0  0  0  0  0  0  0  0  0  0
    7.3582    3.0849   22.6272 H   0  0  0  0  0  0  0  0  0  0  0  0
    9.2672    2.0797   22.3880 C   0  0  0  0  0  0  0  0  0  0  0  0
    9.9077    2.4563   23.5837 C   0  0  0  0  0  0  0  0  0  0  0  0
    9.3252    2.8318   24.4271 H   0  0  0  0  0  0  0  0  0  0  0  0
   11.3034    2.3771   23.7012 C   0  0  0  0  0  0  0  0  0  0  0  0
   11.7871    2.6505   24.6360 H   0  0  0  0  0  0  0  0  0  0  0  0
   12.0849    1.9993   22.6046 C   0  0  0  0  0  0  0  0  0  0  0  0
   13.1724    2.0012   22.6695 H   0  0  0  0  0  0  0  0  0  0  0  0
   11.4571    1.6627   21.4018 C   0  0  0  0  0  0  0  0  0  0  0  0
   12.0550    1.4585   20.5263 H   0  0  0  0  0  0  0  0  0  0  0  0
   10.0640    1.6344   21.3179 C   0  0  0  0  0  0  0  0  0  0  0  0
    9.5744    1.2336   20.4304 H   0  0  0  0  0  0  0  0  0  0  0  0
    8.1238   -1.2706   23.1060 C   0  0  0  0  0  0  0  0  0  0  0  0
    8.4129   -1.3269   24.2937 O   0  0  0  0  0  0  0  0  0  0  0  0
    8.4619   -2.2502   22.2208 N   0  0  0  0  0  0  0  0  0  0  0  0
    9.0411   -2.9979   22.5614 H   0  0  0  0  0  0  0  0  0  0  0  0
    8.0755   -1.9796   20.8614 C   0  0  0  0  0  0  0  0  0  0  0  0
    8.9488   -1.9402   20.1950 H   0  0  0  0  0  0  0  0  0  0  0  0
    7.3954   -2.7459   20.4665 H   0  0  0  0  0  0  0  0  0  0  0  0
    5.4306    0.6855   20.0861 C   0  0  0  0  0  0  0  0  0  0  0  0
    4.9878    0.7051   21.0823 H   0  0  0  0  0  0  0  0  0  0  0  0
    4.8051    1.3343   19.0199 C   0  0  0  0  0  0  0  0  0  0  0  0
    3.8632    1.8511   19.1542 H   0  0  0  0  0  0  0  0  0  0  0  0
  1  2  1  0
  2  3  2  0
  3  4  1  0
  4  5  1  0
  4  6  2  0
  6  7  1  0
  7  8  2  0
  8  9  1  0
  9 10  1  0
 10 11  1  0
 10 12  1  0
 10 13  1  0
  9 14  1  0
 14 15  1  0
 14 16  1  0
 14 17  1  0
 17 18  2  0
 18 19  1  0
 18 20  1  0
 20 21  1  0
 20 22  2  0
 22 23  1  0
 22 24  1  0
 24 25  1  0
 24 26  2  0
 26 27  1  0
  8 28  1  0
 28 29  2  0
 28 30  1  0
 30 31  1  0
 30 32  1  0
 32 33  1  0
 32 34  1  0
  6 35  1  0
 35 36  1  0
 35 37  2  0
 37 38  1  0
 37  2  1  0
 32  7  1  0
 26 17  1  0
M  END
>  <plip>  (1) 
-0.10344827586206896

>  <filename>  (1) 
[H][c]1[n][c]([H])[c]([C]2=[C]([N]([C]([H])([H])[H])[C]([H])([H])[c]3[c]([H])[c]([H])[c]([H])[c]([H])[c]3[H])[C](=[O])[N]([H])[C]2([H])[H])[c]([H])[c]1[H]

$$$$
