
     RDKit          3D

 25 25  0  0  0  0  0  0  0  0999 V2000
    6.2419   -5.2026   19.4391 H   0  0  0  0  0  0  0  0  0  0  0  0
    6.7544   -5.2582   20.2606 O   0  0  0  0  0  0  0  0  0  0  0  0
    6.5663   -3.9989   20.6854 C   0  0  0  0  0  0  0  0  0  0  0  0
    5.8650   -3.2705   20.0145 O   0  0  0  0  0  0  0  0  0  0  0  0
    7.2803   -3.7488   21.9531 C   0  0  0  0  0  0  0  0  0  0  0  0
    7.7866   -4.6443   22.3055 H   0  0  0  0  0  0  0  0  0  0  0  0
    7.3187   -2.5934   22.6272 C   0  0  0  0  0  0  0  0  0  0  0  0
    7.8783   -2.5576   23.5657 H   0  0  0  0  0  0  0  0  0  0  0  0
    6.7194   -1.2764   22.1823 C   0  0  2  0  0  0  0  0  0  0  0  0
    5.6998   -1.4745   21.8252 H   0  0  0  0  0  0  0  0  0  0  0  0
    7.4597   -0.7289   20.9023 C   0  0  0  0  0  0  0  0  0  0  0  0
    8.6604   -0.8529   20.7500 O   0  0  0  0  0  0  0  0  0  0  0  0
    6.6418   -0.0113   19.8820 C   0  0  0  0  0  0  0  0  0  0  0  0
    7.1693    0.0516   18.5871 C   0  0  0  0  0  0  0  0  0  0  0  0
    8.1248   -0.4212   18.3650 H   0  0  0  0  0  0  0  0  0  0  0  0
    6.5609    0.6748   17.5774 N   0  0  0  0  0  0  0  0  0  0  0  0
    5.3978    1.2896   17.8419 C   0  0  0  0  0  0  0  0  0  0  0  0
    4.9279    1.7878   16.9947 H   0  0  0  0  0  0  0  0  0  0  0  0
    4.8019    1.3074   19.1075 C   0  0  0  0  0  0  0  0  0  0  0  0
    3.8735    1.8451   19.2474 H   0  0  0  0  0  0  0  0  0  0  0  0
    5.4310    0.6399   20.1569 C   0  0  0  0  0  0  0  0  0  0  0  0
    5.0174    0.6453   21.1694 H   0  0  0  0  0  0  0  0  0  0  0  0
    6.6858   -0.2767   23.2752 N   0  0  0  0  0  0  0  0  0  0  0  0
    7.6322   -0.1039   23.6108 H   0  0  0  0  0  0  0  0  0  0  0  0
    6.1688   -0.6413   24.0733 H   0  0  0  0  0  0  0  0  0  0  0  0
  1  2  1  0
  2  3  1  0
  3  4  2  0
  3  5  1  0
  5  6  1  0
  5  7  2  3
  7  8  1  0
  7  9  1  0
  9 10  1  6
  9 11  1  0
 11 12  2  0
 11 13  1  0
 13 14  2  0
 14 15  1  0
 14 16  1  0
 16 17  2  0
 17 18  1  0
 17 19  1  0
 19 20  1  0
 19 21  2  0
 21 22  1  0
  9 23  1  0
 23 24  1  0
 23 25  1  0
 21 13  1  0
M  END
>  <plip>  (1) 
-0.14285714285714285

>  <filename>  (1) 
[H][O][C](=[O])[C]([H])=[C]([H])[C@]([H])([C](=[O])[c]1[c]([H])[n][c]([H])[c]([H])[c]1[H])[N]([H])[H]

$$$$
