
     RDKit          3D

 42 45  0  0  0  0  0  0  0  0999 V2000
    5.4648   -5.8481   20.5429 C   0  0  0  0  0  0  0  0  0  0  0  0
    4.8570   -5.0619   21.6649 C   0  0  0  0  0  0  0  0  0  0  0  0
    5.2263   -3.7799   22.0207 C   0  0  0  0  0  0  0  0  0  0  0  0
    6.0121   -2.8414   21.1598 C   0  0  0  0  0  0  0  0  0  0  0  0
    6.1812   -3.0700   19.9702 O   0  0  0  0  0  0  0  0  0  0  0  0
    6.5264   -1.7195   21.7354 N   0  0  0  0  0  0  0  0  0  0  0  0
    7.3491   -0.7825   20.9885 C   0  0  0  0  0  0  0  0  0  0  0  0
    6.5731   -0.0690   19.8877 C   0  0  0  0  0  0  0  0  0  0  0  0
    5.3753    0.6225   20.1115 C   0  0  0  0  0  0  0  0  0  0  0  0
    4.7897    1.3177   19.0495 C   0  0  0  0  0  0  0  0  0  0  0  0
    5.4263    1.3086   17.8019 C   0  0  0  0  0  0  0  0  0  0  0  0
    6.5759    0.6631   17.5678 N   0  0  0  0  0  0  0  0  0  0  0  0
    7.1166   -0.0043   18.5984 C   0  0  0  0  0  0  0  0  0  0  0  0
    8.0567   -0.5111   18.3801 H   0  0  0  0  0  0  0  0  0  0  0  0
    4.9918    1.8420   16.9557 H   0  0  0  0  0  0  0  0  0  0  0  0
    3.8680    1.8740   19.1718 H   0  0  0  0  0  0  0  0  0  0  0  0
    4.9138    0.6395   21.1027 H   0  0  0  0  0  0  0  0  0  0  0  0
    7.9897    0.2007   21.9563 C   0  0  0  0  0  0  0  0  0  0  0  0
    9.2254   -0.1505   22.7383 C   0  0  0  0  0  0  0  0  0  0  0  0
    9.3079    0.8403   21.6124 C   0  0  0  0  0  0  0  0  0  0  0  0
    9.8118    0.5236   20.6999 H   0  0  0  0  0  0  0  0  0  0  0  0
    9.4449    1.8911   21.8486 H   0  0  0  0  0  0  0  0  0  0  0  0
    9.6809   -1.1269   22.5905 H   0  0  0  0  0  0  0  0  0  0  0  0
    9.3019    0.2336   23.7516 H   0  0  0  0  0  0  0  0  0  0  0  0
    7.2665    0.8379   22.4725 H   0  0  0  0  0  0  0  0  0  0  0  0
    8.1468   -1.3538   20.4865 H   0  0  0  0  0  0  0  0  0  0  0  0
    6.3292   -1.5076   22.6969 H   0  0  0  0  0  0  0  0  0  0  0  0
    4.5244   -3.4191   23.1730 N   0  0  0  0  0  0  0  0  0  0  0  0
    3.5662   -4.3612   23.4149 C   0  0  0  0  0  0  0  0  0  0  0  0
    2.4345   -4.2772   24.2431 C   0  0  0  0  0  0  0  0  0  0  0  0
    2.1792   -2.8423   25.2037 Cl  0  0  0  0  0  0  0  0  0  0  0  0
    1.4948   -5.2951   24.1910 C   0  0  0  0  0  0  0  0  0  0  0  0
    1.6696   -6.3834   23.2938 C   0  0  0  0  0  0  0  0  0  0  0  0
    2.7761   -6.4606   22.4562 C   0  0  0  0  0  0  0  0  0  0  0  0
    3.7427   -5.4212   22.4923 C   0  0  0  0  0  0  0  0  0  0  0  0
    2.8893   -7.2869   21.7589 H   0  0  0  0  0  0  0  0  0  0  0  0
    0.9138   -7.1630   23.2717 H   0  0  0  0  0  0  0  0  0  0  0  0
    0.6215   -5.2329   24.8340 H   0  0  0  0  0  0  0  0  0  0  0  0
    4.4787   -2.5157   23.6240 H   0  0  0  0  0  0  0  0  0  0  0  0
    5.1759   -5.4096   19.5844 H   0  0  0  0  0  0  0  0  0  0  0  0
    5.1943   -6.9078   20.5636 H   0  0  0  0  0  0  0  0  0  0  0  0
    6.5519   -5.7536   20.5722 H   0  0  0  0  0  0  0  0  0  0  0  0
  1  2  1  0
  2  3  2  0
  3  4  1  0
  4  5  2  0
  4  6  1  0
  6  7  1  0
  7  8  1  0
  8  9  2  0
  9 10  1  0
 10 11  2  0
 11 12  1  0
 12 13  2  0
 13 14  1  0
 11 15  1  0
 10 16  1  0
  9 17  1  0
  7 18  1  0
 18 19  1  0
 19 20  1  0
 20 21  1  0
 20 22  1  0
 19 23  1  0
 19 24  1  0
 18 25  1  0
  7 26  1  0
  6 27  1  0
  3 28  1  0
 28 29  1  0
 29 30  2  0
 30 31  1  0
 30 32  1  0
 32 33  2  0
 33 34  1  0
 34 35  2  0
 34 36  1  0
 33 37  1  0
 32 38  1  0
 28 39  1  0
  1 40  1  0
  1 41  1  0
  1 42  1  0
 35  2  1  0
 13  8  1  0
 20 18  1  0
 35 29  1  0
M  END
>  <plip>  (1) 
-0.16129032258064516

>  <filename>  (1) 
[H][c]1[n][c]([H])[c]([C]([H])([N]([H])[C](=[O])[c]2[c]([C]([H])([H])[H])[c]3[c]([H])[c]([H])[c]([H])[c]([Cl])[c]3[n]2[H])[C]2([H])[C]([H])([H])[C]2([H])[H])[c]([H])[c]1[H]

$$$$
