
     RDKit          3D

 25 25  0  0  0  0  0  0  0  0999 V2000
    6.4724    4.1451   22.5010 H   0  0  0  0  0  0  0  0  0  0  0  0
    6.4563    3.2878   22.9556 O   0  0  0  0  0  0  0  0  0  0  0  0
    7.3019    2.5241   22.1667 N   0  0  0  0  0  0  0  0  0  0  0  0
    7.4207    1.3193   22.5778 C   0  0  0  0  0  0  0  0  0  0  0  0
    6.9152    0.9788   23.4763 H   0  0  0  0  0  0  0  0  0  0  0  0
    8.2757    0.3274   21.8188 C   0  0  1  0  0  0  0  0  0  0  0  0
    8.8825    0.9217   21.1259 H   0  0  0  0  0  0  0  0  0  0  0  0
    9.1119   -0.3729   22.7421 O   0  0  0  0  0  0  0  0  0  0  0  0
    9.8117   -0.7992   22.2258 H   0  0  0  0  0  0  0  0  0  0  0  0
    7.4492   -0.6984   20.9788 C   0  0  2  0  0  0  0  0  0  0  0  0
    8.1863   -1.3500   20.4895 H   0  0  0  0  0  0  0  0  0  0  0  0
    6.6579    0.0013   19.8957 C   0  0  0  0  0  0  0  0  0  0  0  0
    7.1651    0.0678   18.5886 C   0  0  0  0  0  0  0  0  0  0  0  0
    8.1112   -0.4229   18.3582 H   0  0  0  0  0  0  0  0  0  0  0  0
    6.5626    0.6841   17.5649 N   0  0  0  0  0  0  0  0  0  0  0  0
    5.3989    1.2954   17.8316 C   0  0  0  0  0  0  0  0  0  0  0  0
    4.9130    1.7856   16.9924 H   0  0  0  0  0  0  0  0  0  0  0  0
    4.8034    1.3069   19.0971 C   0  0  0  0  0  0  0  0  0  0  0  0
    3.8735    1.8399   19.2535 H   0  0  0  0  0  0  0  0  0  0  0  0
    5.4341    0.6400   20.1467 C   0  0  0  0  0  0  0  0  0  0  0  0
    5.0072    0.6398   21.1549 H   0  0  0  0  0  0  0  0  0  0  0  0
    6.5745   -1.6206   21.8331 C   0  0  0  0  0  0  0  0  0  0  0  0
    5.9283   -1.0161   22.4596 H   0  0  0  0  0  0  0  0  0  0  0  0
    5.9500   -2.2681   21.2051 H   0  0  0  0  0  0  0  0  0  0  0  0
    7.1771   -2.2381   22.5055 H   0  0  0  0  0  0  0  0  0  0  0  0
  1  2  1  0
  2  3  1  0
  3  4  2  3
  4  5  1  0
  4  6  1  0
  6  7  1  6
  6  8  1  0
  8  9  1  0
  6 10  1  0
 10 11  1  6
 10 12  1  0
 12 13  2  0
 13 14  1  0
 13 15  1  0
 15 16  2  0
 16 17  1  0
 16 18  1  0
 18 19  1  0
 18 20  2  0
 20 21  1  0
 10 22  1  0
 22 23  1  0
 22 24  1  0
 22 25  1  0
 20 12  1  0
M  END
>  <plip>  (1) 
-0.0

>  <filename>  (1) 
[H][O][N]=[C]([H])[C@@]([H])([O][H])[C@]([H])([c]1[c]([H])[n][c]([H])[c]([H])[c]1[H])[C]([H])([H])[H]

$$$$
