
     RDKit          3D

 46 48  0  0  0  0  0  0  0  0999 V2000
    4.8178    1.6316   18.7587 C   0  0  0  0  0  0  0  0  0  0  0  0
    5.3929    1.6019   17.4805 C   0  0  0  0  0  0  0  0  0  0  0  0
    6.5677    1.0099   17.2148 N   0  0  0  0  0  0  0  0  0  0  0  0
    7.2046    0.4123   18.2289 C   0  0  0  0  0  0  0  0  0  0  0  0
    6.7064    0.3335   19.5411 C   0  0  0  0  0  0  0  0  0  0  0  0
    7.3629   -0.5245   20.6042 C   0  0  0  0  0  0  0  0  0  0  0  0
    6.7173   -1.9218   20.6660 C   0  0  0  0  0  0  0  0  0  0  0  0
    7.2947   -2.7920   21.7386 N   0  0  0  0  0  4  0  0  0  0  0  0
    6.8311   -2.3781   23.1229 C   0  0  0  0  0  0  0  0  0  0  0  0
    7.6898   -3.0983   24.1498 C   0  0  0  0  0  0  0  0  0  0  0  0
    7.4890   -4.6298   24.0793 C   0  0  0  0  0  0  0  0  0  0  0  0
    8.2704   -5.3733   25.1982 C   0  0  0  0  0  0  0  0  0  0  0  0
    9.7279   -4.9279   25.4188 C   0  0  0  0  0  0  0  0  0  0  0  0
   10.0871   -5.4261   26.8188 C   0  0  0  0  0  0  0  0  0  0  0  0
    8.7726   -5.4372   27.6017 N   0  0  0  0  0  4  0  0  0  0  0  0
    7.6383   -5.2211   26.6017 C   0  0  0  0  0  0  0  0  0  0  0  0
    6.8302   -5.9391   26.7692 H   0  0  0  0  0  0  0  0  0  0  0  0
    7.2071   -4.2236   26.7482 H   0  0  0  0  0  0  0  0  0  0  0  0
    8.7694   -4.6891   28.3392 H   0  0  0  0  0  0  0  0  0  0  0  0
    8.6663   -6.3653   28.0842 H   0  0  0  0  0  0  0  0  0  0  0  0
   10.8202   -4.7996   27.3310 H   0  0  0  0  0  0  0  0  0  0  0  0
   10.4904   -6.4401   26.7564 H   0  0  0  0  0  0  0  0  0  0  0  0
   10.4108   -5.3214   24.6567 H   0  0  0  0  0  0  0  0  0  0  0  0
    9.8092   -3.8342   25.3973 H   0  0  0  0  0  0  0  0  0  0  0  0
    8.2659   -6.4532   24.9720 H   0  0  0  0  0  0  0  0  0  0  0  0
    7.8287   -5.0729   22.6301 C   0  0  0  0  0  0  0  0  0  0  0  0
    7.0411   -4.2774   21.5735 C   0  0  0  0  0  0  0  0  0  0  0  0
    5.9597   -4.4612   21.6778 H   0  0  0  0  0  0  0  0  0  0  0  0
    7.3182   -4.5823   20.5565 H   0  0  0  0  0  0  0  0  0  0  0  0
    8.8989   -4.9010   22.4483 H   0  0  0  0  0  0  0  0  0  0  0  0
    7.6492   -6.1464   22.4872 H   0  0  0  0  0  0  0  0  0  0  0  0
    6.4153   -4.8506   24.2374 H   0  0  0  0  0  0  0  0  0  0  0  0
    7.4955   -2.7019   25.1515 H   0  0  0  0  0  0  0  0  0  0  0  0
    8.7358   -2.8576   23.8950 H   0  0  0  0  0  0  0  0  0  0  0  0
    5.7714   -2.6553   23.2320 H   0  0  0  0  0  0  0  0  0  0  0  0
    6.8968   -1.2912   23.2323 H   0  0  0  0  0  0  0  0  0  0  0  0
    8.3327   -2.6624   21.7052 H   0  0  0  0  0  0  0  0  0  0  0  0
    5.6368   -1.8059   20.8345 H   0  0  0  0  0  0  0  0  0  0  0  0
    6.8337   -2.4055   19.6883 H   0  0  0  0  0  0  0  0  0  0  0  0
    7.2633   -0.0316   21.5801 H   0  0  0  0  0  0  0  0  0  0  0  0
    8.4397   -0.6351   20.4218 H   0  0  0  0  0  0  0  0  0  0  0  0
    5.4924    0.9916   19.8016 C   0  0  0  0  0  0  0  0  0  0  0  0
    5.0844    1.0013   20.8136 H   0  0  0  0  0  0  0  0  0  0  0  0
    8.1697   -0.0357   17.9831 H   0  0  0  0  0  0  0  0  0  0  0  0
    4.8937    2.0693   16.6375 H   0  0  0  0  0  0  0  0  0  0  0  0
    3.8764    2.1471   18.9160 H   0  0  0  0  0  0  0  0  0  0  0  0
  1  2  2  0
  2  3  1  0
  3  4  2  0
  4  5  1  0
  5  6  1  0
  6  7  1  0
  7  8  1  0
  8  9  1  0
  9 10  1  0
 10 11  1  0
 11 12  1  0
 12 13  1  0
 13 14  1  0
 14 15  1  0
 15 16  1  0
 16 17  1  0
 16 18  1  0
 15 19  1  0
 15 20  1  0
 14 21  1  0
 14 22  1  0
 13 23  1  0
 13 24  1  0
 12 25  1  0
 11 26  1  0
 26 27  1  0
 27 28  1  0
 27 29  1  0
 26 30  1  0
 26 31  1  0
 11 32  1  0
 10 33  1  0
 10 34  1  0
  9 35  1  0
  9 36  1  0
  8 37  1  0
  7 38  1  0
  7 39  1  0
  6 40  1  0
  6 41  1  0
  5 42  2  0
 42 43  1  0
  4 44  1  0
  2 45  1  0
  1 46  1  0
 42  1  1  0
 27  8  1  0
 16 12  1  0
M  CHG  2   8   1  15   1
M  END
>  <plip>  (1) 
-0.13793103448275862

>  <filename>  (1) 
[H][c]1[n][c]([H])[c]([C]([H])([H])[C]([H])([H])[N+]2([H])[C]([H])([H])[C]([H])([H])[C]([H])([C]3([H])[C]([H])([H])[C]([H])([H])[N+]([H])([H])[C]3([H])[H])[C]([H])([H])[C]2([H])[H])[c]([H])[c]1[H]

$$$$
