
     RDKit          3D

 23 25  0  0  0  0  0  0  0  0999 V2000
    4.9263    1.7846   16.9964 H   0  0  0  0  0  0  0  0  0  0  0  0
    5.4052    1.2945   17.8394 C   0  0  0  0  0  0  0  0  0  0  0  0
    6.5713    0.6785   17.5837 N   0  0  0  0  0  0  0  0  0  0  0  0
    7.1657    0.0481   18.5996 C   0  0  0  0  0  0  0  0  0  0  0  0
    8.1160   -0.4366   18.3776 H   0  0  0  0  0  0  0  0  0  0  0  0
    6.6403    0.0154   19.9036 C   0  0  0  0  0  0  0  0  0  0  0  0
    7.3553   -0.6676   20.9881 C   0  0  0  0  0  0  0  0  0  0  0  0
    7.8490   -1.9168   20.7557 N   0  0  0  0  0  0  0  0  0  0  0  0
    8.3659   -2.4990   21.7586 N   0  0  0  0  0  0  0  0  0  0  0  0
    8.3038   -1.5210   23.1473 S   0  0  0  0  0  0  0  0  0  0  0  0
    7.5644   -0.2405   22.2801 C   0  0  0  0  0  0  0  0  0  0  0  0
    7.2879    1.0204   22.7883 N   0  0  0  0  0  0  0  0  0  0  0  0
    7.0326    1.1816   24.1050 N   0  0  0  0  0  0  0  0  0  0  0  0
    6.9020    2.4817   24.2677 C   0  0  0  0  0  0  0  0  0  0  0  0
    6.7018    2.8881   25.2518 H   0  0  0  0  0  0  0  0  0  0  0  0
    7.0870    3.1942   23.0545 C   0  0  0  0  0  0  0  0  0  0  0  0
    7.0383    4.2664   22.9111 H   0  0  0  0  0  0  0  0  0  0  0  0
    7.3468    2.2252   22.1310 C   0  0  0  0  0  0  0  0  0  0  0  0
    7.5527    2.2633   21.0719 H   0  0  0  0  0  0  0  0  0  0  0  0
    5.4175    0.6500   20.1557 C   0  0  0  0  0  0  0  0  0  0  0  0
    5.0006    0.6430   21.1667 H   0  0  0  0  0  0  0  0  0  0  0  0
    4.7976    1.3089   19.0990 C   0  0  0  0  0  0  0  0  0  0  0  0
    3.8707    1.8433   19.2511 H   0  0  0  0  0  0  0  0  0  0  0  0
  1  2  1  0
  2  3  2  0
  3  4  1  0
  4  5  1  0
  4  6  2  0
  6  7  1  0
  7  8  1  0
  8  9  2  0
  9 10  1  0
 10 11  1  0
 11 12  1  0
 12 13  1  0
 13 14  2  0
 14 15  1  0
 14 16  1  0
 16 17  1  0
 16 18  2  0
 18 19  1  0
  6 20  1  0
 20 21  1  0
 20 22  2  0
 22 23  1  0
 22  2  1  0
 11  7  2  0
 18 12  1  0
M  END
>  <plip>  (1) 
-0.0

>  <filename>  (1) 
[H][c]1[n][c]([H])[c](-[c]2[n][n][s][c]2-[n]2[n][c]([H])[c]([H])[c]2[H])[c]([H])[c]1[H]

$$$$
