
     RDKit          3D

 38 39  0  0  0  0  0  0  0  0999 V2000
   12.2326    2.6555   23.5050 N   0  0  0  0  0  0  0  0  0  0  0  0
   10.9492    2.2428   23.3324 C   0  0  0  0  0  0  0  0  0  0  0  0
   10.1787    1.9940   24.2276 O   0  0  0  0  0  0  0  0  0  0  0  0
   10.7025    2.1362   21.9819 N   0  0  0  0  0  0  0  0  0  0  0  0
    9.6656    1.3717   21.4807 C   0  0  0  0  0  0  0  0  0  0  0  0
    9.9364    0.6595   20.5425 O   0  0  0  0  0  0  0  0  0  0  0  0
    8.2363    1.4658   22.0443 C   0  0  0  0  0  0  0  0  0  0  0  0
    7.5906    0.1117   22.2960 N   0  0  0  0  0  4  0  0  0  0  0  0
    8.3698   -0.6701   23.3397 C   0  0  0  0  0  0  0  0  0  0  0  0
    7.5729   -1.9035   23.7284 C   0  0  0  0  0  0  0  0  0  0  0  0
    7.3234   -2.7954   22.5043 C   0  0  0  0  0  0  0  0  0  0  0  0
    6.6229   -1.9993   21.3967 C   0  0  0  0  0  0  0  0  0  0  0  0
    7.3737   -0.7314   21.0025 C   0  0  1  0  0  0  0  0  0  0  0  0
    6.6507    0.0597   19.9400 C   0  0  0  0  0  0  0  0  0  0  0  0
    5.4262    0.7110   20.1530 C   0  0  0  0  0  0  0  0  0  0  0  0
    4.8079    1.3488   19.0758 C   0  0  0  0  0  0  0  0  0  0  0  0
    5.4351    1.3255   17.8251 C   0  0  0  0  0  0  0  0  0  0  0  0
    6.6133    0.7251   17.6050 N   0  0  0  0  0  0  0  0  0  0  0  0
    7.1991    0.1264   18.6507 C   0  0  0  0  0  0  0  0  0  0  0  0
    8.1675   -0.3377   18.4503 H   0  0  0  0  0  0  0  0  0  0  0  0
    4.9682    1.8029   16.9642 H   0  0  0  0  0  0  0  0  0  0  0  0
    3.8646    1.8711   19.1911 H   0  0  0  0  0  0  0  0  0  0  0  0
    4.9818    0.7341   21.1512 H   0  0  0  0  0  0  0  0  0  0  0  0
    8.3757   -0.9589   20.6334 H   0  0  0  0  0  0  0  0  0  0  0  0
    6.4629   -2.6022   20.5010 H   0  0  0  0  0  0  0  0  0  0  0  0
    5.6366   -1.6761   21.7496 H   0  0  0  0  0  0  0  0  0  0  0  0
    6.7134   -3.6663   22.7753 H   0  0  0  0  0  0  0  0  0  0  0  0
    8.2852   -3.1859   22.1379 H   0  0  0  0  0  0  0  0  0  0  0  0
    8.0999   -2.4526   24.5135 H   0  0  0  0  0  0  0  0  0  0  0  0
    6.6138   -1.5720   24.1494 H   0  0  0  0  0  0  0  0  0  0  0  0
    9.3302   -0.9717   22.8999 H   0  0  0  0  0  0  0  0  0  0  0  0
    8.6012   -0.0135   24.1848 H   0  0  0  0  0  0  0  0  0  0  0  0
    6.6165    0.2443   22.6733 H   0  0  0  0  0  0  0  0  0  0  0  0
    7.6346    1.9887   21.2951 H   0  0  0  0  0  0  0  0  0  0  0  0
    8.2772    2.0578   22.9552 H   0  0  0  0  0  0  0  0  0  0  0  0
   11.5367    1.8550   21.4837 H   0  0  0  0  0  0  0  0  0  0  0  0
   12.3320    3.0011   24.4441 H   0  0  0  0  0  0  0  0  0  0  0  0
   12.4784    3.3014   22.7730 H   0  0  0  0  0  0  0  0  0  0  0  0
  1  2  1  0
  2  3  2  0
  2  4  1  0
  4  5  1  0
  5  6  2  0
  5  7  1  0
  7  8  1  0
  8  9  1  0
  9 10  1  0
 10 11  1  0
 11 12  1  0
 12 13  1  0
 13 14  1  0
 14 15  2  0
 15 16  1  0
 16 17  2  0
 17 18  1  0
 18 19  2  0
 19 20  1  0
 17 21  1  0
 16 22  1  0
 15 23  1  0
 13 24  1  6
 12 25  1  0
 12 26  1  0
 11 27  1  0
 11 28  1  0
 10 29  1  0
 10 30  1  0
  9 31  1  0
  9 32  1  0
  8 33  1  0
  7 34  1  0
  7 35  1  0
  4 36  1  0
  1 37  1  0
  1 38  1  0
 13  8  1  0
 19 14  1  0
M  CHG  1   8   1
M  END
>  <plip>  (1) 
-0.10714285714285714

>  <filename>  (1) 
[H][c]1[n][c]([H])[c]([C@]2([H])[C]([H])([H])[C]([H])([H])[C]([H])([H])[C]([H])([H])[N+]2([H])[C]([H])([H])[C](=[O])[N]([H])[C](=[O])[N]([H])[H])[c]([H])[c]1[H]

$$$$
