
     RDKit          3D

 40 43  0  0  0  0  0  0  0  0999 V2000
    5.0132    1.8361   16.9264 H   0  0  0  0  0  0  0  0  0  0  0  0
    5.4134    1.2890   17.7815 C   0  0  0  0  0  0  0  0  0  0  0  0
    6.5483    0.6105   17.5762 N   0  0  0  0  0  0  0  0  0  0  0  0
    7.0812   -0.0364   18.6221 C   0  0  0  0  0  0  0  0  0  0  0  0
    7.9866   -0.6002   18.4137 H   0  0  0  0  0  0  0  0  0  0  0  0
    6.5407   -0.0296   19.9118 C   0  0  0  0  0  0  0  0  0  0  0  0
    7.3640   -0.6490   21.0430 C   0  0  0  0  0  0  0  0  0  0  0  0
    8.3806    0.3416   21.6484 C   0  0  0  0  0  0  0  0  0  0  0  0
    7.9855    1.1928   22.6939 C   0  0  0  0  0  0  0  0  0  0  0  0
    7.0110    1.0529   23.1560 H   0  0  0  0  0  0  0  0  0  0  0  0
    8.8300    2.1882   23.1707 C   0  0  0  0  0  0  0  0  0  0  0  0
    8.4844    2.8138   23.9887 H   0  0  0  0  0  0  0  0  0  0  0  0
   10.1134    2.3870   22.6259 C   0  0  0  0  0  0  0  0  0  0  0  0
   11.0061    3.4819   23.1300 C   0  0  0  0  0  0  0  0  0  0  0  0
   10.4853    4.7234   23.5586 C   0  0  0  0  0  0  0  0  0  0  0  0
    9.4218    4.9241   23.4584 H   0  0  0  0  0  0  0  0  0  0  0  0
   11.3227    5.7370   24.0360 C   0  0  0  0  0  0  0  0  0  0  0  0
   10.8923    6.6747   24.3853 H   0  0  0  0  0  0  0  0  0  0  0  0
   12.7076    5.5507   24.0542 C   0  0  0  0  0  0  0  0  0  0  0  0
   13.3600    6.3481   24.4009 H   0  0  0  0  0  0  0  0  0  0  0  0
   13.2467    4.3416   23.6079 C   0  0  0  0  0  0  0  0  0  0  0  0
   14.3262    4.1985   23.5708 H   0  0  0  0  0  0  0  0  0  0  0  0
   12.4041    3.3119   23.1845 C   0  0  0  0  0  0  0  0  0  0  0  0
   12.8363    2.3537   22.9072 H   0  0  0  0  0  0  0  0  0  0  0  0
   10.5246    1.4974   21.6108 C   0  0  0  0  0  0  0  0  0  0  0  0
   11.5087    1.6179   21.1643 H   0  0  0  0  0  0  0  0  0  0  0  0
    9.6916    0.4797   21.1484 C   0  0  0  0  0  0  0  0  0  0  0  0
   10.0777   -0.2391   20.4275 H   0  0  0  0  0  0  0  0  0  0  0  0
    8.0229   -1.8042   20.5340 O   0  0  0  0  0  0  0  0  0  0  0  0
    7.7721   -2.8832   21.4228 C   0  0  0  0  0  0  0  0  0  0  0  0
    8.5259   -2.9106   22.2198 H   0  0  0  0  0  0  0  0  0  0  0  0
    7.7877   -3.8224   20.8602 H   0  0  0  0  0  0  0  0  0  0  0  0
    6.4048   -2.5246   21.9592 C   0  0  0  0  0  0  0  0  0  0  0  0
    5.6156   -2.8035   21.2517 H   0  0  0  0  0  0  0  0  0  0  0  0
    6.1817   -2.9434   22.9456 H   0  0  0  0  0  0  0  0  0  0  0  0
    6.4933   -1.1143   22.0649 O   0  0  0  0  0  0  0  0  0  0  0  0
    5.3209    0.6416   20.0968 C   0  0  0  0  0  0  0  0  0  0  0  0
    4.8177    0.6378   21.0662 H   0  0  0  0  0  0  0  0  0  0  0  0
    4.7544    1.3150   19.0154 C   0  0  0  0  0  0  0  0  0  0  0  0
    3.8301    1.8765   19.1086 H   0  0  0  0  0  0  0  0  0  0  0  0
  1  2  1  0
  2  3  2  0
  3  4  1  0
  4  5  1  0
  4  6  2  0
  6  7  1  0
  7  8  1  0
  8  9  2  0
  9 10  1  0
  9 11  1  0
 11 12  1  0
 11 13  2  0
 13 14  1  0
 14 15  2  0
 15 16  1  0
 15 17  1  0
 17 18  1  0
 17 19  2  0
 19 20  1  0
 19 21  1  0
 21 22  1  0
 21 23  2  0
 23 24  1  0
 13 25  1  0
 25 26  1  0
 25 27  2  0
 27 28  1  0
  7 29  1  0
 29 30  1  0
 30 31  1  0
 30 32  1  0
 30 33  1  0
 33 34  1  0
 33 35  1  0
 33 36  1  0
  6 37  1  0
 37 38  1  0
 37 39  2  0
 39 40  1  0
 39  2  1  0
 36  7  1  0
 27  8  1  0
 23 14  1  0
M  END
>  <plip>  (1) 
-0.06896551724137931

>  <filename>  (1) 
[H][c]1[n][c]([H])[c]([C]2([c]3[c]([H])[c]([H])[c](-[c]4[c]([H])[c]([H])[c]([H])[c]([H])[c]4[H])[c]([H])[c]3[H])[O][C]([H])([H])[C]([H])([H])[O]2)[c]([H])[c]1[H]

$$$$
