
     RDKit          3D

 27 28  0  0  0  0  0  0  0  0999 V2000
    7.6176   -1.7886   20.6871 H   0  0  0  0  0  0  0  0  0  0  0  0
    7.3728   -0.7542   20.9224 C   0  0  0  0  0  0  0  0  0  0  0  0
    7.7654   -0.2364   22.1420 C   0  0  0  0  0  0  0  0  0  0  0  0
    7.4655    1.6300   22.5017 Br  0  0  0  0  0  0  0  0  0  0  0  0
    8.4578   -1.0965   23.1185 C   0  0  0  0  0  0  0  0  0  0  0  0
    8.9090   -2.3009   22.7164 N   0  0  0  0  0  0  0  0  0  0  0  0
    9.5514   -3.0774   23.5966 C   0  0  0  0  0  0  0  0  0  0  0  0
    9.9267   -4.0397   23.2749 H   0  0  0  0  0  0  0  0  0  0  0  0
    9.7590   -2.6970   24.9180 C   0  0  0  0  0  0  0  0  0  0  0  0
   10.2815   -3.3686   25.5846 H   0  0  0  0  0  0  0  0  0  0  0  0
    9.2960   -1.4655   25.3599 C   0  0  0  0  0  0  0  0  0  0  0  0
    9.5192   -1.0040   26.7667 C   0  0  0  0  0  0  0  0  0  0  0  0
    9.5944   -1.8599   27.4409 H   0  0  0  0  0  0  0  0  0  0  0  0
   10.4480   -0.4316   26.8221 H   0  0  0  0  0  0  0  0  0  0  0  0
    8.6955   -0.3675   27.1003 H   0  0  0  0  0  0  0  0  0  0  0  0
    8.6399   -0.6622   24.4371 C   0  0  0  0  0  0  0  0  0  0  0  0
    8.2608    0.3045   24.7380 H   0  0  0  0  0  0  0  0  0  0  0  0
    6.6641    0.0092   19.8923 C   0  0  0  0  0  0  0  0  0  0  0  0
    7.1773    0.0538   18.5848 C   0  0  0  0  0  0  0  0  0  0  0  0
    8.1231   -0.4429   18.3941 H   0  0  0  0  0  0  0  0  0  0  0  0
    6.5669    0.6795   17.5633 N   0  0  0  0  0  0  0  0  0  0  0  0
    5.4017    1.2990   17.8273 C   0  0  0  0  0  0  0  0  0  0  0  0
    4.8861    1.7966   17.0133 H   0  0  0  0  0  0  0  0  0  0  0  0
    4.8240    1.3133   19.1060 C   0  0  0  0  0  0  0  0  0  0  0  0
    3.8834    1.8322   19.2612 H   0  0  0  0  0  0  0  0  0  0  0  0
    5.4571    0.6598   20.1665 C   0  0  0  0  0  0  0  0  0  0  0  0
    5.0142    0.6347   21.1664 H   0  0  0  0  0  0  0  0  0  0  0  0
  1  2  1  0
  2  3  2  3
  3  4  1  0
  3  5  1  0
  5  6  2  0
  6  7  1  0
  7  8  1  0
  7  9  2  0
  9 10  1  0
  9 11  1  0
 11 12  1  0
 12 13  1  0
 12 14  1  0
 12 15  1  0
 11 16  2  0
 16 17  1  0
  2 18  1  0
 18 19  2  0
 19 20  1  0
 19 21  1  0
 21 22  2  0
 22 23  1  0
 22 24  1  0
 24 25  1  0
 24 26  2  0
 26 27  1  0
 16  5  1  0
 26 18  1  0
M  END
>  <plip>  (1) 
-0.06896551724137931

>  <filename>  (1) 
[H][C](=[C]([Br])[c]1[n][c]([H])[c]([H])[c]([C]([H])([H])[H])[c]1[H])[c]1[c]([H])[n][c]([H])[c]([H])[c]1[H]

$$$$
