
     RDKit          3D

 23 24  0  0  0  0  0  0  0  0999 V2000
    6.9641    1.5860   26.9692 H   0  0  0  0  0  0  0  0  0  0  0  0
    7.2680    0.6852   26.4512 C   0  0  0  0  0  0  0  0  0  0  0  0
    7.7424   -0.3980   26.9639 N   0  0  0  0  0  0  0  0  0  0  0  0
    7.9645   -1.2170   25.8843 C   0  0  0  0  0  0  0  0  0  0  0  0
    8.3727   -2.2099   26.0101 H   0  0  0  0  0  0  0  0  0  0  0  0
    7.6032   -0.5828   24.7412 C   0  0  0  0  0  0  0  0  0  0  0  0
    7.6855   -1.1547   23.3656 C   0  0  0  0  0  0  0  0  0  0  0  0
    8.0903   -2.2845   23.2358 O   0  0  0  0  0  0  0  0  0  0  0  0
    7.2701   -0.3680   22.2989 N   0  0  0  0  0  0  0  0  0  0  0  0
    6.8766    0.5420   22.4726 H   0  0  0  0  0  0  0  0  0  0  0  0
    7.4487   -0.7448   20.9711 C   0  0  0  0  0  0  0  0  0  0  0  0
    8.1911   -1.6337   20.6250 O   0  0  0  0  0  0  0  0  0  0  0  0
    6.6621    0.0605   19.9847 C   0  0  0  0  0  0  0  0  0  0  0  0
    7.1729    0.0666   18.6779 C   0  0  0  0  0  0  0  0  0  0  0  0
    8.1019   -0.4455   18.4389 H   0  0  0  0  0  0  0  0  0  0  0  0
    6.5729    0.6554   17.6438 N   0  0  0  0  0  0  0  0  0  0  0  0
    5.4120    1.2801   17.8697 C   0  0  0  0  0  0  0  0  0  0  0  0
    4.9658    1.7682   17.0045 H   0  0  0  0  0  0  0  0  0  0  0  0
    4.8017    1.3137   19.1262 C   0  0  0  0  0  0  0  0  0  0  0  0
    3.8645    1.8401   19.2400 H   0  0  0  0  0  0  0  0  0  0  0  0
    5.4242    0.6893   20.2074 C   0  0  0  0  0  0  0  0  0  0  0  0
    4.9198    0.6611   21.1786 H   0  0  0  0  0  0  0  0  0  0  0  0
    7.1451    0.6683   25.1067 O   0  0  0  0  0  0  0  0  0  0  0  0
  1  2  1  0
  2  3  2  0
  3  4  1  0
  4  5  1  0
  4  6  2  0
  6  7  1  0
  7  8  2  0
  7  9  1  0
  9 10  1  0
  9 11  1  0
 11 12  2  0
 11 13  1  0
 13 14  2  0
 14 15  1  0
 14 16  1  0
 16 17  2  0
 17 18  1  0
 17 19  1  0
 19 20  1  0
 19 21  2  0
 21 22  1  0
  6 23  1  0
 23  2  1  0
 21 13  1  0
M  END
>  <plip>  (1) 
-0.0

>  <filename>  (1) 
[H][c]1[n][c]([H])[c]([C](=[O])[N]([H])[C](=[O])[c]2[c]([H])[n][c]([H])[c]([H])[c]2[H])[o]1

$$$$
