
     RDKit          3D

 26 27  0  0  0  0  0  0  0  0999 V2000
    7.0568   -0.6487   21.9859 H   0  0  0  0  0  0  0  0  0  0  0  0
    7.4517   -0.7172   20.9554 C   0  0  0  0  0  0  0  0  0  0  0  0
    8.4222   -1.4723   20.6465 N   0  0  0  0  0  0  0  0  0  0  0  0
    9.1145   -2.0575   21.7004 C   0  0  0  0  0  0  0  0  0  0  0  0
   10.3751   -1.6387   21.8056 N   0  0  0  0  0  0  0  0  0  0  0  0
   11.1387   -2.2694   22.6998 C   0  0  0  0  0  0  0  0  0  0  0  0
   12.1874   -1.9921   22.7141 H   0  0  0  0  0  0  0  0  0  0  0  0
   10.6691   -3.2487   23.5734 C   0  0  0  0  0  0  0  0  0  0  0  0
   11.3510   -3.7084   24.2758 H   0  0  0  0  0  0  0  0  0  0  0  0
    9.3293   -3.6432   23.4818 C   0  0  0  0  0  0  0  0  0  0  0  0
    8.9206   -4.4089   24.1428 H   0  0  0  0  0  0  0  0  0  0  0  0
    8.5041   -3.0662   22.5195 C   0  0  0  0  0  0  0  0  0  0  0  0
    7.0720   -3.5308   22.3329 C   0  0  0  0  0  0  0  0  0  0  0  0
    6.9374   -4.5450   22.7153 H   0  0  0  0  0  0  0  0  0  0  0  0
    6.3310   -2.9080   22.8509 H   0  0  0  0  0  0  0  0  0  0  0  0
    6.7914   -3.5468   21.2756 H   0  0  0  0  0  0  0  0  0  0  0  0
    6.7145    0.0312   19.9416 C   0  0  0  0  0  0  0  0  0  0  0  0
    7.2213    0.0455   18.6340 C   0  0  0  0  0  0  0  0  0  0  0  0
    8.1563   -0.4683   18.4331 H   0  0  0  0  0  0  0  0  0  0  0  0
    6.6132    0.6489   17.6159 N   0  0  0  0  0  0  0  0  0  0  0  0
    5.4514    1.2699   17.8655 C   0  0  0  0  0  0  0  0  0  0  0  0
    4.9854    1.7633   17.0111 H   0  0  0  0  0  0  0  0  0  0  0  0
    4.8522    1.2954   19.1273 C   0  0  0  0  0  0  0  0  0  0  0  0
    3.9037    1.8032   19.2506 H   0  0  0  0  0  0  0  0  0  0  0  0
    5.4935    0.6668   20.1934 C   0  0  0  0  0  0  0  0  0  0  0  0
    5.0489    0.6649   21.1887 H   0  0  0  0  0  0  0  0  0  0  0  0
  1  2  1  0
  2  3  2  3
  3  4  1  0
  4  5  2  0
  5  6  1  0
  6  7  1  0
  6  8  2  0
  8  9  1  0
  8 10  1  0
 10 11  1  0
 10 12  2  0
 12 13  1  0
 13 14  1  0
 13 15  1  0
 13 16  1  0
  2 17  1  0
 17 18  2  0
 18 19  1  0
 18 20  1  0
 20 21  2  0
 21 22  1  0
 21 23  1  0
 23 24  1  0
 23 25  2  0
 25 26  1  0
 12  4  1  0
 25 17  1  0
M  END
>  <plip>  (1) 
-0.10344827586206896

>  <filename>  (1) 
[H][C](=[N][c]1[n][c]([H])[c]([H])[c]([H])[c]1[C]([H])([H])[H])[c]1[c]([H])[n][c]([H])[c]([H])[c]1[H]

$$$$
