
     RDKit          3D

 31 33  0  0  0  0  0  0  0  0999 V2000
    5.7284   -2.0874   21.6075 O   0  0  0  0  0  0  0  0  0  0  0  0
    6.7881   -1.5309   21.8346 C   0  0  0  0  0  0  0  0  0  0  0  0
    7.3766   -0.6640   20.9291 N   0  0  0  0  0  0  0  0  0  0  0  0
    6.6963    0.0048   19.8750 C   0  0  0  0  0  0  0  0  0  0  0  0
    5.4689    0.6314   20.1227 C   0  0  0  0  0  0  0  0  0  0  0  0
    4.8338    1.3044   19.0737 C   0  0  0  0  0  0  0  0  0  0  0  0
    5.4276    1.3020   17.8071 C   0  0  0  0  0  0  0  0  0  0  0  0
    6.5969    0.6968   17.5475 N   0  0  0  0  0  0  0  0  0  0  0  0
    7.2159    0.0749   18.5611 C   0  0  0  0  0  0  0  0  0  0  0  0
    8.1622   -0.4090   18.3234 H   0  0  0  0  0  0  0  0  0  0  0  0
    4.9450    1.7994   16.9689 H   0  0  0  0  0  0  0  0  0  0  0  0
    3.8938    1.8192   19.2273 H   0  0  0  0  0  0  0  0  0  0  0  0
    5.0407    0.5809   21.1246 H   0  0  0  0  0  0  0  0  0  0  0  0
    8.3742   -0.5476   21.0186 H   0  0  0  0  0  0  0  0  0  0  0  0
    7.5957   -1.8311   23.0888 C   0  0  0  0  0  0  0  0  0  0  0  0
    7.5309   -3.1246   23.5845 C   0  0  0  0  0  0  0  0  0  0  0  0
    8.3024   -3.5472   24.6903 C   0  0  0  0  0  0  0  0  0  0  0  0
    9.1251   -2.6484   25.3300 C   0  0  0  0  0  0  0  0  0  0  0  0
    9.1952   -1.2964   24.9163 C   0  0  0  0  0  0  0  0  0  0  0  0
   10.0288   -0.4667   25.6231 N   0  0  0  0  0  0  0  0  0  0  0  0
   10.0454    0.7815   25.2704 C   0  0  0  0  0  0  0  0  0  0  0  0
   10.8626    1.5318   26.0020 O   0  0  0  0  0  0  0  0  0  0  0  0
   11.1503    0.8366   26.6293 H   0  0  0  0  0  0  0  0  0  0  0  0
    9.2721    1.3711   24.2294 C   0  0  0  0  0  0  0  0  0  0  0  0
    8.4436    0.5505   23.5120 C   0  0  0  0  0  0  0  0  0  0  0  0
    8.3945   -0.8581   23.8045 C   0  0  0  0  0  0  0  0  0  0  0  0
    7.8002    0.9575   22.7309 H   0  0  0  0  0  0  0  0  0  0  0  0
    9.3758    2.4376   24.0721 H   0  0  0  0  0  0  0  0  0  0  0  0
    9.7290   -2.9120   26.1865 H   0  0  0  0  0  0  0  0  0  0  0  0
    8.2495   -4.5794   25.0371 H   0  0  0  0  0  0  0  0  0  0  0  0
    6.8672   -3.8442   23.1147 H   0  0  0  0  0  0  0  0  0  0  0  0
  1  2  2  0
  2  3  1  0
  3  4  1  0
  4  5  2  0
  5  6  1  0
  6  7  2  0
  7  8  1  0
  8  9  2  0
  9 10  1  0
  7 11  1  0
  6 12  1  0
  5 13  1  0
  3 14  1  0
  2 15  1  0
 15 16  2  0
 16 17  1  0
 17 18  2  0
 18 19  1  0
 19 20  2  0
 20 21  1  0
 21 22  1  0
 22 23  1  0
 21 24  2  0
 24 25  1  0
 25 26  2  0
 25 27  1  0
 24 28  1  0
 18 29  1  0
 17 30  1  0
 16 31  1  0
  9  4  1  0
 26 15  1  0
 26 19  1  0
M  END
>  <plip>  (1) 
-0.07142857142857142

>  <filename>  (1) 
[H][O][c]1[n][c]2[c]([H])[c]([H])[c]([H])[c]([C](=[O])[N]([H])[c]3[c]([H])[n][c]([H])[c]([H])[c]3[H])[c]2[c]([H])[c]1[H]

$$$$
