
     RDKit          3D

 52 55  0  0  0  0  0  0  0  0999 V2000
   10.6091    5.7686   25.7150 C   0  0  0  0  0  0  0  0  0  0  0  0
   10.3653    4.6329   24.8562 N   0  0  0  0  0  0  0  0  0  0  0  0
   11.3115    4.0217   24.0574 C   0  0  0  0  0  0  0  0  0  0  0  0
   10.7400    3.0127   23.3437 C   0  0  0  0  0  0  0  0  0  0  0  0
    9.3490    2.9900   23.7005 C   0  0  0  0  0  0  0  0  0  0  0  0
    8.2421    2.2187   23.2847 C   0  0  0  0  0  0  0  0  0  0  0  0
    8.4402    1.2651   22.1350 C   0  0  0  0  0  0  0  0  0  0  0  0
    9.2898    1.4071   21.2685 O   0  0  0  0  0  0  0  0  0  0  0  0
    7.6210    0.1711   22.1499 N   0  0  0  0  0  0  0  0  0  0  0  0
    7.4255   -0.6326   20.9594 C   0  0  0  0  0  0  0  0  0  0  0  0
    6.7338   -1.9557   21.3005 C   0  0  0  0  0  0  0  0  0  0  0  0
    7.5348   -2.9104   22.1943 C   0  0  0  0  0  0  0  0  0  0  0  0
    6.7508   -4.1828   22.5235 C   0  0  0  0  0  0  0  0  0  0  0  0
    7.4829   -5.1778   23.4288 C   0  0  0  0  0  0  0  0  0  0  0  0
    6.3270   -5.9653   24.0339 C   0  0  0  0  0  0  0  0  0  0  0  0
    5.2588   -5.0471   24.1752 O   0  0  0  0  0  0  0  0  0  0  0  0
    5.4495   -3.9378   23.3162 C   0  0  0  0  0  0  0  0  0  0  0  0
    4.5697   -3.8315   22.6656 H   0  0  0  0  0  0  0  0  0  0  0  0
    5.5245   -3.0302   23.9377 H   0  0  0  0  0  0  0  0  0  0  0  0
    6.0254   -6.8008   23.3808 H   0  0  0  0  0  0  0  0  0  0  0  0
    6.5497   -6.3553   25.0308 H   0  0  0  0  0  0  0  0  0  0  0  0
    8.2011   -5.8072   22.8934 H   0  0  0  0  0  0  0  0  0  0  0  0
    8.0260   -4.6483   24.2228 H   0  0  0  0  0  0  0  0  0  0  0  0
    6.4773   -4.6934   21.5845 H   0  0  0  0  0  0  0  0  0  0  0  0
    8.4816   -3.1793   21.7038 H   0  0  0  0  0  0  0  0  0  0  0  0
    7.8162   -2.4079   23.1341 H   0  0  0  0  0  0  0  0  0  0  0  0
    6.4895   -2.4618   20.3586 H   0  0  0  0  0  0  0  0  0  0  0  0
    5.7669   -1.7180   21.7694 H   0  0  0  0  0  0  0  0  0  0  0  0
    6.6557    0.1281   19.8864 C   0  0  0  0  0  0  0  0  0  0  0  0
    5.4147    0.7542   20.0905 C   0  0  0  0  0  0  0  0  0  0  0  0
    4.7852    1.3571   18.9992 C   0  0  0  0  0  0  0  0  0  0  0  0
    5.4105    1.3219   17.7487 C   0  0  0  0  0  0  0  0  0  0  0  0
    6.5878    0.7205   17.5302 N   0  0  0  0  0  0  0  0  0  0  0  0
    7.1786    0.1504   18.5888 C   0  0  0  0  0  0  0  0  0  0  0  0
    8.1324   -0.3424   18.3925 H   0  0  0  0  0  0  0  0  0  0  0  0
    4.9468    1.7884   16.8819 H   0  0  0  0  0  0  0  0  0  0  0  0
    3.8310    1.8589   19.1012 H   0  0  0  0  0  0  0  0  0  0  0  0
    4.9369    0.7772   21.0742 H   0  0  0  0  0  0  0  0  0  0  0  0
    8.4295   -0.8403   20.5597 H   0  0  0  0  0  0  0  0  0  0  0  0
    6.8993    0.1645   22.8473 H   0  0  0  0  0  0  0  0  0  0  0  0
    7.0145    2.4076   23.9455 C   0  0  0  0  0  0  0  0  0  0  0  0
    6.8584    3.3736   24.9553 C   0  0  0  0  0  0  0  0  0  0  0  0
    7.9198    4.1915   25.3299 C   0  0  0  0  0  0  0  0  0  0  0  0
    9.1578    3.9893   24.6911 C   0  0  0  0  0  0  0  0  0  0  0  0
    7.8089    4.9415   26.1067 H   0  0  0  0  0  0  0  0  0  0  0  0
    5.8990    3.4678   25.4659 H   0  0  0  0  0  0  0  0  0  0  0  0
    6.1325    1.8312   23.6764 H   0  0  0  0  0  0  0  0  0  0  0  0
   11.2083    2.3076   22.6706 H   0  0  0  0  0  0  0  0  0  0  0  0
   12.3256    4.4034   24.0313 H   0  0  0  0  0  0  0  0  0  0  0  0
   11.6804    5.8182   25.9214 H   0  0  0  0  0  0  0  0  0  0  0  0
   10.1065    5.6451   26.6767 H   0  0  0  0  0  0  0  0  0  0  0  0
   10.2786    6.7060   25.2486 H   0  0  0  0  0  0  0  0  0  0  0  0
  1  2  1  0
  2  3  1  0
  3  4  2  0
  4  5  1  0
  5  6  2  0
  6  7  1  0
  7  8  2  0
  7  9  1  0
  9 10  1  0
 10 11  1  0
 11 12  1  0
 12 13  1  0
 13 14  1  0
 14 15  1  0
 15 16  1  0
 16 17  1  0
 17 18  1  0
 17 19  1  0
 15 20  1  0
 15 21  1  0
 14 22  1  0
 14 23  1  0
 13 24  1  0
 12 25  1  0
 12 26  1  0
 11 27  1  0
 11 28  1  0
 10 29  1  0
 29 30  2  0
 30 31  1  0
 31 32  2  0
 32 33  1  0
 33 34  2  0
 34 35  1  0
 32 36  1  0
 31 37  1  0
 30 38  1  0
 10 39  1  0
  9 40  1  0
  6 41  1  0
 41 42  2  0
 42 43  1  0
 43 44  2  0
 43 45  1  0
 42 46  1  0
 41 47  1  0
  4 48  1  0
  3 49  1  0
  1 50  1  0
  1 51  1  0
  1 52  1  0
 44  2  1  0
 44  5  1  0
 17 13  1  0
 34 29  1  0
M  END
>  <plip>  (1) 
-0.14285714285714285

>  <filename>  (1) 
[H][c]1[n][c]([H])[c]([C]([H])([N]([H])[C](=[O])[c]2[c]([H])[c]([H])[c]([H])[c]3[c]2[c]([H])[c]([H])[n]3[C]([H])([H])[H])[C]([H])([H])[C]([H])([H])[C]2([H])[C]([H])([H])[O][C]([H])([H])[C]2([H])[H])[c]([H])[c]1[H]

$$$$
