
     RDKit          3D

 33 34  0  0  0  0  0  0  0  0999 V2000
   10.5782   -1.9730   21.7333 C   0  0  0  0  0  0  0  0  0  0  0  0
    9.1418   -1.6255   21.9452 C   0  0  0  0  0  0  0  0  0  0  0  0
    8.5097   -1.8682   23.1493 C   0  0  0  0  0  0  0  0  0  0  0  0
    7.2552   -1.3025   23.3077 C   0  0  0  0  0  0  0  0  0  0  0  0
    6.4840   -1.2578   24.9087 S   0  0  0  0  0  0  0  0  0  0  0  0
    7.2800    0.2330   25.6278 C   0  0  0  0  0  0  0  0  0  0  0  0
    6.3376    1.4178   25.8646 C   0  0  0  0  0  0  0  0  0  0  0  0
    5.6569    1.9825   24.6066 C   0  0  0  0  0  0  0  0  0  0  0  0
    4.4232    1.3532   24.3061 O   0  0  0  0  0  0  0  0  0  0  0  0
    4.6302    0.4151   24.1428 H   0  0  0  0  0  0  0  0  0  0  0  0
    6.3437    1.9290   23.7413 H   0  0  0  0  0  0  0  0  0  0  0  0
    5.4346    3.0426   24.7666 H   0  0  0  0  0  0  0  0  0  0  0  0
    5.5628    1.1516   26.5941 H   0  0  0  0  0  0  0  0  0  0  0  0
    6.9520    2.2073   26.3243 H   0  0  0  0  0  0  0  0  0  0  0  0
    7.7444   -0.0938   26.5655 H   0  0  0  0  0  0  0  0  0  0  0  0
    8.0929    0.5573   24.9652 H   0  0  0  0  0  0  0  0  0  0  0  0
    6.6239   -0.6903   22.3141 N   0  0  0  0  0  0  0  0  0  0  0  0
    7.2671   -0.6085   21.1524 C   0  0  0  0  0  0  0  0  0  0  0  0
    6.5778    0.0359   20.0387 C   0  0  0  0  0  0  0  0  0  0  0  0
    5.3537    0.7152   20.1710 C   0  0  0  0  0  0  0  0  0  0  0  0
    4.8165    1.3233   19.0416 C   0  0  0  0  0  0  0  0  0  0  0  0
    5.5035    1.2265   17.8264 C   0  0  0  0  0  0  0  0  0  0  0  0
    6.6664    0.5706   17.6871 N   0  0  0  0  0  0  0  0  0  0  0  0
    7.1855    0.0022   18.7766 C   0  0  0  0  0  0  0  0  0  0  0  0
    8.1397   -0.5053   18.6398 H   0  0  0  0  0  0  0  0  0  0  0  0
    5.1004    1.6977   16.9323 H   0  0  0  0  0  0  0  0  0  0  0  0
    3.8901    1.8886   19.0941 H   0  0  0  0  0  0  0  0  0  0  0  0
    4.8468    0.7732   21.1372 H   0  0  0  0  0  0  0  0  0  0  0  0
    8.5101   -1.0397   20.9343 N   0  0  0  0  0  0  0  0  0  0  0  0
    9.0118   -2.4162   23.9322 H   0  0  0  0  0  0  0  0  0  0  0  0
   10.6763   -2.4319   20.7564 H   0  0  0  0  0  0  0  0  0  0  0  0
   11.1768   -1.0567   21.7506 H   0  0  0  0  0  0  0  0  0  0  0  0
   10.9550   -2.6687   22.4864 H   0  0  0  0  0  0  0  0  0  0  0  0
  1  2  1  0
  2  3  2  0
  3  4  1  0
  4  5  1  0
  5  6  1  0
  6  7  1  0
  7  8  1  0
  8  9  1  0
  9 10  1  0
  8 11  1  0
  8 12  1  0
  7 13  1  0
  7 14  1  0
  6 15  1  0
  6 16  1  0
  4 17  2  0
 17 18  1  0
 18 19  1  0
 19 20  2  0
 20 21  1  0
 21 22  2  0
 22 23  1  0
 23 24  2  0
 24 25  1  0
 22 26  1  0
 21 27  1  0
 20 28  1  0
 18 29  2  0
  3 30  1  0
  1 31  1  0
  1 32  1  0
  1 33  1  0
 29  2  1  0
 24 19  1  0
M  END
>  <plip>  (1) 
-0.10714285714285714

>  <filename>  (1) 
[H][O][C]([H])([H])[C]([H])([H])[C]([H])([H])[S][c]1[n][c](-[c]2[c]([H])[n][c]([H])[c]([H])[c]2[H])[n][c]([C]([H])([H])[H])[c]1[H]

$$$$
