
     RDKit          3D

 49 52  0  0  0  0  0  0  0  0999 V2000
    8.6147    2.4027   21.2118 C   0  0  0  0  0  0  0  0  0  0  0  0
    8.9730    1.0454   21.3328 O   0  0  0  0  0  0  0  0  0  0  0  0
    8.0302    0.2547   22.0198 C   0  0  0  0  0  0  0  0  0  0  0  0
    8.6819   -0.4251   23.0492 O   0  0  0  0  0  0  0  0  0  0  0  0
    9.0498    0.4134   24.1336 C   0  0  0  0  0  0  0  0  0  0  0  0
    8.1592    0.8519   24.6122 H   0  0  0  0  0  0  0  0  0  0  0  0
    9.5667   -0.2131   24.8633 H   0  0  0  0  0  0  0  0  0  0  0  0
    9.7263    1.2232   23.8252 H   0  0  0  0  0  0  0  0  0  0  0  0
    7.3787   -0.7389   21.0106 C   0  0  0  0  0  0  0  0  0  0  0  0
    6.5143   -1.7147   21.6746 N   0  0  0  0  0  0  0  0  0  0  0  0
    6.0858   -2.8701   21.0796 C   0  0  0  0  0  0  0  0  0  0  0  0
    6.2166   -3.0842   19.8941 O   0  0  0  0  0  0  0  0  0  0  0  0
    5.4606   -3.8648   22.0544 C   0  0  0  0  0  0  0  0  0  0  0  0
    4.7896   -4.8794   21.5686 N   0  0  0  0  0  0  0  0  0  0  0  0
    4.2897   -5.5748   22.6332 O   0  0  0  0  0  0  0  0  0  0  0  0
    4.7009   -4.9888   23.7708 C   0  0  0  0  0  0  0  0  0  0  0  0
    4.3919   -5.4698   25.1005 C   0  0  0  0  0  0  0  0  0  0  0  0
    5.1161   -4.8689   26.1553 C   0  0  0  0  0  0  0  0  0  0  0  0
    6.2520   -3.8849   25.8602 C   0  0  0  0  0  0  0  0  0  0  0  0
    6.0733   -3.0447   24.5749 C   0  0  0  0  0  0  0  0  0  0  0  0
    5.4629   -3.8861   23.4841 C   0  0  0  0  0  0  0  0  0  0  0  0
    7.0464   -2.6403   24.2654 H   0  0  0  0  0  0  0  0  0  0  0  0
    5.4392   -2.1706   24.7949 H   0  0  0  0  0  0  0  0  0  0  0  0
    7.1742   -4.4737   25.7593 H   0  0  0  0  0  0  0  0  0  0  0  0
    6.3931   -3.2358   26.7307 H   0  0  0  0  0  0  0  0  0  0  0  0
    4.8199   -5.2507   27.4703 C   0  0  0  0  0  0  0  0  0  0  0  0
    3.8475   -6.2114   27.7473 C   0  0  0  0  0  0  0  0  0  0  0  0
    3.1488   -6.8170   26.6927 C   0  0  0  0  0  0  0  0  0  0  0  0
    3.4143   -6.4558   25.3795 C   0  0  0  0  0  0  0  0  0  0  0  0
    2.8644   -6.9206   24.5669 H   0  0  0  0  0  0  0  0  0  0  0  0
    2.3911   -7.5664   26.9124 H   0  0  0  0  0  0  0  0  0  0  0  0
    3.6328   -6.4948   28.7756 H   0  0  0  0  0  0  0  0  0  0  0  0
    5.3635   -4.7937   28.2932 H   0  0  0  0  0  0  0  0  0  0  0  0
    6.0969   -1.4745   22.5581 H   0  0  0  0  0  0  0  0  0  0  0  0
    6.6272   -0.0126   19.8956 C   0  0  0  0  0  0  0  0  0  0  0  0
    5.4165    0.6606   20.1229 C   0  0  0  0  0  0  0  0  0  0  0  0
    4.7932    1.3251   19.0655 C   0  0  0  0  0  0  0  0  0  0  0  0
    5.4133    1.3089   17.8104 C   0  0  0  0  0  0  0  0  0  0  0  0
    6.5669    0.6736   17.5611 N   0  0  0  0  0  0  0  0  0  0  0  0
    7.1457    0.0351   18.5928 C   0  0  0  0  0  0  0  0  0  0  0  0
    8.0894   -0.4629   18.3596 H   0  0  0  0  0  0  0  0  0  0  0  0
    4.9610    1.8327   16.9709 H   0  0  0  0  0  0  0  0  0  0  0  0
    3.8629    1.8687   19.2054 H   0  0  0  0  0  0  0  0  0  0  0  0
    4.9580    0.6720   21.1150 H   0  0  0  0  0  0  0  0  0  0  0  0
    8.2315   -1.2694   20.5726 H   0  0  0  0  0  0  0  0  0  0  0  0
    7.2140    0.8755   22.4490 H   0  0  0  0  0  0  0  0  0  0  0  0
    8.5711    2.8957   22.1959 H   0  0  0  0  0  0  0  0  0  0  0  0
    9.3936    2.8810   20.6210 H   0  0  0  0  0  0  0  0  0  0  0  0
    7.6421    2.5033   20.7082 H   0  0  0  0  0  0  0  0  0  0  0  0
  1  2  1  0
  2  3  1  0
  3  4  1  0
  4  5  1  0
  5  6  1  0
  5  7  1  0
  5  8  1  0
  3  9  1  0
  9 10  1  0
 10 11  1  0
 11 12  2  0
 11 13  1  0
 13 14  2  0
 14 15  1  0
 15 16  1  0
 16 17  1  0
 17 18  2  0
 18 19  1  0
 19 20  1  0
 20 21  1  0
 20 22  1  0
 20 23  1  0
 19 24  1  0
 19 25  1  0
 18 26  1  0
 26 27  2  0
 27 28  1  0
 28 29  2  0
 29 30  1  0
 28 31  1  0
 27 32  1  0
 26 33  1  0
 10 34  1  0
  9 35  1  0
 35 36  2  0
 36 37  1  0
 37 38  2  0
 38 39  1  0
 39 40  2  0
 40 41  1  0
 38 42  1  0
 37 43  1  0
 36 44  1  0
  9 45  1  0
  3 46  1  0
  1 47  1  0
  1 48  1  0
  1 49  1  0
 21 13  1  0
 40 35  1  0
 21 16  2  0
 29 17  1  0
M  END
>  <plip>  (1) 
-0.21428571428571427

>  <filename>  (1) 
[H][c]1[n][c]([H])[c]([C]([H])([N]([H])[C](=[O])[c]2[n][o][c]3[c]2[C]([H])([H])[C]([H])([H])[c]2[c]([H])[c]([H])[c]([H])[c]([H])[c]2-3)[C]([H])([O][C]([H])([H])[H])[O][C]([H])([H])[H])[c]([H])[c]1[H]

$$$$
