
     RDKit          3D

 44 47  0  0  0  0  0  0  0  0999 V2000
    8.1938    2.0100   21.9517 O   0  0  0  0  0  0  0  0  0  0  0  0
    9.0310    1.1324   21.7519 C   0  0  0  0  0  0  0  0  0  0  0  0
    8.6746   -0.0890   21.3029 N   0  0  0  0  0  0  0  0  0  0  0  0
    7.2790   -0.4952   21.2163 C   0  0  0  0  0  0  0  0  0  0  0  0
    7.1809   -2.0129   21.0521 C   0  0  0  0  0  0  0  0  0  0  0  0
    7.7848   -2.9161   22.1380 C   0  0  0  0  0  0  0  0  0  0  0  0
    7.5937   -4.3914   21.8126 C   0  0  0  0  0  0  0  0  0  0  0  0
    6.3300   -5.1432   22.1438 C   0  0  0  0  0  0  0  0  0  0  0  0
    7.6015   -5.4268   22.9042 C   0  0  0  0  0  0  0  0  0  0  0  0
    8.1128   -6.3763   22.7451 H   0  0  0  0  0  0  0  0  0  0  0  0
    7.6647   -5.0743   23.9335 H   0  0  0  0  0  0  0  0  0  0  0  0
    5.5275   -4.6179   22.6610 H   0  0  0  0  0  0  0  0  0  0  0  0
    5.9676   -5.8997   21.4482 H   0  0  0  0  0  0  0  0  0  0  0  0
    8.0655   -4.6917   20.8776 H   0  0  0  0  0  0  0  0  0  0  0  0
    7.3324   -2.6972   23.1174 H   0  0  0  0  0  0  0  0  0  0  0  0
    8.8637   -2.7309   22.2500 H   0  0  0  0  0  0  0  0  0  0  0  0
    6.1258   -2.2783   20.9328 H   0  0  0  0  0  0  0  0  0  0  0  0
    7.6468   -2.2285   20.0912 H   0  0  0  0  0  0  0  0  0  0  0  0
    6.5936    0.2009   20.0483 C   0  0  0  0  0  0  0  0  0  0  0  0
    5.3414    0.8217   20.1735 C   0  0  0  0  0  0  0  0  0  0  0  0
    4.7440    1.3772   19.0363 C   0  0  0  0  0  0  0  0  0  0  0  0
    5.4195    1.2887   17.8164 C   0  0  0  0  0  0  0  0  0  0  0  0
    6.6130    0.6939   17.6695 N   0  0  0  0  0  0  0  0  0  0  0  0
    7.1764    0.1779   18.7714 C   0  0  0  0  0  0  0  0  0  0  0  0
    8.1480   -0.2942   18.6152 H   0  0  0  0  0  0  0  0  0  0  0  0
    4.9874    1.7070   16.9091 H   0  0  0  0  0  0  0  0  0  0  0  0
    3.7843    1.8830   19.0814 H   0  0  0  0  0  0  0  0  0  0  0  0
    4.8500    0.8888   21.1468 H   0  0  0  0  0  0  0  0  0  0  0  0
    6.7743   -0.1873   22.1451 H   0  0  0  0  0  0  0  0  0  0  0  0
    9.4248   -0.7570   21.1956 H   0  0  0  0  0  0  0  0  0  0  0  0
   10.5209    1.3162   21.9912 C   0  0  0  0  0  0  0  0  0  0  0  0
   11.4924    0.4168   21.8591 N   0  0  0  0  0  0  0  0  0  0  0  0
   12.6510    1.0660   22.1189 C   0  0  0  0  0  0  0  0  0  0  0  0
   12.4275    2.4021   22.4094 C   0  0  0  0  0  0  0  0  0  0  0  0
   13.2276    3.5689   22.6314 C   0  0  0  0  0  0  0  0  0  0  0  0
   12.6028    4.7755   22.8362 C   0  0  0  0  0  0  0  0  0  0  0  0
   11.1639    4.8671   22.8504 C   0  0  0  0  0  0  0  0  0  0  0  0
   10.4019    3.7582   22.6117 C   0  0  0  0  0  0  0  0  0  0  0  0
   11.0338    2.5453   22.3570 N   0  0  0  0  0  0  0  0  0  0  0  0
    9.3213    3.7155   22.5580 H   0  0  0  0  0  0  0  0  0  0  0  0
   10.6683    5.8231   23.0084 H   0  0  0  0  0  0  0  0  0  0  0  0
   13.2018    5.6751   22.9646 H   0  0  0  0  0  0  0  0  0  0  0  0
   14.3093    3.4747   22.5567 H   0  0  0  0  0  0  0  0  0  0  0  0
   13.6279    0.5962   22.0789 H   0  0  0  0  0  0  0  0  0  0  0  0
  1  2  2  0
  2  3  1  0
  3  4  1  0
  4  5  1  0
  5  6  1  0
  6  7  1  0
  7  8  1  0
  8  9  1  0
  9 10  1  0
  9 11  1  0
  8 12  1  0
  8 13  1  0
  7 14  1  0
  6 15  1  0
  6 16  1  0
  5 17  1  0
  5 18  1  0
  4 19  1  0
 19 20  2  0
 20 21  1  0
 21 22  2  0
 22 23  1  0
 23 24  2  0
 24 25  1  0
 22 26  1  0
 21 27  1  0
 20 28  1  0
  4 29  1  0
  3 30  1  0
  2 31  1  0
 31 32  2  0
 32 33  1  0
 33 34  2  0
 34 35  1  0
 35 36  2  0
 36 37  1  0
 37 38  2  0
 38 39  1  0
 38 40  1  0
 37 41  1  0
 36 42  1  0
 35 43  1  0
 33 44  1  0
  9  7  1  0
 24 19  1  0
 39 31  1  0
 39 34  1  0
M  END
>  <plip>  (1) 
-0.10344827586206896

>  <filename>  (1) 
[H][c]1[n][c]([H])[c]([C]([H])([N]([H])[C](=[O])[c]2[n][c]([H])[c]3[c]([H])[c]([H])[c]([H])[c]([H])[n]23)[C]([H])([H])[C]([H])([H])[C]2([H])[C]([H])([H])[C]2([H])[H])[c]([H])[c]1[H]

$$$$
