
     RDKit          3D

 36 38  0  0  0  0  0  0  0  0999 V2000
    5.1058   -3.4186   22.3265 C   0  0  0  0  0  0  0  0  0  0  0  0
    5.7991   -2.1865   22.1096 O   0  0  0  0  0  0  0  0  0  0  0  0
    6.8486   -2.1928   21.2953 C   0  0  0  0  0  0  0  0  0  0  0  0
    7.3368   -3.1965   20.8352 O   0  0  0  0  0  0  0  0  0  0  0  0
    7.4046   -0.7593   21.0104 C   0  0  2  0  0  0  0  0  0  0  0  0
    7.4575   -0.0073   22.2365 O   0  0  0  0  0  0  0  0  0  0  0  0
    8.1613    1.1634   22.2452 C   0  0  0  0  0  0  0  0  0  0  0  0
    8.8172    1.5289   21.2998 O   0  0  0  0  0  0  0  0  0  0  0  0
    7.9984    1.8730   23.5543 C   0  0  0  0  0  0  0  0  0  0  0  0
    7.1312    1.4974   24.5356 C   0  0  0  0  0  0  0  0  0  0  0  0
    7.1734    2.5217   25.9222 S   0  0  0  0  0  0  0  0  0  0  0  0
    8.4037    3.5257   25.2073 C   0  0  0  0  0  0  0  0  0  0  0  0
    9.0060    4.6652   25.7768 C   0  0  0  0  0  0  0  0  0  0  0  0
    9.9726    5.3336   25.0360 C   0  0  0  0  0  0  0  0  0  0  0  0
   10.3390    4.8894   23.7488 C   0  0  0  0  0  0  0  0  0  0  0  0
    9.7384    3.7685   23.1859 C   0  0  0  0  0  0  0  0  0  0  0  0
    8.7557    3.0648   23.9204 C   0  0  0  0  0  0  0  0  0  0  0  0
   10.0007    3.4276   22.1906 H   0  0  0  0  0  0  0  0  0  0  0  0
   11.0968    5.4344   23.1939 H   0  0  0  0  0  0  0  0  0  0  0  0
   10.4439    6.2146   25.4596 H   0  0  0  0  0  0  0  0  0  0  0  0
    8.7126    5.0061   26.7659 H   0  0  0  0  0  0  0  0  0  0  0  0
    6.4454    0.6506   24.5173 H   0  0  0  0  0  0  0  0  0  0  0  0
    6.6456    0.0142   19.9366 C   0  0  0  0  0  0  0  0  0  0  0  0
    5.4394    0.6945   20.1589 C   0  0  0  0  0  0  0  0  0  0  0  0
    4.8197    1.3222   19.0735 C   0  0  0  0  0  0  0  0  0  0  0  0
    5.4406    1.2944   17.8210 C   0  0  0  0  0  0  0  0  0  0  0  0
    6.6155    0.6879   17.6016 N   0  0  0  0  0  0  0  0  0  0  0  0
    7.1913    0.0833   18.6490 C   0  0  0  0  0  0  0  0  0  0  0  0
    8.1546   -0.3881   18.4498 H   0  0  0  0  0  0  0  0  0  0  0  0
    4.9811    1.7896   16.9634 H   0  0  0  0  0  0  0  0  0  0  0  0
    3.8787    1.8475   19.1815 H   0  0  0  0  0  0  0  0  0  0  0  0
    5.0046    0.7673   21.1569 H   0  0  0  0  0  0  0  0  0  0  0  0
    8.4211   -0.9522   20.6491 H   0  0  0  0  0  0  0  0  0  0  0  0
    4.6556   -3.7505   21.3889 H   0  0  0  0  0  0  0  0  0  0  0  0
    4.3313   -3.1984   23.0607 H   0  0  0  0  0  0  0  0  0  0  0  0
    5.7843   -4.1837   22.7113 H   0  0  0  0  0  0  0  0  0  0  0  0
  1  2  1  0
  2  3  1  0
  3  4  2  0
  3  5  1  0
  5  6  1  0
  6  7  1  0
  7  8  2  0
  7  9  1  0
  9 10  2  0
 10 11  1  0
 11 12  1  0
 12 13  2  0
 13 14  1  0
 14 15  2  0
 15 16  1  0
 16 17  2  0
 16 18  1  0
 15 19  1  0
 14 20  1  0
 13 21  1  0
 10 22  1  0
  5 23  1  0
 23 24  2  0
 24 25  1  0
 25 26  2  0
 26 27  1  0
 27 28  2  0
 28 29  1  0
 26 30  1  0
 25 31  1  0
 24 32  1  0
  5 33  1  6
  1 34  1  0
  1 35  1  0
  1 36  1  0
 17  9  1  0
 28 23  1  0
 17 12  1  0
M  END
>  <plip>  (1) 
-0.10714285714285714

>  <filename>  (1) 
[H][c]1[n][c]([H])[c]([C@@]([H])([O][C](=[O])[c]2[c]([H])[s][c]3[c]([H])[c]([H])[c]([H])[c]([H])[c]23)[C](=[O])[O][C]([H])([H])[H])[c]([H])[c]1[H]

$$$$
