
     RDKit          3D

 29 30  0  0  0  0  0  0  0  0999 V2000
    4.9166    1.8275   16.9422 H   0  0  0  0  0  0  0  0  0  0  0  0
    5.3890    1.3226   17.7800 C   0  0  0  0  0  0  0  0  0  0  0  0
    6.5495    0.6991   17.5165 N   0  0  0  0  0  0  0  0  0  0  0  0
    7.1642    0.0840   18.5355 C   0  0  0  0  0  0  0  0  0  0  0  0
    8.0969   -0.4113   18.2646 H   0  0  0  0  0  0  0  0  0  0  0  0
    6.6679    0.0403   19.8599 C   0  0  0  0  0  0  0  0  0  0  0  0
    7.3369   -0.6753   20.9659 C   0  0  0  0  0  0  0  0  0  0  0  0
    6.8439   -1.2324   22.1189 C   0  0  0  0  0  0  0  0  0  0  0  0
    5.8301   -1.3051   22.4421 H   0  0  0  0  0  0  0  0  0  0  0  0
    7.8295   -1.8403   22.8411 N   0  0  0  0  0  0  0  0  0  0  0  0
    8.9313   -1.6691   22.1551 C   0  0  0  0  0  0  0  0  0  0  0  0
   10.6693   -2.1193   22.6839 S   0  0  0  0  0  0  0  0  0  0  0  0
   10.6732   -3.1984   23.6535 O   0  0  0  0  0  0  0  0  0  0  0  0
   11.4570   -2.1642   21.4692 O   0  0  0  0  0  0  0  0  0  0  0  0
   11.1463   -0.7356   23.4860 N   0  0  0  0  0  0  0  0  0  0  0  0
   11.5002    0.4002   22.6390 C   0  0  0  0  0  0  0  0  0  0  0  0
   12.1231    1.0904   23.2213 H   0  0  0  0  0  0  0  0  0  0  0  0
   10.6279    0.9438   22.2394 H   0  0  0  0  0  0  0  0  0  0  0  0
   12.0968    0.0303   21.8045 H   0  0  0  0  0  0  0  0  0  0  0  0
   10.4563   -0.4446   24.7421 C   0  0  0  0  0  0  0  0  0  0  0  0
    9.4666    0.0189   24.6153 H   0  0  0  0  0  0  0  0  0  0  0  0
   10.3202   -1.3629   25.3096 H   0  0  0  0  0  0  0  0  0  0  0  0
   11.0851    0.2272   25.3367 H   0  0  0  0  0  0  0  0  0  0  0  0
    8.6851   -0.9736   21.0000 N   0  0  0  0  0  0  0  0  0  0  0  0
    9.3436   -0.7312   20.2783 H   0  0  0  0  0  0  0  0  0  0  0  0
    5.4401    0.6902   20.0940 C   0  0  0  0  0  0  0  0  0  0  0  0
    5.0136    0.6925   21.0990 H   0  0  0  0  0  0  0  0  0  0  0  0
    4.7941    1.3394   19.0439 C   0  0  0  0  0  0  0  0  0  0  0  0
    3.8545    1.8581   19.1946 H   0  0  0  0  0  0  0  0  0  0  0  0
  1  2  1  0
  2  3  2  0
  3  4  1  0
  4  5  1  0
  4  6  2  0
  6  7  1  0
  7  8  2  0
  8  9  1  0
  8 10  1  0
 10 11  2  0
 11 12  1  0
 12 13  2  0
 12 14  2  0
 12 15  1  0
 15 16  1  0
 16 17  1  0
 16 18  1  0
 16 19  1  0
 15 20  1  0
 20 21  1  0
 20 22  1  0
 20 23  1  0
 11 24  1  0
 24 25  1  0
  6 26  1  0
 26 27  1  0
 26 28  2  0
 28 29  1  0
 28  2  1  0
 24  7  1  0
M  END
>  <plip>  (1) 
-0.034482758620689655

>  <filename>  (1) 
[H][c]1[n][c]([H])[c](-[c]2[c]([H])[n][c]([S](=[O])(=[O])[N]([C]([H])([H])[H])[C]([H])([H])[H])[n]2[H])[c]([H])[c]1[H]

$$$$
