
     RDKit          3D

 35 36  0  0  0  0  0  0  0  0999 V2000
    7.5163    1.2877   23.4903 C   0  0  0  0  0  0  0  0  0  0  0  0
    8.2749    1.4593   22.1740 C   0  0  0  0  0  0  0  0  0  0  0  0
    8.6343    0.1280   21.4886 C   0  0  0  0  0  0  0  0  0  0  0  0
    7.4322   -0.6836   20.9920 C   0  0  0  0  0  0  0  0  0  0  0  0
    6.6533    0.0071   19.8959 C   0  0  0  0  0  0  0  0  0  0  0  0
    5.4366    0.6604   20.1307 C   0  0  0  0  0  0  0  0  0  0  0  0
    4.8026    1.3198   19.0747 C   0  0  0  0  0  0  0  0  0  0  0  0
    5.4087    1.3082   17.8153 C   0  0  0  0  0  0  0  0  0  0  0  0
    6.5677    0.6840   17.5605 N   0  0  0  0  0  0  0  0  0  0  0  0
    7.1640    0.0609   18.5842 C   0  0  0  0  0  0  0  0  0  0  0  0
    8.1069   -0.4373   18.3520 H   0  0  0  0  0  0  0  0  0  0  0  0
    4.9429    1.8168   16.9734 H   0  0  0  0  0  0  0  0  0  0  0  0
    3.8650    1.8442   19.2151 H   0  0  0  0  0  0  0  0  0  0  0  0
    4.9905    0.6559   21.1291 H   0  0  0  0  0  0  0  0  0  0  0  0
    7.8038   -1.6491   20.6309 H   0  0  0  0  0  0  0  0  0  0  0  0
    6.7737   -0.9100   21.8408 H   0  0  0  0  0  0  0  0  0  0  0  0
    9.2154   -0.4657   22.2007 H   0  0  0  0  0  0  0  0  0  0  0  0
    9.3094    0.3481   20.6486 H   0  0  0  0  0  0  0  0  0  0  0  0
    9.4766    2.2312   22.4168 N   0  0  0  0  0  0  0  0  0  0  0  0
   10.5087    1.8792   23.1800 C   0  0  0  0  0  0  0  0  0  0  0  0
   10.4679    0.7687   23.9104 N   0  0  0  0  0  0  0  0  0  0  0  0
   11.5839    0.4929   24.5796 C   0  0  0  0  0  0  0  0  0  0  0  0
   12.7164    1.2641   24.5133 C   0  0  0  0  0  0  0  0  0  0  0  0
   12.5858    2.3942   23.7173 C   0  0  0  0  0  0  0  0  0  0  0  0
   13.5982    3.2407   23.4872 N   0  0  0  0  0  0  0  0  0  0  0  0
   13.1619    4.0885   23.1618 H   0  0  0  0  0  0  0  0  0  0  0  0
   14.3449    3.2755   24.1508 H   0  0  0  0  0  0  0  0  0  0  0  0
   11.4965    2.7661   23.0971 N   0  0  0  0  0  0  0  0  0  0  0  0
   13.6360    1.0123   24.9948 H   0  0  0  0  0  0  0  0  0  0  0  0
   11.5431   -0.4054   25.1978 H   0  0  0  0  0  0  0  0  0  0  0  0
    9.7228    3.0977   21.9766 H   0  0  0  0  0  0  0  0  0  0  0  0
    7.6516    2.0506   21.4843 H   0  0  0  0  0  0  0  0  0  0  0  0
    7.4307    2.2556   24.0007 H   0  0  0  0  0  0  0  0  0  0  0  0
    6.5118    0.8924   23.3068 H   0  0  0  0  0  0  0  0  0  0  0  0
    8.0673    0.6075   24.1451 H   0  0  0  0  0  0  0  0  0  0  0  0
  1  2  1  0
  2  3  1  0
  3  4  1  0
  4  5  1  0
  5  6  2  0
  6  7  1  0
  7  8  2  0
  8  9  1  0
  9 10  2  0
 10 11  1  0
  8 12  1  0
  7 13  1  0
  6 14  1  0
  4 15  1  0
  4 16  1  0
  3 17  1  0
  3 18  1  0
  2 19  1  0
 19 20  1  0
 20 21  2  0
 21 22  1  0
 22 23  2  0
 23 24  1  0
 24 25  1  0
 25 26  1  0
 25 27  1  0
 24 28  2  0
 23 29  1  0
 22 30  1  0
 19 31  1  0
  2 32  1  0
  1 33  1  0
  1 34  1  0
  1 35  1  0
 10  5  1  0
 28 20  1  0
M  END
>  <plip>  (1) 
-0.12903225806451613

>  <filename>  (1) 
[H][c]1[n][c]([N]([H])[C]([H])([C]([H])([H])[H])[C]([H])([H])[C]([H])([H])[c]2[c]([H])[n][c]([H])[c]([H])[c]2[H])[n][c]([N]([H])[H])[c]1[H]

$$$$
