
     RDKit          3D

 44 46  0  0  0  0  0  0  0  0999 V2000
    7.5578   -2.1844   20.8388 C   0  0  0  0  0  0  0  0  0  0  0  0
    7.3763   -0.6946   21.0158 C   0  0  0  0  0  0  0  0  0  0  0  0
    7.8364   -0.0770   22.1178 C   0  0  0  0  0  0  0  0  0  0  0  0
    7.8530    1.3939   22.3206 C   0  0  0  0  0  0  0  0  0  0  0  0
    7.6958    2.2098   21.4241 O   0  0  0  0  0  0  0  0  0  0  0  0
    8.0703    1.7803   23.6107 N   0  0  0  0  0  0  0  0  0  0  0  0
    8.1344    3.1860   23.9876 C   0  0  0  0  0  0  0  0  0  0  0  0
    9.4576    3.8335   23.5402 C   0  0  0  0  0  0  0  0  0  0  0  0
    9.5828    5.3478   23.8370 C   0  0  0  0  0  0  0  0  0  0  0  0
    9.5871    5.7065   25.3600 C   0  0  0  0  0  0  0  0  0  0  0  0
    8.3938    6.5191   25.5469 N   0  0  0  0  0  0  0  0  0  0  0  0
    7.7858    6.8324   24.3615 C   0  0  0  0  0  0  0  0  0  0  0  0
    6.6458    7.6215   24.1514 C   0  0  0  0  0  0  0  0  0  0  0  0
    6.1654    7.7486   22.8413 C   0  0  0  0  0  0  0  0  0  0  0  0
    6.8071    7.0960   21.7708 C   0  0  0  0  0  0  0  0  0  0  0  0
    7.9445    6.3095   22.0021 C   0  0  0  0  0  0  0  0  0  0  0  0
    8.4406    6.1906   23.2993 C   0  0  0  0  0  0  0  0  0  0  0  0
    8.4304    5.7645   21.1909 H   0  0  0  0  0  0  0  0  0  0  0  0
    6.4214    7.1891   20.7589 H   0  0  0  0  0  0  0  0  0  0  0  0
    5.2851    8.3584   22.6419 H   0  0  0  0  0  0  0  0  0  0  0  0
    6.1533    8.1117   24.9889 H   0  0  0  0  0  0  0  0  0  0  0  0
    8.1453    6.9634   26.4081 H   0  0  0  0  0  0  0  0  0  0  0  0
   10.5039    6.2543   25.6320 H   0  0  0  0  0  0  0  0  0  0  0  0
    9.5635    4.8132   26.0052 H   0  0  0  0  0  0  0  0  0  0  0  0
   10.5327    5.6698   23.3830 H   0  0  0  0  0  0  0  0  0  0  0  0
   10.2953    3.3027   24.0101 H   0  0  0  0  0  0  0  0  0  0  0  0
    9.5504    3.6818   22.4565 H   0  0  0  0  0  0  0  0  0  0  0  0
    7.9955    3.2580   25.0748 H   0  0  0  0  0  0  0  0  0  0  0  0
    7.3015    3.7233   23.5081 H   0  0  0  0  0  0  0  0  0  0  0  0
    8.1608    1.0504   24.2917 H   0  0  0  0  0  0  0  0  0  0  0  0
    8.2666   -0.6862   22.9092 H   0  0  0  0  0  0  0  0  0  0  0  0
    6.6551    0.0317   19.9241 C   0  0  0  0  0  0  0  0  0  0  0  0
    5.4245    0.6622   20.1516 C   0  0  0  0  0  0  0  0  0  0  0  0
    4.7886    1.3042   19.0871 C   0  0  0  0  0  0  0  0  0  0  0  0
    5.3946    1.2889   17.8275 C   0  0  0  0  0  0  0  0  0  0  0  0
    6.5595    0.6695   17.5780 N   0  0  0  0  0  0  0  0  0  0  0  0
    7.1602    0.0637   18.6139 C   0  0  0  0  0  0  0  0  0  0  0  0
    8.1111   -0.4217   18.3821 H   0  0  0  0  0  0  0  0  0  0  0  0
    4.9328    1.7959   16.9801 H   0  0  0  0  0  0  0  0  0  0  0  0
    3.8626    1.8449   19.2294 H   0  0  0  0  0  0  0  0  0  0  0  0
    5.0012    0.6572   21.1548 H   0  0  0  0  0  0  0  0  0  0  0  0
    6.9406   -2.5204   20.0017 H   0  0  0  0  0  0  0  0  0  0  0  0
    7.2481   -2.7625   21.7190 H   0  0  0  0  0  0  0  0  0  0  0  0
    8.6055   -2.4479   20.6343 H   0  0  0  0  0  0  0  0  0  0  0  0
  1  2  1  0
  2  3  2  3
  3  4  1  0
  4  5  2  0
  4  6  1  0
  6  7  1  0
  7  8  1  0
  8  9  1  0
  9 10  1  0
 10 11  1  0
 11 12  1  0
 12 13  2  0
 13 14  1  0
 14 15  2  0
 15 16  1  0
 16 17  2  0
 16 18  1  0
 15 19  1  0
 14 20  1  0
 13 21  1  0
 11 22  1  0
 10 23  1  0
 10 24  1  0
  9 25  1  0
  8 26  1  0
  8 27  1  0
  7 28  1  0
  7 29  1  0
  6 30  1  0
  3 31  1  0
  2 32  1  0
 32 33  2  0
 33 34  1  0
 34 35  2  0
 35 36  1  0
 36 37  2  0
 37 38  1  0
 35 39  1  0
 34 40  1  0
 33 41  1  0
  1 42  1  0
  1 43  1  0
  1 44  1  0
 17  9  1  0
 37 32  1  0
 17 12  1  0
M  END
>  <plip>  (1) 
-0.03571428571428571

>  <filename>  (1) 
[H][C]([C](=[O])[N]([H])[C]([H])([H])[C]([H])([H])[C]1([H])[c]2[c]([H])[c]([H])[c]([H])[c]([H])[c]2[N]([H])[C]1([H])[H])=[C]([c]1[c]([H])[n][c]([H])[c]([H])[c]1[H])[C]([H])([H])[H]

$$$$
