
     RDKit          3D

 21 22  0  0  0  0  0  0  0  0999 V2000
    5.7022   -1.6893   21.7097 H   0  0  0  0  0  0  0  0  0  0  0  0
    6.7562   -1.4975   21.8532 C   0  0  0  0  0  0  0  0  0  0  0  0
    7.3843   -0.7143   20.9808 C   0  0  0  0  0  0  0  0  0  0  0  0
    9.1167   -0.5510   20.9782 Cl  0  0  0  0  0  0  0  0  0  0  0  0
    6.6749    0.0207   19.9076 C   0  0  0  0  0  0  0  0  0  0  0  0
    7.1884    0.0737   18.5962 C   0  0  0  0  0  0  0  0  0  0  0  0
    8.1253   -0.4290   18.3700 H   0  0  0  0  0  0  0  0  0  0  0  0
    6.5684    0.6771   17.5771 N   0  0  0  0  0  0  0  0  0  0  0  0
    5.4024    1.2914   17.8415 C   0  0  0  0  0  0  0  0  0  0  0  0
    4.9116    1.7755   17.0009 H   0  0  0  0  0  0  0  0  0  0  0  0
    4.8045    1.3120   19.1084 C   0  0  0  0  0  0  0  0  0  0  0  0
    3.8698    1.8451   19.2632 H   0  0  0  0  0  0  0  0  0  0  0  0
    5.4413    0.6468   20.1565 C   0  0  0  0  0  0  0  0  0  0  0  0
    5.0154    0.6301   21.1611 H   0  0  0  0  0  0  0  0  0  0  0  0
    7.3448   -2.1553   22.9391 N   0  0  0  0  0  0  0  0  0  0  0  0
    6.9769   -3.4061   23.2929 N   0  0  0  0  0  0  0  0  0  0  0  0
    7.7246   -3.6200   24.3577 C   0  0  0  0  0  0  0  0  0  0  0  0
    7.6834   -4.5390   24.9204 H   0  0  0  0  0  0  0  0  0  0  0  0
    8.5421   -2.5902   24.7147 N   0  0  0  0  0  0  0  0  0  0  0  0
    8.2788   -1.6860   23.8063 C   0  0  0  0  0  0  0  0  0  0  0  0
    8.6889   -0.6868   23.7473 H   0  0  0  0  0  0  0  0  0  0  0  0
  1  2  1  0
  2  3  2  3
  3  4  1  0
  3  5  1  0
  5  6  2  0
  6  7  1  0
  6  8  1  0
  8  9  2  0
  9 10  1  0
  9 11  1  0
 11 12  1  0
 11 13  2  0
 13 14  1  0
  2 15  1  0
 15 16  1  0
 16 17  2  0
 17 18  1  0
 17 19  1  0
 19 20  2  0
 20 21  1  0
 13  5  1  0
 20 15  1  0
M  END
>  <plip>  (1) 
-0.03571428571428571

>  <filename>  (1) 
[H][C](=[C]([Cl])[c]1[c]([H])[n][c]([H])[c]([H])[c]1[H])[n]1[n][c]([H])[n][c]1[H]

$$$$
