
     RDKit          3D

 36 38  0  0  0  0  0  0  0  0999 V2000
    8.5122    0.6257   29.6001 C   0  0  0  0  0  0  0  0  0  0  0  0
    7.1576    0.5053   29.1310 O   0  0  0  0  0  0  0  0  0  0  0  0
    6.9323    0.5048   27.7742 C   0  0  0  0  0  0  0  0  0  0  0  0
    7.9617    0.6271   26.8172 C   0  0  0  0  0  0  0  0  0  0  0  0
    7.6636    0.6848   25.4493 C   0  0  0  0  0  0  0  0  0  0  0  0
    6.3288    0.6503   25.0170 C   0  0  0  0  0  0  0  0  0  0  0  0
    5.9950    0.8782   23.6015 C   0  0  0  0  0  0  0  0  0  0  0  0
    4.8580    1.2242   23.2933 O   0  0  0  0  0  0  0  0  0  0  0  0
    7.0992    0.9407   22.5305 C   0  0  0  0  0  0  0  0  0  0  0  0
    7.5993   -0.3633   22.0351 N   0  0  0  0  0  0  0  0  0  0  0  0
    7.4751   -0.8092   20.7335 C   0  0  0  0  0  0  0  0  0  0  0  0
    6.6829   -0.1320   19.7281 C   0  0  0  0  0  0  0  0  0  0  0  0
    5.5867    0.6710   20.0605 C   0  0  0  0  0  0  0  0  0  0  0  0
    5.0008    1.4106   19.0405 C   0  0  0  0  0  0  0  0  0  0  0  0
    5.4831    1.3001   17.7345 C   0  0  0  0  0  0  0  0  0  0  0  0
    6.5047    0.4865   17.4131 N   0  0  0  0  0  0  0  0  0  0  0  0
    7.0919   -0.2144   18.3963 C   0  0  0  0  0  0  0  0  0  0  0  0
    7.9435   -0.8381   18.1410 H   0  0  0  0  0  0  0  0  0  0  0  0
    5.0210    1.9018   16.9579 H   0  0  0  0  0  0  0  0  0  0  0  0
    4.1848    2.0915   19.2521 H   0  0  0  0  0  0  0  0  0  0  0  0
    5.2093    0.7492   21.0818 H   0  0  0  0  0  0  0  0  0  0  0  0
    8.2302   -1.8499   20.5038 N   0  0  0  0  0  0  0  0  0  0  0  0
    8.9221   -2.1277   21.7197 O   0  0  0  0  0  0  0  0  0  0  0  0
    8.5795   -1.1625   22.5919 C   0  0  0  0  0  0  0  0  0  0  0  0
    9.0585   -0.9856   23.7045 O   0  0  0  0  0  0  0  0  0  0  0  0
    7.9247    1.5246   22.9380 H   0  0  0  0  0  0  0  0  0  0  0  0
    6.7045    1.5273   21.6935 H   0  0  0  0  0  0  0  0  0  0  0  0
    5.3142    0.4516   25.9646 C   0  0  0  0  0  0  0  0  0  0  0  0
    5.6070    0.3773   27.3278 C   0  0  0  0  0  0  0  0  0  0  0  0
    4.1624    0.1198   28.5622 Br  0  0  0  0  0  0  0  0  0  0  0  0
    4.2776    0.3682   25.6524 H   0  0  0  0  0  0  0  0  0  0  0  0
    8.4706    0.7792   24.7245 H   0  0  0  0  0  0  0  0  0  0  0  0
    8.9946    0.6816   27.1546 H   0  0  0  0  0  0  0  0  0  0  0  0
    8.5878    0.1561   30.5893 H   0  0  0  0  0  0  0  0  0  0  0  0
    9.2176    0.1299   28.9208 H   0  0  0  0  0  0  0  0  0  0  0  0
    8.7903    1.6810   29.6935 H   0  0  0  0  0  0  0  0  0  0  0  0
  1  2  1  0
  2  3  1  0
  3  4  2  0
  4  5  1  0
  5  6  2  0
  6  7  1  0
  7  8  2  0
  7  9  1  0
  9 10  1  0
 10 11  1  0
 11 12  1  0
 12 13  2  0
 13 14  1  0
 14 15  2  0
 15 16  1  0
 16 17  2  0
 17 18  1  0
 15 19  1  0
 14 20  1  0
 13 21  1  0
 11 22  2  0
 22 23  1  0
 23 24  1  0
 24 25  2  0
  9 26  1  0
  9 27  1  0
  6 28  1  0
 28 29  2  0
 29 30  1  0
 28 31  1  0
  5 32  1  0
  4 33  1  0
  1 34  1  0
  1 35  1  0
  1 36  1  0
 29  3  1  0
 24 10  1  0
 17 12  1  0
M  END
>  <plip>  (1) 
-0.10344827586206896

>  <filename>  (1) 
[H][c]1[n][c]([H])[c](-[c]2[n][o][c](=[O])[n]2[C]([H])([H])[C](=[O])[c]2[c]([H])[c]([H])[c]([O][C]([H])([H])[H])[c]([Br])[c]2[H])[c]([H])[c]1[H]

$$$$
