
     RDKit          3D

 40 42  0  0  0  0  0  0  0  0999 V2000
    8.0980   -3.4131   22.5567 C   0  0  0  0  0  0  0  0  0  0  0  0
    8.8602   -2.5316   21.9130 C   0  0  0  0  0  0  0  0  0  0  0  0
    8.3030   -1.7024   20.7790 C   0  0  0  0  0  0  0  0  0  0  0  0
    7.3483   -0.5560   21.1719 C   0  0  1  0  0  0  0  0  0  0  0  0
    7.9898    0.4939   21.9558 N   0  0  0  0  0  0  0  0  0  0  0  0
    9.0322    1.2221   21.4890 C   0  0  0  0  0  0  0  0  0  0  0  0
    9.5872    0.9874   20.4259 O   0  0  0  0  0  0  0  0  0  0  0  0
    9.4791    2.3365   22.3634 C   0  0  0  0  0  0  0  0  0  0  0  0
    8.6348    2.9040   23.3618 C   0  0  0  0  0  0  0  0  0  0  0  0
    8.9775    3.8967   24.1447 N   0  0  0  0  0  0  0  0  0  0  0  0
   10.2312    4.4310   23.9737 C   0  0  0  0  0  0  0  0  0  0  0  0
   10.6760    5.5093   24.8040 C   0  0  0  0  0  0  0  0  0  0  0  0
    9.8538    5.9653   25.7586 F   0  0  0  0  0  0  0  0  0  0  0  0
   11.9151    6.0860   24.6528 C   0  0  0  0  0  0  0  0  0  0  0  0
   12.7936    5.6087   23.6350 C   0  0  0  0  0  0  0  0  0  0  0  0
   12.4295    4.5741   22.8117 C   0  0  0  0  0  0  0  0  0  0  0  0
   11.1495    3.9610   22.9719 C   0  0  0  0  0  0  0  0  0  0  0  0
   10.7253    2.8872   22.1534 C   0  0  0  0  0  0  0  0  0  0  0  0
   11.3638    2.5202   21.3459 H   0  0  0  0  0  0  0  0  0  0  0  0
   13.1001    4.2097   22.0282 H   0  0  0  0  0  0  0  0  0  0  0  0
   13.7653    6.0818   23.5134 H   0  0  0  0  0  0  0  0  0  0  0  0
   12.1926    6.8981   25.3197 H   0  0  0  0  0  0  0  0  0  0  0  0
    7.6187    2.5376   23.5022 H   0  0  0  0  0  0  0  0  0  0  0  0
    7.8474    0.5282   22.9481 H   0  0  0  0  0  0  0  0  0  0  0  0
    6.6423    0.0506   19.9600 C   0  0  0  0  0  0  0  0  0  0  0  0
    5.4159    0.6952   20.1572 C   0  0  0  0  0  0  0  0  0  0  0  0
    4.7882    1.3181   19.0788 C   0  0  0  0  0  0  0  0  0  0  0  0
    5.4107    1.2764   17.8284 C   0  0  0  0  0  0  0  0  0  0  0  0
    6.5758    0.6557   17.6077 N   0  0  0  0  0  0  0  0  0  0  0  0
    7.1747    0.0727   18.6597 C   0  0  0  0  0  0  0  0  0  0  0  0
    8.1301   -0.3999   18.4245 H   0  0  0  0  0  0  0  0  0  0  0  0
    4.9600    1.7760   16.9731 H   0  0  0  0  0  0  0  0  0  0  0  0
    3.8490    1.8440   19.2020 H   0  0  0  0  0  0  0  0  0  0  0  0
    4.9749    0.7112   21.1555 H   0  0  0  0  0  0  0  0  0  0  0  0
    6.5688   -0.9695   21.8344 H   0  0  0  0  0  0  0  0  0  0  0  0
    9.1015   -1.3042   20.1523 H   0  0  0  0  0  0  0  0  0  0  0  0
    7.6602   -2.3389   20.1747 H   0  0  0  0  0  0  0  0  0  0  0  0
    9.9023   -2.3713   22.2064 H   0  0  0  0  0  0  0  0  0  0  0  0
    8.4691   -4.0109   23.3836 H   0  0  0  0  0  0  0  0  0  0  0  0
    7.0608   -3.5567   22.2510 H   0  0  0  0  0  0  0  0  0  0  0  0
  1  2  2  3
  2  3  1  0
  3  4  1  0
  4  5  1  0
  5  6  1  0
  6  7  2  0
  6  8  1  0
  8  9  2  0
  9 10  1  0
 10 11  2  0
 11 12  1  0
 12 13  1  0
 12 14  2  0
 14 15  1  0
 15 16  2  0
 16 17  1  0
 17 18  2  0
 18 19  1  0
 16 20  1  0
 15 21  1  0
 14 22  1  0
  9 23  1  0
  5 24  1  0
  4 25  1  0
 25 26  2  0
 26 27  1  0
 27 28  2  0
 28 29  1  0
 29 30  2  0
 30 31  1  0
 28 32  1  0
 27 33  1  0
 26 34  1  0
  4 35  1  1
  3 36  1  0
  3 37  1  0
  2 38  1  0
  1 39  1  0
  1 40  1  0
 18  8  1  0
 30 25  1  0
 17 11  1  0
M  END
>  <plip>  (1) 
-0.10714285714285714

>  <filename>  (1) 
[H][C]([H])=[C]([H])[C]([H])([H])[C@]([H])([c]1[c]([H])[n][c]([H])[c]([H])[c]1[H])[N]([H])[C](=[O])[c]1[c]([H])[n][c]2[c]([F])[c]([H])[c]([H])[c]([H])[c]2[c]1[H]

$$$$
