
     RDKit          3D

 36 37  0  0  0  0  0  0  0  0999 V2000
    6.0449   -1.4353   22.0481 H   0  0  0  0  0  0  0  0  0  0  0  0
    6.6698   -0.7203   22.2178 O   0  0  0  0  0  0  0  0  0  0  0  0
    7.4626   -0.5812   21.0538 C   0  0  2  0  0  0  0  0  0  0  0  0
    6.6497    0.0404   19.9282 C   0  0  0  0  0  0  0  0  0  0  0  0
    7.1605    0.0487   18.6249 C   0  0  0  0  0  0  0  0  0  0  0  0
    8.0991   -0.4514   18.3866 H   0  0  0  0  0  0  0  0  0  0  0  0
    6.5695    0.6494   17.5816 N   0  0  0  0  0  0  0  0  0  0  0  0
    5.4179    1.2889   17.8172 C   0  0  0  0  0  0  0  0  0  0  0  0
    4.9769    1.8090   16.9712 H   0  0  0  0  0  0  0  0  0  0  0  0
    4.7928    1.3218   19.0696 C   0  0  0  0  0  0  0  0  0  0  0  0
    3.8547    1.8552   19.1960 H   0  0  0  0  0  0  0  0  0  0  0  0
    5.4220    0.6916   20.1429 C   0  0  0  0  0  0  0  0  0  0  0  0
    4.9813    0.7026   21.1407 H   0  0  0  0  0  0  0  0  0  0  0  0
    7.9826   -1.9605   20.6897 C   0  0  0  0  0  0  0  0  0  0  0  0
    7.1812   -2.5543   20.2431 H   0  0  0  0  0  0  0  0  0  0  0  0
    8.8195   -1.8868   19.9931 H   0  0  0  0  0  0  0  0  0  0  0  0
    8.3502   -2.4719   21.5809 H   0  0  0  0  0  0  0  0  0  0  0  0
    8.5950    0.3595   21.4743 C   0  0  0  0  0  0  0  0  0  0  0  0
    8.1686    1.3267   21.7374 H   0  0  0  0  0  0  0  0  0  0  0  0
    9.2993    0.5231   20.6575 H   0  0  0  0  0  0  0  0  0  0  0  0
    9.3295   -0.2637   22.6348 C   0  0  0  0  0  0  0  0  0  0  0  0
   10.1991   -1.0818   22.3969 O   0  0  0  0  0  0  0  0  0  0  0  0
    8.9456    0.0761   24.0533 C   0  0  0  0  0  0  0  0  0  0  0  0
    7.8109    0.8499   24.3554 C   0  0  0  0  0  0  0  0  0  0  0  0
    7.1570    1.2055   23.5703 H   0  0  0  0  0  0  0  0  0  0  0  0
    7.4699    1.1248   25.6776 C   0  0  0  0  0  0  0  0  0  0  0  0
    6.5751    1.7083   25.8744 H   0  0  0  0  0  0  0  0  0  0  0  0
    8.2390    0.6383   26.7437 C   0  0  0  0  0  0  0  0  0  0  0  0
    7.8510    0.9413   28.1691 C   0  0  0  0  0  0  0  0  0  0  0  0
    6.7652    0.9379   28.2974 H   0  0  0  0  0  0  0  0  0  0  0  0
    8.2054    1.9222   28.5023 H   0  0  0  0  0  0  0  0  0  0  0  0
    8.2582    0.2073   28.8651 H   0  0  0  0  0  0  0  0  0  0  0  0
    9.3575   -0.1563   26.4394 C   0  0  0  0  0  0  0  0  0  0  0  0
    9.9503   -0.5741   27.2496 H   0  0  0  0  0  0  0  0  0  0  0  0
    9.7107   -0.4298   25.1181 C   0  0  0  0  0  0  0  0  0  0  0  0
   10.5797   -1.0438   24.8946 H   0  0  0  0  0  0  0  0  0  0  0  0
  1  2  1  0
  3  2  1  1
  3  4  1  0
  4  5  2  0
  5  6  1  0
  5  7  1  0
  7  8  2  0
  8  9  1  0
  8 10  1  0
 10 11  1  0
 10 12  2  0
 12 13  1  0
  3 14  1  0
 14 15  1  0
 14 16  1  0
 14 17  1  0
  3 18  1  0
 18 19  1  0
 18 20  1  0
 18 21  1  0
 21 22  2  0
 21 23  1  0
 23 24  2  0
 24 25  1  0
 24 26  1  0
 26 27  1  0
 26 28  2  0
 28 29  1  0
 29 30  1  0
 29 31  1  0
 29 32  1  0
 28 33  1  0
 33 34  1  0
 33 35  2  0
 35 36  1  0
 12  4  1  0
 35 23  1  0
M  END
>  <plip>  (1) 
-0.06896551724137931

>  <filename>  (1) 
[H][O][C@]([c]1[c]([H])[n][c]([H])[c]([H])[c]1[H])([C]([H])([H])[H])[C]([H])([H])[C](=[O])[c]1[c]([H])[c]([H])[c]([C]([H])([H])[H])[c]([H])[c]1[H]

$$$$
