
     RDKit          3D

 38 40  0  0  0  0  0  0  0  0999 V2000
    9.2735   -2.5038   23.6694 H   0  0  0  0  0  0  0  0  0  0  0  0
    8.7131   -1.9824   22.9045 C   0  0  0  0  0  0  0  0  0  0  0  0
    9.2489   -1.9397   21.6898 N   0  0  0  0  0  0  0  0  0  0  0  0
    8.5786   -1.2962   20.7231 N   0  0  0  0  0  0  0  0  0  0  0  0
    7.3913   -0.7177   20.9916 C   0  0  0  0  0  0  0  0  0  0  0  0
    6.6650    0.0018   19.9229 C   0  0  0  0  0  0  0  0  0  0  0  0
    7.1840    0.0482   18.6228 C   0  0  0  0  0  0  0  0  0  0  0  0
    8.1285   -0.4324   18.3811 H   0  0  0  0  0  0  0  0  0  0  0  0
    6.5739    0.6631   17.6052 N   0  0  0  0  0  0  0  0  0  0  0  0
    5.4127    1.2815   17.8524 C   0  0  0  0  0  0  0  0  0  0  0  0
    4.9322    1.7714   17.0061 H   0  0  0  0  0  0  0  0  0  0  0  0
    4.8146    1.3026   19.1154 C   0  0  0  0  0  0  0  0  0  0  0  0
    3.8829    1.8370   19.2593 H   0  0  0  0  0  0  0  0  0  0  0  0
    5.4406    0.6493   20.1714 C   0  0  0  0  0  0  0  0  0  0  0  0
    5.0009    0.6351   21.1714 H   0  0  0  0  0  0  0  0  0  0  0  0
    6.7941   -0.7566   22.1998 N   0  0  0  0  0  0  0  0  0  0  0  0
    7.4603   -1.3898   23.1692 C   0  0  0  0  0  0  0  0  0  0  0  0
    6.9038   -1.4311   24.5750 C   0  0  0  0  0  0  0  0  0  0  0  0
    5.8472   -1.1249   24.5242 H   0  0  0  0  0  0  0  0  0  0  0  0
    6.9163   -2.4671   24.9388 H   0  0  0  0  0  0  0  0  0  0  0  0
    7.7117   -0.6092   25.5022 N   0  0  0  0  0  0  0  0  0  0  0  0
    7.4611   -0.9199   26.9247 C   0  0  0  0  0  0  0  0  0  0  0  0
    7.5353   -2.0025   27.0710 H   0  0  0  0  0  0  0  0  0  0  0  0
    8.2592   -0.4622   27.5219 H   0  0  0  0  0  0  0  0  0  0  0  0
    6.1061   -0.4138   27.4544 C   0  0  0  0  0  0  0  0  0  0  0  0
    6.0141   -0.6545   28.5204 H   0  0  0  0  0  0  0  0  0  0  0  0
    5.2901   -0.9613   26.9373 H   0  0  0  0  0  0  0  0  0  0  0  0
    5.9802    1.0413   27.2775 N   0  0  0  0  0  0  0  0  0  0  0  0
    4.7138    1.5272   27.7929 C   0  0  0  0  0  0  0  0  0  0  0  0
    4.6576    2.6150   27.6769 H   0  0  0  0  0  0  0  0  0  0  0  0
    4.6370    1.2980   28.8615 H   0  0  0  0  0  0  0  0  0  0  0  0
    3.8394    1.0783   27.2781 H   0  0  0  0  0  0  0  0  0  0  0  0
    6.1437    1.3742   25.8553 C   0  0  0  0  0  0  0  0  0  0  0  0
    6.1087    2.4645   25.7373 H   0  0  0  0  0  0  0  0  0  0  0  0
    5.3081    0.9727   25.2435 H   0  0  0  0  0  0  0  0  0  0  0  0
    7.4832    0.8457   25.2980 C   0  0  0  0  0  0  0  0  0  0  0  0
    8.2985    1.3912   25.7868 H   0  0  0  0  0  0  0  0  0  0  0  0
    7.5361    1.0612   24.2267 H   0  0  0  0  0  0  0  0  0  0  0  0
  1  2  1  0
  2  3  2  0
  3  4  1  0
  4  5  2  0
  5  6  1  0
  6  7  2  0
  7  8  1  0
  7  9  1  0
  9 10  2  0
 10 11  1  0
 10 12  1  0
 12 13  1  0
 12 14  2  0
 14 15  1  0
  5 16  1  0
 16 17  2  0
 17 18  1  0
 18 19  1  0
 18 20  1  0
 18 21  1  0
 21 22  1  0
 22 23  1  0
 22 24  1  0
 22 25  1  0
 25 26  1  0
 25 27  1  0
 25 28  1  0
 28 29  1  0
 29 30  1  0
 29 31  1  0
 29 32  1  0
 28 33  1  0
 33 34  1  0
 33 35  1  0
 33 36  1  0
 36 37  1  0
 36 38  1  0
 17  2  1  0
 36 21  1  0
 14  6  1  0
M  END
>  <plip>  (1) 
-0.03571428571428571

>  <filename>  (1) 
[H][c]1[n][n][c](-[c]2[c]([H])[n][c]([H])[c]([H])[c]2[H])[n][c]1[C]([H])([H])[N]1[C]([H])([H])[C]([H])([H])[N]([C]([H])([H])[H])[C]([H])([H])[C]1([H])[H]

$$$$
