
     RDKit          3D

 26 28  0  0  0  0  0  0  0  0999 V2000
    4.7174   -1.5123   25.8981 O   0  0  0  0  0  0  0  0  0  0  0  0
    5.8387   -1.3457   25.5169 C   0  0  0  0  0  0  0  0  0  0  0  0
    6.7830   -0.2106   25.8355 C   0  0  0  0  0  0  0  0  0  0  0  0
    8.1152   -0.5600   25.1771 C   0  0  0  0  0  0  0  0  0  0  0  0
    7.7690   -1.7898   24.2912 C   0  0  2  0  0  0  0  0  0  0  0  0
    7.8690   -1.5188   22.8123 C   0  0  0  0  0  0  0  0  0  0  0  0
    8.8406   -1.8509   22.0293 N   0  0  0  0  0  0  0  0  0  0  0  0
    8.5395   -1.3245   20.7831 N   0  0  0  0  0  0  0  0  0  0  0  0
    7.4127   -0.7032   20.9119 C   0  0  0  0  0  0  0  0  0  0  0  0
    6.6493    0.0160   19.9000 C   0  0  0  0  0  0  0  0  0  0  0  0
    5.4301    0.6556   20.1689 C   0  0  0  0  0  0  0  0  0  0  0  0
    4.8028    1.3102   19.1113 C   0  0  0  0  0  0  0  0  0  0  0  0
    5.4054    1.2894   17.8448 C   0  0  0  0  0  0  0  0  0  0  0  0
    6.5692    0.6743   17.5817 N   0  0  0  0  0  0  0  0  0  0  0  0
    7.1739    0.0613   18.6005 C   0  0  0  0  0  0  0  0  0  0  0  0
    8.1207   -0.4293   18.3835 H   0  0  0  0  0  0  0  0  0  0  0  0
    4.9211    1.7754   17.0017 H   0  0  0  0  0  0  0  0  0  0  0  0
    3.8703    1.8457   19.2590 H   0  0  0  0  0  0  0  0  0  0  0  0
    4.9929    0.6377   21.1719 H   0  0  0  0  0  0  0  0  0  0  0  0
    6.9322   -0.7732   22.1778 O   0  0  0  0  0  0  0  0  0  0  0  0
    6.4663   -2.2258   24.6910 O   0  0  0  0  0  0  0  0  0  0  0  0
    8.4580   -2.6151   24.4732 H   0  0  0  0  0  0  0  0  0  0  0  0
    8.5278    0.2732   24.5978 H   0  0  0  0  0  0  0  0  0  0  0  0
    8.8699   -0.8380   25.9203 H   0  0  0  0  0  0  0  0  0  0  0  0
    6.8436   -0.1141   26.9166 H   0  0  0  0  0  0  0  0  0  0  0  0
    6.3361    0.7098   25.4623 H   0  0  0  0  0  0  0  0  0  0  0  0
  1  2  2  0
  2  3  1  0
  3  4  1  0
  4  5  1  0
  5  6  1  0
  6  7  2  0
  7  8  1  0
  8  9  2  0
  9 10  1  0
 10 11  2  0
 11 12  1  0
 12 13  2  0
 13 14  1  0
 14 15  2  0
 15 16  1  0
 13 17  1  0
 12 18  1  0
 11 19  1  0
  9 20  1  0
  5 21  1  0
  5 22  1  1
  4 23  1  0
  4 24  1  0
  3 25  1  0
  3 26  1  0
 21  2  1  0
 20  6  1  0
 15 10  1  0
M  END
>  <plip>  (1) 
-0.0

>  <filename>  (1) 
[H][c]1[n][c]([H])[c](-[c]2[n][n][c]([C@]3([H])[O][C](=[O])[C]([H])([H])[C]3([H])[H])[o]2)[c]([H])[c]1[H]

$$$$
