
     RDKit          3D

 27 29  0  0  0  0  0  0  0  0999 V2000
    7.0346    0.8625   22.6088 O   0  0  0  0  0  0  0  0  0  0  0  0
    7.3986   -0.2491   22.2568 C   0  0  0  0  0  0  0  0  0  0  0  0
    7.3734   -0.6592   20.9421 N   0  0  0  0  0  0  0  0  0  0  0  0
    6.6765    0.0025   19.8912 C   0  0  0  0  0  0  0  0  0  0  0  0
    5.4584    0.6498   20.1461 C   0  0  0  0  0  0  0  0  0  0  0  0
    4.8097    1.3004   19.0898 C   0  0  0  0  0  0  0  0  0  0  0  0
    5.3966    1.2933   17.8193 C   0  0  0  0  0  0  0  0  0  0  0  0
    6.5589    0.6734   17.5548 N   0  0  0  0  0  0  0  0  0  0  0  0
    7.1744    0.0500   18.5695 C   0  0  0  0  0  0  0  0  0  0  0  0
    8.1262   -0.4235   18.3358 H   0  0  0  0  0  0  0  0  0  0  0  0
    4.9256    1.8034   16.9809 H   0  0  0  0  0  0  0  0  0  0  0  0
    3.8783    1.8345   19.2480 H   0  0  0  0  0  0  0  0  0  0  0  0
    5.0596    0.6457   21.1588 H   0  0  0  0  0  0  0  0  0  0  0  0
    7.8325   -1.5456   20.7721 H   0  0  0  0  0  0  0  0  0  0  0  0
    7.9330   -1.2817   23.2998 C   0  0  0  0  0  0  0  0  0  0  0  0
    8.2338   -2.5601   22.9695 N   0  0  0  0  0  0  0  0  0  0  0  0
    8.6341   -3.3976   23.9454 C   0  0  0  0  0  0  0  0  0  0  0  0
    8.8023   -3.1095   25.2335 N   0  0  0  0  0  0  0  0  0  0  0  0
    8.5207   -1.8399   25.5169 C   0  0  0  0  0  0  0  0  0  0  0  0
    8.0759   -0.8469   24.6284 C   0  0  0  0  0  0  0  0  0  0  0  0
    7.8998    0.3641   25.3976 C   0  0  0  0  0  0  0  0  0  0  0  0
    8.2482    0.0541   26.6794 C   0  0  0  0  0  0  0  0  0  0  0  0
    8.6171   -1.2737   26.7426 N   0  0  0  0  0  0  0  0  0  0  0  0
    8.9369   -1.8187   27.5209 H   0  0  0  0  0  0  0  0  0  0  0  0
    8.2734    0.6764   27.5636 H   0  0  0  0  0  0  0  0  0  0  0  0
    7.5547    1.3105   25.0002 H   0  0  0  0  0  0  0  0  0  0  0  0
    8.8378   -4.4249   23.6349 H   0  0  0  0  0  0  0  0  0  0  0  0
  1  2  2  0
  2  3  1  0
  3  4  1  0
  4  5  2  0
  5  6  1  0
  6  7  2  0
  7  8  1  0
  8  9  2  0
  9 10  1  0
  7 11  1  0
  6 12  1  0
  5 13  1  0
  3 14  1  0
  2 15  1  0
 15 16  2  0
 16 17  1  0
 17 18  2  0
 18 19  1  0
 19 20  2  0
 20 21  1  0
 21 22  2  0
 22 23  1  0
 23 24  1  0
 22 25  1  0
 21 26  1  0
 17 27  1  0
  9  4  1  0
 20 15  1  0
 23 19  1  0
M  END
>  <plip>  (1) 
-0.0

>  <filename>  (1) 
[H][c]1[n][c]([C](=[O])[N]([H])[c]2[c]([H])[n][c]([H])[c]([H])[c]2[H])[c]2[c]([H])[c]([H])[n]([H])[c]2[n]1

$$$$
