
     RDKit          3D

 46 48  0  0  0  0  0  0  0  0999 V2000
    4.7235    3.9496   21.7310 C   0  0  0  0  0  0  0  0  0  0  0  0
    6.0556    4.5263   22.2326 C   0  0  0  0  0  0  0  0  0  0  0  0
    6.0041    4.7062   23.7396 C   0  0  0  0  0  0  0  0  0  0  0  0
    5.6081    5.9349   24.2885 C   0  0  0  0  0  0  0  0  0  0  0  0
    5.3827    6.0788   25.6591 C   0  0  0  0  0  0  0  0  0  0  0  0
    5.5462    4.9798   26.5037 C   0  0  0  0  0  0  0  0  0  0  0  0
    5.9478    3.7538   25.9743 C   0  0  0  0  0  0  0  0  0  0  0  0
    6.2061    3.6019   24.6003 C   0  0  0  0  0  0  0  0  0  0  0  0
    6.6149    2.2614   24.0517 C   0  0  2  0  0  0  0  0  0  0  0  0
    7.6277    1.4258   24.7628 C   0  0  0  0  0  0  0  0  0  0  0  0
    7.9798    2.0235   23.4200 C   0  0  1  0  0  0  0  0  0  0  0  0
    8.1510    1.1862   22.1875 C   0  0  0  0  0  0  0  0  0  0  0  0
    8.8504    1.5029   21.2541 O   0  0  0  0  0  0  0  0  0  0  0  0
    7.4439    0.0229   22.2174 O   0  0  0  0  0  0  0  0  0  0  0  0
    7.3955   -0.7516   20.9976 C   0  0  0  0  0  0  0  0  0  0  0  0
    6.7932   -2.1590   21.2733 C   0  0  0  0  0  0  0  0  0  0  0  0
    7.1804   -3.1556   20.7190 O   0  0  0  0  0  0  0  0  0  0  0  0
    5.7894   -2.1364   22.1466 O   0  0  0  0  0  0  0  0  0  0  0  0
    5.0519   -3.3380   22.3815 C   0  0  0  0  0  0  0  0  0  0  0  0
    4.5796   -3.6742   21.4566 H   0  0  0  0  0  0  0  0  0  0  0  0
    5.6940   -4.1327   22.7695 H   0  0  0  0  0  0  0  0  0  0  0  0
    4.2877   -3.0889   23.1197 H   0  0  0  0  0  0  0  0  0  0  0  0
    6.6497    0.0209   19.9108 C   0  0  0  0  0  0  0  0  0  0  0  0
    5.4302    0.6749   20.1397 C   0  0  0  0  0  0  0  0  0  0  0  0
    4.7995    1.3122   19.0713 C   0  0  0  0  0  0  0  0  0  0  0  0
    5.4172    1.2985   17.8156 C   0  0  0  0  0  0  0  0  0  0  0  0
    6.5885    0.6939   17.5781 N   0  0  0  0  0  0  0  0  0  0  0  0
    7.1821    0.0862   18.6159 C   0  0  0  0  0  0  0  0  0  0  0  0
    8.1441   -0.3854   18.4070 H   0  0  0  0  0  0  0  0  0  0  0  0
    4.9429    1.7868   16.9678 H   0  0  0  0  0  0  0  0  0  0  0  0
    3.8495    1.8256   19.1898 H   0  0  0  0  0  0  0  0  0  0  0  0
    4.9762    0.7075   21.1347 H   0  0  0  0  0  0  0  0  0  0  0  0
    8.4152   -0.9799   20.6589 H   0  0  0  0  0  0  0  0  0  0  0  0
    8.6484    2.8769   23.3821 H   0  0  0  0  0  0  0  0  0  0  0  0
    8.0932    1.8598   25.6460 H   0  0  0  0  0  0  0  0  0  0  0  0
    7.4588    0.3532   24.7977 H   0  0  0  0  0  0  0  0  0  0  0  0
    5.7929    1.7256   23.5762 H   0  0  0  0  0  0  0  0  0  0  0  0
    6.0508    2.8815   26.6141 H   0  0  0  0  0  0  0  0  0  0  0  0
    5.3583    5.0759   27.5682 H   0  0  0  0  0  0  0  0  0  0  0  0
    5.0807    7.0396   26.0630 H   0  0  0  0  0  0  0  0  0  0  0  0
    5.4735    6.7885   23.6274 H   0  0  0  0  0  0  0  0  0  0  0  0
    6.8855    3.8623   21.9567 H   0  0  0  0  0  0  0  0  0  0  0  0
    6.2558    5.4874   21.7445 H   0  0  0  0  0  0  0  0  0  0  0  0
    3.9343    4.7109   21.7593 H   0  0  0  0  0  0  0  0  0  0  0  0
    4.7826    3.5568   20.7129 H   0  0  0  0  0  0  0  0  0  0  0  0
    4.4095    3.1199   22.3749 H   0  0  0  0  0  0  0  0  0  0  0  0
  1  2  1  0
  2  3  1  0
  3  4  2  0
  4  5  1  0
  5  6  2  0
  6  7  1  0
  7  8  2  0
  8  9  1  0
  9 10  1  0
 10 11  1  0
 11 12  1  0
 12 13  2  0
 12 14  1  0
 14 15  1  0
 15 16  1  0
 16 17  2  0
 16 18  1  0
 18 19  1  0
 19 20  1  0
 19 21  1  0
 19 22  1  0
 15 23  1  0
 23 24  2  0
 24 25  1  0
 25 26  2  0
 26 27  1  0
 27 28  2  0
 28 29  1  0
 26 30  1  0
 25 31  1  0
 24 32  1  0
 15 33  1  0
 11 34  1  1
 10 35  1  0
 10 36  1  0
  9 37  1  6
  7 38  1  0
  6 39  1  0
  5 40  1  0
  4 41  1  0
  2 42  1  0
  2 43  1  0
  1 44  1  0
  1 45  1  0
  1 46  1  0
  8  3  1  0
 11  9  1  0
 28 23  1  0
M  END
>  <plip>  (1) 
-0.034482758620689655

>  <filename>  (1) 
[H][c]1[n][c]([H])[c]([C]([H])([O][C](=[O])[C@]2([H])[C]([H])([H])[C@@]2([H])[c]2[c]([H])[c]([H])[c]([H])[c]([H])[c]2[C]([H])([H])[C]([H])([H])[H])[C](=[O])[O][C]([H])([H])[H])[c]([H])[c]1[H]

$$$$
