
     RDKit          3D

 34 36  0  0  0  0  0  0  0  0999 V2000
    8.6623   -1.1988   20.5380 O   0  0  0  0  0  0  0  0  0  0  0  0
    7.3648   -0.7913   21.0213 C   0  0  0  0  0  0  0  0  0  0  0  0
    6.6806   -0.0108   19.9166 C   0  0  0  0  0  0  0  0  0  0  0  0
    5.4685    0.6437   20.1514 C   0  0  0  0  0  0  0  0  0  0  0  0
    4.8675    1.3079   19.0856 C   0  0  0  0  0  0  0  0  0  0  0  0
    5.4734    1.3033   17.8271 C   0  0  0  0  0  0  0  0  0  0  0  0
    6.6311    0.6607   17.5933 N   0  0  0  0  0  0  0  0  0  0  0  0
    7.2178    0.0174   18.6163 C   0  0  0  0  0  0  0  0  0  0  0  0
    8.1455   -0.5096   18.4169 H   0  0  0  0  0  0  0  0  0  0  0  0
    4.9880    1.8337   17.0130 H   0  0  0  0  0  0  0  0  0  0  0  0
    3.9324    1.8368   19.2202 H   0  0  0  0  0  0  0  0  0  0  0  0
    5.0048    0.6298   21.1380 H   0  0  0  0  0  0  0  0  0  0  0  0
    7.4176   -0.0317   22.3500 C   0  0  0  0  0  0  0  0  0  0  0  0
    6.8288   -0.4379   23.4582 N   0  0  0  0  0  0  0  0  0  0  0  0
    7.0729    0.5306   24.4216 C   0  0  0  0  0  0  0  0  0  0  0  0
    7.8177    1.5409   23.8950 C   0  0  0  0  0  0  0  0  0  0  0  0
    8.0479    1.1949   22.5806 N   0  0  0  0  0  0  0  0  0  0  0  0
    8.8921    1.9549   21.6427 C   0  0  0  0  0  0  0  0  0  0  0  0
   10.2476    2.2701   22.2437 C   0  0  0  0  0  0  0  0  0  0  0  0
   10.6714    3.5982   22.4472 C   0  0  0  0  0  0  0  0  0  0  0  0
   11.9839    3.8734   22.8362 C   0  0  0  0  0  0  0  0  0  0  0  0
   12.7937    2.7812   23.1217 C   0  0  0  0  0  0  0  0  0  0  0  0
   12.2990    1.4864   22.9807 C   0  0  0  0  0  0  0  0  0  0  0  0
   13.4587    0.0336   23.3788 Br  0  0  0  0  0  0  0  0  0  0  0  0
   11.0636    1.2413   22.5225 N   0  0  0  0  0  0  0  0  0  0  0  0
   13.8113    2.9108   23.4658 H   0  0  0  0  0  0  0  0  0  0  0  0
   12.3622    4.8929   22.9230 H   0  0  0  0  0  0  0  0  0  0  0  0
    9.9822    4.4175   22.2753 H   0  0  0  0  0  0  0  0  0  0  0  0
    9.0506    1.3580   20.7405 H   0  0  0  0  0  0  0  0  0  0  0  0
    8.3896    2.8764   21.3362 H   0  0  0  0  0  0  0  0  0  0  0  0
    8.1630    2.4284   24.4146 H   0  0  0  0  0  0  0  0  0  0  0  0
    6.7207    0.4888   25.4475 H   0  0  0  0  0  0  0  0  0  0  0  0
    6.7774   -1.6914   21.2228 H   0  0  0  0  0  0  0  0  0  0  0  0
    9.2060   -0.4348   20.2849 H   0  0  0  0  0  0  0  0  0  0  0  0
  1  2  1  0
  2  3  1  0
  3  4  2  0
  4  5  1  0
  5  6  2  0
  6  7  1  0
  7  8  2  0
  8  9  1  0
  6 10  1  0
  5 11  1  0
  4 12  1  0
  2 13  1  0
 13 14  2  0
 14 15  1  0
 15 16  2  0
 16 17  1  0
 17 18  1  0
 18 19  1  0
 19 20  2  0
 20 21  1  0
 21 22  2  0
 22 23  1  0
 23 24  1  0
 23 25  2  0
 22 26  1  0
 21 27  1  0
 20 28  1  0
 18 29  1  0
 18 30  1  0
 16 31  1  0
 15 32  1  0
  2 33  1  0
  1 34  1  0
  8  3  1  0
 17 13  1  0
 25 19  1  0
M  END
>  <plip>  (1) 
-0.03571428571428571

>  <filename>  (1) 
[H][O][C]([H])([c]1[c]([H])[n][c]([H])[c]([H])[c]1[H])[c]1[n][c]([H])[c]([H])[n]1[C]([H])([H])[c]1[n][c]([Br])[c]([H])[c]([H])[c]1[H]

$$$$
