
     RDKit          3D

 37 39  0  0  0  0  0  0  0  0999 V2000
    6.3035   -2.7070   21.2011 H   0  0  0  0  0  0  0  0  0  0  0  0
    6.6837   -1.8270   21.7211 C   0  0  0  0  0  0  0  0  0  0  0  0
    6.5376   -1.5692   23.0223 C   0  0  0  0  0  0  0  0  0  0  0  0
    5.9482   -2.4071   23.9706 N   0  0  0  0  0  0  0  0  0  0  0  0
    5.6104   -3.2780   23.5896 H   0  0  0  0  0  0  0  0  0  0  0  0
    5.3858   -2.0794   25.2299 C   0  0  0  0  0  0  0  0  0  0  0  0
    4.7263   -0.8688   25.5065 C   0  0  0  0  0  0  0  0  0  0  0  0
    4.6822   -0.0951   24.7475 H   0  0  0  0  0  0  0  0  0  0  0  0
    4.1459   -0.6398   26.7598 C   0  0  0  0  0  0  0  0  0  0  0  0
    3.5827    0.2785   26.9257 H   0  0  0  0  0  0  0  0  0  0  0  0
    4.2761   -1.5614   27.8110 C   0  0  0  0  0  0  0  0  0  0  0  0
    3.7475   -1.2362   29.1955 C   0  0  0  0  0  0  0  0  0  0  0  0
    4.3849   -1.6759   29.9739 H   0  0  0  0  0  0  0  0  0  0  0  0
    3.7204   -0.1503   29.3558 H   0  0  0  0  0  0  0  0  0  0  0  0
    2.7257   -1.6080   29.3564 H   0  0  0  0  0  0  0  0  0  0  0  0
    4.9265   -2.7772   27.5276 C   0  0  0  0  0  0  0  0  0  0  0  0
    5.0256   -3.5217   28.3202 H   0  0  0  0  0  0  0  0  0  0  0  0
    5.4426   -3.0467   26.2516 C   0  0  0  0  0  0  0  0  0  0  0  0
    5.9269   -3.9967   26.0397 H   0  0  0  0  0  0  0  0  0  0  0  0
    7.1047   -0.2224   23.3969 C   0  0  0  0  0  0  0  0  0  0  0  0
    7.7102   -0.2593   24.3071 H   0  0  0  0  0  0  0  0  0  0  0  0
    6.2957    0.4897   23.5860 H   0  0  0  0  0  0  0  0  0  0  0  0
    7.8906    0.2147   22.1408 C   0  0  0  0  0  0  0  0  0  0  0  0
    8.9695    0.1046   22.2915 H   0  0  0  0  0  0  0  0  0  0  0  0
    7.7300    1.2745   21.9145 H   0  0  0  0  0  0  0  0  0  0  0  0
    7.4269   -0.7303   20.9859 C   0  0  2  0  0  0  0  0  0  0  0  0
    8.3128   -1.1621   20.4969 H   0  0  0  0  0  0  0  0  0  0  0  0
    6.6505   -0.0290   19.8611 C   0  0  0  0  0  0  0  0  0  0  0  0
    7.1512    0.0211   18.5457 C   0  0  0  0  0  0  0  0  0  0  0  0
    8.0842   -0.4804   18.2917 H   0  0  0  0  0  0  0  0  0  0  0  0
    6.5656    0.6602   17.5219 N   0  0  0  0  0  0  0  0  0  0  0  0
    5.4187    1.3062   17.7762 C   0  0  0  0  0  0  0  0  0  0  0  0
    4.9622    1.8413   16.9405 H   0  0  0  0  0  0  0  0  0  0  0  0
    4.8186    1.3206   19.0385 C   0  0  0  0  0  0  0  0  0  0  0  0
    3.8880    1.8569   19.1842 H   0  0  0  0  0  0  0  0  0  0  0  0
    5.4462    0.6504   20.0937 C   0  0  0  0  0  0  0  0  0  0  0  0
    4.9990    0.6540   21.0889 H   0  0  0  0  0  0  0  0  0  0  0  0
  1  2  1  0
  2  3  2  0
  3  4  1  0
  4  5  1  0
  4  6  1  0
  6  7  2  0
  7  8  1  0
  7  9  1  0
  9 10  1  0
  9 11  2  0
 11 12  1  0
 12 13  1  0
 12 14  1  0
 12 15  1  0
 11 16  1  0
 16 17  1  0
 16 18  2  0
 18 19  1  0
  3 20  1  0
 20 21  1  0
 20 22  1  0
 20 23  1  0
 23 24  1  0
 23 25  1  0
 23 26  1  0
 26 27  1  6
 26 28  1  0
 28 29  2  0
 29 30  1  0
 29 31  1  0
 31 32  2  0
 32 33  1  0
 32 34  1  0
 34 35  1  0
 34 36  2  0
 36 37  1  0
 26  2  1  0
 36 28  1  0
 18  6  1  0
M  END
>  <plip>  (1) 
-0.03571428571428571

>  <filename>  (1) 
[H][C]1=[C]([N]([H])[c]2[c]([H])[c]([H])[c]([C]([H])([H])[H])[c]([H])[c]2[H])[C]([H])([H])[C]([H])([H])[C@]1([H])[c]1[c]([H])[n][c]([H])[c]([H])[c]1[H]

$$$$
