
     RDKit          3D

 40 42  0  0  0  0  0  0  0  0999 V2000
    5.7211   -6.8960   18.3275 C   0  0  0  0  0  0  0  0  0  0  0  0
    5.6652   -5.9969   19.5043 C   0  0  0  0  0  0  0  0  0  0  0  0
    5.8244   -4.7008   19.4364 N   0  0  0  0  0  0  0  0  0  0  0  0
    5.9763   -4.2611   20.7328 C   0  0  0  0  0  0  0  0  0  0  0  0
    6.0942   -2.8000   21.0884 C   0  0  0  0  0  0  0  0  0  0  0  0
    7.4522   -2.0995   20.7690 N   0  0  0  0  0  4  0  0  0  0  0  0
    8.6471   -2.8028   21.4284 C   0  0  0  0  0  0  0  0  0  0  0  0
    9.0419   -2.1202   22.7466 C   0  0  0  0  0  0  0  0  0  0  0  0
    9.5268   -0.6760   22.4907 N   0  0  0  0  0  4  0  0  0  0  0  0
    8.8154   -0.0235   21.2591 C   0  0  0  0  0  0  0  0  0  0  0  0
    7.3834   -0.5688   21.0534 C   0  0  0  0  0  0  0  0  0  0  0  0
    6.6296    0.0619   19.9134 C   0  0  0  0  0  0  0  0  0  0  0  0
    5.4167    0.7416   20.1154 C   0  0  0  0  0  0  0  0  0  0  0  0
    4.8058    1.3658   19.0261 C   0  0  0  0  0  0  0  0  0  0  0  0
    5.4244    1.2904   17.7760 C   0  0  0  0  0  0  0  0  0  0  0  0
    6.5577    0.6041   17.5563 N   0  0  0  0  0  0  0  0  0  0  0  0
    7.1186   -0.0138   18.5994 C   0  0  0  0  0  0  0  0  0  0  0  0
    8.0221   -0.5878   18.3716 H   0  0  0  0  0  0  0  0  0  0  0  0
    4.9953    1.7950   16.9111 H   0  0  0  0  0  0  0  0  0  0  0  0
    3.8768    1.9168   19.1323 H   0  0  0  0  0  0  0  0  0  0  0  0
    4.9542    0.7640   21.1041 H   0  0  0  0  0  0  0  0  0  0  0  0
    6.8261   -0.4411   21.9910 H   0  0  0  0  0  0  0  0  0  0  0  0
    9.3853   -0.2584   20.3568 H   0  0  0  0  0  0  0  0  0  0  0  0
    8.7887    1.0559   21.3724 H   0  0  0  0  0  0  0  0  0  0  0  0
   10.5647   -0.7031   22.3396 H   0  0  0  0  0  0  0  0  0  0  0  0
    9.3578   -0.0645   23.3242 H   0  0  0  0  0  0  0  0  0  0  0  0
    8.1626   -2.1040   23.3974 H   0  0  0  0  0  0  0  0  0  0  0  0
    9.8167   -2.7006   23.2439 H   0  0  0  0  0  0  0  0  0  0  0  0
    8.3798   -3.8415   21.6124 H   0  0  0  0  0  0  0  0  0  0  0  0
    9.5025   -2.7859   20.7410 H   0  0  0  0  0  0  0  0  0  0  0  0
    7.5241   -2.1637   19.7224 H   0  0  0  0  0  0  0  0  0  0  0  0
    5.3287   -2.2617   20.5242 H   0  0  0  0  0  0  0  0  0  0  0  0
    5.8603   -2.6808   22.1541 H   0  0  0  0  0  0  0  0  0  0  0  0
    5.8735   -5.3157   21.5963 C   0  0  0  0  0  0  0  0  0  0  0  0
    5.6602   -6.4211   20.7950 N   0  0  0  0  0  0  0  0  0  0  0  0
    5.4939   -7.3735   21.0756 H   0  0  0  0  0  0  0  0  0  0  0  0
    5.9592   -5.3602   22.6746 H   0  0  0  0  0  0  0  0  0  0  0  0
    6.7723   -6.9945   18.0742 H   0  0  0  0  0  0  0  0  0  0  0  0
    5.2675   -7.8622   18.4773 H   0  0  0  0  0  0  0  0  0  0  0  0
    5.2436   -6.4693   17.4601 H   0  0  0  0  0  0  0  0  0  0  0  0
  1  2  1  0
  2  3  2  0
  3  4  1  0
  4  5  1  0
  5  6  1  0
  6  7  1  0
  7  8  1  0
  8  9  1  0
  9 10  1  0
 10 11  1  0
 11 12  1  0
 12 13  2  0
 13 14  1  0
 14 15  2  0
 15 16  1  0
 16 17  2  0
 17 18  1  0
 15 19  1  0
 14 20  1  0
 13 21  1  0
 11 22  1  0
 10 23  1  0
 10 24  1  0
  9 25  1  0
  9 26  1  0
  8 27  1  0
  8 28  1  0
  7 29  1  0
  7 30  1  0
  6 31  1  0
  5 32  1  0
  5 33  1  0
  4 34  2  0
 34 35  1  0
 35 36  1  0
 34 37  1  0
  1 38  1  0
  1 39  1  0
  1 40  1  0
 35  2  1  0
 11  6  1  0
 17 12  1  0
M  CHG  2   6   1   9   1
M  END
>  <plip>  (1) 
-0.13333333333333333

>  <filename>  (1) 
[H][c]1[n][c]([H])[c]([C]2([H])[C]([H])([H])[N+]([H])([H])[C]([H])([H])[C]([H])([H])[N+]2([H])[C]([H])([H])[c]2[n][c]([C]([H])([H])[H])[n]([H])[c]2[H])[c]([H])[c]1[H]

$$$$
