
     RDKit          3D

 40 43  0  0  0  0  0  0  0  0999 V2000
    4.9047    1.7555   17.0742 H   0  0  0  0  0  0  0  0  0  0  0  0
    5.4160    1.3313   17.9339 C   0  0  0  0  0  0  0  0  0  0  0  0
    6.6492    0.8567   17.7099 N   0  0  0  0  0  0  0  0  0  0  0  0
    7.3077    0.3443   18.7548 C   0  0  0  0  0  0  0  0  0  0  0  0
    8.3278    0.0372   18.5405 H   0  0  0  0  0  0  0  0  0  0  0  0
    6.7825    0.2120   20.0758 C   0  0  0  0  0  0  0  0  0  0  0  0
    7.5783   -0.4541   21.1936 C   0  0  0  0  0  0  0  0  0  0  0  0
    6.9366   -0.7449   22.5612 C   0  0  0  0  0  0  0  0  0  0  0  0
    6.7344   -1.8167   23.0598 O   0  0  0  0  0  0  0  0  0  0  0  0
    6.7405    0.5185   23.2070 O   0  0  0  0  0  0  0  0  0  0  0  0
    6.1732    0.4601   24.4799 N   0  0  0  0  0  0  0  0  0  0  0  0
    7.1889    1.0814   25.3923 C   0  0  0  0  0  0  0  0  0  0  0  0
    7.5618    1.9960   24.9018 H   0  0  0  0  0  0  0  0  0  0  0  0
    8.0436    0.3967   25.4383 H   0  0  0  0  0  0  0  0  0  0  0  0
    6.6195    1.3834   26.7773 C   0  0  0  0  0  0  0  0  0  0  0  0
    7.4899    1.6184   27.8499 C   0  0  0  0  0  0  0  0  0  0  0  0
    8.5606    1.5554   27.6809 H   0  0  0  0  0  0  0  0  0  0  0  0
    6.9922    1.9237   29.1205 C   0  0  0  0  0  0  0  0  0  0  0  0
    7.6856    2.1088   29.9365 H   0  0  0  0  0  0  0  0  0  0  0  0
    5.6123    1.9982   29.3300 C   0  0  0  0  0  0  0  0  0  0  0  0
    5.2241    2.2468   30.3175 H   0  0  0  0  0  0  0  0  0  0  0  0
    4.7357    1.7690   28.2622 C   0  0  0  0  0  0  0  0  0  0  0  0
    3.6618    1.8300   28.4290 H   0  0  0  0  0  0  0  0  0  0  0  0
    5.2230    1.4597   26.9835 C   0  0  0  0  0  0  0  0  0  0  0  0
    4.2792    1.1614   25.8186 C   0  0  0  0  0  0  0  0  0  0  0  0
    3.3763    1.7775   25.8912 H   0  0  0  0  0  0  0  0  0  0  0  0
    3.9684    0.1067   25.8753 H   0  0  0  0  0  0  0  0  0  0  0  0
    4.9795    1.3607   24.4710 C   0  0  0  0  0  0  0  0  0  0  0  0
    4.3511    1.0837   23.6228 H   0  0  0  0  0  0  0  0  0  0  0  0
    5.2875    2.4098   24.2986 H   0  0  0  0  0  0  0  0  0  0  0  0
    8.5851   -1.5222   20.7371 C   0  0  0  0  0  0  0  0  0  0  0  0
    8.6810   -1.6764   19.6715 H   0  0  0  0  0  0  0  0  0  0  0  0
    8.6924   -2.4293   21.3279 H   0  0  0  0  0  0  0  0  0  0  0  0
    9.0995   -0.2345   21.2507 C   0  0  0  0  0  0  0  0  0  0  0  0
    9.5865   -0.2342   22.2223 H   0  0  0  0  0  0  0  0  0  0  0  0
    9.5154    0.4713   20.5362 H   0  0  0  0  0  0  0  0  0  0  0  0
    5.5025    0.7566   20.2771 C   0  0  0  0  0  0  0  0  0  0  0  0
    5.0409    0.7807   21.2683 H   0  0  0  0  0  0  0  0  0  0  0  0
    4.8205    1.3241   19.1995 C   0  0  0  0  0  0  0  0  0  0  0  0
    3.8426    1.7691   19.3249 H   0  0  0  0  0  0  0  0  0  0  0  0
  1  2  1  0
  2  3  2  0
  3  4  1  0
  4  5  1  0
  4  6  2  0
  6  7  1  0
  7  8  1  0
  8  9  2  0
  8 10  1  0
 10 11  1  0
 11 12  1  0
 12 13  1  0
 12 14  1  0
 12 15  1  0
 15 16  2  0
 16 17  1  0
 16 18  1  0
 18 19  1  0
 18 20  2  0
 20 21  1  0
 20 22  1  0
 22 23  1  0
 22 24  2  0
 24 25  1  0
 25 26  1  0
 25 27  1  0
 25 28  1  0
 28 29  1  0
 28 30  1  0
  7 31  1  0
 31 32  1  0
 31 33  1  0
 31 34  1  0
 34 35  1  0
 34 36  1  0
  6 37  1  0
 37 38  1  0
 37 39  2  0
 39 40  1  0
 39  2  1  0
 34  7  1  0
 28 11  1  0
 24 15  1  0
M  END
>  <plip>  (1) 
-0.07142857142857142

>  <filename>  (1) 
[H][c]1[n][c]([H])[c]([C]2([C](=[O])[O][N]3[C]([H])([H])[c]4[c]([H])[c]([H])[c]([H])[c]([H])[c]4[C]([H])([H])[C]3([H])[H])[C]([H])([H])[C]2([H])[H])[c]([H])[c]1[H]

$$$$
