
     RDKit          3D

 43 44  0  0  0  0  0  0  0  0999 V2000
   10.2444   -5.3978   27.1205 C   0  0  0  0  0  0  0  0  0  0  0  0
    9.5612   -4.6695   25.9876 C   0  0  0  0  0  0  0  0  0  0  0  0
   10.4999   -4.0059   25.1672 O   0  0  0  0  0  0  0  0  0  0  0  0
    9.9120   -3.2204   24.1510 C   0  0  0  0  0  0  0  0  0  0  0  0
    9.7671   -1.7802   24.6469 C   0  0  0  0  0  0  0  0  0  0  0  0
    8.8848   -0.9425   23.7792 N   0  0  0  0  0  4  0  0  0  0  0  0
    8.5171    0.3511   24.4671 C   0  0  0  0  0  0  0  0  0  0  0  0
    7.5641    1.1714   23.5984 C   0  0  0  0  0  0  0  0  0  0  0  0
    8.1759    1.4457   22.2088 C   0  0  0  0  0  0  0  0  0  0  0  0
    8.6024    0.1420   21.5007 C   0  0  0  0  0  0  0  0  0  0  0  0
    7.4140   -0.7100   20.9924 C   0  0  0  0  0  0  0  0  0  0  0  0
    6.6287   -0.0319   19.8875 C   0  0  0  0  0  0  0  0  0  0  0  0
    5.4173    0.6389   20.1231 C   0  0  0  0  0  0  0  0  0  0  0  0
    4.7821    1.3156   19.0755 C   0  0  0  0  0  0  0  0  0  0  0  0
    5.3832    1.3073   17.8170 C   0  0  0  0  0  0  0  0  0  0  0  0
    6.5429    0.6819   17.5633 N   0  0  0  0  0  0  0  0  0  0  0  0
    7.1430    0.0455   18.5780 C   0  0  0  0  0  0  0  0  0  0  0  0
    8.1043   -0.4124   18.3352 H   0  0  0  0  0  0  0  0  0  0  0  0
    4.9285    1.8276   16.9726 H   0  0  0  0  0  0  0  0  0  0  0  0
    3.8564    1.8617   19.2222 H   0  0  0  0  0  0  0  0  0  0  0  0
    4.9918    0.6553   21.1271 H   0  0  0  0  0  0  0  0  0  0  0  0
    7.8138   -1.6691   20.6340 H   0  0  0  0  0  0  0  0  0  0  0  0
    6.7557   -0.9639   21.8356 H   0  0  0  0  0  0  0  0  0  0  0  0
    9.5186   -0.6701   22.4215 C   0  0  0  0  0  0  0  0  0  0  0  0
   10.4607   -0.1276   22.5893 H   0  0  0  0  0  0  0  0  0  0  0  0
    9.7657   -1.6286   21.9526 H   0  0  0  0  0  0  0  0  0  0  0  0
    9.2020    0.3960   20.6161 H   0  0  0  0  0  0  0  0  0  0  0  0
    9.0632    2.0886   22.3235 H   0  0  0  0  0  0  0  0  0  0  0  0
    7.4755    2.0026   21.5719 H   0  0  0  0  0  0  0  0  0  0  0  0
    6.6093    0.6314   23.4934 H   0  0  0  0  0  0  0  0  0  0  0  0
    7.3317    2.1100   24.1151 H   0  0  0  0  0  0  0  0  0  0  0  0
    9.4438    0.9166   24.6550 H   0  0  0  0  0  0  0  0  0  0  0  0
    8.0742    0.1186   25.4440 H   0  0  0  0  0  0  0  0  0  0  0  0
    7.9802   -1.4450   23.6033 H   0  0  0  0  0  0  0  0  0  0  0  0
    9.3652   -1.8104   25.6682 H   0  0  0  0  0  0  0  0  0  0  0  0
   10.7686   -1.3240   24.7182 H   0  0  0  0  0  0  0  0  0  0  0  0
   10.5675   -3.2698   23.2733 H   0  0  0  0  0  0  0  0  0  0  0  0
    8.9159   -3.5929   23.8367 H   0  0  0  0  0  0  0  0  0  0  0  0
    8.7972   -3.9642   26.3578 H   0  0  0  0  0  0  0  0  0  0  0  0
    9.0307   -5.4261   25.3887 H   0  0  0  0  0  0  0  0  0  0  0  0
    9.4529   -5.8061   27.7600 H   0  0  0  0  0  0  0  0  0  0  0  0
   10.9103   -4.7944   27.7374 H   0  0  0  0  0  0  0  0  0  0  0  0
   10.8402   -6.2171   26.7077 H   0  0  0  0  0  0  0  0  0  0  0  0
  1  2  1  0
  2  3  1  0
  3  4  1  0
  4  5  1  0
  5  6  1  0
  6  7  1  0
  7  8  1  0
  8  9  1  0
  9 10  1  0
 10 11  1  0
 11 12  1  0
 12 13  2  0
 13 14  1  0
 14 15  2  0
 15 16  1  0
 16 17  2  0
 17 18  1  0
 15 19  1  0
 14 20  1  0
 13 21  1  0
 11 22  1  0
 11 23  1  0
 10 24  1  0
 24 25  1  0
 24 26  1  0
 10 27  1  0
  9 28  1  0
  9 29  1  0
  8 30  1  0
  8 31  1  0
  7 32  1  0
  7 33  1  0
  6 34  1  0
  5 35  1  0
  5 36  1  0
  4 37  1  0
  4 38  1  0
  2 39  1  0
  2 40  1  0
  1 41  1  0
  1 42  1  0
  1 43  1  0
 24  6  1  0
 17 12  1  0
M  CHG  1   6   1
M  END
>  <plip>  (1) 
-0.0

>  <filename>  (1) 
[H][c]1[n][c]([H])[c]([C]([H])([H])[C]2([H])[C]([H])([H])[C]([H])([H])[C]([H])([H])[N+]([H])([C]([H])([H])[C]([H])([H])[O][C]([H])([H])[C]([H])([H])[H])[C]2([H])[H])[c]([H])[c]1[H]

$$$$
