
     RDKit          3D

 41 44  0  0  0  0  0  0  0  0999 V2000
    9.7521    2.5943   24.6261 F   0  0  0  0  0  0  0  0  0  0  0  0
    9.4473    3.7086   23.8707 C   0  0  0  0  0  0  0  0  0  0  0  0
    8.9461    4.8616   24.6868 C   0  0  0  0  0  0  0  0  0  0  0  0
    7.6591    4.8421   25.2498 C   0  0  0  0  0  0  0  0  0  0  0  0
    7.1717    5.9614   25.9324 C   0  0  0  0  0  0  0  0  0  0  0  0
    7.9660    7.1023   26.0826 C   0  0  0  0  0  0  0  0  0  0  0  0
    9.2609    7.1170   25.5532 C   0  0  0  0  0  0  0  0  0  0  0  0
    9.7478    6.0003   24.8731 C   0  0  0  0  0  0  0  0  0  0  0  0
   10.7662    5.9892   24.4952 H   0  0  0  0  0  0  0  0  0  0  0  0
    9.8979    7.9835   25.6957 H   0  0  0  0  0  0  0  0  0  0  0  0
    7.5939    7.9510   26.6499 H   0  0  0  0  0  0  0  0  0  0  0  0
    6.1805    5.9262   26.3732 H   0  0  0  0  0  0  0  0  0  0  0  0
    7.0489    3.9467   25.1608 H   0  0  0  0  0  0  0  0  0  0  0  0
   10.2984    3.9210   22.6677 C   0  0  0  0  0  0  0  0  0  0  0  0
    8.8684    3.4818   22.4769 C   0  0  0  0  0  0  0  0  0  0  0  0
    8.6413    2.1260   21.9320 N   0  0  0  0  0  4  0  0  0  0  0  0
    7.6696    1.2342   22.6695 C   0  0  0  0  0  0  0  0  0  0  0  0
    7.8814   -0.1657   22.1924 C   0  0  0  0  0  0  0  0  0  0  0  0
    8.4674   -1.2608   22.8012 C   0  0  0  0  0  0  0  0  0  0  0  0
    8.4225   -2.2793   21.8260 C   0  0  0  0  0  0  0  0  0  0  0  0
    7.8485   -1.8690   20.7129 N   0  0  0  0  0  0  0  0  0  0  0  0
    7.4950   -0.5869   20.9412 N   0  0  0  0  0  0  0  0  0  0  0  0
    6.7390    0.0696   19.9366 C   0  0  0  0  0  0  0  0  0  0  0  0
    5.5072    0.6934   20.1795 C   0  0  0  0  0  0  0  0  0  0  0  0
    4.8697    1.3156   19.1006 C   0  0  0  0  0  0  0  0  0  0  0  0
    5.4752    1.2880   17.8417 C   0  0  0  0  0  0  0  0  0  0  0  0
    6.6305    0.6428   17.6001 N   0  0  0  0  0  0  0  0  0  0  0  0
    7.2270    0.0252   18.6209 C   0  0  0  0  0  0  0  0  0  0  0  0
    8.1269   -0.5432   18.3879 H   0  0  0  0  0  0  0  0  0  0  0  0
    5.0157    1.7869   16.9905 H   0  0  0  0  0  0  0  0  0  0  0  0
    3.9202    1.8241   19.2303 H   0  0  0  0  0  0  0  0  0  0  0  0
    5.0361    0.6493   21.1638 H   0  0  0  0  0  0  0  0  0  0  0  0
    8.7689   -3.3043   21.8888 H   0  0  0  0  0  0  0  0  0  0  0  0
    8.9123   -1.3122   23.7882 H   0  0  0  0  0  0  0  0  0  0  0  0
    7.8640    1.2871   23.7407 H   0  0  0  0  0  0  0  0  0  0  0  0
    6.6473    1.5819   22.5017 H   0  0  0  0  0  0  0  0  0  0  0  0
    8.3259    2.1740   20.9353 H   0  0  0  0  0  0  0  0  0  0  0  0
    9.5512    1.6046   21.9469 H   0  0  0  0  0  0  0  0  0  0  0  0
    8.1706    4.2449   22.1546 H   0  0  0  0  0  0  0  0  0  0  0  0
   10.5594    4.9441   22.4322 H   0  0  0  0  0  0  0  0  0  0  0  0
   11.0654    3.2032   22.4103 H   0  0  0  0  0  0  0  0  0  0  0  0
  1  2  1  0
  2  3  1  0
  3  4  2  0
  4  5  1  0
  5  6  2  0
  6  7  1  0
  7  8  2  0
  8  9  1  0
  7 10  1  0
  6 11  1  0
  5 12  1  0
  4 13  1  0
  2 14  1  0
 14 15  1  0
 15 16  1  0
 16 17  1  0
 17 18  1  0
 18 19  2  0
 19 20  1  0
 20 21  2  0
 21 22  1  0
 22 23  1  0
 23 24  2  0
 24 25  1  0
 25 26  2  0
 26 27  1  0
 27 28  2  0
 28 29  1  0
 26 30  1  0
 25 31  1  0
 24 32  1  0
 20 33  1  0
 19 34  1  0
 17 35  1  0
 17 36  1  0
 16 37  1  0
 16 38  1  0
 15 39  1  0
 14 40  1  0
 14 41  1  0
 15  2  1  0
 22 18  1  0
 28 23  1  0
  8  3  1  0
M  CHG  1  16   1
M  END
>  <plip>  (1) 
-0.07142857142857142

>  <filename>  (1) 
[H][c]1[n][c]([H])[c](-[n]2[n][c]([H])[c]([H])[c]2[C]([H])([H])[N+]([H])([H])[C]2([H])[C]([H])([H])[C]2([F])[c]2[c]([H])[c]([H])[c]([H])[c]([H])[c]2[H])[c]([H])[c]1[H]

$$$$
