
     RDKit          3D

 39 40  0  0  0  0  0  0  0  0999 V2000
   11.8076    3.2085   24.3753 C   0  0  0  0  0  0  0  0  0  0  0  0
   10.4224    2.8730   23.8471 C   0  0  0  0  0  0  0  0  0  0  0  0
    9.9640    3.9880   22.9318 C   0  0  0  0  0  0  0  0  0  0  0  0
    9.0159    3.7401   22.4508 H   0  0  0  0  0  0  0  0  0  0  0  0
   10.7293    4.1425   22.1708 H   0  0  0  0  0  0  0  0  0  0  0  0
    9.8466    4.9135   23.5052 H   0  0  0  0  0  0  0  0  0  0  0  0
    9.4065    2.6333   24.9608 C   0  0  0  0  0  0  0  0  0  0  0  0
    9.2557    3.5633   25.5183 H   0  0  0  0  0  0  0  0  0  0  0  0
    8.4481    2.3189   24.5352 H   0  0  0  0  0  0  0  0  0  0  0  0
    9.7451    1.8626   25.6567 H   0  0  0  0  0  0  0  0  0  0  0  0
   10.5005    1.7056   22.9729 O   0  0  0  0  0  0  0  0  0  0  0  0
   10.9150    0.5427   23.4990 C   0  0  0  0  0  0  0  0  0  0  0  0
   11.3680    0.3836   24.6065 O   0  0  0  0  0  0  0  0  0  0  0  0
   10.7839   -0.6105   22.5020 C   0  0  0  0  0  0  0  0  0  0  0  0
    9.4089   -1.0563   22.1989 N   0  0  0  0  0  0  0  0  0  0  0  0
    8.6996   -0.4165   21.2005 C   0  0  0  0  0  0  0  0  0  0  0  0
    7.3939   -0.6862   20.9404 C   0  0  0  0  0  0  0  0  0  0  0  0
    6.6658    0.0320   19.8535 C   0  0  0  0  0  0  0  0  0  0  0  0
    5.4370    0.6670   20.1015 C   0  0  0  0  0  0  0  0  0  0  0  0
    4.7902    1.3371   19.0586 C   0  0  0  0  0  0  0  0  0  0  0  0
    5.3830    1.3300   17.7919 C   0  0  0  0  0  0  0  0  0  0  0  0
    6.5480    0.7203   17.5206 N   0  0  0  0  0  0  0  0  0  0  0  0
    7.1702    0.1084   18.5343 C   0  0  0  0  0  0  0  0  0  0  0  0
    8.1101   -0.3828   18.2844 H   0  0  0  0  0  0  0  0  0  0  0  0
    4.9026    1.8268   16.9521 H   0  0  0  0  0  0  0  0  0  0  0  0
    3.8481    1.8590   19.2082 H   0  0  0  0  0  0  0  0  0  0  0  0
    5.0105    0.6142   21.1042 H   0  0  0  0  0  0  0  0  0  0  0  0
    6.7193   -1.7342   21.7556 C   0  0  0  0  0  0  0  0  0  0  0  0
    5.6164   -2.2200   21.6052 O   0  0  0  0  0  0  0  0  0  0  0  0
    7.4873   -2.2265   22.7844 N   0  0  0  0  0  0  0  0  0  0  0  0
    8.7976   -2.0122   23.0368 C   0  0  0  0  0  0  0  0  0  0  0  0
    9.3668   -2.6059   23.9206 O   0  0  0  0  0  0  0  0  0  0  0  0
    7.0506   -2.9150   23.3647 H   0  0  0  0  0  0  0  0  0  0  0  0
    9.2590    0.3285   20.6269 H   0  0  0  0  0  0  0  0  0  0  0  0
   11.2547   -0.2727   21.5764 H   0  0  0  0  0  0  0  0  0  0  0  0
   11.3571   -1.4384   22.9143 H   0  0  0  0  0  0  0  0  0  0  0  0
   12.1304    2.4429   25.0785 H   0  0  0  0  0  0  0  0  0  0  0  0
   12.5258    3.2476   23.5508 H   0  0  0  0  0  0  0  0  0  0  0  0
   11.7931    4.1879   24.8656 H   0  0  0  0  0  0  0  0  0  0  0  0
  1  2  1  0
  2  3  1  0
  3  4  1  0
  3  5  1  0
  3  6  1  0
  2  7  1  0
  7  8  1  0
  7  9  1  0
  7 10  1  0
  2 11  1  0
 11 12  1  0
 12 13  2  0
 12 14  1  0
 14 15  1  0
 15 16  1  0
 16 17  2  0
 17 18  1  0
 18 19  2  0
 19 20  1  0
 20 21  2  0
 21 22  1  0
 22 23  2  0
 23 24  1  0
 21 25  1  0
 20 26  1  0
 19 27  1  0
 17 28  1  0
 28 29  2  0
 28 30  1  0
 30 31  1  0
 31 32  2  0
 30 33  1  0
 16 34  1  0
 14 35  1  0
 14 36  1  0
  1 37  1  0
  1 38  1  0
  1 39  1  0
 31 15  1  0
 23 18  1  0
M  END
>  <plip>  (1) 
-0.07142857142857142

>  <filename>  (1) 
[H][c]1[n][c]([H])[c](-[c]2[c]([H])[n]([C]([H])([H])[C](=[O])[O][C]([C]([H])([H])[H])([C]([H])([H])[H])[C]([H])([H])[H])[c](=[O])[n]([H])[c]2=[O])[c]([H])[c]1[H]

$$$$
