
     RDKit          3D

 35 37  0  0  0  0  0  0  0  0999 V2000
    5.7034   -4.6015   21.3949 O   0  0  0  0  0  0  0  0  0  0  0  0
    6.6721   -4.2748   22.0547 C   0  0  0  0  0  0  0  0  0  0  0  0
    7.1758   -5.1395   22.9938 N   0  0  0  0  0  0  0  0  0  0  0  0
    8.4013   -5.0244   23.6749 C   0  0  0  0  0  0  0  0  0  0  0  0
    8.7390   -5.9070   24.7103 C   0  0  0  0  0  0  0  0  0  0  0  0
   10.0070   -5.8487   25.2952 C   0  0  0  0  0  0  0  0  0  0  0  0
   10.9364   -4.8997   24.8578 C   0  0  0  0  0  0  0  0  0  0  0  0
   10.5682   -3.9875   23.8648 C   0  0  0  0  0  0  0  0  0  0  0  0
    9.2926   -4.0070   23.2812 C   0  0  0  0  0  0  0  0  0  0  0  0
    8.8931   -2.9739   22.2342 C   0  0  0  0  0  0  0  0  0  0  0  0
    7.3631   -2.8730   22.0396 C   0  0  0  0  0  0  0  0  0  0  0  0
    7.0093   -1.9580   20.8404 N   0  0  0  0  0  4  0  0  0  0  0  0
    7.3059   -0.4818   20.9994 C   0  0  0  0  0  0  0  0  0  0  0  0
    6.5808    0.1795   19.8718 C   0  0  0  0  0  0  0  0  0  0  0  0
    5.3839    0.8836   20.0505 C   0  0  0  0  0  0  0  0  0  0  0  0
    4.7648    1.4479   18.9333 C   0  0  0  0  0  0  0  0  0  0  0  0
    5.3656    1.3010   17.6810 C   0  0  0  0  0  0  0  0  0  0  0  0
    6.4942    0.6036   17.4886 N   0  0  0  0  0  0  0  0  0  0  0  0
    7.0660    0.0483   18.5623 C   0  0  0  0  0  0  0  0  0  0  0  0
    7.9776   -0.5143   18.3586 H   0  0  0  0  0  0  0  0  0  0  0  0
    4.9212    1.7479   16.7914 H   0  0  0  0  0  0  0  0  0  0  0  0
    3.8400    2.0048   19.0203 H   0  0  0  0  0  0  0  0  0  0  0  0
    4.9496    0.9757   21.0480 H   0  0  0  0  0  0  0  0  0  0  0  0
    6.9635   -0.1243   21.9759 H   0  0  0  0  0  0  0  0  0  0  0  0
    8.3840   -0.2977   20.9408 H   0  0  0  0  0  0  0  0  0  0  0  0
    7.5036   -2.2725   19.9587 H   0  0  0  0  0  0  0  0  0  0  0  0
    5.9790   -2.0252   20.6234 H   0  0  0  0  0  0  0  0  0  0  0  0
    6.9485   -2.4084   22.9444 H   0  0  0  0  0  0  0  0  0  0  0  0
    9.2711   -1.9849   22.5364 H   0  0  0  0  0  0  0  0  0  0  0  0
    9.3585   -3.2105   21.2665 H   0  0  0  0  0  0  0  0  0  0  0  0
   11.3098   -3.2973   23.4681 H   0  0  0  0  0  0  0  0  0  0  0  0
   11.9350   -4.9047   25.2908 H   0  0  0  0  0  0  0  0  0  0  0  0
   10.2876   -6.5715   26.0598 H   0  0  0  0  0  0  0  0  0  0  0  0
    7.9954   -6.6037   25.0813 H   0  0  0  0  0  0  0  0  0  0  0  0
    6.6376   -5.9917   22.9979 H   0  0  0  0  0  0  0  0  0  0  0  0
  1  2  2  0
  2  3  1  0
  3  4  1  0
  4  5  2  0
  5  6  1  0
  6  7  2  0
  7  8  1  0
  8  9  2  0
  9 10  1  0
 10 11  1  0
 11 12  1  0
 12 13  1  0
 13 14  1  0
 14 15  2  0
 15 16  1  0
 16 17  2  0
 17 18  1  0
 18 19  2  0
 19 20  1  0
 17 21  1  0
 16 22  1  0
 15 23  1  0
 13 24  1  0
 13 25  1  0
 12 26  1  0
 12 27  1  0
 11 28  1  0
 10 29  1  0
 10 30  1  0
  8 31  1  0
  7 32  1  0
  6 33  1  0
  5 34  1  0
  3 35  1  0
 11  2  1  0
 19 14  1  0
  9  4  1  0
M  CHG  1  12   1
M  END
>  <plip>  (1) 
-0.20689655172413793

>  <filename>  (1) 
[H][c]1[n][c]([H])[c]([C]([H])([H])[N+]([H])([H])[C]2([H])[C](=[O])[N]([H])[c]3[c]([H])[c]([H])[c]([H])[c]([H])[c]3[C]2([H])[H])[c]([H])[c]1[H]

$$$$
