
     RDKit          3D

 46 47  0  0  0  0  0  0  0  0999 V2000
    4.4471   -0.3716   25.3844 C   0  0  0  0  0  0  0  0  0  0  0  0
    5.1186   -0.5260   26.7442 C   0  0  0  0  0  0  0  0  0  0  0  0
    6.0441   -1.6459   26.7905 N   0  0  0  0  0  0  0  0  0  0  0  0
    7.4715   -1.4602   26.9823 C   0  0  0  0  0  0  0  0  0  0  0  0
    8.3595   -1.7015   25.7455 C   0  0  0  0  0  0  0  0  0  0  0  0
    8.0694   -0.8323   24.6020 N   0  0  0  0  0  0  0  0  0  0  0  0
    7.9467   -1.2954   23.3266 C   0  0  0  0  0  0  0  0  0  0  0  0
    8.2106   -2.4474   23.0080 O   0  0  0  0  0  0  0  0  0  0  0  0
    7.3953   -0.2060   22.2718 C   0  0  0  0  0  0  0  0  0  0  0  0
    7.0296    0.9023   22.6373 O   0  0  0  0  0  0  0  0  0  0  0  0
    7.3690   -0.6291   20.9689 N   0  0  0  0  0  0  0  0  0  0  0  0
    6.6740    0.0142   19.9005 C   0  0  0  0  0  0  0  0  0  0  0  0
    5.4539    0.6537   20.1441 C   0  0  0  0  0  0  0  0  0  0  0  0
    4.8045    1.3012   19.0859 C   0  0  0  0  0  0  0  0  0  0  0  0
    5.3993    1.2900   17.8187 C   0  0  0  0  0  0  0  0  0  0  0  0
    6.5602    0.6671   17.5608 N   0  0  0  0  0  0  0  0  0  0  0  0
    7.1769    0.0471   18.5785 C   0  0  0  0  0  0  0  0  0  0  0  0
    8.1260   -0.4291   18.3396 H   0  0  0  0  0  0  0  0  0  0  0  0
    4.9328    1.8040   16.9795 H   0  0  0  0  0  0  0  0  0  0  0  0
    3.8720    1.8364   19.2406 H   0  0  0  0  0  0  0  0  0  0  0  0
    5.0431    0.6498   21.1512 H   0  0  0  0  0  0  0  0  0  0  0  0
    7.8334   -1.5124   20.8123 H   0  0  0  0  0  0  0  0  0  0  0  0
    7.7799    0.1283   24.7440 H   0  0  0  0  0  0  0  0  0  0  0  0
    8.2379   -2.7439   25.4237 H   0  0  0  0  0  0  0  0  0  0  0  0
    9.4065   -1.5787   26.0590 H   0  0  0  0  0  0  0  0  0  0  0  0
    7.6314   -0.4352   27.3514 H   0  0  0  0  0  0  0  0  0  0  0  0
    7.8362   -2.1453   27.7637 H   0  0  0  0  0  0  0  0  0  0  0  0
    5.5237   -2.9666   26.6947 C   0  0  0  0  0  0  0  0  0  0  0  0
    5.4966   -3.6088   25.4450 C   0  0  0  0  0  0  0  0  0  0  0  0
    4.9839   -4.9077   25.3149 C   0  0  0  0  0  0  0  0  0  0  0  0
    4.5034   -5.5702   26.4473 C   0  0  0  0  0  0  0  0  0  0  0  0
    4.5273   -4.9308   27.6940 C   0  0  0  0  0  0  0  0  0  0  0  0
    5.0126   -3.6197   27.8434 C   0  0  0  0  0  0  0  0  0  0  0  0
    4.9319   -2.9271   29.1923 C   0  0  0  0  0  0  0  0  0  0  0  0
    3.9527   -2.4543   29.3514 H   0  0  0  0  0  0  0  0  0  0  0  0
    5.6844   -2.1363   29.2801 H   0  0  0  0  0  0  0  0  0  0  0  0
    5.0812   -3.6445   30.0047 H   0  0  0  0  0  0  0  0  0  0  0  0
    4.1575   -5.4426   28.5801 H   0  0  0  0  0  0  0  0  0  0  0  0
    4.1016   -6.5783   26.3640 H   0  0  0  0  0  0  0  0  0  0  0  0
    4.9633   -5.3934   24.3405 H   0  0  0  0  0  0  0  0  0  0  0  0
    5.8756   -3.0545   24.5866 H   0  0  0  0  0  0  0  0  0  0  0  0
    4.3509   -0.6122   27.5346 H   0  0  0  0  0  0  0  0  0  0  0  0
    5.7008    0.3777   26.9625 H   0  0  0  0  0  0  0  0  0  0  0  0
    3.8006    0.5109   25.3620 H   0  0  0  0  0  0  0  0  0  0  0  0
    5.2094   -0.2568   24.6066 H   0  0  0  0  0  0  0  0  0  0  0  0
    3.8352   -1.2532   25.1559 H   0  0  0  0  0  0  0  0  0  0  0  0
  1  2  1  0
  2  3  1  0
  3  4  1  0
  4  5  1  0
  5  6  1  0
  6  7  1  0
  7  8  2  0
  7  9  1  0
  9 10  2  0
  9 11  1  0
 11 12  1  0
 12 13  2  0
 13 14  1  0
 14 15  2  0
 15 16  1  0
 16 17  2  0
 17 18  1  0
 15 19  1  0
 14 20  1  0
 13 21  1  0
 11 22  1  0
  6 23  1  0
  5 24  1  0
  5 25  1  0
  4 26  1  0
  4 27  1  0
  3 28  1  0
 28 29  2  0
 29 30  1  0
 30 31  2  0
 31 32  1  0
 32 33  2  0
 33 34  1  0
 34 35  1  0
 34 36  1  0
 34 37  1  0
 32 38  1  0
 31 39  1  0
 30 40  1  0
 29 41  1  0
  2 42  1  0
  2 43  1  0
  1 44  1  0
  1 45  1  0
  1 46  1  0
 17 12  1  0
 33 28  1  0
M  END
>  <plip>  (1) 
-0.0

>  <filename>  (1) 
[H][c]1[n][c]([H])[c]([N]([H])[C](=[O])[C](=[O])[N]([H])[C]([H])([H])[C]([H])([H])[N]([c]2[c]([H])[c]([H])[c]([H])[c]([H])[c]2[C]([H])([H])[H])[C]([H])([H])[C]([H])([H])[H])[c]([H])[c]1[H]

$$$$
