
     RDKit          3D

 27 29  0  0  0  0  0  0  0  0999 V2000
    9.4447   -0.0761   27.3346 H   0  0  0  0  0  0  0  0  0  0  0  0
    9.2482   -0.7320   26.4975 C   0  0  0  0  0  0  0  0  0  0  0  0
    9.2177   -2.0533   26.4197 C   0  0  0  0  0  0  0  0  0  0  0  0
    9.3800   -2.8148   27.1671 H   0  0  0  0  0  0  0  0  0  0  0  0
    8.9662   -2.4474   25.0055 C   0  0  0  0  0  0  0  0  0  0  0  0
    9.0277   -3.5573   24.5432 O   0  0  0  0  0  0  0  0  0  0  0  0
    8.6754   -1.2584   24.3045 N   0  0  0  0  0  0  0  0  0  0  0  0
    8.2399   -1.1890   22.9491 C   0  0  0  0  0  0  0  0  0  0  0  0
    8.5925   -2.0823   21.9998 C   0  0  0  0  0  0  0  0  0  0  0  0
    9.1343   -2.9968   22.1919 H   0  0  0  0  0  0  0  0  0  0  0  0
    8.1822   -1.6938   20.7319 N   0  0  0  0  0  0  0  0  0  0  0  0
    7.7877   -2.4078   20.1206 H   0  0  0  0  0  0  0  0  0  0  0  0
    7.3163   -0.6107   20.9436 N   0  0  0  0  0  0  0  0  0  0  0  0
    6.6481    0.0051   19.8543 C   0  0  0  0  0  0  0  0  0  0  0  0
    7.1640   -0.0002   18.5388 C   0  0  0  0  0  0  0  0  0  0  0  0
    8.0948   -0.5200   18.3296 H   0  0  0  0  0  0  0  0  0  0  0  0
    6.5766    0.6192   17.5079 N   0  0  0  0  0  0  0  0  0  0  0  0
    5.4277    1.2753   17.7460 C   0  0  0  0  0  0  0  0  0  0  0  0
    4.9791    1.7964   16.9030 H   0  0  0  0  0  0  0  0  0  0  0  0
    4.8158    1.3066   19.0035 C   0  0  0  0  0  0  0  0  0  0  0  0
    3.8828    1.8436   19.1426 H   0  0  0  0  0  0  0  0  0  0  0  0
    5.4345    0.6732   20.0816 C   0  0  0  0  0  0  0  0  0  0  0  0
    5.0147    0.6997   21.0842 H   0  0  0  0  0  0  0  0  0  0  0  0
    7.3285   -0.1913   22.2898 C   0  0  0  0  0  0  0  0  0  0  0  0
    6.6966    0.7471   22.7284 O   0  0  0  0  0  0  0  0  0  0  0  0
    8.9589   -0.1594   25.1482 C   0  0  0  0  0  0  0  0  0  0  0  0
    8.9983    0.9991   24.8483 O   0  0  0  0  0  0  0  0  0  0  0  0
  1  2  1  0
  2  3  2  0
  3  4  1  0
  3  5  1  0
  5  6  2  0
  5  7  1  0
  7  8  1  0
  8  9  2  0
  9 10  1  0
  9 11  1  0
 11 12  1  0
 11 13  1  0
 13 14  1  0
 14 15  2  0
 15 16  1  0
 15 17  1  0
 17 18  2  0
 18 19  1  0
 18 20  1  0
 20 21  1  0
 20 22  2  0
 22 23  1  0
 13 24  1  0
 24 25  2  0
  7 26  1  0
 26 27  2  0
 26  2  1  0
 24  8  1  0
 22 14  1  0
M  END
>  <plip>  (1) 
-0.06666666666666667

>  <filename>  (1) 
[H][C]1=[C]([H])[C](=[O])[N]([c]2[c]([H])[n]([H])[n](-[c]3[c]([H])[n][c]([H])[c]([H])[c]3[H])[c]2=[O])[C]1=[O]

$$$$
