
     RDKit          3D

 46 48  0  0  0  0  0  0  0  0999 V2000
    7.4882   -6.1941   28.1211 C   0  0  0  0  0  0  0  0  0  0  0  0
    6.1525   -6.3576   27.4316 C   0  0  0  0  0  0  0  0  0  0  0  0
    5.2585   -7.3649   27.7934 C   0  0  0  0  0  0  0  0  0  0  0  0
    4.0563   -7.5695   27.2445 N   0  0  0  0  0  0  0  0  0  0  0  0
    3.6879   -6.7362   26.2693 C   0  0  0  0  0  0  0  0  0  0  0  0
    4.4804   -5.6930   25.8153 C   0  0  0  0  0  0  0  0  0  0  0  0
    5.7370   -5.5047   26.3912 C   0  0  0  0  0  0  0  0  0  0  0  0
    6.5728   -4.4802   25.9343 N   0  0  0  0  0  0  0  0  0  0  0  0
    7.8002   -4.7464   25.1978 C   0  0  0  0  0  0  0  0  0  0  0  0
    7.7301   -4.1799   23.7715 C   0  0  0  0  0  0  0  0  0  0  0  0
    7.3121   -2.7607   23.7548 N   0  0  0  0  0  0  0  0  0  0  0  0
    7.9224   -1.8987   22.8502 C   0  0  0  0  0  0  0  0  0  0  0  0
    9.1009   -2.0310   22.5685 O   0  0  0  0  0  0  0  0  0  0  0  0
    7.0812   -0.7315   22.2422 C   0  0  0  0  0  0  0  0  0  0  0  0
    7.4288    0.5950   22.9260 C   0  0  0  0  0  0  0  0  0  0  0  0
    8.4869    0.8219   22.7573 H   0  0  0  0  0  0  0  0  0  0  0  0
    7.2539    0.5392   24.0076 H   0  0  0  0  0  0  0  0  0  0  0  0
    6.8343    1.4231   22.5230 H   0  0  0  0  0  0  0  0  0  0  0  0
    7.3973   -0.6974   20.8405 O   0  0  0  0  0  0  0  0  0  0  0  0
    6.6603    0.0052   19.9373 C   0  0  0  0  0  0  0  0  0  0  0  0
    5.4415    0.6483   20.1812 C   0  0  0  0  0  0  0  0  0  0  0  0
    4.8131    1.3043   19.1106 C   0  0  0  0  0  0  0  0  0  0  0  0
    5.3993    1.2911   17.8455 C   0  0  0  0  0  0  0  0  0  0  0  0
    6.5674    0.6715   17.5990 N   0  0  0  0  0  0  0  0  0  0  0  0
    7.1755    0.0559   18.6175 C   0  0  0  0  0  0  0  0  0  0  0  0
    8.1206   -0.4357   18.3978 H   0  0  0  0  0  0  0  0  0  0  0  0
    4.9180    1.7797   16.9994 H   0  0  0  0  0  0  0  0  0  0  0  0
    3.8820    1.8357   19.2615 H   0  0  0  0  0  0  0  0  0  0  0  0
    4.9963    0.6374   21.1758 H   0  0  0  0  0  0  0  0  0  0  0  0
    6.0174   -0.9652   22.3486 H   0  0  0  0  0  0  0  0  0  0  0  0
    6.1017   -2.4737   24.5410 C   0  0  0  0  0  0  0  0  0  0  0  0
    6.1838   -3.0821   25.9540 C   0  0  0  0  0  0  0  0  0  0  0  0
    6.9115   -2.5074   26.5488 H   0  0  0  0  0  0  0  0  0  0  0  0
    5.2180   -2.9786   26.4579 H   0  0  0  0  0  0  0  0  0  0  0  0
    5.9648   -1.3943   24.6409 H   0  0  0  0  0  0  0  0  0  0  0  0
    5.2114   -2.8805   24.0402 H   0  0  0  0  0  0  0  0  0  0  0  0
    8.7075   -4.2657   23.2909 H   0  0  0  0  0  0  0  0  0  0  0  0
    7.0170   -4.7816   23.1896 H   0  0  0  0  0  0  0  0  0  0  0  0
    7.9801   -5.8270   25.1500 H   0  0  0  0  0  0  0  0  0  0  0  0
    8.6651   -4.2983   25.7132 H   0  0  0  0  0  0  0  0  0  0  0  0
    4.1600   -5.0454   25.0090 H   0  0  0  0  0  0  0  0  0  0  0  0
    2.7067   -6.9098   25.8336 H   0  0  0  0  0  0  0  0  0  0  0  0
    5.5404   -8.0525   28.5908 H   0  0  0  0  0  0  0  0  0  0  0  0
    8.2918   -6.6657   27.5423 H   0  0  0  0  0  0  0  0  0  0  0  0
    7.4906   -6.6508   29.1163 H   0  0  0  0  0  0  0  0  0  0  0  0
    7.7432   -5.1333   28.2209 H   0  0  0  0  0  0  0  0  0  0  0  0
  1  2  1  0
  2  3  2  0
  3  4  1  0
  4  5  2  0
  5  6  1  0
  6  7  2  0
  7  8  1  0
  8  9  1  0
  9 10  1  0
 10 11  1  0
 11 12  1  0
 12 13  2  0
 12 14  1  0
 14 15  1  0
 15 16  1  0
 15 17  1  0
 15 18  1  0
 14 19  1  0
 19 20  1  0
 20 21  2  0
 21 22  1  0
 22 23  2  0
 23 24  1  0
 24 25  2  0
 25 26  1  0
 23 27  1  0
 22 28  1  0
 21 29  1  0
 14 30  1  0
 11 31  1  0
 31 32  1  0
 32 33  1  0
 32 34  1  0
 31 35  1  0
 31 36  1  0
 10 37  1  0
 10 38  1  0
  9 39  1  0
  9 40  1  0
  6 41  1  0
  5 42  1  0
  3 43  1  0
  1 44  1  0
  1 45  1  0
  1 46  1  0
  7  2  1  0
 32  8  1  0
 25 20  1  0
M  END
>  <plip>  (1) 
-0.03571428571428571

>  <filename>  (1) 
[H][c]1[n][c]([H])[c]([O][C]([H])([C](=[O])[N]2[C]([H])([H])[C]([H])([H])[N]([c]3[c]([H])[c]([H])[n][c]([H])[c]3[C]([H])([H])[H])[C]([H])([H])[C]2([H])[H])[C]([H])([H])[H])[c]([H])[c]1[H]

$$$$
