
     RDKit          3D

 43 45  0  0  0  0  0  0  0  0999 V2000
    4.4380   -4.9708   30.3033 H   0  0  0  0  0  0  0  0  0  0  0  0
    4.7623   -5.4566   29.3833 C   0  0  0  0  0  0  0  0  0  0  0  0
    5.1910   -4.6445   28.4115 N   0  0  0  0  0  0  0  0  0  0  0  0
    5.5584   -5.2196   27.2598 C   0  0  0  0  0  0  0  0  0  0  0  0
    6.0082   -4.3996   26.2348 N   0  0  0  0  0  0  0  0  0  0  0  0
    5.3605   -4.4639   24.9153 C   0  0  0  0  0  0  0  0  0  0  0  0
    4.4806   -3.7963   24.8823 H   0  0  0  0  0  0  0  0  0  0  0  0
    5.0053   -5.4775   24.6976 H   0  0  0  0  0  0  0  0  0  0  0  0
    6.3451   -4.0371   23.8179 C   0  0  0  0  0  0  0  0  0  0  0  0
    5.8314   -4.0499   22.8503 H   0  0  0  0  0  0  0  0  0  0  0  0
    7.1708   -4.7746   23.7860 H   0  0  0  0  0  0  0  0  0  0  0  0
    6.8456   -2.6766   24.0829 N   0  0  0  0  0  0  0  0  0  0  0  0
    7.6086   -2.0744   23.0109 C   0  0  2  0  0  0  0  0  0  0  0  0
    7.9412   -1.0956   23.3866 H   0  0  0  0  0  0  0  0  0  0  0  0
    6.7094   -1.6447   21.7011 C   0  0  0  0  0  0  0  0  0  0  0  0
    5.6404   -2.1251   21.3758 O   0  0  0  0  0  0  0  0  0  0  0  0
    7.3084   -0.6533   20.9239 N   0  0  0  0  0  0  0  0  0  0  0  0
    8.2844   -0.4524   21.0740 H   0  0  0  0  0  0  0  0  0  0  0  0
    6.6574    0.0435   19.8527 C   0  0  0  0  0  0  0  0  0  0  0  0
    7.2005    0.1195   18.5480 C   0  0  0  0  0  0  0  0  0  0  0  0
    8.1487   -0.3663   18.3244 H   0  0  0  0  0  0  0  0  0  0  0  0
    6.6085    0.7431   17.5198 N   0  0  0  0  0  0  0  0  0  0  0  0
    5.4309    1.3469   17.7575 C   0  0  0  0  0  0  0  0  0  0  0  0
    4.9552    1.8218   16.9011 H   0  0  0  0  0  0  0  0  0  0  0  0
    4.8162    1.3529   19.0126 C   0  0  0  0  0  0  0  0  0  0  0  0
    3.8689    1.8687   19.1384 H   0  0  0  0  0  0  0  0  0  0  0  0
    5.4347    0.6914   20.0831 C   0  0  0  0  0  0  0  0  0  0  0  0
    4.9985    0.6822   21.0811 H   0  0  0  0  0  0  0  0  0  0  0  0
    8.8005   -2.9286   22.8484 N   0  0  0  0  0  0  0  0  0  0  0  0
    8.5377   -3.8021   22.4064 H   0  0  0  0  0  0  0  0  0  0  0  0
    9.5420   -2.4873   22.3238 H   0  0  0  0  0  0  0  0  0  0  0  0
    7.4826   -2.5974   25.4147 C   0  0  0  0  0  0  0  0  0  0  0  0
    7.7925   -1.5630   25.6227 H   0  0  0  0  0  0  0  0  0  0  0  0
    8.3900   -3.2262   25.4736 H   0  0  0  0  0  0  0  0  0  0  0  0
    6.4935   -3.0399   26.5138 C   0  0  0  0  0  0  0  0  0  0  0  0
    6.9844   -3.0171   27.4918 H   0  0  0  0  0  0  0  0  0  0  0  0
    5.6501   -2.3279   26.5564 H   0  0  0  0  0  0  0  0  0  0  0  0
    5.5362   -6.6158   27.0491 C   0  0  0  0  0  0  0  0  0  0  0  0
    5.8635   -7.0049   26.0926 H   0  0  0  0  0  0  0  0  0  0  0  0
    5.1373   -7.4411   28.0867 C   0  0  0  0  0  0  0  0  0  0  0  0
    5.1420   -8.5257   27.9645 H   0  0  0  0  0  0  0  0  0  0  0  0
    4.7245   -6.8456   29.2846 C   0  0  0  0  0  0  0  0  0  0  0  0
    4.3935   -7.4490   30.1188 H   0  0  0  0  0  0  0  0  0  0  0  0
  1  2  1  0
  2  3  2  0
  3  4  1  0
  4  5  1  0
  5  6  1  0
  6  7  1  0
  6  8  1  0
  6  9  1  0
  9 10  1  0
  9 11  1  0
  9 12  1  0
 12 13  1  0
 13 14  1  1
 13 15  1  0
 15 16  2  0
 15 17  1  0
 17 18  1  0
 17 19  1  0
 19 20  2  0
 20 21  1  0
 20 22  1  0
 22 23  2  0
 23 24  1  0
 23 25  1  0
 25 26  1  0
 25 27  2  0
 27 28  1  0
 13 29  1  0
 29 30  1  0
 29 31  1  0
 12 32  1  0
 32 33  1  0
 32 34  1  0
 32 35  1  0
 35 36  1  0
 35 37  1  0
  4 38  2  0
 38 39  1  0
 38 40  1  0
 40 41  1  0
 40 42  2  0
 42 43  1  0
 42  2  1  0
 35  5  1  0
 27 19  1  0
M  END
>  <plip>  (1) 
-0.10714285714285714

>  <filename>  (1) 
[H][c]1[n][c]([N]2[C]([H])([H])[C]([H])([H])[N]([C@]([H])([C](=[O])[N]([H])[c]3[c]([H])[n][c]([H])[c]([H])[c]3[H])[N]([H])[H])[C]([H])([H])[C]2([H])[H])[c]([H])[c]([H])[c]1[H]

$$$$
