
     RDKit          3D

 37 39  0  0  0  0  0  0  0  0999 V2000
    5.0078    1.7432   16.7512 H   0  0  0  0  0  0  0  0  0  0  0  0
    5.4420    1.2524   17.6190 C   0  0  0  0  0  0  0  0  0  0  0  0
    6.6011    0.6017   17.4294 N   0  0  0  0  0  0  0  0  0  0  0  0
    7.1470   -0.0208   18.4785 C   0  0  0  0  0  0  0  0  0  0  0  0
    8.0732   -0.5645   18.2869 H   0  0  0  0  0  0  0  0  0  0  0  0
    6.5901    0.0161   19.7577 C   0  0  0  0  0  0  0  0  0  0  0  0
    7.3306   -0.5973   20.8697 C   0  0  0  0  0  0  0  0  0  0  0  0
    7.4819   -0.1432   22.0597 N   0  0  0  0  0  0  0  0  0  0  0  0
    7.0359    1.1868   22.2612 N   0  0  0  0  0  0  0  0  0  0  0  0
    7.9998    2.1899   21.8087 C   0  0  0  0  0  0  0  0  0  0  0  0
    8.0864    2.1488   20.7132 H   0  0  0  0  0  0  0  0  0  0  0  0
    9.0001    2.0048   22.2304 H   0  0  0  0  0  0  0  0  0  0  0  0
    7.3809    3.4737   22.3361 C   0  0  0  0  0  0  0  0  0  0  0  0
    8.1187    4.2793   22.4253 H   0  0  0  0  0  0  0  0  0  0  0  0
    6.5883    3.8018   21.6547 H   0  0  0  0  0  0  0  0  0  0  0  0
    6.7853    3.0585   23.7020 C   0  0  2  0  0  0  0  0  0  0  0  0
    5.8542    3.6032   23.8922 H   0  0  0  0  0  0  0  0  0  0  0  0
    7.7483    3.2178   24.8963 C   0  0  0  0  0  0  0  0  0  0  0  0
    7.1839    3.5250   25.7974 H   0  0  0  0  0  0  0  0  0  0  0  0
    8.5108    3.9851   24.7082 H   0  0  0  0  0  0  0  0  0  0  0  0
    8.3782    1.9126   25.0767 N   0  0  0  0  0  0  0  0  0  0  0  0
    9.0570    1.7282   26.3363 C   0  0  0  0  0  0  0  0  0  0  0  0
    9.5311    0.7417   26.3887 H   0  0  0  0  0  0  0  0  0  0  0  0
    9.8517    2.4669   26.4173 H   0  0  0  0  0  0  0  0  0  0  0  0
    8.4012    1.8440   27.2210 H   0  0  0  0  0  0  0  0  0  0  0  0
    7.3672    0.9092   24.7621 C   0  0  0  0  0  0  0  0  0  0  0  0
    6.6958    0.6988   25.6203 H   0  0  0  0  0  0  0  0  0  0  0  0
    7.8096   -0.0454   24.4581 H   0  0  0  0  0  0  0  0  0  0  0  0
    6.5594    1.5210   23.6068 C   0  0  2  0  0  0  0  0  0  0  0  0
    5.5013    1.2407   23.6917 H   0  0  0  0  0  0  0  0  0  0  0  0
    7.9818   -1.7992   20.6085 N   0  0  0  0  0  0  0  0  0  0  0  0
    7.3194   -2.4843   20.2686 H   0  0  0  0  0  0  0  0  0  0  0  0
    8.3457   -2.0496   21.5225 H   0  0  0  0  0  0  0  0  0  0  0  0
    5.3710    0.6906   19.9491 C   0  0  0  0  0  0  0  0  0  0  0  0
    4.9151    0.7372   20.9390 H   0  0  0  0  0  0  0  0  0  0  0  0
    4.7787    1.2991   18.8527 C   0  0  0  0  0  0  0  0  0  0  0  0
    3.8344    1.8233   18.9473 H   0  0  0  0  0  0  0  0  0  0  0  0
  1  2  1  0
  2  3  2  0
  3  4  1  0
  4  5  1  0
  4  6  2  0
  6  7  1  0
  7  8  2  3
  8  9  1  0
  9 10  1  0
 10 11  1  0
 10 12  1  0
 10 13  1  0
 13 14  1  0
 13 15  1  0
 13 16  1  0
 16 17  1  1
 16 18  1  0
 18 19  1  0
 18 20  1  0
 18 21  1  0
 21 22  1  0
 22 23  1  0
 22 24  1  0
 22 25  1  0
 21 26  1  0
 26 27  1  0
 26 28  1  0
 26 29  1  0
 29 30  1  6
  7 31  1  0
 31 32  1  0
 31 33  1  0
  6 34  1  0
 34 35  1  0
 34 36  2  0
 36 37  1  0
 36  2  1  0
 29  9  1  0
 29 16  1  0
M  END
>  <plip>  (1) 
-0.06896551724137931

>  <filename>  (1) 
[H][c]1[n][c]([H])[c]([C](=[N][N]2[C]([H])([H])[C]([H])([H])[C@]3([H])[C]([H])([H])[N]([C]([H])([H])[H])[C]([H])([H])[C@]23[H])[N]([H])[H])[c]([H])[c]1[H]

$$$$
