
     RDKit          3D

 30 31  0  0  0  0  0  0  0  0999 V2000
    4.9061    1.7705   17.0073 H   0  0  0  0  0  0  0  0  0  0  0  0
    5.4030    1.2898   17.8476 C   0  0  0  0  0  0  0  0  0  0  0  0
    6.5696    0.6817   17.5882 N   0  0  0  0  0  0  0  0  0  0  0  0
    7.1805    0.0556   18.6010 C   0  0  0  0  0  0  0  0  0  0  0  0
    8.1313   -0.4380   18.3802 H   0  0  0  0  0  0  0  0  0  0  0  0
    6.6484    0.0007   19.8919 C   0  0  0  0  0  0  0  0  0  0  0  0
    7.3921   -0.6622   21.0137 C   0  0  0  0  0  0  0  0  0  0  0  0
    8.2962   -1.5694   20.5117 F   0  0  0  0  0  0  0  0  0  0  0  0
    6.4920   -1.4031   21.7399 F   0  0  0  0  0  0  0  0  0  0  0  0
    8.1202    0.3349   21.9314 C   0  0  0  0  0  0  0  0  0  0  0  0
    7.3542    1.0419   22.2984 H   0  0  0  0  0  0  0  0  0  0  0  0
    9.1887    1.1567   21.1689 C   0  0  0  0  0  0  0  0  0  0  0  0
    9.9246    0.4678   20.7267 H   0  0  0  0  0  0  0  0  0  0  0  0
    8.7234    1.7197   20.3492 H   0  0  0  0  0  0  0  0  0  0  0  0
    9.9116    2.1378   22.0956 C   0  0  0  0  0  0  0  0  0  0  0  0
   10.6976    2.6618   21.5378 H   0  0  0  0  0  0  0  0  0  0  0  0
    9.1956    2.8995   22.4437 H   0  0  0  0  0  0  0  0  0  0  0  0
   10.5187    1.4241   23.3077 C   0  0  0  0  0  0  0  0  0  0  0  0
   11.3111    0.7392   22.9637 H   0  0  0  0  0  0  0  0  0  0  0  0
   10.9863    2.1569   23.9773 H   0  0  0  0  0  0  0  0  0  0  0  0
    9.4591    0.6233   24.0710 C   0  0  0  0  0  0  0  0  0  0  0  0
    9.9256    0.0817   24.9020 H   0  0  0  0  0  0  0  0  0  0  0  0
    8.7208    1.3170   24.5040 H   0  0  0  0  0  0  0  0  0  0  0  0
    8.7387   -0.3707   23.1569 C   0  0  0  0  0  0  0  0  0  0  0  0
    7.9560   -0.8902   23.7236 H   0  0  0  0  0  0  0  0  0  0  0  0
    9.4544   -1.1295   22.8074 H   0  0  0  0  0  0  0  0  0  0  0  0
    5.4422    0.6545   20.1571 C   0  0  0  0  0  0  0  0  0  0  0  0
    5.0088    0.6278   21.1552 H   0  0  0  0  0  0  0  0  0  0  0  0
    4.8050    1.3125   19.1132 C   0  0  0  0  0  0  0  0  0  0  0  0
    3.8716    1.8459   19.2684 H   0  0  0  0  0  0  0  0  0  0  0  0
  1  2  1  0
  2  3  2  0
  3  4  1  0
  4  5  1  0
  4  6  2  0
  6  7  1  0
  7  8  1  0
  7  9  1  0
  7 10  1  0
 10 11  1  0
 10 12  1  0
 12 13  1  0
 12 14  1  0
 12 15  1  0
 15 16  1  0
 15 17  1  0
 15 18  1  0
 18 19  1  0
 18 20  1  0
 18 21  1  0
 21 22  1  0
 21 23  1  0
 21 24  1  0
 24 25  1  0
 24 26  1  0
  6 27  1  0
 27 28  1  0
 27 29  2  0
 29 30  1  0
 29  2  1  0
 24 10  1  0
M  END
>  <plip>  (1) 
-0.03333333333333333

>  <filename>  (1) 
[H][c]1[n][c]([H])[c]([C]([F])([F])[C]2([H])[C]([H])([H])[C]([H])([H])[C]([H])([H])[C]([H])([H])[C]2([H])[H])[c]([H])[c]1[H]

$$$$
