
     RDKit          3D

 27 28  0  0  0  0  0  0  0  0999 V2000
    8.1091    0.1195   21.5881 H   0  0  0  0  0  0  0  0  0  0  0  0
    7.4171   -0.5016   21.0138 C   0  0  0  0  0  0  0  0  0  0  0  0
    7.2832   -1.8473   21.3083 C   0  0  0  0  0  0  0  0  0  0  0  0
    6.0025   -2.8882   20.3211 Br  0  0  0  0  0  0  0  0  0  0  0  0
    8.2011   -2.4751   22.2685 C   0  0  0  0  0  0  0  0  0  0  0  0
    9.4315   -1.9447   22.3223 N   0  0  0  0  0  0  0  0  0  0  0  0
   10.3194   -2.4177   23.1974 C   0  0  0  0  0  0  0  0  0  0  0  0
   11.3119   -1.9828   23.2073 H   0  0  0  0  0  0  0  0  0  0  0  0
   10.0103   -3.4365   24.0953 C   0  0  0  0  0  0  0  0  0  0  0  0
   10.7456   -3.7616   24.8192 H   0  0  0  0  0  0  0  0  0  0  0  0
    8.7655   -4.0474   24.0298 C   0  0  0  0  0  0  0  0  0  0  0  0
    8.5178   -4.8696   24.7041 H   0  0  0  0  0  0  0  0  0  0  0  0
    7.8513   -3.5728   23.0766 C   0  0  0  0  0  0  0  0  0  0  0  0
    6.4939   -4.1879   22.9271 C   0  0  0  0  0  0  0  0  0  0  0  0
    6.4587   -4.9341   21.7932 F   0  0  0  0  0  0  0  0  0  0  0  0
    6.2014   -5.0055   23.9703 F   0  0  0  0  0  0  0  0  0  0  0  0
    5.5361   -3.2265   22.8835 F   0  0  0  0  0  0  0  0  0  0  0  0
    6.6832    0.1241   19.9266 C   0  0  0  0  0  0  0  0  0  0  0  0
    7.2035    0.1084   18.6203 C   0  0  0  0  0  0  0  0  0  0  0  0
    8.1514   -0.3860   18.4211 H   0  0  0  0  0  0  0  0  0  0  0  0
    6.5834    0.6954   17.5815 N   0  0  0  0  0  0  0  0  0  0  0  0
    5.4064    1.3030   17.8137 C   0  0  0  0  0  0  0  0  0  0  0  0
    4.8816    1.7619   16.9825 H   0  0  0  0  0  0  0  0  0  0  0  0
    4.8205    1.3469   19.0841 C   0  0  0  0  0  0  0  0  0  0  0  0
    3.8625    1.8351   19.2135 H   0  0  0  0  0  0  0  0  0  0  0  0
    5.4704    0.7644   20.1707 C   0  0  0  0  0  0  0  0  0  0  0  0
    5.0552    0.8046   21.1776 H   0  0  0  0  0  0  0  0  0  0  0  0
  1  2  1  0
  2  3  2  3
  3  4  1  0
  3  5  1  0
  5  6  2  0
  6  7  1  0
  7  8  1  0
  7  9  2  0
  9 10  1  0
  9 11  1  0
 11 12  1  0
 11 13  2  0
 13 14  1  0
 14 15  1  0
 14 16  1  0
 14 17  1  0
  2 18  1  0
 18 19  2  0
 19 20  1  0
 19 21  1  0
 21 22  2  0
 22 23  1  0
 22 24  1  0
 24 25  1  0
 24 26  2  0
 26 27  1  0
 13  5  1  0
 26 18  1  0
M  END
>  <plip>  (1) 
-0.034482758620689655

>  <filename>  (1) 
[H][C](=[C]([Br])[c]1[n][c]([H])[c]([H])[c]([H])[c]1[C]([F])([F])[F])[c]1[c]([H])[n][c]([H])[c]([H])[c]1[H]

$$$$
