
     RDKit          3D

 25 26  0  0  0  0  0  0  0  0999 V2000
    7.5879    0.6614   25.7086 H   0  0  0  0  0  0  0  0  0  0  0  0
    7.1038    0.0699   25.1179 O   0  0  0  0  0  0  0  0  0  0  0  0
    6.6575    1.2088   24.1665 P   0  0  0  0  0  0  0  0  0  0  0  0
    6.8998    2.3729   25.0268 O   0  0  0  0  0  0  0  0  0  0  0  0
    5.1425    0.9979   23.8602 O   0  0  0  0  0  0  0  0  0  0  0  0
    4.8718    0.7533   24.7529 H   0  0  0  0  0  0  0  0  0  0  0  0
    7.5128    1.3347   22.6871 C   0  0  0  0  0  0  0  0  0  0  0  0
    6.9518    1.9166   21.9598 H   0  0  0  0  0  0  0  0  0  0  0  0
    8.5005    1.7475   22.8667 H   0  0  0  0  0  0  0  0  0  0  0  0
    7.6415   -0.0552   22.2996 C   0  0  0  0  0  0  0  0  0  0  0  0
    8.2822   -0.8569   23.2093 N   0  0  0  0  0  0  0  0  0  0  0  0
    8.4560   -2.0497   22.6980 C   0  0  0  0  0  0  0  0  0  0  0  0
    8.9299   -2.8539   23.2571 H   0  0  0  0  0  0  0  0  0  0  0  0
    7.8689   -2.2646   21.0551 S   0  0  0  0  0  0  0  0  0  0  0  0
    7.3016   -0.6170   21.0948 C   0  0  0  0  0  0  0  0  0  0  0  0
    6.6244    0.0506   19.9742 C   0  0  0  0  0  0  0  0  0  0  0  0
    7.1384   -0.0030   18.6641 C   0  0  0  0  0  0  0  0  0  0  0  0
    8.0644   -0.5399   18.5055 H   0  0  0  0  0  0  0  0  0  0  0  0
    6.5703    0.6124   17.6067 N   0  0  0  0  0  0  0  0  0  0  0  0
    5.4336    1.2982   17.8228 C   0  0  0  0  0  0  0  0  0  0  0  0
    4.9419    1.7924   16.9885 H   0  0  0  0  0  0  0  0  0  0  0  0
    4.8452    1.3816   19.0926 C   0  0  0  0  0  0  0  0  0  0  0  0
    3.9197    1.9312   19.2120 H   0  0  0  0  0  0  0  0  0  0  0  0
    5.4521    0.7680   20.1895 C   0  0  0  0  0  0  0  0  0  0  0  0
    5.0139    0.8312   21.1855 H   0  0  0  0  0  0  0  0  0  0  0  0
  1  2  1  0
  2  3  1  0
  3  4  2  0
  3  5  1  0
  5  6  1  0
  3  7  1  0
  7  8  1  0
  7  9  1  0
  7 10  1  0
 10 11  1  0
 11 12  2  0
 12 13  1  0
 12 14  1  0
 14 15  1  0
 15 16  1  0
 16 17  2  0
 17 18  1  0
 17 19  1  0
 19 20  2  0
 20 21  1  0
 20 22  1  0
 22 23  1  0
 22 24  2  0
 24 25  1  0
 15 10  2  0
 24 16  1  0
M  END
>  <plip>  (1) 
-0.07142857142857142

>  <filename>  (1) 
[H][O][P](=[O])([O][H])[C]([H])([H])[c]1[n][c]([H])[s][c]1-[c]1[c]([H])[n][c]([H])[c]([H])[c]1[H]

$$$$
