
     RDKit          3D

 32 34  0  0  0  0  0  0  0  0999 V2000
    6.7724   -1.0502   22.2207 C   0  0  0  0  0  0  0  0  0  0  0  0
    7.5534   -0.5981   20.9907 C   0  0  2  0  0  0  0  0  0  0  0  0
    8.6545    0.2972   21.2848 N   0  0  0  0  0  0  0  0  0  0  0  0
    8.5384    1.4996   21.8613 C   0  0  0  0  0  0  0  0  0  0  0  0
    7.3476    1.9942   22.0989 N   0  0  0  0  0  0  0  0  0  0  0  0
    7.3604    3.2454   22.5802 C   0  0  0  0  0  0  0  0  0  0  0  0
    8.5184    3.9247   22.9188 C   0  0  0  0  0  0  0  0  0  0  0  0
    8.2072    5.5197   23.5072 S   0  0  0  0  0  0  0  0  0  0  0  0
    6.5033    5.2700   23.3132 C   0  0  0  0  0  0  0  0  0  0  0  0
    6.1927    4.0415   22.8208 C   0  0  0  0  0  0  0  0  0  0  0  0
    5.1949    3.6758   22.6017 H   0  0  0  0  0  0  0  0  0  0  0  0
    5.8380    6.0816   23.5869 H   0  0  0  0  0  0  0  0  0  0  0  0
    9.6929    3.1903   22.7170 C   0  0  0  0  0  0  0  0  0  0  0  0
   10.9012    3.6053   23.1256 N   0  0  0  0  0  0  0  0  0  0  0  0
   11.0083    4.6033   23.1340 H   0  0  0  0  0  0  0  0  0  0  0  0
   11.5557    3.0707   22.5789 H   0  0  0  0  0  0  0  0  0  0  0  0
    9.7379    2.0159   22.1413 N   0  0  0  0  0  0  0  0  0  0  0  0
    9.6135    0.0432   21.4087 H   0  0  0  0  0  0  0  0  0  0  0  0
    6.6802    0.0396   19.9244 C   0  0  0  0  0  0  0  0  0  0  0  0
    5.4301    0.6389   20.1354 C   0  0  0  0  0  0  0  0  0  0  0  0
    4.8019    1.2758   19.0600 C   0  0  0  0  0  0  0  0  0  0  0  0
    5.4381    1.2840   17.8155 C   0  0  0  0  0  0  0  0  0  0  0  0
    6.6279    0.7041   17.5901 N   0  0  0  0  0  0  0  0  0  0  0  0
    7.2201    0.1168   18.6367 C   0  0  0  0  0  0  0  0  0  0  0  0
    8.1885   -0.3406   18.4325 H   0  0  0  0  0  0  0  0  0  0  0  0
    4.9677    1.7708   16.9622 H   0  0  0  0  0  0  0  0  0  0  0  0
    3.8493    1.7807   19.1837 H   0  0  0  0  0  0  0  0  0  0  0  0
    4.9817    0.6698   21.1326 H   0  0  0  0  0  0  0  0  0  0  0  0
    8.0003   -1.4992   20.5412 H   0  0  0  0  0  0  0  0  0  0  0  0
    6.4032   -0.1843   22.7750 H   0  0  0  0  0  0  0  0  0  0  0  0
    7.4060   -1.6527   22.8784 H   0  0  0  0  0  0  0  0  0  0  0  0
    5.9215   -1.6570   21.8903 H   0  0  0  0  0  0  0  0  0  0  0  0
  1  2  1  0
  2  3  1  0
  3  4  1  0
  4  5  2  0
  5  6  1  0
  6  7  2  0
  7  8  1  0
  8  9  1  0
  9 10  2  0
 10 11  1  0
  9 12  1  0
  7 13  1  0
 13 14  1  0
 14 15  1  0
 14 16  1  0
 13 17  2  0
  3 18  1  0
  2 19  1  0
 19 20  2  0
 20 21  1  0
 21 22  2  0
 22 23  1  0
 23 24  2  0
 24 25  1  0
 22 26  1  0
 21 27  1  0
 20 28  1  0
  2 29  1  6
  1 30  1  0
  1 31  1  0
  1 32  1  0
 17  4  1  0
 24 19  1  0
 10  6  1  0
M  END
>  <plip>  (1) 
-0.03571428571428571

>  <filename>  (1) 
[H][c]1[n][c]([H])[c]([C@@]([H])([N]([H])[c]2[n][c]([N]([H])[H])[c]3[s][c]([H])[c]([H])[c]3[n]2)[C]([H])([H])[H])[c]([H])[c]1[H]

$$$$
