
     RDKit          3D

 31 33  0  0  0  0  0  0  0  0999 V2000
    6.5114   -0.8628   24.1264 H   0  0  0  0  0  0  0  0  0  0  0  0
    7.2711   -1.6389   23.9955 C   0  0  0  0  0  0  0  0  0  0  0  0
    7.9049   -2.1670   25.0539 C   0  0  0  0  0  0  0  0  0  0  0  0
    8.9756   -3.5857   25.0518 S   0  0  0  0  0  0  0  0  0  0  0  0
    9.1651   -3.5242   26.8381 C   0  0  0  0  0  0  0  0  0  0  0  0
    9.8204   -4.2613   27.5144 O   0  0  0  0  0  0  0  0  0  0  0  0
    8.4110   -2.4909   27.3198 N   0  0  0  0  0  0  0  0  0  0  0  0
    8.3644   -2.2963   28.3009 H   0  0  0  0  0  0  0  0  0  0  0  0
    7.7653   -1.6567   26.4506 C   0  0  0  0  0  0  0  0  0  0  0  0
    7.1957   -0.6608   26.8275 O   0  0  0  0  0  0  0  0  0  0  0  0
    7.7393   -1.9742   22.6009 C   0  0  1  0  0  0  0  0  0  0  0  0
    7.8589   -3.0623   22.5441 H   0  0  0  0  0  0  0  0  0  0  0  0
    6.7602   -1.6207   21.4925 C   0  0  0  0  0  0  0  0  0  0  0  0
    5.6249   -2.0380   21.3897 O   0  0  0  0  0  0  0  0  0  0  0  0
    7.4152   -0.7894   20.6001 N   0  0  0  0  0  0  0  0  0  0  0  0
    6.7393   -0.0318   19.6096 C   0  0  0  0  0  0  0  0  0  0  0  0
    7.2862    0.1979   18.3277 C   0  0  0  0  0  0  0  0  0  0  0  0
    8.2727   -0.1916   18.0888 H   0  0  0  0  0  0  0  0  0  0  0  0
    6.6674    0.8844   17.3578 N   0  0  0  0  0  0  0  0  0  0  0  0
    5.4753    1.4294   17.6504 C   0  0  0  0  0  0  0  0  0  0  0  0
    4.9858    1.9895   16.8548 H   0  0  0  0  0  0  0  0  0  0  0  0
    4.8687    1.3025   18.9077 C   0  0  0  0  0  0  0  0  0  0  0  0
    3.9140    1.7802   19.0982 H   0  0  0  0  0  0  0  0  0  0  0  0
    5.4981    0.5530   19.9046 C   0  0  0  0  0  0  0  0  0  0  0  0
    5.0627    0.4225   20.8963 H   0  0  0  0  0  0  0  0  0  0  0  0
    8.8557   -0.6983   20.8274 C   0  0  0  0  0  0  0  0  0  0  0  0
    9.4148   -1.2639   20.0702 H   0  0  0  0  0  0  0  0  0  0  0  0
    9.1613    0.3477   20.7466 H   0  0  0  0  0  0  0  0  0  0  0  0
    9.0587   -1.2488   22.2433 C   0  0  0  0  0  0  0  0  0  0  0  0
    9.9052   -1.9339   22.3009 H   0  0  0  0  0  0  0  0  0  0  0  0
    9.2498   -0.4278   22.9483 H   0  0  0  0  0  0  0  0  0  0  0  0
  1  2  1  0
  2  3  2  3
  3  4  1  0
  4  5  1  0
  5  6  2  0
  5  7  1  0
  7  8  1  0
  7  9  1  0
  9 10  2  0
  2 11  1  0
 11 12  1  1
 11 13  1  0
 13 14  2  0
 13 15  1  0
 15 16  1  0
 16 17  2  0
 17 18  1  0
 17 19  1  0
 19 20  2  0
 20 21  1  0
 20 22  1  0
 22 23  1  0
 22 24  2  0
 24 25  1  0
 15 26  1  0
 26 27  1  0
 26 28  1  0
 26 29  1  0
 29 30  1  0
 29 31  1  0
  9  3  1  0
 29 11  1  0
 24 16  1  0
M  END
>  <plip>  (1) 
-0.07142857142857142

>  <filename>  (1) 
[H][C](=[C]1[S][C](=[O])[N]([H])[C]1=[O])[C@@]1([H])[C](=[O])[N]([c]2[c]([H])[n][c]([H])[c]([H])[c]2[H])[C]([H])([H])[C]1([H])[H]

$$$$
