
     RDKit          3D

 33 35  0  0  0  0  0  0  0  0999 V2000
    4.9626    1.7896   16.9833 H   0  0  0  0  0  0  0  0  0  0  0  0
    5.4234    1.2850   17.8296 C   0  0  0  0  0  0  0  0  0  0  0  0
    6.5899    0.6624   17.5842 N   0  0  0  0  0  0  0  0  0  0  0  0
    7.2008    0.0590   18.6115 C   0  0  0  0  0  0  0  0  0  0  0  0
    8.1677   -0.4041   18.4272 H   0  0  0  0  0  0  0  0  0  0  0  0
    6.6584   -0.0064   19.9045 C   0  0  0  0  0  0  0  0  0  0  0  0
    7.3658   -0.7226   20.9265 N   0  0  0  0  0  0  0  0  0  0  0  0
    8.7378   -0.6266   20.8874 N   0  0  0  0  0  0  0  0  0  0  0  0
    9.4125   -1.1183   21.8939 C   0  0  0  0  0  0  0  0  0  0  0  0
   10.8897   -0.8915   21.9410 C   0  0  0  0  0  0  0  0  0  0  0  0
   11.6975   -2.0401   21.9849 C   0  0  0  0  0  0  0  0  0  0  0  0
   11.2202   -3.0033   22.1300 H   0  0  0  0  0  0  0  0  0  0  0  0
   13.0788   -1.9343   21.8869 C   0  0  0  0  0  0  0  0  0  0  0  0
   13.7132   -2.8100   21.8033 H   0  0  0  0  0  0  0  0  0  0  0  0
   13.6747   -0.6804   21.9549 C   0  0  0  0  0  0  0  0  0  0  0  0
   14.7469   -0.6014   21.9534 H   0  0  0  0  0  0  0  0  0  0  0  0
   12.8983    0.4656   22.0901 C   0  0  0  0  0  0  0  0  0  0  0  0
   13.3863    1.4273   22.2324 H   0  0  0  0  0  0  0  0  0  0  0  0
   11.5003    0.3826   22.0120 C   0  0  0  0  0  0  0  0  0  0  0  0
   10.6800    1.6619   22.0908 C   0  0  0  0  0  0  0  0  0  0  0  0
    9.6638    1.5435   22.9700 F   0  0  0  0  0  0  0  0  0  0  0  0
   10.1434    2.0004   20.9072 F   0  0  0  0  0  0  0  0  0  0  0  0
   11.4176    2.7187   22.4856 F   0  0  0  0  0  0  0  0  0  0  0  0
    8.8151   -1.9894   22.9600 C   0  0  0  0  0  0  0  0  0  0  0  0
    9.4557   -2.5792   23.8255 O   0  0  0  0  0  0  0  0  0  0  0  0
    7.3685   -2.1166   22.8628 C   0  0  0  0  0  0  0  0  0  0  0  0
    6.8741   -2.7268   23.6086 H   0  0  0  0  0  0  0  0  0  0  0  0
    6.7096   -1.4758   21.8764 C   0  0  0  0  0  0  0  0  0  0  0  0
    5.6296   -1.5399   21.7396 H   0  0  0  0  0  0  0  0  0  0  0  0
    5.4388    0.6493   20.1561 C   0  0  0  0  0  0  0  0  0  0  0  0
    5.0255    0.6777   21.1635 H   0  0  0  0  0  0  0  0  0  0  0  0
    4.8156    1.3072   19.0884 C   0  0  0  0  0  0  0  0  0  0  0  0
    3.8784    1.8412   19.2266 H   0  0  0  0  0  0  0  0  0  0  0  0
  1  2  1  0
  2  3  2  0
  3  4  1  0
  4  5  1  0
  4  6  2  0
  6  7  1  0
  7  8  1  0
  8  9  2  0
  9 10  1  0
 10 11  2  0
 11 12  1  0
 11 13  1  0
 13 14  1  0
 13 15  2  0
 15 16  1  0
 15 17  1  0
 17 18  1  0
 17 19  2  0
 19 20  1  0
 20 21  1  0
 20 22  1  0
 20 23  1  0
  9 24  1  0
 24 25  2  0
 24 26  1  0
 26 27  1  0
 26 28  2  0
 28 29  1  0
  6 30  1  0
 30 31  1  0
 30 32  2  0
 32 33  1  0
 32  2  1  0
 28  7  1  0
 19 10  1  0
M  END
>  <plip>  (1) 
-0.17857142857142858

>  <filename>  (1) 
[H][c]1[n][c]([H])[c](-[n]2[n][c](-[c]3[c]([H])[c]([H])[c]([H])[c]([H])[c]3[C]([F])([F])[F])[c](=[O])[c]([H])[c]2[H])[c]([H])[c]1[H]

$$$$
