
     RDKit          3D

 31 32  0  0  0  0  0  0  0  0999 V2000
    4.9162    1.7895   16.9866 H   0  0  0  0  0  0  0  0  0  0  0  0
    5.3980    1.2987   17.8282 C   0  0  0  0  0  0  0  0  0  0  0  0
    6.5584    0.6850   17.5606 N   0  0  0  0  0  0  0  0  0  0  0  0
    7.1525    0.0598   18.5812 C   0  0  0  0  0  0  0  0  0  0  0  0
    8.1081   -0.4149   18.3644 H   0  0  0  0  0  0  0  0  0  0  0  0
    6.6338   -0.0185   19.8829 C   0  0  0  0  0  0  0  0  0  0  0  0
    7.3888   -0.7191   20.9887 C   0  0  0  0  0  0  0  0  0  0  0  0
    7.9451   -1.5759   20.5848 H   0  0  0  0  0  0  0  0  0  0  0  0
    6.6823   -1.1201   21.7266 H   0  0  0  0  0  0  0  0  0  0  0  0
    8.3809    0.1764   21.7520 C   0  0  1  0  0  0  0  0  0  0  0  0
    8.9003   -0.4279   22.5021 H   0  0  0  0  0  0  0  0  0  0  0  0
    9.6784    0.7666   20.6565 Cl  0  0  0  0  0  0  0  0  0  0  0  0
    7.5179    1.5340   22.6367 S   0  0  0  0  0  0  0  0  0  0  0  0
    8.6138    1.6557   24.0819 C   0  0  0  0  0  0  0  0  0  0  0  0
    8.6298    0.6693   24.5515 H   0  0  0  0  0  0  0  0  0  0  0  0
    8.0888    2.3189   24.7781 H   0  0  0  0  0  0  0  0  0  0  0  0
    9.9997    2.1565   23.7714 C   0  0  0  0  0  0  0  0  0  0  0  0
   11.1074    1.2959   23.8112 C   0  0  0  0  0  0  0  0  0  0  0  0
   10.9676    0.2525   24.0937 H   0  0  0  0  0  0  0  0  0  0  0  0
   12.3829    1.7666   23.4844 C   0  0  0  0  0  0  0  0  0  0  0  0
   13.2307    1.0860   23.5199 H   0  0  0  0  0  0  0  0  0  0  0  0
   12.5622    3.1017   23.1052 C   0  0  0  0  0  0  0  0  0  0  0  0
   13.5533    3.4651   22.8467 H   0  0  0  0  0  0  0  0  0  0  0  0
   11.4597    3.9632   23.0493 C   0  0  0  0  0  0  0  0  0  0  0  0
   11.5818    5.0003   22.7461 H   0  0  0  0  0  0  0  0  0  0  0  0
   10.1866    3.4925   23.3782 C   0  0  0  0  0  0  0  0  0  0  0  0
    9.3216    4.1517   23.3119 H   0  0  0  0  0  0  0  0  0  0  0  0
    5.4252    0.6377   20.1437 C   0  0  0  0  0  0  0  0  0  0  0  0
    5.0115    0.6335   21.1560 H   0  0  0  0  0  0  0  0  0  0  0  0
    4.7992    1.3127   19.0941 C   0  0  0  0  0  0  0  0  0  0  0  0
    3.8676    1.8493   19.2532 H   0  0  0  0  0  0  0  0  0  0  0  0
  1  2  1  0
  2  3  2  0
  3  4  1  0
  4  5  1  0
  4  6  2  0
  6  7  1  0
  7  8  1  0
  7  9  1  0
  7 10  1  0
 10 11  1  1
 10 12  1  0
 10 13  1  0
 13 14  1  0
 14 15  1  0
 14 16  1  0
 14 17  1  0
 17 18  2  0
 18 19  1  0
 18 20  1  0
 20 21  1  0
 20 22  2  0
 22 23  1  0
 22 24  1  0
 24 25  1  0
 24 26  2  0
 26 27  1  0
  6 28  1  0
 28 29  1  0
 28 30  2  0
 30 31  1  0
 30  2  1  0
 26 17  1  0
M  END
>  <plip>  (1) 
-0.07142857142857142

>  <filename>  (1) 
[H][c]1[n][c]([H])[c]([C]([H])([H])[C@@]([H])([Cl])[S][C]([H])([H])[c]2[c]([H])[c]([H])[c]([H])[c]([H])[c]2[H])[c]([H])[c]1[H]

$$$$
