
     RDKit          3D

 28 29  0  0  0  0  0  0  0  0999 V2000
    5.2636   -5.8466   25.4016 H   0  0  0  0  0  0  0  0  0  0  0  0
    5.2911   -4.7723   25.2731 C   0  0  0  0  0  0  0  0  0  0  0  0
    4.5891   -3.7870   25.8251 C   0  0  0  0  0  0  0  0  0  0  0  0
    3.8169   -3.7817   26.5833 H   0  0  0  0  0  0  0  0  0  0  0  0
    5.0130   -2.4831   25.2319 C   0  0  0  0  0  0  0  0  0  0  0  0
    4.6291   -1.3882   25.5498 O   0  0  0  0  0  0  0  0  0  0  0  0
    5.9721   -2.8146   24.2436 N   0  0  0  0  0  0  0  0  0  0  0  0
    6.5382   -1.9460   23.3218 N   0  0  0  0  0  0  0  0  0  0  0  0
    7.0891   -1.1764   23.6701 H   0  0  0  0  0  0  0  0  0  0  0  0
    6.3448   -1.9544   21.9559 C   0  0  0  0  0  0  0  0  0  0  0  0
    5.6918   -2.7652   21.3293 O   0  0  0  0  0  0  0  0  0  0  0  0
    7.2024   -0.8350   21.2473 C   0  0  1  0  0  0  0  0  0  0  0  0
    8.0215   -1.4463   20.8439 H   0  0  0  0  0  0  0  0  0  0  0  0
    6.4887   -0.1749   20.0860 C   0  0  0  0  0  0  0  0  0  0  0  0
    7.1517   -0.0963   18.8568 C   0  0  0  0  0  0  0  0  0  0  0  0
    8.0884   -0.6399   18.7238 H   0  0  0  0  0  0  0  0  0  0  0  0
    6.6977    0.5794   17.7949 N   0  0  0  0  0  0  0  0  0  0  0  0
    5.5338    1.2288   17.9433 C   0  0  0  0  0  0  0  0  0  0  0  0
    5.1921    1.7969   17.0811 H   0  0  0  0  0  0  0  0  0  0  0  0
    4.7767    1.2031   19.1197 C   0  0  0  0  0  0  0  0  0  0  0  0
    3.8584    1.7756   19.1782 H   0  0  0  0  0  0  0  0  0  0  0  0
    5.2507    0.4724   20.2120 C   0  0  0  0  0  0  0  0  0  0  0  0
    4.6790    0.4184   21.1421 H   0  0  0  0  0  0  0  0  0  0  0  0
    7.8245    0.2258   22.0969 N   0  0  0  0  0  0  0  0  0  0  0  0
    7.1976    1.0344   22.1173 H   0  0  0  0  0  0  0  0  0  0  0  0
    8.6519    0.5716   21.6170 H   0  0  0  0  0  0  0  0  0  0  0  0
    6.2579   -4.1980   24.2945 C   0  0  0  0  0  0  0  0  0  0  0  0
    7.1058   -4.7992   23.6925 O   0  0  0  0  0  0  0  0  0  0  0  0
  1  2  1  0
  2  3  2  0
  3  4  1  0
  3  5  1  0
  5  6  2  0
  5  7  1  0
  7  8  1  0
  8  9  1  0
  8 10  1  0
 10 11  2  0
 10 12  1  0
 12 13  1  6
 12 14  1  0
 14 15  2  0
 15 16  1  0
 15 17  1  0
 17 18  2  0
 18 19  1  0
 18 20  1  0
 20 21  1  0
 20 22  2  0
 22 23  1  0
 12 24  1  0
 24 25  1  0
 24 26  1  0
  7 27  1  0
 27 28  2  0
 27  2  1  0
 22 14  1  0
M  END
>  <plip>  (1) 
-0.03571428571428571

>  <filename>  (1) 
[H][C]1=[C]([H])[C](=[O])[N]([N]([H])[C](=[O])[C@@]([H])([c]2[c]([H])[n][c]([H])[c]([H])[c]2[H])[N]([H])[H])[C]1=[O]

$$$$
