
     RDKit          3D

 30 32  0  0  0  0  0  0  0  0999 V2000
    3.2115   -4.6366   24.6485 C   0  0  0  0  0  0  0  0  0  0  0  0
    2.9638   -5.3909   23.4965 C   0  0  0  0  0  0  0  0  0  0  0  0
    3.7918   -5.2463   22.3872 C   0  0  0  0  0  0  0  0  0  0  0  0
    4.8430   -4.3150   22.3930 C   0  0  0  0  0  0  0  0  0  0  0  0
    5.5200   -4.0119   21.1172 C   0  0  0  0  0  0  0  0  0  0  0  0
    5.4804   -4.7591   20.0264 N   0  0  0  0  0  0  0  0  0  0  0  0
    5.8803   -3.9900   19.0084 N   0  0  0  0  0  0  0  0  0  0  0  0
    6.1723   -2.8053   19.4107 N   0  0  0  0  0  0  0  0  0  0  0  0
    6.0034   -2.8110   20.7305 N   0  0  0  0  0  0  0  0  0  0  0  0
    6.2468   -1.7190   21.5014 O   0  0  0  0  0  0  0  0  0  0  0  0
    7.2482   -0.8213   20.9412 C   0  0  0  0  0  0  0  0  0  0  0  0
    6.6317    0.0324   19.8706 C   0  0  0  0  0  0  0  0  0  0  0  0
    5.4150    0.6850   20.1023 C   0  0  0  0  0  0  0  0  0  0  0  0
    4.8055    1.3714   19.0514 C   0  0  0  0  0  0  0  0  0  0  0  0
    5.4340    1.3722   17.8025 C   0  0  0  0  0  0  0  0  0  0  0  0
    6.5985    0.7510   17.5637 N   0  0  0  0  0  0  0  0  0  0  0  0
    7.1696    0.0968   18.5837 C   0  0  0  0  0  0  0  0  0  0  0  0
    8.0867   -0.4535   18.3603 H   0  0  0  0  0  0  0  0  0  0  0  0
    4.9871    1.8898   16.9533 H   0  0  0  0  0  0  0  0  0  0  0  0
    3.8630    1.8922   19.1839 H   0  0  0  0  0  0  0  0  0  0  0  0
    4.9552    0.6273   21.0900 H   0  0  0  0  0  0  0  0  0  0  0  0
    7.5602   -0.2389   21.8108 H   0  0  0  0  0  0  0  0  0  0  0  0
    8.0855   -1.4226   20.5664 H   0  0  0  0  0  0  0  0  0  0  0  0
    5.1564   -3.6504   23.5852 C   0  0  0  0  0  0  0  0  0  0  0  0
    4.3364   -3.8069   24.7065 C   0  0  0  0  0  0  0  0  0  0  0  0
    4.5779   -3.2743   25.6223 H   0  0  0  0  0  0  0  0  0  0  0  0
    6.0271   -3.0026   23.6346 H   0  0  0  0  0  0  0  0  0  0  0  0
    3.6217   -5.8618   21.5123 H   0  0  0  0  0  0  0  0  0  0  0  0
    2.1352   -6.0895   23.4434 H   0  0  0  0  0  0  0  0  0  0  0  0
    2.5433   -4.7226   25.5029 H   0  0  0  0  0  0  0  0  0  0  0  0
  1  2  2  0
  2  3  1  0
  3  4  2  0
  4  5  1  0
  5  6  2  0
  6  7  1  0
  7  8  2  0
  8  9  1  0
  9 10  1  0
 10 11  1  0
 11 12  1  0
 12 13  2  0
 13 14  1  0
 14 15  2  0
 15 16  1  0
 16 17  2  0
 17 18  1  0
 15 19  1  0
 14 20  1  0
 13 21  1  0
 11 22  1  0
 11 23  1  0
  4 24  1  0
 24 25  2  0
 25 26  1  0
 24 27  1  0
  3 28  1  0
  2 29  1  0
  1 30  1  0
 25  1  1  0
  9  5  1  0
 17 12  1  0
M  END
>  <plip>  (1) 
-0.13793103448275862

>  <filename>  (1) 
[H][c]1[n][c]([H])[c]([C]([H])([H])[O][n]2[n][n][n][c]2-[c]2[c]([H])[c]([H])[c]([H])[c]([H])[c]2[H])[c]([H])[c]1[H]

$$$$
