
     RDKit          3D

 29 31  0  0  0  0  0  0  0  0999 V2000
    4.9895    1.8466   16.9655 H   0  0  0  0  0  0  0  0  0  0  0  0
    5.4151    1.3046   17.8062 C   0  0  0  0  0  0  0  0  0  0  0  0
    6.5626    0.6523   17.5715 N   0  0  0  0  0  0  0  0  0  0  0  0
    7.1221    0.0091   18.6001 C   0  0  0  0  0  0  0  0  0  0  0  0
    8.0531   -0.5141   18.3856 H   0  0  0  0  0  0  0  0  0  0  0  0
    6.5779   -0.0168   19.8923 C   0  0  0  0  0  0  0  0  0  0  0  0
    7.3921   -0.6406   21.0102 C   0  0  0  0  0  0  0  0  0  0  0  0
    8.1611   -1.6586   20.5024 F   0  0  0  0  0  0  0  0  0  0  0  0
    6.5481   -1.2475   21.9029 F   0  0  0  0  0  0  0  0  0  0  0  0
    8.3127    0.3522   21.7266 C   0  0  0  0  0  0  0  0  0  0  0  0
    7.7919    1.1081   22.8211 C   0  0  0  0  0  0  0  0  0  0  0  0
    6.7871    0.9265   23.1969 H   0  0  0  0  0  0  0  0  0  0  0  0
    8.5574    2.0757   23.4252 C   0  0  0  0  0  0  0  0  0  0  0  0
    8.2018    2.6780   24.2470 H   0  0  0  0  0  0  0  0  0  0  0  0
    9.8811    2.3437   22.9851 C   0  0  0  0  0  0  0  0  0  0  0  0
   10.5962    3.2758   23.6938 N   0  0  0  0  0  0  0  0  0  0  0  0
   11.8060    3.5571   23.2650 C   0  0  0  0  0  0  0  0  0  0  0  0
   12.3617    4.2912   23.8485 H   0  0  0  0  0  0  0  0  0  0  0  0
   12.3967    2.9598   22.1173 C   0  0  0  0  0  0  0  0  0  0  0  0
   13.4015    3.2363   21.8335 H   0  0  0  0  0  0  0  0  0  0  0  0
   11.6880    2.0314   21.3984 C   0  0  0  0  0  0  0  0  0  0  0  0
   12.0987    1.6372   20.4786 H   0  0  0  0  0  0  0  0  0  0  0  0
   10.3923    1.6365   21.8514 C   0  0  0  0  0  0  0  0  0  0  0  0
    9.5971    0.6009   21.2652 C   0  0  0  0  0  0  0  0  0  0  0  0
   10.0384   -0.0242   20.4898 H   0  0  0  0  0  0  0  0  0  0  0  0
    5.3594    0.6420   20.1173 C   0  0  0  0  0  0  0  0  0  0  0  0
    4.8784    0.6370   21.0982 H   0  0  0  0  0  0  0  0  0  0  0  0
    4.7746    1.3187   19.0496 C   0  0  0  0  0  0  0  0  0  0  0  0
    3.8526    1.8733   19.1735 H   0  0  0  0  0  0  0  0  0  0  0  0
  1  2  1  0
  2  3  2  0
  3  4  1  0
  4  5  1  0
  4  6  2  0
  6  7  1  0
  7  8  1  0
  7  9  1  0
  7 10  1  0
 10 11  2  0
 11 12  1  0
 11 13  1  0
 13 14  1  0
 13 15  2  0
 15 16  1  0
 16 17  2  0
 17 18  1  0
 17 19  1  0
 19 20  1  0
 19 21  2  0
 21 22  1  0
 21 23  1  0
 23 24  2  0
 24 25  1  0
  6 26  1  0
 26 27  1  0
 26 28  2  0
 28 29  1  0
 28  2  1  0
 24 10  1  0
 23 15  1  0
M  END
>  <plip>  (1) 
-0.03333333333333333

>  <filename>  (1) 
[H][c]1[n][c]([H])[c]([C]([F])([F])[c]2[c]([H])[c]([H])[c]3[n][c]([H])[c]([H])[c]([H])[c]3[c]2[H])[c]([H])[c]1[H]

$$$$
