
     RDKit          3D

 35 37  0  0  0  0  0  0  0  0999 V2000
    5.0104    1.8186   16.9374 H   0  0  0  0  0  0  0  0  0  0  0  0
    5.4631    1.3097   17.7836 C   0  0  0  0  0  0  0  0  0  0  0  0
    6.6273    0.6899   17.5529 N   0  0  0  0  0  0  0  0  0  0  0  0
    7.2111    0.0656   18.5872 C   0  0  0  0  0  0  0  0  0  0  0  0
    8.1640   -0.3996   18.3467 H   0  0  0  0  0  0  0  0  0  0  0  0
    6.6863   -0.0013   19.9002 C   0  0  0  0  0  0  0  0  0  0  0  0
    7.4026   -0.7891   21.0405 C   0  0  0  0  0  0  0  0  0  0  0  0
    6.8807   -2.2818   21.0219 C   0  0  2  0  0  0  0  0  0  0  0  0
    6.9480   -2.5697   19.9629 H   0  0  0  0  0  0  0  0  0  0  0  0
    5.4826   -2.5025   21.3980 N   0  0  0  0  0  0  0  0  0  0  0  0
    5.4565   -3.6652   21.8997 C   0  0  0  0  0  0  0  0  0  0  0  0
    4.3080   -4.3109   22.2452 N   0  0  0  0  0  0  0  0  0  0  0  0
    4.4139   -4.6800   23.1769 H   0  0  0  0  0  0  0  0  0  0  0  0
    3.6173   -3.5755   22.2005 H   0  0  0  0  0  0  0  0  0  0  0  0
    6.5936   -4.3398   22.1023 O   0  0  0  0  0  0  0  0  0  0  0  0
    7.6322   -3.3853   21.8057 C   0  0  0  0  0  0  0  0  0  0  0  0
    8.0597   -3.0702   22.7627 H   0  0  0  0  0  0  0  0  0  0  0  0
    8.4152   -3.8607   21.2045 H   0  0  0  0  0  0  0  0  0  0  0  0
    8.9463   -0.7535   20.7815 C   0  0  0  0  0  0  0  0  0  0  0  0
    9.2212   -1.4216   19.9589 H   0  0  0  0  0  0  0  0  0  0  0  0
    9.2124    0.2648   20.4686 H   0  0  0  0  0  0  0  0  0  0  0  0
    9.8357   -1.0802   21.9839 C   0  0  0  0  0  0  0  0  0  0  0  0
    9.8543   -2.1580   22.2044 H   0  0  0  0  0  0  0  0  0  0  0  0
   10.8681   -0.7865   21.7646 H   0  0  0  0  0  0  0  0  0  0  0  0
    9.4763   -0.3364   23.1318 O   0  0  0  0  0  0  0  0  0  0  0  0
    8.1260   -0.4665   23.5274 C   0  0  0  0  0  0  0  0  0  0  0  0
    7.9279   -1.4743   23.9216 H   0  0  0  0  0  0  0  0  0  0  0  0
    8.0060    0.2181   24.3736 H   0  0  0  0  0  0  0  0  0  0  0  0
    7.1467   -0.0899   22.4148 C   0  0  0  0  0  0  0  0  0  0  0  0
    7.2293    0.9975   22.2695 H   0  0  0  0  0  0  0  0  0  0  0  0
    6.1308   -0.3046   22.7646 H   0  0  0  0  0  0  0  0  0  0  0  0
    5.4547    0.6562   20.0996 C   0  0  0  0  0  0  0  0  0  0  0  0
    4.9901    0.6648   21.0844 H   0  0  0  0  0  0  0  0  0  0  0  0
    4.8363    1.3176   19.0325 C   0  0  0  0  0  0  0  0  0  0  0  0
    3.9040    1.8564   19.1650 H   0  0  0  0  0  0  0  0  0  0  0  0
  1  2  1  0
  2  3  2  0
  3  4  1  0
  4  5  1  0
  4  6  2  0
  6  7  1  0
  7  8  1  0
  8  9  1  6
  8 10  1  0
 10 11  2  0
 11 12  1  0
 12 13  1  0
 12 14  1  0
 11 15  1  0
 15 16  1  0
 16 17  1  0
 16 18  1  0
  7 19  1  0
 19 20  1  0
 19 21  1  0
 19 22  1  0
 22 23  1  0
 22 24  1  0
 22 25  1  0
 25 26  1  0
 26 27  1  0
 26 28  1  0
 26 29  1  0
 29 30  1  0
 29 31  1  0
  6 32  1  0
 32 33  1  0
 32 34  2  0
 34 35  1  0
 34  2  1  0
 29  7  1  0
 16  8  1  0
M  END
>  <plip>  (1) 
-0.10714285714285714

>  <filename>  (1) 
[H][c]1[n][c]([H])[c]([C]2([C@]3([H])[N]=[C]([N]([H])[H])[O][C]3([H])[H])[C]([H])([H])[C]([H])([H])[O][C]([H])([H])[C]2([H])[H])[c]([H])[c]1[H]

$$$$
