
     RDKit          3D

 30 31  0  0  0  0  0  0  0  0999 V2000
    6.2173    0.2319   22.7413 O   0  0  0  0  0  0  0  0  0  0  0  0
    6.9731   -0.5659   22.2258 C   0  0  0  0  0  0  0  0  0  0  0  0
    7.8015   -1.5485   23.0819 C   0  0  0  0  0  0  0  0  0  0  0  0
    9.2315   -1.1924   23.1877 N   0  0  0  0  0  0  0  0  0  0  0  0
    9.5909   -0.1979   24.0549 C   0  0  0  0  0  0  0  0  0  0  0  0
   10.8378    0.3434   23.9997 C   0  0  0  0  0  0  0  0  0  0  0  0
   11.1382    1.5249   24.8194 N   0  0  0  0  0  4  0  0  0  0  0  0
   11.9514    2.3228   24.3850 O   0  0  0  0  0  0  0  0  0  0  0  0
   10.5568    1.6463   25.8830 O   0  0  0  0  0  1  0  0  0  0  0  0
   11.8380   -0.1699   23.1276 C   0  0  0  0  0  0  0  0  0  0  0  0
   11.5003   -1.1985   22.2965 C   0  0  0  0  0  0  0  0  0  0  0  0
   10.1348   -1.6779   22.1964 C   0  0  0  0  0  0  0  0  0  0  0  0
    9.7153   -2.3922   21.2879 O   0  0  0  0  0  0  0  0  0  0  0  0
   12.1655   -1.6820   21.5990 H   0  0  0  0  0  0  0  0  0  0  0  0
   12.8368    0.2727   23.1312 H   0  0  0  0  0  0  0  0  0  0  0  0
    8.8436    0.1239   24.7770 H   0  0  0  0  0  0  0  0  0  0  0  0
    7.7560   -2.5513   22.6567 H   0  0  0  0  0  0  0  0  0  0  0  0
    7.3566   -1.5500   24.0756 H   0  0  0  0  0  0  0  0  0  0  0  0
    7.2305   -0.6892   20.8853 N   0  0  0  0  0  0  0  0  0  0  0  0
    6.6192   -0.0012   19.8088 C   0  0  0  0  0  0  0  0  0  0  0  0
    5.4252    0.7077   20.0020 C   0  0  0  0  0  0  0  0  0  0  0  0
    4.8510    1.3428   18.8948 C   0  0  0  0  0  0  0  0  0  0  0  0
    5.4789    1.2735   17.6473 C   0  0  0  0  0  0  0  0  0  0  0  0
    6.6270    0.6056   17.4461 N   0  0  0  0  0  0  0  0  0  0  0  0
    7.1720   -0.0146   18.5016 C   0  0  0  0  0  0  0  0  0  0  0  0
    8.1027   -0.5454   18.3006 H   0  0  0  0  0  0  0  0  0  0  0  0
    5.0483    1.7682   16.7788 H   0  0  0  0  0  0  0  0  0  0  0  0
    3.9306    1.9067   18.9992 H   0  0  0  0  0  0  0  0  0  0  0  0
    4.9963    0.7681   21.0003 H   0  0  0  0  0  0  0  0  0  0  0  0
    8.0242   -1.2916   20.6935 H   0  0  0  0  0  0  0  0  0  0  0  0
  1  2  2  0
  2  3  1  0
  3  4  1  0
  4  5  1  0
  5  6  2  0
  6  7  1  0
  7  8  2  0
  7  9  1  0
  6 10  1  0
 10 11  2  0
 11 12  1  0
 12 13  2  0
 11 14  1  0
 10 15  1  0
  5 16  1  0
  3 17  1  0
  3 18  1  0
  2 19  1  0
 19 20  1  0
 20 21  2  0
 21 22  1  0
 22 23  2  0
 23 24  1  0
 24 25  2  0
 25 26  1  0
 23 27  1  0
 22 28  1  0
 21 29  1  0
 19 30  1  0
 12  4  1  0
 25 20  1  0
M  CHG  2   7   1   9  -1
M  END
>  <plip>  (1) 
-0.10714285714285714

>  <filename>  (1) 
[H][c]1[n][c]([H])[c]([N]([H])[C](=[O])[C]([H])([H])[n]2[c]([H])[c]([N+](=[O])[O-])[c]([H])[c]([H])[c]2=[O])[c]([H])[c]1[H]

$$$$
