
     RDKit          3D

 31 32  0  0  0  0  0  0  0  0999 V2000
    4.9810    1.6848   16.8464 H   0  0  0  0  0  0  0  0  0  0  0  0
    5.4331    1.2477   17.7347 C   0  0  0  0  0  0  0  0  0  0  0  0
    6.6096    0.6230   17.5576 N   0  0  0  0  0  0  0  0  0  0  0  0
    7.1759    0.0502   18.6297 C   0  0  0  0  0  0  0  0  0  0  0  0
    8.1265   -0.4511   18.4514 H   0  0  0  0  0  0  0  0  0  0  0  0
    6.6226    0.0717   19.9406 C   0  0  0  0  0  0  0  0  0  0  0  0
    7.2064   -0.5954   21.0689 N   0  0  0  0  0  0  0  0  0  0  0  0
    7.9375   -1.2745   20.9427 H   0  0  0  0  0  0  0  0  0  0  0  0
    7.4258   -0.0939   22.3082 C   0  0  0  0  0  0  0  0  0  0  0  0
    6.9596    1.0263   22.7044 N   0  0  0  0  0  0  0  0  0  0  0  0
    7.1765    1.3474   24.0062 C   0  0  0  0  0  0  0  0  0  0  0  0
    7.6913    0.6615   24.8872 O   0  0  0  0  0  0  0  0  0  0  0  0
    6.6959    2.6021   24.2227 N   0  0  0  0  0  0  0  0  0  0  0  0
    6.3297    2.9579   23.3611 H   0  0  0  0  0  0  0  0  0  0  0  0
    6.5267    3.2797   25.4158 C   0  0  0  0  0  0  0  0  0  0  0  0
    6.2555    4.6470   25.3848 C   0  0  0  0  0  0  0  0  0  0  0  0
    6.1984    5.1789   24.4444 H   0  0  0  0  0  0  0  0  0  0  0  0
    6.0793    5.3111   26.5953 C   0  0  0  0  0  0  0  0  0  0  0  0
    5.8777    6.3810   26.6123 H   0  0  0  0  0  0  0  0  0  0  0  0
    6.1406    4.7136   27.7923 N   0  0  0  0  0  0  0  0  0  0  0  0
    6.3979    3.3989   27.7968 C   0  0  0  0  0  0  0  0  0  0  0  0
    6.4402    2.9292   28.7790 H   0  0  0  0  0  0  0  0  0  0  0  0
    6.6080    2.6354   26.6539 C   0  0  0  0  0  0  0  0  0  0  0  0
    6.8312    1.5832   26.7077 H   0  0  0  0  0  0  0  0  0  0  0  0
    8.2599   -0.9283   22.9827 N   0  0  0  0  0  0  0  0  0  0  0  0
    8.2486   -0.5969   23.9505 H   0  0  0  0  0  0  0  0  0  0  0  0
    7.9016   -1.8671   22.8888 H   0  0  0  0  0  0  0  0  0  0  0  0
    5.4075    0.7543   20.0993 C   0  0  0  0  0  0  0  0  0  0  0  0
    4.9774    0.8221   21.0965 H   0  0  0  0  0  0  0  0  0  0  0  0
    4.7957    1.3310   18.9767 C   0  0  0  0  0  0  0  0  0  0  0  0
    3.8404    1.8447   19.0510 H   0  0  0  0  0  0  0  0  0  0  0  0
  1  2  1  0
  2  3  2  0
  3  4  1  0
  4  5  1  0
  4  6  2  0
  6  7  1  0
  7  8  1  0
  7  9  1  0
  9 10  2  3
 10 11  1  0
 11 12  2  0
 11 13  1  0
 13 14  1  0
 13 15  1  0
 15 16  2  0
 16 17  1  0
 16 18  1  0
 18 19  1  0
 18 20  2  0
 20 21  1  0
 21 22  1  0
 21 23  2  0
 23 24  1  0
  9 25  1  0
 25 26  1  0
 25 27  1  0
  6 28  1  0
 28 29  1  0
 28 30  2  0
 30 31  1  0
 30  2  1  0
 23 15  1  0
M  END
>  <plip>  (1) 
-0.07142857142857142

>  <filename>  (1) 
[H][c]1[n][c]([H])[c]([N]([H])[C](=[N][C](=[O])[N]([H])[c]2[c]([H])[c]([H])[n][c]([H])[c]2[H])[N]([H])[H])[c]([H])[c]1[H]

$$$$
