
     RDKit          3D

 41 42  0  0  0  0  0  0  0  0999 V2000
    3.6437   -3.9658   26.6271 C   0  0  0  0  0  0  0  0  0  0  0  0
    3.4951   -5.0777   25.6075 C   0  0  0  0  0  0  0  0  0  0  0  0
    2.6236   -6.1514   25.8410 C   0  0  0  0  0  0  0  0  0  0  0  0
    1.9149   -6.1785   26.9862 F   0  0  0  0  0  0  0  0  0  0  0  0
    2.4254   -7.2067   24.9563 C   0  0  0  0  0  0  0  0  0  0  0  0
    3.1265   -7.2046   23.7515 C   0  0  0  0  0  0  0  0  0  0  0  0
    3.9922   -6.1542   23.4536 C   0  0  0  0  0  0  0  0  0  0  0  0
    4.1755   -5.1127   24.3699 C   0  0  0  0  0  0  0  0  0  0  0  0
    5.0846   -4.0724   24.0434 N   0  0  0  0  0  0  0  0  0  0  0  0
    5.1710   -3.4968   22.8082 C   0  0  0  0  0  0  0  0  0  0  0  0
    4.4002   -3.8068   21.9102 O   0  0  0  0  0  0  0  0  0  0  0  0
    6.3546   -2.4136   22.6089 C   0  0  0  0  0  0  0  0  0  0  0  0
    6.9707   -1.9769   23.5773 O   0  0  0  0  0  0  0  0  0  0  0  0
    6.6176   -2.0087   21.3188 N   0  0  0  0  0  0  0  0  0  0  0  0
    6.3100   -2.8676   20.1671 C   0  0  0  0  0  0  0  0  0  0  0  0
    6.6029   -2.3691   19.2387 H   0  0  0  0  0  0  0  0  0  0  0  0
    5.2414   -3.0489   20.1113 H   0  0  0  0  0  0  0  0  0  0  0  0
    6.8316   -3.8267   20.2645 H   0  0  0  0  0  0  0  0  0  0  0  0
    7.3223   -0.7256   21.0897 C   0  0  0  0  0  0  0  0  0  0  0  0
    8.8268   -0.9289   20.9239 C   0  0  0  0  0  0  0  0  0  0  0  0
    9.2973    0.0355   20.7008 H   0  0  0  0  0  0  0  0  0  0  0  0
    9.0592   -1.6301   20.1143 H   0  0  0  0  0  0  0  0  0  0  0  0
    9.2600   -1.3216   21.8489 H   0  0  0  0  0  0  0  0  0  0  0  0
    6.6654    0.0397   19.9443 C   0  0  0  0  0  0  0  0  0  0  0  0
    5.4336    0.6775   20.1577 C   0  0  0  0  0  0  0  0  0  0  0  0
    4.8027    1.3199   19.0907 C   0  0  0  0  0  0  0  0  0  0  0  0
    5.4186    1.2994   17.8358 C   0  0  0  0  0  0  0  0  0  0  0  0
    6.5834    0.6807   17.5994 N   0  0  0  0  0  0  0  0  0  0  0  0
    7.1811    0.0745   18.6380 C   0  0  0  0  0  0  0  0  0  0  0  0
    8.1253   -0.4165   18.3948 H   0  0  0  0  0  0  0  0  0  0  0  0
    4.9602    1.8002   16.9855 H   0  0  0  0  0  0  0  0  0  0  0  0
    3.8625    1.8448   19.2229 H   0  0  0  0  0  0  0  0  0  0  0  0
    4.9753    0.6564   21.1492 H   0  0  0  0  0  0  0  0  0  0  0  0
    7.1761   -0.1262   21.9989 H   0  0  0  0  0  0  0  0  0  0  0  0
    5.6293   -3.6765   24.7912 H   0  0  0  0  0  0  0  0  0  0  0  0
    4.5289   -6.1225   22.5155 H   0  0  0  0  0  0  0  0  0  0  0  0
    2.9917   -8.0088   23.0362 H   0  0  0  0  0  0  0  0  0  0  0  0
    1.7272   -7.9902   25.2319 H   0  0  0  0  0  0  0  0  0  0  0  0
    3.6193   -2.9772   26.1535 H   0  0  0  0  0  0  0  0  0  0  0  0
    4.5803   -4.0448   27.1935 H   0  0  0  0  0  0  0  0  0  0  0  0
    2.8281   -4.0032   27.3547 H   0  0  0  0  0  0  0  0  0  0  0  0
  1  2  1  0
  2  3  2  0
  3  4  1  0
  3  5  1  0
  5  6  2  0
  6  7  1  0
  7  8  2  0
  8  9  1  0
  9 10  1  0
 10 11  2  0
 10 12  1  0
 12 13  2  0
 12 14  1  0
 14 15  1  0
 15 16  1  0
 15 17  1  0
 15 18  1  0
 14 19  1  0
 19 20  1  0
 20 21  1  0
 20 22  1  0
 20 23  1  0
 19 24  1  0
 24 25  2  0
 25 26  1  0
 26 27  2  0
 27 28  1  0
 28 29  2  0
 29 30  1  0
 27 31  1  0
 26 32  1  0
 25 33  1  0
 19 34  1  0
  9 35  1  0
  7 36  1  0
  6 37  1  0
  5 38  1  0
  1 39  1  0
  1 40  1  0
  1 41  1  0
  8  2  1  0
 29 24  1  0
M  END
>  <plip>  (1) 
-0.07142857142857142

>  <filename>  (1) 
[H][c]1[n][c]([H])[c]([C]([H])([N]([C](=[O])[C](=[O])[N]([H])[c]2[c]([H])[c]([H])[c]([H])[c]([F])[c]2[C]([H])([H])[H])[C]([H])([H])[H])[C]([H])([H])[H])[c]([H])[c]1[H]

$$$$
