
     RDKit          3D

 29 30  0  0  0  0  0  0  0  0999 V2000
    7.2873    3.9716   25.2132 N   0  0  0  0  0  0  0  0  0  0  0  0
    7.7093    3.9983   23.9085 C   0  0  0  0  0  0  0  0  0  0  0  0
    8.7437    4.5543   23.6088 O   0  0  0  0  0  0  0  0  0  0  0  0
    6.7283    3.3326   22.8848 C   0  0  0  0  0  0  0  0  0  0  0  0
    7.1145    2.0234   22.3300 N   0  0  0  0  0  0  0  0  0  0  0  0
    7.0912    0.8842   23.0713 C   0  0  0  0  0  0  0  0  0  0  0  0
    6.7911    0.8944   24.2593 O   0  0  0  0  0  0  0  0  0  0  0  0
    7.5170   -0.3328   22.3638 C   0  0  0  0  0  0  0  0  0  0  0  0
    8.1902   -1.4084   22.9155 C   0  0  0  0  0  0  0  0  0  0  0  0
    8.4455   -2.2445   21.9014 N   0  0  0  0  0  0  0  0  0  0  0  0
    7.9770   -1.8087   20.7256 N   0  0  0  0  0  0  0  0  0  0  0  0
    7.3840   -0.6514   20.9834 C   0  0  0  0  0  0  0  0  0  0  0  0
    6.6442    0.0388   19.9126 C   0  0  0  0  0  0  0  0  0  0  0  0
    5.4068    0.6633   20.1268 C   0  0  0  0  0  0  0  0  0  0  0  0
    4.7943    1.3110   19.0528 C   0  0  0  0  0  0  0  0  0  0  0  0
    5.4231    1.2961   17.8044 C   0  0  0  0  0  0  0  0  0  0  0  0
    6.5846    0.6665   17.5731 N   0  0  0  0  0  0  0  0  0  0  0  0
    7.1647    0.0442   18.6047 C   0  0  0  0  0  0  0  0  0  0  0  0
    8.0948   -0.4734   18.3784 H   0  0  0  0  0  0  0  0  0  0  0  0
    4.9784    1.8094   16.9533 H   0  0  0  0  0  0  0  0  0  0  0  0
    3.8513    1.8290   19.1721 H   0  0  0  0  0  0  0  0  0  0  0  0
    4.9301    0.6477   21.1093 H   0  0  0  0  0  0  0  0  0  0  0  0
    8.8709   -3.1630   21.9432 H   0  0  0  0  0  0  0  0  0  0  0  0
    8.5187   -1.6086   23.9286 H   0  0  0  0  0  0  0  0  0  0  0  0
    7.4266    1.9198   21.3756 H   0  0  0  0  0  0  0  0  0  0  0  0
    6.6255    4.0280   22.0490 H   0  0  0  0  0  0  0  0  0  0  0  0
    5.7404    3.2600   23.3656 H   0  0  0  0  0  0  0  0  0  0  0  0
    8.0742    4.2390   25.7868 H   0  0  0  0  0  0  0  0  0  0  0  0
    6.8459    3.0963   25.4610 H   0  0  0  0  0  0  0  0  0  0  0  0
  1  2  1  0
  2  3  2  0
  2  4  1  0
  4  5  1  0
  5  6  1  0
  6  7  2  0
  6  8  1  0
  8  9  2  0
  9 10  1  0
 10 11  1  0
 11 12  2  0
 12 13  1  0
 13 14  2  0
 14 15  1  0
 15 16  2  0
 16 17  1  0
 17 18  2  0
 18 19  1  0
 16 20  1  0
 15 21  1  0
 14 22  1  0
 10 23  1  0
  9 24  1  0
  5 25  1  0
  4 26  1  0
  4 27  1  0
  1 28  1  0
  1 29  1  0
 12  8  1  0
 18 13  1  0
M  END
>  <plip>  (1) 
-0.0

>  <filename>  (1) 
[H][c]1[n][c]([H])[c](-[c]2[n][n]([H])[c]([H])[c]2[C](=[O])[N]([H])[C]([H])([H])[C](=[O])[N]([H])[H])[c]([H])[c]1[H]

$$$$
