
     RDKit          3D

 49 52  0  0  0  0  0  0  0  0999 V2000
    6.0214   -5.6052   21.3643 O   0  0  0  0  0  0  0  0  0  0  0  0
    6.2011   -4.5931   22.0306 C   0  0  0  0  0  0  0  0  0  0  0  0
    6.1023   -3.2277   21.5502 C   0  0  0  0  0  0  0  0  0  0  0  0
    5.5977   -3.0050   19.9163 Cl  0  0  0  0  0  0  0  0  0  0  0  0
    6.4427   -2.1751   22.3525 C   0  0  0  0  0  0  0  0  0  0  0  0
    6.4217   -0.8717   21.8685 N   0  0  0  0  0  0  0  0  0  0  0  0
    7.3964   -0.4728   20.8369 C   0  0  0  0  0  0  0  0  0  0  0  0
    6.6542    0.2159   19.7139 C   0  0  0  0  0  0  0  0  0  0  0  0
    5.4221    0.8639   19.9017 C   0  0  0  0  0  0  0  0  0  0  0  0
    4.7983    1.4756   18.8140 C   0  0  0  0  0  0  0  0  0  0  0  0
    5.4186    1.4159   17.5635 C   0  0  0  0  0  0  0  0  0  0  0  0
    6.5691    0.7635   17.3478 N   0  0  0  0  0  0  0  0  0  0  0  0
    7.1469    0.1686   18.4013 C   0  0  0  0  0  0  0  0  0  0  0  0
    8.0509   -0.3964   18.1646 H   0  0  0  0  0  0  0  0  0  0  0  0
    4.9610    1.8894   16.6950 H   0  0  0  0  0  0  0  0  0  0  0  0
    3.8434    1.9789   18.9252 H   0  0  0  0  0  0  0  0  0  0  0  0
    4.9420    0.8403   20.8824 H   0  0  0  0  0  0  0  0  0  0  0  0
    8.6041    0.3024   21.4674 C   0  0  0  0  0  0  0  0  0  0  0  0
    8.2852    1.6146   22.2321 C   0  0  0  0  0  0  0  0  0  0  0  0
    8.6362    1.2786   23.6954 C   0  0  0  0  0  0  0  0  0  0  0  0
    9.6968    0.1932   23.5135 C   0  0  0  0  0  0  0  0  0  0  0  0
    9.2303   -0.5706   22.4158 O   0  0  0  0  0  0  0  0  0  0  0  0
   10.6865    0.6325   23.2954 H   0  0  0  0  0  0  0  0  0  0  0  0
    9.8170   -0.4742   24.3738 H   0  0  0  0  0  0  0  0  0  0  0  0
    8.9913    2.1350   24.2790 H   0  0  0  0  0  0  0  0  0  0  0  0
    7.7657    0.8616   24.2197 H   0  0  0  0  0  0  0  0  0  0  0  0
    8.9238    2.4256   21.8602 H   0  0  0  0  0  0  0  0  0  0  0  0
    7.2476    1.9391   22.0804 H   0  0  0  0  0  0  0  0  0  0  0  0
    9.3283    0.4913   20.6650 H   0  0  0  0  0  0  0  0  0  0  0  0
    7.8550   -1.3778   20.4198 H   0  0  0  0  0  0  0  0  0  0  0  0
    6.4438   -0.2071   22.6312 H   0  0  0  0  0  0  0  0  0  0  0  0
    6.8309   -2.4448   23.7195 C   0  0  0  0  0  0  0  0  0  0  0  0
    6.8860   -3.6410   24.2204 N   0  0  0  0  0  0  0  0  0  0  0  0
    6.5679   -4.6714   23.3995 N   0  0  0  0  0  0  0  0  0  0  0  0
    6.6395   -5.9923   24.0093 C   0  0  0  0  0  0  0  0  0  0  0  0
    5.3102   -6.5123   24.5404 C   0  0  0  0  0  0  0  0  0  0  0  0
    4.8125   -6.0901   25.7833 C   0  0  0  0  0  0  0  0  0  0  0  0
    3.6085   -6.6149   26.2710 C   0  0  0  0  0  0  0  0  0  0  0  0
    2.8859   -7.5514   25.5217 C   0  0  0  0  0  0  0  0  0  0  0  0
    3.3589   -7.9495   24.2667 C   0  0  0  0  0  0  0  0  0  0  0  0
    4.5605   -7.4244   23.7808 C   0  0  0  0  0  0  0  0  0  0  0  0
    4.9208   -7.6866   22.7905 H   0  0  0  0  0  0  0  0  0  0  0  0
    2.7894   -8.6587   23.6689 H   0  0  0  0  0  0  0  0  0  0  0  0
    1.9525   -7.9570   25.9110 H   0  0  0  0  0  0  0  0  0  0  0  0
    3.2351   -6.2946   27.2402 H   0  0  0  0  0  0  0  0  0  0  0  0
    5.3559   -5.3413   26.3615 H   0  0  0  0  0  0  0  0  0  0  0  0
    7.3880   -5.9336   24.8075 H   0  0  0  0  0  0  0  0  0  0  0  0
    7.0197   -6.6639   23.2353 H   0  0  0  0  0  0  0  0  0  0  0  0
    7.1214   -1.6357   24.3814 H   0  0  0  0  0  0  0  0  0  0  0  0
  1  2  2  0
  2  3  1  0
  3  4  1  0
  3  5  2  0
  5  6  1  0
  6  7  1  0
  7  8  1  0
  8  9  2  0
  9 10  1  0
 10 11  2  0
 11 12  1  0
 12 13  2  0
 13 14  1  0
 11 15  1  0
 10 16  1  0
  9 17  1  0
  7 18  1  0
 18 19  1  0
 19 20  1  0
 20 21  1  0
 21 22  1  0
 21 23  1  0
 21 24  1  0
 20 25  1  0
 20 26  1  0
 19 27  1  0
 19 28  1  0
 18 29  1  0
  7 30  1  0
  6 31  1  0
  5 32  1  0
 32 33  2  0
 33 34  1  0
 34 35  1  0
 35 36  1  0
 36 37  2  0
 37 38  1  0
 38 39  2  0
 39 40  1  0
 40 41  2  0
 41 42  1  0
 40 43  1  0
 39 44  1  0
 38 45  1  0
 37 46  1  0
 35 47  1  0
 35 48  1  0
 32 49  1  0
 34  2  1  0
 41 36  1  0
 13  8  1  0
 22 18  1  0
M  END
>  <plip>  (1) 
-0.10344827586206896

>  <filename>  (1) 
[H][c]1[n][c]([H])[c]([C]([H])([N]([H])[c]2[c]([H])[n][n]([C]([H])([H])[c]3[c]([H])[c]([H])[c]([H])[c]([H])[c]3[H])[c](=[O])[c]2[Cl])[C]2([H])[O][C]([H])([H])[C]([H])([H])[C]2([H])[H])[c]([H])[c]1[H]

$$$$
