
     RDKit          3D

 34 35  0  0  0  0  0  0  0  0999 V2000
    4.9182    0.2651   28.7359 H   0  0  0  0  0  0  0  0  0  0  0  0
    4.7028    0.9802   28.1247 O   0  0  0  0  0  0  0  0  0  0  0  0
    5.0930    0.5792   26.8893 C   0  0  0  0  0  0  0  0  0  0  0  0
    4.9023    1.4922   25.8473 C   0  0  0  0  0  0  0  0  0  0  0  0
    4.4328    2.4392   26.1037 H   0  0  0  0  0  0  0  0  0  0  0  0
    5.3129    1.1512   24.5568 C   0  0  0  0  0  0  0  0  0  0  0  0
    5.1357    1.8083   23.7073 H   0  0  0  0  0  0  0  0  0  0  0  0
    5.9313   -0.0863   24.3123 C   0  0  0  0  0  0  0  0  0  0  0  0
    6.2228   -0.4403   23.0099 O   0  0  0  0  0  0  0  0  0  0  0  0
    7.5307   -0.2109   22.4388 C   0  0  0  0  0  0  0  0  0  0  0  0
    7.4161   -0.7515   20.9558 C   0  0  0  0  0  0  0  0  0  0  0  0
    8.0089   -1.7602   20.6127 O   0  0  0  0  0  0  0  0  0  0  0  0
    6.6349   -0.0014   19.9184 C   0  0  0  0  0  0  0  0  0  0  0  0
    7.1572    0.0350   18.6113 C   0  0  0  0  0  0  0  0  0  0  0  0
    8.1017   -0.4536   18.3762 H   0  0  0  0  0  0  0  0  0  0  0  0
    6.5652    0.6701   17.5988 N   0  0  0  0  0  0  0  0  0  0  0  0
    5.4035    1.2953   17.8491 C   0  0  0  0  0  0  0  0  0  0  0  0
    4.9475    1.7985   16.9980 H   0  0  0  0  0  0  0  0  0  0  0  0
    4.7937    1.3106   19.1070 C   0  0  0  0  0  0  0  0  0  0  0  0
    3.8624    1.8480   19.2376 H   0  0  0  0  0  0  0  0  0  0  0  0
    5.4184    0.6482   20.1634 C   0  0  0  0  0  0  0  0  0  0  0  0
    4.9775    0.6320   21.1596 H   0  0  0  0  0  0  0  0  0  0  0  0
    8.5672   -1.0357   23.2049 C   0  0  0  0  0  0  0  0  0  0  0  0
    8.6415   -0.6878   24.2375 H   0  0  0  0  0  0  0  0  0  0  0  0
    9.5461   -0.9487   22.7264 H   0  0  0  0  0  0  0  0  0  0  0  0
    8.2721   -2.0890   23.2067 H   0  0  0  0  0  0  0  0  0  0  0  0
    7.8512    1.2887   22.4591 C   0  0  0  0  0  0  0  0  0  0  0  0
    7.0367    1.8645   22.0091 H   0  0  0  0  0  0  0  0  0  0  0  0
    8.7778    1.4996   21.9155 H   0  0  0  0  0  0  0  0  0  0  0  0
    7.9593    1.6286   23.4928 H   0  0  0  0  0  0  0  0  0  0  0  0
    6.0678   -1.0133   25.3550 C   0  0  0  0  0  0  0  0  0  0  0  0
    6.4510   -2.0017   25.1204 H   0  0  0  0  0  0  0  0  0  0  0  0
    5.6579   -0.6771   26.6535 C   0  0  0  0  0  0  0  0  0  0  0  0
    5.7616   -1.3788   27.4800 H   0  0  0  0  0  0  0  0  0  0  0  0
  1  2  1  0
  2  3  1  0
  3  4  2  0
  4  5  1  0
  4  6  1  0
  6  7  1  0
  6  8  2  0
  8  9  1  0
  9 10  1  0
 10 11  1  0
 11 12  2  0
 11 13  1  0
 13 14  2  0
 14 15  1  0
 14 16  1  0
 16 17  2  0
 17 18  1  0
 17 19  1  0
 19 20  1  0
 19 21  2  0
 21 22  1  0
 10 23  1  0
 23 24  1  0
 23 25  1  0
 23 26  1  0
 10 27  1  0
 27 28  1  0
 27 29  1  0
 27 30  1  0
  8 31  1  0
 31 32  1  0
 31 33  2  0
 33 34  1  0
 33  3  1  0
 21 13  1  0
M  END
>  <plip>  (1) 
-0.0

>  <filename>  (1) 
[H][O][c]1[c]([H])[c]([H])[c]([O][C]([C](=[O])[c]2[c]([H])[n][c]([H])[c]([H])[c]2[H])([C]([H])([H])[H])[C]([H])([H])[H])[c]([H])[c]1[H]

$$$$
