
     RDKit          3D

 37 40  0  0  0  0  0  0  0  0999 V2000
    4.9360    1.8237   17.0084 H   0  0  0  0  0  0  0  0  0  0  0  0
    5.4020    1.2909   17.8338 C   0  0  0  0  0  0  0  0  0  0  0  0
    6.5516    0.6532   17.5614 N   0  0  0  0  0  0  0  0  0  0  0  0
    7.1683    0.0276   18.5697 C   0  0  0  0  0  0  0  0  0  0  0  0
    8.1186   -0.4531   18.3431 H   0  0  0  0  0  0  0  0  0  0  0  0
    6.6523   -0.0198   19.8761 C   0  0  0  0  0  0  0  0  0  0  0  0
    7.3637   -0.6916   20.9269 N   0  0  0  0  0  0  0  0  0  0  0  0
    6.6184   -1.5621   21.6619 N   0  0  0  0  0  0  0  0  0  0  0  0
    7.2085   -2.2497   22.6161 C   0  0  0  0  0  0  0  0  0  0  0  0
    6.3810   -3.2421   23.3672 C   0  0  0  0  0  0  0  0  0  0  0  0
    6.8144   -3.9961   24.3446 N   0  0  0  0  0  0  0  0  0  0  0  0
    5.7215   -4.7335   24.7378 C   0  0  0  0  0  0  0  0  0  0  0  0
    5.6244   -5.6871   25.7578 C   0  0  0  0  0  0  0  0  0  0  0  0
    6.5362   -5.9273   26.2979 H   0  0  0  0  0  0  0  0  0  0  0  0
    4.3859   -6.2992   25.9976 C   0  0  0  0  0  0  0  0  0  0  0  0
    4.1423   -7.3206   27.0772 C   0  0  0  0  0  0  0  0  0  0  0  0
    3.1003   -7.9382   27.1727 O   0  0  0  0  0  0  0  0  0  0  0  0
    5.1515   -7.5600   27.9763 N   0  0  0  0  0  0  0  0  0  0  0  0
    5.6599   -6.7483   28.2875 H   0  0  0  0  0  0  0  0  0  0  0  0
    4.7781   -8.1332   28.7184 H   0  0  0  0  0  0  0  0  0  0  0  0
    3.2714   -5.9728   25.1745 C   0  0  0  0  0  0  0  0  0  0  0  0
    2.3396   -6.4938   25.3715 H   0  0  0  0  0  0  0  0  0  0  0  0
    3.3471   -5.0356   24.1542 C   0  0  0  0  0  0  0  0  0  0  0  0
    2.4731   -4.8137   23.5507 H   0  0  0  0  0  0  0  0  0  0  0  0
    4.5878   -4.4104   23.9550 C   0  0  0  0  0  0  0  0  0  0  0  0
    5.0553   -3.4621   23.0755 N   0  0  0  0  0  0  0  0  0  0  0  0
    4.5539   -2.8735   22.4333 H   0  0  0  0  0  0  0  0  0  0  0  0
    8.6014   -2.0663   22.9519 C   0  0  0  0  0  0  0  0  0  0  0  0
    9.0401   -2.6534   23.7588 H   0  0  0  0  0  0  0  0  0  0  0  0
    9.3275   -1.1563   22.2572 C   0  0  0  0  0  0  0  0  0  0  0  0
   10.3722   -0.9372   22.4435 H   0  0  0  0  0  0  0  0  0  0  0  0
    8.7465   -0.3747   21.1745 C   0  0  0  0  0  0  0  0  0  0  0  0
    9.3528    0.4547   20.5178 O   0  0  0  0  0  0  0  0  0  0  0  0
    5.4357    0.6117   20.1451 C   0  0  0  0  0  0  0  0  0  0  0  0
    5.0142    0.5512   21.1483 H   0  0  0  0  0  0  0  0  0  0  0  0
    4.8113    1.3006   19.1028 C   0  0  0  0  0  0  0  0  0  0  0  0
    3.8890    1.8461   19.2643 H   0  0  0  0  0  0  0  0  0  0  0  0
  1  2  1  0
  2  3  2  0
  3  4  1  0
  4  5  1  0
  4  6  2  0
  6  7  1  0
  7  8  1  0
  8  9  2  0
  9 10  1  0
 10 11  2  0
 11 12  1  0
 12 13  2  0
 13 14  1  0
 13 15  1  0
 15 16  1  0
 16 17  2  0
 16 18  1  0
 18 19  1  0
 18 20  1  0
 15 21  2  0
 21 22  1  0
 21 23  1  0
 23 24  1  0
 23 25  2  0
 25 26  1  0
 26 27  1  0
  9 28  1  0
 28 29  1  0
 28 30  2  0
 30 31  1  0
 30 32  1  0
 32 33  2  0
  6 34  1  0
 34 35  1  0
 34 36  2  0
 36 37  1  0
 36  2  1  0
 32  7  1  0
 26 10  1  0
 25 12  1  0
M  END
>  <plip>  (1) 
-0.13333333333333333

>  <filename>  (1) 
[H][c]1[n][c]([H])[c](-[n]2[n][c](-[c]3[n][c]4[c]([H])[c]([C](=[O])[N]([H])[H])[c]([H])[c]([H])[c]4[n]3[H])[c]([H])[c]([H])[c]2=[O])[c]([H])[c]1[H]

$$$$
