
     RDKit          3D

 31 33  0  0  0  0  0  0  0  0999 V2000
    4.9241    1.7914   16.9867 H   0  0  0  0  0  0  0  0  0  0  0  0
    5.4019    1.2957   17.8277 C   0  0  0  0  0  0  0  0  0  0  0  0
    6.5614    0.6746   17.5649 N   0  0  0  0  0  0  0  0  0  0  0  0
    7.1523    0.0448   18.5825 C   0  0  0  0  0  0  0  0  0  0  0  0
    8.1095   -0.4278   18.3666 H   0  0  0  0  0  0  0  0  0  0  0  0
    6.6496   -0.0047   19.8971 C   0  0  0  0  0  0  0  0  0  0  0  0
    7.3690   -0.7089   20.9556 C   0  0  0  0  0  0  0  0  0  0  0  0
    7.5754   -0.2519   22.2247 C   0  0  0  0  0  0  0  0  0  0  0  0
    7.2304    1.0806   22.7451 C   0  0  0  0  0  0  0  0  0  0  0  0
    6.3179    1.1694   23.8047 C   0  0  0  0  0  0  0  0  0  0  0  0
    5.9352    0.2398   24.2149 H   0  0  0  0  0  0  0  0  0  0  0  0
    5.9155    2.4003   24.3063 C   0  0  0  0  0  0  0  0  0  0  0  0
    5.2123    2.4444   25.1294 H   0  0  0  0  0  0  0  0  0  0  0  0
    6.4277    3.5783   23.7620 C   0  0  0  0  0  0  0  0  0  0  0  0
    6.1415    4.5531   24.1376 H   0  0  0  0  0  0  0  0  0  0  0  0
    7.3457    3.5197   22.7128 C   0  0  0  0  0  0  0  0  0  0  0  0
    7.9632    5.0149   22.0810 Cl  0  0  0  0  0  0  0  0  0  0  0  0
    7.7528    2.2774   22.2081 C   0  0  0  0  0  0  0  0  0  0  0  0
    8.9459    2.2157   20.9632 Cl  0  0  0  0  0  0  0  0  0  0  0  0
    8.2356   -1.2898   23.0457 C   0  0  0  0  0  0  0  0  0  0  0  0
    8.5634   -1.2213   24.2087 O   0  0  0  0  0  0  0  0  0  0  0  0
    8.4625   -2.5067   22.1488 C   0  0  0  0  0  0  0  0  0  0  0  0
    9.5260   -2.7584   22.1461 H   0  0  0  0  0  0  0  0  0  0  0  0
    7.9406   -3.3621   22.5825 H   0  0  0  0  0  0  0  0  0  0  0  0
    7.9348   -2.0875   20.7681 C   0  0  0  0  0  0  0  0  0  0  0  0
    7.1567   -2.7611   20.3746 H   0  0  0  0  0  0  0  0  0  0  0  0
    8.7527   -2.0101   20.0412 H   0  0  0  0  0  0  0  0  0  0  0  0
    5.4364    0.6589   20.1514 C   0  0  0  0  0  0  0  0  0  0  0  0
    5.0057    0.6438   21.1562 H   0  0  0  0  0  0  0  0  0  0  0  0
    4.8065    1.3107   19.0949 C   0  0  0  0  0  0  0  0  0  0  0  0
    3.8763    1.8424   19.2484 H   0  0  0  0  0  0  0  0  0  0  0  0
  1  2  1  0
  2  3  2  0
  3  4  1  0
  4  5  1  0
  4  6  2  0
  6  7  1  0
  7  8  2  0
  8  9  1  0
  9 10  2  0
 10 11  1  0
 10 12  1  0
 12 13  1  0
 12 14  2  0
 14 15  1  0
 14 16  1  0
 16 17  1  0
 16 18  2  0
 18 19  1  0
  8 20  1  0
 20 21  2  0
 20 22  1  0
 22 23  1  0
 22 24  1  0
 22 25  1  0
 25 26  1  0
 25 27  1  0
  6 28  1  0
 28 29  1  0
 28 30  2  0
 30 31  1  0
 30  2  1  0
 25  7  1  0
 18  9  1  0
M  END
>  <plip>  (1) 
-0.03571428571428571

>  <filename>  (1) 
[H][c]1[n][c]([H])[c]([C]2=[C]([c]3[c]([H])[c]([H])[c]([H])[c]([Cl])[c]3[Cl])[C](=[O])[C]([H])([H])[C]2([H])[H])[c]([H])[c]1[H]

$$$$
