
     RDKit          3D

 33 35  0  0  0  0  0  0  0  0999 V2000
    4.9478    1.8009   16.9969 H   0  0  0  0  0  0  0  0  0  0  0  0
    5.4057    1.2904   17.8372 C   0  0  0  0  0  0  0  0  0  0  0  0
    6.5614    0.6575   17.5895 N   0  0  0  0  0  0  0  0  0  0  0  0
    7.1494    0.0434   18.6193 C   0  0  0  0  0  0  0  0  0  0  0  0
    8.0867   -0.4668   18.3994 H   0  0  0  0  0  0  0  0  0  0  0  0
    6.6320    0.0086   19.9233 C   0  0  0  0  0  0  0  0  0  0  0  0
    7.4157   -0.7078   20.9408 C   0  0  0  0  0  0  0  0  0  0  0  0
    8.7559   -0.9756   20.9891 C   0  0  0  0  0  0  0  0  0  0  0  0
    9.5477   -0.6747   20.3216 H   0  0  0  0  0  0  0  0  0  0  0  0
    9.0581   -1.7125   22.1903 C   0  0  0  0  0  0  0  0  0  0  0  0
   10.1244   -2.0841   22.6578 O   0  0  0  0  0  0  0  0  0  0  0  0
    7.7607   -1.9490   22.7457 N   0  0  0  0  0  0  0  0  0  0  0  0
    7.2753   -2.1741   24.0551 N   0  0  0  0  0  0  0  0  0  0  0  0
    8.3428   -2.2637   25.0726 C   0  0  0  0  0  0  0  0  0  0  0  0
    8.9793   -3.1503   24.9032 H   0  0  0  0  0  0  0  0  0  0  0  0
    8.9724   -1.3740   25.0035 H   0  0  0  0  0  0  0  0  0  0  0  0
    7.6862   -2.3431   26.4678 C   0  0  0  0  0  0  0  0  0  0  0  0
    8.4381   -2.3996   27.2615 H   0  0  0  0  0  0  0  0  0  0  0  0
    7.1403   -1.4071   26.6321 H   0  0  0  0  0  0  0  0  0  0  0  0
    6.7189   -3.4382   26.6341 N   0  0  0  0  0  0  0  0  0  0  0  0
    7.2051   -4.3360   26.6617 H   0  0  0  0  0  0  0  0  0  0  0  0
    5.7627   -3.4165   25.5162 C   0  0  0  0  0  0  0  0  0  0  0  0
    5.0647   -4.2557   25.6106 H   0  0  0  0  0  0  0  0  0  0  0  0
    5.1588   -2.5057   25.6227 H   0  0  0  0  0  0  0  0  0  0  0  0
    6.4156   -3.3815   24.1232 C   0  0  0  0  0  0  0  0  0  0  0  0
    5.6344   -3.3391   23.3531 H   0  0  0  0  0  0  0  0  0  0  0  0
    7.0246   -4.2853   23.9434 H   0  0  0  0  0  0  0  0  0  0  0  0
    6.8282   -1.2662   22.0158 N   0  0  0  0  0  0  0  0  0  0  0  0
    5.9390   -1.1419   22.4798 H   0  0  0  0  0  0  0  0  0  0  0  0
    5.4094    0.6653   20.1603 C   0  0  0  0  0  0  0  0  0  0  0  0
    4.9618    0.6896   21.1576 H   0  0  0  0  0  0  0  0  0  0  0  0
    4.7927    1.3175   19.0941 C   0  0  0  0  0  0  0  0  0  0  0  0
    3.8600    1.8549   19.2256 H   0  0  0  0  0  0  0  0  0  0  0  0
  1  2  1  0
  2  3  2  0
  3  4  1  0
  4  5  1  0
  4  6  2  0
  6  7  1  0
  7  8  2  0
  8  9  1  0
  8 10  1  0
 10 11  2  0
 10 12  1  0
 12 13  1  0
 13 14  1  0
 14 15  1  0
 14 16  1  0
 14 17  1  0
 17 18  1  0
 17 19  1  0
 17 20  1  0
 20 21  1  0
 20 22  1  0
 22 23  1  0
 22 24  1  0
 22 25  1  0
 25 26  1  0
 25 27  1  0
 12 28  1  0
 28 29  1  0
  6 30  1  0
 30 31  1  0
 30 32  2  0
 32 33  1  0
 32  2  1  0
 28  7  1  0
 25 13  1  0
M  END
>  <plip>  (1) 
-0.03571428571428571

>  <filename>  (1) 
[H][c]1[n][c]([H])[c](-[c]2[c]([H])[c](=[O])[n]([N]3[C]([H])([H])[C]([H])([H])[N]([H])[C]([H])([H])[C]3([H])[H])[n]2[H])[c]([H])[c]1[H]

$$$$
