
     RDKit          3D

 31 34  0  0  0  0  0  0  0  0999 V2000
    4.7997    1.2939   19.1011 C   0  0  0  0  0  0  0  0  0  0  0  0
    5.4046    1.2897   17.8403 C   0  0  0  0  0  0  0  0  0  0  0  0
    6.5722    0.6704   17.5934 N   0  0  0  0  0  0  0  0  0  0  0  0
    7.1727    0.0383   18.6057 C   0  0  0  0  0  0  0  0  0  0  0  0
    6.6353   -0.0128   19.8995 C   0  0  0  0  0  0  0  0  0  0  0  0
    7.3507   -0.6840   20.9301 N   0  0  0  0  0  0  0  0  0  0  0  0
    7.3582   -2.0228   20.9740 N   0  0  0  0  0  0  0  0  0  0  0  0
    8.0895   -2.3337   22.0326 C   0  0  0  0  0  0  0  0  0  0  0  0
    8.5924   -1.1996   22.6775 C   0  0  0  0  0  0  0  0  0  0  0  0
    8.0976   -0.1295   21.9440 C   0  0  0  0  0  0  0  0  0  0  0  0
    8.2866    1.2964   22.1048 C   0  0  0  0  0  0  0  0  0  0  0  0
    7.4111    2.2368   21.7491 N   0  0  0  0  0  0  0  0  0  0  0  0
    7.9666    3.3980   22.1359 N   0  0  0  0  0  0  0  0  0  0  0  0
    9.1846    3.2531   22.7167 C   0  0  0  0  0  0  0  0  0  0  0  0
   10.0974    4.1995   23.2323 C   0  0  0  0  0  0  0  0  0  0  0  0
   11.2925    3.7078   23.7352 C   0  0  0  0  0  0  0  0  0  0  0  0
   11.5868    2.3098   23.7287 C   0  0  0  0  0  0  0  0  0  0  0  0
   10.6828    1.3939   23.2176 C   0  0  0  0  0  0  0  0  0  0  0  0
    9.4480    1.8767   22.7135 C   0  0  0  0  0  0  0  0  0  0  0  0
   10.9127    0.3321   23.1842 H   0  0  0  0  0  0  0  0  0  0  0  0
   12.5420    1.9605   24.1200 H   0  0  0  0  0  0  0  0  0  0  0  0
   12.0289    4.4042   24.1328 H   0  0  0  0  0  0  0  0  0  0  0  0
    9.8588    5.2620   23.2055 H   0  0  0  0  0  0  0  0  0  0  0  0
    7.5000    4.2712   21.9633 H   0  0  0  0  0  0  0  0  0  0  0  0
    9.1905   -1.1526   23.5771 H   0  0  0  0  0  0  0  0  0  0  0  0
    8.2289   -3.3730   22.3002 H   0  0  0  0  0  0  0  0  0  0  0  0
    5.4118    0.6132   20.1580 C   0  0  0  0  0  0  0  0  0  0  0  0
    5.0003    0.6403   21.1695 H   0  0  0  0  0  0  0  0  0  0  0  0
    8.1238   -0.4336   18.3712 H   0  0  0  0  0  0  0  0  0  0  0  0
    4.9291    1.7828   16.9944 H   0  0  0  0  0  0  0  0  0  0  0  0
    3.8774    1.8410   19.2570 H   0  0  0  0  0  0  0  0  0  0  0  0
  1  2  2  0
  2  3  1  0
  3  4  2  0
  4  5  1  0
  5  6  1  0
  6  7  1  0
  7  8  2  0
  8  9  1  0
  9 10  2  0
 10 11  1  0
 11 12  2  0
 12 13  1  0
 13 14  1  0
 14 15  2  0
 15 16  1  0
 16 17  2  0
 17 18  1  0
 18 19  2  0
 18 20  1  0
 17 21  1  0
 16 22  1  0
 15 23  1  0
 13 24  1  0
  9 25  1  0
  8 26  1  0
  5 27  2  0
 27 28  1  0
  4 29  1  0
  2 30  1  0
  1 31  1  0
 27  1  1  0
 10  6  1  0
 19 11  1  0
 19 14  1  0
M  END
>  <plip>  (1) 
-0.06896551724137931

>  <filename>  (1) 
[H][c]1[n][c]([H])[c](-[n]2[n][c]([H])[c]([H])[c]2-[c]2[n][n]([H])[c]3[c]([H])[c]([H])[c]([H])[c]([H])[c]23)[c]([H])[c]1[H]

$$$$
