
     RDKit          3D

 44 46  0  0  0  0  0  0  0  0999 V2000
    4.9807    1.7334   17.1868 H   0  0  0  0  0  0  0  0  0  0  0  0
    5.5411    1.3634   18.0439 C   0  0  0  0  0  0  0  0  0  0  0  0
    6.6306    0.6317   17.7682 N   0  0  0  0  0  0  0  0  0  0  0  0
    7.3230    0.1181   18.7993 C   0  0  0  0  0  0  0  0  0  0  0  0
    8.2114   -0.4501   18.5295 H   0  0  0  0  0  0  0  0  0  0  0  0
    6.9660    0.2979   20.1685 C   0  0  0  0  0  0  0  0  0  0  0  0
    7.5707   -0.3273   21.2843 N   0  0  0  0  0  0  0  0  0  0  0  0
    8.2415   -1.6167   21.1392 C   0  0  0  0  0  0  0  0  0  0  0  0
    8.1364   -2.1756   22.0774 H   0  0  0  0  0  0  0  0  0  0  0  0
    7.7468   -2.1861   20.3489 H   0  0  0  0  0  0  0  0  0  0  0  0
    9.7257   -1.4211   20.8276 C   0  0  0  0  0  0  0  0  0  0  0  0
    9.8137   -0.9407   19.8417 H   0  0  0  0  0  0  0  0  0  0  0  0
   10.2483   -2.3810   20.8070 H   0  0  0  0  0  0  0  0  0  0  0  0
   10.3635   -0.6186   21.8118 O   0  0  0  0  0  0  0  0  0  0  0  0
    9.7032    0.6339   21.9671 C   0  0  0  0  0  0  0  0  0  0  0  0
   10.2512    1.1959   22.7256 H   0  0  0  0  0  0  0  0  0  0  0  0
    9.7612    1.2015   21.0251 H   0  0  0  0  0  0  0  0  0  0  0  0
    8.1925    0.4964   22.3311 C   0  0  2  0  0  0  0  0  0  0  0  0
    7.7598    1.5114   22.2666 H   0  0  0  0  0  0  0  0  0  0  0  0
    7.9251   -0.1077   23.6375 N   0  0  0  0  0  0  0  0  0  0  0  0
    8.6982    0.2758   24.8189 C   0  0  0  0  0  0  0  0  0  0  0  0
    9.7630    0.2551   24.5588 H   0  0  0  0  0  0  0  0  0  0  0  0
    8.5853   -0.5085   25.5819 H   0  0  0  0  0  0  0  0  0  0  0  0
    8.4036    1.6386   25.4878 C   0  0  0  0  0  0  0  0  0  0  0  0
    9.2595    1.8591   26.1422 H   0  0  0  0  0  0  0  0  0  0  0  0
    8.4293    2.4053   24.6902 H   0  0  0  0  0  0  0  0  0  0  0  0
    7.1964    1.7662   26.3225 N   0  0  0  0  0  0  0  0  0  0  0  0
    6.8368    3.1647   26.5072 C   0  0  0  0  0  0  0  0  0  0  0  0
    6.5471    3.6829   25.5692 H   0  0  0  0  0  0  0  0  0  0  0  0
    7.6853    3.7016   26.9464 H   0  0  0  0  0  0  0  0  0  0  0  0
    5.9989    3.2426   27.2116 H   0  0  0  0  0  0  0  0  0  0  0  0
    6.0533    0.8938   26.0576 C   0  0  0  0  0  0  0  0  0  0  0  0
    6.1997   -0.0715   26.5644 H   0  0  0  0  0  0  0  0  0  0  0  0
    5.1927    1.3389   26.5686 H   0  0  0  0  0  0  0  0  0  0  0  0
    5.6670    0.6067   24.6019 C   0  0  0  0  0  0  0  0  0  0  0  0
    4.6398    0.2180   24.6322 H   0  0  0  0  0  0  0  0  0  0  0  0
    5.6517    1.5371   24.0186 H   0  0  0  0  0  0  0  0  0  0  0  0
    6.5392   -0.4622   23.9232 C   0  0  0  0  0  0  0  0  0  0  0  0
    6.0896   -0.7829   22.9794 H   0  0  0  0  0  0  0  0  0  0  0  0
    6.5438   -1.3501   24.5823 H   0  0  0  0  0  0  0  0  0  0  0  0
    5.8479    1.1124   20.4173 C   0  0  0  0  0  0  0  0  0  0  0  0
    5.5640    1.2650   21.4606 H   0  0  0  0  0  0  0  0  0  0  0  0
    5.1167    1.6355   19.3497 C   0  0  0  0  0  0  0  0  0  0  0  0
    4.2427    2.2579   19.5198 H   0  0  0  0  0  0  0  0  0  0  0  0
  1  2  1  0
  2  3  2  0
  3  4  1  0
  4  5  1  0
  4  6  2  0
  6  7  1  0
  7  8  1  0
  8  9  1  0
  8 10  1  0
  8 11  1  0
 11 12  1  0
 11 13  1  0
 11 14  1  0
 14 15  1  0
 15 16  1  0
 15 17  1  0
 15 18  1  0
 18 19  1  1
 18 20  1  0
 20 21  1  0
 21 22  1  0
 21 23  1  0
 21 24  1  0
 24 25  1  0
 24 26  1  0
 24 27  1  0
 27 28  1  0
 28 29  1  0
 28 30  1  0
 28 31  1  0
 27 32  1  0
 32 33  1  0
 32 34  1  0
 32 35  1  0
 35 36  1  0
 35 37  1  0
 35 38  1  0
 38 39  1  0
 38 40  1  0
  6 41  1  0
 41 42  1  0
 41 43  2  0
 43 44  1  0
 43  2  1  0
 18  7  1  0
 38 20  1  0
M  END
>  <plip>  (1) 
-0.03571428571428571

>  <filename>  (1) 
[H][c]1[n][c]([H])[c]([N]2[C]([H])([H])[C]([H])([H])[O][C]([H])([H])[C@]2([H])[N]2[C]([H])([H])[C]([H])([H])[N]([C]([H])([H])[H])[C]([H])([H])[C]([H])([H])[C]2([H])[H])[c]([H])[c]1[H]

$$$$
