
     RDKit          3D

 28 30  0  0  0  0  0  0  0  0999 V2000
   13.1725   -2.0836   21.9754 H   0  0  0  0  0  0  0  0  0  0  0  0
   12.1213   -1.9637   22.2325 C   0  0  0  0  0  0  0  0  0  0  0  0
   11.4837   -0.8062   21.8611 N   0  0  0  0  0  0  0  0  0  0  0  0
   10.2610   -0.8194   22.2980 C   0  0  0  0  0  0  0  0  0  0  0  0
    9.5415    0.3117   22.0541 N   0  0  0  0  0  0  0  0  0  0  0  0
   10.1702    0.8578   21.4811 H   0  0  0  0  0  0  0  0  0  0  0  0
    8.1175    0.4350   21.9307 C   0  0  2  0  0  0  0  0  0  0  0  0
    7.8862    1.4659   21.6332 H   0  0  0  0  0  0  0  0  0  0  0  0
    7.5906    0.1062   23.2049 N   0  0  0  0  0  0  0  0  0  0  0  0
    8.2458    0.1512   23.9638 H   0  0  0  0  0  0  0  0  0  0  0  0
    6.8886   -1.0661   23.1659 C   0  0  0  0  0  0  0  0  0  0  0  0
    6.5501   -1.7173   24.1073 O   0  0  0  0  0  0  0  0  0  0  0  0
    6.5802   -1.3754   21.8750 O   0  0  0  0  0  0  0  0  0  0  0  0
    7.4011   -0.6130   20.9926 C   0  0  1  0  0  0  0  0  0  0  0  0
    8.1642   -1.2748   20.5604 H   0  0  0  0  0  0  0  0  0  0  0  0
    6.5938   -0.0006   19.8780 C   0  0  0  0  0  0  0  0  0  0  0  0
    7.1189    0.0250   18.5758 C   0  0  0  0  0  0  0  0  0  0  0  0
    8.0539   -0.4939   18.3636 H   0  0  0  0  0  0  0  0  0  0  0  0
    6.5542    0.6566   17.5400 N   0  0  0  0  0  0  0  0  0  0  0  0
    5.4058    1.3071   17.7840 C   0  0  0  0  0  0  0  0  0  0  0  0
    4.9770    1.8475   16.9417 H   0  0  0  0  0  0  0  0  0  0  0  0
    4.7728    1.3156   19.0329 C   0  0  0  0  0  0  0  0  0  0  0  0
    3.8457    1.8666   19.1561 H   0  0  0  0  0  0  0  0  0  0  0  0
    5.3713    0.6466   20.1028 C   0  0  0  0  0  0  0  0  0  0  0  0
    4.9025    0.6248   21.0890 H   0  0  0  0  0  0  0  0  0  0  0  0
    9.7726   -2.2579   23.1565 S   0  0  0  0  0  0  0  0  0  0  0  0
   11.3838   -2.8579   22.9317 C   0  0  0  0  0  0  0  0  0  0  0  0
   11.7136   -3.7817   23.3849 H   0  0  0  0  0  0  0  0  0  0  0  0
  1  2  1  0
  2  3  1  0
  3  4  2  0
  4  5  1  0
  5  6  1  0
  5  7  1  0
  7  8  1  6
  7  9  1  0
  9 10  1  0
  9 11  1  0
 11 12  2  0
 11 13  1  0
 13 14  1  0
 14 15  1  6
 14 16  1  0
 16 17  2  0
 17 18  1  0
 17 19  1  0
 19 20  2  0
 20 21  1  0
 20 22  1  0
 22 23  1  0
 22 24  2  0
 24 25  1  0
  4 26  1  0
 26 27  1  0
 27 28  1  0
 27  2  2  0
 14  7  1  0
 24 16  1  0
M  END
>  <plip>  (1) 
-0.0

>  <filename>  (1) 
[H][c]1[n][c]([N]([H])[C@]2([H])[N]([H])[C](=[O])[O][C@@]2([H])[c]2[c]([H])[n][c]([H])[c]([H])[c]2[H])[s][c]1[H]

$$$$
