
     RDKit          3D

 26 27  0  0  0  0  0  0  0  0999 V2000
   12.8878    2.2017   22.5928 H   0  0  0  0  0  0  0  0  0  0  0  0
   12.4259    2.5415   21.6669 C   0  0  0  0  0  0  0  0  0  0  0  0
   12.8813    3.4036   21.1758 H   0  0  0  0  0  0  0  0  0  0  0  0
   11.3784    1.9430   21.1050 C   0  0  0  0  0  0  0  0  0  0  0  0
   11.0360    2.2900   20.1410 H   0  0  0  0  0  0  0  0  0  0  0  0
   10.6746    0.7537   21.6705 C   0  0  0  0  0  0  0  0  0  0  0  0
   11.0429    0.1696   22.6738 O   0  0  0  0  0  0  0  0  0  0  0  0
    9.5547    0.3647   20.9515 N   0  0  0  0  0  0  0  0  0  0  0  0
    9.2459    0.9761   20.2176 H   0  0  0  0  0  0  0  0  0  0  0  0
    8.6548   -0.5758   21.4111 C   0  0  0  0  0  0  0  0  0  0  0  0
    8.8197   -1.4760   22.3867 C   0  0  0  0  0  0  0  0  0  0  0  0
    9.6747   -1.6472   23.0135 H   0  0  0  0  0  0  0  0  0  0  0  0
    7.6617   -2.2015   22.5295 O   0  0  0  0  0  0  0  0  0  0  0  0
    6.7430   -1.7524   21.6219 C   0  0  0  0  0  0  0  0  0  0  0  0
    5.6506   -2.2323   21.4837 O   0  0  0  0  0  0  0  0  0  0  0  0
    7.3579   -0.7138   20.9046 N   0  0  0  0  0  0  0  0  0  0  0  0
    6.6872    0.0146   19.8661 C   0  0  0  0  0  0  0  0  0  0  0  0
    7.1980    0.0758   18.5525 C   0  0  0  0  0  0  0  0  0  0  0  0
    8.1297   -0.4353   18.3147 H   0  0  0  0  0  0  0  0  0  0  0  0
    6.5806    0.7049   17.5428 N   0  0  0  0  0  0  0  0  0  0  0  0
    5.4175    1.3188   17.8128 C   0  0  0  0  0  0  0  0  0  0  0  0
    4.9334    1.8219   16.9774 H   0  0  0  0  0  0  0  0  0  0  0  0
    4.8262    1.3174   19.0819 C   0  0  0  0  0  0  0  0  0  0  0  0
    3.8859    1.8372   19.2354 H   0  0  0  0  0  0  0  0  0  0  0  0
    5.4633    0.6419   20.1284 C   0  0  0  0  0  0  0  0  0  0  0  0
    5.0305    0.5916   21.1284 H   0  0  0  0  0  0  0  0  0  0  0  0
  1  2  1  0
  2  3  1  0
  2  4  2  3
  4  5  1  0
  4  6  1  0
  6  7  2  0
  6  8  1  0
  8  9  1  0
  8 10  1  0
 10 11  2  0
 11 12  1  0
 11 13  1  0
 13 14  1  0
 14 15  2  0
 14 16  1  0
 16 17  1  0
 17 18  2  0
 18 19  1  0
 18 20  1  0
 20 21  2  0
 21 22  1  0
 21 23  1  0
 23 24  1  0
 23 25  2  0
 25 26  1  0
 16 10  1  0
 25 17  1  0
M  END
>  <plip>  (1) 
-0.14285714285714285

>  <filename>  (1) 
[H][C]([H])=[C]([H])[C](=[O])[N]([H])[c]1[c]([H])[o][c](=[O])[n]1-[c]1[c]([H])[n][c]([H])[c]([H])[c]1[H]

$$$$
