
     RDKit          3D

 31 31  0  0  0  0  0  0  0  0999 V2000
   11.8221    0.2052   21.9880 C   0  0  0  0  0  0  0  0  0  0  0  0
   10.6206    0.4517   22.8850 C   0  0  2  0  0  0  0  0  0  0  0  0
   10.9549    0.0523   24.2085 O   0  0  0  0  0  0  0  0  0  0  0  0
   11.8274    0.4131   24.4188 H   0  0  0  0  0  0  0  0  0  0  0  0
    9.3883   -0.4044   22.5446 C   0  0  0  0  0  0  0  0  0  0  0  0
    8.5647    0.0247   21.3671 N   0  0  0  0  0  4  0  0  0  0  0  0
    7.1606   -0.5927   21.2157 C   0  0  0  0  0  0  0  0  0  0  0  0
    7.2906   -2.1404   21.0938 C   0  0  0  0  0  0  0  0  0  0  0  0
    6.1502   -2.8650   20.6683 O   0  0  0  0  0  0  0  0  0  0  0  0
    5.4897   -2.8298   21.3748 H   0  0  0  0  0  0  0  0  0  0  0  0
    7.6851   -2.5180   22.0505 H   0  0  0  0  0  0  0  0  0  0  0  0
    8.0837   -2.3097   20.3607 H   0  0  0  0  0  0  0  0  0  0  0  0
    6.5566    0.1564   20.0502 C   0  0  0  0  0  0  0  0  0  0  0  0
    5.3246    0.8279   20.1542 C   0  0  0  0  0  0  0  0  0  0  0  0
    4.7833    1.4284   19.0134 C   0  0  0  0  0  0  0  0  0  0  0  0
    5.5028    1.3606   17.8182 C   0  0  0  0  0  0  0  0  0  0  0  0
    6.6840    0.7414   17.6997 N   0  0  0  0  0  0  0  0  0  0  0  0
    7.1881    0.1675   18.7981 C   0  0  0  0  0  0  0  0  0  0  0  0
    8.1492   -0.3285   18.6654 H   0  0  0  0  0  0  0  0  0  0  0  0
    5.1165    1.8284   16.9137 H   0  0  0  0  0  0  0  0  0  0  0  0
    3.8344    1.9601   19.0382 H   0  0  0  0  0  0  0  0  0  0  0  0
    4.8097    0.8943   21.1136 H   0  0  0  0  0  0  0  0  0  0  0  0
    6.5692   -0.3939   22.1175 H   0  0  0  0  0  0  0  0  0  0  0  0
    9.0619   -0.2044   20.4763 H   0  0  0  0  0  0  0  0  0  0  0  0
    8.4197    1.0685   21.3471 H   0  0  0  0  0  0  0  0  0  0  0  0
    9.7734   -1.4264   22.4197 H   0  0  0  0  0  0  0  0  0  0  0  0
    8.7769   -0.4266   23.4523 H   0  0  0  0  0  0  0  0  0  0  0  0
   10.3299    1.5172   22.8582 H   0  0  0  0  0  0  0  0  0  0  0  0
   12.0493   -0.8657   21.9705 H   0  0  0  0  0  0  0  0  0  0  0  0
   12.7085    0.7365   22.3581 H   0  0  0  0  0  0  0  0  0  0  0  0
   11.6394    0.5401   20.9673 H   0  0  0  0  0  0  0  0  0  0  0  0
  1  2  1  0
  2  3  1  0
  3  4  1  0
  2  5  1  0
  5  6  1  0
  6  7  1  0
  7  8  1  0
  8  9  1  0
  9 10  1  0
  8 11  1  0
  8 12  1  0
  7 13  1  0
 13 14  2  0
 14 15  1  0
 15 16  2  0
 16 17  1  0
 17 18  2  0
 18 19  1  0
 16 20  1  0
 15 21  1  0
 14 22  1  0
  7 23  1  0
  6 24  1  0
  6 25  1  0
  5 26  1  0
  5 27  1  0
  2 28  1  1
  1 29  1  0
  1 30  1  0
  1 31  1  0
 18 13  1  0
M  CHG  1   6   1
M  END
>  <plip>  (1) 
-0.1724137931034483

>  <filename>  (1) 
[H][O][C]([H])([H])[C]([H])([c]1[c]([H])[n][c]([H])[c]([H])[c]1[H])[N+]([H])([H])[C]([H])([H])[C@@]([H])([O][H])[C]([H])([H])[H]

$$$$
