
     RDKit          3D

 34 36  0  0  0  0  0  0  0  0999 V2000
    8.6650   -0.5038   21.1652 C   0  0  0  0  0  0  0  0  0  0  0  0
    7.3752   -0.7556   20.8945 C   0  0  0  0  0  0  0  0  0  0  0  0
    6.6364   -0.0262   19.8231 C   0  0  0  0  0  0  0  0  0  0  0  0
    5.4175    0.6268   20.0676 C   0  0  0  0  0  0  0  0  0  0  0  0
    4.8030    1.3239   19.0245 C   0  0  0  0  0  0  0  0  0  0  0  0
    5.4070    1.3449   17.7640 C   0  0  0  0  0  0  0  0  0  0  0  0
    6.5660    0.7213   17.4998 N   0  0  0  0  0  0  0  0  0  0  0  0
    7.1574    0.0765   18.5148 C   0  0  0  0  0  0  0  0  0  0  0  0
    8.1017   -0.4092   18.2748 H   0  0  0  0  0  0  0  0  0  0  0  0
    4.9460    1.8821   16.9337 H   0  0  0  0  0  0  0  0  0  0  0  0
    3.8724    1.8528   19.1734 H   0  0  0  0  0  0  0  0  0  0  0  0
    4.9823    0.6256   21.0712 H   0  0  0  0  0  0  0  0  0  0  0  0
    6.6252   -1.8550   21.6592 C   0  0  0  0  0  0  0  0  0  0  0  0
    7.1982   -2.0496   23.0442 N   0  0  0  0  0  4  0  0  0  0  0  0
    6.9435   -0.8337   23.9481 C   0  0  0  0  0  0  0  0  0  0  0  0
    7.5029   -1.1645   25.2925 C   0  0  0  0  0  0  0  0  0  0  0  0
    8.4541   -0.6039   26.1007 C   0  0  0  0  0  0  0  0  0  0  0  0
    8.6574   -1.4299   27.2500 C   0  0  0  0  0  0  0  0  0  0  0  0
    7.9523   -2.5284   27.3270 N   0  0  0  0  0  0  0  0  0  0  0  0
    6.9888   -2.6554   25.9748 S   0  0  0  0  0  0  0  0  0  0  0  0
    9.3482   -1.2178   28.0609 H   0  0  0  0  0  0  0  0  0  0  0  0
    9.0235    0.3003   25.8979 H   0  0  0  0  0  0  0  0  0  0  0  0
    5.8657   -0.6257   23.9752 H   0  0  0  0  0  0  0  0  0  0  0  0
    7.4119    0.0530   23.5224 H   0  0  0  0  0  0  0  0  0  0  0  0
    8.7095   -2.3553   22.8769 C   0  0  0  0  0  0  0  0  0  0  0  0
    9.4353   -1.1393   22.3043 C   0  0  0  0  0  0  0  0  0  0  0  0
    9.6151   -0.3942   23.0906 H   0  0  0  0  0  0  0  0  0  0  0  0
   10.4272   -1.4572   21.9675 H   0  0  0  0  0  0  0  0  0  0  0  0
    9.1299   -2.6544   23.8391 H   0  0  0  0  0  0  0  0  0  0  0  0
    8.8036   -3.1914   22.1771 H   0  0  0  0  0  0  0  0  0  0  0  0
    6.7503   -2.8386   23.5538 H   0  0  0  0  0  0  0  0  0  0  0  0
    5.5646   -1.6088   21.7210 H   0  0  0  0  0  0  0  0  0  0  0  0
    6.6981   -2.8063   21.1198 H   0  0  0  0  0  0  0  0  0  0  0  0
    9.1991    0.2352   20.5704 H   0  0  0  0  0  0  0  0  0  0  0  0
  1  2  2  0
  2  3  1  0
  3  4  2  0
  4  5  1  0
  5  6  2  0
  6  7  1  0
  7  8  2  0
  8  9  1  0
  6 10  1  0
  5 11  1  0
  4 12  1  0
  2 13  1  0
 13 14  1  0
 14 15  1  0
 15 16  1  0
 16 17  2  0
 17 18  1  0
 18 19  2  0
 19 20  1  0
 18 21  1  0
 17 22  1  0
 15 23  1  0
 15 24  1  0
 14 25  1  0
 25 26  1  0
 26 27  1  0
 26 28  1  0
 25 29  1  0
 25 30  1  0
 14 31  1  0
 13 32  1  0
 13 33  1  0
  1 34  1  0
 26  1  1  0
  8  3  1  0
 20 16  1  0
M  CHG  1  14   1
M  END
>  <plip>  (1) 
-0.03571428571428571

>  <filename>  (1) 
[H][C]1=[C]([c]2[c]([H])[n][c]([H])[c]([H])[c]2[H])[C]([H])([H])[N+]([H])([C]([H])([H])[c]2[s][n][c]([H])[c]2[H])[C]([H])([H])[C]1([H])[H]

$$$$
