
     RDKit          3D

 28 30  0  0  0  0  0  0  0  0999 V2000
    5.0200    1.7347   17.1420 H   0  0  0  0  0  0  0  0  0  0  0  0
    5.4761    1.2079   17.9773 C   0  0  0  0  0  0  0  0  0  0  0  0
    6.6283    0.5711   17.6986 N   0  0  0  0  0  0  0  0  0  0  0  0
    7.2362   -0.0656   18.7048 C   0  0  0  0  0  0  0  0  0  0  0  0
    8.1705   -0.5848   18.5050 H   0  0  0  0  0  0  0  0  0  0  0  0
    6.7291   -0.1137   20.0072 C   0  0  0  0  0  0  0  0  0  0  0  0
    7.5558   -0.7569   20.9175 O   0  0  0  0  0  0  0  0  0  0  0  0
    6.9439   -1.2300   22.0456 N   0  0  0  0  0  0  0  0  0  0  0  0
    7.4087   -0.9533   23.3128 C   0  0  0  0  0  0  0  0  0  0  0  0
    8.5354   -0.0631   23.6129 C   0  0  0  0  0  0  0  0  0  0  0  0
    9.3026   -0.4347   24.7267 C   0  0  0  0  0  0  0  0  0  0  0  0
    8.9892   -1.2801   25.3328 H   0  0  0  0  0  0  0  0  0  0  0  0
   10.4196    0.1867   25.1004 N   0  0  0  0  0  0  0  0  0  0  0  0
   10.8174    1.2352   24.3770 C   0  0  0  0  0  0  0  0  0  0  0  0
   11.7543    1.6946   24.6964 H   0  0  0  0  0  0  0  0  0  0  0  0
   10.1039    1.7287   23.2804 C   0  0  0  0  0  0  0  0  0  0  0  0
   10.4721    2.6063   22.7602 H   0  0  0  0  0  0  0  0  0  0  0  0
    8.9391    1.0643   22.8788 C   0  0  0  0  0  0  0  0  0  0  0  0
    8.3542    1.4363   22.0402 H   0  0  0  0  0  0  0  0  0  0  0  0
    6.8625   -1.7822   24.1630 N   0  0  0  0  0  0  0  0  0  0  0  0
    6.0915   -2.5987   23.3900 N   0  0  0  0  0  0  0  0  0  0  0  0
    5.6187   -3.3993   23.7780 H   0  0  0  0  0  0  0  0  0  0  0  0
    6.1746   -2.3787   22.0615 C   0  0  0  0  0  0  0  0  0  0  0  0
    5.5273   -3.2551   20.8099 S   0  0  0  0  0  0  0  0  0  0  0  0
    5.5133    0.5048   20.2938 C   0  0  0  0  0  0  0  0  0  0  0  0
    5.0946    0.4326   21.2969 H   0  0  0  0  0  0  0  0  0  0  0  0
    4.8826    1.1893   19.2442 C   0  0  0  0  0  0  0  0  0  0  0  0
    3.9503    1.7236   19.3967 H   0  0  0  0  0  0  0  0  0  0  0  0
  1  2  1  0
  2  3  2  0
  3  4  1  0
  4  5  1  0
  4  6  2  0
  6  7  1  0
  7  8  1  0
  8  9  1  0
  9 10  1  0
 10 11  2  0
 11 12  1  0
 11 13  1  0
 13 14  2  0
 14 15  1  0
 14 16  1  0
 16 17  1  0
 16 18  2  0
 18 19  1  0
  9 20  2  0
 20 21  1  0
 21 22  1  0
 21 23  1  0
 23 24  2  0
  6 25  1  0
 25 26  1  0
 25 27  2  0
 27 28  1  0
 27  2  1  0
 23  8  1  0
 18 10  1  0
M  END
>  <plip>  (1) 
-0.0

>  <filename>  (1) 
[H][c]1[n][c]([H])[c]([O][n]2[c](-[c]3[c]([H])[n][c]([H])[c]([H])[c]3[H])[n][n]([H])[c]2=[S])[c]([H])[c]1[H]

$$$$
