
     RDKit          3D

 34 36  0  0  0  0  0  0  0  0999 V2000
    4.8282    1.3120   19.0657 C   0  0  0  0  0  0  0  0  0  0  0  0
    5.4168    1.3094   17.7962 C   0  0  0  0  0  0  0  0  0  0  0  0
    6.5671    0.6800   17.5183 N   0  0  0  0  0  0  0  0  0  0  0  0
    7.1780    0.0524   18.5344 C   0  0  0  0  0  0  0  0  0  0  0  0
    6.6998    0.0129   19.8551 C   0  0  0  0  0  0  0  0  0  0  0  0
    7.4703   -0.6530   20.9753 C   0  0  0  0  0  0  0  0  0  0  0  0
    8.1601    0.3052   21.9517 C   0  0  0  0  0  0  0  0  0  0  0  0
    9.3501    0.8734   21.3757 N   0  0  0  0  0  0  0  0  0  0  0  0
   10.0185    1.9201   21.9109 C   0  0  0  0  0  0  0  0  0  0  0  0
    9.7242    2.4793   23.1372 C   0  0  0  0  0  0  0  0  0  0  0  0
   10.4730    3.5866   23.5856 C   0  0  0  0  0  0  0  0  0  0  0  0
   10.1357    4.3276   24.7551 C   0  0  0  0  0  0  0  0  0  0  0  0
   10.9658    5.3276   25.2092 C   0  0  0  0  0  0  0  0  0  0  0  0
   12.1652    5.6268   24.4983 C   0  0  0  0  0  0  0  0  0  0  0  0
   12.4813    4.9779   23.3248 C   0  0  0  0  0  0  0  0  0  0  0  0
   11.6150    3.9623   22.8189 C   0  0  0  0  0  0  0  0  0  0  0  0
   11.7803    3.3061   21.5580 C   0  0  0  0  0  0  0  0  0  0  0  0
   11.0087    2.3497   21.0830 N   0  0  0  0  0  0  0  0  0  0  0  0
   12.5885    3.6501   20.9146 H   0  0  0  0  0  0  0  0  0  0  0  0
   13.3835    5.2391   22.7700 H   0  0  0  0  0  0  0  0  0  0  0  0
   12.8156    6.4103   24.8759 H   0  0  0  0  0  0  0  0  0  0  0  0
   10.7185    5.8700   26.1215 H   0  0  0  0  0  0  0  0  0  0  0  0
    9.2145    4.0798   25.2723 H   0  0  0  0  0  0  0  0  0  0  0  0
    8.9440    2.0686   23.7582 H   0  0  0  0  0  0  0  0  0  0  0  0
    9.5549    0.8514   20.3933 H   0  0  0  0  0  0  0  0  0  0  0  0
    8.4472   -0.2549   22.8532 H   0  0  0  0  0  0  0  0  0  0  0  0
    7.4646    1.1003   22.2703 H   0  0  0  0  0  0  0  0  0  0  0  0
    8.2358   -1.3262   20.5718 H   0  0  0  0  0  0  0  0  0  0  0  0
    6.7802   -1.2726   21.5581 H   0  0  0  0  0  0  0  0  0  0  0  0
    5.4787    0.6572   20.1118 C   0  0  0  0  0  0  0  0  0  0  0  0
    5.0495    0.6424   21.1178 H   0  0  0  0  0  0  0  0  0  0  0  0
    8.1009   -0.4705   18.2794 H   0  0  0  0  0  0  0  0  0  0  0  0
    4.9366    1.8238   16.9651 H   0  0  0  0  0  0  0  0  0  0  0  0
    3.8872    1.8282   19.2201 H   0  0  0  0  0  0  0  0  0  0  0  0
  1  2  2  0
  2  3  1  0
  3  4  2  0
  4  5  1  0
  5  6  1  0
  6  7  1  0
  7  8  1  0
  8  9  1  0
  9 10  2  0
 10 11  1  0
 11 12  2  0
 12 13  1  0
 13 14  2  0
 14 15  1  0
 15 16  2  0
 16 17  1  0
 17 18  2  0
 17 19  1  0
 15 20  1  0
 14 21  1  0
 13 22  1  0
 12 23  1  0
 10 24  1  0
  8 25  1  0
  7 26  1  0
  7 27  1  0
  6 28  1  0
  6 29  1  0
  5 30  2  0
 30 31  1  0
  4 32  1  0
  2 33  1  0
  1 34  1  0
 30  1  1  0
 18  9  1  0
 16 11  1  0
M  END
>  <plip>  (1) 
-0.10714285714285714

>  <filename>  (1) 
[H][c]1[n][c]([H])[c]([C]([H])([H])[C]([H])([H])[N]([H])[c]2[n][c]([H])[c]3[c]([H])[c]([H])[c]([H])[c]([H])[c]3[c]2[H])[c]([H])[c]1[H]

$$$$
