
     RDKit          3D

 43 46  0  0  0  0  0  0  0  0999 V2000
   13.3983   -0.5550   22.1023 C   0  0  0  0  0  0  0  0  0  0  0  0
   13.0674    0.8486   22.5371 C   0  0  0  0  0  0  0  0  0  0  0  0
   14.0461    1.8298   22.7353 C   0  0  0  0  0  0  0  0  0  0  0  0
   13.6735    3.1381   23.0944 C   0  0  0  0  0  0  0  0  0  0  0  0
   14.5890    4.1186   23.1157 F   0  0  0  0  0  0  0  0  0  0  0  0
   12.3784    3.5016   23.4195 C   0  0  0  0  0  0  0  0  0  0  0  0
   11.3959    2.5165   23.2662 C   0  0  0  0  0  0  0  0  0  0  0  0
   11.7497    1.2671   22.7620 C   0  0  0  0  0  0  0  0  0  0  0  0
   10.3205    0.3486   22.3707 S   0  0  0  0  0  0  0  0  0  0  0  0
   10.2373    0.1212   20.9374 O   0  0  0  0  0  0  0  0  0  0  0  0
   10.1854   -0.7462   23.3108 O   0  0  0  0  0  0  0  0  0  0  0  0
    9.3033    1.6055   22.7858 N   0  0  0  0  0  0  0  0  0  0  0  0
    7.8870    1.5687   22.4496 C   0  0  0  0  0  0  0  0  0  0  0  0
    7.2211    0.3397   23.0115 C   0  0  0  0  0  0  0  0  0  0  0  0
    6.8998    0.2773   24.3788 C   0  0  0  0  0  0  0  0  0  0  0  0
    6.4150   -0.8993   24.9576 C   0  0  0  0  0  0  0  0  0  0  0  0
    6.2439   -2.0403   24.1666 C   0  0  0  0  0  0  0  0  0  0  0  0
    6.5379   -1.9948   22.7992 C   0  0  0  0  0  0  0  0  0  0  0  0
    6.9939   -0.8038   22.2234 C   0  0  0  0  0  0  0  0  0  0  0  0
    7.2959   -0.8338   20.8703 O   0  0  0  0  0  0  0  0  0  0  0  0
    6.6204   -0.0653   19.9413 C   0  0  0  0  0  0  0  0  0  0  0  0
    5.3984    0.5809   20.1606 C   0  0  0  0  0  0  0  0  0  0  0  0
    4.8282    1.2816   19.0858 C   0  0  0  0  0  0  0  0  0  0  0  0
    5.4840    1.3045   17.8503 C   0  0  0  0  0  0  0  0  0  0  0  0
    6.6623    0.6940   17.6357 N   0  0  0  0  0  0  0  0  0  0  0  0
    7.2159    0.0403   18.6668 C   0  0  0  0  0  0  0  0  0  0  0  0
    8.1814   -0.4328   18.4982 H   0  0  0  0  0  0  0  0  0  0  0  0
    5.0466    1.8277   17.0012 H   0  0  0  0  0  0  0  0  0  0  0  0
    3.8939    1.8238   19.2024 H   0  0  0  0  0  0  0  0  0  0  0  0
    4.9256    0.5525   21.1429 H   0  0  0  0  0  0  0  0  0  0  0  0
    6.3945   -2.8559   22.1551 H   0  0  0  0  0  0  0  0  0  0  0  0
    5.8529   -2.9546   24.6068 H   0  0  0  0  0  0  0  0  0  0  0  0
    6.1802   -0.9256   26.0184 H   0  0  0  0  0  0  0  0  0  0  0  0
    7.0491    1.1614   24.9985 H   0  0  0  0  0  0  0  0  0  0  0  0
    7.4322    2.4633   22.8853 H   0  0  0  0  0  0  0  0  0  0  0  0
    7.7706    1.6457   21.3610 H   0  0  0  0  0  0  0  0  0  0  0  0
    9.9218    2.6381   23.4420 C   0  0  0  0  0  0  0  0  0  0  0  0
    9.3129    3.4979   24.0371 O   0  0  0  0  0  0  0  0  0  0  0  0
   12.1749    4.5194   23.7434 H   0  0  0  0  0  0  0  0  0  0  0  0
   15.0884    1.5981   22.5324 H   0  0  0  0  0  0  0  0  0  0  0  0
   12.7769   -0.8936   21.2669 H   0  0  0  0  0  0  0  0  0  0  0  0
   14.4443   -0.6336   21.8024 H   0  0  0  0  0  0  0  0  0  0  0  0
   13.2176   -1.2659   22.9054 H   0  0  0  0  0  0  0  0  0  0  0  0
  1  2  1  0
  2  3  2  0
  3  4  1  0
  4  5  1  0
  4  6  2  0
  6  7  1  0
  7  8  2  0
  8  9  1  0
  9 10  2  0
  9 11  2  0
  9 12  1  0
 12 13  1  0
 13 14  1  0
 14 15  2  0
 15 16  1  0
 16 17  2  0
 17 18  1  0
 18 19  2  0
 19 20  1  0
 20 21  1  0
 21 22  2  0
 22 23  1  0
 23 24  2  0
 24 25  1  0
 25 26  2  0
 26 27  1  0
 24 28  1  0
 23 29  1  0
 22 30  1  0
 18 31  1  0
 17 32  1  0
 16 33  1  0
 15 34  1  0
 13 35  1  0
 13 36  1  0
 12 37  1  0
 37 38  2  0
  6 39  1  0
  3 40  1  0
  1 41  1  0
  1 42  1  0
  1 43  1  0
  8  2  1  0
 19 14  1  0
 26 21  1  0
 37  7  1  0
M  END
>  <plip>  (1) 
-0.06896551724137931

>  <filename>  (1) 
[H][c]1[n][c]([H])[c]([O][c]2[c]([H])[c]([H])[c]([H])[c]([H])[c]2[C]([H])([H])[N]2[C](=[O])[c]3[c]([H])[c]([F])[c]([H])[c]([C]([H])([H])[H])[c]3[S]2(=[O])=[O])[c]([H])[c]1[H]

$$$$
