
     RDKit          3D

 48 50  0  0  0  0  0  0  0  0999 V2000
    6.1406   -4.2848   25.7552 C   0  0  0  0  0  0  0  0  0  0  0  0
    5.0226   -4.5442   24.7138 C   0  0  0  0  0  0  0  0  0  0  0  0
    5.4926   -5.6671   23.7705 C   0  0  0  0  0  0  0  0  0  0  0  0
    5.5479   -6.6096   24.3267 H   0  0  0  0  0  0  0  0  0  0  0  0
    4.8172   -5.7870   22.9144 H   0  0  0  0  0  0  0  0  0  0  0  0
    6.4839   -5.4509   23.3610 H   0  0  0  0  0  0  0  0  0  0  0  0
    4.7301   -3.2590   23.8916 C   0  0  0  0  0  0  0  0  0  0  0  0
    5.8188   -2.7391   23.0863 N   0  0  0  0  0  0  0  0  0  0  0  0
    5.8814   -2.9034   21.7304 C   0  0  0  0  0  0  0  0  0  0  0  0
    5.0604   -3.5509   21.1032 O   0  0  0  0  0  0  0  0  0  0  0  0
    7.1136   -2.3166   21.0722 C   0  0  2  0  0  0  0  0  0  0  0  0
    8.4515   -2.8554   21.6272 C   0  0  0  0  0  0  0  0  0  0  0  0
    9.4550   -1.7664   21.2391 C   0  0  0  0  0  0  0  0  0  0  0  0
    8.7053   -0.6133   20.8872 O   0  0  0  0  0  0  0  0  0  0  0  0
    7.3087   -0.7829   21.0975 C   0  0  1  0  0  0  0  0  0  0  0  0
    6.5801   -0.0280   19.9977 C   0  0  0  0  0  0  0  0  0  0  0  0
    5.3668    0.6509   20.1771 C   0  0  0  0  0  0  0  0  0  0  0  0
    4.7915    1.3090   19.0835 C   0  0  0  0  0  0  0  0  0  0  0  0
    5.4502    1.2708   17.8513 C   0  0  0  0  0  0  0  0  0  0  0  0
    6.6138    0.6344   17.6576 N   0  0  0  0  0  0  0  0  0  0  0  0
    7.1547    0.0134   18.7113 C   0  0  0  0  0  0  0  0  0  0  0  0
    8.1187   -0.4616   18.5306 H   0  0  0  0  0  0  0  0  0  0  0  0
    5.0323    1.7709   16.9782 H   0  0  0  0  0  0  0  0  0  0  0  0
    3.8589    1.8568   19.1681 H   0  0  0  0  0  0  0  0  0  0  0  0
    4.8837    0.6896   21.1584 H   0  0  0  0  0  0  0  0  0  0  0  0
    7.0522   -0.3570   22.0861 H   0  0  0  0  0  0  0  0  0  0  0  0
   10.0476   -2.0897   20.3834 H   0  0  0  0  0  0  0  0  0  0  0  0
   10.1510   -1.4993   22.0468 H   0  0  0  0  0  0  0  0  0  0  0  0
    8.7128   -3.8328   21.2040 H   0  0  0  0  0  0  0  0  0  0  0  0
    8.4156   -2.9677   22.7183 H   0  0  0  0  0  0  0  0  0  0  0  0
    7.0052   -2.5866   20.0246 H   0  0  0  0  0  0  0  0  0  0  0  0
    6.4094   -2.0317   23.4942 H   0  0  0  0  0  0  0  0  0  0  0  0
    4.4160   -2.4864   24.5977 H   0  0  0  0  0  0  0  0  0  0  0  0
    3.8829   -3.4666   23.2340 H   0  0  0  0  0  0  0  0  0  0  0  0
    3.6870   -4.8894   25.4244 C   0  0  0  0  0  0  0  0  0  0  0  0
    3.1821   -4.0079   26.4017 C   0  0  0  0  0  0  0  0  0  0  0  0
    1.9722   -4.2558   27.0543 C   0  0  0  0  0  0  0  0  0  0  0  0
    1.2187   -5.3880   26.7295 C   0  0  0  0  0  0  0  0  0  0  0  0
    1.6808   -6.2559   25.7373 C   0  0  0  0  0  0  0  0  0  0  0  0
    2.8984   -6.0062   25.0898 C   0  0  0  0  0  0  0  0  0  0  0  0
    3.2243   -6.6794   24.3030 H   0  0  0  0  0  0  0  0  0  0  0  0
    1.0932   -7.1231   25.4493 H   0  0  0  0  0  0  0  0  0  0  0  0
    0.2831   -5.5883   27.2459 H   0  0  0  0  0  0  0  0  0  0  0  0
    1.6109   -3.5448   27.7935 H   0  0  0  0  0  0  0  0  0  0  0  0
    3.7272   -3.0956   26.6365 H   0  0  0  0  0  0  0  0  0  0  0  0
    6.2803   -5.1738   26.3797 H   0  0  0  0  0  0  0  0  0  0  0  0
    7.0990   -4.0587   25.2708 H   0  0  0  0  0  0  0  0  0  0  0  0
    5.9152   -3.4430   26.4198 H   0  0  0  0  0  0  0  0  0  0  0  0
  1  2  1  0
  2  3  1  0
  3  4  1  0
  3  5  1  0
  3  6  1  0
  2  7  1  0
  7  8  1  0
  8  9  1  0
  9 10  2  0
  9 11  1  0
 11 12  1  0
 12 13  1  0
 13 14  1  0
 14 15  1  0
 15 16  1  0
 16 17  2  0
 17 18  1  0
 18 19  2  0
 19 20  1  0
 20 21  2  0
 21 22  1  0
 19 23  1  0
 18 24  1  0
 17 25  1  0
 15 26  1  1
 13 27  1  0
 13 28  1  0
 12 29  1  0
 12 30  1  0
 11 31  1  6
  8 32  1  0
  7 33  1  0
  7 34  1  0
  2 35  1  0
 35 36  2  0
 36 37  1  0
 37 38  2  0
 38 39  1  0
 39 40  2  0
 40 41  1  0
 39 42  1  0
 38 43  1  0
 37 44  1  0
 36 45  1  0
  1 46  1  0
  1 47  1  0
  1 48  1  0
 15 11  1  0
 21 16  1  0
 40 35  1  0
M  END
>  <plip>  (1) 
-0.10714285714285714

>  <filename>  (1) 
[H][c]1[n][c]([H])[c]([C@]2([H])[O][C]([H])([H])[C]([H])([H])[C@@]2([H])[C](=[O])[N]([H])[C]([H])([H])[C]([c]2[c]([H])[c]([H])[c]([H])[c]([H])[c]2[H])([C]([H])([H])[H])[C]([H])([H])[H])[c]([H])[c]1[H]

$$$$
