
     RDKit          3D

 44 46  0  0  0  0  0  0  0  0999 V2000
    6.0137   -4.0698   20.5270 C   0  0  0  0  0  0  0  0  0  0  0  0
    6.6532   -2.8519   20.2622 O   0  0  0  0  0  0  0  0  0  0  0  0
    6.6764   -2.0031   21.3785 C   0  0  0  0  0  0  0  0  0  0  0  0
    7.3980   -0.7125   21.0030 C   0  0  2  0  0  0  0  0  0  0  0  0
    7.5768    0.1061   22.1916 N   0  0  0  0  0  0  0  0  0  0  0  0
    8.4374    1.1510   22.1904 C   0  0  0  0  0  0  0  0  0  0  0  0
    9.0595    1.4869   21.1949 O   0  0  0  0  0  0  0  0  0  0  0  0
    8.6314    1.8191   23.5414 C   0  0  0  0  0  0  0  0  0  0  0  0
    9.7705    1.1514   24.3431 C   0  0  0  0  0  0  0  0  0  0  0  0
    9.5294   -0.2576   24.6003 N   0  0  0  0  0  0  0  0  0  0  0  0
   10.0175   -1.3087   23.8513 C   0  0  0  0  0  0  0  0  0  0  0  0
    9.4447   -2.4796   24.2434 C   0  0  0  0  0  0  0  0  0  0  0  0
    8.5110   -2.1685   25.2890 C   0  0  0  0  0  0  0  0  0  0  0  0
    7.5954   -2.8732   26.0962 C   0  0  0  0  0  0  0  0  0  0  0  0
    6.8422   -2.1313   27.0057 C   0  0  0  0  0  0  0  0  0  0  0  0
    7.0060   -0.7363   27.0823 C   0  0  0  0  0  0  0  0  0  0  0  0
    7.8558   -0.0284   26.3213 N   0  0  0  0  0  0  0  0  0  0  0  0
    8.5848   -0.7596   25.4737 C   0  0  0  0  0  0  0  0  0  0  0  0
    6.4152   -0.1635   27.7952 H   0  0  0  0  0  0  0  0  0  0  0  0
    6.1210   -2.6049   27.6590 H   0  0  0  0  0  0  0  0  0  0  0  0
    7.4952   -3.9533   26.0074 H   0  0  0  0  0  0  0  0  0  0  0  0
    9.6274   -3.4641   23.8292 H   0  0  0  0  0  0  0  0  0  0  0  0
   10.7185   -1.0963   23.0508 H   0  0  0  0  0  0  0  0  0  0  0  0
   10.7170    1.2174   23.7931 H   0  0  0  0  0  0  0  0  0  0  0  0
    9.9157    1.6602   25.3036 H   0  0  0  0  0  0  0  0  0  0  0  0
    8.9011    2.8525   23.3218 H   0  0  0  0  0  0  0  0  0  0  0  0
    7.7229    1.8241   24.1550 H   0  0  0  0  0  0  0  0  0  0  0  0
    7.0781   -0.0787   23.0495 H   0  0  0  0  0  0  0  0  0  0  0  0
    6.6719    0.0576   19.9124 C   0  0  0  0  0  0  0  0  0  0  0  0
    5.4418    0.6835   20.1458 C   0  0  0  0  0  0  0  0  0  0  0  0
    4.7975    1.3181   19.0844 C   0  0  0  0  0  0  0  0  0  0  0  0
    5.3951    1.2922   17.8174 C   0  0  0  0  0  0  0  0  0  0  0  0
    6.5562    0.6741   17.5635 N   0  0  0  0  0  0  0  0  0  0  0  0
    7.1689    0.0856   18.6042 C   0  0  0  0  0  0  0  0  0  0  0  0
    8.1121   -0.4116   18.3701 H   0  0  0  0  0  0  0  0  0  0  0  0
    4.9314    1.7965   16.9704 H   0  0  0  0  0  0  0  0  0  0  0  0
    3.8611    1.8407   19.2296 H   0  0  0  0  0  0  0  0  0  0  0  0
    4.9963    0.6627   21.1435 H   0  0  0  0  0  0  0  0  0  0  0  0
    8.3886   -0.9885   20.6145 H   0  0  0  0  0  0  0  0  0  0  0  0
    7.1900   -2.4900   22.2208 H   0  0  0  0  0  0  0  0  0  0  0  0
    5.6496   -1.7631   21.7073 H   0  0  0  0  0  0  0  0  0  0  0  0
    5.9714   -4.6277   19.5901 H   0  0  0  0  0  0  0  0  0  0  0  0
    6.5539   -4.6698   21.2734 H   0  0  0  0  0  0  0  0  0  0  0  0
    5.0044   -3.8941   20.9183 H   0  0  0  0  0  0  0  0  0  0  0  0
  1  2  1  0
  2  3  1  0
  3  4  1  0
  4  5  1  0
  5  6  1  0
  6  7  2  0
  6  8  1  0
  8  9  1  0
  9 10  1  0
 10 11  1  0
 11 12  2  0
 12 13  1  0
 13 14  2  0
 14 15  1  0
 15 16  2  0
 16 17  1  0
 17 18  2  0
 16 19  1  0
 15 20  1  0
 14 21  1  0
 12 22  1  0
 11 23  1  0
  9 24  1  0
  9 25  1  0
  8 26  1  0
  8 27  1  0
  5 28  1  0
  4 29  1  0
 29 30  2  0
 30 31  1  0
 31 32  2  0
 32 33  1  0
 33 34  2  0
 34 35  1  0
 32 36  1  0
 31 37  1  0
 30 38  1  0
  4 39  1  6
  3 40  1  0
  3 41  1  0
  1 42  1  0
  1 43  1  0
  1 44  1  0
 18 10  1  0
 34 29  1  0
 18 13  1  0
M  END
>  <plip>  (1) 
-0.17857142857142858

>  <filename>  (1) 
[H][c]1[n][c]([H])[c]([C@@]([H])([N]([H])[C](=[O])[C]([H])([H])[C]([H])([H])[n]2[c]([H])[c]([H])[c]3[c]([H])[c]([H])[c]([H])[n][c]32)[C]([H])([H])[O][C]([H])([H])[H])[c]([H])[c]1[H]

$$$$
