
     RDKit          3D

 45 45  0  0  0  0  0  0  0  0999 V2000
   10.3110    2.4588   21.5761 C   0  0  0  0  0  0  0  0  0  0  0  0
    9.0885    2.3763   22.4238 N   0  0  0  0  0  4  0  0  0  0  0  0
    8.4437    3.7390   22.5535 C   0  0  0  0  0  0  0  0  0  0  0  0
    9.2646    4.7371   23.3765 C   0  0  0  0  0  0  0  0  0  0  0  0
    9.7056    4.2798   24.7722 C   0  0  0  0  0  0  0  0  0  0  0  0
    8.6338    3.5707   25.5903 C   0  0  0  0  0  0  0  0  0  0  0  0
    8.5649    2.2259   25.0905 O   0  0  0  0  0  0  0  0  0  0  0  0
    8.0104    1.6858   25.6712 H   0  0  0  0  0  0  0  0  0  0  0  0
    8.8762    3.5880   26.6599 H   0  0  0  0  0  0  0  0  0  0  0  0
    7.6554    4.0565   25.4759 H   0  0  0  0  0  0  0  0  0  0  0  0
   10.1055    5.1474   25.3094 H   0  0  0  0  0  0  0  0  0  0  0  0
   10.5403    3.5797   24.6794 H   0  0  0  0  0  0  0  0  0  0  0  0
    8.6369    5.6282   23.4907 H   0  0  0  0  0  0  0  0  0  0  0  0
   10.1515    5.0414   22.8025 H   0  0  0  0  0  0  0  0  0  0  0  0
    8.2855    4.1647   21.5513 H   0  0  0  0  0  0  0  0  0  0  0  0
    7.4462    3.6020   22.9985 H   0  0  0  0  0  0  0  0  0  0  0  0
    8.0665    1.4049   21.9174 C   0  0  0  0  0  0  0  0  0  0  0  0
    8.5643    0.0241   21.4659 C   0  0  0  0  0  0  0  0  0  0  0  0
    9.3725   -0.6583   22.5865 C   0  0  0  0  0  0  0  0  0  0  0  0
    9.9114   -2.0025   22.1398 N   0  0  0  0  0  4  0  0  0  0  0  0
   10.2951   -1.9258   21.1752 H   0  0  0  0  0  0  0  0  0  0  0  0
    9.1400   -2.6959   22.1240 H   0  0  0  0  0  0  0  0  0  0  0  0
   10.6588   -2.3767   22.7513 H   0  0  0  0  0  0  0  0  0  0  0  0
   10.2181   -0.0300   22.8868 H   0  0  0  0  0  0  0  0  0  0  0  0
    8.7475   -0.7724   23.4823 H   0  0  0  0  0  0  0  0  0  0  0  0
    7.3447   -0.7925   20.9457 C   0  0  0  0  0  0  0  0  0  0  0  0
    6.5921   -0.0830   19.8350 C   0  0  0  0  0  0  0  0  0  0  0  0
    5.3792    0.5886   20.0625 C   0  0  0  0  0  0  0  0  0  0  0  0
    4.7959    1.3162   19.0213 C   0  0  0  0  0  0  0  0  0  0  0  0
    5.4390    1.3425   17.7813 C   0  0  0  0  0  0  0  0  0  0  0  0
    6.5932    0.7041   17.5369 N   0  0  0  0  0  0  0  0  0  0  0  0
    7.1455    0.0171   18.5443 C   0  0  0  0  0  0  0  0  0  0  0  0
    8.0854   -0.4897   18.3117 H   0  0  0  0  0  0  0  0  0  0  0  0
    5.0131    1.8911   16.9420 H   0  0  0  0  0  0  0  0  0  0  0  0
    3.8702    1.8666   19.1552 H   0  0  0  0  0  0  0  0  0  0  0  0
    4.9260    0.5567   21.0568 H   0  0  0  0  0  0  0  0  0  0  0  0
    7.6748   -1.7711   20.5678 H   0  0  0  0  0  0  0  0  0  0  0  0
    6.6692   -1.0069   21.7885 H   0  0  0  0  0  0  0  0  0  0  0  0
    9.2454    0.1623   20.6160 H   0  0  0  0  0  0  0  0  0  0  0  0
    7.5349    1.8793   21.0824 H   0  0  0  0  0  0  0  0  0  0  0  0
    7.3312    1.2539   22.7245 H   0  0  0  0  0  0  0  0  0  0  0  0
    9.2698    2.1152   23.4134 H   0  0  0  0  0  0  0  0  0  0  0  0
   10.9849    3.2374   21.9405 H   0  0  0  0  0  0  0  0  0  0  0  0
   10.0307    2.7235   20.5442 H   0  0  0  0  0  0  0  0  0  0  0  0
   10.8729    1.5209   21.5673 H   0  0  0  0  0  0  0  0  0  0  0  0
  1  2  1  0
  2  3  1  0
  3  4  1  0
  4  5  1  0
  5  6  1  0
  6  7  1  0
  7  8  1  0
  6  9  1  0
  6 10  1  0
  5 11  1  0
  5 12  1  0
  4 13  1  0
  4 14  1  0
  3 15  1  0
  3 16  1  0
  2 17  1  0
 17 18  1  0
 18 19  1  0
 19 20  1  0
 20 21  1  0
 20 22  1  0
 20 23  1  0
 19 24  1  0
 19 25  1  0
 18 26  1  0
 26 27  1  0
 27 28  2  0
 28 29  1  0
 29 30  2  0
 30 31  1  0
 31 32  2  0
 32 33  1  0
 30 34  1  0
 29 35  1  0
 28 36  1  0
 26 37  1  0
 26 38  1  0
 18 39  1  0
 17 40  1  0
 17 41  1  0
  2 42  1  0
  1 43  1  0
  1 44  1  0
  1 45  1  0
 32 27  1  0
M  CHG  2   2   1  20   1
M  END
>  <plip>  (1) 
-0.10344827586206896

>  <filename>  (1) 
[H][O][C]([H])([H])[C]([H])([H])[C]([H])([H])[C]([H])([H])[N+]([H])([C]([H])([H])[H])[C]([H])([H])[C]([H])([C]([H])([H])[c]1[c]([H])[n][c]([H])[c]([H])[c]1[H])[C]([H])([H])[N+]([H])([H])[H]

$$$$
