
     RDKit          3D

 40 42  0  0  0  0  0  0  0  0999 V2000
    4.9273    1.7150   16.9818 H   0  0  0  0  0  0  0  0  0  0  0  0
    5.4168    1.2874   17.8544 C   0  0  0  0  0  0  0  0  0  0  0  0
    6.5807    0.6628   17.6301 N   0  0  0  0  0  0  0  0  0  0  0  0
    7.1827    0.1001   18.6841 C   0  0  0  0  0  0  0  0  0  0  0  0
    8.1008   -0.4341   18.4437 H   0  0  0  0  0  0  0  0  0  0  0  0
    6.7185    0.1332   20.0271 C   0  0  0  0  0  0  0  0  0  0  0  0
    7.4882   -0.5723   21.1946 C   0  0  0  0  0  0  0  0  0  0  0  0
    8.9585    0.4314   21.9028 S   0  0  0  0  0  0  0  0  0  0  0  0
    9.7842    0.8370   20.7635 O   0  0  0  0  0  0  0  0  0  0  0  0
    9.5883   -0.2647   23.0285 O   0  0  0  0  0  0  0  0  0  0  0  0
    8.1877    1.9050   22.5417 C   0  0  0  0  0  0  0  0  0  0  0  0
    7.8593    2.8772   21.5969 C   0  0  0  0  0  0  0  0  0  0  0  0
    8.0575    2.6313   20.5566 H   0  0  0  0  0  0  0  0  0  0  0  0
    7.2956    4.0840   22.0145 C   0  0  0  0  0  0  0  0  0  0  0  0
    7.0427    4.8581   21.2912 H   0  0  0  0  0  0  0  0  0  0  0  0
    7.0558    4.3025   23.3775 C   0  0  0  0  0  0  0  0  0  0  0  0
    6.6246    5.2490   23.6967 H   0  0  0  0  0  0  0  0  0  0  0  0
    7.3831    3.3126   24.3170 C   0  0  0  0  0  0  0  0  0  0  0  0
    7.1920    3.4888   25.3726 H   0  0  0  0  0  0  0  0  0  0  0  0
    7.9548    2.1027   23.9067 C   0  0  0  0  0  0  0  0  0  0  0  0
    8.2233    1.3439   24.6425 H   0  0  0  0  0  0  0  0  0  0  0  0
    8.0626   -1.8990   20.6406 C   0  0  0  0  0  0  0  0  0  0  0  0
    7.2180   -2.3714   20.1144 H   0  0  0  0  0  0  0  0  0  0  0  0
    8.8402   -1.6753   19.9034 H   0  0  0  0  0  0  0  0  0  0  0  0
    8.6161   -2.8901   21.6640 C   0  0  0  0  0  0  0  0  0  0  0  0
    8.8189   -3.8309   21.1453 H   0  0  0  0  0  0  0  0  0  0  0  0
    9.5628   -2.4951   22.0462 H   0  0  0  0  0  0  0  0  0  0  0  0
    7.6395   -3.1504   22.8132 C   0  0  0  0  0  0  0  0  0  0  0  0
    8.1103   -3.7921   23.5689 H   0  0  0  0  0  0  0  0  0  0  0  0
    6.7731   -3.7076   22.4256 H   0  0  0  0  0  0  0  0  0  0  0  0
    7.1285   -1.8500   23.4392 C   0  0  0  0  0  0  0  0  0  0  0  0
    7.9467   -1.3296   23.9442 H   0  0  0  0  0  0  0  0  0  0  0  0
    6.3707   -2.0782   24.1975 H   0  0  0  0  0  0  0  0  0  0  0  0
    6.5297   -0.9376   22.3597 C   0  0  0  0  0  0  0  0  0  0  0  0
    5.7049   -1.4851   21.8754 H   0  0  0  0  0  0  0  0  0  0  0  0
    6.1021   -0.0402   22.8219 H   0  0  0  0  0  0  0  0  0  0  0  0
    5.4913    0.7999   20.2156 C   0  0  0  0  0  0  0  0  0  0  0  0
    5.0259    0.8368   21.2007 H   0  0  0  0  0  0  0  0  0  0  0  0
    4.8359    1.3755   19.1199 C   0  0  0  0  0  0  0  0  0  0  0  0
    3.8787    1.8744   19.2318 H   0  0  0  0  0  0  0  0  0  0  0  0
  1  2  1  0
  2  3  2  0
  3  4  1  0
  4  5  1  0
  4  6  2  0
  6  7  1  0
  7  8  1  0
  8  9  2  0
  8 10  2  0
  8 11  1  0
 11 12  2  0
 12 13  1  0
 12 14  1  0
 14 15  1  0
 14 16  2  0
 16 17  1  0
 16 18  1  0
 18 19  1  0
 18 20  2  0
 20 21  1  0
  7 22  1  0
 22 23  1  0
 22 24  1  0
 22 25  1  0
 25 26  1  0
 25 27  1  0
 25 28  1  0
 28 29  1  0
 28 30  1  0
 28 31  1  0
 31 32  1  0
 31 33  1  0
 31 34  1  0
 34 35  1  0
 34 36  1  0
  6 37  1  0
 37 38  1  0
 37 39  2  0
 39 40  1  0
 39  2  1  0
 34  7  1  0
 20 11  1  0
M  END
>  <plip>  (1) 
-0.03571428571428571

>  <filename>  (1) 
[H][c]1[n][c]([H])[c]([C]2([S](=[O])(=[O])[c]3[c]([H])[c]([H])[c]([H])[c]([H])[c]3[H])[C]([H])([H])[C]([H])([H])[C]([H])([H])[C]([H])([H])[C]2([H])[H])[c]([H])[c]1[H]

$$$$
