
     RDKit          3D

 30 32  0  0  0  0  0  0  0  0999 V2000
    4.9975    1.8252   16.8321 H   0  0  0  0  0  0  0  0  0  0  0  0
    5.4254    1.3211   17.7021 C   0  0  0  0  0  0  0  0  0  0  0  0
    6.5884    0.6784   17.5110 N   0  0  0  0  0  0  0  0  0  0  0  0
    7.1536    0.0742   18.5665 C   0  0  0  0  0  0  0  0  0  0  0  0
    8.0975   -0.4219   18.3490 H   0  0  0  0  0  0  0  0  0  0  0  0
    6.6094    0.0736   19.8667 C   0  0  0  0  0  0  0  0  0  0  0  0
    7.2796   -0.5242   21.0360 C   0  0  0  0  0  0  0  0  0  0  0  0
    7.1431   -0.2598   22.3619 C   0  0  0  0  0  0  0  0  0  0  0  0
    6.5273    0.4636   22.8718 H   0  0  0  0  0  0  0  0  0  0  0  0
    7.9169   -1.1830   23.0744 N   0  0  0  0  0  0  0  0  0  0  0  0
    8.1173   -1.3324   24.5321 C   0  0  2  0  0  0  0  0  0  0  0  0
    7.7408   -2.3190   24.8298 H   0  0  0  0  0  0  0  0  0  0  0  0
    7.4553   -0.2945   25.4392 C   0  0  0  0  0  0  0  0  0  0  0  0
    6.3811   -0.4443   25.5624 H   0  0  0  0  0  0  0  0  0  0  0  0
    7.6519    0.7261   25.0608 H   0  0  0  0  0  0  0  0  0  0  0  0
    8.0735   -0.5066   26.6932 O   0  0  0  0  0  0  0  0  0  0  0  0
    9.4589   -0.7341   26.4645 C   0  0  0  0  0  0  0  0  0  0  0  0
   10.0361    0.1884   26.6273 H   0  0  0  0  0  0  0  0  0  0  0  0
    9.7984   -1.4618   27.2108 H   0  0  0  0  0  0  0  0  0  0  0  0
    9.5852   -1.2187   25.0012 C   0  0  0  0  0  0  0  0  0  0  0  0
   10.1107   -2.1742   24.9318 H   0  0  0  0  0  0  0  0  0  0  0  0
   10.1158   -0.4734   24.3970 H   0  0  0  0  0  0  0  0  0  0  0  0
    8.4395   -2.0859   22.1928 C   0  0  0  0  0  0  0  0  0  0  0  0
    9.1255   -3.5627   22.5172 S   0  0  0  0  0  0  0  0  0  0  0  0
    8.1503   -1.6021   20.9563 N   0  0  0  0  0  0  0  0  0  0  0  0
    8.3334   -2.2099   20.1784 H   0  0  0  0  0  0  0  0  0  0  0  0
    5.3695    0.7172   20.0266 C   0  0  0  0  0  0  0  0  0  0  0  0
    4.8740    0.7162   20.9964 H   0  0  0  0  0  0  0  0  0  0  0  0
    4.7722    1.3496   18.9362 C   0  0  0  0  0  0  0  0  0  0  0  0
    3.8300    1.8782   19.0245 H   0  0  0  0  0  0  0  0  0  0  0  0
  1  2  1  0
  2  3  2  0
  3  4  1  0
  4  5  1  0
  4  6  2  0
  6  7  1  0
  7  8  2  0
  8  9  1  0
  8 10  1  0
 10 11  1  0
 11 12  1  1
 11 13  1  0
 13 14  1  0
 13 15  1  0
 13 16  1  0
 16 17  1  0
 17 18  1  0
 17 19  1  0
 17 20  1  0
 20 21  1  0
 20 22  1  0
 10 23  1  0
 23 24  2  0
 23 25  1  0
 25 26  1  0
  6 27  1  0
 27 28  1  0
 27 29  2  0
 29 30  1  0
 29  2  1  0
 25  7  1  0
 20 11  1  0
M  END
>  <plip>  (1) 
-0.034482758620689655

>  <filename>  (1) 
[H][c]1[n][c]([H])[c](-[c]2[c]([H])[n]([C@]3([H])[C]([H])([H])[O][C]([H])([H])[C]3([H])[H])[c](=[S])[n]2[H])[c]([H])[c]1[H]

$$$$
