
     RDKit          3D

 37 39  0  0  0  0  0  0  0  0999 V2000
    4.9366    1.8039   16.9417 H   0  0  0  0  0  0  0  0  0  0  0  0
    5.3793    1.3233   17.8141 C   0  0  0  0  0  0  0  0  0  0  0  0
    6.5478    0.6962   17.6175 N   0  0  0  0  0  0  0  0  0  0  0  0
    7.1240    0.1244   18.6853 C   0  0  0  0  0  0  0  0  0  0  0  0
    8.0541   -0.4091   18.4836 H   0  0  0  0  0  0  0  0  0  0  0  0
    6.6018    0.1378   19.9935 C   0  0  0  0  0  0  0  0  0  0  0  0
    7.3103   -0.5795   21.1513 C   0  0  1  0  0  0  0  0  0  0  0  0
    6.8452   -0.2582   22.0918 H   0  0  0  0  0  0  0  0  0  0  0  0
    7.0823   -2.1112   21.0235 C   0  0  0  0  0  0  0  0  0  0  0  0
    7.3317   -2.3672   19.9949 H   0  0  0  0  0  0  0  0  0  0  0  0
    6.0084   -2.3036   21.1450 H   0  0  0  0  0  0  0  0  0  0  0  0
    7.8432   -2.9842   21.9220 N   0  0  0  0  0  0  0  0  0  0  0  0
    7.4563   -2.9333   22.8639 H   0  0  0  0  0  0  0  0  0  0  0  0
    9.2706   -2.6473   21.9778 C   0  0  0  0  0  0  0  0  0  0  0  0
    9.7257   -2.8698   21.0012 H   0  0  0  0  0  0  0  0  0  0  0  0
    9.7605   -3.2981   22.7135 H   0  0  0  0  0  0  0  0  0  0  0  0
    9.5211   -1.1708   22.3053 C   0  0  0  0  0  0  0  0  0  0  0  0
    9.1056   -0.9769   23.3037 H   0  0  0  0  0  0  0  0  0  0  0  0
   10.5951   -0.9516   22.3604 H   0  0  0  0  0  0  0  0  0  0  0  0
    8.8374   -0.2714   21.2514 C   0  0  2  0  0  0  0  0  0  0  0  0
    9.3143   -0.4679   20.2810 H   0  0  0  0  0  0  0  0  0  0  0  0
    9.1982    1.5156   21.4965 S   0  0  0  0  0  0  0  0  0  0  0  0
    8.4576    1.7705   23.0968 C   0  0  0  0  0  0  0  0  0  0  0  0
    7.0976    2.0890   23.2222 C   0  0  0  0  0  0  0  0  0  0  0  0
    6.4971    2.2032   22.3210 H   0  0  0  0  0  0  0  0  0  0  0  0
    6.5159    2.1919   24.4902 C   0  0  0  0  0  0  0  0  0  0  0  0
    5.4533    2.4066   24.5798 H   0  0  0  0  0  0  0  0  0  0  0  0
    7.2934    2.0032   25.6379 C   0  0  0  0  0  0  0  0  0  0  0  0
    6.8411    2.0905   26.6245 H   0  0  0  0  0  0  0  0  0  0  0  0
    8.6506    1.6952   25.5167 C   0  0  0  0  0  0  0  0  0  0  0  0
    9.2578    1.5272   26.4042 H   0  0  0  0  0  0  0  0  0  0  0  0
    9.2327    1.5775   24.2518 C   0  0  0  0  0  0  0  0  0  0  0  0
   10.2725    1.2811   24.1398 H   0  0  0  0  0  0  0  0  0  0  0  0
    5.3501    0.7548   20.1567 C   0  0  0  0  0  0  0  0  0  0  0  0
    4.8520    0.7566   21.1295 H   0  0  0  0  0  0  0  0  0  0  0  0
    4.7388    1.3615   19.0542 C   0  0  0  0  0  0  0  0  0  0  0  0
    3.7846    1.8674   19.1420 H   0  0  0  0  0  0  0  0  0  0  0  0
  1  2  1  0
  2  3  2  0
  3  4  1  0
  4  5  1  0
  4  6  2  0
  6  7  1  0
  7  8  1  1
  7  9  1  0
  9 10  1  0
  9 11  1  0
  9 12  1  0
 12 13  1  0
 12 14  1  0
 14 15  1  0
 14 16  1  0
 14 17  1  0
 17 18  1  0
 17 19  1  0
 17 20  1  0
 20 21  1  6
 20 22  1  0
 22 23  1  0
 23 24  2  0
 24 25  1  0
 24 26  1  0
 26 27  1  0
 26 28  2  0
 28 29  1  0
 28 30  1  0
 30 31  1  0
 30 32  2  0
 32 33  1  0
  6 34  1  0
 34 35  1  0
 34 36  2  0
 36 37  1  0
 36  2  1  0
 20  7  1  0
 32 23  1  0
M  END
>  <plip>  (1) 
-0.034482758620689655

>  <filename>  (1) 
[H][c]1[n][c]([H])[c]([C@@]2([H])[C]([H])([H])[N]([H])[C]([H])([H])[C]([H])([H])[C@]2([H])[S][c]2[c]([H])[c]([H])[c]([H])[c]([H])[c]2[H])[c]([H])[c]1[H]

$$$$
