
     RDKit          3D

 38 39  0  0  0  0  0  0  0  0999 V2000
    7.8423   -4.2071   27.7501 N   0  0  0  0  0  0  0  0  0  0  0  0
    7.2349   -3.0210   26.7570 S   0  0  0  0  0  0  0  0  0  0  0  0
    6.4457   -2.1853   27.6385 O   0  0  0  0  0  0  0  0  0  0  0  0
    6.6322   -3.8212   25.7050 O   0  0  0  0  0  0  0  0  0  0  0  0
    8.6166   -2.1418   26.1199 C   0  0  0  0  0  0  0  0  0  0  0  0
    9.0410   -0.9073   26.6338 C   0  0  0  0  0  0  0  0  0  0  0  0
   10.0598   -0.2144   25.9705 C   0  0  0  0  0  0  0  0  0  0  0  0
   10.6546   -0.7447   24.8186 C   0  0  0  0  0  0  0  0  0  0  0  0
   10.2536   -1.9992   24.3291 C   0  0  0  0  0  0  0  0  0  0  0  0
   10.7688   -2.5734   23.0219 C   0  0  0  0  0  0  0  0  0  0  0  0
   10.6460   -1.6127   21.8343 C   0  0  0  0  0  0  0  0  0  0  0  0
    9.2525   -1.2098   21.6820 N   0  0  0  0  0  0  0  0  0  0  0  0
    8.7836   -0.4648   20.6449 C   0  0  0  0  0  0  0  0  0  0  0  0
    9.4651    0.1873   19.8828 O   0  0  0  0  0  0  0  0  0  0  0  0
    7.3958   -0.5730   20.5653 N   0  0  0  0  0  0  0  0  0  0  0  0
    6.6057    0.0603   19.5806 C   0  0  0  0  0  0  0  0  0  0  0  0
    5.3874    0.6413   19.9500 C   0  0  0  0  0  0  0  0  0  0  0  0
    4.6671    1.3517   18.9846 C   0  0  0  0  0  0  0  0  0  0  0  0
    5.1761    1.4207   17.6824 C   0  0  0  0  0  0  0  0  0  0  0  0
    6.2979    0.7930   17.2894 N   0  0  0  0  0  0  0  0  0  0  0  0
    6.9901    0.1265   18.2179 C   0  0  0  0  0  0  0  0  0  0  0  0
    7.8999   -0.3780   17.8990 H   0  0  0  0  0  0  0  0  0  0  0  0
    4.6776    2.0089   16.9216 H   0  0  0  0  0  0  0  0  0  0  0  0
    3.7428    1.8662   19.2338 H   0  0  0  0  0  0  0  0  0  0  0  0
    5.0365    0.5585   20.9793 H   0  0  0  0  0  0  0  0  0  0  0  0
    6.9626   -0.6749   21.4676 H   0  0  0  0  0  0  0  0  0  0  0  0
    8.5500   -1.7838   22.1098 H   0  0  0  0  0  0  0  0  0  0  0  0
   11.0120   -2.1191   20.9359 H   0  0  0  0  0  0  0  0  0  0  0  0
   11.2845   -0.7292   21.9594 H   0  0  0  0  0  0  0  0  0  0  0  0
   11.7987   -2.9404   23.1000 H   0  0  0  0  0  0  0  0  0  0  0  0
   10.1874   -3.4724   22.7806 H   0  0  0  0  0  0  0  0  0  0  0  0
    9.2448   -2.6928   24.9989 C   0  0  0  0  0  0  0  0  0  0  0  0
    8.9353   -3.6539   24.5989 H   0  0  0  0  0  0  0  0  0  0  0  0
   11.4211   -0.1860   24.2848 H   0  0  0  0  0  0  0  0  0  0  0  0
   10.3807    0.7550   26.3434 H   0  0  0  0  0  0  0  0  0  0  0  0
    8.5841   -0.4823   27.5269 H   0  0  0  0  0  0  0  0  0  0  0  0
    7.5052   -4.9472   27.1358 H   0  0  0  0  0  0  0  0  0  0  0  0
    7.1111   -4.0726   28.4446 H   0  0  0  0  0  0  0  0  0  0  0  0
  1  2  1  0
  2  3  2  0
  2  4  2  0
  2  5  1  0
  5  6  2  0
  6  7  1  0
  7  8  2  0
  8  9  1  0
  9 10  1  0
 10 11  1  0
 11 12  1  0
 12 13  1  0
 13 14  2  0
 13 15  1  0
 15 16  1  0
 16 17  2  0
 17 18  1  0
 18 19  2  0
 19 20  1  0
 20 21  2  0
 21 22  1  0
 19 23  1  0
 18 24  1  0
 17 25  1  0
 15 26  1  0
 12 27  1  0
 11 28  1  0
 11 29  1  0
 10 30  1  0
 10 31  1  0
  9 32  2  0
 32 33  1  0
  8 34  1  0
  7 35  1  0
  6 36  1  0
  1 37  1  0
  1 38  1  0
 32  5  1  0
 21 16  1  0
M  END
>  <plip>  (1) 
-0.06666666666666667

>  <filename>  (1) 
[H][c]1[n][c]([H])[c]([N]([H])[C](=[O])[N]([H])[C]([H])([H])[C]([H])([H])[c]2[c]([H])[c]([H])[c]([H])[c]([S](=[O])(=[O])[N]([H])[H])[c]2[H])[c]([H])[c]1[H]

$$$$
