
     RDKit          3D

 50 53  0  0  0  0  0  0  0  0999 V2000
    5.0369    1.9181   17.0058 H   0  0  0  0  0  0  0  0  0  0  0  0
    5.4986    1.3484   17.8090 C   0  0  0  0  0  0  0  0  0  0  0  0
    6.6647    0.7467   17.5241 N   0  0  0  0  0  0  0  0  0  0  0  0
    7.2592    0.0535   18.5059 C   0  0  0  0  0  0  0  0  0  0  0  0
    8.2028   -0.4235   18.2464 H   0  0  0  0  0  0  0  0  0  0  0  0
    6.7402   -0.1055   19.8219 C   0  0  0  0  0  0  0  0  0  0  0  0
    7.4084   -0.8792   20.7862 N   0  0  0  0  0  0  0  0  0  0  0  0
    6.8491   -1.1131   22.1292 C   0  0  1  0  0  0  0  0  0  0  0  0
    5.8089   -1.4427   22.0440 H   0  0  0  0  0  0  0  0  0  0  0  0
    7.7550   -2.2741   22.5989 C   0  0  0  0  0  0  0  0  0  0  0  0
    7.3419   -3.2175   22.2284 H   0  0  0  0  0  0  0  0  0  0  0  0
    7.8038   -2.3456   23.6904 H   0  0  0  0  0  0  0  0  0  0  0  0
    9.1175   -1.9724   21.9316 C   0  0  0  0  0  0  0  0  0  0  0  0
    9.9249   -1.8056   22.6527 H   0  0  0  0  0  0  0  0  0  0  0  0
    9.4204   -2.8010   21.2845 H   0  0  0  0  0  0  0  0  0  0  0  0
    8.8486   -0.7154   21.0616 C   0  0  2  0  0  0  0  0  0  0  0  0
    9.4317   -0.7528   20.1336 H   0  0  0  0  0  0  0  0  0  0  0  0
    9.1299    0.6331   21.7894 C   0  0  0  0  0  0  0  0  0  0  0  0
    9.5333    1.3594   21.0790 H   0  0  0  0  0  0  0  0  0  0  0  0
    9.9186    0.4668   22.5346 H   0  0  0  0  0  0  0  0  0  0  0  0
    7.8767    1.2671   22.4659 C   0  0  2  0  0  0  0  0  0  0  0  0
    7.3022    1.7710   21.6757 H   0  0  0  0  0  0  0  0  0  0  0  0
    8.2575    2.2968   23.5233 C   0  0  0  0  0  0  0  0  0  0  0  0
    7.8696    3.6511   23.4959 C   0  0  0  0  0  0  0  0  0  0  0  0
    7.2856    4.0239   22.6540 H   0  0  0  0  0  0  0  0  0  0  0  0
    8.2145    4.5469   24.5299 C   0  0  0  0  0  0  0  0  0  0  0  0
    7.9058    5.5909   24.4884 H   0  0  0  0  0  0  0  0  0  0  0  0
    8.9403    4.0747   25.6314 C   0  0  0  0  0  0  0  0  0  0  0  0
    9.2863    4.7719   26.7533 O   0  0  0  0  0  0  0  0  0  0  0  0
    9.5982    6.1691   26.7746 C   0  0  0  0  0  0  0  0  0  0  0  0
    8.7296    6.7382   26.4089 H   0  0  0  0  0  0  0  0  0  0  0  0
   10.8178    6.5194   25.9240 C   0  0  0  0  0  0  0  0  0  0  0  0
   11.7046    5.9692   26.2591 H   0  0  0  0  0  0  0  0  0  0  0  0
   10.6461    6.2983   24.8651 H   0  0  0  0  0  0  0  0  0  0  0  0
   11.0324    7.5917   26.0121 H   0  0  0  0  0  0  0  0  0  0  0  0
    9.8090    6.4848   28.2556 C   0  0  0  0  0  0  0  0  0  0  0  0
   10.6521    5.9084   28.6582 H   0  0  0  0  0  0  0  0  0  0  0  0
    8.9131    6.2165   28.8237 H   0  0  0  0  0  0  0  0  0  0  0  0
   10.0088    7.5502   28.4229 H   0  0  0  0  0  0  0  0  0  0  0  0
    9.3020    2.7164   25.6744 C   0  0  0  0  0  0  0  0  0  0  0  0
    9.7870    2.3291   26.5528 H   0  0  0  0  0  0  0  0  0  0  0  0
    9.0118    1.8640   24.6226 C   0  0  0  0  0  0  0  0  0  0  0  0
    9.3724    0.8324   24.6411 H   0  0  0  0  0  0  0  0  0  0  0  0
    6.9624    0.1456   23.0462 C   0  0  0  0  0  0  0  0  0  0  0  0
    7.3566   -0.1701   24.0231 H   0  0  0  0  0  0  0  0  0  0  0  0
    5.9707    0.5644   23.2486 H   0  0  0  0  0  0  0  0  0  0  0  0
    5.5003    0.5175   20.0758 C   0  0  0  0  0  0  0  0  0  0  0  0
    5.0485    0.4340   21.0631 H   0  0  0  0  0  0  0  0  0  0  0  0
    4.8868    1.2610   19.0631 C   0  0  0  0  0  0  0  0  0  0  0  0
    3.9541    1.7825   19.2463 H   0  0  0  0  0  0  0  0  0  0  0  0
  1  2  1  0
  2  3  2  0
  3  4  1  0
  4  5  1  0
  4  6  2  0
  6  7  1  0
  7  8  1  0
  8  9  1  6
  8 10  1  0
 10 11  1  0
 10 12  1  0
 10 13  1  0
 13 14  1  0
 13 15  1  0
 13 16  1  0
 16 17  1  6
 16 18  1  0
 18 19  1  0
 18 20  1  0
 18 21  1  0
 21 22  1  6
 21 23  1  0
 23 24  2  0
 24 25  1  0
 24 26  1  0
 26 27  1  0
 26 28  2  0
 28 29  1  0
 29 30  1  0
 30 31  1  0
 30 32  1  0
 32 33  1  0
 32 34  1  0
 32 35  1  0
 30 36  1  0
 36 37  1  0
 36 38  1  0
 36 39  1  0
 28 40  1  0
 40 41  1  0
 40 42  2  0
 42 43  1  0
 21 44  1  0
 44 45  1  0
 44 46  1  0
  6 47  1  0
 47 48  1  0
 47 49  2  0
 49 50  1  0
 49  2  1  0
 16  7  1  0
 42 23  1  0
 44  8  1  0
M  END
>  <plip>  (1) 
-0.03571428571428571

>  <filename>  (1) 
[H][c]1[n][c]([H])[c]([N]2[C@@]3([H])[C]([H])([H])[C]([H])([H])[C@]2([H])[C]([H])([H])[C@]([H])([c]2[c]([H])[c]([H])[c]([O][C]([H])([C]([H])([H])[H])[C]([H])([H])[H])[c]([H])[c]2[H])[C]3([H])[H])[c]([H])[c]1[H]

$$$$
