
     RDKit          3D

 32 34  0  0  0  0  0  0  0  0999 V2000
    4.9270    1.7771   16.9991 H   0  0  0  0  0  0  0  0  0  0  0  0
    5.4072    1.2869   17.8436 C   0  0  0  0  0  0  0  0  0  0  0  0
    6.5710    0.6687   17.5914 N   0  0  0  0  0  0  0  0  0  0  0  0
    7.1732    0.0562   18.6133 C   0  0  0  0  0  0  0  0  0  0  0  0
    8.1215   -0.4259   18.3744 H   0  0  0  0  0  0  0  0  0  0  0  0
    6.6565    0.0087   19.9197 C   0  0  0  0  0  0  0  0  0  0  0  0
    7.3711   -0.6789   20.9950 C   0  0  0  0  0  0  0  0  0  0  0  0
    6.8901   -0.7502   22.1967 N   0  0  0  0  0  0  0  0  0  0  0  0
    7.7602   -1.4589   22.9880 N   0  0  0  0  0  0  0  0  0  0  0  0
    7.5149   -1.8351   24.3169 C   0  0  0  0  0  0  0  0  0  0  0  0
    8.1707   -2.7380   24.8083 O   0  0  0  0  0  0  0  0  0  0  0  0
    6.4507   -1.0982   25.1023 C   0  0  0  0  0  0  0  0  0  0  0  0
    5.7229   -1.7960   26.0901 C   0  0  0  0  0  0  0  0  0  0  0  0
    5.9259   -2.8473   26.2789 H   0  0  0  0  0  0  0  0  0  0  0  0
    4.7413   -1.1532   26.8450 C   0  0  0  0  0  0  0  0  0  0  0  0
    4.1634   -1.6707   27.6062 H   0  0  0  0  0  0  0  0  0  0  0  0
    4.5071    0.2006   26.6153 C   0  0  0  0  0  0  0  0  0  0  0  0
    3.5609    0.8281   27.3291 F   0  0  0  0  0  0  0  0  0  0  0  0
    5.2280    0.9296   25.6731 C   0  0  0  0  0  0  0  0  0  0  0  0
    5.0106    1.9828   25.5247 H   0  0  0  0  0  0  0  0  0  0  0  0
    6.2039    0.2775   24.9226 C   0  0  0  0  0  0  0  0  0  0  0  0
    6.7633    0.8392   24.1785 H   0  0  0  0  0  0  0  0  0  0  0  0
    8.9239   -1.9666   22.2506 C   0  0  0  0  0  0  0  0  0  0  0  0
    8.9514   -3.0669   22.2567 H   0  0  0  0  0  0  0  0  0  0  0  0
    9.8683   -1.6255   22.6899 H   0  0  0  0  0  0  0  0  0  0  0  0
    8.6879   -1.3741   20.8611 C   0  0  0  0  0  0  0  0  0  0  0  0
    9.4807   -0.7085   20.5069 H   0  0  0  0  0  0  0  0  0  0  0  0
    8.6226   -2.1574   20.1218 H   0  0  0  0  0  0  0  0  0  0  0  0
    5.4331    0.6529   20.1694 C   0  0  0  0  0  0  0  0  0  0  0  0
    5.0090    0.6298   21.1768 H   0  0  0  0  0  0  0  0  0  0  0  0
    4.8097    1.3062   19.1094 C   0  0  0  0  0  0  0  0  0  0  0  0
    3.8779    1.8407   19.2548 H   0  0  0  0  0  0  0  0  0  0  0  0
  1  2  1  0
  2  3  2  0
  3  4  1  0
  4  5  1  0
  4  6  2  0
  6  7  1  0
  7  8  2  0
  8  9  1  0
  9 10  1  0
 10 11  2  0
 10 12  1  0
 12 13  2  0
 13 14  1  0
 13 15  1  0
 15 16  1  0
 15 17  2  0
 17 18  1  0
 17 19  1  0
 19 20  1  0
 19 21  2  0
 21 22  1  0
  9 23  1  0
 23 24  1  0
 23 25  1  0
 23 26  1  0
 26 27  1  0
 26 28  1  0
  6 29  1  0
 29 30  1  0
 29 31  2  0
 31 32  1  0
 31  2  1  0
 26  7  1  0
 21 12  1  0
M  END
>  <plip>  (1) 
-0.03571428571428571

>  <filename>  (1) 
[H][c]1[n][c]([H])[c]([C]2=[N][N]([C](=[O])[c]3[c]([H])[c]([H])[c]([F])[c]([H])[c]3[H])[C]([H])([H])[C]2([H])[H])[c]([H])[c]1[H]

$$$$
