
     RDKit          3D

 30 31  0  0  0  0  0  0  0  0999 V2000
    4.9054    1.7715   17.0066 H   0  0  0  0  0  0  0  0  0  0  0  0
    5.4028    1.2900   17.8439 C   0  0  0  0  0  0  0  0  0  0  0  0
    6.5680    0.6823   17.5811 N   0  0  0  0  0  0  0  0  0  0  0  0
    7.1771    0.0610   18.6044 C   0  0  0  0  0  0  0  0  0  0  0  0
    8.1267   -0.4323   18.3768 H   0  0  0  0  0  0  0  0  0  0  0  0
    6.6684    0.0067   19.9077 C   0  0  0  0  0  0  0  0  0  0  0  0
    7.3510   -0.7548   21.0528 C   0  0  0  0  0  0  0  0  0  0  0  0
    7.4457    0.1798   22.2800 C   0  0  0  0  0  0  0  0  0  0  0  0
    7.0706   -0.2222   23.5691 C   0  0  0  0  0  0  0  0  0  0  0  0
    6.6655   -1.2143   23.7494 H   0  0  0  0  0  0  0  0  0  0  0  0
    7.2067    0.6390   24.6586 C   0  0  0  0  0  0  0  0  0  0  0  0
    6.9047    0.3039   25.6459 H   0  0  0  0  0  0  0  0  0  0  0  0
    7.7304    1.9245   24.4904 C   0  0  0  0  0  0  0  0  0  0  0  0
    7.8791    2.9567   25.8730 Cl  0  0  0  0  0  0  0  0  0  0  0  0
    8.1277    2.3429   23.2104 C   0  0  0  0  0  0  0  0  0  0  0  0
    8.7937    3.9214   22.9451 Cl  0  0  0  0  0  0  0  0  0  0  0  0
    7.9929    1.4731   22.1231 C   0  0  0  0  0  0  0  0  0  0  0  0
    8.3063    1.8163   21.1387 H   0  0  0  0  0  0  0  0  0  0  0  0
    6.4983   -2.0194   21.3008 C   0  0  0  0  0  0  0  0  0  0  0  0
    6.3729   -2.5826   20.3702 H   0  0  0  0  0  0  0  0  0  0  0  0
    5.5008   -1.7628   21.6702 H   0  0  0  0  0  0  0  0  0  0  0  0
    6.9865   -2.6737   22.0264 H   0  0  0  0  0  0  0  0  0  0  0  0
    8.7869   -1.1981   20.7187 C   0  0  0  0  0  0  0  0  0  0  0  0
    9.2454   -1.6494   21.6005 H   0  0  0  0  0  0  0  0  0  0  0  0
    9.4130   -0.3604   20.4001 H   0  0  0  0  0  0  0  0  0  0  0  0
    8.7984   -1.9484   19.9344 H   0  0  0  0  0  0  0  0  0  0  0  0
    5.4427    0.6472   20.1520 C   0  0  0  0  0  0  0  0  0  0  0  0
    5.0133    0.6309   21.1546 H   0  0  0  0  0  0  0  0  0  0  0  0
    4.8040    1.3120   19.1100 C   0  0  0  0  0  0  0  0  0  0  0  0
    3.8691    1.8472   19.2674 H   0  0  0  0  0  0  0  0  0  0  0  0
  1  2  1  0
  2  3  2  0
  3  4  1  0
  4  5  1  0
  4  6  2  0
  6  7  1  0
  7  8  1  0
  8  9  2  0
  9 10  1  0
  9 11  1  0
 11 12  1  0
 11 13  2  0
 13 14  1  0
 13 15  1  0
 15 16  1  0
 15 17  2  0
 17 18  1  0
  7 19  1  0
 19 20  1  0
 19 21  1  0
 19 22  1  0
  7 23  1  0
 23 24  1  0
 23 25  1  0
 23 26  1  0
  6 27  1  0
 27 28  1  0
 27 29  2  0
 29 30  1  0
 29  2  1  0
 17  8  1  0
M  END
>  <plip>  (1) 
-0.03571428571428571

>  <filename>  (1) 
[H][c]1[n][c]([H])[c]([C]([c]2[c]([H])[c]([H])[c]([Cl])[c]([Cl])[c]2[H])([C]([H])([H])[H])[C]([H])([H])[H])[c]([H])[c]1[H]

$$$$
