
     RDKit          3D

 28 30  0  0  0  0  0  0  0  0999 V2000
    4.9147    1.7853   16.9908 H   0  0  0  0  0  0  0  0  0  0  0  0
    5.3992    1.2959   17.8330 C   0  0  0  0  0  0  0  0  0  0  0  0
    6.5629    0.6817   17.5670 N   0  0  0  0  0  0  0  0  0  0  0  0
    7.1608    0.0532   18.5870 C   0  0  0  0  0  0  0  0  0  0  0  0
    8.1153   -0.4264   18.3703 H   0  0  0  0  0  0  0  0  0  0  0  0
    6.6288   -0.0341   19.8878 C   0  0  0  0  0  0  0  0  0  0  0  0
    7.5499   -0.8529   21.1865 S   0  0  0  0  0  0  0  0  0  0  0  0
    8.5241    0.5724   21.6742 C   0  0  0  0  0  0  0  0  0  0  0  0
    9.6805    0.8450   20.9701 C   0  0  0  0  0  0  0  0  0  0  0  0
    9.9638    0.1400   20.1975 H   0  0  0  0  0  0  0  0  0  0  0  0
   10.4698    1.9901   21.2559 C   0  0  0  0  0  0  0  0  0  0  0  0
   11.3865    2.1681   20.6977 H   0  0  0  0  0  0  0  0  0  0  0  0
   10.0735    2.8634   22.2419 C   0  0  0  0  0  0  0  0  0  0  0  0
   10.6636    3.7494   22.4747 H   0  0  0  0  0  0  0  0  0  0  0  0
    8.8692    2.6370   22.9802 C   0  0  0  0  0  0  0  0  0  0  0  0
    8.4473    3.5367   24.0076 C   0  0  0  0  0  0  0  0  0  0  0  0
    9.0679    4.4087   24.2117 H   0  0  0  0  0  0  0  0  0  0  0  0
    7.2940    3.3028   24.7210 C   0  0  0  0  0  0  0  0  0  0  0  0
    6.9814    3.9901   25.5040 H   0  0  0  0  0  0  0  0  0  0  0  0
    6.4985    2.1558   24.4415 C   0  0  0  0  0  0  0  0  0  0  0  0
    5.5931    1.9719   25.0123 H   0  0  0  0  0  0  0  0  0  0  0  0
    6.8743    1.2675   23.4556 C   0  0  0  0  0  0  0  0  0  0  0  0
    6.2773    0.3826   23.2483 H   0  0  0  0  0  0  0  0  0  0  0  0
    8.0711    1.4748   22.7019 C   0  0  0  0  0  0  0  0  0  0  0  0
    5.4270    0.6363   20.1506 C   0  0  0  0  0  0  0  0  0  0  0  0
    4.9990    0.6298   21.1570 H   0  0  0  0  0  0  0  0  0  0  0  0
    4.8013    1.3126   19.0997 C   0  0  0  0  0  0  0  0  0  0  0  0
    3.8698    1.8481   19.2586 H   0  0  0  0  0  0  0  0  0  0  0  0
  1  2  1  0
  2  3  2  0
  3  4  1  0
  4  5  1  0
  4  6  2  0
  6  7  1  0
  7  8  1  0
  8  9  2  0
  9 10  1  0
  9 11  1  0
 11 12  1  0
 11 13  2  0
 13 14  1  0
 13 15  1  0
 15 16  2  0
 16 17  1  0
 16 18  1  0
 18 19  1  0
 18 20  2  0
 20 21  1  0
 20 22  1  0
 22 23  1  0
 22 24  2  0
  6 25  1  0
 25 26  1  0
 25 27  2  0
 27 28  1  0
 27  2  1  0
 24  8  1  0
 24 15  1  0
M  END
>  <plip>  (1) 
-0.07142857142857142

>  <filename>  (1) 
[H][c]1[n][c]([H])[c]([S][c]2[c]([H])[c]([H])[c]([H])[c]3[c]([H])[c]([H])[c]([H])[c]([H])[c]23)[c]([H])[c]1[H]

$$$$
