
     RDKit          3D

 31 33  0  0  0  0  0  0  0  0999 V2000
    5.0429    1.7867   17.0554 H   0  0  0  0  0  0  0  0  0  0  0  0
    5.5437    1.2407   17.8501 C   0  0  0  0  0  0  0  0  0  0  0  0
    6.7266    0.6873   17.5347 N   0  0  0  0  0  0  0  0  0  0  0  0
    7.3731    0.0281   18.5058 C   0  0  0  0  0  0  0  0  0  0  0  0
    8.3376   -0.3990   18.2368 H   0  0  0  0  0  0  0  0  0  0  0  0
    6.8736   -0.1534   19.8245 C   0  0  0  0  0  0  0  0  0  0  0  0
    7.6089   -0.8188   20.8248 N   0  0  0  0  0  0  0  0  0  0  0  0
    7.0942   -1.7279   21.8434 C   0  0  0  0  0  0  0  0  0  0  0  0
    5.9061   -2.0644   21.8407 O   0  0  0  0  0  0  0  0  0  0  0  0
    5.2448   -4.0534   23.0575 C   0  0  0  0  0  0  0  0  0  0  0  0
    5.3518   -2.8001   23.2103 H   0  0  0  0  0  0  0  0  0  0  0  0
    4.2489   -3.5794   22.3429 H   0  0  0  0  0  0  0  0  0  0  0  0
    5.1751   -4.3110   22.8889 C   0  0  0  0  0  0  0  0  0  0  0  0
    4.9028   -5.4277   21.8766 H   0  0  0  0  0  0  0  0  0  0  0  0
    4.7251   -4.5615   24.2808 C   0  0  0  0  0  0  0  0  0  0  0  0
    4.6010   -5.6532   24.3726 H   0  0  0  0  0  0  0  0  0  0  0  0
    4.3287   -3.8794   25.0609 H   0  0  0  0  0  0  0  0  0  0  0  0
    6.6271   -4.5896   23.4447 C   0  0  0  0  0  0  0  0  0  0  0  0
    7.4042   -3.8376   23.6103 H   0  0  0  0  0  0  0  0  0  0  0  0
    6.8667   -5.6314   23.2324 H   0  0  0  0  0  0  0  0  0  0  0  0
    8.0534   -2.0725   22.6657 N   0  0  0  0  0  0  0  0  0  0  0  0
    9.2394   -1.3158   22.3733 C   0  0  0  0  0  0  0  0  0  0  0  0
    9.4048   -0.5551   23.1481 H   0  0  0  0  0  0  0  0  0  0  0  0
   10.1240   -1.9587   22.3712 H   0  0  0  0  0  0  0  0  0  0  0  0
    9.0295   -0.6596   21.0006 C   0  0  0  0  0  0  0  0  0  0  0  0
    9.3247    0.3983   20.9875 H   0  0  0  0  0  0  0  0  0  0  0  0
    9.6001   -1.1644   20.2062 H   0  0  0  0  0  0  0  0  0  0  0  0
    5.6252    0.4174   20.1205 C   0  0  0  0  0  0  0  0  0  0  0  0
    5.2248    0.2951   21.1240 H   0  0  0  0  0  0  0  0  0  0  0  0
    4.9610    1.1351   19.1191 C   0  0  0  0  0  0  0  0  0  0  0  0
    4.0118    1.6230   19.3169 H   0  0  0  0  0  0  0  0  0  0  0  0
  1  2  1  0
  2  3  2  0
  3  4  1  0
  4  5  1  0
  4  6  2  0
  6  7  1  0
  7  8  1  0
  8  9  1  0
  9 10  1  0
 10 11  1  0
 10 12  1  0
 10 13  1  0
 13 14  1  0
 13 15  1  0
 15 16  1  0
 15 17  1  0
 15 18  1  0
 18 19  1  0
 18 20  1  0
  8 21  2  0
 21 22  1  0
 22 23  1  0
 22 24  1  0
 22 25  1  0
 25 26  1  0
 25 27  1  0
  6 28  1  0
 28 29  1  0
 28 30  2  0
 30 31  1  0
 30  2  1  0
 25  7  1  0
 18 13  1  0
M  END
>  <plip>  (1) 
-0.0

>  <filename>  (1) 
[H][c]1[n][c]([H])[c]([N]2[C]([O][C]([H])([H])[C]3([H])[C]([H])([H])[C]3([H])[H])=[N][C]([H])([H])[C]2([H])[H])[c]([H])[c]1[H]

$$$$
