
     RDKit          3D

 37 37  0  0  0  0  0  0  0  0999 V2000
    4.9043    1.8511   16.9920 H   0  0  0  0  0  0  0  0  0  0  0  0
    5.3779    1.3001   17.8006 C   0  0  0  0  0  0  0  0  0  0  0  0
    6.5238    0.6675   17.5039 N   0  0  0  0  0  0  0  0  0  0  0  0
    7.1504    0.0168   18.4997 C   0  0  0  0  0  0  0  0  0  0  0  0
    8.0911   -0.4647   18.2334 H   0  0  0  0  0  0  0  0  0  0  0  0
    6.6685   -0.0496   19.8386 C   0  0  0  0  0  0  0  0  0  0  0  0
    7.3186   -0.6820   20.9084 N   0  0  0  0  0  0  0  0  0  0  0  0
    6.7443   -0.8766   21.7138 H   0  0  0  0  0  0  0  0  0  0  0  0
    8.6857   -0.4672   21.3634 C   0  0  0  0  0  0  0  0  0  0  0  0
    8.6043   -0.6185   22.7672 O   0  0  0  0  0  0  0  0  0  0  0  0
    8.0207    0.4498   23.5124 C   0  0  0  0  0  0  0  0  0  0  0  0
    7.1061    0.8358   23.0315 H   0  0  0  0  0  0  0  0  0  0  0  0
    8.7176    1.2978   23.5970 H   0  0  0  0  0  0  0  0  0  0  0  0
    7.6853   -0.0854   24.9015 C   0  0  0  0  0  0  0  0  0  0  0  0
    8.6374   -0.3660   25.3652 H   0  0  0  0  0  0  0  0  0  0  0  0
    7.0981   -1.0197   24.8061 H   0  0  0  0  0  0  0  0  0  0  0  0
    7.0244    0.9270   25.7315 N   0  0  0  0  0  0  0  0  0  0  0  0
    7.2501    0.7355   27.1564 C   0  0  0  0  0  0  0  0  0  0  0  0
    6.8042    1.5631   27.7192 H   0  0  0  0  0  0  0  0  0  0  0  0
    6.8407   -0.2109   27.5619 H   0  0  0  0  0  0  0  0  0  0  0  0
    8.3246    0.7559   27.3679 H   0  0  0  0  0  0  0  0  0  0  0  0
    5.6116    1.0849   25.4181 C   0  0  0  0  0  0  0  0  0  0  0  0
    5.4843    1.3179   24.3579 H   0  0  0  0  0  0  0  0  0  0  0  0
    5.1950    1.9301   25.9762 H   0  0  0  0  0  0  0  0  0  0  0  0
    4.9952    0.1913   25.6387 H   0  0  0  0  0  0  0  0  0  0  0  0
    9.5352   -1.6253   20.8656 C   0  0  0  0  0  0  0  0  0  0  0  0
    9.1490   -2.5566   21.2804 H   0  0  0  0  0  0  0  0  0  0  0  0
   10.5891   -1.5091   21.1394 H   0  0  0  0  0  0  0  0  0  0  0  0
    9.4494   -1.6738   19.7800 H   0  0  0  0  0  0  0  0  0  0  0  0
    9.2918    0.8783   20.9434 C   0  0  0  0  0  0  0  0  0  0  0  0
    8.6069    1.7071   21.1450 H   0  0  0  0  0  0  0  0  0  0  0  0
   10.2290    1.0584   21.4774 H   0  0  0  0  0  0  0  0  0  0  0  0
    9.5063    0.8570   19.8762 H   0  0  0  0  0  0  0  0  0  0  0  0
    5.4472    0.5894   20.1039 C   0  0  0  0  0  0  0  0  0  0  0  0
    5.0611    0.5715   21.1244 H   0  0  0  0  0  0  0  0  0  0  0  0
    4.8045    1.2793   19.0757 C   0  0  0  0  0  0  0  0  0  0  0  0
    3.8769    1.8137   19.2530 H   0  0  0  0  0  0  0  0  0  0  0  0
  1  2  1  0
  2  3  2  0
  3  4  1  0
  4  5  1  0
  4  6  2  0
  6  7  1  0
  7  8  1  0
  7  9  1  0
  9 10  1  0
 10 11  1  0
 11 12  1  0
 11 13  1  0
 11 14  1  0
 14 15  1  0
 14 16  1  0
 14 17  1  0
 17 18  1  0
 18 19  1  0
 18 20  1  0
 18 21  1  0
 17 22  1  0
 22 23  1  0
 22 24  1  0
 22 25  1  0
  9 26  1  0
 26 27  1  0
 26 28  1  0
 26 29  1  0
  9 30  1  0
 30 31  1  0
 30 32  1  0
 30 33  1  0
  6 34  1  0
 34 35  1  0
 34 36  2  0
 36 37  1  0
 36  2  1  0
M  END
>  <plip>  (1) 
-0.07142857142857142

>  <filename>  (1) 
[H][c]1[n][c]([H])[c]([N]([H])[C]([O][C]([H])([H])[C]([H])([H])[N]([C]([H])([H])[H])[C]([H])([H])[H])([C]([H])([H])[H])[C]([H])([H])[H])[c]([H])[c]1[H]

$$$$
