
     RDKit          3D

 43 45  0  0  0  0  0  0  0  0999 V2000
   12.4969    0.9792   23.6174 C   0  0  0  0  0  0  0  0  0  0  0  0
   11.4740    1.1837   24.2233 C   0  0  0  0  0  0  0  0  0  0  0  0
   10.2341    1.3925   24.9843 C   0  0  0  0  0  0  0  0  0  0  0  0
    9.8840    0.2383   25.9571 C   0  0  0  0  0  0  0  0  0  0  0  0
    9.6377   -1.1092   25.2435 C   0  0  0  0  0  0  0  0  0  0  0  0
    8.3850   -1.1287   24.4045 C   0  0  0  0  0  0  0  0  0  0  0  0
    7.3453   -1.6221   24.8014 O   0  0  0  0  0  0  0  0  0  0  0  0
    8.4945   -0.5481   23.1718 N   0  0  0  0  0  0  0  0  0  0  0  0
    7.3540   -0.3653   22.3271 C   0  0  2  0  0  0  0  0  0  0  0  0
    6.6958   -1.6208   21.8404 C   0  0  0  0  0  0  0  0  0  0  0  0
    7.4759   -0.7702   20.8769 C   0  0  1  0  0  0  0  0  0  0  0  0
    6.7517   -0.0065   19.8207 C   0  0  0  0  0  0  0  0  0  0  0  0
    5.5271    0.6336   20.0783 C   0  0  0  0  0  0  0  0  0  0  0  0
    4.8835    1.3083   19.0426 C   0  0  0  0  0  0  0  0  0  0  0  0
    5.4720    1.3126   17.7735 C   0  0  0  0  0  0  0  0  0  0  0  0
    6.6308    0.6908   17.4945 N   0  0  0  0  0  0  0  0  0  0  0  0
    7.2417    0.0593   18.5044 C   0  0  0  0  0  0  0  0  0  0  0  0
    8.1806   -0.4370   18.2543 H   0  0  0  0  0  0  0  0  0  0  0  0
    4.9911    1.8273   16.9446 H   0  0  0  0  0  0  0  0  0  0  0  0
    3.9482    1.8330   19.2097 H   0  0  0  0  0  0  0  0  0  0  0  0
    5.0800    0.5894   21.0730 H   0  0  0  0  0  0  0  0  0  0  0  0
    8.4453   -1.1677   20.5746 H   0  0  0  0  0  0  0  0  0  0  0  0
    5.6161   -1.6661   21.7532 H   0  0  0  0  0  0  0  0  0  0  0  0
    7.1584   -2.5440   22.1632 H   0  0  0  0  0  0  0  0  0  0  0  0
    6.7247    0.5016   22.5495 H   0  0  0  0  0  0  0  0  0  0  0  0
    9.3701   -0.1186   22.9206 H   0  0  0  0  0  0  0  0  0  0  0  0
    9.5053   -1.8874   25.9955 H   0  0  0  0  0  0  0  0  0  0  0  0
   10.5050   -1.3725   24.6319 H   0  0  0  0  0  0  0  0  0  0  0  0
    8.7290    0.6159   26.8942 C   0  0  0  0  0  0  0  0  0  0  0  0
    7.7544    1.5841   26.5888 C   0  0  0  0  0  0  0  0  0  0  0  0
    6.8876    2.0797   27.5723 C   0  0  0  0  0  0  0  0  0  0  0  0
    6.9695    1.5971   28.8813 C   0  0  0  0  0  0  0  0  0  0  0  0
    7.8938    0.5992   29.1893 C   0  0  0  0  0  0  0  0  0  0  0  0
    8.7261    0.0818   28.1925 C   0  0  0  0  0  0  0  0  0  0  0  0
    9.4466   -0.7021   28.4153 H   0  0  0  0  0  0  0  0  0  0  0  0
    7.9610    0.2207   30.2089 H   0  0  0  0  0  0  0  0  0  0  0  0
    6.3196    1.9704   29.6683 H   0  0  0  0  0  0  0  0  0  0  0  0
    6.1717    2.8578   27.3198 H   0  0  0  0  0  0  0  0  0  0  0  0
    7.6632    1.9671   25.5775 H   0  0  0  0  0  0  0  0  0  0  0  0
   10.7753    0.0812   26.5885 H   0  0  0  0  0  0  0  0  0  0  0  0
   10.3176    2.3195   25.5601 H   0  0  0  0  0  0  0  0  0  0  0  0
    9.3992    1.5497   24.2926 H   0  0  0  0  0  0  0  0  0  0  0  0
   13.3942    0.8451   23.0523 H   0  0  0  0  0  0  0  0  0  0  0  0
  1  2  3  0
  2  3  1  0
  3  4  1  0
  4  5  1  0
  5  6  1  0
  6  7  2  0
  6  8  1  0
  8  9  1  0
  9 10  1  0
 10 11  1  0
 11 12  1  0
 12 13  2  0
 13 14  1  0
 14 15  2  0
 15 16  1  0
 16 17  2  0
 17 18  1  0
 15 19  1  0
 14 20  1  0
 13 21  1  0
 11 22  1  6
 10 23  1  0
 10 24  1  0
  9 25  1  6
  8 26  1  0
  5 27  1  0
  5 28  1  0
  4 29  1  0
 29 30  2  0
 30 31  1  0
 31 32  2  0
 32 33  1  0
 33 34  2  0
 34 35  1  0
 33 36  1  0
 32 37  1  0
 31 38  1  0
 30 39  1  0
  4 40  1  0
  3 41  1  0
  3 42  1  0
  1 43  1  0
 11  9  1  0
 17 12  1  0
 34 29  1  0
M  END
>  <plip>  (1) 
-0.06666666666666667

>  <filename>  (1) 
[H][C]#[C][C]([H])([H])[C]([H])([c]1[c]([H])[c]([H])[c]([H])[c]([H])[c]1[H])[C]([H])([H])[C](=[O])[N]([H])[C@]1([H])[C]([H])([H])[C@@]1([H])[c]1[c]([H])[n][c]([H])[c]([H])[c]1[H]

$$$$
