
     RDKit          3D

 39 42  0  0  0  0  0  0  0  0999 V2000
    5.0066    1.7855   16.9493 H   0  0  0  0  0  0  0  0  0  0  0  0
    5.4615    1.2924   17.8018 C   0  0  0  0  0  0  0  0  0  0  0  0
    6.6201    0.6622   17.5595 N   0  0  0  0  0  0  0  0  0  0  0  0
    7.1985    0.0335   18.5832 C   0  0  0  0  0  0  0  0  0  0  0  0
    8.1402   -0.4825   18.3972 H   0  0  0  0  0  0  0  0  0  0  0  0
    6.6483    0.0040   19.8772 C   0  0  0  0  0  0  0  0  0  0  0  0
    7.3762   -0.7253   20.9189 C   0  0  0  0  0  0  0  0  0  0  0  0
    8.5196   -1.3188   20.7185 N   0  0  0  0  0  0  0  0  0  0  0  0
    9.0035   -1.9237   21.8393 N   0  0  0  0  0  0  0  0  0  0  0  0
    8.2181   -1.7944   22.8661 C   0  0  0  0  0  0  0  0  0  0  0  0
    8.4372   -2.4288   24.2161 C   0  0  0  0  0  0  0  0  0  0  0  0
    7.5910   -3.5327   24.5908 N   0  0  0  0  0  0  0  0  0  0  0  0
    6.6446   -3.2792   24.8945 H   0  0  0  0  0  0  0  0  0  0  0  0
    7.5483   -4.6995   23.8445 C   0  0  0  0  0  0  0  0  0  0  0  0
    8.6718   -5.1726   23.1601 C   0  0  0  0  0  0  0  0  0  0  0  0
    9.5881   -4.5961   23.2193 H   0  0  0  0  0  0  0  0  0  0  0  0
    8.6089   -6.3658   22.4425 C   0  0  0  0  0  0  0  0  0  0  0  0
    9.5000   -6.7357   21.9466 H   0  0  0  0  0  0  0  0  0  0  0  0
    7.4013   -7.0616   22.3329 C   0  0  0  0  0  0  0  0  0  0  0  0
    7.3417   -7.9711   21.7418 H   0  0  0  0  0  0  0  0  0  0  0  0
    6.2743   -6.5927   23.0043 C   0  0  0  0  0  0  0  0  0  0  0  0
    5.3363   -7.1396   22.9102 H   0  0  0  0  0  0  0  0  0  0  0  0
    6.3497   -5.4505   23.8267 C   0  0  0  0  0  0  0  0  0  0  0  0
    5.2271   -5.0192   24.6958 C   0  0  0  0  0  0  0  0  0  0  0  0
    4.9970   -3.8700   25.0562 O   0  0  0  0  0  0  0  0  0  0  0  0
    4.3724   -5.9926   25.1360 N   0  0  0  0  0  0  0  0  0  0  0  0
    4.8235   -6.8652   25.3568 H   0  0  0  0  0  0  0  0  0  0  0  0
    3.8121   -5.5754   25.8656 H   0  0  0  0  0  0  0  0  0  0  0  0
    9.8305   -2.4314   24.7842 C   0  0  0  0  0  0  0  0  0  0  0  0
   10.0971   -3.3274   25.3396 H   0  0  0  0  0  0  0  0  0  0  0  0
   10.6070   -1.9757   24.1750 H   0  0  0  0  0  0  0  0  0  0  0  0
    8.7879   -1.5394   25.3860 C   0  0  0  0  0  0  0  0  0  0  0  0
    8.8543   -0.4647   25.2346 H   0  0  0  0  0  0  0  0  0  0  0  0
    8.3730   -1.8543   26.3414 H   0  0  0  0  0  0  0  0  0  0  0  0
    6.7928   -0.8727   22.5403 S   0  0  0  0  0  0  0  0  0  0  0  0
    5.4361    0.6667   20.1219 C   0  0  0  0  0  0  0  0  0  0  0  0
    4.9829    0.6742   21.1164 H   0  0  0  0  0  0  0  0  0  0  0  0
    4.8331    1.3233   19.0525 C   0  0  0  0  0  0  0  0  0  0  0  0
    3.8988    1.8573   19.1796 H   0  0  0  0  0  0  0  0  0  0  0  0
  1  2  1  0
  2  3  2  0
  3  4  1  0
  4  5  1  0
  4  6  2  0
  6  7  1  0
  7  8  2  0
  8  9  1  0
  9 10  2  0
 10 11  1  0
 11 12  1  0
 12 13  1  0
 12 14  1  0
 14 15  2  0
 15 16  1  0
 15 17  1  0
 17 18  1  0
 17 19  2  0
 19 20  1  0
 19 21  1  0
 21 22  1  0
 21 23  2  0
 23 24  1  0
 24 25  2  0
 24 26  1  0
 26 27  1  0
 26 28  1  0
 11 29  1  0
 29 30  1  0
 29 31  1  0
 29 32  1  0
 32 33  1  0
 32 34  1  0
 10 35  1  0
  6 36  1  0
 36 37  1  0
 36 38  2  0
 38 39  1  0
 38  2  1  0
 35  7  1  0
 32 11  1  0
 23 14  1  0
M  END
>  <plip>  (1) 
-0.06896551724137931

>  <filename>  (1) 
[H][c]1[n][c]([H])[c](-[c]2[n][n][c]([C]3([N]([H])[c]4[c]([H])[c]([H])[c]([H])[c]([H])[c]4[C](=[O])[N]([H])[H])[C]([H])([H])[C]3([H])[H])[s]2)[c]([H])[c]1[H]

$$$$
