
     RDKit          3D

 34 36  0  0  0  0  0  0  0  0999 V2000
    6.7175   -0.8953   22.1883 O   0  0  0  0  0  0  0  0  0  0  0  0
    7.4225   -0.7582   20.9672 C   0  0  0  0  0  0  0  0  0  0  0  0
    6.6216   -0.0098   19.9084 C   0  0  0  0  0  0  0  0  0  0  0  0
    5.4127    0.6529   20.1455 C   0  0  0  0  0  0  0  0  0  0  0  0
    4.7862    1.3172   19.0873 C   0  0  0  0  0  0  0  0  0  0  0  0
    5.3893    1.2982   17.8251 C   0  0  0  0  0  0  0  0  0  0  0  0
    6.5525    0.6751   17.5843 N   0  0  0  0  0  0  0  0  0  0  0  0
    7.1446    0.0513   18.6089 C   0  0  0  0  0  0  0  0  0  0  0  0
    8.1011   -0.4230   18.3847 H   0  0  0  0  0  0  0  0  0  0  0  0
    4.9319    1.8006   16.9722 H   0  0  0  0  0  0  0  0  0  0  0  0
    3.8596    1.8573   19.2303 H   0  0  0  0  0  0  0  0  0  0  0  0
    4.9976    0.6710   21.1527 H   0  0  0  0  0  0  0  0  0  0  0  0
    8.7887   -0.1322   21.2201 C   0  0  0  0  0  0  0  0  0  0  0  0
    9.9218   -0.7551   20.9795 N   0  0  0  0  0  0  0  0  0  0  0  0
   10.9177    0.1141   21.3334 C   0  0  0  0  0  0  0  0  0  0  0  0
   10.3741    1.2886   21.7724 C   0  0  0  0  0  0  0  0  0  0  0  0
    9.0057    1.1351   21.6895 N   0  0  0  0  0  0  0  0  0  0  0  0
    8.0194    2.1182   22.1412 C   0  0  0  0  0  0  0  0  0  0  0  0
    7.3971    1.8102   23.4877 C   0  0  0  0  0  0  0  0  0  0  0  0
    8.2071    1.5772   24.6069 C   0  0  0  0  0  0  0  0  0  0  0  0
    7.6240    1.2674   25.8359 C   0  0  0  0  0  0  0  0  0  0  0  0
    6.2296    1.2084   25.8857 C   0  0  0  0  0  0  0  0  0  0  0  0
    5.4172    0.8237   27.3705 Cl  0  0  0  0  0  0  0  0  0  0  0  0
    5.4890    1.4834   24.7293 C   0  0  0  0  0  0  0  0  0  0  0  0
    6.0567    1.8102   23.5599 N   0  0  0  0  0  0  0  0  0  0  0  0
    4.4022    1.4258   24.7542 H   0  0  0  0  0  0  0  0  0  0  0  0
    8.2224    1.0725   26.7259 H   0  0  0  0  0  0  0  0  0  0  0  0
    9.2808    1.6364   24.4775 H   0  0  0  0  0  0  0  0  0  0  0  0
    7.2177    2.2157   21.4079 H   0  0  0  0  0  0  0  0  0  0  0  0
    8.5422    3.0783   22.2048 H   0  0  0  0  0  0  0  0  0  0  0  0
   10.8187    2.1983   22.1432 H   0  0  0  0  0  0  0  0  0  0  0  0
   11.9552   -0.1820   21.2490 H   0  0  0  0  0  0  0  0  0  0  0  0
    7.7005   -1.7456   20.5733 H   0  0  0  0  0  0  0  0  0  0  0  0
    5.9376   -1.4566   22.0593 H   0  0  0  0  0  0  0  0  0  0  0  0
  1  2  1  0
  2  3  1  0
  3  4  2  0
  4  5  1  0
  5  6  2  0
  6  7  1  0
  7  8  2  0
  8  9  1  0
  6 10  1  0
  5 11  1  0
  4 12  1  0
  2 13  1  0
 13 14  2  0
 14 15  1  0
 15 16  2  0
 16 17  1  0
 17 18  1  0
 18 19  1  0
 19 20  2  0
 20 21  1  0
 21 22  2  0
 22 23  1  0
 22 24  1  0
 24 25  2  0
 24 26  1  0
 21 27  1  0
 20 28  1  0
 18 29  1  0
 18 30  1  0
 16 31  1  0
 15 32  1  0
  2 33  1  0
  1 34  1  0
  8  3  1  0
 17 13  1  0
 25 19  1  0
M  END
>  <plip>  (1) 
-0.10714285714285714

>  <filename>  (1) 
[H][O][C]([H])([c]1[c]([H])[n][c]([H])[c]([H])[c]1[H])[c]1[n][c]([H])[c]([H])[n]1[C]([H])([H])[c]1[n][c]([H])[c]([Cl])[c]([H])[c]1[H]

$$$$
