
     RDKit          3D

 39 41  0  0  0  0  0  0  0  0999 V2000
    6.2582   -2.8060   20.2320 O   0  0  0  0  0  0  0  0  0  0  0  0
    6.7140   -2.1824   21.1768 C   0  0  0  0  0  0  0  0  0  0  0  0
    7.3430   -0.7915   20.9941 C   0  0  0  0  0  0  0  0  0  0  0  0
    6.6850    0.0301   19.8875 C   0  0  0  0  0  0  0  0  0  0  0  0
    5.4616    0.6757   20.1318 C   0  0  0  0  0  0  0  0  0  0  0  0
    4.8106    1.3327   19.0823 C   0  0  0  0  0  0  0  0  0  0  0  0
    5.4120    1.3227   17.8213 C   0  0  0  0  0  0  0  0  0  0  0  0
    6.5742    0.7104   17.5544 N   0  0  0  0  0  0  0  0  0  0  0  0
    7.1847    0.0879   18.5736 C   0  0  0  0  0  0  0  0  0  0  0  0
    8.1285   -0.3998   18.3273 H   0  0  0  0  0  0  0  0  0  0  0  0
    4.9293    1.8140   16.9784 H   0  0  0  0  0  0  0  0  0  0  0  0
    3.8627    1.8454   19.2216 H   0  0  0  0  0  0  0  0  0  0  0  0
    5.0258    0.6577   21.1326 H   0  0  0  0  0  0  0  0  0  0  0  0
    7.2691   -0.2686   21.9567 H   0  0  0  0  0  0  0  0  0  0  0  0
    8.4116   -0.9608   20.7964 H   0  0  0  0  0  0  0  0  0  0  0  0
    6.6645   -2.6902   22.4583 N   0  0  0  0  0  0  0  0  0  0  0  0
    5.7302   -3.8107   22.6654 C   0  0  0  0  0  0  0  0  0  0  0  0
    5.4736   -4.0574   24.1388 C   0  0  0  0  0  0  0  0  0  0  0  0
    6.7477   -4.2804   24.8592 N   0  0  0  0  0  0  0  0  0  0  0  0
    6.8191   -5.0001   25.9888 C   0  0  0  0  0  0  0  0  0  0  0  0
    8.0023   -5.3229   26.5640 N   0  0  0  0  0  4  0  0  0  0  0  0
    7.9609   -6.1769   27.7566 C   0  0  0  0  0  0  0  0  0  0  0  0
    6.5242   -6.0636   28.3191 C   0  0  0  0  0  0  0  0  0  0  0  0
    5.4592   -5.5315   26.9125 S   0  0  0  0  0  0  0  0  0  0  0  0
    6.4469   -5.2998   29.0951 H   0  0  0  0  0  0  0  0  0  0  0  0
    6.1208   -7.0077   28.6895 H   0  0  0  0  0  0  0  0  0  0  0  0
    8.6987   -5.8178   28.4815 H   0  0  0  0  0  0  0  0  0  0  0  0
    8.2112   -7.2129   27.5114 H   0  0  0  0  0  0  0  0  0  0  0  0
    8.7697   -5.4136   25.9005 H   0  0  0  0  0  0  0  0  0  0  0  0
    7.9119   -3.4558   24.4503 C   0  0  0  0  0  0  0  0  0  0  0  0
    7.5019   -2.2611   23.5905 C   0  0  0  0  0  0  0  0  0  0  0  0
    6.9887   -1.5220   24.2211 H   0  0  0  0  0  0  0  0  0  0  0  0
    8.4191   -1.7852   23.2322 H   0  0  0  0  0  0  0  0  0  0  0  0
    8.4234   -3.0887   25.3482 H   0  0  0  0  0  0  0  0  0  0  0  0
    8.6327   -4.0586   23.8844 H   0  0  0  0  0  0  0  0  0  0  0  0
    4.9564   -3.1846   24.5571 H   0  0  0  0  0  0  0  0  0  0  0  0
    4.8067   -4.9197   24.2489 H   0  0  0  0  0  0  0  0  0  0  0  0
    6.1101   -4.7167   22.1787 H   0  0  0  0  0  0  0  0  0  0  0  0
    4.7833   -3.5655   22.1728 H   0  0  0  0  0  0  0  0  0  0  0  0
  1  2  2  0
  2  3  1  0
  3  4  1  0
  4  5  2  0
  5  6  1  0
  6  7  2  0
  7  8  1  0
  8  9  2  0
  9 10  1  0
  7 11  1  0
  6 12  1  0
  5 13  1  0
  3 14  1  0
  3 15  1  0
  2 16  1  0
 16 17  1  0
 17 18  1  0
 18 19  1  0
 19 20  1  0
 20 21  2  0
 21 22  1  0
 22 23  1  0
 23 24  1  0
 23 25  1  0
 23 26  1  0
 22 27  1  0
 22 28  1  0
 21 29  1  0
 19 30  1  0
 30 31  1  0
 31 32  1  0
 31 33  1  0
 30 34  1  0
 30 35  1  0
 18 36  1  0
 18 37  1  0
 17 38  1  0
 17 39  1  0
  9  4  1  0
 31 16  1  0
 24 20  1  0
M  CHG  1  21   1
M  END
>  <plip>  (1) 
-0.07142857142857142

>  <filename>  (1) 
[H][c]1[n][c]([H])[c]([C]([H])([H])[C](=[O])[N]2[C]([H])([H])[C]([H])([H])[N]([C]3=[N+]([H])[C]([H])([H])[C]([H])([H])[S]3)[C]([H])([H])[C]2([H])[H])[c]([H])[c]1[H]

$$$$
