
     RDKit          3D

 35 37  0  0  0  0  0  0  0  0999 V2000
    4.9314    1.7687   16.8220 H   0  0  0  0  0  0  0  0  0  0  0  0
    5.4224    1.3246   17.6846 C   0  0  0  0  0  0  0  0  0  0  0  0
    6.5997    0.7225   17.4527 N   0  0  0  0  0  0  0  0  0  0  0  0
    7.2245    0.1852   18.5024 C   0  0  0  0  0  0  0  0  0  0  0  0
    8.1748   -0.3124   18.3024 H   0  0  0  0  0  0  0  0  0  0  0  0
    6.7226    0.2177   19.8058 C   0  0  0  0  0  0  0  0  0  0  0  0
    7.4392   -0.4381   20.8710 C   0  0  0  0  0  0  0  0  0  0  0  0
    6.8516   -0.7020   21.9868 N   0  0  0  0  0  0  0  0  0  0  0  0
    7.6233   -1.5648   22.6790 N   0  0  0  0  0  0  0  0  0  0  0  0
    7.2698   -1.5881   24.0012 N   0  0  0  0  0  0  0  0  0  0  0  0
    7.1753   -0.6292   24.3015 H   0  0  0  0  0  0  0  0  0  0  0  0
    7.9291   -2.4478   24.8779 C   0  0  0  0  0  0  0  0  0  0  0  0
    8.6014   -1.8757   25.9584 C   0  0  0  0  0  0  0  0  0  0  0  0
    8.5637   -0.7957   26.0868 H   0  0  0  0  0  0  0  0  0  0  0  0
    9.3020   -2.6954   26.8362 C   0  0  0  0  0  0  0  0  0  0  0  0
    9.8964   -2.2070   27.6056 H   0  0  0  0  0  0  0  0  0  0  0  0
    9.2898   -4.0916   26.6869 C   0  0  0  0  0  0  0  0  0  0  0  0
    9.9296   -4.9900   27.7118 C   0  0  0  0  0  0  0  0  0  0  0  0
    9.1708   -5.6221   28.1889 H   0  0  0  0  0  0  0  0  0  0  0  0
   10.6761   -5.6609   27.2739 H   0  0  0  0  0  0  0  0  0  0  0  0
   10.4125   -4.4088   28.4981 H   0  0  0  0  0  0  0  0  0  0  0  0
    8.6164   -4.6472   25.5806 C   0  0  0  0  0  0  0  0  0  0  0  0
    8.6212   -5.7289   25.4440 H   0  0  0  0  0  0  0  0  0  0  0  0
    7.9558   -3.8295   24.6587 C   0  0  0  0  0  0  0  0  0  0  0  0
    7.4426   -4.2273   23.7843 H   0  0  0  0  0  0  0  0  0  0  0  0
    9.0161   -1.5614   22.2224 C   0  0  0  0  0  0  0  0  0  0  0  0
    9.6374   -0.9360   22.8871 H   0  0  0  0  0  0  0  0  0  0  0  0
    9.4197   -2.5812   22.2401 H   0  0  0  0  0  0  0  0  0  0  0  0
    8.8568   -0.9551   20.8173 C   0  0  0  0  0  0  0  0  0  0  0  0
    9.5731   -0.1543   20.6079 H   0  0  0  0  0  0  0  0  0  0  0  0
    8.9596   -1.7122   20.0328 H   0  0  0  0  0  0  0  0  0  0  0  0
    5.4770    0.8280   20.0367 C   0  0  0  0  0  0  0  0  0  0  0  0
    5.0567    0.8364   21.0459 H   0  0  0  0  0  0  0  0  0  0  0  0
    4.8210    1.3909   18.9487 C   0  0  0  0  0  0  0  0  0  0  0  0
    3.8618    1.8804   19.0707 H   0  0  0  0  0  0  0  0  0  0  0  0
  1  2  1  0
  2  3  2  0
  3  4  1  0
  4  5  1  0
  4  6  2  0
  6  7  1  0
  7  8  2  0
  8  9  1  0
  9 10  1  0
 10 11  1  0
 10 12  1  0
 12 13  2  0
 13 14  1  0
 13 15  1  0
 15 16  1  0
 15 17  2  0
 17 18  1  0
 18 19  1  0
 18 20  1  0
 18 21  1  0
 17 22  1  0
 22 23  1  0
 22 24  2  0
 24 25  1  0
  9 26  1  0
 26 27  1  0
 26 28  1  0
 26 29  1  0
 29 30  1  0
 29 31  1  0
  6 32  1  0
 32 33  1  0
 32 34  2  0
 34 35  1  0
 34  2  1  0
 29  7  1  0
 24 12  1  0
M  END
>  <plip>  (1) 
-0.06896551724137931

>  <filename>  (1) 
[H][c]1[n][c]([H])[c]([C]2=[N][N]([N]([H])[c]3[c]([H])[c]([H])[c]([C]([H])([H])[H])[c]([H])[c]3[H])[C]([H])([H])[C]2([H])[H])[c]([H])[c]1[H]

$$$$
