
     RDKit          3D

 36 38  0  0  0  0  0  0  0  0999 V2000
    8.3132    5.4945   23.1634 N   0  0  0  0  0  0  0  0  0  0  0  0
    9.3701    5.0563   23.8844 C   0  0  0  0  0  0  0  0  0  0  0  0
    9.7022    5.6388   24.8989 O   0  0  0  0  0  0  0  0  0  0  0  0
   10.1112    3.8629   23.3534 C   0  0  0  0  0  0  0  0  0  0  0  0
   11.5012    3.7558   23.5402 C   0  0  0  0  0  0  0  0  0  0  0  0
   12.2045    2.6606   23.0369 C   0  0  0  0  0  0  0  0  0  0  0  0
   11.5353    1.6371   22.3616 C   0  0  0  0  0  0  0  0  0  0  0  0
   10.1396    1.6873   22.1972 C   0  0  0  0  0  0  0  0  0  0  0  0
    9.4256    0.5716   21.4906 C   0  0  0  0  0  0  0  0  0  0  0  0
    9.9486   -0.0605   20.5912 O   0  0  0  0  0  0  0  0  0  0  0  0
    8.1883    0.2625   21.9809 N   0  0  0  0  0  0  0  0  0  0  0  0
    7.2800   -0.5423   21.2186 C   0  0  0  0  0  0  0  0  0  0  0  0
    6.6025    0.1423   20.0840 C   0  0  0  0  0  0  0  0  0  0  0  0
    5.3623    0.7746   20.2182 C   0  0  0  0  0  0  0  0  0  0  0  0
    4.7879    1.3491   19.0845 C   0  0  0  0  0  0  0  0  0  0  0  0
    5.4736    1.2795   17.8651 C   0  0  0  0  0  0  0  0  0  0  0  0
    6.6667    0.6826   17.7183 N   0  0  0  0  0  0  0  0  0  0  0  0
    7.2083    0.1374   18.8168 C   0  0  0  0  0  0  0  0  0  0  0  0
    8.1632   -0.3726   18.6940 H   0  0  0  0  0  0  0  0  0  0  0  0
    5.0472    1.7226   16.9658 H   0  0  0  0  0  0  0  0  0  0  0  0
    3.8304    1.8554   19.1349 H   0  0  0  0  0  0  0  0  0  0  0  0
    4.8602    0.7902   21.1877 H   0  0  0  0  0  0  0  0  0  0  0  0
    6.5967   -1.6102   22.0207 C   0  0  0  0  0  0  0  0  0  0  0  0
    7.6393   -1.9770   21.0167 C   0  0  0  0  0  0  0  0  0  0  0  0
    7.2542   -2.4180   20.1064 H   0  0  0  0  0  0  0  0  0  0  0  0
    8.6317   -2.2684   21.3309 H   0  0  0  0  0  0  0  0  0  0  0  0
    5.5666   -1.8375   21.7807 H   0  0  0  0  0  0  0  0  0  0  0  0
    6.8585   -1.6578   23.0699 H   0  0  0  0  0  0  0  0  0  0  0  0
    7.7420    1.0241   22.4653 H   0  0  0  0  0  0  0  0  0  0  0  0
    9.4774    2.8203   22.6802 C   0  0  0  0  0  0  0  0  0  0  0  0
    8.1339    2.9189   22.4616 F   0  0  0  0  0  0  0  0  0  0  0  0
   12.0881    0.7947   21.9449 H   0  0  0  0  0  0  0  0  0  0  0  0
   13.2814    2.6044   23.1620 H   0  0  0  0  0  0  0  0  0  0  0  0
   12.0246    4.5413   24.0827 H   0  0  0  0  0  0  0  0  0  0  0  0
    8.1116    5.1216   22.2538 H   0  0  0  0  0  0  0  0  0  0  0  0
    7.9952    6.4046   23.4367 H   0  0  0  0  0  0  0  0  0  0  0  0
  1  2  1  0
  2  3  2  0
  2  4  1  0
  4  5  2  0
  5  6  1  0
  6  7  2  0
  7  8  1  0
  8  9  1  0
  9 10  2  0
  9 11  1  0
 11 12  1  0
 12 13  1  0
 13 14  2  0
 14 15  1  0
 15 16  2  0
 16 17  1  0
 17 18  2  0
 18 19  1  0
 16 20  1  0
 15 21  1  0
 14 22  1  0
 12 23  1  0
 23 24  1  0
 24 25  1  0
 24 26  1  0
 23 27  1  0
 23 28  1  0
 11 29  1  0
  8 30  2  0
 30 31  1  0
  7 32  1  0
  6 33  1  0
  5 34  1  0
  1 35  1  0
  1 36  1  0
 30  4  1  0
 24 12  1  0
 18 13  1  0
M  END
>  <plip>  (1) 
-0.14285714285714285

>  <filename>  (1) 
[H][c]1[n][c]([H])[c]([C]2([N]([H])[C](=[O])[c]3[c]([H])[c]([H])[c]([H])[c]([C](=[O])[N]([H])[H])[c]3[F])[C]([H])([H])[C]2([H])[H])[c]([H])[c]1[H]

$$$$
