
     RDKit          3D

 28 30  0  0  0  0  0  0  0  0999 V2000
    4.2973   -0.5196   28.7255 H   0  0  0  0  0  0  0  0  0  0  0  0
    4.4647    0.1494   28.0572 O   0  0  0  0  0  0  0  0  0  0  0  0
    5.2992   -0.3924   27.1318 C   0  0  0  0  0  0  0  0  0  0  0  0
    5.6802    0.4430   26.0853 C   0  0  0  0  0  0  0  0  0  0  0  0
    5.2840    1.4481   26.0833 H   0  0  0  0  0  0  0  0  0  0  0  0
    6.5149   -0.0164   25.0702 C   0  0  0  0  0  0  0  0  0  0  0  0
    6.7995    0.6413   24.2618 H   0  0  0  0  0  0  0  0  0  0  0  0
    6.9634   -1.3384   25.0824 C   0  0  0  0  0  0  0  0  0  0  0  0
    7.8219   -1.8513   24.0975 O   0  0  0  0  0  0  0  0  0  0  0  0
    7.8080   -1.4550   22.8139 C   0  0  0  0  0  0  0  0  0  0  0  0
    8.8162   -1.8188   21.9859 N   0  0  0  0  0  0  0  0  0  0  0  0
    8.5118   -1.3174   20.8191 N   0  0  0  0  0  0  0  0  0  0  0  0
    7.3587   -0.6895   20.9647 N   0  0  0  0  0  0  0  0  0  0  0  0
    6.6650   -0.0009   19.9213 C   0  0  0  0  0  0  0  0  0  0  0  0
    7.1877    0.0438   18.6195 C   0  0  0  0  0  0  0  0  0  0  0  0
    8.1328   -0.4344   18.3786 H   0  0  0  0  0  0  0  0  0  0  0  0
    6.5745    0.6608   17.6053 N   0  0  0  0  0  0  0  0  0  0  0  0
    5.4100    1.2835   17.8495 C   0  0  0  0  0  0  0  0  0  0  0  0
    4.9366    1.7755   17.0026 H   0  0  0  0  0  0  0  0  0  0  0  0
    4.8188    1.2992   19.1170 C   0  0  0  0  0  0  0  0  0  0  0  0
    3.8883    1.8314   19.2641 H   0  0  0  0  0  0  0  0  0  0  0  0
    5.4449    0.6439   20.1774 C   0  0  0  0  0  0  0  0  0  0  0  0
    5.0111    0.6305   21.1787 H   0  0  0  0  0  0  0  0  0  0  0  0
    6.8747   -0.7431   22.2036 N   0  0  0  0  0  0  0  0  0  0  0  0
    6.6236   -2.1743   26.1524 C   0  0  0  0  0  0  0  0  0  0  0  0
    7.0267   -3.1833   26.1818 H   0  0  0  0  0  0  0  0  0  0  0  0
    5.7821   -1.7066   27.1773 C   0  0  0  0  0  0  0  0  0  0  0  0
    5.5054   -2.3587   28.0047 H   0  0  0  0  0  0  0  0  0  0  0  0
  1  2  1  0
  2  3  1  0
  3  4  2  0
  4  5  1  0
  4  6  1  0
  6  7  1  0
  6  8  2  0
  8  9  1  0
  9 10  1  0
 10 11  1  0
 11 12  2  0
 12 13  1  0
 13 14  1  0
 14 15  2  0
 15 16  1  0
 15 17  1  0
 17 18  2  0
 18 19  1  0
 18 20  1  0
 20 21  1  0
 20 22  2  0
 22 23  1  0
 13 24  1  0
  8 25  1  0
 25 26  1  0
 25 27  2  0
 27 28  1  0
 27  3  1  0
 24 10  2  0
 22 14  1  0
M  END
>  <plip>  (1) 
-0.034482758620689655

>  <filename>  (1) 
[H][O][c]1[c]([H])[c]([H])[c]([O][c]2[n][n][n](-[c]3[c]([H])[n][c]([H])[c]([H])[c]3[H])[n]2)[c]([H])[c]1[H]

$$$$
