
     RDKit          3D

 39 41  0  0  0  0  0  0  0  0999 V2000
    5.9322   -3.0597   22.0305 O   0  0  0  0  0  0  0  0  0  0  0  0
    7.1084   -3.0683   22.3633 C   0  0  0  0  0  0  0  0  0  0  0  0
    8.0727   -2.5418   21.5545 N   0  0  0  0  0  0  0  0  0  0  0  0
    7.7142   -1.6628   20.4557 C   0  0  0  0  0  0  0  0  0  0  0  0
    7.4109   -0.2190   20.9041 C   0  0  0  0  0  0  0  0  0  0  0  0
    8.6973    0.4233   21.4399 C   0  0  0  0  0  0  0  0  0  0  0  0
    8.3890    1.7021   21.9523 O   0  0  0  0  0  0  0  0  0  0  0  0
    9.1943    2.2225   22.0237 H   0  0  0  0  0  0  0  0  0  0  0  0
    9.1105   -0.2232   22.2347 H   0  0  0  0  0  0  0  0  0  0  0  0
    9.4426    0.4622   20.6253 H   0  0  0  0  0  0  0  0  0  0  0  0
    6.7155    0.5277   19.7667 C   0  0  0  0  0  0  0  0  0  0  0  0
    5.4498    1.1039   19.9609 C   0  0  0  0  0  0  0  0  0  0  0  0
    4.7483    1.5978   18.8577 C   0  0  0  0  0  0  0  0  0  0  0  0
    5.3517    1.5248   17.5980 C   0  0  0  0  0  0  0  0  0  0  0  0
    6.5787    1.0246   17.3874 N   0  0  0  0  0  0  0  0  0  0  0  0
    7.2390    0.5642   18.4597 C   0  0  0  0  0  0  0  0  0  0  0  0
    8.2446    0.1851   18.2675 H   0  0  0  0  0  0  0  0  0  0  0  0
    4.8315    1.8791   16.7132 H   0  0  0  0  0  0  0  0  0  0  0  0
    3.7588    2.0325   18.9623 H   0  0  0  0  0  0  0  0  0  0  0  0
    5.0267    1.1608   20.9676 H   0  0  0  0  0  0  0  0  0  0  0  0
    6.7120   -0.2608   21.7501 H   0  0  0  0  0  0  0  0  0  0  0  0
    6.8354   -2.0856   19.9570 H   0  0  0  0  0  0  0  0  0  0  0  0
    8.5353   -1.6168   19.7316 H   0  0  0  0  0  0  0  0  0  0  0  0
    9.0382   -2.7012   21.7678 H   0  0  0  0  0  0  0  0  0  0  0  0
    7.5386   -3.6160   23.6840 C   0  0  0  0  0  0  0  0  0  0  0  0
    6.7051   -4.1329   24.6471 C   0  0  0  0  0  0  0  0  0  0  0  0
    7.5039   -4.5304   25.7543 C   0  0  0  0  0  0  0  0  0  0  0  0
    7.2680   -5.1717   26.9879 C   0  0  0  0  0  0  0  0  0  0  0  0
    6.0287   -5.5276   27.3476 F   0  0  0  0  0  0  0  0  0  0  0  0
    8.3400   -5.4591   27.8296 C   0  0  0  0  0  0  0  0  0  0  0  0
    8.1117   -6.1119   28.9776 F   0  0  0  0  0  0  0  0  0  0  0  0
    9.6603   -5.1119   27.4807 C   0  0  0  0  0  0  0  0  0  0  0  0
    9.9231   -4.4977   26.2622 C   0  0  0  0  0  0  0  0  0  0  0  0
    8.8429   -4.2130   25.4184 C   0  0  0  0  0  0  0  0  0  0  0  0
    8.8496   -3.6617   24.1663 N   0  0  0  0  0  0  0  0  0  0  0  0
    9.6915   -3.2415   23.8037 H   0  0  0  0  0  0  0  0  0  0  0  0
   10.9353   -4.2628   25.9506 H   0  0  0  0  0  0  0  0  0  0  0  0
   10.4538   -5.3589   28.1815 H   0  0  0  0  0  0  0  0  0  0  0  0
    5.6288   -4.2352   24.5614 H   0  0  0  0  0  0  0  0  0  0  0  0
  1  2  2  0
  2  3  1  0
  3  4  1  0
  4  5  1  0
  5  6  1  0
  6  7  1  0
  7  8  1  0
  6  9  1  0
  6 10  1  0
  5 11  1  0
 11 12  2  0
 12 13  1  0
 13 14  2  0
 14 15  1  0
 15 16  2  0
 16 17  1  0
 14 18  1  0
 13 19  1  0
 12 20  1  0
  5 21  1  0
  4 22  1  0
  4 23  1  0
  3 24  1  0
  2 25  1  0
 25 26  2  0
 26 27  1  0
 27 28  2  0
 28 29  1  0
 28 30  1  0
 30 31  1  0
 30 32  2  0
 32 33  1  0
 33 34  2  0
 34 35  1  0
 35 36  1  0
 33 37  1  0
 32 38  1  0
 26 39  1  0
 16 11  1  0
 35 25  1  0
 34 27  1  0
M  END
>  <plip>  (1) 
-0.13793103448275862

>  <filename>  (1) 
[H][O][C]([H])([H])[C]([H])([c]1[c]([H])[n][c]([H])[c]([H])[c]1[H])[C]([H])([H])[N]([H])[C](=[O])[c]1[c]([H])[c]2[c]([F])[c]([F])[c]([H])[c]([H])[c]2[n]1[H]

$$$$
