
     RDKit          3D

 36 39  0  0  0  0  0  0  0  0999 V2000
    4.9725    1.8002   16.9640 H   0  0  0  0  0  0  0  0  0  0  0  0
    5.4209    1.3016   17.8205 C   0  0  0  0  0  0  0  0  0  0  0  0
    6.5866    0.6761   17.5914 N   0  0  0  0  0  0  0  0  0  0  0  0
    7.1640    0.0704   18.6384 C   0  0  0  0  0  0  0  0  0  0  0  0
    8.1154   -0.4224   18.4302 H   0  0  0  0  0  0  0  0  0  0  0  0
    6.6241    0.0389   19.9385 C   0  0  0  0  0  0  0  0  0  0  0  0
    7.3424   -0.6517   21.0713 C   0  0  0  0  0  0  0  0  0  0  0  0
    8.3820    0.1737   21.7897 C   0  0  0  0  0  0  0  0  0  0  0  0
    9.6429    0.2306   21.4910 N   0  0  0  0  0  0  0  0  0  0  0  0
   10.3520    1.0673   22.3162 N   0  0  0  0  0  0  0  0  0  0  0  0
    9.6068    1.6247   23.2217 C   0  0  0  0  0  0  0  0  0  0  0  0
   10.0989    2.5988   24.2555 C   0  0  0  0  0  0  0  0  0  0  0  0
   11.1477    2.3726   24.4678 H   0  0  0  0  0  0  0  0  0  0  0  0
    9.5476    2.4474   25.1860 H   0  0  0  0  0  0  0  0  0  0  0  0
    9.9398    4.0120   23.7401 C   0  0  0  0  0  0  0  0  0  0  0  0
   10.9538    4.5488   22.9436 C   0  0  0  0  0  0  0  0  0  0  0  0
   11.8578    3.9710   22.7731 H   0  0  0  0  0  0  0  0  0  0  0  0
   10.7744    5.7780   22.3091 C   0  0  0  0  0  0  0  0  0  0  0  0
   11.5278    6.1065   21.6073 H   0  0  0  0  0  0  0  0  0  0  0  0
    9.5760    6.4784   22.4507 C   0  0  0  0  0  0  0  0  0  0  0  0
    9.3581    7.3906   21.9200 H   0  0  0  0  0  0  0  0  0  0  0  0
    8.5801    5.9360   23.2516 C   0  0  0  0  0  0  0  0  0  0  0  0
    7.4245    6.6087   23.3881 F   0  0  0  0  0  0  0  0  0  0  0  0
    8.7355    4.7104   23.8910 C   0  0  0  0  0  0  0  0  0  0  0  0
    7.8881    4.2897   24.4182 H   0  0  0  0  0  0  0  0  0  0  0  0
    7.9375    1.1822   23.1307 S   0  0  0  0  0  0  0  0  0  0  0  0
    6.5981   -1.6520   21.9392 C   0  0  0  0  0  0  0  0  0  0  0  0
    5.5361   -1.8053   21.7381 H   0  0  0  0  0  0  0  0  0  0  0  0
    6.8506   -1.6745   22.9973 H   0  0  0  0  0  0  0  0  0  0  0  0
    7.5760   -2.1340   20.9069 C   0  0  0  0  0  0  0  0  0  0  0  0
    7.0581   -2.5577   20.0529 H   0  0  0  0  0  0  0  0  0  0  0  0
    8.5760   -2.5246   21.1096 H   0  0  0  0  0  0  0  0  0  0  0  0
    5.4058    0.6939   20.1494 C   0  0  0  0  0  0  0  0  0  0  0  0
    4.9600    0.7005   21.1464 H   0  0  0  0  0  0  0  0  0  0  0  0
    4.7950    1.3325   19.0699 C   0  0  0  0  0  0  0  0  0  0  0  0
    3.8560    1.8583   19.1868 H   0  0  0  0  0  0  0  0  0  0  0  0
  1  2  1  0
  2  3  2  0
  3  4  1  0
  4  5  1  0
  4  6  2  0
  6  7  1  0
  7  8  1  0
  8  9  2  0
  9 10  1  0
 10 11  2  0
 11 12  1  0
 12 13  1  0
 12 14  1  0
 12 15  1  0
 15 16  2  0
 16 17  1  0
 16 18  1  0
 18 19  1  0
 18 20  2  0
 20 21  1  0
 20 22  1  0
 22 23  1  0
 22 24  2  0
 24 25  1  0
 11 26  1  0
  7 27  1  0
 27 28  1  0
 27 29  1  0
 27 30  1  0
 30 31  1  0
 30 32  1  0
  6 33  1  0
 33 34  1  0
 33 35  2  0
 35 36  1  0
 35  2  1  0
 30  7  1  0
 26  8  1  0
 24 15  1  0
M  END
>  <plip>  (1) 
-0.14285714285714285

>  <filename>  (1) 
[H][c]1[n][c]([H])[c]([C]2([c]3[n][n][c]([C]([H])([H])[c]4[c]([H])[c]([H])[c]([H])[c]([F])[c]4[H])[s]3)[C]([H])([H])[C]2([H])[H])[c]([H])[c]1[H]

$$$$
