
     RDKit          3D

 38 40  0  0  0  0  0  0  0  0999 V2000
    4.8471    2.7912   16.2831 H   0  0  0  0  0  0  0  0  0  0  0  0
    5.1999    2.2695   17.1718 C   0  0  0  0  0  0  0  0  0  0  0  0
    6.2305    1.4308   16.9719 N   0  0  0  0  0  0  0  0  0  0  0  0
    6.6965    0.7553   18.0294 C   0  0  0  0  0  0  0  0  0  0  0  0
    7.5308    0.0774   17.8528 H   0  0  0  0  0  0  0  0  0  0  0  0
    6.1731    0.8830   19.3382 C   0  0  0  0  0  0  0  0  0  0  0  0
    6.7626    0.2148   20.4465 N   0  0  0  0  0  0  0  0  0  0  0  0
    7.0130   -1.1440   20.4809 C   0  0  0  0  0  0  0  0  0  0  0  0
    6.6131   -1.9577   19.6741 O   0  0  0  0  0  0  0  0  0  0  0  0
    7.8450   -1.4460   21.7305 C   0  0  2  0  0  0  0  0  0  0  0  0
    8.7817   -1.8912   21.3703 H   0  0  0  0  0  0  0  0  0  0  0  0
    7.1065   -2.4506   22.6326 C   0  0  0  0  0  0  0  0  0  0  0  0
    6.7999   -3.3064   22.0165 H   0  0  0  0  0  0  0  0  0  0  0  0
    6.1764   -1.9725   22.9710 H   0  0  0  0  0  0  0  0  0  0  0  0
    7.8314   -2.9826   23.8618 C   0  0  0  0  0  0  0  0  0  0  0  0
    9.2139   -3.2253   23.9114 C   0  0  0  0  0  0  0  0  0  0  0  0
    9.8662   -2.9182   23.0997 H   0  0  0  0  0  0  0  0  0  0  0  0
    9.7868   -3.9292   24.9715 C   0  0  0  0  0  0  0  0  0  0  0  0
   10.8643   -4.0908   24.9857 H   0  0  0  0  0  0  0  0  0  0  0  0
    8.9695   -4.4673   25.9787 C   0  0  0  0  0  0  0  0  0  0  0  0
    9.5616   -5.4905   26.9208 C   0  0  0  0  0  0  0  0  0  0  0  0
   10.1300   -6.4950   26.2131 F   0  0  0  0  0  0  0  0  0  0  0  0
   10.5213   -4.9735   27.7085 F   0  0  0  0  0  0  0  0  0  0  0  0
    8.6448   -6.0358   27.7391 F   0  0  0  0  0  0  0  0  0  0  0  0
    7.6029   -4.1392   26.0090 C   0  0  0  0  0  0  0  0  0  0  0  0
    6.9587   -4.4788   26.8225 H   0  0  0  0  0  0  0  0  0  0  0  0
    7.0544   -3.3933   24.9637 C   0  0  0  0  0  0  0  0  0  0  0  0
    5.9952   -3.1513   24.9882 H   0  0  0  0  0  0  0  0  0  0  0  0
    8.0502   -0.0742   22.4000 C   0  0  0  0  0  0  0  0  0  0  0  0
    7.8631   -0.1455   23.4756 H   0  0  0  0  0  0  0  0  0  0  0  0
    9.0702    0.2968   22.2657 H   0  0  0  0  0  0  0  0  0  0  0  0
    7.0365    0.8651   21.7247 C   0  0  0  0  0  0  0  0  0  0  0  0
    6.1214    0.9649   22.3283 H   0  0  0  0  0  0  0  0  0  0  0  0
    7.4350    1.8739   21.5675 H   0  0  0  0  0  0  0  0  0  0  0  0
    5.0860    1.7456   19.5271 C   0  0  0  0  0  0  0  0  0  0  0  0
    4.6260    1.8424   20.5120 H   0  0  0  0  0  0  0  0  0  0  0  0
    4.6053    2.4606   18.4253 C   0  0  0  0  0  0  0  0  0  0  0  0
    3.7984    3.1782   18.5234 H   0  0  0  0  0  0  0  0  0  0  0  0
  1  2  1  0
  2  3  2  0
  3  4  1  0
  4  5  1  0
  4  6  2  0
  6  7  1  0
  7  8  1  0
  8  9  2  0
  8 10  1  0
 10 11  1  6
 10 12  1  0
 12 13  1  0
 12 14  1  0
 12 15  1  0
 15 16  2  0
 16 17  1  0
 16 18  1  0
 18 19  1  0
 18 20  2  0
 20 21  1  0
 21 22  1  0
 21 23  1  0
 21 24  1  0
 20 25  1  0
 25 26  1  0
 25 27  2  0
 27 28  1  0
 10 29  1  0
 29 30  1  0
 29 31  1  0
 29 32  1  0
 32 33  1  0
 32 34  1  0
  6 35  1  0
 35 36  1  0
 35 37  2  0
 37 38  1  0
 37  2  1  0
 32  7  1  0
 27 15  1  0
M  END
>  <plip>  (1) 
-0.034482758620689655

>  <filename>  (1) 
[H][c]1[n][c]([H])[c]([N]2[C](=[O])[C@]([H])([C]([H])([H])[c]3[c]([H])[c]([H])[c]([C]([F])([F])[F])[c]([H])[c]3[H])[C]([H])([H])[C]2([H])[H])[c]([H])[c]1[H]

$$$$
