
     RDKit          3D

 51 54  0  0  0  0  0  0  0  0999 V2000
    6.4696   -3.0494   20.7622 C   0  0  0  0  0  0  0  0  0  0  0  0
    6.6416   -1.8411   21.5988 N   0  0  0  0  0  4  0  0  0  0  0  0
    7.2212   -2.0914   22.9659 C   0  0  0  0  0  0  0  0  0  0  0  0
    8.0121   -0.8135   23.3183 C   0  0  0  0  0  0  0  0  0  0  0  0
    7.8599    0.1286   22.1070 C   0  0  1  0  0  0  0  0  0  0  0  0
    9.0478    1.0381   21.7774 C   0  0  0  0  0  0  0  0  0  0  0  0
    9.2512    2.0635   22.7822 N   0  0  0  0  0  0  0  0  0  0  0  0
    8.3075    3.0276   23.0105 C   0  0  0  0  0  0  0  0  0  0  0  0
    7.3752    3.2179   22.2469 O   0  0  0  0  0  0  0  0  0  0  0  0
    8.4715    3.8431   24.2585 C   0  0  2  0  0  0  0  0  0  0  0  0
    9.8024    4.1696   24.8888 C   0  0  0  0  0  0  0  0  0  0  0  0
    8.8775    3.2041   25.5730 C   0  0  1  0  0  0  0  0  0  0  0  0
    8.1829    3.5397   26.8512 C   0  0  0  0  0  0  0  0  0  0  0  0
    7.7299    2.4943   27.6714 C   0  0  0  0  0  0  0  0  0  0  0  0
    7.1794    2.7601   28.9287 C   0  0  0  0  0  0  0  0  0  0  0  0
    7.0977    4.0756   29.4012 C   0  0  0  0  0  0  0  0  0  0  0  0
    7.5077    5.1158   28.5641 C   0  0  0  0  0  0  0  0  0  0  0  0
    7.4529    6.7549   29.1474 Cl  0  0  0  0  0  0  0  0  0  0  0  0
    8.0140    4.8652   27.2900 C   0  0  0  0  0  0  0  0  0  0  0  0
    8.2638    5.7084   26.6508 H   0  0  0  0  0  0  0  0  0  0  0  0
    6.7487    4.2989   30.4053 H   0  0  0  0  0  0  0  0  0  0  0  0
    6.8094    1.9416   29.5395 H   0  0  0  0  0  0  0  0  0  0  0  0
    7.8003    1.4658   27.3187 H   0  0  0  0  0  0  0  0  0  0  0  0
    9.1309    2.1467   25.5021 H   0  0  0  0  0  0  0  0  0  0  0  0
   10.7189    3.8314   24.4029 H   0  0  0  0  0  0  0  0  0  0  0  0
    9.9090    5.1507   25.3462 H   0  0  0  0  0  0  0  0  0  0  0  0
    7.6796    4.5851   24.2995 H   0  0  0  0  0  0  0  0  0  0  0  0
    9.8243    1.8289   23.5700 H   0  0  0  0  0  0  0  0  0  0  0  0
    8.8829    1.5329   20.8141 H   0  0  0  0  0  0  0  0  0  0  0  0
    9.9706    0.4527   21.6801 H   0  0  0  0  0  0  0  0  0  0  0  0
    7.4718   -0.7629   20.9332 C   0  0  2  0  0  0  0  0  0  0  0  0
    6.6850   -0.0583   19.8572 C   0  0  0  0  0  0  0  0  0  0  0  0
    5.4684    0.6055   20.1071 C   0  0  0  0  0  0  0  0  0  0  0  0
    4.8434    1.2847   19.0613 C   0  0  0  0  0  0  0  0  0  0  0  0
    5.4519    1.2798   17.8004 C   0  0  0  0  0  0  0  0  0  0  0  0
    6.5979    0.6357   17.5348 N   0  0  0  0  0  0  0  0  0  0  0  0
    7.1858   -0.0107   18.5497 C   0  0  0  0  0  0  0  0  0  0  0  0
    8.1172   -0.5257   18.3062 H   0  0  0  0  0  0  0  0  0  0  0  0
    4.9908    1.8028   16.9645 H   0  0  0  0  0  0  0  0  0  0  0  0
    3.9122    1.8251   19.2063 H   0  0  0  0  0  0  0  0  0  0  0  0
    5.0282    0.6180   21.1100 H   0  0  0  0  0  0  0  0  0  0  0  0
    8.3619   -1.2342   20.4945 H   0  0  0  0  0  0  0  0  0  0  0  0
    7.0036    0.7867   22.3041 H   0  0  0  0  0  0  0  0  0  0  0  0
    7.6162   -0.3399   24.2235 H   0  0  0  0  0  0  0  0  0  0  0  0
    9.0604   -1.0601   23.5282 H   0  0  0  0  0  0  0  0  0  0  0  0
    6.4206   -2.3074   23.6812 H   0  0  0  0  0  0  0  0  0  0  0  0
    7.8704   -2.9713   22.9185 H   0  0  0  0  0  0  0  0  0  0  0  0
    5.7203   -1.3614   21.7312 H   0  0  0  0  0  0  0  0  0  0  0  0
    7.4426   -3.5463   20.6214 H   0  0  0  0  0  0  0  0  0  0  0  0
    6.0945   -2.7748   19.7711 H   0  0  0  0  0  0  0  0  0  0  0  0
    5.7886   -3.7740   21.2203 H   0  0  0  0  0  0  0  0  0  0  0  0
  1  2  1  0
  2  3  1  0
  3  4  1  0
  4  5  1  0
  5  6  1  0
  6  7  1  0
  7  8  1  0
  8  9  2  0
  8 10  1  0
 10 11  1  0
 11 12  1  0
 12 13  1  0
 13 14  2  0
 14 15  1  0
 15 16  2  0
 16 17  1  0
 17 18  1  0
 17 19  2  0
 19 20  1  0
 16 21  1  0
 15 22  1  0
 14 23  1  0
 12 24  1  6
 11 25  1  0
 11 26  1  0
 10 27  1  1
  7 28  1  0
  6 29  1  0
  6 30  1  0
  5 31  1  0
 31 32  1  0
 32 33  2  0
 33 34  1  0
 34 35  2  0
 35 36  1  0
 36 37  2  0
 37 38  1  0
 35 39  1  0
 34 40  1  0
 33 41  1  0
 31 42  1  6
  5 43  1  1
  4 44  1  0
  4 45  1  0
  3 46  1  0
  3 47  1  0
  2 48  1  0
  1 49  1  0
  1 50  1  0
  1 51  1  0
 31  2  1  0
 37 32  1  0
 12 10  1  0
 19 13  1  0
M  CHG  1   2   1
M  END
>  <plip>  (1) 
-0.10714285714285714

>  <filename>  (1) 
[H][c]1[n][c]([H])[c]([C@@]2([H])[C@]([H])([C]([H])([H])[N]([H])[C](=[O])[C@]3([H])[C]([H])([H])[C@@]3([H])[c]3[c]([H])[c]([H])[c]([H])[c]([Cl])[c]3[H])[C]([H])([H])[C]([H])([H])[N+]2([H])[C]([H])([H])[H])[c]([H])[c]1[H]

$$$$
