
     RDKit          3D

 30 32  0  0  0  0  0  0  0  0999 V2000
    4.9174    1.7877   16.9858 H   0  0  0  0  0  0  0  0  0  0  0  0
    5.3935    1.2994   17.8315 C   0  0  0  0  0  0  0  0  0  0  0  0
    6.5569    0.6831   17.5707 N   0  0  0  0  0  0  0  0  0  0  0  0
    7.1535    0.0659   18.5970 C   0  0  0  0  0  0  0  0  0  0  0  0
    8.1014   -0.4195   18.3667 H   0  0  0  0  0  0  0  0  0  0  0  0
    6.6291    0.0002   19.9003 C   0  0  0  0  0  0  0  0  0  0  0  0
    7.3974   -0.7035   21.0018 C   0  0  0  0  0  0  0  0  0  0  0  0
    7.6765   -1.7126   20.6669 H   0  0  0  0  0  0  0  0  0  0  0  0
    6.7556   -0.8452   21.8838 H   0  0  0  0  0  0  0  0  0  0  0  0
    8.6673    0.0301   21.3297 C   0  0  0  0  0  0  0  0  0  0  0  0
    9.9385   -0.2903   20.9358 C   0  0  0  0  0  0  0  0  0  0  0  0
   10.1849   -1.1940   20.3915 H   0  0  0  0  0  0  0  0  0  0  0  0
   10.8017    0.7782   21.3105 C   0  0  0  0  0  0  0  0  0  0  0  0
   11.8674    0.8363   21.1338 H   0  0  0  0  0  0  0  0  0  0  0  0
   10.0258    1.7287   21.9085 C   0  0  0  0  0  0  0  0  0  0  0  0
   10.2886    2.6715   22.3720 H   0  0  0  0  0  0  0  0  0  0  0  0
    8.7042    1.2981   21.9126 N   0  0  0  0  0  0  0  0  0  0  0  0
    7.6259    1.9750   22.5206 C   0  0  0  0  0  0  0  0  0  0  0  0
    6.6168    1.5239   23.3435 C   0  0  0  0  0  0  0  0  0  0  0  0
    6.5045    0.5059   23.6882 H   0  0  0  0  0  0  0  0  0  0  0  0
    5.7977    2.6419   23.6758 C   0  0  0  0  0  0  0  0  0  0  0  0
    4.9256    2.6315   24.3144 H   0  0  0  0  0  0  0  0  0  0  0  0
    6.3216    3.7419   23.0502 C   0  0  0  0  0  0  0  0  0  0  0  0
    6.0058    4.7803   23.0518 H   0  0  0  0  0  0  0  0  0  0  0  0
    7.4318    3.3243   22.3519 N   0  0  0  0  0  0  0  0  0  0  0  0
    8.0156    3.9162   21.7873 H   0  0  0  0  0  0  0  0  0  0  0  0
    5.4248    0.6600   20.1509 C   0  0  0  0  0  0  0  0  0  0  0  0
    5.0188    0.6461   21.1662 H   0  0  0  0  0  0  0  0  0  0  0  0
    4.7926    1.3233   19.0953 C   0  0  0  0  0  0  0  0  0  0  0  0
    3.8604    1.8529   19.2438 H   0  0  0  0  0  0  0  0  0  0  0  0
  1  2  1  0
  2  3  2  0
  3  4  1  0
  4  5  1  0
  4  6  2  0
  6  7  1  0
  7  8  1  0
  7  9  1  0
  7 10  1  0
 10 11  2  0
 11 12  1  0
 11 13  1  0
 13 14  1  0
 13 15  2  0
 15 16  1  0
 15 17  1  0
 17 18  1  0
 18 19  2  0
 19 20  1  0
 19 21  1  0
 21 22  1  0
 21 23  2  0
 23 24  1  0
 23 25  1  0
 25 26  1  0
  6 27  1  0
 27 28  1  0
 27 29  2  0
 29 30  1  0
 29  2  1  0
 17 10  1  0
 25 18  1  0
M  END
>  <plip>  (1) 
-0.10714285714285714

>  <filename>  (1) 
[H][c]1[n][c]([H])[c]([C]([H])([H])[c]2[c]([H])[c]([H])[c]([H])[n]2-[c]2[c]([H])[c]([H])[c]([H])[n]2[H])[c]([H])[c]1[H]

$$$$
