
     RDKit          3D

 46 47  0  0  0  0  0  0  0  0999 V2000
   11.0095    4.1105   22.8040 C   0  0  0  0  0  0  0  0  0  0  0  0
   10.7728    2.9707   21.8491 N   0  0  0  0  0  4  0  0  0  0  0  0
   12.0621    2.2195   21.6767 C   0  0  0  0  0  0  0  0  0  0  0  0
   12.4396    1.8858   22.6492 H   0  0  0  0  0  0  0  0  0  0  0  0
   12.8164    2.8702   21.2274 H   0  0  0  0  0  0  0  0  0  0  0  0
   11.9431    1.3461   21.0349 H   0  0  0  0  0  0  0  0  0  0  0  0
    9.5924    2.1451   22.3359 C   0  0  0  0  0  0  0  0  0  0  0  0
    9.2467    0.9226   21.4809 C   0  0  0  0  0  0  0  0  0  0  0  0
    8.0434    0.1810   22.0389 N   0  0  0  0  0  4  0  0  0  0  0  0
    7.3657   -0.7213   21.0167 C   0  0  0  0  0  0  0  0  0  0  0  0
    6.6452    0.0518   19.9477 C   0  0  0  0  0  0  0  0  0  0  0  0
    5.4194    0.6997   20.1671 C   0  0  0  0  0  0  0  0  0  0  0  0
    4.8094    1.3543   19.0931 C   0  0  0  0  0  0  0  0  0  0  0  0
    5.4406    1.3403   17.8465 C   0  0  0  0  0  0  0  0  0  0  0  0
    6.6035    0.7134   17.6146 N   0  0  0  0  0  0  0  0  0  0  0  0
    7.1729    0.0872   18.6501 C   0  0  0  0  0  0  0  0  0  0  0  0
    8.1087   -0.4315   18.4367 H   0  0  0  0  0  0  0  0  0  0  0  0
    4.9908    1.8487   16.9934 H   0  0  0  0  0  0  0  0  0  0  0  0
    3.8680    1.8819   19.2092 H   0  0  0  0  0  0  0  0  0  0  0  0
    4.9535    0.6927   21.1561 H   0  0  0  0  0  0  0  0  0  0  0  0
    8.1115   -1.3870   20.5574 H   0  0  0  0  0  0  0  0  0  0  0  0
    6.6592   -1.3717   21.5437 H   0  0  0  0  0  0  0  0  0  0  0  0
    8.3565   -0.6197   23.2911 C   0  0  0  0  0  0  0  0  0  0  0  0
    7.0718   -0.8794   24.0454 C   0  0  0  0  0  0  0  0  0  0  0  0
    6.5065   -2.1487   24.2167 C   0  0  0  0  0  0  0  0  0  0  0  0
    5.3657   -2.3225   25.0059 C   0  0  0  0  0  0  0  0  0  0  0  0
    4.7923   -1.2254   25.6429 C   0  0  0  0  0  0  0  0  0  0  0  0
    3.7201   -1.3838   26.4309 F   0  0  0  0  0  0  0  0  0  0  0  0
    5.3234    0.0476   25.4626 C   0  0  0  0  0  0  0  0  0  0  0  0
    4.8003    1.1129   26.1079 F   0  0  0  0  0  0  0  0  0  0  0  0
    6.4107    0.2259   24.6046 C   0  0  0  0  0  0  0  0  0  0  0  0
    6.8767    1.4724   24.2731 O   0  0  0  0  0  0  0  0  0  0  0  0
    6.5583    2.0834   24.9529 H   0  0  0  0  0  0  0  0  0  0  0  0
    4.9035   -3.2908   25.1320 H   0  0  0  0  0  0  0  0  0  0  0  0
    6.9489   -3.0195   23.7311 H   0  0  0  0  0  0  0  0  0  0  0  0
    9.0370   -0.0367   23.9218 H   0  0  0  0  0  0  0  0  0  0  0  0
    8.8757   -1.5512   23.0305 H   0  0  0  0  0  0  0  0  0  0  0  0
    7.3073    0.8654   22.3478 H   0  0  0  0  0  0  0  0  0  0  0  0
   10.1029    0.2409   21.4010 H   0  0  0  0  0  0  0  0  0  0  0  0
    9.0257    1.2578   20.4633 H   0  0  0  0  0  0  0  0  0  0  0  0
    8.7153    2.7974   22.3458 H   0  0  0  0  0  0  0  0  0  0  0  0
    9.7835    1.8613   23.3749 H   0  0  0  0  0  0  0  0  0  0  0  0
   10.5006    3.3742   20.9172 H   0  0  0  0  0  0  0  0  0  0  0  0
   10.0810    4.6673   22.9824 H   0  0  0  0  0  0  0  0  0  0  0  0
   11.3461    3.7002   23.7661 H   0  0  0  0  0  0  0  0  0  0  0  0
   11.7918    4.7780   22.4263 H   0  0  0  0  0  0  0  0  0  0  0  0
  1  2  1  0
  2  3  1  0
  3  4  1  0
  3  5  1  0
  3  6  1  0
  2  7  1  0
  7  8  1  0
  8  9  1  0
  9 10  1  0
 10 11  1  0
 11 12  2  0
 12 13  1  0
 13 14  2  0
 14 15  1  0
 15 16  2  0
 16 17  1  0
 14 18  1  0
 13 19  1  0
 12 20  1  0
 10 21  1  0
 10 22  1  0
  9 23  1  0
 23 24  1  0
 24 25  2  0
 25 26  1  0
 26 27  2  0
 27 28  1  0
 27 29  1  0
 29 30  1  0
 29 31  2  0
 31 32  1  0
 32 33  1  0
 26 34  1  0
 25 35  1  0
 23 36  1  0
 23 37  1  0
  9 38  1  0
  8 39  1  0
  8 40  1  0
  7 41  1  0
  7 42  1  0
  2 43  1  0
  1 44  1  0
  1 45  1  0
  1 46  1  0
 16 11  1  0
 31 24  1  0
M  CHG  2   2   1   9   1
M  END
>  <plip>  (1) 
-0.10714285714285714

>  <filename>  (1) 
[H][O][c]1[c]([F])[c]([F])[c]([H])[c]([H])[c]1[C]([H])([H])[N+]([H])([C]([H])([H])[c]1[c]([H])[n][c]([H])[c]([H])[c]1[H])[C]([H])([H])[C]([H])([H])[N+]([H])([C]([H])([H])[H])[C]([H])([H])[H]

$$$$
