
     RDKit          3D

 28 29  0  0  0  0  0  0  0  0999 V2000
    8.8422   -0.4241   21.1696 C   0  0  0  0  0  0  0  0  0  0  0  0
    7.3739   -0.7532   20.9906 C   0  0  0  0  0  0  0  0  0  0  0  0
    6.7157   -1.6515   21.7468 C   0  0  0  0  0  0  0  0  0  0  0  0
    7.3278   -2.4437   22.8373 C   0  0  0  0  0  0  0  0  0  0  0  0
    8.5228   -2.4664   23.0776 O   0  0  0  0  0  0  0  0  0  0  0  0
    6.4561   -3.1563   23.6185 N   0  0  0  0  0  0  0  0  0  0  0  0
    6.8372   -3.7660   24.7975 C   0  0  0  0  0  0  0  0  0  0  0  0
    6.1428   -4.7996   25.1761 N   0  0  0  0  0  0  0  0  0  0  0  0
    6.7424   -5.3418   26.6292 S   0  0  0  0  0  0  0  0  0  0  0  0
    7.9247   -4.1118   26.7517 C   0  0  0  0  0  0  0  0  0  0  0  0
    7.8725   -3.3045   25.6594 C   0  0  0  0  0  0  0  0  0  0  0  0
    8.4816   -2.4416   25.4114 H   0  0  0  0  0  0  0  0  0  0  0  0
    8.5977   -4.0633   27.6057 H   0  0  0  0  0  0  0  0  0  0  0  0
    5.5308   -3.4246   23.3376 H   0  0  0  0  0  0  0  0  0  0  0  0
    5.6503   -1.7941   21.5907 H   0  0  0  0  0  0  0  0  0  0  0  0
    6.6292   -0.0251   19.9182 C   0  0  0  0  0  0  0  0  0  0  0  0
    5.4126    0.6389   20.1528 C   0  0  0  0  0  0  0  0  0  0  0  0
    4.7987    1.3132   19.0981 C   0  0  0  0  0  0  0  0  0  0  0  0
    5.3985    1.2934   17.8356 C   0  0  0  0  0  0  0  0  0  0  0  0
    6.5611    0.6698   17.5897 N   0  0  0  0  0  0  0  0  0  0  0  0
    7.1552    0.0517   18.6155 C   0  0  0  0  0  0  0  0  0  0  0  0
    8.1124   -0.4195   18.3886 H   0  0  0  0  0  0  0  0  0  0  0  0
    4.9349    1.7935   16.9864 H   0  0  0  0  0  0  0  0  0  0  0  0
    3.8697    1.8513   19.2383 H   0  0  0  0  0  0  0  0  0  0  0  0
    4.9895    0.6454   21.1567 H   0  0  0  0  0  0  0  0  0  0  0  0
    9.1130    0.4258   20.5388 H   0  0  0  0  0  0  0  0  0  0  0  0
    9.4786   -1.2785   20.9188 H   0  0  0  0  0  0  0  0  0  0  0  0
    9.0825   -0.1773   22.2102 H   0  0  0  0  0  0  0  0  0  0  0  0
  1  2  1  0
  2  3  2  3
  3  4  1  0
  4  5  2  0
  4  6  1  0
  6  7  1  0
  7  8  2  0
  8  9  1  0
  9 10  1  0
 10 11  2  0
 11 12  1  0
 10 13  1  0
  6 14  1  0
  3 15  1  0
  2 16  1  0
 16 17  2  0
 17 18  1  0
 18 19  2  0
 19 20  1  0
 20 21  2  0
 21 22  1  0
 19 23  1  0
 18 24  1  0
 17 25  1  0
  1 26  1  0
  1 27  1  0
  1 28  1  0
 11  7  1  0
 21 16  1  0
M  END
>  <plip>  (1) 
-0.03571428571428571

>  <filename>  (1) 
[H][C]([C](=[O])[N]([H])[c]1[n][s][c]([H])[c]1[H])=[C]([c]1[c]([H])[n][c]([H])[c]([H])[c]1[H])[C]([H])([H])[H]

$$$$
