
     RDKit          3D

 24 25  0  0  0  0  0  0  0  0999 V2000
    5.4226   -0.8109   24.0564 H   0  0  0  0  0  0  0  0  0  0  0  0
    5.7259    0.0320   24.5662 N   0  0  0  0  0  0  0  0  0  0  0  0
    6.5386    0.6792   23.9610 N   0  0  0  0  0  4  0  0  0  0  0  0
    7.3512    1.5168   23.6168 N   0  0  0  0  0  0  0  0  0  0  0  0
    8.2783    1.1788   22.6187 C   0  0  0  0  0  0  0  0  0  0  0  0
    8.4287    0.2256   21.6056 C   0  0  0  0  0  0  0  0  0  0  0  0
    7.4183   -0.7133   20.9820 C   0  0  0  0  0  0  0  0  0  0  0  0
    7.9523   -1.5857   20.5726 H   0  0  0  0  0  0  0  0  0  0  0  0
    6.7545   -1.1110   21.7641 H   0  0  0  0  0  0  0  0  0  0  0  0
    6.6216   -0.0315   19.8738 C   0  0  0  0  0  0  0  0  0  0  0  0
    7.1303    0.0395   18.5603 C   0  0  0  0  0  0  0  0  0  0  0  0
    8.0756   -0.4477   18.3149 H   0  0  0  0  0  0  0  0  0  0  0  0
    6.5396    0.6825   17.5497 N   0  0  0  0  0  0  0  0  0  0  0  0
    5.3854    1.3126   17.8140 C   0  0  0  0  0  0  0  0  0  0  0  0
    4.9254    1.8372   16.9789 H   0  0  0  0  0  0  0  0  0  0  0  0
    4.7854    1.3193   19.0754 C   0  0  0  0  0  0  0  0  0  0  0  0
    3.8589    1.8669   19.2232 H   0  0  0  0  0  0  0  0  0  0  0  0
    5.4167    0.6392   20.1222 C   0  0  0  0  0  0  0  0  0  0  0  0
    4.9770    0.6435   21.1222 H   0  0  0  0  0  0  0  0  0  0  0  0
    9.7319    0.4860   21.1184 C   0  0  0  0  0  0  0  0  0  0  0  0
   10.2758   -0.0750   20.3684 H   0  0  0  0  0  0  0  0  0  0  0  0
   10.3134    1.5042   21.7275 N   0  0  0  0  0  0  0  0  0  0  0  0
    9.3972    1.9171   22.6114 N   0  0  0  0  0  0  0  0  0  0  0  0
    9.5867    2.6285   23.2957 H   0  0  0  0  0  0  0  0  0  0  0  0
  1  2  1  0
  2  3  2  0
  3  4  2  0
  4  5  1  0
  5  6  2  0
  6  7  1  0
  7  8  1  0
  7  9  1  0
  7 10  1  0
 10 11  2  0
 11 12  1  0
 11 13  1  0
 13 14  2  0
 14 15  1  0
 14 16  1  0
 16 17  1  0
 16 18  2  0
 18 19  1  0
  6 20  1  0
 20 21  1  0
 20 22  2  0
 22 23  1  0
 23 24  1  0
 23  5  1  0
 18 10  1  0
M  CHG  1   3   1
M  END
>  <plip>  (1) 
-0.10714285714285714

>  <filename>  (1) 
[H][N]=[N+]=[N][c]1[c]([C]([H])([H])[c]2[c]([H])[n][c]([H])[c]([H])[c]2[H])[c]([H])[n][n]1[H]

$$$$
