
     RDKit          3D

 37 39  0  0  0  0  0  0  0  0999 V2000
    4.9404    1.8177   16.9270 H   0  0  0  0  0  0  0  0  0  0  0  0
    5.4034    1.3197   17.7755 C   0  0  0  0  0  0  0  0  0  0  0  0
    6.5699    0.7004   17.5331 N   0  0  0  0  0  0  0  0  0  0  0  0
    7.1640    0.0888   18.5639 C   0  0  0  0  0  0  0  0  0  0  0  0
    8.1078   -0.4049   18.3390 H   0  0  0  0  0  0  0  0  0  0  0  0
    6.6531    0.0499   19.8763 C   0  0  0  0  0  0  0  0  0  0  0  0
    7.3748   -0.6393   20.9606 C   0  0  0  0  0  0  0  0  0  0  0  0
    8.4596   -1.5729   20.8361 C   0  0  0  0  0  0  0  0  0  0  0  0
    8.9889   -1.8280   19.9274 H   0  0  0  0  0  0  0  0  0  0  0  0
    8.7740   -2.0147   22.0841 C   0  0  0  0  0  0  0  0  0  0  0  0
    9.4700   -2.7670   22.4232 H   0  0  0  0  0  0  0  0  0  0  0  0
    7.9762   -1.3546   23.0070 N   0  0  0  0  0  0  0  0  0  0  0  0
    8.1799   -1.3159   24.4203 C   0  0  0  0  0  0  0  0  0  0  0  0
    8.2601   -0.0714   25.0484 C   0  0  0  0  0  0  0  0  0  0  0  0
    8.0738    0.8291   24.4655 H   0  0  0  0  0  0  0  0  0  0  0  0
    8.6031    0.0425   26.3902 C   0  0  0  0  0  0  0  0  0  0  0  0
    8.6925    1.0192   26.8513 H   0  0  0  0  0  0  0  0  0  0  0  0
    8.8453   -1.1133   27.1351 C   0  0  0  0  0  0  0  0  0  0  0  0
    9.2493   -1.0925   28.4279 O   0  0  0  0  0  0  0  0  0  0  0  0
    9.2163    0.0583   29.2626 C   0  0  0  0  0  0  0  0  0  0  0  0
   10.2514    0.3155   29.5128 H   0  0  0  0  0  0  0  0  0  0  0  0
    8.6757    0.9057   28.8280 H   0  0  0  0  0  0  0  0  0  0  0  0
    8.7462   -0.1676   30.2236 H   0  0  0  0  0  0  0  0  0  0  0  0
    8.7179   -2.3886   26.5427 C   0  0  0  0  0  0  0  0  0  0  0  0
    8.8934   -3.2597   27.1681 H   0  0  0  0  0  0  0  0  0  0  0  0
    8.3793   -2.5009   25.1875 C   0  0  0  0  0  0  0  0  0  0  0  0
    8.2308   -3.6695   24.5057 O   0  0  0  0  0  0  0  0  0  0  0  0
    8.3404   -4.9472   25.1045 C   0  0  0  0  0  0  0  0  0  0  0  0
    9.3227   -5.1109   25.5645 H   0  0  0  0  0  0  0  0  0  0  0  0
    7.5499   -5.1339   25.8424 H   0  0  0  0  0  0  0  0  0  0  0  0
    8.2188   -5.6546   24.2794 H   0  0  0  0  0  0  0  0  0  0  0  0
    7.1360   -0.5231   22.3072 C   0  0  0  0  0  0  0  0  0  0  0  0
    6.4372    0.1026   22.8451 H   0  0  0  0  0  0  0  0  0  0  0  0
    5.4205    0.6891   20.0954 C   0  0  0  0  0  0  0  0  0  0  0  0
    4.9587    0.6709   21.0816 H   0  0  0  0  0  0  0  0  0  0  0  0
    4.7905    1.3338   19.0322 C   0  0  0  0  0  0  0  0  0  0  0  0
    3.8472    1.8499   19.1659 H   0  0  0  0  0  0  0  0  0  0  0  0
  1  2  1  0
  2  3  2  0
  3  4  1  0
  4  5  1  0
  4  6  2  0
  6  7  1  0
  7  8  1  0
  8  9  1  0
  8 10  2  0
 10 11  1  0
 10 12  1  0
 12 13  1  0
 13 14  2  0
 14 15  1  0
 14 16  1  0
 16 17  1  0
 16 18  2  0
 18 19  1  0
 19 20  1  0
 20 21  1  0
 20 22  1  0
 20 23  1  0
 18 24  1  0
 24 25  1  0
 24 26  2  0
 26 27  1  0
 27 28  1  0
 28 29  1  0
 28 30  1  0
 28 31  1  0
 12 32  1  0
 32 33  1  0
  6 34  1  0
 34 35  1  0
 34 36  2  0
 36 37  1  0
 36  2  1  0
 32  7  2  0
 26 13  1  0
M  END
>  <plip>  (1) 
-0.03571428571428571

>  <filename>  (1) 
[H][c]1[n][c]([H])[c](-[c]2[c]([H])[c]([H])[n](-[c]3[c]([H])[c]([H])[c]([O][C]([H])([H])[H])[c]([H])[c]3[O][C]([H])([H])[H])[c]2[H])[c]([H])[c]1[H]

$$$$
