
     RDKit          3D

 36 39  0  0  0  0  0  0  0  0999 V2000
    4.9746    1.8053   16.9879 H   0  0  0  0  0  0  0  0  0  0  0  0
    5.4386    1.2778   17.8199 C   0  0  0  0  0  0  0  0  0  0  0  0
    6.5944    0.6463   17.5650 N   0  0  0  0  0  0  0  0  0  0  0  0
    7.1965    0.0192   18.5882 C   0  0  0  0  0  0  0  0  0  0  0  0
    8.1292   -0.4833   18.3470 H   0  0  0  0  0  0  0  0  0  0  0  0
    6.7062   -0.0191   19.9320 C   0  0  0  0  0  0  0  0  0  0  0  0
    7.3830   -0.6454   20.9736 N   0  0  0  0  0  0  0  0  0  0  0  0
    8.6539   -1.3311   20.8341 C   0  0  0  0  0  0  0  0  0  0  0  0
    9.4609   -0.6756   20.4758 H   0  0  0  0  0  0  0  0  0  0  0  0
    8.5447   -2.1596   20.1442 H   0  0  0  0  0  0  0  0  0  0  0  0
    8.9036   -1.8562   22.2489 C   0  0  0  0  0  0  0  0  0  0  0  0
    9.2510   -2.8918   22.2440 H   0  0  0  0  0  0  0  0  0  0  0  0
    9.6227   -1.2258   22.7898 H   0  0  0  0  0  0  0  0  0  0  0  0
    7.6352   -1.8266   22.8812 O   0  0  0  0  0  0  0  0  0  0  0  0
    6.9232   -0.7268   22.3555 C   0  0  1  0  0  0  0  0  0  0  0  0
    5.8622   -0.9969   22.3717 H   0  0  0  0  0  0  0  0  0  0  0  0
    7.1249    0.5734   23.1712 C   0  0  0  0  0  0  0  0  0  0  0  0
    7.9313    1.6090   22.7310 C   0  0  0  0  0  0  0  0  0  0  0  0
    8.5237    1.5020   21.8253 H   0  0  0  0  0  0  0  0  0  0  0  0
    7.9666    2.8707   23.3888 C   0  0  0  0  0  0  0  0  0  0  0  0
    8.6028    3.6633   22.9992 H   0  0  0  0  0  0  0  0  0  0  0  0
    7.1656    3.1055   24.4820 C   0  0  0  0  0  0  0  0  0  0  0  0
    7.1107    4.0633   24.9933 H   0  0  0  0  0  0  0  0  0  0  0  0
    6.3260    2.0733   24.9893 C   0  0  0  0  0  0  0  0  0  0  0  0
    5.4972    2.4030   26.0330 N   0  0  0  0  0  0  0  0  0  0  0  0
    4.7352    1.4570   26.5368 C   0  0  0  0  0  0  0  0  0  0  0  0
    4.0607    1.7534   27.3453 H   0  0  0  0  0  0  0  0  0  0  0  0
    4.7621    0.1073   26.0910 C   0  0  0  0  0  0  0  0  0  0  0  0
    4.1041   -0.6099   26.5676 H   0  0  0  0  0  0  0  0  0  0  0  0
    5.5963   -0.2462   25.0509 C   0  0  0  0  0  0  0  0  0  0  0  0
    5.6649   -1.2812   24.7118 H   0  0  0  0  0  0  0  0  0  0  0  0
    6.3676    0.7653   24.3921 C   0  0  0  0  0  0  0  0  0  0  0  0
    5.4766    0.6357   20.1537 C   0  0  0  0  0  0  0  0  0  0  0  0
    5.0454    0.6418   21.1515 H   0  0  0  0  0  0  0  0  0  0  0  0
    4.8474    1.2848   19.0875 C   0  0  0  0  0  0  0  0  0  0  0  0
    3.9086    1.8025   19.2386 H   0  0  0  0  0  0  0  0  0  0  0  0
  1  2  1  0
  2  3  2  0
  3  4  1  0
  4  5  1  0
  4  6  2  0
  6  7  1  0
  7  8  1  0
  8  9  1  0
  8 10  1  0
  8 11  1  0
 11 12  1  0
 11 13  1  0
 11 14  1  0
 14 15  1  0
 15 16  1  6
 15 17  1  0
 17 18  2  0
 18 19  1  0
 18 20  1  0
 20 21  1  0
 20 22  2  0
 22 23  1  0
 22 24  1  0
 24 25  2  0
 25 26  1  0
 26 27  1  0
 26 28  2  0
 28 29  1  0
 28 30  1  0
 30 31  1  0
 30 32  2  0
  6 33  1  0
 33 34  1  0
 33 35  2  0
 35 36  1  0
 35  2  1  0
 15  7  1  0
 32 17  1  0
 32 24  1  0
M  END
>  <plip>  (1) 
-0.03571428571428571

>  <filename>  (1) 
[H][c]1[n][c]([H])[c]([N]2[C]([H])([H])[C]([H])([H])[O][C@@]2([H])[c]2[c]([H])[c]([H])[c]([H])[c]3[n][c]([H])[c]([H])[c]([H])[c]23)[c]([H])[c]1[H]

$$$$
