
     RDKit          3D

 33 35  0  0  0  0  0  0  0  0999 V2000
    7.8723    1.3045   23.7565 H   0  0  0  0  0  0  0  0  0  0  0  0
    7.6199    1.0661   22.7200 C   0  0  0  0  0  0  0  0  0  0  0  0
    7.2057    2.0986   21.9306 O   0  0  0  0  0  0  0  0  0  0  0  0
    7.2217    3.4265   22.3042 C   0  0  0  0  0  0  0  0  0  0  0  0
    6.4616    4.2901   21.5008 C   0  0  0  0  0  0  0  0  0  0  0  0
    5.9202    3.8731   20.6592 H   0  0  0  0  0  0  0  0  0  0  0  0
    6.4445    5.6591   21.7706 C   0  0  0  0  0  0  0  0  0  0  0  0
    5.8643    6.3302   21.1429 H   0  0  0  0  0  0  0  0  0  0  0  0
    7.1696    6.1832   22.8442 C   0  0  0  0  0  0  0  0  0  0  0  0
    7.1592    7.2417   23.0824 H   0  0  0  0  0  0  0  0  0  0  0  0
    7.9223    5.3049   23.6221 C   0  0  0  0  0  0  0  0  0  0  0  0
    8.8359    5.9203   24.9607 Cl  0  0  0  0  0  0  0  0  0  0  0  0
    7.9697    3.9307   23.3704 C   0  0  0  0  0  0  0  0  0  0  0  0
    8.5974    3.2884   23.9789 H   0  0  0  0  0  0  0  0  0  0  0  0
    7.6965   -0.1921   22.2698 C   0  0  0  0  0  0  0  0  0  0  0  0
    7.3649   -0.7388   20.9364 C   0  0  0  0  0  0  0  0  0  0  0  0
    6.6398    0.0122   19.8956 C   0  0  0  0  0  0  0  0  0  0  0  0
    7.1660    0.0501   18.6030 C   0  0  0  0  0  0  0  0  0  0  0  0
    8.1111   -0.4407   18.3787 H   0  0  0  0  0  0  0  0  0  0  0  0
    6.5709    0.6763   17.5850 N   0  0  0  0  0  0  0  0  0  0  0  0
    5.4052    1.2927   17.8386 C   0  0  0  0  0  0  0  0  0  0  0  0
    4.9283    1.7820   16.9939 H   0  0  0  0  0  0  0  0  0  0  0  0
    4.7976    1.3076   19.0974 C   0  0  0  0  0  0  0  0  0  0  0  0
    3.8707    1.8462   19.2515 H   0  0  0  0  0  0  0  0  0  0  0  0
    5.4224    0.6547   20.1544 C   0  0  0  0  0  0  0  0  0  0  0  0
    4.9833    0.6478   21.1539 H   0  0  0  0  0  0  0  0  0  0  0  0
    7.7378   -1.9500   20.7575 N   0  0  0  0  0  0  0  0  0  0  0  0
    8.3263   -2.4727   21.9915 C   0  0  0  0  0  0  0  0  0  0  0  0
    9.3583   -2.7633   21.7779 H   0  0  0  0  0  0  0  0  0  0  0  0
    7.7991   -3.3856   22.2866 H   0  0  0  0  0  0  0  0  0  0  0  0
    8.2443   -1.3619   23.0697 C   0  0  0  0  0  0  0  0  0  0  0  0
    9.2269   -1.1504   23.5084 H   0  0  0  0  0  0  0  0  0  0  0  0
    7.5851   -1.6590   23.8959 H   0  0  0  0  0  0  0  0  0  0  0  0
  1  2  1  0
  2  3  1  0
  3  4  1  0
  4  5  2  0
  5  6  1  0
  5  7  1  0
  7  8  1  0
  7  9  2  0
  9 10  1  0
  9 11  1  0
 11 12  1  0
 11 13  2  0
 13 14  1  0
  2 15  2  3
 15 16  1  0
 16 17  1  0
 17 18  2  0
 18 19  1  0
 18 20  1  0
 20 21  2  0
 21 22  1  0
 21 23  1  0
 23 24  1  0
 23 25  2  0
 25 26  1  0
 16 27  2  0
 27 28  1  0
 28 29  1  0
 28 30  1  0
 28 31  1  0
 31 32  1  0
 31 33  1  0
 13  4  1  0
 31 15  1  0
 25 17  1  0
M  END
>  <plip>  (1) 
-0.034482758620689655

>  <filename>  (1) 
[H][C]([O][c]1[c]([H])[c]([H])[c]([H])[c]([Cl])[c]1[H])=[C]1[C]([c]2[c]([H])[n][c]([H])[c]([H])[c]2[H])=[N][C]([H])([H])[C]1([H])[H]

$$$$
