
     RDKit          3D

 42 43  0  0  0  0  0  0  0  0999 V2000
   10.5461    0.0928   25.7105 C   0  0  0  0  0  0  0  0  0  0  0  0
   10.5843    0.4763   24.2301 C   0  0  0  0  0  0  0  0  0  0  0  0
   10.6496    1.9771   24.0245 C   0  0  0  0  0  0  0  0  0  0  0  0
   11.8998    2.6083   24.1232 C   0  0  0  0  0  0  0  0  0  0  0  0
   12.0315    3.9892   23.9589 C   0  0  0  0  0  0  0  0  0  0  0  0
   10.9017    4.7667   23.6994 C   0  0  0  0  0  0  0  0  0  0  0  0
    9.6478    4.1603   23.6133 C   0  0  0  0  0  0  0  0  0  0  0  0
    9.5129    2.7778   23.8002 C   0  0  0  0  0  0  0  0  0  0  0  0
    8.1452    2.1332   23.6160 C   0  0  0  0  0  0  0  0  0  0  0  0
    7.9063    1.2354   24.6402 F   0  0  0  0  0  0  0  0  0  0  0  0
    7.1394    3.0522   23.7093 F   0  0  0  0  0  0  0  0  0  0  0  0
    8.0029    1.4009   22.2229 C   0  0  0  0  0  0  0  0  0  0  0  0
    8.4571    1.9061   21.2119 O   0  0  0  0  0  0  0  0  0  0  0  0
    7.3537    0.1901   22.2379 N   0  0  0  0  0  0  0  0  0  0  0  0
    7.3443   -0.7038   21.0577 C   0  0  0  0  0  0  0  0  0  0  0  0
    8.8069   -1.1100   20.7664 C   0  0  0  0  0  0  0  0  0  0  0  0
    8.8758   -1.8458   19.9667 H   0  0  0  0  0  0  0  0  0  0  0  0
    9.2574   -1.5446   21.6654 H   0  0  0  0  0  0  0  0  0  0  0  0
    9.3985   -0.2303   20.4920 H   0  0  0  0  0  0  0  0  0  0  0  0
    6.4140   -2.3495   21.3684 C   0  0  0  0  0  0  0  0  0  0  0  0
    5.8098   -2.7704   20.3882 O   0  0  0  0  0  0  0  0  0  0  0  0
    6.5984   -2.7645   22.5061 O   0  0  0  0  0  1  0  0  0  0  0  0
    6.6613    0.0268   19.9120 C   0  0  0  0  0  0  0  0  0  0  0  0
    5.4262    0.6637   20.1265 C   0  0  0  0  0  0  0  0  0  0  0  0
    4.7890    1.3069   19.0669 C   0  0  0  0  0  0  0  0  0  0  0  0
    5.4114    1.2960   17.8127 C   0  0  0  0  0  0  0  0  0  0  0  0
    6.5813    0.6890   17.5699 N   0  0  0  0  0  0  0  0  0  0  0  0
    7.1827    0.0869   18.6088 C   0  0  0  0  0  0  0  0  0  0  0  0
    8.1400   -0.3845   18.3824 H   0  0  0  0  0  0  0  0  0  0  0  0
    4.9458    1.7912   16.9641 H   0  0  0  0  0  0  0  0  0  0  0  0
    3.8477    1.8286   19.2021 H   0  0  0  0  0  0  0  0  0  0  0  0
    5.0048    0.6692   21.1331 H   0  0  0  0  0  0  0  0  0  0  0  0
    7.0716   -0.1540   23.1411 H   0  0  0  0  0  0  0  0  0  0  0  0
    8.7594    4.7468   23.3971 H   0  0  0  0  0  0  0  0  0  0  0  0
   10.9914    5.8374   23.5512 H   0  0  0  0  0  0  0  0  0  0  0  0
   13.0115    4.4540   24.0224 H   0  0  0  0  0  0  0  0  0  0  0  0
   12.7737    1.9927   24.3233 H   0  0  0  0  0  0  0  0  0  0  0  0
    9.7253    0.0434   23.7092 H   0  0  0  0  0  0  0  0  0  0  0  0
   11.4660    0.0232   23.7609 H   0  0  0  0  0  0  0  0  0  0  0  0
   11.4923    0.3392   26.1985 H   0  0  0  0  0  0  0  0  0  0  0  0
    9.7473    0.6232   26.2357 H   0  0  0  0  0  0  0  0  0  0  0  0
   10.3616   -0.9765   25.8196 H   0  0  0  0  0  0  0  0  0  0  0  0
  1  2  1  0
  2  3  1  0
  3  4  2  0
  4  5  1  0
  5  6  2  0
  6  7  1  0
  7  8  2  0
  8  9  1  0
  9 10  1  0
  9 11  1  0
  9 12  1  0
 12 13  2  0
 12 14  1  0
 14 15  1  0
 15 16  1  0
 16 17  1  0
 16 18  1  0
 16 19  1  0
 15 20  1  0
 20 21  2  0
 20 22  1  0
 15 23  1  0
 23 24  2  0
 24 25  1  0
 25 26  2  0
 26 27  1  0
 27 28  2  0
 28 29  1  0
 26 30  1  0
 25 31  1  0
 24 32  1  0
 14 33  1  0
  7 34  1  0
  6 35  1  0
  5 36  1  0
  4 37  1  0
  2 38  1  0
  2 39  1  0
  1 40  1  0
  1 41  1  0
  1 42  1  0
  8  3  1  0
 28 23  1  0
M  CHG  1  22  -1
M  END
>  <plip>  (1) 
-0.13793103448275862

>  <filename>  (1) 
[H][c]1[n][c]([H])[c]([C]([C](=[O])[O-])([N]([H])[C](=[O])[C]([F])([F])[c]2[c]([H])[c]([H])[c]([H])[c]([H])[c]2[C]([H])([H])[C]([H])([H])[H])[C]([H])([H])[H])[c]([H])[c]1[H]

$$$$
