
     RDKit          3D

 27 27  0  0  0  0  0  0  0  0999 V2000
    5.8554   -2.4055   24.6698 H   0  0  0  0  0  0  0  0  0  0  0  0
    6.1913   -1.6657   24.1309 O   0  0  0  0  0  0  0  0  0  0  0  0
    7.2222   -1.2652   24.8885 C   0  0  0  0  0  0  0  0  0  0  0  0
    7.4704   -1.8731   25.9017 O   0  0  0  0  0  0  0  0  0  0  0  0
    7.9636   -0.0815   24.3324 C   0  0  0  0  0  0  0  0  0  0  0  0
    8.1157    0.5928   25.1776 H   0  0  0  0  0  0  0  0  0  0  0  0
    7.3298    0.4400   23.6046 H   0  0  0  0  0  0  0  0  0  0  0  0
    9.3293   -0.4740   23.7374 C   0  0  0  0  0  0  0  0  0  0  0  0
    9.9034   -1.0165   24.4967 H   0  0  0  0  0  0  0  0  0  0  0  0
    9.8897    0.4394   23.5154 H   0  0  0  0  0  0  0  0  0  0  0  0
    9.2354   -1.3395   22.4693 C   0  0  0  0  0  0  0  0  0  0  0  0
    8.6290   -2.2341   22.6706 H   0  0  0  0  0  0  0  0  0  0  0  0
   10.2350   -1.6817   22.1703 H   0  0  0  0  0  0  0  0  0  0  0  0
    8.6010   -0.5955   21.3260 C   0  0  0  0  0  0  0  0  0  0  0  0
    9.6389    0.6264   20.6297 Cl  0  0  0  0  0  0  0  0  0  0  0  0
    7.3236   -0.7224   20.9648 C   0  0  0  0  0  0  0  0  0  0  0  0
    6.7084   -1.3789   21.5809 H   0  0  0  0  0  0  0  0  0  0  0  0
    6.6319   -0.0063   19.8805 C   0  0  0  0  0  0  0  0  0  0  0  0
    7.1586    0.0636   18.5802 C   0  0  0  0  0  0  0  0  0  0  0  0
    8.1062   -0.4229   18.3568 H   0  0  0  0  0  0  0  0  0  0  0  0
    6.5519    0.6894   17.5668 N   0  0  0  0  0  0  0  0  0  0  0  0
    5.3881    1.3028   17.8279 C   0  0  0  0  0  0  0  0  0  0  0  0
    4.9133    1.7948   16.9834 H   0  0  0  0  0  0  0  0  0  0  0  0
    4.7910    1.3175   19.0936 C   0  0  0  0  0  0  0  0  0  0  0  0
    3.8641    1.8534   19.2471 H   0  0  0  0  0  0  0  0  0  0  0  0
    5.4179    0.6401   20.1390 C   0  0  0  0  0  0  0  0  0  0  0  0
    5.0078    0.6249   21.1525 H   0  0  0  0  0  0  0  0  0  0  0  0
  1  2  1  0
  2  3  1  0
  3  4  2  0
  3  5  1  0
  5  6  1  0
  5  7  1  0
  5  8  1  0
  8  9  1  0
  8 10  1  0
  8 11  1  0
 11 12  1  0
 11 13  1  0
 11 14  1  0
 14 15  1  0
 14 16  2  3
 16 17  1  0
 16 18  1  0
 18 19  2  0
 19 20  1  0
 19 21  1  0
 21 22  2  0
 22 23  1  0
 22 24  1  0
 24 25  1  0
 24 26  2  0
 26 27  1  0
 26 18  1  0
M  END
>  <plip>  (1) 
-0.0

>  <filename>  (1) 
[H][O][C](=[O])[C]([H])([H])[C]([H])([H])[C]([H])([H])[C]([Cl])=[C]([H])[c]1[c]([H])[n][c]([H])[c]([H])[c]1[H]

$$$$
