
     RDKit          3D

 36 38  0  0  0  0  0  0  0  0999 V2000
    5.6605   -1.7038   21.7024 H   0  0  0  0  0  0  0  0  0  0  0  0
    6.7197   -1.5412   21.7956 C   0  0  0  0  0  0  0  0  0  0  0  0
    7.3841   -0.6947   20.9772 C   0  0  0  0  0  0  0  0  0  0  0  0
    6.7047    0.0482   19.9139 C   0  0  0  0  0  0  0  0  0  0  0  0
    7.2044    0.0832   18.6010 C   0  0  0  0  0  0  0  0  0  0  0  0
    8.1348   -0.4247   18.3440 H   0  0  0  0  0  0  0  0  0  0  0  0
    6.5744    0.6726   17.5789 N   0  0  0  0  0  0  0  0  0  0  0  0
    5.4101    1.2875   17.8394 C   0  0  0  0  0  0  0  0  0  0  0  0
    4.9293    1.7805   16.9968 H   0  0  0  0  0  0  0  0  0  0  0  0
    4.8187    1.3109   19.1061 C   0  0  0  0  0  0  0  0  0  0  0  0
    3.8798    1.8310   19.2552 H   0  0  0  0  0  0  0  0  0  0  0  0
    5.4627    0.6635   20.1560 C   0  0  0  0  0  0  0  0  0  0  0  0
    5.0138    0.6357   21.1533 H   0  0  0  0  0  0  0  0  0  0  0  0
    8.7564   -0.5466   21.1362 N   0  0  0  0  0  0  0  0  0  0  0  0
    9.3186    0.0825   20.5906 H   0  0  0  0  0  0  0  0  0  0  0  0
    9.4562   -1.0433   22.1823 C   0  0  0  0  0  0  0  0  0  0  0  0
   11.0611   -0.7027   22.4021 S   0  0  0  0  0  0  0  0  0  0  0  0
    8.7739   -1.8275   23.0291 N   0  0  0  0  0  0  0  0  0  0  0  0
    9.3171   -2.1113   23.8244 H   0  0  0  0  0  0  0  0  0  0  0  0
    7.4047   -2.2809   22.8681 C   0  0  1  0  0  0  0  0  0  0  0  0
    7.4118   -3.3642   22.6684 H   0  0  0  0  0  0  0  0  0  0  0  0
    6.4730   -2.1964   24.4559 S   0  0  0  0  0  0  0  0  0  0  0  0
    6.2115   -0.3942   24.6160 C   0  0  0  0  0  0  0  0  0  0  0  0
    5.6520   -0.0222   23.7563 H   0  0  0  0  0  0  0  0  0  0  0  0
    5.5639   -0.2860   25.4957 H   0  0  0  0  0  0  0  0  0  0  0  0
    7.4781    0.4047   24.7474 C   0  0  0  0  0  0  0  0  0  0  0  0
    8.3606    0.1382   25.8015 C   0  0  0  0  0  0  0  0  0  0  0  0
    8.0991   -0.6292   26.5277 H   0  0  0  0  0  0  0  0  0  0  0  0
    9.5613    0.8410   25.9118 C   0  0  0  0  0  0  0  0  0  0  0  0
   10.2381    0.6030   26.7263 H   0  0  0  0  0  0  0  0  0  0  0  0
    9.8888    1.8194   24.9677 C   0  0  0  0  0  0  0  0  0  0  0  0
   10.8265    2.3606   25.0526 H   0  0  0  0  0  0  0  0  0  0  0  0
    9.0122    2.0955   23.9119 C   0  0  0  0  0  0  0  0  0  0  0  0
    9.2666    2.8531   23.1717 H   0  0  0  0  0  0  0  0  0  0  0  0
    7.8083    1.3932   23.8102 C   0  0  0  0  0  0  0  0  0  0  0  0
    7.1340    1.5925   22.9800 H   0  0  0  0  0  0  0  0  0  0  0  0
  1  2  1  0
  2  3  2  0
  3  4  1  0
  4  5  2  0
  5  6  1  0
  5  7  1  0
  7  8  2  0
  8  9  1  0
  8 10  1  0
 10 11  1  0
 10 12  2  0
 12 13  1  0
  3 14  1  0
 14 15  1  0
 14 16  1  0
 16 17  2  0
 16 18  1  0
 18 19  1  0
 18 20  1  0
 20 21  1  6
 20 22  1  0
 22 23  1  0
 23 24  1  0
 23 25  1  0
 23 26  1  0
 26 27  2  0
 27 28  1  0
 27 29  1  0
 29 30  1  0
 29 31  2  0
 31 32  1  0
 31 33  1  0
 33 34  1  0
 33 35  2  0
 35 36  1  0
 20  2  1  0
 35 26  1  0
 12  4  1  0
M  END
>  <plip>  (1) 
-0.06896551724137931

>  <filename>  (1) 
[H][C]1=[C]([c]2[c]([H])[n][c]([H])[c]([H])[c]2[H])[N]([H])[C](=[S])[N]([H])[C@@]1([H])[S][C]([H])([H])[c]1[c]([H])[c]([H])[c]([H])[c]([H])[c]1[H]

$$$$
