
     RDKit          3D

 45 48  0  0  0  0  0  0  0  0999 V2000
    5.0492    1.8038   16.7855 H   0  0  0  0  0  0  0  0  0  0  0  0
    5.4587    1.3255   17.6756 C   0  0  0  0  0  0  0  0  0  0  0  0
    6.5863    0.6226   17.5013 N   0  0  0  0  0  0  0  0  0  0  0  0
    7.1066    0.0327   18.5858 C   0  0  0  0  0  0  0  0  0  0  0  0
    8.0219   -0.5284   18.4155 H   0  0  0  0  0  0  0  0  0  0  0  0
    6.5731    0.1213   19.8973 C   0  0  0  0  0  0  0  0  0  0  0  0
    7.2597   -0.5050   21.0518 C   0  0  0  0  0  0  0  0  0  0  0  0
    7.2678   -0.0668   22.3432 C   0  0  0  0  0  0  0  0  0  0  0  0
    6.8792    1.2238   22.7290 N   0  0  0  0  0  0  0  0  0  0  0  0
    7.5650    2.3661   22.0904 C   0  0  0  0  0  0  0  0  0  0  0  0
    7.8952    2.0831   21.0846 H   0  0  0  0  0  0  0  0  0  0  0  0
    6.8431    3.1906   21.9788 H   0  0  0  0  0  0  0  0  0  0  0  0
    8.7624    2.8523   22.9326 C   0  0  0  0  0  0  0  0  0  0  0  0
    9.2150    3.7419   22.4777 H   0  0  0  0  0  0  0  0  0  0  0  0
    9.5331    2.0684   22.9710 H   0  0  0  0  0  0  0  0  0  0  0  0
    8.3113    3.1963   24.3592 C   0  0  0  0  0  0  0  0  0  0  0  0
    9.1834    3.4876   24.9720 H   0  0  0  0  0  0  0  0  0  0  0  0
    7.4211    4.2974   24.2178 O   0  0  0  0  0  0  0  0  0  0  0  0
    7.1968    5.1237   25.3357 C   0  0  0  0  0  0  0  0  0  0  0  0
    8.0886    5.7143   25.5984 H   0  0  0  0  0  0  0  0  0  0  0  0
    6.8712    4.5650   26.2267 H   0  0  0  0  0  0  0  0  0  0  0  0
    6.3951    5.8113   25.0468 H   0  0  0  0  0  0  0  0  0  0  0  0
    7.6026    1.9842   24.9986 C   0  0  0  0  0  0  0  0  0  0  0  0
    7.2369    2.2324   26.0029 H   0  0  0  0  0  0  0  0  0  0  0  0
    8.3421    1.1837   25.1173 H   0  0  0  0  0  0  0  0  0  0  0  0
    6.4470    1.5170   24.0980 C   0  0  0  0  0  0  0  0  0  0  0  0
    5.7064    2.3277   24.0430 H   0  0  0  0  0  0  0  0  0  0  0  0
    5.9334    0.6423   24.5083 H   0  0  0  0  0  0  0  0  0  0  0  0
    7.8208   -1.1008   23.2888 C   0  0  0  0  0  0  0  0  0  0  0  0
    7.0257   -1.5256   23.9191 H   0  0  0  0  0  0  0  0  0  0  0  0
    8.5500   -0.6498   23.9742 H   0  0  0  0  0  0  0  0  0  0  0  0
    8.4674   -2.1416   22.3563 C   0  0  0  0  0  0  0  0  0  0  0  0
    8.0219   -1.7987   20.9302 C   0  0  0  0  0  0  0  0  0  0  0  0
    7.3809   -2.5890   20.5157 H   0  0  0  0  0  0  0  0  0  0  0  0
    8.8793   -1.6928   20.2484 H   0  0  0  0  0  0  0  0  0  0  0  0
    9.8494   -2.6582   22.6373 C   0  0  0  0  0  0  0  0  0  0  0  0
   10.5673   -2.7488   21.8229 H   0  0  0  0  0  0  0  0  0  0  0  0
   10.3026   -2.4104   23.5929 H   0  0  0  0  0  0  0  0  0  0  0  0
    8.6640   -3.5789   22.7239 C   0  0  0  0  0  0  0  0  0  0  0  0
    8.3532   -3.9097   23.7118 H   0  0  0  0  0  0  0  0  0  0  0  0
    8.5104   -4.3269   21.9518 H   0  0  0  0  0  0  0  0  0  0  0  0
    5.3653    0.8381   20.0338 C   0  0  0  0  0  0  0  0  0  0  0  0
    4.8987    0.9287   21.0158 H   0  0  0  0  0  0  0  0  0  0  0  0
    4.8029    1.4408   18.9062 C   0  0  0  0  0  0  0  0  0  0  0  0
    3.8802    2.0097   18.9737 H   0  0  0  0  0  0  0  0  0  0  0  0
  1  2  1  0
  2  3  2  0
  3  4  1  0
  4  5  1  0
  4  6  2  0
  6  7  1  0
  7  8  2  0
  8  9  1  0
  9 10  1  0
 10 11  1  0
 10 12  1  0
 10 13  1  0
 13 14  1  0
 13 15  1  0
 13 16  1  0
 16 17  1  0
 16 18  1  0
 18 19  1  0
 19 20  1  0
 19 21  1  0
 19 22  1  0
 16 23  1  0
 23 24  1  0
 23 25  1  0
 23 26  1  0
 26 27  1  0
 26 28  1  0
  8 29  1  0
 29 30  1  0
 29 31  1  0
 29 32  1  0
 32 33  1  0
 33 34  1  0
 33 35  1  0
 32 36  1  0
 36 37  1  0
 36 38  1  0
 36 39  1  0
 39 40  1  0
 39 41  1  0
  6 42  1  0
 42 43  1  0
 42 44  2  0
 44 45  1  0
 44  2  1  0
 33  7  1  0
 26  9  1  0
 39 32  1  0
M  END
>  <plip>  (1) 
-0.07142857142857142

>  <filename>  (1) 
[H][c]1[n][c]([H])[c]([C]2=[C]([N]3[C]([H])([H])[C]([H])([H])[C]([H])([O][C]([H])([H])[H])[C]([H])([H])[C]3([H])[H])[C]([H])([H])[C]3([C]2([H])[H])[C]([H])([H])[C]3([H])[H])[c]([H])[c]1[H]

$$$$
