
     RDKit          3D

 35 37  0  0  0  0  0  0  0  0999 V2000
    4.9187    1.7358   17.1127 H   0  0  0  0  0  0  0  0  0  0  0  0
    5.4156    1.2086   17.9247 C   0  0  0  0  0  0  0  0  0  0  0  0
    6.5677    0.5908   17.6160 N   0  0  0  0  0  0  0  0  0  0  0  0
    7.2531    0.0066   18.6119 C   0  0  0  0  0  0  0  0  0  0  0  0
    8.1768   -0.5018   18.3321 H   0  0  0  0  0  0  0  0  0  0  0  0
    6.8214    0.0147   19.9716 C   0  0  0  0  0  0  0  0  0  0  0  0
    7.5478   -0.3873   21.1604 N   0  0  0  0  0  0  0  0  0  0  0  0
    7.2611   -1.1971   21.6872 H   0  0  0  0  0  0  0  0  0  0  0  0
    9.1526   -0.7265   21.0590 S   0  0  0  0  0  0  0  0  0  0  0  0
    9.3374   -1.8713   20.1922 O   0  0  0  0  0  0  0  0  0  0  0  0
    9.8787    0.5053   20.8517 O   0  0  0  0  0  0  0  0  0  0  0  0
    9.2583   -1.3183   22.6326 N   0  0  0  0  0  0  0  0  0  0  0  0
    9.5802   -0.2409   23.6000 C   0  0  0  0  0  0  0  0  0  0  0  0
    9.4885   -0.7030   24.5963 H   0  0  0  0  0  0  0  0  0  0  0  0
    8.8126    0.5422   23.5705 H   0  0  0  0  0  0  0  0  0  0  0  0
   10.9862    0.3292   23.4195 C   0  0  0  0  0  0  0  0  0  0  0  0
   11.2720    1.6347   23.8366 C   0  0  0  0  0  0  0  0  0  0  0  0
   10.4893    2.2237   24.3107 H   0  0  0  0  0  0  0  0  0  0  0  0
   12.5388    2.1913   23.6270 C   0  0  0  0  0  0  0  0  0  0  0  0
   12.7340    3.2207   23.9168 H   0  0  0  0  0  0  0  0  0  0  0  0
   13.5323    1.4338   23.0030 C   0  0  0  0  0  0  0  0  0  0  0  0
   14.5150    1.8610   22.8160 H   0  0  0  0  0  0  0  0  0  0  0  0
   13.2558    0.1242   22.5914 C   0  0  0  0  0  0  0  0  0  0  0  0
   14.0110   -0.4617   22.0712 H   0  0  0  0  0  0  0  0  0  0  0  0
   11.9932   -0.4451   22.8047 C   0  0  0  0  0  0  0  0  0  0  0  0
   11.6829   -1.8468   22.2835 C   0  0  0  0  0  0  0  0  0  0  0  0
   12.4688   -2.5627   22.5416 H   0  0  0  0  0  0  0  0  0  0  0  0
   11.6778   -1.8119   21.1877 H   0  0  0  0  0  0  0  0  0  0  0  0
   10.3173   -2.3593   22.7584 C   0  0  0  0  0  0  0  0  0  0  0  0
   10.0087   -3.2610   22.2266 H   0  0  0  0  0  0  0  0  0  0  0  0
   10.3628   -2.6279   23.8247 H   0  0  0  0  0  0  0  0  0  0  0  0
    5.5804    0.5779   20.2432 C   0  0  0  0  0  0  0  0  0  0  0  0
    5.2339    0.5358   21.2728 H   0  0  0  0  0  0  0  0  0  0  0  0
    4.8739    1.2061   19.2136 C   0  0  0  0  0  0  0  0  0  0  0  0
    3.9455    1.7256   19.4123 H   0  0  0  0  0  0  0  0  0  0  0  0
  1  2  1  0
  2  3  2  0
  3  4  1  0
  4  5  1  0
  4  6  2  0
  6  7  1  0
  7  8  1  0
  7  9  1  0
  9 10  2  0
  9 11  2  0
  9 12  1  0
 12 13  1  0
 13 14  1  0
 13 15  1  0
 13 16  1  0
 16 17  2  0
 17 18  1  0
 17 19  1  0
 19 20  1  0
 19 21  2  0
 21 22  1  0
 21 23  1  0
 23 24  1  0
 23 25  2  0
 25 26  1  0
 26 27  1  0
 26 28  1  0
 26 29  1  0
 29 30  1  0
 29 31  1  0
  6 32  1  0
 32 33  1  0
 32 34  2  0
 34 35  1  0
 34  2  1  0
 29 12  1  0
 25 16  1  0
M  END
>  <plip>  (1) 
-0.10714285714285714

>  <filename>  (1) 
[H][c]1[n][c]([H])[c]([N]([H])[S](=[O])(=[O])[N]2[C]([H])([H])[c]3[c]([H])[c]([H])[c]([H])[c]([H])[c]3[C]([H])([H])[C]2([H])[H])[c]([H])[c]1[H]

$$$$
