
     RDKit          3D

 35 36  0  0  0  0  0  0  0  0999 V2000
    6.4753    0.5669   22.7984 O   0  0  0  0  0  0  0  0  0  0  0  0
    7.0550   -0.4049   22.3608 C   0  0  0  0  0  0  0  0  0  0  0  0
    7.6373   -1.4524   23.2960 C   0  0  0  0  0  0  0  0  0  0  0  0
    6.5579   -2.2040   24.0985 C   0  0  0  0  0  0  0  0  0  0  0  0
    7.1760   -2.8789   25.3367 C   0  0  0  0  0  0  0  0  0  0  0  0
    6.1160   -3.6523   26.1415 C   0  0  0  0  0  0  0  0  0  0  0  0
    5.4351   -4.6996   25.2374 C   0  0  0  0  0  0  0  0  0  0  0  0
    4.8181   -4.0891   23.9654 C   0  0  0  0  0  0  0  0  0  0  0  0
    3.6990   -3.2701   24.2704 O   0  0  0  0  0  0  0  0  0  0  0  0
    3.2199   -3.7146   24.9785 H   0  0  0  0  0  0  0  0  0  0  0  0
    5.8348   -3.2342   23.2034 C   0  0  0  0  0  0  0  0  0  0  0  0
    5.3312   -2.7260   22.3686 H   0  0  0  0  0  0  0  0  0  0  0  0
    6.5757   -3.9246   22.7676 H   0  0  0  0  0  0  0  0  0  0  0  0
    4.4838   -4.9098   23.3106 H   0  0  0  0  0  0  0  0  0  0  0  0
    6.2033   -5.4194   24.9132 H   0  0  0  0  0  0  0  0  0  0  0  0
    4.6596   -5.2640   25.7827 H   0  0  0  0  0  0  0  0  0  0  0  0
    5.3696   -2.9455   26.5396 H   0  0  0  0  0  0  0  0  0  0  0  0
    6.5730   -4.1455   27.0072 H   0  0  0  0  0  0  0  0  0  0  0  0
    7.9708   -3.5726   25.0093 H   0  0  0  0  0  0  0  0  0  0  0  0
    7.6666   -2.1094   25.9532 H   0  0  0  0  0  0  0  0  0  0  0  0
    5.8097   -1.4771   24.4547 H   0  0  0  0  0  0  0  0  0  0  0  0
    8.2798   -0.8863   23.9788 H   0  0  0  0  0  0  0  0  0  0  0  0
    8.2666   -2.1786   22.7658 H   0  0  0  0  0  0  0  0  0  0  0  0
    7.2452   -0.6486   21.0170 N   0  0  0  0  0  0  0  0  0  0  0  0
    6.6512    0.0154   19.9112 C   0  0  0  0  0  0  0  0  0  0  0  0
    5.4905    0.7823   20.0749 C   0  0  0  0  0  0  0  0  0  0  0  0
    4.9267    1.3783   18.9424 C   0  0  0  0  0  0  0  0  0  0  0  0
    5.5384    1.2188   17.6974 C   0  0  0  0  0  0  0  0  0  0  0  0
    6.6588    0.4976   17.5226 N   0  0  0  0  0  0  0  0  0  0  0  0
    7.1876   -0.0902   18.6032 C   0  0  0  0  0  0  0  0  0  0  0  0
    8.0817   -0.6877   18.4276 H   0  0  0  0  0  0  0  0  0  0  0  0
    5.1232    1.6834   16.8070 H   0  0  0  0  0  0  0  0  0  0  0  0
    4.0168    1.9604   19.0198 H   0  0  0  0  0  0  0  0  0  0  0  0
    5.0671    0.8896   21.0681 H   0  0  0  0  0  0  0  0  0  0  0  0
    7.7865   -1.4727   20.8195 H   0  0  0  0  0  0  0  0  0  0  0  0
  1  2  2  0
  2  3  1  0
  3  4  1  0
  4  5  1  0
  5  6  1  0
  6  7  1  0
  7  8  1  0
  8  9  1  0
  9 10  1  0
  8 11  1  0
 11 12  1  0
 11 13  1  0
  8 14  1  0
  7 15  1  0
  7 16  1  0
  6 17  1  0
  6 18  1  0
  5 19  1  0
  5 20  1  0
  4 21  1  0
  3 22  1  0
  3 23  1  0
  2 24  1  0
 24 25  1  0
 25 26  2  0
 26 27  1  0
 27 28  2  0
 28 29  1  0
 29 30  2  0
 30 31  1  0
 28 32  1  0
 27 33  1  0
 26 34  1  0
 24 35  1  0
 11  4  1  0
 30 25  1  0
M  END
>  <plip>  (1) 
-0.07142857142857142

>  <filename>  (1) 
[H][O][C]1([H])[C]([H])([H])[C]([H])([H])[C]([H])([H])[C]([H])([C]([H])([H])[C](=[O])[N]([H])[c]2[c]([H])[n][c]([H])[c]([H])[c]2[H])[C]1([H])[H]

$$$$
