
     RDKit          3D

 39 42  0  0  0  0  0  0  0  0999 V2000
    5.0736   -6.2191   21.5658 C   0  0  0  0  0  0  0  0  0  0  0  0
    5.2306   -4.9710   22.4606 C   0  0  0  0  0  0  0  0  0  0  0  0
    5.8041   -5.2947   23.8454 C   0  0  0  0  0  0  0  0  0  0  0  0
    5.0374   -5.1406   25.0089 C   0  0  0  0  0  0  0  0  0  0  0  0
    5.5802   -5.4477   26.2644 C   0  0  0  0  0  0  0  0  0  0  0  0
    6.9051   -5.8794   26.3733 C   0  0  0  0  0  0  0  0  0  0  0  0
    7.6662   -5.9842   25.2126 C   0  0  0  0  0  0  0  0  0  0  0  0
    8.9581   -6.3476   25.3096 F   0  0  0  0  0  0  0  0  0  0  0  0
    7.1423   -5.7165   23.9554 C   0  0  0  0  0  0  0  0  0  0  0  0
    7.7792   -5.7823   23.0788 H   0  0  0  0  0  0  0  0  0  0  0  0
    7.3582   -6.1287   27.3258 H   0  0  0  0  0  0  0  0  0  0  0  0
    4.9745   -5.3392   27.1615 H   0  0  0  0  0  0  0  0  0  0  0  0
    4.0317   -4.7369   24.9433 H   0  0  0  0  0  0  0  0  0  0  0  0
    6.1227   -3.9501   21.8153 C   0  0  0  0  0  0  0  0  0  0  0  0
    7.2881   -4.2823   21.3202 N   0  0  0  0  0  0  0  0  0  0  0  0
    7.8585   -3.0676   21.0245 O   0  0  0  0  0  0  0  0  0  0  0  0
    6.9596   -2.1196   21.3032 C   0  0  0  0  0  0  0  0  0  0  0  0
    7.3560   -0.6955   21.0443 C   0  0  0  0  0  0  0  0  0  0  0  0
    6.6465    0.0113   19.9163 C   0  0  0  0  0  0  0  0  0  0  0  0
    5.4189    0.6402   20.1367 C   0  0  0  0  0  0  0  0  0  0  0  0
    4.7981    1.2988   19.0741 C   0  0  0  0  0  0  0  0  0  0  0  0
    5.4189    1.3005   17.8202 C   0  0  0  0  0  0  0  0  0  0  0  0
    6.5853    0.6804   17.5784 N   0  0  0  0  0  0  0  0  0  0  0  0
    7.1723    0.0624   18.6122 C   0  0  0  0  0  0  0  0  0  0  0  0
    8.1142   -0.4432   18.3929 H   0  0  0  0  0  0  0  0  0  0  0  0
    4.9637    1.8180   16.9758 H   0  0  0  0  0  0  0  0  0  0  0  0
    3.8561    1.8168   19.2064 H   0  0  0  0  0  0  0  0  0  0  0  0
    4.9731    0.6077   21.1346 H   0  0  0  0  0  0  0  0  0  0  0  0
    7.7447    0.1130   22.2749 C   0  0  0  0  0  0  0  0  0  0  0  0
    8.7969   -0.3225   21.3033 C   0  0  0  0  0  0  0  0  0  0  0  0
    9.4664   -1.1246   21.6059 H   0  0  0  0  0  0  0  0  0  0  0  0
    9.2374    0.4454   20.6674 H   0  0  0  0  0  0  0  0  0  0  0  0
    7.4797    1.1697   22.3091 H   0  0  0  0  0  0  0  0  0  0  0  0
    7.6805   -0.3993   23.2322 H   0  0  0  0  0  0  0  0  0  0  0  0
    5.8548   -2.6108   21.7940 N   0  0  0  0  0  0  0  0  0  0  0  0
    4.2599   -4.4783   22.5809 H   0  0  0  0  0  0  0  0  0  0  0  0
    4.2154   -6.8144   21.8997 H   0  0  0  0  0  0  0  0  0  0  0  0
    5.9699   -6.8520   21.6033 H   0  0  0  0  0  0  0  0  0  0  0  0
    4.9326   -5.9133   20.5244 H   0  0  0  0  0  0  0  0  0  0  0  0
  1  2  1  0
  2  3  1  0
  3  4  2  0
  4  5  1  0
  5  6  2  0
  6  7  1  0
  7  8  1  0
  7  9  2  0
  9 10  1  0
  6 11  1  0
  5 12  1  0
  4 13  1  0
  2 14  1  0
 14 15  2  0
 15 16  1  0
 16 17  1  0
 17 18  1  0
 18 19  1  0
 19 20  2  0
 20 21  1  0
 21 22  2  0
 22 23  1  0
 23 24  2  0
 24 25  1  0
 22 26  1  0
 21 27  1  0
 20 28  1  0
 18 29  1  0
 29 30  1  0
 30 31  1  0
 30 32  1  0
 29 33  1  0
 29 34  1  0
 17 35  2  0
  2 36  1  0
  1 37  1  0
  1 38  1  0
  1 39  1  0
  9  3  1  0
 35 14  1  0
 30 18  1  0
 24 19  1  0
M  END
>  <plip>  (1) 
-0.06451612903225806

>  <filename>  (1) 
[H][c]1[n][c]([H])[c]([C]2([c]3[n][c]([C]([H])([c]4[c]([H])[c]([H])[c]([H])[c]([F])[c]4[H])[C]([H])([H])[H])[n][o]3)[C]([H])([H])[C]2([H])[H])[c]([H])[c]1[H]

$$$$
