
     RDKit          3D

 31 33  0  0  0  0  0  0  0  0999 V2000
    9.7199    1.6170   21.7457 H   0  0  0  0  0  0  0  0  0  0  0  0
    9.4356    0.5855   21.9670 C   0  0  0  0  0  0  0  0  0  0  0  0
   10.4322   -0.3057   22.0991 C   0  0  0  0  0  0  0  0  0  0  0  0
   12.1422    0.1659   21.9501 S   0  0  0  0  0  0  0  0  0  0  0  0
   12.6848   -1.5066   21.9075 C   0  0  0  0  0  0  0  0  0  0  0  0
   14.1778   -2.0107   21.5030 S   0  0  0  0  0  0  0  0  0  0  0  0
   11.6428   -2.3019   22.2743 N   0  0  0  0  0  0  0  0  0  0  0  0
   11.7454   -3.3023   22.3145 H   0  0  0  0  0  0  0  0  0  0  0  0
   10.3625   -1.7812   22.3350 C   0  0  0  0  0  0  0  0  0  0  0  0
    9.3982   -2.4854   22.5289 O   0  0  0  0  0  0  0  0  0  0  0  0
    7.9638    0.2987   22.0763 C   0  0  2  0  0  0  0  0  0  0  0  0
    7.4679    1.2707   21.9415 H   0  0  0  0  0  0  0  0  0  0  0  0
    7.5216   -0.2615   23.4615 C   0  0  0  0  0  0  0  0  0  0  0  0
    8.3617   -0.6210   24.0738 H   0  0  0  0  0  0  0  0  0  0  0  0
    7.0094    0.5162   24.0480 H   0  0  0  0  0  0  0  0  0  0  0  0
    6.6261   -1.3305   23.1099 N   0  0  0  0  0  0  0  0  0  0  0  0
    6.0914   -1.8992   23.7415 H   0  0  0  0  0  0  0  0  0  0  0  0
    6.5173   -1.6679   21.8070 C   0  0  0  0  0  0  0  0  0  0  0  0
    5.8274   -2.5824   21.3993 O   0  0  0  0  0  0  0  0  0  0  0  0
    7.4053   -0.7005   21.0086 C   0  0  1  0  0  0  0  0  0  0  0  0
    8.2037   -1.3134   20.5764 H   0  0  0  0  0  0  0  0  0  0  0  0
    6.6635    0.0044   19.8879 C   0  0  0  0  0  0  0  0  0  0  0  0
    7.1737    0.0666   18.5809 C   0  0  0  0  0  0  0  0  0  0  0  0
    8.1237   -0.4162   18.3464 H   0  0  0  0  0  0  0  0  0  0  0  0
    6.5637    0.6862   17.5654 N   0  0  0  0  0  0  0  0  0  0  0  0
    5.3988    1.2962   17.8292 C   0  0  0  0  0  0  0  0  0  0  0  0
    4.9170    1.7923   16.9894 H   0  0  0  0  0  0  0  0  0  0  0  0
    4.8085    1.3088   19.0958 C   0  0  0  0  0  0  0  0  0  0  0  0
    3.8798    1.8402   19.2508 H   0  0  0  0  0  0  0  0  0  0  0  0
    5.4469    0.6481   20.1440 C   0  0  0  0  0  0  0  0  0  0  0  0
    5.0145    0.6294   21.1473 H   0  0  0  0  0  0  0  0  0  0  0  0
  1  2  1  0
  2  3  2  3
  3  4  1  0
  4  5  1  0
  5  6  2  0
  5  7  1  0
  7  8  1  0
  7  9  1  0
  9 10  2  0
  2 11  1  0
 11 12  1  6
 11 13  1  0
 13 14  1  0
 13 15  1  0
 13 16  1  0
 16 17  1  0
 16 18  1  0
 18 19  2  0
 18 20  1  0
 20 21  1  6
 20 22  1  0
 22 23  2  0
 23 24  1  0
 23 25  1  0
 25 26  2  0
 26 27  1  0
 26 28  1  0
 28 29  1  0
 28 30  2  0
 30 31  1  0
  9  3  1  0
 20 11  1  0
 30 22  1  0
M  END
>  <plip>  (1) 
-0.06896551724137931

>  <filename>  (1) 
[H][C](=[C]1[S][C](=[S])[N]([H])[C]1=[O])[C@]1([H])[C]([H])([H])[N]([H])[C](=[O])[C@@]1([H])[c]1[c]([H])[n][c]([H])[c]([H])[c]1[H]

$$$$
