
     RDKit          3D

 37 39  0  0  0  0  0  0  0  0999 V2000
    7.3614   -2.5004   20.0735 H   0  0  0  0  0  0  0  0  0  0  0  0
    7.7377   -1.9259   20.9049 C   0  0  0  0  0  0  0  0  0  0  0  0
    7.3659   -0.6509   21.0462 C   0  0  0  0  0  0  0  0  0  0  0  0
    6.6588    0.0555   19.9410 C   0  0  0  0  0  0  0  0  0  0  0  0
    7.1636    0.0649   18.6187 C   0  0  0  0  0  0  0  0  0  0  0  0
    8.1065   -0.4333   18.3895 H   0  0  0  0  0  0  0  0  0  0  0  0
    6.5635    0.6691   17.5858 N   0  0  0  0  0  0  0  0  0  0  0  0
    5.4017    1.2945   17.8311 C   0  0  0  0  0  0  0  0  0  0  0  0
    4.9412    1.7912   16.9826 H   0  0  0  0  0  0  0  0  0  0  0  0
    4.7904    1.3326   19.0882 C   0  0  0  0  0  0  0  0  0  0  0  0
    3.8458    1.8538   19.2163 H   0  0  0  0  0  0  0  0  0  0  0  0
    5.4319    0.7082   20.1592 C   0  0  0  0  0  0  0  0  0  0  0  0
    4.9872    0.6925   21.1537 H   0  0  0  0  0  0  0  0  0  0  0  0
    7.6541    0.0065   22.3878 C   0  0  0  0  0  0  0  0  0  0  0  0
    7.0505    0.9044   22.5474 H   0  0  0  0  0  0  0  0  0  0  0  0
    8.7028    0.3319   22.4315 H   0  0  0  0  0  0  0  0  0  0  0  0
    7.4168   -0.9899   23.5313 C   0  0  0  0  0  0  0  0  0  0  0  0
    7.7408   -0.5623   24.4844 H   0  0  0  0  0  0  0  0  0  0  0  0
    6.3449   -1.1953   23.6376 H   0  0  0  0  0  0  0  0  0  0  0  0
    8.1366   -2.2534   23.3107 N   0  0  0  0  0  0  0  0  0  0  0  0
    8.2938   -3.1258   24.3465 C   0  0  0  0  0  0  0  0  0  0  0  0
    7.4678   -2.9418   25.3934 N   0  0  0  0  0  0  0  0  0  0  0  0
    7.6179   -3.7785   26.3985 C   0  0  0  0  0  0  0  0  0  0  0  0
    6.8157   -3.7044   27.4731 O   0  0  0  0  0  0  0  0  0  0  0  0
    5.8042   -2.7155   27.5616 C   0  0  0  0  0  0  0  0  0  0  0  0
    6.2253   -1.7093   27.4848 H   0  0  0  0  0  0  0  0  0  0  0  0
    5.0572   -2.8385   26.7730 H   0  0  0  0  0  0  0  0  0  0  0  0
    5.3447   -2.8618   28.5412 H   0  0  0  0  0  0  0  0  0  0  0  0
    8.5803   -4.7939   26.4909 C   0  0  0  0  0  0  0  0  0  0  0  0
    8.5901   -5.3732   27.4082 H   0  0  0  0  0  0  0  0  0  0  0  0
    9.4342   -4.9634   25.4146 C   0  0  0  0  0  0  0  0  0  0  0  0
   10.2073   -5.7357   25.4343 H   0  0  0  0  0  0  0  0  0  0  0  0
    9.2867   -4.1268   24.3032 C   0  0  0  0  0  0  0  0  0  0  0  0
    9.9263   -4.1926   23.4333 H   0  0  0  0  0  0  0  0  0  0  0  0
    8.5553   -2.6340   21.9553 C   0  0  0  0  0  0  0  0  0  0  0  0
    8.4268   -3.7109   21.8002 H   0  0  0  0  0  0  0  0  0  0  0  0
    9.6251   -2.4041   21.8137 H   0  0  0  0  0  0  0  0  0  0  0  0
  1  2  1  0
  2  3  2  0
  3  4  1  0
  4  5  2  0
  5  6  1  0
  5  7  1  0
  7  8  2  0
  8  9  1  0
  8 10  1  0
 10 11  1  0
 10 12  2  0
 12 13  1  0
  3 14  1  0
 14 15  1  0
 14 16  1  0
 14 17  1  0
 17 18  1  0
 17 19  1  0
 17 20  1  0
 20 21  1  0
 21 22  2  0
 22 23  1  0
 23 24  1  0
 24 25  1  0
 25 26  1  0
 25 27  1  0
 25 28  1  0
 23 29  2  0
 29 30  1  0
 29 31  1  0
 31 32  1  0
 31 33  2  0
 33 34  1  0
 20 35  1  0
 35 36  1  0
 35 37  1  0
 35  2  1  0
 12  4  1  0
 33 21  1  0
M  END
>  <plip>  (1) 
-0.03571428571428571

>  <filename>  (1) 
[H][C]1=[C]([c]2[c]([H])[n][c]([H])[c]([H])[c]2[H])[C]([H])([H])[C]([H])([H])[N]([c]2[n][c]([O][C]([H])([H])[H])[c]([H])[c]([H])[c]2[H])[C]1([H])[H]

$$$$
