
     RDKit          3D

 45 47  0  0  0  0  0  0  0  0999 V2000
    7.8761   -1.9477   20.6343 O   0  0  0  0  0  0  0  0  0  0  0  0
    7.2511   -0.7384   21.0360 C   0  0  0  0  0  0  0  0  0  0  0  0
    8.3481    0.1936   21.5554 C   0  0  0  0  0  0  0  0  0  0  0  0
    9.0798   -0.3208   22.7517 N   0  0  0  0  0  4  0  0  0  0  0  0
    8.3121   -0.2918   24.0464 C   0  0  0  0  0  0  0  0  0  0  0  0
    9.3984   -0.4531   25.1074 C   0  0  0  0  0  0  0  0  0  0  0  0
   10.6551    0.2032   24.5104 C   0  0  0  0  0  0  0  0  0  0  0  0
   10.3569    0.4292   23.0201 C   0  0  1  0  0  0  0  0  0  0  0  0
   11.4974    0.0019   22.0955 C   0  0  0  0  0  0  0  0  0  0  0  0
   12.6753    0.7196   22.4011 O   0  0  0  0  0  0  0  0  0  0  0  0
   12.7336    2.0675   22.1633 C   0  0  0  0  0  0  0  0  0  0  0  0
   12.1435    2.7274   21.0752 C   0  0  0  0  0  0  0  0  0  0  0  0
   12.5056    4.0579   20.8012 C   0  0  0  0  0  0  0  0  0  0  0  0
   13.4462    4.7151   21.6001 C   0  0  0  0  0  0  0  0  0  0  0  0
   13.9694    4.0675   22.7241 C   0  0  0  0  0  0  0  0  0  0  0  0
   13.5850    2.7665   23.0251 C   0  0  0  0  0  0  0  0  0  0  0  0
   13.9627    2.2219   23.8819 H   0  0  0  0  0  0  0  0  0  0  0  0
   14.7076    4.5533   23.3554 H   0  0  0  0  0  0  0  0  0  0  0  0
   13.7831    5.7133   21.3322 H   0  0  0  0  0  0  0  0  0  0  0  0
   12.0628    4.5688   19.9471 H   0  0  0  0  0  0  0  0  0  0  0  0
   11.5001    2.1781   20.3963 H   0  0  0  0  0  0  0  0  0  0  0  0
   11.2221    0.1158   21.0386 H   0  0  0  0  0  0  0  0  0  0  0  0
   11.7444   -1.0581   22.2497 H   0  0  0  0  0  0  0  0  0  0  0  0
   10.1464    1.4925   22.8457 H   0  0  0  0  0  0  0  0  0  0  0  0
   11.5357   -0.4323   24.6408 H   0  0  0  0  0  0  0  0  0  0  0  0
   10.8986    1.1617   24.9759 H   0  0  0  0  0  0  0  0  0  0  0  0
    9.1017   -0.0044   26.0609 H   0  0  0  0  0  0  0  0  0  0  0  0
    9.5735   -1.5205   25.2851 H   0  0  0  0  0  0  0  0  0  0  0  0
    7.5645   -1.0918   24.0862 H   0  0  0  0  0  0  0  0  0  0  0  0
    7.7968    0.6744   24.1343 H   0  0  0  0  0  0  0  0  0  0  0  0
    9.3170   -1.3236   22.5465 H   0  0  0  0  0  0  0  0  0  0  0  0
    7.9090    1.1730   21.7819 H   0  0  0  0  0  0  0  0  0  0  0  0
    9.0527    0.3439   20.7280 H   0  0  0  0  0  0  0  0  0  0  0  0
    6.5324   -0.0933   19.8726 C   0  0  0  0  0  0  0  0  0  0  0  0
    5.3646    0.6590   20.0596 C   0  0  0  0  0  0  0  0  0  0  0  0
    4.8310    1.3518   18.9703 C   0  0  0  0  0  0  0  0  0  0  0  0
    5.4774    1.2698   17.7336 C   0  0  0  0  0  0  0  0  0  0  0  0
    6.5920    0.5523   17.5319 N   0  0  0  0  0  0  0  0  0  0  0  0
    7.0903   -0.1127   18.5796 C   0  0  0  0  0  0  0  0  0  0  0  0
    7.9972   -0.6808   18.3779 H   0  0  0  0  0  0  0  0  0  0  0  0
    5.0810    1.7966   16.8661 H   0  0  0  0  0  0  0  0  0  0  0  0
    3.9421    1.9631   19.0687 H   0  0  0  0  0  0  0  0  0  0  0  0
    4.8793    0.7016   21.0378 H   0  0  0  0  0  0  0  0  0  0  0  0
    6.5419   -0.9253   21.8645 H   0  0  0  0  0  0  0  0  0  0  0  0
    7.3136   -2.2985   19.9253 H   0  0  0  0  0  0  0  0  0  0  0  0
  1  2  1  0
  2  3  1  0
  3  4  1  0
  4  5  1  0
  5  6  1  0
  6  7  1  0
  7  8  1  0
  8  9  1  0
  9 10  1  0
 10 11  1  0
 11 12  2  0
 12 13  1  0
 13 14  2  0
 14 15  1  0
 15 16  2  0
 16 17  1  0
 15 18  1  0
 14 19  1  0
 13 20  1  0
 12 21  1  0
  9 22  1  0
  9 23  1  0
  8 24  1  1
  7 25  1  0
  7 26  1  0
  6 27  1  0
  6 28  1  0
  5 29  1  0
  5 30  1  0
  4 31  1  0
  3 32  1  0
  3 33  1  0
  2 34  1  0
 34 35  2  0
 35 36  1  0
 36 37  2  0
 37 38  1  0
 38 39  2  0
 39 40  1  0
 37 41  1  0
 36 42  1  0
 35 43  1  0
  2 44  1  0
  1 45  1  0
  8  4  1  0
 16 11  1  0
 39 34  1  0
M  CHG  1   4   1
M  END
>  <plip>  (1) 
-0.1

>  <filename>  (1) 
[H][O][C]([H])([c]1[c]([H])[n][c]([H])[c]([H])[c]1[H])[C]([H])([H])[N+]1([H])[C]([H])([H])[C]([H])([H])[C]([H])([H])[C@@]1([H])[C]([H])([H])[O][c]1[c]([H])[c]([H])[c]([H])[c]([H])[c]1[H]

$$$$
