
     RDKit          3D

 29 31  0  0  0  0  0  0  0  0999 V2000
    4.8135    1.3019   19.1039 C   0  0  0  0  0  0  0  0  0  0  0  0
    5.3948    1.2956   17.8286 C   0  0  0  0  0  0  0  0  0  0  0  0
    6.5546    0.6776   17.5614 N   0  0  0  0  0  0  0  0  0  0  0  0
    7.1709    0.0585   18.5800 C   0  0  0  0  0  0  0  0  0  0  0  0
    6.6697    0.0012   19.9169 C   0  0  0  0  0  0  0  0  0  0  0  0
    7.3103   -0.6278   20.9679 N   0  0  0  0  0  0  0  0  0  0  0  0
    8.5795   -1.3094   20.8304 C   0  0  0  0  0  0  0  0  0  0  0  0
    8.9990   -1.9907   22.1100 C   0  0  0  0  0  0  0  0  0  0  0  0
    9.9736   -1.4711   22.9671 C   0  0  0  0  0  0  0  0  0  0  0  0
   10.2560   -2.1089   24.1892 C   0  0  0  0  0  0  0  0  0  0  0  0
    9.6901   -3.2495   24.6006 N   0  0  0  0  0  0  0  0  0  0  0  0
    8.7875   -3.7425   23.7453 C   0  0  0  0  0  0  0  0  0  0  0  0
    8.3831   -3.1923   22.5022 C   0  0  0  0  0  0  0  0  0  0  0  0
    7.3663   -4.0723   21.9899 C   0  0  0  0  0  0  0  0  0  0  0  0
    7.1960   -5.0714   22.9070 C   0  0  0  0  0  0  0  0  0  0  0  0
    8.0587   -4.8712   23.9583 N   0  0  0  0  0  0  0  0  0  0  0  0
    8.1901   -5.3842   24.8148 H   0  0  0  0  0  0  0  0  0  0  0  0
    6.5128   -5.9149   22.9060 H   0  0  0  0  0  0  0  0  0  0  0  0
    6.8114   -3.9486   21.0671 H   0  0  0  0  0  0  0  0  0  0  0  0
   10.9573   -1.6196   24.8656 H   0  0  0  0  0  0  0  0  0  0  0  0
   10.4975   -0.5605   22.7024 H   0  0  0  0  0  0  0  0  0  0  0  0
    8.4830   -2.0747   20.0680 H   0  0  0  0  0  0  0  0  0  0  0  0
    9.3633   -0.6248   20.4761 H   0  0  0  0  0  0  0  0  0  0  0  0
    6.8552   -0.5951   21.8709 H   0  0  0  0  0  0  0  0  0  0  0  0
    5.4434    0.6469   20.1622 C   0  0  0  0  0  0  0  0  0  0  0  0
    5.0236    0.6289   21.1698 H   0  0  0  0  0  0  0  0  0  0  0  0
    8.1202   -0.4127   18.3308 H   0  0  0  0  0  0  0  0  0  0  0  0
    4.9232    1.8017   16.9910 H   0  0  0  0  0  0  0  0  0  0  0  0
    3.8824    1.8310   19.2567 H   0  0  0  0  0  0  0  0  0  0  0  0
  1  2  2  0
  2  3  1  0
  3  4  2  0
  4  5  1  0
  5  6  1  0
  6  7  1  0
  7  8  1  0
  8  9  2  0
  9 10  1  0
 10 11  2  0
 11 12  1  0
 12 13  2  0
 13 14  1  0
 14 15  2  0
 15 16  1  0
 16 17  1  0
 15 18  1  0
 14 19  1  0
 10 20  1  0
  9 21  1  0
  7 22  1  0
  7 23  1  0
  6 24  1  0
  5 25  2  0
 25 26  1  0
  4 27  1  0
  2 28  1  0
  1 29  1  0
 25  1  1  0
 13  8  1  0
 16 12  1  0
M  END
>  <plip>  (1) 
-0.06896551724137931

>  <filename>  (1) 
[H][c]1[n][c]([H])[c]([N]([H])[C]([H])([H])[c]2[c]([H])[c]([H])[n][c]3[c]2[c]([H])[c]([H])[n]3[H])[c]([H])[c]1[H]

$$$$
