
     RDKit          3D

 43 45  0  0  0  0  0  0  0  0999 V2000
    7.4286    0.5960   22.9285 C   0  0  0  0  0  0  0  0  0  0  0  0
    7.0794   -0.7284   22.2445 C   0  0  0  0  0  0  0  0  0  0  0  0
    7.3944   -0.6949   20.8431 O   0  0  0  0  0  0  0  0  0  0  0  0
    6.6603    0.0065   19.9357 C   0  0  0  0  0  0  0  0  0  0  0  0
    5.4420    0.6491   20.1796 C   0  0  0  0  0  0  0  0  0  0  0  0
    4.8121    1.3053   19.1099 C   0  0  0  0  0  0  0  0  0  0  0  0
    5.3994    1.2913   17.8450 C   0  0  0  0  0  0  0  0  0  0  0  0
    6.5670    0.6715   17.5998 N   0  0  0  0  0  0  0  0  0  0  0  0
    7.1759    0.0559   18.6172 C   0  0  0  0  0  0  0  0  0  0  0  0
    8.1209   -0.4347   18.3941 H   0  0  0  0  0  0  0  0  0  0  0  0
    4.9175    1.7795   16.9986 H   0  0  0  0  0  0  0  0  0  0  0  0
    3.8809    1.8371   19.2605 H   0  0  0  0  0  0  0  0  0  0  0  0
    4.9993    0.6354   21.1768 H   0  0  0  0  0  0  0  0  0  0  0  0
    7.9136   -1.8972   22.8425 C   0  0  0  0  0  0  0  0  0  0  0  0
    9.0950   -2.0427   22.5765 O   0  0  0  0  0  0  0  0  0  0  0  0
    7.2577   -2.7722   23.7088 N   0  0  0  0  0  0  0  0  0  0  0  0
    7.8438   -4.1154   23.9047 C   0  0  0  0  0  0  0  0  0  0  0  0
    6.7402   -5.1489   24.1779 C   0  0  0  0  0  0  0  0  0  0  0  0
    5.8678   -4.7224   25.2647 N   0  0  0  0  0  0  0  0  0  0  0  0
    5.7647   -5.4363   26.4501 C   0  0  0  0  0  0  0  0  0  0  0  0
    6.2093   -4.8844   27.6587 C   0  0  0  0  0  0  0  0  0  0  0  0
    6.1066   -5.6270   28.8237 C   0  0  0  0  0  0  0  0  0  0  0  0
    5.5792   -6.8549   28.8706 N   0  0  0  0  0  0  0  0  0  0  0  0
    5.1484   -7.3812   27.7200 C   0  0  0  0  0  0  0  0  0  0  0  0
    5.2163   -6.7286   26.4925 C   0  0  0  0  0  0  0  0  0  0  0  0
    4.5679   -7.4809   25.0659 Cl  0  0  0  0  0  0  0  0  0  0  0  0
    4.7183   -8.3763   27.7677 H   0  0  0  0  0  0  0  0  0  0  0  0
    6.4537   -5.2154   29.7669 H   0  0  0  0  0  0  0  0  0  0  0  0
    6.6506   -3.8976   27.6600 H   0  0  0  0  0  0  0  0  0  0  0  0
    5.3017   -3.3943   25.0938 C   0  0  0  0  0  0  0  0  0  0  0  0
    6.3874   -2.3422   24.8233 C   0  0  0  0  0  0  0  0  0  0  0  0
    5.9131   -1.3880   24.5898 H   0  0  0  0  0  0  0  0  0  0  0  0
    6.9632   -2.1917   25.7530 H   0  0  0  0  0  0  0  0  0  0  0  0
    4.7248   -3.1306   25.9865 H   0  0  0  0  0  0  0  0  0  0  0  0
    4.6005   -3.4052   24.2464 H   0  0  0  0  0  0  0  0  0  0  0  0
    7.1939   -6.1097   24.4318 H   0  0  0  0  0  0  0  0  0  0  0  0
    6.1527   -5.3022   23.2609 H   0  0  0  0  0  0  0  0  0  0  0  0
    8.5707   -4.1305   24.7322 H   0  0  0  0  0  0  0  0  0  0  0  0
    8.3934   -4.3964   23.0029 H   0  0  0  0  0  0  0  0  0  0  0  0
    6.0175   -0.9684   22.3584 H   0  0  0  0  0  0  0  0  0  0  0  0
    8.4875    0.8209   22.7615 H   0  0  0  0  0  0  0  0  0  0  0  0
    6.8376    1.4249   22.5226 H   0  0  0  0  0  0  0  0  0  0  0  0
    7.2506    0.5378   24.0093 H   0  0  0  0  0  0  0  0  0  0  0  0
  1  2  1  0
  2  3  1  0
  3  4  1  0
  4  5  2  0
  5  6  1  0
  6  7  2  0
  7  8  1  0
  8  9  2  0
  9 10  1  0
  7 11  1  0
  6 12  1  0
  5 13  1  0
  2 14  1  0
 14 15  2  0
 14 16  1  0
 16 17  1  0
 17 18  1  0
 18 19  1  0
 19 20  1  0
 20 21  2  0
 21 22  1  0
 22 23  2  0
 23 24  1  0
 24 25  2  0
 25 26  1  0
 24 27  1  0
 22 28  1  0
 21 29  1  0
 19 30  1  0
 30 31  1  0
 31 32  1  0
 31 33  1  0
 30 34  1  0
 30 35  1  0
 18 36  1  0
 18 37  1  0
 17 38  1  0
 17 39  1  0
  2 40  1  0
  1 41  1  0
  1 42  1  0
  1 43  1  0
  9  4  1  0
 31 16  1  0
 25 20  1  0
M  END
>  <plip>  (1) 
-0.034482758620689655

>  <filename>  (1) 
[H][c]1[n][c]([H])[c]([O][C]([H])([C](=[O])[N]2[C]([H])([H])[C]([H])([H])[N]([c]3[c]([H])[c]([H])[n][c]([H])[c]3[Cl])[C]([H])([H])[C]2([H])[H])[C]([H])([H])[H])[c]([H])[c]1[H]

$$$$
