
     RDKit          3D

 29 31  0  0  0  0  0  0  0  0999 V2000
    9.4384    0.1206   20.3794 O   0  0  0  0  0  0  0  0  0  0  0  0
    8.7441   -0.5812   21.0982 C   0  0  0  0  0  0  0  0  0  0  0  0
    7.3805   -0.6473   20.9347 N   0  0  0  0  0  0  0  0  0  0  0  0
    6.6632   -0.0062   19.8900 C   0  0  0  0  0  0  0  0  0  0  0  0
    5.4451    0.6249   20.1557 C   0  0  0  0  0  0  0  0  0  0  0  0
    4.8074    1.2990   19.1058 C   0  0  0  0  0  0  0  0  0  0  0  0
    5.3872    1.2966   17.8329 C   0  0  0  0  0  0  0  0  0  0  0  0
    6.5445    0.6743   17.5541 N   0  0  0  0  0  0  0  0  0  0  0  0
    7.1659    0.0577   18.5631 C   0  0  0  0  0  0  0  0  0  0  0  0
    8.1195   -0.4119   18.3384 H   0  0  0  0  0  0  0  0  0  0  0  0
    4.9162    1.8047   16.9959 H   0  0  0  0  0  0  0  0  0  0  0  0
    3.8807    1.8353   19.2645 H   0  0  0  0  0  0  0  0  0  0  0  0
    5.0428    0.6133   21.1692 H   0  0  0  0  0  0  0  0  0  0  0  0
    6.8742   -1.1928   21.6100 H   0  0  0  0  0  0  0  0  0  0  0  0
    9.3273   -1.4615   22.1777 C   0  0  0  0  0  0  0  0  0  0  0  0
   10.6620   -1.8962   21.9912 C   0  0  0  0  0  0  0  0  0  0  0  0
   11.2979   -2.7185   22.9210 C   0  0  0  0  0  0  0  0  0  0  0  0
   10.6001   -3.0784   24.0705 C   0  0  0  0  0  0  0  0  0  0  0  0
   10.9056   -3.8984   25.1541 N   0  0  0  0  0  0  0  0  0  0  0  0
    9.8905   -3.8719   26.0938 C   0  0  0  0  0  0  0  0  0  0  0  0
    9.8841   -4.3908   27.1876 O   0  0  0  0  0  0  0  0  0  0  0  0
    8.8952   -3.1080   25.5300 N   0  0  0  0  0  0  0  0  0  0  0  0
    9.2859   -2.6054   24.2942 C   0  0  0  0  0  0  0  0  0  0  0  0
    8.6310   -1.8227   23.3556 C   0  0  0  0  0  0  0  0  0  0  0  0
    7.6159   -1.4893   23.5696 H   0  0  0  0  0  0  0  0  0  0  0  0
    8.0323   -3.0244   26.0313 H   0  0  0  0  0  0  0  0  0  0  0  0
   11.8032   -4.1927   25.4942 H   0  0  0  0  0  0  0  0  0  0  0  0
   12.3244   -3.0246   22.7511 H   0  0  0  0  0  0  0  0  0  0  0  0
   11.2162   -1.5604   21.1124 H   0  0  0  0  0  0  0  0  0  0  0  0
  1  2  2  0
  2  3  1  0
  3  4  1  0
  4  5  2  0
  5  6  1  0
  6  7  2  0
  7  8  1  0
  8  9  2  0
  9 10  1  0
  7 11  1  0
  6 12  1  0
  5 13  1  0
  3 14  1  0
  2 15  1  0
 15 16  2  0
 16 17  1  0
 17 18  2  0
 18 19  1  0
 19 20  1  0
 20 21  2  0
 20 22  1  0
 22 23  1  0
 23 24  2  0
 24 25  1  0
 22 26  1  0
 19 27  1  0
 17 28  1  0
 16 29  1  0
  9  4  1  0
 24 15  1  0
 23 18  1  0
M  END
>  <plip>  (1) 
-0.14285714285714285

>  <filename>  (1) 
[H][c]1[n][c]([H])[c]([N]([H])[C](=[O])[c]2[c]([H])[c]([H])[c]3[c]([c]2[H])[n]([H])[c](=[O])[n]3[H])[c]([H])[c]1[H]

$$$$
