
     RDKit          3D

 28 29  0  0  0  0  0  0  0  0999 V2000
    8.9311    3.6824   25.8220 H   0  0  0  0  0  0  0  0  0  0  0  0
    8.5963    2.9392   26.3407 O   0  0  0  0  0  0  0  0  0  0  0  0
    9.2627    1.7821   25.8671 C   0  0  0  0  0  0  0  0  0  0  0  0
   10.3515    1.8532   26.0075 H   0  0  0  0  0  0  0  0  0  0  0  0
    8.9185    0.9510   26.5003 H   0  0  0  0  0  0  0  0  0  0  0  0
    8.9356    1.4861   24.4058 C   0  0  0  0  0  0  0  0  0  0  0  0
    9.2195    2.3518   23.7738 H   0  0  0  0  0  0  0  0  0  0  0  0
    9.5298    0.6264   24.0729 H   0  0  0  0  0  0  0  0  0  0  0  0
    7.4457    1.1543   24.2458 C   0  0  0  0  0  0  0  0  0  0  0  0
    7.1654    0.2920   24.8667 H   0  0  0  0  0  0  0  0  0  0  0  0
    6.8491    2.0065   24.5985 H   0  0  0  0  0  0  0  0  0  0  0  0
    7.0248    0.8977   22.8618 N   0  0  0  0  0  0  0  0  0  0  0  0
    7.3000    1.6928   22.2874 H   0  0  0  0  0  0  0  0  0  0  0  0
    7.5018   -0.2723   22.2293 N   0  0  0  0  0  0  0  0  0  0  0  0
    8.2158   -1.1969   22.8773 N   0  0  0  0  0  0  0  0  0  0  0  0
    8.5234   -2.1077   22.0262 N   0  0  0  0  0  0  0  0  0  0  0  0
    8.0161   -1.8261   20.8089 N   0  0  0  0  0  0  0  0  0  0  0  0
    7.3592   -0.6939   20.9330 C   0  0  0  0  0  0  0  0  0  0  0  0
    6.6241   -0.0011   19.8767 C   0  0  0  0  0  0  0  0  0  0  0  0
    7.1514    0.0036   18.5751 C   0  0  0  0  0  0  0  0  0  0  0  0
    8.0812   -0.5250   18.3521 H   0  0  0  0  0  0  0  0  0  0  0  0
    6.5775    0.6520   17.5571 N   0  0  0  0  0  0  0  0  0  0  0  0
    5.4272    1.2979   17.8042 C   0  0  0  0  0  0  0  0  0  0  0  0
    4.9754    1.8243   16.9629 H   0  0  0  0  0  0  0  0  0  0  0  0
    4.8107    1.3213   19.0562 C   0  0  0  0  0  0  0  0  0  0  0  0
    3.8772    1.8539   19.1851 H   0  0  0  0  0  0  0  0  0  0  0  0
    5.4139    0.6669   20.1240 C   0  0  0  0  0  0  0  0  0  0  0  0
    4.9677    0.6847   21.1222 H   0  0  0  0  0  0  0  0  0  0  0  0
  1  2  1  0
  2  3  1  0
  3  4  1  0
  3  5  1  0
  3  6  1  0
  6  7  1  0
  6  8  1  0
  6  9  1  0
  9 10  1  0
  9 11  1  0
  9 12  1  0
 12 13  1  0
 12 14  1  0
 14 15  1  0
 15 16  2  0
 16 17  1  0
 17 18  2  0
 18 19  1  0
 19 20  2  0
 20 21  1  0
 20 22  1  0
 22 23  2  0
 23 24  1  0
 23 25  1  0
 25 26  1  0
 25 27  2  0
 27 28  1  0
 18 14  1  0
 27 19  1  0
M  END
>  <plip>  (1) 
-0.034482758620689655

>  <filename>  (1) 
[H][O][C]([H])([H])[C]([H])([H])[C]([H])([H])[N]([H])[n]1[n][n][n][c]1-[c]1[c]([H])[n][c]([H])[c]([H])[c]1[H]

$$$$
