
     RDKit          3D

 40 41  0  0  0  0  0  0  0  0999 V2000
    4.9489    1.7912   16.9837 H   0  0  0  0  0  0  0  0  0  0  0  0
    5.4020    1.2861   17.8340 C   0  0  0  0  0  0  0  0  0  0  0  0
    6.5590    0.6544   17.5904 N   0  0  0  0  0  0  0  0  0  0  0  0
    7.1586    0.0473   18.6218 C   0  0  0  0  0  0  0  0  0  0  0  0
    8.1108   -0.4262   18.3725 H   0  0  0  0  0  0  0  0  0  0  0  0
    6.6570    0.0122   19.9325 C   0  0  0  0  0  0  0  0  0  0  0  0
    7.4922   -0.6895   21.0055 C   0  0  1  0  0  0  0  0  0  0  0  0
    7.8823   -2.0152   20.5427 N   0  0  0  0  0  0  0  0  0  0  0  0
    7.0782   -2.4501   20.0953 H   0  0  0  0  0  0  0  0  0  0  0  0
    8.6040   -1.9255   19.8366 H   0  0  0  0  0  0  0  0  0  0  0  0
    8.7669    0.1048   21.2812 C   0  0  0  0  0  0  0  0  0  0  0  0
    9.4203   -0.4416   21.9696 H   0  0  0  0  0  0  0  0  0  0  0  0
    9.3186    0.2755   20.3505 H   0  0  0  0  0  0  0  0  0  0  0  0
    8.5153    1.0793   21.7154 H   0  0  0  0  0  0  0  0  0  0  0  0
    6.6739   -0.9038   22.2986 C   0  0  0  0  0  0  0  0  0  0  0  0
    5.7729   -1.4356   21.9704 H   0  0  0  0  0  0  0  0  0  0  0  0
    6.3893    0.0711   22.7163 H   0  0  0  0  0  0  0  0  0  0  0  0
    7.3555   -1.7281   23.3670 C   0  0  0  0  0  0  0  0  0  0  0  0
    7.2464   -3.1180   23.3357 C   0  0  0  0  0  0  0  0  0  0  0  0
    6.6570   -3.5890   22.5595 H   0  0  0  0  0  0  0  0  0  0  0  0
    7.9275   -3.9095   24.2707 C   0  0  0  0  0  0  0  0  0  0  0  0
    7.9032   -5.2679   24.2560 O   0  0  0  0  0  0  0  0  0  0  0  0
    7.1642   -5.8865   23.2206 C   0  0  0  0  0  0  0  0  0  0  0  0
    7.4206   -5.4817   22.2336 H   0  0  0  0  0  0  0  0  0  0  0  0
    6.0797   -5.7832   23.3726 H   0  0  0  0  0  0  0  0  0  0  0  0
    7.4471   -6.9323   23.2313 H   0  0  0  0  0  0  0  0  0  0  0  0
    8.6995   -3.3126   25.2626 C   0  0  0  0  0  0  0  0  0  0  0  0
    9.2300   -3.9086   25.9915 H   0  0  0  0  0  0  0  0  0  0  0  0
    8.7909   -1.9188   25.3029 C   0  0  0  0  0  0  0  0  0  0  0  0
    9.5435   -1.4244   26.3122 O   0  0  0  0  0  0  0  0  0  0  0  0
    9.8092   -0.0396   26.4072 C   0  0  0  0  0  0  0  0  0  0  0  0
   10.2712    0.3655   25.4936 H   0  0  0  0  0  0  0  0  0  0  0  0
   10.5087    0.0343   27.2417 H   0  0  0  0  0  0  0  0  0  0  0  0
    8.8971    0.5360   26.6241 H   0  0  0  0  0  0  0  0  0  0  0  0
    8.1358   -1.1242   24.3543 C   0  0  0  0  0  0  0  0  0  0  0  0
    8.2618   -0.0471   24.3809 H   0  0  0  0  0  0  0  0  0  0  0  0
    5.4308    0.6636   20.1567 C   0  0  0  0  0  0  0  0  0  0  0  0
    4.9700    0.6655   21.1444 H   0  0  0  0  0  0  0  0  0  0  0  0
    4.7996    1.3140   19.0939 C   0  0  0  0  0  0  0  0  0  0  0  0
    3.8643    1.8480   19.2339 H   0  0  0  0  0  0  0  0  0  0  0  0
  1  2  1  0
  2  3  2  0
  3  4  1  0
  4  5  1  0
  4  6  2  0
  6  7  1  0
  7  8  1  6
  8  9  1  0
  8 10  1  0
  7 11  1  0
 11 12  1  0
 11 13  1  0
 11 14  1  0
  7 15  1  0
 15 16  1  0
 15 17  1  0
 15 18  1  0
 18 19  2  0
 19 20  1  0
 19 21  1  0
 21 22  1  0
 22 23  1  0
 23 24  1  0
 23 25  1  0
 23 26  1  0
 21 27  2  0
 27 28  1  0
 27 29  1  0
 29 30  1  0
 30 31  1  0
 31 32  1  0
 31 33  1  0
 31 34  1  0
 29 35  2  0
 35 36  1  0
  6 37  1  0
 37 38  1  0
 37 39  2  0
 39 40  1  0
 39  2  1  0
 35 18  1  0
M  END
>  <plip>  (1) 
-0.03333333333333333

>  <filename>  (1) 
[H][c]1[n][c]([H])[c]([C@@]([N]([H])[H])([C]([H])([H])[H])[C]([H])([H])[c]2[c]([H])[c]([O][C]([H])([H])[H])[c]([H])[c]([O][C]([H])([H])[H])[c]2[H])[c]([H])[c]1[H]

$$$$
