
     RDKit          3D

 20 21  0  0  0  0  0  0  0  0999 V2000
   10.0402   -3.3673   25.0467 H   0  0  0  0  0  0  0  0  0  0  0  0
   10.6599   -3.5174   24.2324 N   0  0  0  0  0  0  0  0  0  0  0  0
   10.2389   -2.9969   23.2332 N   0  0  0  0  0  4  0  0  0  0  0  0
   10.0234   -2.5689   22.1182 N   0  0  0  0  0  0  0  0  0  0  0  0
    8.8751   -1.8475   21.9618 C   0  0  0  0  0  0  0  0  0  0  0  0
    8.0027   -1.5923   22.9193 N   0  0  0  0  0  0  0  0  0  0  0  0
    7.0641   -0.8675   22.2924 C   0  0  0  0  0  0  0  0  0  0  0  0
    6.1833   -0.4747   22.7897 H   0  0  0  0  0  0  0  0  0  0  0  0
    7.3748   -0.6974   20.9692 C   0  0  0  0  0  0  0  0  0  0  0  0
    6.6744    0.0002   19.9004 C   0  0  0  0  0  0  0  0  0  0  0  0
    7.1902    0.0546   18.5909 C   0  0  0  0  0  0  0  0  0  0  0  0
    8.1362   -0.4335   18.3642 H   0  0  0  0  0  0  0  0  0  0  0  0
    6.5730    0.6739   17.5834 N   0  0  0  0  0  0  0  0  0  0  0  0
    5.4077    1.2878   17.8461 C   0  0  0  0  0  0  0  0  0  0  0  0
    4.9178    1.7752   17.0048 H   0  0  0  0  0  0  0  0  0  0  0  0
    4.8117    1.3065   19.1110 C   0  0  0  0  0  0  0  0  0  0  0  0
    3.8781    1.8417   19.2629 H   0  0  0  0  0  0  0  0  0  0  0  0
    5.4484    0.6486   20.1562 C   0  0  0  0  0  0  0  0  0  0  0  0
    4.9960    0.6410   21.1518 H   0  0  0  0  0  0  0  0  0  0  0  0
    8.5580   -1.3423   20.7559 O   0  0  0  0  0  0  0  0  0  0  0  0
  1  2  1  0
  2  3  2  0
  3  4  2  0
  4  5  1  0
  5  6  2  0
  6  7  1  0
  7  8  1  0
  7  9  2  0
  9 10  1  0
 10 11  2  0
 11 12  1  0
 11 13  1  0
 13 14  2  0
 14 15  1  0
 14 16  1  0
 16 17  1  0
 16 18  2  0
 18 19  1  0
  9 20  1  0
 20  5  1  0
 18 10  1  0
M  CHG  1   3   1
M  END
>  <plip>  (1) 
-0.034482758620689655

>  <filename>  (1) 
[H][N]=[N+]=[N][c]1[n][c]([H])[c](-[c]2[c]([H])[n][c]([H])[c]([H])[c]2[H])[o]1

$$$$
