
     RDKit          3D

 27 28  0  0  0  0  0  0  0  0999 V2000
    8.6785   -2.0176   21.4706 H   0  0  0  0  0  0  0  0  0  0  0  0
    8.2178   -1.6494   20.6402 N   0  0  0  0  0  0  0  0  0  0  0  0
    7.3854   -0.7574   20.9518 C   0  0  0  0  0  0  0  0  0  0  0  0
    7.2317   -0.1271   22.6341 S   0  0  0  0  0  0  0  0  0  0  0  0
    8.8091    0.7203   22.6418 C   0  0  0  0  0  0  0  0  0  0  0  0
    9.8763   -0.0671   22.7529 N   0  0  0  0  0  0  0  0  0  0  0  0
   11.0867    0.5063   22.8023 C   0  0  0  0  0  0  0  0  0  0  0  0
   11.9301   -0.1591   22.9568 H   0  0  0  0  0  0  0  0  0  0  0  0
   11.3012    1.8778   22.6539 C   0  0  0  0  0  0  0  0  0  0  0  0
   12.3082    2.2784   22.6209 H   0  0  0  0  0  0  0  0  0  0  0  0
   10.1922    2.7038   22.5093 C   0  0  0  0  0  0  0  0  0  0  0  0
   10.2975    3.7796   22.3617 H   0  0  0  0  0  0  0  0  0  0  0  0
    8.9214    2.1221   22.5431 C   0  0  0  0  0  0  0  0  0  0  0  0
    7.6681    2.9169   22.3629 C   0  0  0  0  0  0  0  0  0  0  0  0
    7.0884    2.6053   21.1871 F   0  0  0  0  0  0  0  0  0  0  0  0
    7.8568    4.2473   22.3579 F   0  0  0  0  0  0  0  0  0  0  0  0
    6.7835    2.6530   23.3441 F   0  0  0  0  0  0  0  0  0  0  0  0
    6.6013   -0.0634   19.9099 C   0  0  0  0  0  0  0  0  0  0  0  0
    7.1637    0.0054   18.6274 C   0  0  0  0  0  0  0  0  0  0  0  0
    8.1222   -0.4752   18.4401 H   0  0  0  0  0  0  0  0  0  0  0  0
    6.5914    0.6547   17.6097 N   0  0  0  0  0  0  0  0  0  0  0  0
    5.4281    1.2792   17.8468 C   0  0  0  0  0  0  0  0  0  0  0  0
    4.9888    1.8226   17.0119 H   0  0  0  0  0  0  0  0  0  0  0  0
    4.7858    1.2646   19.0901 C   0  0  0  0  0  0  0  0  0  0  0  0
    3.8667    1.8212   19.2363 H   0  0  0  0  0  0  0  0  0  0  0  0
    5.3758    0.5694   20.1438 C   0  0  0  0  0  0  0  0  0  0  0  0
    4.9524    0.5882   21.1480 H   0  0  0  0  0  0  0  0  0  0  0  0
  1  2  1  0
  2  3  2  3
  3  4  1  0
  4  5  1  0
  5  6  2  0
  6  7  1  0
  7  8  1  0
  7  9  2  0
  9 10  1  0
  9 11  1  0
 11 12  1  0
 11 13  2  0
 13 14  1  0
 14 15  1  0
 14 16  1  0
 14 17  1  0
  3 18  1  0
 18 19  2  0
 19 20  1  0
 19 21  1  0
 21 22  2  0
 22 23  1  0
 22 24  1  0
 24 25  1  0
 24 26  2  0
 26 27  1  0
 13  5  1  0
 26 18  1  0
M  END
>  <plip>  (1) 
-0.0

>  <filename>  (1) 
[H][N]=[C]([S][c]1[n][c]([H])[c]([H])[c]([H])[c]1[C]([F])([F])[F])[c]1[c]([H])[n][c]([H])[c]([H])[c]1[H]

$$$$
