
     RDKit          3D

 26 27  0  0  0  0  0  0  0  0999 V2000
    5.6991   -1.6072   21.8701 H   0  0  0  0  0  0  0  0  0  0  0  0
    6.7718   -1.4700   21.8935 C   0  0  0  0  0  0  0  0  0  0  0  0
    7.3383   -1.9217   22.6991 H   0  0  0  0  0  0  0  0  0  0  0  0
    7.3720   -0.7409   20.9557 C   0  0  0  0  0  0  0  0  0  0  0  0
    8.7416   -0.6580   20.8230 O   0  0  0  0  0  0  0  0  0  0  0  0
    9.5634   -0.5393   21.9192 C   0  0  0  0  0  0  0  0  0  0  0  0
    9.1824    0.0633   23.1242 C   0  0  0  0  0  0  0  0  0  0  0  0
    8.1572    0.3924   23.2498 H   0  0  0  0  0  0  0  0  0  0  0  0
   10.1178    0.1729   24.1578 C   0  0  0  0  0  0  0  0  0  0  0  0
    9.8005    0.5939   25.1089 H   0  0  0  0  0  0  0  0  0  0  0  0
   11.4285   -0.2594   23.9669 C   0  0  0  0  0  0  0  0  0  0  0  0
   12.1768   -0.1328   24.7475 H   0  0  0  0  0  0  0  0  0  0  0  0
   11.7902   -0.8850   22.7617 C   0  0  0  0  0  0  0  0  0  0  0  0
   12.8026   -1.2624   22.6272 H   0  0  0  0  0  0  0  0  0  0  0  0
   10.8491   -1.0573   21.7495 C   0  0  0  0  0  0  0  0  0  0  0  0
   11.0640   -1.5955   20.8333 H   0  0  0  0  0  0  0  0  0  0  0  0
    6.6684    0.0021   19.8931 C   0  0  0  0  0  0  0  0  0  0  0  0
    7.2105    0.0642   18.5946 C   0  0  0  0  0  0  0  0  0  0  0  0
    8.1711   -0.4131   18.3937 H   0  0  0  0  0  0  0  0  0  0  0  0
    6.6069    0.6759   17.5695 N   0  0  0  0  0  0  0  0  0  0  0  0
    5.4412    1.2926   17.8284 C   0  0  0  0  0  0  0  0  0  0  0  0
    4.9663    1.7762   16.9803 H   0  0  0  0  0  0  0  0  0  0  0  0
    4.8304    1.3133   19.0863 C   0  0  0  0  0  0  0  0  0  0  0  0
    3.8922    1.8308   19.2238 H   0  0  0  0  0  0  0  0  0  0  0  0
    5.4527    0.6578   20.1442 C   0  0  0  0  0  0  0  0  0  0  0  0
    5.0518    0.6858   21.1603 H   0  0  0  0  0  0  0  0  0  0  0  0
  1  2  1  0
  2  3  1  0
  2  4  2  3
  4  5  1  0
  5  6  1  0
  6  7  2  0
  7  8  1  0
  7  9  1  0
  9 10  1  0
  9 11  2  0
 11 12  1  0
 11 13  1  0
 13 14  1  0
 13 15  2  0
 15 16  1  0
  4 17  1  0
 17 18  2  0
 18 19  1  0
 18 20  1  0
 20 21  2  0
 21 22  1  0
 21 23  1  0
 23 24  1  0
 23 25  2  0
 25 26  1  0
 15  6  1  0
 25 17  1  0
M  END
>  <plip>  (1) 
-0.07142857142857142

>  <filename>  (1) 
[H][C]([H])=[C]([O][c]1[c]([H])[c]([H])[c]([H])[c]([H])[c]1[H])[c]1[c]([H])[n][c]([H])[c]([H])[c]1[H]

$$$$
