
     RDKit          3D

 34 36  0  0  0  0  0  0  0  0999 V2000
    4.9385    1.8047   16.9634 H   0  0  0  0  0  0  0  0  0  0  0  0
    5.3735    1.2980   17.8187 C   0  0  0  0  0  0  0  0  0  0  0  0
    6.5288    0.6610   17.5864 N   0  0  0  0  0  0  0  0  0  0  0  0
    7.1263    0.0685   18.6299 C   0  0  0  0  0  0  0  0  0  0  0  0
    8.0787   -0.4180   18.4191 H   0  0  0  0  0  0  0  0  0  0  0  0
    6.6149    0.0780   19.9440 C   0  0  0  0  0  0  0  0  0  0  0  0
    7.3486   -0.6056   21.0947 C   0  0  2  0  0  0  0  0  0  0  0  0
    6.7328   -0.4948   21.9963 H   0  0  0  0  0  0  0  0  0  0  0  0
    8.7487   -0.0033   21.4054 C   0  0  0  0  0  0  0  0  0  0  0  0
    9.5916    0.0770   20.5311 O   0  0  0  0  0  0  0  0  0  0  0  0
    9.0840    0.2528   22.8153 C   0  0  0  0  0  0  0  0  0  0  0  0
   10.0842   -0.4935   23.3897 C   0  0  0  0  0  0  0  0  0  0  0  0
   10.6381   -1.2104   22.7884 H   0  0  0  0  0  0  0  0  0  0  0  0
   10.4256   -0.4099   24.6990 N   0  0  0  0  0  0  0  0  0  0  0  0
    9.7718    0.4544   25.4500 C   0  0  0  0  0  0  0  0  0  0  0  0
   10.0653    0.5083   26.5010 H   0  0  0  0  0  0  0  0  0  0  0  0
    8.7291    1.3121   24.9702 C   0  0  0  0  0  0  0  0  0  0  0  0
    8.0366    2.2588   25.7845 C   0  0  0  0  0  0  0  0  0  0  0  0
    8.2947    2.3482   26.8365 H   0  0  0  0  0  0  0  0  0  0  0  0
    7.0543    3.0582   25.2456 C   0  0  0  0  0  0  0  0  0  0  0  0
    6.5363    3.7835   25.8648 H   0  0  0  0  0  0  0  0  0  0  0  0
    6.7067    2.9615   23.8711 C   0  0  0  0  0  0  0  0  0  0  0  0
    5.9315    3.6072   23.4615 H   0  0  0  0  0  0  0  0  0  0  0  0
    7.3547    2.0568   23.0612 C   0  0  0  0  0  0  0  0  0  0  0  0
    7.1117    1.9908   22.0046 H   0  0  0  0  0  0  0  0  0  0  0  0
    8.3729    1.2068   23.5937 C   0  0  0  0  0  0  0  0  0  0  0  0
    7.6329   -2.0970   20.8190 C   0  0  0  0  0  0  0  0  0  0  0  0
    6.7870   -2.6010   20.3365 H   0  0  0  0  0  0  0  0  0  0  0  0
    8.5059   -2.1234   20.1641 H   0  0  0  0  0  0  0  0  0  0  0  0
    7.9233   -2.6330   21.7327 H   0  0  0  0  0  0  0  0  0  0  0  0
    5.3824    0.7196   20.1475 C   0  0  0  0  0  0  0  0  0  0  0  0
    4.9293    0.7386   21.1421 H   0  0  0  0  0  0  0  0  0  0  0  0
    4.7501    1.3439   19.0692 C   0  0  0  0  0  0  0  0  0  0  0  0
    3.8153    1.8819   19.1837 H   0  0  0  0  0  0  0  0  0  0  0  0
  1  2  1  0
  2  3  2  0
  3  4  1  0
  4  5  1  0
  4  6  2  0
  6  7  1  0
  7  8  1  1
  7  9  1  0
  9 10  2  0
  9 11  1  0
 11 12  2  0
 12 13  1  0
 12 14  1  0
 14 15  2  0
 15 16  1  0
 15 17  1  0
 17 18  2  0
 18 19  1  0
 18 20  1  0
 20 21  1  0
 20 22  2  0
 22 23  1  0
 22 24  1  0
 24 25  1  0
 24 26  2  0
  7 27  1  0
 27 28  1  0
 27 29  1  0
 27 30  1  0
  6 31  1  0
 31 32  1  0
 31 33  2  0
 33 34  1  0
 33  2  1  0
 26 11  1  0
 26 17  1  0
M  END
>  <plip>  (1) 
-0.03571428571428571

>  <filename>  (1) 
[H][c]1[n][c]([H])[c]([C@]([H])([C](=[O])[c]2[c]([H])[n][c]([H])[c]3[c]([H])[c]([H])[c]([H])[c]([H])[c]23)[C]([H])([H])[H])[c]([H])[c]1[H]

$$$$
