
     RDKit          3D

 36 38  0  0  0  0  0  0  0  0999 V2000
    8.0324    0.0790   24.8835 H   0  0  0  0  0  0  0  0  0  0  0  0
    8.7183   -0.4448   24.4301 O   0  0  0  0  0  0  0  0  0  0  0  0
    8.1930   -1.1189   23.2991 C   0  0  2  0  0  0  0  0  0  0  0  0
    9.0770   -1.4549   22.7461 H   0  0  0  0  0  0  0  0  0  0  0  0
    7.2548   -0.3068   22.3687 C   0  0  0  0  0  0  0  0  0  0  0  0
    6.4010    0.4323   22.8366 O   0  0  0  0  0  0  0  0  0  0  0  0
    7.3445   -0.6406   21.0464 N   0  0  0  0  0  0  0  0  0  0  0  0
    7.9897   -1.3862   20.8418 H   0  0  0  0  0  0  0  0  0  0  0  0
    6.6923   -0.0152   19.9510 C   0  0  0  0  0  0  0  0  0  0  0  0
    7.2596   -0.0666   18.6540 C   0  0  0  0  0  0  0  0  0  0  0  0
    8.2115   -0.5761   18.4987 H   0  0  0  0  0  0  0  0  0  0  0  0
    6.7109    0.5097   17.5778 N   0  0  0  0  0  0  0  0  0  0  0  0
    5.5565    1.1729   17.7534 C   0  0  0  0  0  0  0  0  0  0  0  0
    5.1341    1.6370   16.8663 H   0  0  0  0  0  0  0  0  0  0  0  0
    4.9131    1.2799   18.9910 C   0  0  0  0  0  0  0  0  0  0  0  0
    3.9914    1.8495   19.0674 H   0  0  0  0  0  0  0  0  0  0  0  0
    5.4883    0.6828   20.1191 C   0  0  0  0  0  0  0  0  0  0  0  0
    5.0520    0.7662   21.1130 H   0  0  0  0  0  0  0  0  0  0  0  0
    7.3274   -2.3454   23.5187 C   0  0  0  0  0  0  0  0  0  0  0  0
    7.6501   -3.5503   23.1490 N   0  0  0  0  0  0  0  0  0  0  0  0
    6.5055   -4.2958   23.3767 C   0  0  0  0  0  0  0  0  0  0  0  0
    6.2874   -5.6586   23.2054 C   0  0  0  0  0  0  0  0  0  0  0  0
    7.1376   -6.2563   22.8832 H   0  0  0  0  0  0  0  0  0  0  0  0
    5.0158   -6.1914   23.4901 C   0  0  0  0  0  0  0  0  0  0  0  0
    4.7743   -7.6694   23.5091 C   0  0  0  0  0  0  0  0  0  0  0  0
    3.7980   -8.2198   23.9758 O   0  0  0  0  0  0  0  0  0  0  0  0
    5.8050   -8.4325   23.0037 N   0  0  0  0  0  0  0  0  0  0  0  0
    5.4503   -9.3736   22.9443 H   0  0  0  0  0  0  0  0  0  0  0  0
    6.1641   -8.0969   22.1239 H   0  0  0  0  0  0  0  0  0  0  0  0
    3.9553   -5.3234   23.8773 C   0  0  0  0  0  0  0  0  0  0  0  0
    2.9757   -5.7487   24.0846 H   0  0  0  0  0  0  0  0  0  0  0  0
    4.1591   -3.9545   24.0307 C   0  0  0  0  0  0  0  0  0  0  0  0
    3.3559   -3.2869   24.3249 H   0  0  0  0  0  0  0  0  0  0  0  0
    5.4578   -3.4723   23.8212 C   0  0  0  0  0  0  0  0  0  0  0  0
    6.0276   -2.2243   23.9534 N   0  0  0  0  0  0  0  0  0  0  0  0
    5.5164   -1.3516   23.8951 H   0  0  0  0  0  0  0  0  0  0  0  0
  1  2  1  0
  2  3  1  0
  3  4  1  6
  3  5  1  0
  5  6  2  0
  5  7  1  0
  7  8  1  0
  7  9  1  0
  9 10  2  0
 10 11  1  0
 10 12  1  0
 12 13  2  0
 13 14  1  0
 13 15  1  0
 15 16  1  0
 15 17  2  0
 17 18  1  0
  3 19  1  0
 19 20  2  0
 20 21  1  0
 21 22  2  0
 22 23  1  0
 22 24  1  0
 24 25  1  0
 25 26  2  0
 25 27  1  0
 27 28  1  0
 27 29  1  0
 24 30  2  0
 30 31  1  0
 30 32  1  0
 32 33  1  0
 32 34  2  0
 34 35  1  0
 35 36  1  0
 17  9  1  0
 35 19  1  0
 34 21  1  0
M  END
>  <plip>  (1) 
-0.16129032258064516

>  <filename>  (1) 
[H][O][C@]([H])([C](=[O])[N]([H])[c]1[c]([H])[n][c]([H])[c]([H])[c]1[H])[c]1[n][c]2[c]([H])[c]([C](=[O])[N]([H])[H])[c]([H])[c]([H])[c]2[n]1[H]

$$$$
