
     RDKit          3D

 28 29  0  0  0  0  0  0  0  0999 V2000
    9.4093   -0.3566   20.3932 H   0  0  0  0  0  0  0  0  0  0  0  0
    8.7065   -0.7844   21.0838 C   0  0  0  0  0  0  0  0  0  0  0  0
    7.3904   -0.6987   21.0121 C   0  0  0  0  0  0  0  0  0  0  0  0
    6.6106   -1.2067   21.9799 F   0  0  0  0  0  0  0  0  0  0  0  0
    6.6504   -0.0149   19.9454 C   0  0  0  0  0  0  0  0  0  0  0  0
    7.1850    0.0463   18.6445 C   0  0  0  0  0  0  0  0  0  0  0  0
    8.1272   -0.4416   18.3984 H   0  0  0  0  0  0  0  0  0  0  0  0
    6.5856    0.6574   17.6199 N   0  0  0  0  0  0  0  0  0  0  0  0
    5.4218    1.2777   17.8614 C   0  0  0  0  0  0  0  0  0  0  0  0
    4.9600    1.7753   17.0099 H   0  0  0  0  0  0  0  0  0  0  0  0
    4.8106    1.2932   19.1195 C   0  0  0  0  0  0  0  0  0  0  0  0
    3.8827    1.8371   19.2519 H   0  0  0  0  0  0  0  0  0  0  0  0
    5.4222    0.6306   20.1808 C   0  0  0  0  0  0  0  0  0  0  0  0
    4.9754    0.6322   21.1739 H   0  0  0  0  0  0  0  0  0  0  0  0
    9.4625   -1.6595   22.3767 S   0  0  0  0  0  0  0  0  0  0  0  0
   10.8850   -1.4795   22.1356 O   0  0  0  0  0  0  0  0  0  0  0  0
    8.8341   -2.9704   22.4559 O   0  0  0  0  0  0  0  0  0  0  0  0
    9.0386   -0.7707   23.8683 C   0  0  0  0  0  0  0  0  0  0  0  0
    9.6319    0.4744   24.1312 C   0  0  0  0  0  0  0  0  0  0  0  0
   10.3314    0.9349   23.4333 H   0  0  0  0  0  0  0  0  0  0  0  0
    9.3360    1.1367   25.3225 C   0  0  0  0  0  0  0  0  0  0  0  0
    9.7711    2.1025   25.5458 H   0  0  0  0  0  0  0  0  0  0  0  0
    8.4686    0.5469   26.2425 C   0  0  0  0  0  0  0  0  0  0  0  0
    8.0341    1.3871   27.6983 Cl  0  0  0  0  0  0  0  0  0  0  0  0
    7.9068   -0.7054   25.9997 C   0  0  0  0  0  0  0  0  0  0  0  0
    7.2549   -1.1375   26.7479 H   0  0  0  0  0  0  0  0  0  0  0  0
    8.1893   -1.3714   24.8086 C   0  0  0  0  0  0  0  0  0  0  0  0
    7.7527   -2.3538   24.6304 H   0  0  0  0  0  0  0  0  0  0  0  0
  1  2  1  0
  2  3  2  3
  3  4  1  0
  3  5  1  0
  5  6  2  0
  6  7  1  0
  6  8  1  0
  8  9  2  0
  9 10  1  0
  9 11  1  0
 11 12  1  0
 11 13  2  0
 13 14  1  0
  2 15  1  0
 15 16  2  0
 15 17  2  0
 15 18  1  0
 18 19  2  0
 19 20  1  0
 19 21  1  0
 21 22  1  0
 21 23  2  0
 23 24  1  0
 23 25  1  0
 25 26  1  0
 25 27  2  0
 27 28  1  0
 13  5  1  0
 27 18  1  0
M  END
>  <plip>  (1) 
-0.034482758620689655

>  <filename>  (1) 
[H][C](=[C]([F])[c]1[c]([H])[n][c]([H])[c]([H])[c]1[H])[S](=[O])(=[O])[c]1[c]([H])[c]([H])[c]([Cl])[c]([H])[c]1[H]

$$$$
