
     RDKit          3D

 31 32  0  0  0  0  0  0  0  0999 V2000
    5.0050    1.8353   16.8915 H   0  0  0  0  0  0  0  0  0  0  0  0
    5.3853    1.3325   17.7756 C   0  0  0  0  0  0  0  0  0  0  0  0
    6.5214    0.6308   17.6158 N   0  0  0  0  0  0  0  0  0  0  0  0
    7.0197   -0.0012   18.6901 C   0  0  0  0  0  0  0  0  0  0  0  0
    7.9538   -0.5472   18.5383 H   0  0  0  0  0  0  0  0  0  0  0  0
    6.4334    0.0311   19.9844 C   0  0  0  0  0  0  0  0  0  0  0  0
    6.9996   -0.5873   21.1238 N   0  0  0  0  0  0  0  0  0  0  0  0
    7.1807    0.1645   22.3525 C   0  0  0  0  0  0  0  0  0  0  0  0
    8.1816   -0.0157   22.7677 H   0  0  0  0  0  0  0  0  0  0  0  0
    6.4576   -0.1167   23.1357 H   0  0  0  0  0  0  0  0  0  0  0  0
    7.1027    1.2376   22.1513 H   0  0  0  0  0  0  0  0  0  0  0  0
    7.3333   -2.0048   21.2116 C   0  0  0  0  0  0  0  0  0  0  0  0
    6.6778   -2.5096   21.9422 H   0  0  0  0  0  0  0  0  0  0  0  0
    7.1299   -2.4653   20.2386 H   0  0  0  0  0  0  0  0  0  0  0  0
    8.7816   -2.2701   21.6463 C   0  0  0  0  0  0  0  0  0  0  0  0
    9.8560   -1.6044   21.0393 C   0  0  0  0  0  0  0  0  0  0  0  0
    9.6997   -0.9686   20.1761 H   0  0  0  0  0  0  0  0  0  0  0  0
   11.1292   -1.6999   21.5985 C   0  0  0  0  0  0  0  0  0  0  0  0
   11.9381   -1.1049   21.1820 H   0  0  0  0  0  0  0  0  0  0  0  0
   11.4247   -2.4757   22.6482 N   0  0  0  0  0  0  0  0  0  0  0  0
   10.4273   -3.1853   23.1955 C   0  0  0  0  0  0  0  0  0  0  0  0
   10.7735   -3.9698   24.4279 C   0  0  0  0  0  0  0  0  0  0  0  0
   11.8434   -4.1744   24.4756 H   0  0  0  0  0  0  0  0  0  0  0  0
   10.5148   -3.3622   25.2993 H   0  0  0  0  0  0  0  0  0  0  0  0
   10.2360   -4.9170   24.5093 H   0  0  0  0  0  0  0  0  0  0  0  0
    9.1003   -3.0987   22.7327 C   0  0  0  0  0  0  0  0  0  0  0  0
    8.3299   -3.6593   23.2507 H   0  0  0  0  0  0  0  0  0  0  0  0
    5.2546    0.7923   20.1155 C   0  0  0  0  0  0  0  0  0  0  0  0
    4.7937    0.8602   21.1008 H   0  0  0  0  0  0  0  0  0  0  0  0
    4.7127    1.4332   18.9989 C   0  0  0  0  0  0  0  0  0  0  0  0
    3.8027    2.0253   19.0686 H   0  0  0  0  0  0  0  0  0  0  0  0
  1  2  1  0
  2  3  2  0
  3  4  1  0
  4  5  1  0
  4  6  2  0
  6  7  1  0
  7  8  1  0
  8  9  1  0
  8 10  1  0
  8 11  1  0
  7 12  1  0
 12 13  1  0
 12 14  1  0
 12 15  1  0
 15 16  2  0
 16 17  1  0
 16 18  1  0
 18 19  1  0
 18 20  2  0
 20 21  1  0
 21 22  1  0
 22 23  1  0
 22 24  1  0
 22 25  1  0
 21 26  2  0
 26 27  1  0
  6 28  1  0
 28 29  1  0
 28 30  2  0
 30 31  1  0
 30  2  1  0
 26 15  1  0
M  END
>  <plip>  (1) 
-0.07142857142857142

>  <filename>  (1) 
[H][c]1[n][c]([H])[c]([N]([C]([H])([H])[H])[C]([H])([H])[c]2[c]([H])[c]([H])[n][c]([C]([H])([H])[H])[c]2[H])[c]([H])[c]1[H]

$$$$
