
     RDKit          3D

 33 35  0  0  0  0  0  0  0  0999 V2000
    4.9674    1.7964   16.9668 H   0  0  0  0  0  0  0  0  0  0  0  0
    5.4199    1.2868   17.8171 C   0  0  0  0  0  0  0  0  0  0  0  0
    6.5808    0.6592   17.5762 N   0  0  0  0  0  0  0  0  0  0  0  0
    7.1570    0.0406   18.6149 C   0  0  0  0  0  0  0  0  0  0  0  0
    8.0926   -0.4779   18.3902 H   0  0  0  0  0  0  0  0  0  0  0  0
    6.6464    0.0132   19.9242 C   0  0  0  0  0  0  0  0  0  0  0  0
    7.4845   -0.6094   21.0278 C   0  0  2  0  0  0  0  0  0  0  0  0
    8.3264   -1.1190   20.5263 H   0  0  0  0  0  0  0  0  0  0  0  0
    6.7585   -1.5824   21.8454 N   0  0  0  0  0  0  0  0  0  0  0  0
    6.6741   -2.9492   21.3938 C   0  0  1  0  0  0  0  0  0  0  0  0
    7.6941   -3.3903   21.4217 H   0  0  0  0  0  0  0  0  0  0  0  0
    5.8256   -3.7038   22.2351 O   0  0  0  0  0  0  0  0  0  0  0  0
    5.3025   -4.8096   21.5034 C   0  0  0  0  0  0  0  0  0  0  0  0
    5.6666   -5.7496   21.9334 H   0  0  0  0  0  0  0  0  0  0  0  0
    4.2131   -4.7967   21.6028 H   0  0  0  0  0  0  0  0  0  0  0  0
    5.7731   -4.6133   20.0499 C   0  0  0  0  0  0  0  0  0  0  0  0
    5.0833   -5.0069   19.2998 H   0  0  0  0  0  0  0  0  0  0  0  0
    6.7332   -5.1235   19.9180 H   0  0  0  0  0  0  0  0  0  0  0  0
    6.0241   -3.1114   20.0264 C   0  0  0  0  0  0  0  0  0  0  0  0
    5.1149   -2.5251   20.0219 H   0  0  0  0  0  0  0  0  0  0  0  0
    6.5927   -2.7187   19.1887 H   0  0  0  0  0  0  0  0  0  0  0  0
    6.8043   -1.3140   23.2021 C   0  0  0  0  0  0  0  0  0  0  0  0
    6.5621   -2.0597   24.1208 O   0  0  0  0  0  0  0  0  0  0  0  0
    7.2629    0.1233   23.3452 C   0  0  0  0  0  0  0  0  0  0  0  0
    7.8445    0.2305   24.2624 H   0  0  0  0  0  0  0  0  0  0  0  0
    6.3681    0.7511   23.4306 H   0  0  0  0  0  0  0  0  0  0  0  0
    8.0502    0.3956   22.0616 C   0  0  0  0  0  0  0  0  0  0  0  0
    7.9820    1.4375   21.7274 H   0  0  0  0  0  0  0  0  0  0  0  0
    9.1147    0.1764   22.2070 H   0  0  0  0  0  0  0  0  0  0  0  0
    5.4102    0.6373   20.1401 C   0  0  0  0  0  0  0  0  0  0  0  0
    4.9315    0.6118   21.1202 H   0  0  0  0  0  0  0  0  0  0  0  0
    4.7973    1.2965   19.0679 C   0  0  0  0  0  0  0  0  0  0  0  0
    3.8583    1.8234   19.1913 H   0  0  0  0  0  0  0  0  0  0  0  0
  1  2  1  0
  2  3  2  0
  3  4  1  0
  4  5  1  0
  4  6  2  0
  6  7  1  0
  7  8  1  6
  7  9  1  0
  9 10  1  0
 10 11  1  6
 10 12  1  0
 12 13  1  0
 13 14  1  0
 13 15  1  0
 13 16  1  0
 16 17  1  0
 16 18  1  0
 16 19  1  0
 19 20  1  0
 19 21  1  0
  9 22  1  0
 22 23  2  0
 22 24  1  0
 24 25  1  0
 24 26  1  0
 24 27  1  0
 27 28  1  0
 27 29  1  0
  6 30  1  0
 30 31  1  0
 30 32  2  0
 32 33  1  0
 32  2  1  0
 27  7  1  0
 19 10  1  0
M  END
>  <plip>  (1) 
-0.03571428571428571

>  <filename>  (1) 
[H][c]1[n][c]([H])[c]([C@]2([H])[N]([C@@]3([H])[O][C]([H])([H])[C]([H])([H])[C]3([H])[H])[C](=[O])[C]([H])([H])[C]2([H])[H])[c]([H])[c]1[H]

$$$$
