
     RDKit          3D

 37 39  0  0  0  0  0  0  0  0999 V2000
    9.1050   -4.9222   27.4558 C   0  0  0  0  0  0  0  0  0  0  0  0
    7.7796   -5.3006   27.1308 O   0  0  0  0  0  0  0  0  0  0  0  0
    7.0708   -4.6158   26.2198 C   0  0  0  0  0  0  0  0  0  0  0  0
    5.7760   -5.1403   26.0328 C   0  0  0  0  0  0  0  0  0  0  0  0
    4.9551   -4.5222   25.1057 C   0  0  0  0  0  0  0  0  0  0  0  0
    5.4554   -3.4178   24.4093 C   0  0  0  0  0  0  0  0  0  0  0  0
    6.7626   -2.9949   24.6885 C   0  0  0  0  0  0  0  0  0  0  0  0
    7.3713   -1.9488   24.0833 N   0  0  0  0  0  0  0  0  0  0  0  0
    6.7644   -1.1155   23.0811 C   0  0  1  0  0  0  0  0  0  0  0  0
    7.5907   -0.0284   22.3784 C   0  0  0  0  0  0  0  0  0  0  0  0
    7.3980   -0.7433   21.0148 C   0  0  2  0  0  0  0  0  0  0  0  0
    8.6102   -1.2943   20.5569 O   0  0  0  0  0  0  0  0  0  0  0  0
    9.2187   -0.5442   20.4962 H   0  0  0  0  0  0  0  0  0  0  0  0
    6.6850    0.0217   19.9238 C   0  0  0  0  0  0  0  0  0  0  0  0
    5.4588    0.6687   20.1550 C   0  0  0  0  0  0  0  0  0  0  0  0
    4.8160    1.3176   19.1003 C   0  0  0  0  0  0  0  0  0  0  0  0
    5.4126    1.2927   17.8360 C   0  0  0  0  0  0  0  0  0  0  0  0
    6.5734    0.6696   17.5881 N   0  0  0  0  0  0  0  0  0  0  0  0
    7.1832    0.0578   18.6108 C   0  0  0  0  0  0  0  0  0  0  0  0
    8.1176   -0.4397   18.3631 H   0  0  0  0  0  0  0  0  0  0  0  0
    4.9391    1.7901   16.9891 H   0  0  0  0  0  0  0  0  0  0  0  0
    3.8751    1.8399   19.2426 H   0  0  0  0  0  0  0  0  0  0  0  0
    5.0017    0.6546   21.1450 H   0  0  0  0  0  0  0  0  0  0  0  0
    6.5306   -1.8153   21.7109 C   0  0  0  0  0  0  0  0  0  0  0  0
    6.9962   -2.8007   21.6737 H   0  0  0  0  0  0  0  0  0  0  0  0
    5.4975   -1.8988   21.3507 H   0  0  0  0  0  0  0  0  0  0  0  0
    7.1216    0.9577   22.4078 H   0  0  0  0  0  0  0  0  0  0  0  0
    8.6250    0.0485   22.7184 H   0  0  0  0  0  0  0  0  0  0  0  0
    5.8879   -0.6405   23.5295 H   0  0  0  0  0  0  0  0  0  0  0  0
    8.2833   -1.8653   24.5042 H   0  0  0  0  0  0  0  0  0  0  0  0
    7.5798   -3.5728   25.5933 N   0  0  0  0  0  0  0  0  0  0  0  0
    4.8834   -2.8772   23.6697 H   0  0  0  0  0  0  0  0  0  0  0  0
    3.9431   -4.8911   24.9268 H   0  0  0  0  0  0  0  0  0  0  0  0
    5.5233   -5.9999   26.6389 H   0  0  0  0  0  0  0  0  0  0  0  0
    9.7655   -5.0064   26.5841 H   0  0  0  0  0  0  0  0  0  0  0  0
    9.3920   -5.6287   28.2386 H   0  0  0  0  0  0  0  0  0  0  0  0
    9.1307   -3.8911   27.8183 H   0  0  0  0  0  0  0  0  0  0  0  0
  1  2  1  0
  2  3  1  0
  3  4  2  0
  4  5  1  0
  5  6  2  0
  6  7  1  0
  7  8  1  0
  8  9  1  0
  9 10  1  0
 10 11  1  0
 11 12  1  6
 12 13  1  0
 11 14  1  0
 14 15  2  0
 15 16  1  0
 16 17  2  0
 17 18  1  0
 18 19  2  0
 19 20  1  0
 17 21  1  0
 16 22  1  0
 15 23  1  0
 11 24  1  0
 24 25  1  0
 24 26  1  0
 10 27  1  0
 10 28  1  0
  9 29  1  1
  8 30  1  0
  7 31  2  0
  6 32  1  0
  5 33  1  0
  4 34  1  0
  1 35  1  0
  1 36  1  0
  1 37  1  0
 31  3  1  0
 24  9  1  0
 19 14  1  0
M  END
>  <plip>  (1) 
-0.03571428571428571

>  <filename>  (1) 
[H][O][C@]1([c]2[c]([H])[n][c]([H])[c]([H])[c]2[H])[C]([H])([H])[C@]([H])([N]([H])[c]2[n][c]([O][C]([H])([H])[H])[c]([H])[c]([H])[c]2[H])[C]1([H])[H]

$$$$
