
     RDKit          3D

 30 33  0  0  0  0  0  0  0  0999 V2000
    8.9921   -3.1929   21.9585 H   0  0  0  0  0  0  0  0  0  0  0  0
    8.4641   -2.2490   21.9285 C   0  0  0  0  0  0  0  0  0  0  0  0
    8.2020   -1.4458   22.9029 N   0  0  0  0  0  0  0  0  0  0  0  0
    7.5235   -0.3889   22.2994 C   0  0  0  0  0  0  0  0  0  0  0  0
    7.1357    0.8288   23.0087 C   0  0  0  0  0  0  0  0  0  0  0  0
    7.2493    2.1083   22.3644 C   0  0  0  0  0  0  0  0  0  0  0  0
    7.6231    2.1491   21.3422 H   0  0  0  0  0  0  0  0  0  0  0  0
    6.8727    3.2773   22.9953 C   0  0  0  0  0  0  0  0  0  0  0  0
    6.9591    4.2430   22.5032 H   0  0  0  0  0  0  0  0  0  0  0  0
    6.3709    3.1584   24.3121 C   0  0  0  0  0  0  0  0  0  0  0  0
    6.2493    1.9093   24.9654 C   0  0  0  0  0  0  0  0  0  0  0  0
    5.7326    2.2348   26.2580 C   0  0  0  0  0  0  0  0  0  0  0  0
    5.5002    1.5591   27.0722 H   0  0  0  0  0  0  0  0  0  0  0  0
    5.5541    3.5305   26.3864 N   0  0  0  0  0  0  0  0  0  0  0  0
    5.9380    4.0816   25.2128 N   0  0  0  0  0  0  0  0  0  0  0  0
    5.8890    5.0781   25.0779 H   0  0  0  0  0  0  0  0  0  0  0  0
    6.6395    0.7300   24.3018 C   0  0  0  0  0  0  0  0  0  0  0  0
    6.5587   -0.2513   24.7673 H   0  0  0  0  0  0  0  0  0  0  0  0
    7.3644   -0.6764   20.9646 C   0  0  0  0  0  0  0  0  0  0  0  0
    6.6437   -0.0221   19.8780 C   0  0  0  0  0  0  0  0  0  0  0  0
    7.1628    0.0312   18.5722 C   0  0  0  0  0  0  0  0  0  0  0  0
    8.1181   -0.4358   18.3428 H   0  0  0  0  0  0  0  0  0  0  0  0
    6.5629    0.6703   17.5642 N   0  0  0  0  0  0  0  0  0  0  0  0
    5.4019    1.2917   17.8264 C   0  0  0  0  0  0  0  0  0  0  0  0
    4.9296    1.7984   16.9858 H   0  0  0  0  0  0  0  0  0  0  0  0
    4.8007    1.3019   19.0883 C   0  0  0  0  0  0  0  0  0  0  0  0
    3.8745    1.8434   19.2435 H   0  0  0  0  0  0  0  0  0  0  0  0
    5.4300    0.6316   20.1338 C   0  0  0  0  0  0  0  0  0  0  0  0
    5.0170    0.6431   21.1455 H   0  0  0  0  0  0  0  0  0  0  0  0
    8.0064   -1.8556   20.7241 O   0  0  0  0  0  0  0  0  0  0  0  0
  1  2  1  0
  2  3  2  0
  3  4  1  0
  4  5  1  0
  5  6  2  0
  6  7  1  0
  6  8  1  0
  8  9  1  0
  8 10  2  0
 10 11  1  0
 11 12  1  0
 12 13  1  0
 12 14  2  0
 14 15  1  0
 15 16  1  0
 11 17  2  0
 17 18  1  0
  4 19  2  0
 19 20  1  0
 20 21  2  0
 21 22  1  0
 21 23  1  0
 23 24  2  0
 24 25  1  0
 24 26  1  0
 26 27  1  0
 26 28  2  0
 28 29  1  0
 19 30  1  0
 30  2  1  0
 17  5  1  0
 28 20  1  0
 15 10  1  0
M  END
>  <plip>  (1) 
-0.0

>  <filename>  (1) 
[H][c]1[n][c](-[c]2[c]([H])[c]([H])[c]3[c]([c]([H])[n][n]3[H])[c]2[H])[c](-[c]2[c]([H])[n][c]([H])[c]([H])[c]2[H])[o]1

$$$$
