
     RDKit          3D

 54 57  0  0  0  0  0  0  0  0999 V2000
    4.2270   -3.2084   23.6509 O   0  0  0  0  0  0  0  0  0  0  0  0
    5.0092   -3.6704   22.8493 C   0  0  0  0  0  0  0  0  0  0  0  0
    5.7140   -2.9352   21.6727 C   0  0  0  0  0  0  0  0  0  0  0  0
    6.5711   -1.5416   22.0385 N   0  0  0  0  0  4  0  0  0  0  0  0
    7.4557   -0.7957   20.9944 C   0  0  0  0  0  0  0  0  0  0  0  0
    8.4781    0.1356   21.7127 C   0  0  0  0  0  0  0  0  0  0  0  0
    7.9485    1.3214   22.4728 N   0  0  0  0  0  4  0  0  0  0  0  0
    8.7888    1.7876   23.6541 C   0  0  0  0  0  0  0  0  0  0  0  0
    8.3834    3.2493   23.7830 C   0  0  0  0  0  0  0  0  0  0  0  0
    8.4179    3.6915   22.3194 C   0  0  0  0  0  0  0  0  0  0  0  0
    7.6661    2.5589   21.6194 C   0  0  0  0  0  0  0  0  0  0  0  0
    6.5889    2.7545   21.6198 H   0  0  0  0  0  0  0  0  0  0  0  0
    7.9740    2.3661   20.5907 H   0  0  0  0  0  0  0  0  0  0  0  0
    9.4610    3.7038   21.9860 H   0  0  0  0  0  0  0  0  0  0  0  0
    7.9888    4.6781   22.1160 H   0  0  0  0  0  0  0  0  0  0  0  0
    9.0200    3.8331   24.4538 H   0  0  0  0  0  0  0  0  0  0  0  0
    7.3557    3.2945   24.1709 H   0  0  0  0  0  0  0  0  0  0  0  0
    8.5949    1.1741   24.5385 H   0  0  0  0  0  0  0  0  0  0  0  0
    9.8557    1.7047   23.4021 H   0  0  0  0  0  0  0  0  0  0  0  0
    7.0326    1.0531   22.8936 H   0  0  0  0  0  0  0  0  0  0  0  0
    9.1815    0.4985   20.9567 H   0  0  0  0  0  0  0  0  0  0  0  0
    9.0475   -0.4975   22.4017 H   0  0  0  0  0  0  0  0  0  0  0  0
    6.6215   -0.1158   19.9298 C   0  0  0  0  0  0  0  0  0  0  0  0
    5.4093    0.5528   20.1576 C   0  0  0  0  0  0  0  0  0  0  0  0
    4.8058    1.2432   19.1014 C   0  0  0  0  0  0  0  0  0  0  0  0
    5.4275    1.2446   17.8496 C   0  0  0  0  0  0  0  0  0  0  0  0
    6.5687    0.5881   17.5989 N   0  0  0  0  0  0  0  0  0  0  0  0
    7.1315   -0.0708   18.6191 C   0  0  0  0  0  0  0  0  0  0  0  0
    8.0534   -0.5975   18.3710 H   0  0  0  0  0  0  0  0  0  0  0  0
    4.9912    1.7914   17.0134 H   0  0  0  0  0  0  0  0  0  0  0  0
    3.8762    1.7875   19.2319 H   0  0  0  0  0  0  0  0  0  0  0  0
    4.9346    0.5592   21.1420 H   0  0  0  0  0  0  0  0  0  0  0  0
    8.0583   -1.5577   20.4990 H   0  0  0  0  0  0  0  0  0  0  0  0
    5.8417   -0.8531   22.3205 H   0  0  0  0  0  0  0  0  0  0  0  0
    7.1377   -1.7752   22.8779 H   0  0  0  0  0  0  0  0  0  0  0  0
    6.5978   -3.9977   21.0276 C   0  0  0  0  0  0  0  0  0  0  0  0
    5.9916   -5.3388   21.5022 C   0  0  0  0  0  0  0  0  0  0  0  0
    5.3669   -5.0036   22.7797 N   0  0  0  0  0  0  0  0  0  0  0  0
    4.6576   -5.9208   23.6066 C   0  0  0  0  0  0  0  0  0  0  0  0
    3.8660   -6.9108   23.0179 C   0  0  0  0  0  0  0  0  0  0  0  0
    2.9481   -7.5936   23.8145 C   0  0  0  0  0  0  0  0  0  0  0  0
    1.9063   -8.7624   23.0642 Cl  0  0  0  0  0  0  0  0  0  0  0  0
    2.8299   -7.3259   25.1792 C   0  0  0  0  0  0  0  0  0  0  0  0
    3.6970   -6.3952   25.7710 C   0  0  0  0  0  0  0  0  0  0  0  0
    4.6202   -5.6953   24.9896 C   0  0  0  0  0  0  0  0  0  0  0  0
    5.2644   -4.9396   25.4324 H   0  0  0  0  0  0  0  0  0  0  0  0
    3.6352   -6.1884   26.8372 H   0  0  0  0  0  0  0  0  0  0  0  0
    2.0706   -7.8351   25.7630 H   0  0  0  0  0  0  0  0  0  0  0  0
    3.9333   -7.1147   21.9565 H   0  0  0  0  0  0  0  0  0  0  0  0
    6.7364   -6.1254   21.6434 H   0  0  0  0  0  0  0  0  0  0  0  0
    5.2591   -5.7078   20.7659 H   0  0  0  0  0  0  0  0  0  0  0  0
    6.5948   -3.9226   19.9354 H   0  0  0  0  0  0  0  0  0  0  0  0
    7.6331   -3.9107   21.3793 H   0  0  0  0  0  0  0  0  0  0  0  0
    4.9212   -2.5989   21.0117 H   0  0  0  0  0  0  0  0  0  0  0  0
  1  2  2  0
  2  3  1  0
  3  4  1  0
  4  5  1  0
  5  6  1  0
  6  7  1  0
  7  8  1  0
  8  9  1  0
  9 10  1  0
 10 11  1  0
 11 12  1  0
 11 13  1  0
 10 14  1  0
 10 15  1  0
  9 16  1  0
  9 17  1  0
  8 18  1  0
  8 19  1  0
  7 20  1  0
  6 21  1  0
  6 22  1  0
  5 23  1  0
 23 24  2  0
 24 25  1  0
 25 26  2  0
 26 27  1  0
 27 28  2  0
 28 29  1  0
 26 30  1  0
 25 31  1  0
 24 32  1  0
  5 33  1  0
  4 34  1  0
  4 35  1  0
  3 36  1  0
 36 37  1  0
 37 38  1  0
 38 39  1  0
 39 40  2  0
 40 41  1  0
 41 42  1  0
 41 43  2  0
 43 44  1  0
 44 45  2  0
 45 46  1  0
 44 47  1  0
 43 48  1  0
 40 49  1  0
 37 50  1  0
 37 51  1  0
 36 52  1  0
 36 53  1  0
  3 54  1  0
 38  2  1  0
 45 39  1  0
 11  7  1  0
 28 23  1  0
M  CHG  2   4   1   7   1
M  END
>  <plip>  (1) 
-0.14285714285714285

>  <filename>  (1) 
[H][c]1[n][c]([H])[c]([C]([H])([C]([H])([H])[N+]2([H])[C]([H])([H])[C]([H])([H])[C]([H])([H])[C]2([H])[H])[N+]([H])([H])[C]2([H])[C](=[O])[N]([c]3[c]([H])[c]([H])[c]([H])[c]([Cl])[c]3[H])[C]([H])([H])[C]2([H])[H])[c]([H])[c]1[H]

$$$$
