
     RDKit          3D

 37 37  0  0  0  0  0  0  0  0999 V2000
    2.0621   -7.0209   25.8603 C   0  0  0  0  0  0  0  0  0  0  0  0
    3.0474   -6.1961   25.1770 N   0  0  0  0  0  0  0  0  0  0  0  0
    4.2148   -6.7364   24.7352 C   0  0  0  0  0  0  0  0  0  0  0  0
    4.4918   -7.9088   24.9165 O   0  0  0  0  0  0  0  0  0  0  0  0
    5.1719   -5.7881   24.0037 C   0  0  0  0  0  0  0  0  0  0  0  0
    4.7822   -5.6186   22.6453 O   0  0  0  0  0  0  0  0  0  0  0  0
    5.5640   -4.6751   21.9277 C   0  0  0  0  0  0  0  0  0  0  0  0
    4.8703   -3.3129   21.9890 C   0  0  0  0  0  0  0  0  0  0  0  0
    5.5643   -2.2544   21.2729 N   0  0  0  0  0  0  0  0  0  0  0  0
    6.7230   -1.7123   21.7503 C   0  0  0  0  0  0  0  0  0  0  0  0
    7.2382   -2.0657   22.8018 O   0  0  0  0  0  0  0  0  0  0  0  0
    7.3183   -0.7523   20.9195 N   0  0  0  0  0  0  0  0  0  0  0  0
    8.7159   -0.4065   21.2028 C   0  0  0  0  0  0  0  0  0  0  0  0
    9.4055   -1.2018   20.8863 H   0  0  0  0  0  0  0  0  0  0  0  0
    8.8614   -0.2364   22.2749 H   0  0  0  0  0  0  0  0  0  0  0  0
    8.9581    0.5119   20.6594 H   0  0  0  0  0  0  0  0  0  0  0  0
    6.6375   -0.0265   19.8887 C   0  0  0  0  0  0  0  0  0  0  0  0
    5.4313    0.6429   20.1442 C   0  0  0  0  0  0  0  0  0  0  0  0
    4.8012    1.3184   19.0894 C   0  0  0  0  0  0  0  0  0  0  0  0
    5.3906    1.3050   17.8203 C   0  0  0  0  0  0  0  0  0  0  0  0
    6.5557    0.6876   17.5619 N   0  0  0  0  0  0  0  0  0  0  0  0
    7.1616    0.0638   18.5793 C   0  0  0  0  0  0  0  0  0  0  0  0
    8.1165   -0.4134   18.3596 H   0  0  0  0  0  0  0  0  0  0  0  0
    4.9180    1.8037   16.9761 H   0  0  0  0  0  0  0  0  0  0  0  0
    3.8686    1.8516   19.2400 H   0  0  0  0  0  0  0  0  0  0  0  0
    5.0156    0.6255   21.1503 H   0  0  0  0  0  0  0  0  0  0  0  0
    5.3333   -1.9868   20.3325 H   0  0  0  0  0  0  0  0  0  0  0  0
    3.8619   -3.4349   21.5949 H   0  0  0  0  0  0  0  0  0  0  0  0
    4.7704   -3.0422   23.0477 H   0  0  0  0  0  0  0  0  0  0  0  0
    6.5906   -4.5802   22.3193 H   0  0  0  0  0  0  0  0  0  0  0  0
    5.6200   -5.0254   20.8898 H   0  0  0  0  0  0  0  0  0  0  0  0
    6.1568   -6.2618   24.0708 H   0  0  0  0  0  0  0  0  0  0  0  0
    5.2269   -4.8161   24.5241 H   0  0  0  0  0  0  0  0  0  0  0  0
    2.8269   -5.2566   24.8957 H   0  0  0  0  0  0  0  0  0  0  0  0
    2.4707   -7.4053   26.8044 H   0  0  0  0  0  0  0  0  0  0  0  0
    1.1793   -6.4105   26.0660 H   0  0  0  0  0  0  0  0  0  0  0  0
    1.7733   -7.8908   25.2536 H   0  0  0  0  0  0  0  0  0  0  0  0
  1  2  1  0
  2  3  1  0
  3  4  2  0
  3  5  1  0
  5  6  1  0
  6  7  1  0
  7  8  1  0
  8  9  1  0
  9 10  1  0
 10 11  2  0
 10 12  1  0
 12 13  1  0
 13 14  1  0
 13 15  1  0
 13 16  1  0
 12 17  1  0
 17 18  2  0
 18 19  1  0
 19 20  2  0
 20 21  1  0
 21 22  2  0
 22 23  1  0
 20 24  1  0
 19 25  1  0
 18 26  1  0
  9 27  1  0
  8 28  1  0
  8 29  1  0
  7 30  1  0
  7 31  1  0
  5 32  1  0
  5 33  1  0
  2 34  1  0
  1 35  1  0
  1 36  1  0
  1 37  1  0
 22 17  1  0
M  END
>  <plip>  (1) 
-0.06896551724137931

>  <filename>  (1) 
[H][c]1[n][c]([H])[c]([N]([C](=[O])[N]([H])[C]([H])([H])[C]([H])([H])[O][C]([H])([H])[C](=[O])[N]([H])[C]([H])([H])[H])[C]([H])([H])[H])[c]([H])[c]1[H]

$$$$
