
     RDKit          3D

 42 44  0  0  0  0  0  0  0  0999 V2000
    8.9226   -2.4533   21.8608 C   0  0  0  0  0  0  0  0  0  0  0  0
    8.6325   -1.3619   20.8230 C   0  0  0  0  0  0  0  0  0  0  0  0
    9.8014   -0.3809   20.7961 C   0  0  0  0  0  0  0  0  0  0  0  0
    9.8555    0.1893   21.7293 H   0  0  0  0  0  0  0  0  0  0  0  0
    9.6752    0.3151   19.9639 H   0  0  0  0  0  0  0  0  0  0  0  0
   10.7398   -0.9305   20.6622 H   0  0  0  0  0  0  0  0  0  0  0  0
    7.2623   -0.7232   21.1112 C   0  0  0  0  0  0  0  0  0  0  0  0
    6.6386    0.0137   19.9513 C   0  0  0  0  0  0  0  0  0  0  0  0
    5.4229    0.6679   20.1533 C   0  0  0  0  0  0  0  0  0  0  0  0
    4.8309    1.3092   19.0746 C   0  0  0  0  0  0  0  0  0  0  0  0
    5.4600    1.2902   17.8296 C   0  0  0  0  0  0  0  0  0  0  0  0
    6.6343    0.6626   17.6250 N   0  0  0  0  0  0  0  0  0  0  0  0
    7.2141    0.0436   18.6695 C   0  0  0  0  0  0  0  0  0  0  0  0
    8.1626   -0.4579   18.4955 H   0  0  0  0  0  0  0  0  0  0  0  0
    4.9718    1.7960   17.0031 H   0  0  0  0  0  0  0  0  0  0  0  0
    3.8901    1.8319   19.1926 H   0  0  0  0  0  0  0  0  0  0  0  0
    4.9657    0.6863   21.1415 H   0  0  0  0  0  0  0  0  0  0  0  0
    7.3500    0.1634   22.2701 N   0  0  0  0  0  0  0  0  0  0  0  0
    6.9425   -0.3810   23.5584 C   0  0  0  0  0  0  0  0  0  0  0  0
    7.7462   -0.2644   24.2941 H   0  0  0  0  0  0  0  0  0  0  0  0
    6.7227   -1.4511   23.4761 H   0  0  0  0  0  0  0  0  0  0  0  0
    6.0420    0.1287   23.9144 H   0  0  0  0  0  0  0  0  0  0  0  0
    7.9693    1.4219   22.1989 C   0  0  0  0  0  0  0  0  0  0  0  0
    8.4642    1.7726   21.1273 O   0  0  0  0  0  0  0  0  0  0  0  0
    8.0139    2.3388   23.3953 C   0  0  0  0  0  0  0  0  0  0  0  0
    7.1482    2.2917   24.4030 N   0  0  0  0  0  0  0  0  0  0  0  0
    7.5084    3.3099   25.2466 N   0  0  0  0  0  0  0  0  0  0  0  0
    6.9677    3.5996   26.5022 C   0  0  0  0  0  0  0  0  0  0  0  0
    7.5078    4.6661   27.2077 C   0  0  0  0  0  0  0  0  0  0  0  0
    8.6320    5.4149   26.6120 C   0  0  0  0  0  0  0  0  0  0  0  0
    9.1754    5.1001   25.4577 N   0  0  0  0  0  0  0  0  0  0  0  0
    8.6056    4.0265   24.7826 C   0  0  0  0  0  0  0  0  0  0  0  0
    8.9949    3.4092   23.6402 C   0  0  0  0  0  0  0  0  0  0  0  0
   10.6122    3.8136   22.6929 Br  0  0  0  0  0  0  0  0  0  0  0  0
    9.0607    6.2561   27.1441 H   0  0  0  0  0  0  0  0  0  0  0  0
    7.1382    4.9621   28.1884 H   0  0  0  0  0  0  0  0  0  0  0  0
    6.1609    2.9931   26.9072 H   0  0  0  0  0  0  0  0  0  0  0  0
    6.5738   -1.5445   21.3558 H   0  0  0  0  0  0  0  0  0  0  0  0
    8.5804   -1.8090   19.8370 H   0  0  0  0  0  0  0  0  0  0  0  0
    9.8322   -2.9903   21.5836 H   0  0  0  0  0  0  0  0  0  0  0  0
    8.0905   -3.1635   21.9193 H   0  0  0  0  0  0  0  0  0  0  0  0
    9.0709   -2.0133   22.8530 H   0  0  0  0  0  0  0  0  0  0  0  0
  1  2  1  0
  2  3  1  0
  3  4  1  0
  3  5  1  0
  3  6  1  0
  2  7  1  0
  7  8  1  0
  8  9  2  0
  9 10  1  0
 10 11  2  0
 11 12  1  0
 12 13  2  0
 13 14  1  0
 11 15  1  0
 10 16  1  0
  9 17  1  0
  7 18  1  0
 18 19  1  0
 19 20  1  0
 19 21  1  0
 19 22  1  0
 18 23  1  0
 23 24  2  0
 23 25  1  0
 25 26  2  0
 26 27  1  0
 27 28  1  0
 28 29  2  0
 29 30  1  0
 30 31  2  0
 31 32  1  0
 32 33  2  0
 33 34  1  0
 30 35  1  0
 29 36  1  0
 28 37  1  0
  7 38  1  0
  2 39  1  0
  1 40  1  0
  1 41  1  0
  1 42  1  0
 13  8  1  0
 33 25  1  0
 32 27  1  0
M  END
>  <plip>  (1) 
-0.07142857142857142

>  <filename>  (1) 
[H][c]1[n][c]([H])[c]([C]([H])([N]([C](=[O])[c]2[n][n]3[c]([H])[c]([H])[c]([H])[n][c]3[c]2[Br])[C]([H])([H])[H])[C]([H])([C]([H])([H])[H])[C]([H])([H])[H])[c]([H])[c]1[H]

$$$$
