
     RDKit          3D

 32 35  0  0  0  0  0  0  0  0999 V2000
    6.6563   -3.7732   20.4495 H   0  0  0  0  0  0  0  0  0  0  0  0
    6.5261   -2.7840   20.2720 N   0  0  0  0  0  0  0  0  0  0  0  0
    7.2365   -2.0948   21.0648 C   0  0  0  0  0  0  0  0  0  0  0  0
    8.2777   -2.6130   22.4157 S   0  0  0  0  0  0  0  0  0  0  0  0
    8.3551   -0.9889   23.0089 C   0  0  0  0  0  0  0  0  0  0  0  0
    8.8149   -0.8128   23.9720 H   0  0  0  0  0  0  0  0  0  0  0  0
    7.7777   -0.0850   22.1809 C   0  0  0  0  0  0  0  0  0  0  0  0
    7.7916    1.3791   22.3643 C   0  0  0  0  0  0  0  0  0  0  0  0
    7.7270    1.8497   23.6535 O   0  0  0  0  0  0  0  0  0  0  0  0
    7.7144    3.2114   23.5761 C   0  0  0  0  0  0  0  0  0  0  0  0
    7.5923    4.0860   24.6582 C   0  0  0  0  0  0  0  0  0  0  0  0
    7.4885    3.6973   25.6650 H   0  0  0  0  0  0  0  0  0  0  0  0
    7.6048    5.4505   24.3636 C   0  0  0  0  0  0  0  0  0  0  0  0
    7.5249    6.1686   25.1746 H   0  0  0  0  0  0  0  0  0  0  0  0
    7.7211    5.9200   23.0352 C   0  0  0  0  0  0  0  0  0  0  0  0
    7.7198    6.9919   22.8456 H   0  0  0  0  0  0  0  0  0  0  0  0
    7.8311    5.0323   21.9690 C   0  0  0  0  0  0  0  0  0  0  0  0
    7.9095    5.4070   20.9509 H   0  0  0  0  0  0  0  0  0  0  0  0
    7.8338    3.6424   22.2428 C   0  0  0  0  0  0  0  0  0  0  0  0
    7.9092    2.4179   21.4900 C   0  0  0  0  0  0  0  0  0  0  0  0
    7.9913    2.2529   20.4282 H   0  0  0  0  0  0  0  0  0  0  0  0
    7.2519   -0.6986   21.0152 N   0  0  0  0  0  0  0  0  0  0  0  0
    6.5998   -0.0082   19.9271 C   0  0  0  0  0  0  0  0  0  0  0  0
    7.1523    0.0342   18.6246 C   0  0  0  0  0  0  0  0  0  0  0  0
    8.0927   -0.4795   18.4214 H   0  0  0  0  0  0  0  0  0  0  0  0
    6.5731    0.6659   17.5932 N   0  0  0  0  0  0  0  0  0  0  0  0
    5.4063    1.2937   17.8212 C   0  0  0  0  0  0  0  0  0  0  0  0
    4.9706    1.8119   16.9697 H   0  0  0  0  0  0  0  0  0  0  0  0
    4.7633    1.2955   19.0645 C   0  0  0  0  0  0  0  0  0  0  0  0
    3.8157    1.8146   19.1848 H   0  0  0  0  0  0  0  0  0  0  0  0
    5.3680    0.6275   20.1368 C   0  0  0  0  0  0  0  0  0  0  0  0
    4.9207    0.5941   21.1311 H   0  0  0  0  0  0  0  0  0  0  0  0
  1  2  1  0
  2  3  2  3
  3  4  1  0
  4  5  1  0
  5  6  1  0
  5  7  2  0
  7  8  1  0
  8  9  1  0
  9 10  1  0
 10 11  2  0
 11 12  1  0
 11 13  1  0
 13 14  1  0
 13 15  2  0
 15 16  1  0
 15 17  1  0
 17 18  1  0
 17 19  2  0
 19 20  1  0
 20 21  1  0
  7 22  1  0
 22 23  1  0
 23 24  2  0
 24 25  1  0
 24 26  1  0
 26 27  2  0
 27 28  1  0
 27 29  1  0
 29 30  1  0
 29 31  2  0
 31 32  1  0
 22  3  1  0
 31 23  1  0
 20  8  2  0
 19 10  1  0
M  END
>  <plip>  (1) 
-0.07142857142857142

>  <filename>  (1) 
[H][N]=[c]1[s][c]([H])[c](-[c]2[o][c]3[c]([H])[c]([H])[c]([H])[c]([H])[c]3[c]2[H])[n]1-[c]1[c]([H])[n][c]([H])[c]([H])[c]1[H]

$$$$
