
     RDKit          3D

 36 37  0  0  0  0  0  0  0  0999 V2000
    6.3117    0.9413   23.7695 O   0  0  0  0  0  0  0  0  0  0  0  0
    7.5250    1.0049   23.6818 C   0  0  0  0  0  0  0  0  0  0  0  0
    8.2335    1.4759   22.4087 C   0  0  0  0  0  0  0  0  0  0  0  0
    8.9742    0.1437   21.4044 S   0  0  0  0  0  0  0  0  0  0  0  0
    7.4245   -0.7220   20.9705 C   0  0  0  0  0  0  0  0  0  0  0  0
    6.6410   -0.0185   19.8857 C   0  0  0  0  0  0  0  0  0  0  0  0
    5.4280    0.6364   20.1377 C   0  0  0  0  0  0  0  0  0  0  0  0
    4.7954    1.3025   19.0818 C   0  0  0  0  0  0  0  0  0  0  0  0
    5.3974    1.2990   17.8206 C   0  0  0  0  0  0  0  0  0  0  0  0
    6.5585    0.6787   17.5582 N   0  0  0  0  0  0  0  0  0  0  0  0
    7.1570    0.0513   18.5771 C   0  0  0  0  0  0  0  0  0  0  0  0
    8.1086   -0.4265   18.3492 H   0  0  0  0  0  0  0  0  0  0  0  0
    4.9339    1.8217   16.9858 H   0  0  0  0  0  0  0  0  0  0  0  0
    3.8642    1.8367   19.2280 H   0  0  0  0  0  0  0  0  0  0  0  0
    5.0021    0.6483   21.1458 H   0  0  0  0  0  0  0  0  0  0  0  0
    6.8319   -0.8115   21.8883 H   0  0  0  0  0  0  0  0  0  0  0  0
    7.7333   -1.7319   20.6741 H   0  0  0  0  0  0  0  0  0  0  0  0
    9.0205    2.2053   22.6281 H   0  0  0  0  0  0  0  0  0  0  0  0
    7.4816    1.9790   21.8000 H   0  0  0  0  0  0  0  0  0  0  0  0
    8.4220    0.6714   24.6767 N   0  0  0  0  0  0  0  0  0  0  0  0
    8.1898    0.4792   26.0596 N   0  0  0  0  0  0  0  0  0  0  0  0
    7.2260    1.2009   26.7721 C   0  0  0  0  0  0  0  0  0  0  0  0
    6.6597    0.4587   27.7257 N   0  0  0  0  0  0  0  0  0  0  0  0
    5.7011    1.0302   28.4823 C   0  0  0  0  0  0  0  0  0  0  0  0
    4.9675    0.2559   29.6043 C   0  0  0  0  0  0  0  0  0  0  0  0
    5.1760    0.8436   30.8033 F   0  0  0  0  0  0  0  0  0  0  0  0
    5.3153   -1.0257   29.7105 F   0  0  0  0  0  0  0  0  0  0  0  0
    3.6282    0.3057   29.4155 F   0  0  0  0  0  0  0  0  0  0  0  0
    5.3044    2.3642   28.3040 C   0  0  0  0  0  0  0  0  0  0  0  0
    5.9152    3.1241   27.3053 C   0  0  0  0  0  0  0  0  0  0  0  0
    6.8973    2.5375   26.5204 C   0  0  0  0  0  0  0  0  0  0  0  0
    7.3929    3.0395   25.7040 H   0  0  0  0  0  0  0  0  0  0  0  0
    5.6300    4.1637   27.1413 H   0  0  0  0  0  0  0  0  0  0  0  0
    4.5391    2.8020   28.9315 H   0  0  0  0  0  0  0  0  0  0  0  0
    7.9828   -0.4694   26.3737 H   0  0  0  0  0  0  0  0  0  0  0  0
    9.3888    0.8567   24.4463 H   0  0  0  0  0  0  0  0  0  0  0  0
  1  2  2  0
  2  3  1  0
  3  4  1  0
  4  5  1  0
  5  6  1  0
  6  7  2  0
  7  8  1  0
  8  9  2  0
  9 10  1  0
 10 11  2  0
 11 12  1  0
  9 13  1  0
  8 14  1  0
  7 15  1  0
  5 16  1  0
  5 17  1  0
  3 18  1  0
  3 19  1  0
  2 20  1  0
 20 21  1  0
 21 22  1  0
 22 23  2  0
 23 24  1  0
 24 25  1  0
 25 26  1  0
 25 27  1  0
 25 28  1  0
 24 29  2  0
 29 30  1  0
 30 31  2  0
 31 32  1  0
 30 33  1  0
 29 34  1  0
 21 35  1  0
 20 36  1  0
 11  6  1  0
 31 22  1  0
M  END
>  <plip>  (1) 
-0.03571428571428571

>  <filename>  (1) 
[H][c]1[n][c]([H])[c]([C]([H])([H])[S][C]([H])([H])[C](=[O])[N]([H])[N]([H])[c]2[n][c]([C]([F])([F])[F])[c]([H])[c]([H])[c]2[H])[c]([H])[c]1[H]

$$$$
