
     RDKit          3D

 32 33  0  0  0  0  0  0  0  0999 V2000
    4.9413    1.7820   16.9973 H   0  0  0  0  0  0  0  0  0  0  0  0
    5.4082    1.2838   17.8436 C   0  0  0  0  0  0  0  0  0  0  0  0
    6.5751    0.6613   17.6047 N   0  0  0  0  0  0  0  0  0  0  0  0
    7.1794    0.0446   18.6217 C   0  0  0  0  0  0  0  0  0  0  0  0
    8.1227   -0.4469   18.3896 H   0  0  0  0  0  0  0  0  0  0  0  0
    6.6516    0.0268   19.9248 C   0  0  0  0  0  0  0  0  0  0  0  0
    7.3465   -0.6479   20.9675 N   0  0  0  0  0  0  0  0  0  0  0  0
    7.7446   -1.9167   20.7837 N   0  0  0  0  0  0  0  0  0  0  0  0
    8.2760   -2.3407   21.8833 N   0  0  0  0  0  0  0  0  0  0  0  0
    8.2329   -1.3533   22.8087 C   0  0  0  0  0  0  0  0  0  0  0  0
    8.6370   -1.5070   23.8015 H   0  0  0  0  0  0  0  0  0  0  0  0
    7.6449   -0.2492   22.2452 C   0  0  0  0  0  0  0  0  0  0  0  0
    7.4719    1.1179   22.7708 C   0  0  0  0  0  0  0  0  0  0  0  0
    7.2283    2.0834   22.0917 O   0  0  0  0  0  0  0  0  0  0  0  0
    7.6371    1.1448   24.1104 O   0  0  0  0  0  0  0  0  0  0  0  0
    7.5043    2.4100   24.8391 C   0  0  0  0  0  0  0  0  0  0  0  0
    8.5632    3.4139   24.3811 C   0  0  0  0  0  0  0  0  0  0  0  0
    8.3821    3.7488   23.3570 H   0  0  0  0  0  0  0  0  0  0  0  0
    9.5589    2.9644   24.4416 H   0  0  0  0  0  0  0  0  0  0  0  0
    8.5456    4.2864   25.0444 H   0  0  0  0  0  0  0  0  0  0  0  0
    7.7506    2.0406   26.3013 C   0  0  0  0  0  0  0  0  0  0  0  0
    8.7526    1.6293   26.4557 H   0  0  0  0  0  0  0  0  0  0  0  0
    7.6704    2.9396   26.9217 H   0  0  0  0  0  0  0  0  0  0  0  0
    7.0099    1.3252   26.6705 H   0  0  0  0  0  0  0  0  0  0  0  0
    6.0939    2.9825   24.6865 C   0  0  0  0  0  0  0  0  0  0  0  0
    5.9060    3.3125   23.6622 H   0  0  0  0  0  0  0  0  0  0  0  0
    5.3471    2.2338   24.9676 H   0  0  0  0  0  0  0  0  0  0  0  0
    5.9767    3.8407   25.3584 H   0  0  0  0  0  0  0  0  0  0  0  0
    5.4234    0.6418   20.1682 C   0  0  0  0  0  0  0  0  0  0  0  0
    4.9895    0.6447   21.1699 H   0  0  0  0  0  0  0  0  0  0  0  0
    4.8047    1.2942   19.1017 C   0  0  0  0  0  0  0  0  0  0  0  0
    3.8825    1.8341   19.2543 H   0  0  0  0  0  0  0  0  0  0  0  0
  1  2  1  0
  2  3  2  0
  3  4  1  0
  4  5  1  0
  4  6  2  0
  6  7  1  0
  7  8  1  0
  8  9  2  0
  9 10  1  0
 10 11  1  0
 10 12  2  0
 12 13  1  0
 13 14  2  0
 13 15  1  0
 15 16  1  0
 16 17  1  0
 17 18  1  0
 17 19  1  0
 17 20  1  0
 16 21  1  0
 21 22  1  0
 21 23  1  0
 21 24  1  0
 16 25  1  0
 25 26  1  0
 25 27  1  0
 25 28  1  0
  6 29  1  0
 29 30  1  0
 29 31  2  0
 31 32  1  0
 31  2  1  0
 12  7  1  0
M  END
>  <plip>  (1) 
-0.0

>  <filename>  (1) 
[H][c]1[n][c]([H])[c](-[n]2[n][n][c]([H])[c]2[C](=[O])[O][C]([C]([H])([H])[H])([C]([H])([H])[H])[C]([H])([H])[H])[c]([H])[c]1[H]

$$$$
