
     RDKit          3D

 29 30  0  0  0  0  0  0  0  0999 V2000
    4.9852    1.7338   17.0355 H   0  0  0  0  0  0  0  0  0  0  0  0
    5.4524    1.2104   17.8666 C   0  0  0  0  0  0  0  0  0  0  0  0
    6.5775    0.5368   17.5882 N   0  0  0  0  0  0  0  0  0  0  0  0
    7.1953   -0.0789   18.6008 C   0  0  0  0  0  0  0  0  0  0  0  0
    8.1070   -0.6181   18.3492 H   0  0  0  0  0  0  0  0  0  0  0  0
    6.7286   -0.0551   19.9168 C   0  0  0  0  0  0  0  0  0  0  0  0
    7.7423   -0.7835   21.2044 S   0  0  0  0  0  4  0  0  0  0  0  0
    7.3278   -0.0746   22.4666 O   0  0  0  0  0  0  0  0  0  0  0  0
    6.9988   -2.4965   21.2102 C   0  0  1  0  0  0  0  0  0  0  0  0
    7.0302   -2.7721   20.1570 H   0  0  0  0  0  0  0  0  0  0  0  0
    7.8425   -3.4378   22.0611 C   0  0  0  0  0  0  0  0  0  0  0  0
    8.1857   -3.0372   23.3664 C   0  0  0  0  0  0  0  0  0  0  0  0
    7.9434   -2.0211   23.6752 H   0  0  0  0  0  0  0  0  0  0  0  0
    8.7120   -3.9550   24.2804 C   0  0  0  0  0  0  0  0  0  0  0  0
    8.9165   -3.6313   25.2985 H   0  0  0  0  0  0  0  0  0  0  0  0
    8.8961   -5.2872   23.9031 C   0  0  0  0  0  0  0  0  0  0  0  0
    9.2973   -6.0127   24.6114 H   0  0  0  0  0  0  0  0  0  0  0  0
    8.5597   -5.6972   22.6075 C   0  0  0  0  0  0  0  0  0  0  0  0
    8.6833   -6.7442   22.3443 H   0  0  0  0  0  0  0  0  0  0  0  0
    8.0472   -4.7754   21.6849 C   0  0  0  0  0  0  0  0  0  0  0  0
    7.7838   -5.1175   20.6831 H   0  0  0  0  0  0  0  0  0  0  0  0
    5.5654   -2.5215   21.7372 C   0  0  0  0  0  0  0  0  0  0  0  0
    5.5898   -2.4565   22.8337 H   0  0  0  0  0  0  0  0  0  0  0  0
    4.9820   -1.6949   21.3295 H   0  0  0  0  0  0  0  0  0  0  0  0
    5.0941   -3.4727   21.4759 H   0  0  0  0  0  0  0  0  0  0  0  0
    5.5391    0.6272   20.2050 C   0  0  0  0  0  0  0  0  0  0  0  0
    5.1451    0.6581   21.2243 H   0  0  0  0  0  0  0  0  0  0  0  0
    4.8854    1.2619   19.1466 C   0  0  0  0  0  0  0  0  0  0  0  0
    3.9574    1.7991   19.2998 H   0  0  0  0  0  0  0  0  0  0  0  0
  1  2  1  0
  2  3  2  0
  3  4  1  0
  4  5  1  0
  4  6  2  0
  7  6  1  6
  7  8  2  0
  7  9  1  0
  9 10  1  6
  9 11  1  0
 11 12  2  0
 12 13  1  0
 12 14  1  0
 14 15  1  0
 14 16  2  0
 16 17  1  0
 16 18  1  0
 18 19  1  0
 18 20  2  0
 20 21  1  0
  9 22  1  0
 22 23  1  0
 22 24  1  0
 22 25  1  0
  6 26  1  0
 26 27  1  0
 26 28  2  0
 28 29  1  0
 28  2  1  0
 20 11  1  0
M  END
>  <plip>  (1) 
-0.13333333333333333

>  <filename>  (1) 
[H][c]1[n][c]([H])[c]([S@@](=[O])[C@@]([H])([c]2[c]([H])[c]([H])[c]([H])[c]([H])[c]2[H])[C]([H])([H])[H])[c]([H])[c]1[H]

$$$$
