
     RDKit          3D

 37 39  0  0  0  0  0  0  0  0999 V2000
    7.4889   -2.1960   20.8564 C   0  0  0  0  0  0  0  0  0  0  0  0
    7.2523   -0.7070   21.1214 C   0  0  0  0  0  0  0  0  0  0  0  0
    6.5868    0.0467   19.9822 C   0  0  0  0  0  0  0  0  0  0  0  0
    5.3651    0.7294   20.1355 C   0  0  0  0  0  0  0  0  0  0  0  0
    4.7952    1.3704   19.0300 C   0  0  0  0  0  0  0  0  0  0  0  0
    5.4698    1.3250   17.8063 C   0  0  0  0  0  0  0  0  0  0  0  0
    6.6439    0.6997   17.6466 N   0  0  0  0  0  0  0  0  0  0  0  0
    7.1779    0.0913   18.7147 C   0  0  0  0  0  0  0  0  0  0  0  0
    8.1376   -0.3969   18.5431 H   0  0  0  0  0  0  0  0  0  0  0  0
    5.0450    1.8059   16.9229 H   0  0  0  0  0  0  0  0  0  0  0  0
    3.8536    1.9028   19.0976 H   0  0  0  0  0  0  0  0  0  0  0  0
    4.8679    0.7659   21.1065 H   0  0  0  0  0  0  0  0  0  0  0  0
    8.6159   -0.1015   21.4681 N   0  0  0  0  0  4  0  0  0  0  0  0
    9.4181   -0.7950   22.5814 C   0  0  0  0  0  0  0  0  0  0  0  0
   10.8611   -0.2979   22.5497 C   0  0  0  0  0  0  0  0  0  0  0  0
   10.9633    1.2190   22.6232 C   0  0  0  0  0  0  0  0  0  0  0  0
   12.1668    1.8545   22.9674 C   0  0  0  0  0  0  0  0  0  0  0  0
   12.2605    3.2527   22.9979 C   0  0  0  0  0  0  0  0  0  0  0  0
   11.1223    4.0256   22.7307 C   0  0  0  0  0  0  0  0  0  0  0  0
    9.9226    3.3972   22.3879 C   0  0  0  0  0  0  0  0  0  0  0  0
    9.8438    2.0017   22.2740 C   0  0  0  0  0  0  0  0  0  0  0  0
    8.5507    1.4022   21.7481 C   0  0  0  0  0  0  0  0  0  0  0  0
    7.7305    1.5889   22.4520 H   0  0  0  0  0  0  0  0  0  0  0  0
    8.2617    1.9101   20.8215 H   0  0  0  0  0  0  0  0  0  0  0  0
    9.0442    3.9971   22.1471 H   0  0  0  0  0  0  0  0  0  0  0  0
   11.1690    5.1138   22.7492 H   0  0  0  0  0  0  0  0  0  0  0  0
   13.2151    3.7292   23.2120 H   0  0  0  0  0  0  0  0  0  0  0  0
   13.0337    1.2444   23.2188 H   0  0  0  0  0  0  0  0  0  0  0  0
   11.3406   -0.6407   21.6209 H   0  0  0  0  0  0  0  0  0  0  0  0
   11.4047   -0.7623   23.3790 H   0  0  0  0  0  0  0  0  0  0  0  0
    9.3853   -1.8821   22.4590 H   0  0  0  0  0  0  0  0  0  0  0  0
    8.9524   -0.5554   23.5437 H   0  0  0  0  0  0  0  0  0  0  0  0
    9.1882   -0.1845   20.5990 H   0  0  0  0  0  0  0  0  0  0  0  0
    6.5992   -0.6177   22.0000 H   0  0  0  0  0  0  0  0  0  0  0  0
    7.4718   -2.7494   21.8002 H   0  0  0  0  0  0  0  0  0  0  0  0
    6.7472   -2.6413   20.1939 H   0  0  0  0  0  0  0  0  0  0  0  0
    8.4826   -2.3340   20.4192 H   0  0  0  0  0  0  0  0  0  0  0  0
  1  2  1  0
  2  3  1  0
  3  4  2  0
  4  5  1  0
  5  6  2  0
  6  7  1  0
  7  8  2  0
  8  9  1  0
  6 10  1  0
  5 11  1  0
  4 12  1  0
  2 13  1  0
 13 14  1  0
 14 15  1  0
 15 16  1  0
 16 17  2  0
 17 18  1  0
 18 19  2  0
 19 20  1  0
 20 21  2  0
 21 22  1  0
 22 23  1  0
 22 24  1  0
 20 25  1  0
 19 26  1  0
 18 27  1  0
 17 28  1  0
 15 29  1  0
 15 30  1  0
 14 31  1  0
 14 32  1  0
 13 33  1  0
  2 34  1  0
  1 35  1  0
  1 36  1  0
  1 37  1  0
  8  3  1  0
 22 13  1  0
 21 16  1  0
M  CHG  1  13   1
M  END
>  <plip>  (1) 
-0.06896551724137931

>  <filename>  (1) 
[H][c]1[n][c]([H])[c]([C]([H])([C]([H])([H])[H])[N+]2([H])[C]([H])([H])[c]3[c]([H])[c]([H])[c]([H])[c]([H])[c]3[C]([H])([H])[C]2([H])[H])[c]([H])[c]1[H]

$$$$
