
     RDKit          3D

 38 40  0  0  0  0  0  0  0  0999 V2000
    4.7775    2.0719   16.8050 H   0  0  0  0  0  0  0  0  0  0  0  0
    5.2240    1.5000   17.6123 C   0  0  0  0  0  0  0  0  0  0  0  0
    6.3601    0.8510   17.3096 N   0  0  0  0  0  0  0  0  0  0  0  0
    6.9672    0.1724   18.2861 C   0  0  0  0  0  0  0  0  0  0  0  0
    7.8997   -0.3240   18.0332 H   0  0  0  0  0  0  0  0  0  0  0  0
    6.4738    0.0861   19.6131 C   0  0  0  0  0  0  0  0  0  0  0  0
    7.1554   -0.6263   20.6250 N   0  0  0  0  0  0  0  0  0  0  0  0
    8.5146   -0.8698   20.6366 C   0  0  0  0  0  0  0  0  0  0  0  0
    9.3429   -0.3744   19.9006 O   0  0  0  0  0  0  0  0  0  0  0  0
    8.7764   -1.8190   21.6315 N   0  0  0  0  0  0  0  0  0  0  0  0
   10.0370   -2.4422   21.8559 N   0  0  0  0  0  0  0  0  0  0  0  0
   10.5286   -2.5396   20.9634 H   0  0  0  0  0  0  0  0  0  0  0  0
   10.9495   -1.7501   22.7817 C   0  0  0  0  0  0  0  0  0  0  0  0
   11.8887   -2.3132   22.6300 H   0  0  0  0  0  0  0  0  0  0  0  0
   10.4917   -1.9219   24.2342 C   0  0  0  0  0  0  0  0  0  0  0  0
   10.7003   -2.9244   24.6325 H   0  0  0  0  0  0  0  0  0  0  0  0
    9.4152   -1.7110   24.3494 H   0  0  0  0  0  0  0  0  0  0  0  0
   11.8058    0.5531   24.8895 C   0  0  0  0  0  0  0  0  0  0  0  0
   11.4306   -0.6502   25.0124 H   0  0  0  0  0  0  0  0  0  0  0  0
   10.3721    0.6129   25.3978 H   0  0  0  0  0  0  0  0  0  0  0  0
   12.0311    0.3557   24.7007 C   0  0  0  0  0  0  0  0  0  0  0  0
   12.8490    0.2987   25.6377 H   0  0  0  0  0  0  0  0  0  0  0  0
   11.5626    1.9756   25.4497 H   0  0  0  0  0  0  0  0  0  0  0  0
   12.1395    0.5219   23.3498 C   0  0  0  0  0  0  0  0  0  0  0  0
   12.9809   -0.1264   23.4745 H   0  0  0  0  0  0  0  0  0  0  0  0
   12.4912    1.4296   22.7876 H   0  0  0  0  0  0  0  0  0  0  0  0
   11.1786   -0.2331   22.4428 C   0  0  0  0  0  0  0  0  0  0  0  0
   11.5142   -0.1777   21.3954 H   0  0  0  0  0  0  0  0  0  0  0  0
   10.1667    0.2219   22.3940 H   0  0  0  0  0  0  0  0  0  0  0  0
    7.6166   -2.1448   22.3282 C   0  0  0  0  0  0  0  0  0  0  0  0
    7.4843   -2.9388   23.2265 O   0  0  0  0  0  0  0  0  0  0  0  0
    6.5191   -1.2834   21.7471 C   0  0  0  0  0  0  0  0  0  0  0  0
    6.1920   -0.5851   22.5275 H   0  0  0  0  0  0  0  0  0  0  0  0
    5.6717   -1.9111   21.4663 H   0  0  0  0  0  0  0  0  0  0  0  0
    5.2644    0.7352   19.8981 C   0  0  0  0  0  0  0  0  0  0  0  0
    4.8381    0.6820   20.8988 H   0  0  0  0  0  0  0  0  0  0  0  0
    4.6378    1.4587   18.8799 C   0  0  0  0  0  0  0  0  0  0  0  0
    3.7160    1.9981   19.0643 H   0  0  0  0  0  0  0  0  0  0  0  0
  1  2  1  0
  2  3  2  0
  3  4  1  0
  4  5  1  0
  4  6  2  0
  6  7  1  0
  7  8  1  0
  8  9  2  0
  8 10  1  0
 10 11  1  0
 11 12  1  0
 11 13  1  0
 13 14  1  0
 13 15  1  0
 15 16  1  0
 15 17  1  0
 15 18  1  0
 18 19  1  0
 18 20  1  0
 18 21  1  0
 21 22  1  0
 21 23  1  0
 21 24  1  0
 24 25  1  0
 24 26  1  0
 24 27  1  0
 27 28  1  0
 27 29  1  0
 10 30  1  0
 30 31  2  0
 30 32  1  0
 32 33  1  0
 32 34  1  0
  6 35  1  0
 35 36  1  0
 35 37  2  0
 37 38  1  0
 37  2  1  0
 32  7  1  0
 27 13  1  0
M  END
>  <plip>  (1) 
-0.06896551724137931

>  <filename>  (1) 
[H][c]1[n][c]([H])[c]([N]2[C](=[O])[N]([N]([H])[C]3([H])[C]([H])([H])[C]([H])([H])[C]([H])([H])[C]([H])([H])[C]3([H])[H])[C](=[O])[C]2([H])[H])[c]([H])[c]1[H]

$$$$
