
     RDKit          3D

 37 38  0  0  0  0  0  0  0  0999 V2000
    7.8733   -0.4288   24.1806 C   0  0  0  0  0  0  0  0  0  0  0  0
    8.3974   -1.6225   23.4958 N   0  0  0  0  0  0  0  0  0  0  0  0
    9.2565   -1.4952   22.3792 C   0  0  0  0  0  0  0  0  0  0  0  0
   10.4019   -1.8956   22.3618 O   0  0  0  0  0  0  0  0  0  0  0  0
    8.6228   -0.8079   21.1891 C   0  0  0  0  0  0  0  0  0  0  0  0
    7.3136   -0.6147   20.9993 C   0  0  0  0  0  0  0  0  0  0  0  0
    6.6552    0.0340   19.8582 C   0  0  0  0  0  0  0  0  0  0  0  0
    5.3941    0.6205   20.0555 C   0  0  0  0  0  0  0  0  0  0  0  0
    4.7864    1.2920   18.9982 C   0  0  0  0  0  0  0  0  0  0  0  0
    5.4507    1.3243   17.7653 C   0  0  0  0  0  0  0  0  0  0  0  0
    6.6333    0.7323   17.5379 N   0  0  0  0  0  0  0  0  0  0  0  0
    7.2198    0.1071   18.5663 C   0  0  0  0  0  0  0  0  0  0  0  0
    8.1691   -0.3820   18.3554 H   0  0  0  0  0  0  0  0  0  0  0  0
    5.0159    1.8453   16.9168 H   0  0  0  0  0  0  0  0  0  0  0  0
    3.8337    1.7992   19.1132 H   0  0  0  0  0  0  0  0  0  0  0  0
    4.9234    0.5593   21.0364 H   0  0  0  0  0  0  0  0  0  0  0  0
    6.6504   -0.9552   21.7915 H   0  0  0  0  0  0  0  0  0  0  0  0
    9.5210   -0.4181   20.2652 F   0  0  0  0  0  0  0  0  0  0  0  0
    8.4967   -2.8313   24.2166 N   0  0  0  0  0  0  0  0  0  0  0  0
    7.2021   -3.3938   24.6015 C   0  0  0  0  0  0  0  0  0  0  0  0
    7.3866   -4.8813   24.8395 C   0  0  0  0  0  0  0  0  0  0  0  0
    8.5353   -5.1277   26.1558 S   0  0  0  0  0  0  0  0  0  0  0  0
    8.8776   -6.5407   26.1954 O   0  0  0  0  0  0  0  0  0  0  0  0
    8.0065   -4.4100   27.3147 O   0  0  0  0  0  0  0  0  0  0  0  0
    9.9466   -4.2217   25.6053 C   0  0  0  0  0  0  0  0  0  0  0  0
    9.5630   -2.8028   25.2177 C   0  0  0  0  0  0  0  0  0  0  0  0
   10.4253   -2.3269   24.7331 H   0  0  0  0  0  0  0  0  0  0  0  0
    9.2971   -2.1982   26.1028 H   0  0  0  0  0  0  0  0  0  0  0  0
   10.6270   -4.2719   26.4546 H   0  0  0  0  0  0  0  0  0  0  0  0
   10.3569   -4.7707   24.7585 H   0  0  0  0  0  0  0  0  0  0  0  0
    6.4779   -5.3921   25.1547 H   0  0  0  0  0  0  0  0  0  0  0  0
    7.8156   -5.3653   23.9630 H   0  0  0  0  0  0  0  0  0  0  0  0
    6.7540   -2.8922   25.4755 H   0  0  0  0  0  0  0  0  0  0  0  0
    6.5118   -3.2507   23.7654 H   0  0  0  0  0  0  0  0  0  0  0  0
    6.9510   -0.0625   23.7175 H   0  0  0  0  0  0  0  0  0  0  0  0
    7.6528   -0.6740   25.2264 H   0  0  0  0  0  0  0  0  0  0  0  0
    8.5991    0.3942   24.1653 H   0  0  0  0  0  0  0  0  0  0  0  0
  1  2  1  0
  2  3  1  0
  3  4  2  0
  3  5  1  0
  5  6  2  3
  6  7  1  0
  7  8  2  0
  8  9  1  0
  9 10  2  0
 10 11  1  0
 11 12  2  0
 12 13  1  0
 10 14  1  0
  9 15  1  0
  8 16  1  0
  6 17  1  0
  5 18  1  0
  2 19  1  0
 19 20  1  0
 20 21  1  0
 21 22  1  0
 22 23  2  0
 22 24  2  0
 22 25  1  0
 25 26  1  0
 26 27  1  0
 26 28  1  0
 25 29  1  0
 25 30  1  0
 21 31  1  0
 21 32  1  0
 20 33  1  0
 20 34  1  0
  1 35  1  0
  1 36  1  0
  1 37  1  0
 12  7  1  0
 26 19  1  0
M  END
>  <plip>  (1) 
-0.0

>  <filename>  (1) 
[H][C](=[C]([F])[C](=[O])[N]([N]1[C]([H])([H])[C]([H])([H])[S](=[O])(=[O])[C]([H])([H])[C]1([H])[H])[C]([H])([H])[H])[c]1[c]([H])[n][c]([H])[c]([H])[c]1[H]

$$$$
