
     RDKit          3D

 35 37  0  0  0  0  0  0  0  0999 V2000
    9.0885    1.4997   21.1913 O   0  0  0  0  0  0  0  0  0  0  0  0
    8.3708    1.2328   22.1415 C   0  0  0  0  0  0  0  0  0  0  0  0
    7.6080    0.1017   22.1919 N   0  0  0  0  0  0  0  0  0  0  0  0
    7.3946   -0.7326   21.0066 C   0  0  0  0  0  0  0  0  0  0  0  0
    6.6537   -2.0256   21.3799 C   0  0  0  0  0  0  0  0  0  0  0  0
    6.5978   -2.8570   20.2359 O   0  0  0  0  0  0  0  0  0  0  0  0
    6.1778   -3.6954   20.4495 H   0  0  0  0  0  0  0  0  0  0  0  0
    5.6436   -1.7570   21.7311 H   0  0  0  0  0  0  0  0  0  0  0  0
    7.1944   -2.5013   22.2110 H   0  0  0  0  0  0  0  0  0  0  0  0
    6.6671    0.0375   19.9111 C   0  0  0  0  0  0  0  0  0  0  0  0
    5.4411    0.6736   20.1470 C   0  0  0  0  0  0  0  0  0  0  0  0
    4.7983    1.3173   19.0889 C   0  0  0  0  0  0  0  0  0  0  0  0
    5.3982    1.2931   17.8231 C   0  0  0  0  0  0  0  0  0  0  0  0
    6.5622    0.6793   17.5692 N   0  0  0  0  0  0  0  0  0  0  0  0
    7.1703    0.0783   18.6057 C   0  0  0  0  0  0  0  0  0  0  0  0
    8.1179   -0.4122   18.3739 H   0  0  0  0  0  0  0  0  0  0  0  0
    4.9286    1.7934   16.9769 H   0  0  0  0  0  0  0  0  0  0  0  0
    3.8601    1.8429   19.2323 H   0  0  0  0  0  0  0  0  0  0  0  0
    4.9994    0.6642   21.1467 H   0  0  0  0  0  0  0  0  0  0  0  0
    8.3797   -1.0163   20.6145 H   0  0  0  0  0  0  0  0  0  0  0  0
    7.0392   -0.0048   23.0153 H   0  0  0  0  0  0  0  0  0  0  0  0
    8.2773    2.1111   23.3582 C   0  0  0  0  0  0  0  0  0  0  0  0
    7.4469    2.0962   24.4459 C   0  0  0  0  0  0  0  0  0  0  0  0
    7.7218    3.1551   25.3717 C   0  0  0  0  0  0  0  0  0  0  0  0
    7.0722    3.4391   26.5850 C   0  0  0  0  0  0  0  0  0  0  0  0
    6.0595    2.6658   26.9907 F   0  0  0  0  0  0  0  0  0  0  0  0
    7.4743    4.5164   27.3577 C   0  0  0  0  0  0  0  0  0  0  0  0
    6.8498    4.7788   28.5134 F   0  0  0  0  0  0  0  0  0  0  0  0
    8.5295    5.3409   26.9448 C   0  0  0  0  0  0  0  0  0  0  0  0
    9.1940    5.0885   25.7485 C   0  0  0  0  0  0  0  0  0  0  0  0
    8.7872    3.9903   24.9576 C   0  0  0  0  0  0  0  0  0  0  0  0
    9.4112    3.4445   23.4253 S   0  0  0  0  0  0  0  0  0  0  0  0
   10.0069    5.7461   25.4490 H   0  0  0  0  0  0  0  0  0  0  0  0
    8.7880    6.1706   27.5924 H   0  0  0  0  0  0  0  0  0  0  0  0
    6.6288    1.4117   24.6600 H   0  0  0  0  0  0  0  0  0  0  0  0
  1  2  2  0
  2  3  1  0
  3  4  1  0
  4  5  1  0
  5  6  1  0
  6  7  1  0
  5  8  1  0
  5  9  1  0
  4 10  1  0
 10 11  2  0
 11 12  1  0
 12 13  2  0
 13 14  1  0
 14 15  2  0
 15 16  1  0
 13 17  1  0
 12 18  1  0
 11 19  1  0
  4 20  1  0
  3 21  1  0
  2 22  1  0
 22 23  2  0
 23 24  1  0
 24 25  2  0
 25 26  1  0
 25 27  1  0
 27 28  1  0
 27 29  2  0
 29 30  1  0
 30 31  2  0
 31 32  1  0
 30 33  1  0
 29 34  1  0
 23 35  1  0
 15 10  1  0
 32 22  1  0
 31 24  1  0
M  END
>  <plip>  (1) 
-0.17857142857142858

>  <filename>  (1) 
[H][O][C]([H])([H])[C]([H])([c]1[c]([H])[n][c]([H])[c]([H])[c]1[H])[N]([H])[C](=[O])[c]1[s][c]2[c]([H])[c]([H])[c]([F])[c]([F])[c]2[c]1[H]

$$$$
