
     RDKit          3D

 42 44  0  0  0  0  0  0  0  0999 V2000
    4.9357    1.7814   17.0084 H   0  0  0  0  0  0  0  0  0  0  0  0
    5.4067    1.2838   17.8530 C   0  0  0  0  0  0  0  0  0  0  0  0
    6.5607    0.6539   17.5877 N   0  0  0  0  0  0  0  0  0  0  0  0
    7.1775    0.0378   18.6023 C   0  0  0  0  0  0  0  0  0  0  0  0
    8.1332   -0.4273   18.3719 H   0  0  0  0  0  0  0  0  0  0  0  0
    6.6675   -0.0110   19.9143 C   0  0  0  0  0  0  0  0  0  0  0  0
    7.3718   -0.7082   20.9486 N   0  0  0  0  0  0  0  0  0  0  0  0
    6.5623   -1.4931   21.7775 N   0  0  0  0  0  0  0  0  0  0  0  0
    7.1205   -2.3220   22.5885 C   0  0  0  0  0  0  0  0  0  0  0  0
    6.2378   -3.1188   23.5396 C   0  0  0  0  0  0  0  0  0  0  0  0
    5.2059   -2.8884   23.2383 H   0  0  0  0  0  0  0  0  0  0  0  0
    6.4545   -4.6447   23.4320 C   0  0  0  0  0  0  0  0  0  0  0  0
    7.4968   -4.8977   23.6743 H   0  0  0  0  0  0  0  0  0  0  0  0
    6.2749   -4.9766   22.4040 H   0  0  0  0  0  0  0  0  0  0  0  0
    5.5249   -5.4082   24.3709 C   0  0  0  0  0  0  0  0  0  0  0  0
    4.4819   -5.2964   24.0299 H   0  0  0  0  0  0  0  0  0  0  0  0
    5.7564   -6.4749   24.3621 H   0  0  0  0  0  0  0  0  0  0  0  0
    5.6446   -4.9432   25.7609 N   0  0  0  0  0  0  0  0  0  0  0  0
    5.5638   -5.8792   26.7721 C   0  0  0  0  0  0  0  0  0  0  0  0
    5.7943   -7.0596   26.5689 O   0  0  0  0  0  0  0  0  0  0  0  0
    5.1513   -5.4046   28.1588 C   0  0  0  0  0  0  0  0  0  0  0  0
    4.9110   -6.2949   28.7403 H   0  0  0  0  0  0  0  0  0  0  0  0
    5.9664   -4.8753   28.6637 H   0  0  0  0  0  0  0  0  0  0  0  0
    4.2807   -4.7412   28.1357 H   0  0  0  0  0  0  0  0  0  0  0  0
    5.5065   -3.4984   25.9581 C   0  0  0  0  0  0  0  0  0  0  0  0
    5.7519   -3.2502   26.9958 H   0  0  0  0  0  0  0  0  0  0  0  0
    4.4640   -3.1818   25.7834 H   0  0  0  0  0  0  0  0  0  0  0  0
    6.4302   -2.7102   25.0207 C   0  0  0  0  0  0  0  0  0  0  0  0
    7.4748   -2.8786   25.3193 H   0  0  0  0  0  0  0  0  0  0  0  0
    6.2270   -1.6420   25.1496 H   0  0  0  0  0  0  0  0  0  0  0  0
    8.6220   -2.5371   22.5975 C   0  0  0  0  0  0  0  0  0  0  0  0
    8.9395   -2.9929   23.5415 H   0  0  0  0  0  0  0  0  0  0  0  0
    8.8599   -3.2719   21.8121 H   0  0  0  0  0  0  0  0  0  0  0  0
    9.3432   -1.2078   22.3468 C   0  0  0  0  0  0  0  0  0  0  0  0
    9.2792   -0.5461   23.2239 H   0  0  0  0  0  0  0  0  0  0  0  0
   10.4046   -1.3438   22.1326 H   0  0  0  0  0  0  0  0  0  0  0  0
    8.7431   -0.4408   21.1795 C   0  0  0  0  0  0  0  0  0  0  0  0
    9.3899    0.3447   20.5124 O   0  0  0  0  0  0  0  0  0  0  0  0
    5.4538    0.6347   20.1781 C   0  0  0  0  0  0  0  0  0  0  0  0
    5.0312    0.5970   21.1808 H   0  0  0  0  0  0  0  0  0  0  0  0
    4.8245    1.3033   19.1240 C   0  0  0  0  0  0  0  0  0  0  0  0
    3.8931    1.8319   19.2696 H   0  0  0  0  0  0  0  0  0  0  0  0
  1  2  1  0
  2  3  2  0
  3  4  1  0
  4  5  1  0
  4  6  2  0
  6  7  1  0
  7  8  1  0
  8  9  2  0
  9 10  1  0
 10 11  1  0
 10 12  1  0
 12 13  1  0
 12 14  1  0
 12 15  1  0
 15 16  1  0
 15 17  1  0
 15 18  1  0
 18 19  1  0
 19 20  2  0
 19 21  1  0
 21 22  1  0
 21 23  1  0
 21 24  1  0
 18 25  1  0
 25 26  1  0
 25 27  1  0
 25 28  1  0
 28 29  1  0
 28 30  1  0
  9 31  1  0
 31 32  1  0
 31 33  1  0
 31 34  1  0
 34 35  1  0
 34 36  1  0
 34 37  1  0
 37 38  2  0
  6 39  1  0
 39 40  1  0
 39 41  2  0
 41 42  1  0
 41  2  1  0
 37  7  1  0
 28 10  1  0
M  END
>  <plip>  (1) 
-0.07142857142857142

>  <filename>  (1) 
[H][c]1[n][c]([H])[c]([N]2[N]=[C]([C]3([H])[C]([H])([H])[C]([H])([H])[N]([C](=[O])[C]([H])([H])[H])[C]([H])([H])[C]3([H])[H])[C]([H])([H])[C]([H])([H])[C]2=[O])[c]([H])[c]1[H]

$$$$
