
     RDKit          3D

 45 47  0  0  0  0  0  0  0  0999 V2000
    7.3901   -4.2138   22.0356 C   0  0  0  0  0  0  0  0  0  0  0  0
    8.1294   -3.1268   22.7651 N   0  0  0  0  0  4  0  0  0  0  0  0
    8.8517   -3.7245   23.9214 C   0  0  0  0  0  0  0  0  0  0  0  0
    9.3923   -2.9562   24.4818 H   0  0  0  0  0  0  0  0  0  0  0  0
    8.1559   -4.2324   24.5939 H   0  0  0  0  0  0  0  0  0  0  0  0
    9.5821   -4.4564   23.5513 H   0  0  0  0  0  0  0  0  0  0  0  0
    9.1006   -2.3707   21.8937 C   0  0  0  0  0  0  0  0  0  0  0  0
    8.3906   -1.6353   20.7751 C   0  0  0  0  0  0  0  0  0  0  0  0
    7.3689   -0.5864   21.1791 C   0  0  0  0  0  0  0  0  0  0  0  0
    7.9831    0.4009   22.0456 N   0  0  0  0  0  0  0  0  0  0  0  0
    8.8935    1.2931   21.6045 C   0  0  0  0  0  0  0  0  0  0  0  0
    9.5427    1.1263   20.5822 O   0  0  0  0  0  0  0  0  0  0  0  0
    9.0929    2.4663   22.4966 C   0  0  0  0  0  0  0  0  0  0  0  0
    8.2051    3.1366   23.2845 C   0  0  0  0  0  0  0  0  0  0  0  0
    6.5142    2.7856   23.4471 Cl  0  0  0  0  0  0  0  0  0  0  0  0
    8.7557    4.2490   23.9787 C   0  0  0  0  0  0  0  0  0  0  0  0
    8.1747    5.1463   24.8929 C   0  0  0  0  0  0  0  0  0  0  0  0
    8.9911    6.1385   25.4080 C   0  0  0  0  0  0  0  0  0  0  0  0
   10.3415    6.2114   24.9986 C   0  0  0  0  0  0  0  0  0  0  0  0
   10.9108    5.3725   24.1381 N   0  0  0  0  0  0  0  0  0  0  0  0
   10.1181    4.4145   23.6441 C   0  0  0  0  0  0  0  0  0  0  0  0
   10.6679    3.2137   22.5143 S   0  0  0  0  0  0  0  0  0  0  0  0
   10.9934    6.9873   25.3961 H   0  0  0  0  0  0  0  0  0  0  0  0
    8.6217    6.8618   26.1225 H   0  0  0  0  0  0  0  0  0  0  0  0
    7.1275    5.0507   25.1799 H   0  0  0  0  0  0  0  0  0  0  0  0
    7.5588    0.6246   22.9232 H   0  0  0  0  0  0  0  0  0  0  0  0
    6.6682    0.0426   19.9703 C   0  0  0  0  0  0  0  0  0  0  0  0
    5.4345    0.6773   20.1668 C   0  0  0  0  0  0  0  0  0  0  0  0
    4.8009    1.3079   19.0950 C   0  0  0  0  0  0  0  0  0  0  0  0
    5.4181    1.2757   17.8412 C   0  0  0  0  0  0  0  0  0  0  0  0
    6.5801    0.6517   17.6150 N   0  0  0  0  0  0  0  0  0  0  0  0
    7.1881    0.0703   18.6629 C   0  0  0  0  0  0  0  0  0  0  0  0
    8.1366   -0.4047   18.4083 H   0  0  0  0  0  0  0  0  0  0  0  0
    4.9634    1.7798   16.9887 H   0  0  0  0  0  0  0  0  0  0  0  0
    3.8634    1.8380   19.2241 H   0  0  0  0  0  0  0  0  0  0  0  0
    4.9775    0.6818   21.1579 H   0  0  0  0  0  0  0  0  0  0  0  0
    6.5812   -1.0422   21.7981 H   0  0  0  0  0  0  0  0  0  0  0  0
    7.8219   -2.3536   20.2075 H   0  0  0  0  0  0  0  0  0  0  0  0
    9.1337   -1.1920   20.1183 H   0  0  0  0  0  0  0  0  0  0  0  0
    9.8316   -3.0761   21.4740 H   0  0  0  0  0  0  0  0  0  0  0  0
    9.6703   -1.6867   22.5280 H   0  0  0  0  0  0  0  0  0  0  0  0
    7.4505   -2.4162   23.1157 H   0  0  0  0  0  0  0  0  0  0  0  0
    6.6909   -3.8130   21.2978 H   0  0  0  0  0  0  0  0  0  0  0  0
    6.8203   -4.8149   22.7490 H   0  0  0  0  0  0  0  0  0  0  0  0
    8.1027   -4.8696   21.5184 H   0  0  0  0  0  0  0  0  0  0  0  0
  1  2  1  0
  2  3  1  0
  3  4  1  0
  3  5  1  0
  3  6  1  0
  2  7  1  0
  7  8  1  0
  8  9  1  0
  9 10  1  0
 10 11  1  0
 11 12  2  0
 11 13  1  0
 13 14  2  0
 14 15  1  0
 14 16  1  0
 16 17  2  0
 17 18  1  0
 18 19  2  0
 19 20  1  0
 20 21  2  0
 21 22  1  0
 19 23  1  0
 18 24  1  0
 17 25  1  0
 10 26  1  0
  9 27  1  0
 27 28  2  0
 28 29  1  0
 29 30  2  0
 30 31  1  0
 31 32  2  0
 32 33  1  0
 30 34  1  0
 29 35  1  0
 28 36  1  0
  9 37  1  0
  8 38  1  0
  8 39  1  0
  7 40  1  0
  7 41  1  0
  2 42  1  0
  1 43  1  0
  1 44  1  0
  1 45  1  0
 22 13  1  0
 32 27  1  0
 21 16  1  0
M  CHG  1   2   1
M  END
>  <plip>  (1) 
-0.034482758620689655

>  <filename>  (1) 
[H][c]1[n][c]([H])[c]([C]([H])([N]([H])[C](=[O])[c]2[s][c]3[n][c]([H])[c]([H])[c]([H])[c]3[c]2[Cl])[C]([H])([H])[C]([H])([H])[N+]([H])([C]([H])([H])[H])[C]([H])([H])[H])[c]([H])[c]1[H]

$$$$
