
     RDKit          3D

 41 43  0  0  0  0  0  0  0  0999 V2000
    4.9728    1.6909   16.9042 H   0  0  0  0  0  0  0  0  0  0  0  0
    5.4629    1.2296   17.7603 C   0  0  0  0  0  0  0  0  0  0  0  0
    6.6359    0.6158   17.5213 N   0  0  0  0  0  0  0  0  0  0  0  0
    7.2854    0.0874   18.5672 C   0  0  0  0  0  0  0  0  0  0  0  0
    8.2235   -0.4199   18.3436 H   0  0  0  0  0  0  0  0  0  0  0  0
    6.8231    0.1360   19.9166 C   0  0  0  0  0  0  0  0  0  0  0  0
    7.5528   -0.3091   20.9805 N   0  0  0  0  0  0  0  0  0  0  0  0
    7.1749   -0.4666   22.3657 C   0  0  0  0  0  0  0  0  0  0  0  0
    6.2646   -1.0611   22.5144 H   0  0  0  0  0  0  0  0  0  0  0  0
    7.0740    0.4849   22.9056 H   0  0  0  0  0  0  0  0  0  0  0  0
    8.5255   -1.2127   22.5790 C   0  0  0  0  0  0  0  0  0  0  0  0
    9.1897   -0.7377   23.2999 H   0  0  0  0  0  0  0  0  0  0  0  0
    8.4288   -2.6609   22.9958 C   0  0  0  0  0  0  0  0  0  0  0  0
    9.0310   -3.0451   23.9781 O   0  0  0  0  0  0  0  0  0  0  0  0
    7.5527   -3.6247   22.1181 C   0  0  0  0  0  0  0  0  0  0  0  0
    7.2596   -3.3060   20.9699 O   0  0  0  0  0  0  0  0  0  0  0  0
    7.1250   -4.8099   22.6473 N   0  0  0  0  0  0  0  0  0  0  0  0
    7.0316   -5.1258   24.0901 C   0  0  0  0  0  0  0  0  0  0  0  0
    7.1368   -4.2130   24.6755 H   0  0  0  0  0  0  0  0  0  0  0  0
    7.8638   -5.7876   24.3626 H   0  0  0  0  0  0  0  0  0  0  0  0
    5.6828   -5.7954   24.4818 C   0  0  0  0  0  0  0  0  0  0  0  0
    5.8585   -6.3309   25.4330 H   0  0  0  0  0  0  0  0  0  0  0  0
    4.9323   -5.0212   24.7049 H   0  0  0  0  0  0  0  0  0  0  0  0
    5.1313   -6.6802   23.4568 N   0  0  0  0  0  0  0  0  0  0  0  0
    4.1415   -7.6279   23.9014 C   0  0  0  0  0  0  0  0  0  0  0  0
    4.5419   -8.4261   24.5495 H   0  0  0  0  0  0  0  0  0  0  0  0
    3.3384   -7.1054   24.4360 H   0  0  0  0  0  0  0  0  0  0  0  0
    3.6453   -8.0964   23.0476 H   0  0  0  0  0  0  0  0  0  0  0  0
    6.0594   -7.0456   22.4015 C   0  0  0  0  0  0  0  0  0  0  0  0
    6.9486   -7.6096   22.7406 H   0  0  0  0  0  0  0  0  0  0  0  0
    5.5773   -7.6618   21.6491 H   0  0  0  0  0  0  0  0  0  0  0  0
    6.5039   -5.7662   21.6992 C   0  0  0  0  0  0  0  0  0  0  0  0
    7.2004   -5.9766   20.8786 H   0  0  0  0  0  0  0  0  0  0  0  0
    5.6299   -5.2755   21.2565 H   0  0  0  0  0  0  0  0  0  0  0  0
    8.8708   -0.9003   21.0889 C   0  0  0  0  0  0  0  0  0  0  0  0
    9.0212   -1.7628   20.4341 H   0  0  0  0  0  0  0  0  0  0  0  0
    9.6858   -0.1786   20.9415 H   0  0  0  0  0  0  0  0  0  0  0  0
    5.5504    0.7180   20.1190 C   0  0  0  0  0  0  0  0  0  0  0  0
    5.1174    0.7205   21.1183 H   0  0  0  0  0  0  0  0  0  0  0  0
    4.8786    1.2825   19.0325 C   0  0  0  0  0  0  0  0  0  0  0  0
    3.9222    1.7850   19.1673 H   0  0  0  0  0  0  0  0  0  0  0  0
  1  2  1  0
  2  3  2  0
  3  4  1  0
  4  5  1  0
  4  6  2  0
  6  7  1  0
  7  8  1  0
  8  9  1  0
  8 10  1  0
  8 11  1  0
 11 12  1  0
 11 13  1  0
 13 14  2  0
 13 15  1  0
 15 16  2  0
 15 17  1  0
 17 18  1  0
 18 19  1  0
 18 20  1  0
 18 21  1  0
 21 22  1  0
 21 23  1  0
 21 24  1  0
 24 25  1  0
 25 26  1  0
 25 27  1  0
 25 28  1  0
 24 29  1  0
 29 30  1  0
 29 31  1  0
 29 32  1  0
 32 33  1  0
 32 34  1  0
 11 35  1  0
 35 36  1  0
 35 37  1  0
  6 38  1  0
 38 39  1  0
 38 40  2  0
 40 41  1  0
 40  2  1  0
 35  7  1  0
 32 17  1  0
M  END
>  <plip>  (1) 
-0.03333333333333333

>  <filename>  (1) 
[H][c]1[n][c]([H])[c]([N]2[C]([H])([H])[C]([H])([C](=[O])[C](=[O])[N]3[C]([H])([H])[C]([H])([H])[N]([C]([H])([H])[H])[C]([H])([H])[C]3([H])[H])[C]2([H])[H])[c]([H])[c]1[H]

$$$$
