
     RDKit          3D

 53 56  0  0  0  0  0  0  0  0999 V2000
   13.2453    6.8205   26.7768 N   0  0  0  0  0  0  0  0  0  0  0  0
   12.2593    6.1705   26.0805 C   0  0  0  0  0  0  0  0  0  0  0  0
   10.8980    6.3663   26.3601 C   0  0  0  0  0  0  0  0  0  0  0  0
    9.9339    5.5783   25.7303 C   0  0  0  0  0  0  0  0  0  0  0  0
   10.3018    4.6130   24.7840 C   0  0  0  0  0  0  0  0  0  0  0  0
    9.2444    3.8463   24.3098 O   0  0  0  0  0  0  0  0  0  0  0  0
    9.3063    3.0399   23.2362 C   0  0  0  0  0  0  0  0  0  0  0  0
   10.1796    3.3172   22.1844 C   0  0  0  0  0  0  0  0  0  0  0  0
   10.2149    2.3663   21.1951 C   0  0  0  0  0  0  0  0  0  0  0  0
    9.4418    1.2798   21.1856 N   0  0  0  0  0  0  0  0  0  0  0  0
    8.5919    1.2181   22.1999 C   0  0  0  0  0  0  0  0  0  0  0  0
    7.7492    0.1717   22.3018 N   0  0  0  0  0  0  0  0  0  0  0  0
    7.4276   -0.6154   21.1265 C   0  0  0  0  0  0  0  0  0  0  0  0
    6.6106   -1.8675   21.4820 C   0  0  0  0  0  0  0  0  0  0  0  0
    7.2586   -2.8703   22.3801 N   0  0  0  0  0  4  0  0  0  0  0  0
    6.3115   -3.9667   22.7638 C   0  0  0  0  0  0  0  0  0  0  0  0
    7.2039   -5.0203   23.4061 C   0  0  0  0  0  0  0  0  0  0  0  0
    8.5672   -4.8729   22.6954 C   0  0  0  0  0  0  0  0  0  0  0  0
    8.4672   -3.5961   21.8395 C   0  0  0  0  0  0  0  0  0  0  0  0
    8.2754   -3.8416   20.7894 H   0  0  0  0  0  0  0  0  0  0  0  0
    9.3590   -2.9623   21.8811 H   0  0  0  0  0  0  0  0  0  0  0  0
    8.7864   -5.7365   22.0602 H   0  0  0  0  0  0  0  0  0  0  0  0
    9.3804   -4.7953   23.4242 H   0  0  0  0  0  0  0  0  0  0  0  0
    7.2989   -4.8186   24.4790 H   0  0  0  0  0  0  0  0  0  0  0  0
    6.7780   -6.0225   23.2982 H   0  0  0  0  0  0  0  0  0  0  0  0
    5.5182   -3.5845   23.4129 H   0  0  0  0  0  0  0  0  0  0  0  0
    5.8512   -4.3431   21.8403 H   0  0  0  0  0  0  0  0  0  0  0  0
    7.5612   -2.3561   23.2447 H   0  0  0  0  0  0  0  0  0  0  0  0
    5.6664   -1.5284   21.9292 H   0  0  0  0  0  0  0  0  0  0  0  0
    6.3570   -2.3668   20.5403 H   0  0  0  0  0  0  0  0  0  0  0  0
    6.6951    0.1745   20.0573 C   0  0  0  0  0  0  0  0  0  0  0  0
    5.4616    0.8273   20.2369 C   0  0  0  0  0  0  0  0  0  0  0  0
    4.8451    1.3905   19.1166 C   0  0  0  0  0  0  0  0  0  0  0  0
    5.4757    1.2959   17.8702 C   0  0  0  0  0  0  0  0  0  0  0  0
    6.6631    0.7016   17.6863 N   0  0  0  0  0  0  0  0  0  0  0  0
    7.2465    0.1814   18.7718 C   0  0  0  0  0  0  0  0  0  0  0  0
    8.2229   -0.2808   18.6197 H   0  0  0  0  0  0  0  0  0  0  0  0
    5.0096    1.7139   16.9799 H   0  0  0  0  0  0  0  0  0  0  0  0
    3.8916    1.9022   19.1923 H   0  0  0  0  0  0  0  0  0  0  0  0
    4.9888    0.9158   21.2217 H   0  0  0  0  0  0  0  0  0  0  0  0
    8.3898   -0.9540   20.7173 H   0  0  0  0  0  0  0  0  0  0  0  0
    7.0117    0.5785   22.8536 H   0  0  0  0  0  0  0  0  0  0  0  0
    8.4455    2.0610   23.2215 N   0  0  0  0  0  0  0  0  0  0  0  0
   10.9068    2.4687   20.3630 H   0  0  0  0  0  0  0  0  0  0  0  0
   10.7069    4.2520   22.1501 H   0  0  0  0  0  0  0  0  0  0  0  0
   11.6580    4.4331   24.4752 C   0  0  0  0  0  0  0  0  0  0  0  0
   12.6153    5.2279   25.1068 C   0  0  0  0  0  0  0  0  0  0  0  0
   13.6588    5.1483   24.8245 H   0  0  0  0  0  0  0  0  0  0  0  0
   12.0046    3.6868   23.7684 H   0  0  0  0  0  0  0  0  0  0  0  0
    8.8740    5.6928   25.9343 H   0  0  0  0  0  0  0  0  0  0  0  0
   10.6159    7.1311   27.0777 H   0  0  0  0  0  0  0  0  0  0  0  0
   14.1983    6.6547   26.5199 H   0  0  0  0  0  0  0  0  0  0  0  0
   13.0494    7.6480   27.3064 H   0  0  0  0  0  0  0  0  0  0  0  0
  1  2  1  0
  2  3  2  0
  3  4  1  0
  4  5  2  0
  5  6  1  0
  6  7  1  0
  7  8  2  0
  8  9  1  0
  9 10  2  0
 10 11  1  0
 11 12  1  0
 12 13  1  0
 13 14  1  0
 14 15  1  0
 15 16  1  0
 16 17  1  0
 17 18  1  0
 18 19  1  0
 19 20  1  0
 19 21  1  0
 18 22  1  0
 18 23  1  0
 17 24  1  0
 17 25  1  0
 16 26  1  0
 16 27  1  0
 15 28  1  0
 14 29  1  0
 14 30  1  0
 13 31  1  0
 31 32  2  0
 32 33  1  0
 33 34  2  0
 34 35  1  0
 35 36  2  0
 36 37  1  0
 34 38  1  0
 33 39  1  0
 32 40  1  0
 13 41  1  0
 12 42  1  0
 11 43  2  0
  9 44  1  0
  8 45  1  0
  5 46  1  0
 46 47  2  0
 47 48  1  0
 46 49  1  0
  4 50  1  0
  3 51  1  0
  1 52  1  0
  1 53  1  0
 47  2  1  0
 43  7  1  0
 19 15  1  0
 36 31  1  0
M  CHG  1  15   1
M  END
>  <plip>  (1) 
-0.16666666666666666

>  <filename>  (1) 
[H][c]1[n][c]([N]([H])[C]([H])([c]2[c]([H])[n][c]([H])[c]([H])[c]2[H])[C]([H])([H])[N+]2([H])[C]([H])([H])[C]([H])([H])[C]([H])([H])[C]2([H])[H])[n][c]([O][c]2[c]([H])[c]([H])[c]([N]([H])[H])[c]([H])[c]2[H])[c]1[H]

$$$$
