
     RDKit          3D

 52 54  0  0  0  0  0  0  0  0999 V2000
    7.0116   -2.5405   24.5907 C   0  0  0  0  0  0  0  0  0  0  0  0
    7.9115   -2.4502   23.5115 O   0  0  0  0  0  0  0  0  0  0  0  0
    7.4720   -2.9563   22.2661 C   0  0  0  0  0  0  0  0  0  0  0  0
    6.6624   -1.9522   21.4418 C   0  0  0  0  0  0  0  0  0  0  0  0
    7.4180   -0.7058   20.9742 C   0  0  0  0  0  0  0  0  0  0  0  0
    7.7377    0.1931   22.0677 N   0  0  0  0  0  0  0  0  0  0  0  0
    8.6735    1.1869   21.9028 C   0  0  0  0  0  0  0  0  0  0  0  0
    9.3582    1.2090   20.8846 O   0  0  0  0  0  0  0  0  0  0  0  0
    8.7451    2.2311   23.0173 C   0  0  0  0  0  0  0  0  0  0  0  0
    7.6728    2.7436   23.7273 C   0  0  0  0  0  0  0  0  0  0  0  0
    6.1967    2.4958   23.7344 C   0  0  0  0  0  0  0  0  0  0  0  0
    5.8134    2.3123   22.7265 H   0  0  0  0  0  0  0  0  0  0  0  0
    5.9104    1.6325   24.3468 H   0  0  0  0  0  0  0  0  0  0  0  0
    5.6696    3.3710   24.1335 H   0  0  0  0  0  0  0  0  0  0  0  0
    8.2099    3.7236   24.5227 N   0  0  0  0  0  0  0  0  0  0  0  0
    9.5526    3.7981   24.2790 C   0  0  0  0  0  0  0  0  0  0  0  0
   10.4993    4.7662   24.8917 C   0  0  0  0  0  0  0  0  0  0  0  0
   11.8558    4.6583   24.5325 C   0  0  0  0  0  0  0  0  0  0  0  0
   12.8142    5.4619   25.1513 C   0  0  0  0  0  0  0  0  0  0  0  0
   12.4566    6.3543   26.1559 C   0  0  0  0  0  0  0  0  0  0  0  0
   11.1062    6.5166   26.4899 C   0  0  0  0  0  0  0  0  0  0  0  0
   10.8751    7.4553   27.4537 O   0  0  0  0  0  0  0  0  0  0  0  0
    9.5427    7.8264   27.7375 C   0  0  0  0  0  0  0  0  0  0  0  0
    9.0210    8.1388   26.8223 H   0  0  0  0  0  0  0  0  0  0  0  0
    8.9968    7.0019   28.2177 H   0  0  0  0  0  0  0  0  0  0  0  0
    9.5989    8.6707   28.4288 H   0  0  0  0  0  0  0  0  0  0  0  0
   10.1257    5.7432   25.8488 C   0  0  0  0  0  0  0  0  0  0  0  0
    9.0823    5.9250   26.0902 H   0  0  0  0  0  0  0  0  0  0  0  0
   13.1789    6.9500   26.7038 H   0  0  0  0  0  0  0  0  0  0  0  0
   13.8542    5.3953   24.8548 H   0  0  0  0  0  0  0  0  0  0  0  0
   12.1475    3.9235   23.7804 H   0  0  0  0  0  0  0  0  0  0  0  0
    9.8950    2.8928   23.3962 N   0  0  0  0  0  0  0  0  0  0  0  0
    7.6996    4.2461   25.2168 H   0  0  0  0  0  0  0  0  0  0  0  0
    7.2303    0.0876   22.9293 H   0  0  0  0  0  0  0  0  0  0  0  0
    6.6440    0.0451   19.8954 C   0  0  0  0  0  0  0  0  0  0  0  0
    5.4139    0.6846   20.1180 C   0  0  0  0  0  0  0  0  0  0  0  0
    4.7940    1.3265   19.0408 C   0  0  0  0  0  0  0  0  0  0  0  0
    5.4125    1.3057   17.7846 C   0  0  0  0  0  0  0  0  0  0  0  0
    6.5835    0.6979   17.5490 N   0  0  0  0  0  0  0  0  0  0  0  0
    7.1711    0.1064   18.6008 C   0  0  0  0  0  0  0  0  0  0  0  0
    8.1340   -0.3630   18.4038 H   0  0  0  0  0  0  0  0  0  0  0  0
    4.9483    1.7982   16.9307 H   0  0  0  0  0  0  0  0  0  0  0  0
    3.8522    1.8517   19.1594 H   0  0  0  0  0  0  0  0  0  0  0  0
    4.9362    0.6920   21.1028 H   0  0  0  0  0  0  0  0  0  0  0  0
    8.3724   -1.0190   20.5237 H   0  0  0  0  0  0  0  0  0  0  0  0
    6.2888   -2.4682   20.5502 H   0  0  0  0  0  0  0  0  0  0  0  0
    5.7760   -1.6421   22.0026 H   0  0  0  0  0  0  0  0  0  0  0  0
    8.3894   -3.2260   21.7259 H   0  0  0  0  0  0  0  0  0  0  0  0
    6.8828   -3.8820   22.3835 H   0  0  0  0  0  0  0  0  0  0  0  0
    6.8767   -3.5775   24.9347 H   0  0  0  0  0  0  0  0  0  0  0  0
    7.4540   -1.9646   25.4093 H   0  0  0  0  0  0  0  0  0  0  0  0
    6.0185   -2.1219   24.3642 H   0  0  0  0  0  0  0  0  0  0  0  0
  1  2  1  0
  2  3  1  0
  3  4  1  0
  4  5  1  0
  5  6  1  0
  6  7  1  0
  7  8  2  0
  7  9  1  0
  9 10  2  0
 10 11  1  0
 11 12  1  0
 11 13  1  0
 11 14  1  0
 10 15  1  0
 15 16  1  0
 16 17  1  0
 17 18  2  0
 18 19  1  0
 19 20  2  0
 20 21  1  0
 21 22  1  0
 22 23  1  0
 23 24  1  0
 23 25  1  0
 23 26  1  0
 21 27  2  0
 27 28  1  0
 20 29  1  0
 19 30  1  0
 18 31  1  0
 16 32  2  0
 15 33  1  0
  6 34  1  0
  5 35  1  0
 35 36  2  0
 36 37  1  0
 37 38  2  0
 38 39  1  0
 39 40  2  0
 40 41  1  0
 38 42  1  0
 37 43  1  0
 36 44  1  0
  5 45  1  0
  4 46  1  0
  4 47  1  0
  3 48  1  0
  3 49  1  0
  1 50  1  0
  1 51  1  0
  1 52  1  0
 32  9  1  0
 40 35  1  0
 27 17  1  0
M  END
>  <plip>  (1) 
-0.14285714285714285

>  <filename>  (1) 
[H][c]1[n][c]([H])[c]([C]([H])([N]([H])[C](=[O])[c]2[n][c](-[c]3[c]([H])[c]([H])[c]([H])[c]([O][C]([H])([H])[H])[c]3[H])[n]([H])[c]2[C]([H])([H])[H])[C]([H])([H])[C]([H])([H])[O][C]([H])([H])[H])[c]([H])[c]1[H]

$$$$
