
     RDKit          3D

 43 46  0  0  0  0  0  0  0  0999 V2000
    6.2942    3.0036   22.8052 C   0  0  0  0  0  0  0  0  0  0  0  0
    7.4455    3.5331   23.5963 C   0  0  0  0  0  0  0  0  0  0  0  0
    7.1492    4.4108   24.5482 N   0  0  0  0  0  0  0  0  0  0  0  0
    8.1695    5.0001   25.2397 C   0  0  0  0  0  0  0  0  0  0  0  0
    9.4872    4.7366   25.0094 C   0  0  0  0  0  0  0  0  0  0  0  0
    9.7751    3.8141   24.0411 N   0  0  0  0  0  0  0  0  0  0  0  0
   11.0237    3.4907   23.6844 N   0  0  0  0  0  0  0  0  0  0  0  0
   10.8861    2.5937   22.7248 C   0  0  0  0  0  0  0  0  0  0  0  0
    9.5475    2.2814   22.4676 C   0  0  0  0  0  0  0  0  0  0  0  0
    9.2071    1.1987   21.5489 C   0  0  0  0  0  0  0  0  0  0  0  0
    9.8750    0.9468   20.5594 O   0  0  0  0  0  0  0  0  0  0  0  0
    8.1353    0.4836   21.9511 N   0  0  0  0  0  0  0  0  0  0  0  0
    7.4256   -0.5176   21.1821 C   0  0  0  0  0  0  0  0  0  0  0  0
    6.6728    0.1542   20.0333 C   0  0  0  0  0  0  0  0  0  0  0  0
    5.4167    0.7605   20.1827 C   0  0  0  0  0  0  0  0  0  0  0  0
    4.8048    1.3338   19.0611 C   0  0  0  0  0  0  0  0  0  0  0  0
    5.4690    1.2938   17.8315 C   0  0  0  0  0  0  0  0  0  0  0  0
    6.6785    0.7470   17.6664 N   0  0  0  0  0  0  0  0  0  0  0  0
    7.2545    0.2131   18.7537 C   0  0  0  0  0  0  0  0  0  0  0  0
    8.2323   -0.2365   18.5852 H   0  0  0  0  0  0  0  0  0  0  0  0
    5.0127    1.7201   16.9410 H   0  0  0  0  0  0  0  0  0  0  0  0
    3.8373    1.8185   19.1221 H   0  0  0  0  0  0  0  0  0  0  0  0
    4.9126    0.7906   21.1528 H   0  0  0  0  0  0  0  0  0  0  0  0
    8.3781   -1.6216   20.6884 C   0  0  0  0  0  0  0  0  0  0  0  0
    8.6751   -2.5408   21.8678 C   0  0  0  0  0  0  0  0  0  0  0  0
    7.3687   -2.5278   22.6872 C   0  0  0  0  0  0  0  0  0  0  0  0
    6.5337   -1.3268   22.1535 C   0  0  0  0  0  0  0  0  0  0  0  0
    5.6596   -1.7024   21.6104 H   0  0  0  0  0  0  0  0  0  0  0  0
    6.1668   -0.6847   22.9602 H   0  0  0  0  0  0  0  0  0  0  0  0
    7.5708   -2.4482   23.7603 H   0  0  0  0  0  0  0  0  0  0  0  0
    6.8183   -3.4622   22.5389 H   0  0  0  0  0  0  0  0  0  0  0  0
    9.5231   -2.1604   22.4494 H   0  0  0  0  0  0  0  0  0  0  0  0
    8.9546   -3.5481   21.5387 H   0  0  0  0  0  0  0  0  0  0  0  0
    7.7568   -2.1454   19.9684 H   0  0  0  0  0  0  0  0  0  0  0  0
    9.2726   -1.2168   20.2128 H   0  0  0  0  0  0  0  0  0  0  0  0
    7.7719    0.7531   22.8453 H   0  0  0  0  0  0  0  0  0  0  0  0
    8.7957    3.1335   23.3276 C   0  0  0  0  0  0  0  0  0  0  0  0
   11.7588    2.1678   22.2451 H   0  0  0  0  0  0  0  0  0  0  0  0
   10.3408    5.1855   25.4880 H   0  0  0  0  0  0  0  0  0  0  0  0
    7.8816    5.7301   25.9891 H   0  0  0  0  0  0  0  0  0  0  0  0
    5.9479    2.0279   23.1654 H   0  0  0  0  0  0  0  0  0  0  0  0
    5.4506    3.6918   22.9126 H   0  0  0  0  0  0  0  0  0  0  0  0
    6.5325    2.8900   21.7424 H   0  0  0  0  0  0  0  0  0  0  0  0
  1  2  1  0
  2  3  2  0
  3  4  1  0
  4  5  2  0
  5  6  1  0
  6  7  1  0
  7  8  2  0
  8  9  1  0
  9 10  1  0
 10 11  2  0
 10 12  1  0
 12 13  1  0
 13 14  1  0
 14 15  2  0
 15 16  1  0
 16 17  2  0
 17 18  1  0
 18 19  2  0
 19 20  1  0
 17 21  1  0
 16 22  1  0
 15 23  1  0
 13 24  1  0
 24 25  1  0
 25 26  1  0
 26 27  1  0
 27 28  1  0
 27 29  1  0
 26 30  1  0
 26 31  1  0
 25 32  1  0
 25 33  1  0
 24 34  1  0
 24 35  1  0
 12 36  1  0
  9 37  2  0
  8 38  1  0
  5 39  1  0
  4 40  1  0
  1 41  1  0
  1 42  1  0
  1 43  1  0
 37  2  1  0
 37  6  1  0
 27 13  1  0
 19 14  1  0
M  END
>  <plip>  (1) 
-0.07142857142857142

>  <filename>  (1) 
[H][c]1[n][c]([H])[c]([C]2([N]([H])[C](=[O])[c]3[c]([H])[n][n]4[c]([H])[c]([H])[n][c]([C]([H])([H])[H])[c]34)[C]([H])([H])[C]([H])([H])[C]([H])([H])[C]2([H])[H])[c]([H])[c]1[H]

$$$$
