
     RDKit          3D

 35 36  0  0  0  0  0  0  0  0999 V2000
    7.0244    4.4295   28.9616 N   0  0  0  0  0  0  0  0  0  0  0  0
    6.1636    3.9839   28.3284 C   0  0  0  0  0  0  0  0  0  0  0  0
    5.0735    3.4413   27.5836 C   0  0  0  0  0  0  0  0  0  0  0  0
    3.8428    3.2012   28.1988 C   0  0  0  0  0  0  0  0  0  0  0  0
    2.8174    2.6568   27.4283 C   0  0  0  0  0  0  0  0  0  0  0  0
    3.0726    2.3757   26.0887 C   0  0  0  0  0  0  0  0  0  0  0  0
    4.2421    2.5919   25.4830 N   0  0  0  0  0  0  0  0  0  0  0  0
    5.2322    3.1143   26.2006 C   0  0  0  0  0  0  0  0  0  0  0  0
    6.4058    3.3274   25.5542 N   0  0  0  0  0  0  0  0  0  0  0  0
    6.6979    2.9332   24.1745 C   0  0  0  0  0  0  0  0  0  0  0  0
    6.9405    1.4200   24.0441 C   0  0  0  0  0  0  0  0  0  0  0  0
    7.1687    0.9760   22.6655 N   0  0  0  0  0  0  0  0  0  0  0  0
    7.3877   -0.3052   22.3220 C   0  0  0  0  0  0  0  0  0  0  0  0
    7.6864   -1.5537   23.3783 S   0  0  0  0  0  0  0  0  0  0  0  0
    7.4271   -0.5501   20.9655 N   0  0  0  0  0  0  0  0  0  0  0  0
    6.6764    0.0477   19.9116 C   0  0  0  0  0  0  0  0  0  0  0  0
    5.4368    0.6613   20.1507 C   0  0  0  0  0  0  0  0  0  0  0  0
    4.7994    1.3098   19.0873 C   0  0  0  0  0  0  0  0  0  0  0  0
    5.3927    1.2993   17.8235 C   0  0  0  0  0  0  0  0  0  0  0  0
    6.5558    0.6746   17.5666 N   0  0  0  0  0  0  0  0  0  0  0  0
    7.1678    0.0608   18.5850 C   0  0  0  0  0  0  0  0  0  0  0  0
    8.1189   -0.4262   18.3611 H   0  0  0  0  0  0  0  0  0  0  0  0
    4.9175    1.7948   16.9820 H   0  0  0  0  0  0  0  0  0  0  0  0
    3.8711    1.8438   19.2465 H   0  0  0  0  0  0  0  0  0  0  0  0
    5.0133    0.6234   21.1544 H   0  0  0  0  0  0  0  0  0  0  0  0
    7.8196   -1.4703   20.8236 H   0  0  0  0  0  0  0  0  0  0  0  0
    7.2446    1.6203   21.8916 H   0  0  0  0  0  0  0  0  0  0  0  0
    6.0699    0.8965   24.4547 H   0  0  0  0  0  0  0  0  0  0  0  0
    7.7932    1.1343   24.6723 H   0  0  0  0  0  0  0  0  0  0  0  0
    7.5959    3.4751   23.8540 H   0  0  0  0  0  0  0  0  0  0  0  0
    5.8692    3.2397   23.5197 H   0  0  0  0  0  0  0  0  0  0  0  0
    7.0962    3.7936   26.1138 H   0  0  0  0  0  0  0  0  0  0  0  0
    2.2979    1.9503   25.4596 H   0  0  0  0  0  0  0  0  0  0  0  0
    1.8431    2.4491   27.8446 H   0  0  0  0  0  0  0  0  0  0  0  0
    3.6837    3.4315   29.2546 H   0  0  0  0  0  0  0  0  0  0  0  0
  1  2  3  0
  2  3  1  0
  3  4  2  0
  4  5  1  0
  5  6  2  0
  6  7  1  0
  7  8  2  0
  8  9  1  0
  9 10  1  0
 10 11  1  0
 11 12  1  0
 12 13  1  0
 13 14  2  0
 13 15  1  0
 15 16  1  0
 16 17  2  0
 17 18  1  0
 18 19  2  0
 19 20  1  0
 20 21  2  0
 21 22  1  0
 19 23  1  0
 18 24  1  0
 17 25  1  0
 15 26  1  0
 12 27  1  0
 11 28  1  0
 11 29  1  0
 10 30  1  0
 10 31  1  0
  9 32  1  0
  6 33  1  0
  5 34  1  0
  4 35  1  0
  8  3  1  0
 21 16  1  0
M  END
>  <plip>  (1) 
-0.07142857142857142

>  <filename>  (1) 
[H][c]1[n][c]([N]([H])[C]([H])([H])[C]([H])([H])[N]([H])[C](=[S])[N]([H])[c]2[c]([H])[n][c]([H])[c]([H])[c]2[H])[c]([C]#[N])[c]([H])[c]1[H]

$$$$
