
     RDKit          3D

 37 40  0  0  0  0  0  0  0  0999 V2000
    5.0837    1.8177   17.1134 H   0  0  0  0  0  0  0  0  0  0  0  0
    5.4905    1.2282   17.9322 C   0  0  0  0  0  0  0  0  0  0  0  0
    6.6251    0.5627   17.6590 N   0  0  0  0  0  0  0  0  0  0  0  0
    7.1689   -0.1413   18.6588 C   0  0  0  0  0  0  0  0  0  0  0  0
    8.0867   -0.6836   18.4398 H   0  0  0  0  0  0  0  0  0  0  0  0
    6.6362   -0.2274   19.9669 C   0  0  0  0  0  0  0  0  0  0  0  0
    7.3554   -0.9189   21.0421 C   0  0  0  0  0  0  0  0  0  0  0  0
    6.9702   -1.7955   22.0483 C   0  0  0  0  0  0  0  0  0  0  0  0
    5.7813   -2.4606   22.1166 N   0  0  0  0  0  0  0  0  0  0  0  0
    5.4021   -2.8113   21.2609 H   0  0  0  0  0  0  0  0  0  0  0  0
    5.3023   -3.1794   23.1755 C   0  0  0  0  0  0  0  0  0  0  0  0
    4.3295   -4.4631   22.8193 S   0  0  0  0  0  0  0  0  0  0  0  0
    5.6450   -2.7035   24.3827 N   0  0  0  0  0  0  0  0  0  0  0  0
    6.4251   -2.0619   24.3573 H   0  0  0  0  0  0  0  0  0  0  0  0
    4.8983   -2.8323   25.5816 C   0  0  0  0  0  0  0  0  0  0  0  0
    3.5077   -2.6502   25.5881 C   0  0  0  0  0  0  0  0  0  0  0  0
    3.0016   -2.4381   24.6518 H   0  0  0  0  0  0  0  0  0  0  0  0
    2.8029   -2.7431   26.7914 C   0  0  0  0  0  0  0  0  0  0  0  0
    1.7284   -2.5673   26.7983 H   0  0  0  0  0  0  0  0  0  0  0  0
    3.4766   -3.0372   27.9827 C   0  0  0  0  0  0  0  0  0  0  0  0
    2.9209   -3.1338   28.9112 H   0  0  0  0  0  0  0  0  0  0  0  0
    4.8655   -3.2107   27.9727 C   0  0  0  0  0  0  0  0  0  0  0  0
    5.3869   -3.4234   28.9053 H   0  0  0  0  0  0  0  0  0  0  0  0
    5.5787   -3.0896   26.7741 C   0  0  0  0  0  0  0  0  0  0  0  0
    6.6605   -3.1971   26.7521 H   0  0  0  0  0  0  0  0  0  0  0  0
    7.9469   -2.0541   22.9585 N   0  0  0  0  0  0  0  0  0  0  0  0
    8.9810   -1.4135   22.4616 C   0  0  0  0  0  0  0  0  0  0  0  0
   10.6786   -1.2683   22.8331 S   0  0  0  0  0  0  0  0  0  0  0  0
   10.8825   -0.1754   21.4692 C   0  0  0  0  0  0  0  0  0  0  0  0
   11.8589    0.2345   21.2689 H   0  0  0  0  0  0  0  0  0  0  0  0
    9.7365    0.0378   20.7993 C   0  0  0  0  0  0  0  0  0  0  0  0
    9.5284    0.7067   19.9731 H   0  0  0  0  0  0  0  0  0  0  0  0
    8.6924   -0.7028   21.3318 N   0  0  0  0  0  0  0  0  0  0  0  0
    5.4137    0.4246   20.2020 C   0  0  0  0  0  0  0  0  0  0  0  0
    4.9551    0.3523   21.1874 H   0  0  0  0  0  0  0  0  0  0  0  0
    4.8424    1.1794   19.1715 C   0  0  0  0  0  0  0  0  0  0  0  0
    3.9247    1.7408   19.3151 H   0  0  0  0  0  0  0  0  0  0  0  0
  1  2  1  0
  2  3  2  0
  3  4  1  0
  4  5  1  0
  4  6  2  0
  6  7  1  0
  7  8  2  0
  8  9  1  0
  9 10  1  0
  9 11  1  0
 11 12  2  0
 11 13  1  0
 13 14  1  0
 13 15  1  0
 15 16  2  0
 16 17  1  0
 16 18  1  0
 18 19  1  0
 18 20  2  0
 20 21  1  0
 20 22  1  0
 22 23  1  0
 22 24  2  0
 24 25  1  0
  8 26  1  0
 26 27  2  0
 27 28  1  0
 28 29  1  0
 29 30  1  0
 29 31  2  0
 31 32  1  0
 31 33  1  0
  6 34  1  0
 34 35  1  0
 34 36  2  0
 36 37  1  0
 36  2  1  0
 33  7  1  0
 24 15  1  0
 33 27  1  0
M  END
>  <plip>  (1) 
-0.034482758620689655

>  <filename>  (1) 
[H][c]1[n][c]([H])[c](-[c]2[c]([N]([H])[C](=[S])[N]([H])[c]3[c]([H])[c]([H])[c]([H])[c]([H])[c]3[H])[n][c]3[s][c]([H])[c]([H])[n]23)[c]([H])[c]1[H]

$$$$
