
     RDKit          3D

 33 34  0  0  0  0  0  0  0  0999 V2000
    7.4958   -1.1032   23.7461 H   0  0  0  0  0  0  0  0  0  0  0  0
    8.4293   -1.3222   23.8916 O   0  0  0  0  0  0  0  0  0  0  0  0
    9.1511   -0.6530   22.8765 C   0  0  0  0  0  0  0  0  0  0  0  0
    9.8931   -0.0032   23.3632 H   0  0  0  0  0  0  0  0  0  0  0  0
    9.7166   -1.3966   22.2948 H   0  0  0  0  0  0  0  0  0  0  0  0
    8.3028    0.2217   21.9097 C   0  0  0  0  0  0  0  0  0  0  0  0
    9.2618    0.8141   20.8559 C   0  0  0  0  0  0  0  0  0  0  0  0
   10.0603    1.3848   21.3436 H   0  0  0  0  0  0  0  0  0  0  0  0
    9.7281    0.0360   20.2364 H   0  0  0  0  0  0  0  0  0  0  0  0
    8.7172    1.5012   20.2001 H   0  0  0  0  0  0  0  0  0  0  0  0
    7.6583    1.4032   22.6844 C   0  0  0  0  0  0  0  0  0  0  0  0
    7.1421    2.0988   22.0099 H   0  0  0  0  0  0  0  0  0  0  0  0
    8.4423    1.9753   23.1969 H   0  0  0  0  0  0  0  0  0  0  0  0
    6.9279    1.0738   23.4325 H   0  0  0  0  0  0  0  0  0  0  0  0
    7.2112   -0.6913   21.2399 C   0  0  0  0  0  0  0  0  0  0  0  0
    6.4906   -0.0588   20.0585 C   0  0  0  0  0  0  0  0  0  0  0  0
    7.0519   -0.1933   18.7826 C   0  0  0  0  0  0  0  0  0  0  0  0
    7.9426   -0.8140   18.6493 H   0  0  0  0  0  0  0  0  0  0  0  0
    6.5829    0.4130   17.6855 N   0  0  0  0  0  0  0  0  0  0  0  0
    5.4804    1.1666   17.8230 C   0  0  0  0  0  0  0  0  0  0  0  0
    5.1221    1.6598   16.9222 H   0  0  0  0  0  0  0  0  0  0  0  0
    4.8037    1.3224   19.0372 C   0  0  0  0  0  0  0  0  0  0  0  0
    3.9212    1.9525   19.0771 H   0  0  0  0  0  0  0  0  0  0  0  0
    5.3151    0.7014   20.1759 C   0  0  0  0  0  0  0  0  0  0  0  0
    4.8171    0.7967   21.1418 H   0  0  0  0  0  0  0  0  0  0  0  0
    7.7751   -1.9213   20.7804 O   0  0  0  0  0  0  0  0  0  0  0  0
    7.3201   -2.9751   21.6217 C   0  0  0  0  0  0  0  0  0  0  0  0
    8.0103   -3.1109   22.4611 H   0  0  0  0  0  0  0  0  0  0  0  0
    7.2410   -3.8938   21.0353 H   0  0  0  0  0  0  0  0  0  0  0  0
    5.9926   -2.4382   22.1052 C   0  0  0  0  0  0  0  0  0  0  0  0
    5.6749   -2.8186   23.0792 H   0  0  0  0  0  0  0  0  0  0  0  0
    5.2004   -2.5817   21.3642 H   0  0  0  0  0  0  0  0  0  0  0  0
    6.2810   -1.0507   22.2485 O   0  0  0  0  0  0  0  0  0  0  0  0
  1  2  1  0
  2  3  1  0
  3  4  1  0
  3  5  1  0
  3  6  1  0
  6  7  1  0
  7  8  1  0
  7  9  1  0
  7 10  1  0
  6 11  1  0
 11 12  1  0
 11 13  1  0
 11 14  1  0
  6 15  1  0
 15 16  1  0
 16 17  2  0
 17 18  1  0
 17 19  1  0
 19 20  2  0
 20 21  1  0
 20 22  1  0
 22 23  1  0
 22 24  2  0
 24 25  1  0
 15 26  1  0
 26 27  1  0
 27 28  1  0
 27 29  1  0
 27 30  1  0
 30 31  1  0
 30 32  1  0
 30 33  1  0
 33 15  1  0
 24 16  1  0
M  END
>  <plip>  (1) 
-0.07142857142857142

>  <filename>  (1) 
[H][O][C]([H])([H])[C]([C]([H])([H])[H])([C]([H])([H])[H])[C]1([c]2[c]([H])[n][c]([H])[c]([H])[c]2[H])[O][C]([H])([H])[C]([H])([H])[O]1

$$$$
