
     RDKit          3D

 39 40  0  0  0  0  0  0  0  0999 V2000
    4.9631    1.7953   16.9155 H   0  0  0  0  0  0  0  0  0  0  0  0
    5.4366    1.3031   17.7638 C   0  0  0  0  0  0  0  0  0  0  0  0
    6.6025    0.6977   17.5197 N   0  0  0  0  0  0  0  0  0  0  0  0
    7.2052    0.0919   18.5521 C   0  0  0  0  0  0  0  0  0  0  0  0
    8.1565   -0.3823   18.3255 H   0  0  0  0  0  0  0  0  0  0  0  0
    6.6982    0.0391   19.8588 C   0  0  0  0  0  0  0  0  0  0  0  0
    7.4554   -0.6758   20.9811 C   0  0  1  0  0  0  0  0  0  0  0  0
    8.7220   -1.1814   20.4626 N   0  0  0  0  0  0  0  0  0  0  0  0
    9.2024   -1.6357   21.2346 H   0  0  0  0  0  0  0  0  0  0  0  0
    8.5143   -1.9212   19.7957 H   0  0  0  0  0  0  0  0  0  0  0  0
    7.8170    0.3171   22.0954 C   0  0  0  0  0  0  0  0  0  0  0  0
    8.4579    1.1019   21.6831 H   0  0  0  0  0  0  0  0  0  0  0  0
    6.9336    0.7909   22.5357 H   0  0  0  0  0  0  0  0  0  0  0  0
    8.3749   -0.1835   22.8953 H   0  0  0  0  0  0  0  0  0  0  0  0
    6.5561   -1.8474   21.4929 C   0  0  0  0  0  0  0  0  0  0  0  0
    6.3335   -2.4717   20.6155 H   0  0  0  0  0  0  0  0  0  0  0  0
    5.5978   -1.4207   21.7865 H   0  0  0  0  0  0  0  0  0  0  0  0
    7.1179   -2.7069   22.6038 C   0  0  0  0  0  0  0  0  0  0  0  0
    7.0358   -2.3553   23.9613 C   0  0  0  0  0  0  0  0  0  0  0  0
    6.6038   -1.3910   24.2269 H   0  0  0  0  0  0  0  0  0  0  0  0
    7.5023   -3.2127   24.9724 C   0  0  0  0  0  0  0  0  0  0  0  0
    7.4159   -2.9107   26.0121 H   0  0  0  0  0  0  0  0  0  0  0  0
    8.0516   -4.4579   24.6260 C   0  0  0  0  0  0  0  0  0  0  0  0
    8.3957   -5.4583   25.4924 O   0  0  0  0  0  0  0  0  0  0  0  0
    8.5654   -5.2037   26.8860 C   0  0  0  0  0  0  0  0  0  0  0  0
    8.7063   -6.2020   27.3124 H   0  0  0  0  0  0  0  0  0  0  0  0
    7.6470   -4.7846   27.3160 H   0  0  0  0  0  0  0  0  0  0  0  0
    9.7649   -4.2944   27.1645 C   0  0  0  0  0  0  0  0  0  0  0  0
   10.1598   -4.4454   28.1739 H   0  0  0  0  0  0  0  0  0  0  0  0
   10.5581   -4.5330   26.4470 H   0  0  0  0  0  0  0  0  0  0  0  0
    9.4874   -3.2353   27.0680 H   0  0  0  0  0  0  0  0  0  0  0  0
    8.2212   -4.7769   23.2674 C   0  0  0  0  0  0  0  0  0  0  0  0
    8.6810   -5.7259   23.0190 H   0  0  0  0  0  0  0  0  0  0  0  0
    7.7675   -3.9081   22.2801 C   0  0  0  0  0  0  0  0  0  0  0  0
    7.9030   -4.1540   21.2290 H   0  0  0  0  0  0  0  0  0  0  0  0
    5.4608    0.6660   20.0848 C   0  0  0  0  0  0  0  0  0  0  0  0
    4.9933    0.6599   21.0733 H   0  0  0  0  0  0  0  0  0  0  0  0
    4.8249    1.3117   19.0224 C   0  0  0  0  0  0  0  0  0  0  0  0
    3.8755    1.8219   19.1533 H   0  0  0  0  0  0  0  0  0  0  0  0
  1  2  1  0
  2  3  2  0
  3  4  1  0
  4  5  1  0
  4  6  2  0
  6  7  1  0
  7  8  1  6
  8  9  1  0
  8 10  1  0
  7 11  1  0
 11 12  1  0
 11 13  1  0
 11 14  1  0
  7 15  1  0
 15 16  1  0
 15 17  1  0
 15 18  1  0
 18 19  2  0
 19 20  1  0
 19 21  1  0
 21 22  1  0
 21 23  2  0
 23 24  1  0
 24 25  1  0
 25 26  1  0
 25 27  1  0
 25 28  1  0
 28 29  1  0
 28 30  1  0
 28 31  1  0
 23 32  1  0
 32 33  1  0
 32 34  2  0
 34 35  1  0
  6 36  1  0
 36 37  1  0
 36 38  2  0
 38 39  1  0
 38  2  1  0
 34 18  1  0
M  END
>  <plip>  (1) 
-0.07142857142857142

>  <filename>  (1) 
[H][c]1[n][c]([H])[c]([C@@]([N]([H])[H])([C]([H])([H])[H])[C]([H])([H])[c]2[c]([H])[c]([H])[c]([O][C]([H])([H])[C]([H])([H])[H])[c]([H])[c]2[H])[c]([H])[c]1[H]

$$$$
