
     RDKit          3D

 60 62  0  0  0  0  0  0  0  0999 V2000
    2.4917   -6.6256   21.8485 C   0  0  0  0  0  0  0  0  0  0  0  0
    2.4932   -6.6296   23.3567 C   0  0  0  0  0  0  0  0  0  0  0  0
    1.3336   -6.9136   24.0852 C   0  0  0  0  0  0  0  0  0  0  0  0
    1.3091   -6.8064   25.4815 C   0  0  0  0  0  0  0  0  0  0  0  0
    2.4557   -6.3823   26.1617 C   0  0  0  0  0  0  0  0  0  0  0  0
    3.6398   -6.1347   25.4577 C   0  0  0  0  0  0  0  0  0  0  0  0
    3.6684   -6.3339   24.0787 C   0  0  0  0  0  0  0  0  0  0  0  0
    4.9218   -6.2837   23.4045 N   0  0  0  0  0  0  0  0  0  0  0  0
    5.7326   -5.1950   23.3645 C   0  0  0  0  0  0  0  0  0  0  0  0
    5.3400   -4.0652   23.6140 O   0  0  0  0  0  0  0  0  0  0  0  0
    7.1410   -5.4336   22.8808 C   0  0  0  0  0  0  0  0  0  0  0  0
    7.3468   -4.6770   21.5748 C   0  0  0  0  0  0  0  0  0  0  0  0
    6.4302   -5.2105   20.4816 C   0  0  0  0  0  0  0  0  0  0  0  0
    6.5730   -4.6910   19.5321 H   0  0  0  0  0  0  0  0  0  0  0  0
    6.6450   -6.2685   20.3174 H   0  0  0  0  0  0  0  0  0  0  0  0
    5.3756   -5.1250   20.7656 H   0  0  0  0  0  0  0  0  0  0  0  0
    7.0554   -3.2484   21.9014 N   0  0  0  0  0  4  0  0  0  0  0  0
    7.3641   -2.2645   20.8157 C   0  0  0  0  0  0  0  0  0  0  0  0
    7.2423   -0.7477   21.1307 C   0  0  0  0  0  0  0  0  0  0  0  0
    6.5811   -0.0051   19.9868 C   0  0  0  0  0  0  0  0  0  0  0  0
    5.3758    0.6907   20.1517 C   0  0  0  0  0  0  0  0  0  0  0  0
    4.8360    1.3692   19.0534 C   0  0  0  0  0  0  0  0  0  0  0  0
    5.5187    1.3227   17.8347 C   0  0  0  0  0  0  0  0  0  0  0  0
    6.6733    0.6614   17.6598 N   0  0  0  0  0  0  0  0  0  0  0  0
    7.1888    0.0344   18.7229 C   0  0  0  0  0  0  0  0  0  0  0  0
    8.1373   -0.4824   18.5484 H   0  0  0  0  0  0  0  0  0  0  0  0
    5.1285    1.8369   16.9566 H   0  0  0  0  0  0  0  0  0  0  0  0
    3.9138    1.9360   19.1260 H   0  0  0  0  0  0  0  0  0  0  0  0
    4.8710    0.7004   21.1208 H   0  0  0  0  0  0  0  0  0  0  0  0
    8.6128   -0.0920   21.3611 N   0  0  0  0  0  4  0  0  0  0  0  0
    9.4380   -0.7186   22.4701 C   0  0  0  0  0  0  0  0  0  0  0  0
   10.8329   -0.0481   22.5919 C   0  0  0  0  0  0  0  0  0  0  0  0
   10.9472    1.1803   21.8904 O   0  0  0  0  0  0  0  0  0  0  0  0
    9.8453    2.0342   22.1274 C   0  0  0  0  0  0  0  0  0  0  0  0
    8.5305    1.4464   21.5633 C   0  0  0  0  0  0  0  0  0  0  0  0
    8.3054    1.9002   20.5970 H   0  0  0  0  0  0  0  0  0  0  0  0
    7.6971    1.6619   22.2374 H   0  0  0  0  0  0  0  0  0  0  0  0
   10.0800    2.9809   21.6365 H   0  0  0  0  0  0  0  0  0  0  0  0
    9.7389    2.2344   23.2044 H   0  0  0  0  0  0  0  0  0  0  0  0
   11.0587    0.0985   23.6594 H   0  0  0  0  0  0  0  0  0  0  0  0
   11.6051   -0.6879   22.1615 H   0  0  0  0  0  0  0  0  0  0  0  0
    9.5783   -1.7886   22.2889 H   0  0  0  0  0  0  0  0  0  0  0  0
    8.8800   -0.6179   23.4103 H   0  0  0  0  0  0  0  0  0  0  0  0
    9.1207   -0.2155   20.4616 H   0  0  0  0  0  0  0  0  0  0  0  0
    6.6555   -0.6176   22.0508 H   0  0  0  0  0  0  0  0  0  0  0  0
    8.3931   -2.3914   20.4398 H   0  0  0  0  0  0  0  0  0  0  0  0
    6.7237   -2.4555   19.9502 H   0  0  0  0  0  0  0  0  0  0  0  0
    6.0646   -3.2244   22.2632 H   0  0  0  0  0  0  0  0  0  0  0  0
    7.5922   -3.0127   22.7576 H   0  0  0  0  0  0  0  0  0  0  0  0
    8.3930   -4.7833   21.2480 H   0  0  0  0  0  0  0  0  0  0  0  0
    7.3226   -6.5009   22.7504 H   0  0  0  0  0  0  0  0  0  0  0  0
    7.8216   -5.0605   23.6514 H   0  0  0  0  0  0  0  0  0  0  0  0
    5.1785   -7.1072   22.8814 H   0  0  0  0  0  0  0  0  0  0  0  0
    4.5594   -5.8255   25.9536 H   0  0  0  0  0  0  0  0  0  0  0  0
    2.4493   -6.2777   27.2418 H   0  0  0  0  0  0  0  0  0  0  0  0
    0.4111   -7.0749   26.0357 H   0  0  0  0  0  0  0  0  0  0  0  0
    0.4545   -7.2471   23.5324 H   0  0  0  0  0  0  0  0  0  0  0  0
    2.9734   -7.5253   21.4496 H   0  0  0  0  0  0  0  0  0  0  0  0
    1.4842   -6.5984   21.4191 H   0  0  0  0  0  0  0  0  0  0  0  0
    3.0640   -5.7535   21.5076 H   0  0  0  0  0  0  0  0  0  0  0  0
  1  2  1  0
  2  3  2  0
  3  4  1  0
  4  5  2  0
  5  6  1  0
  6  7  2  0
  7  8  1  0
  8  9  1  0
  9 10  2  0
  9 11  1  0
 11 12  1  0
 12 13  1  0
 13 14  1  0
 13 15  1  0
 13 16  1  0
 12 17  1  0
 17 18  1  0
 18 19  1  0
 19 20  1  0
 20 21  2  0
 21 22  1  0
 22 23  2  0
 23 24  1  0
 24 25  2  0
 25 26  1  0
 23 27  1  0
 22 28  1  0
 21 29  1  0
 19 30  1  0
 30 31  1  0
 31 32  1  0
 32 33  1  0
 33 34  1  0
 34 35  1  0
 35 36  1  0
 35 37  1  0
 34 38  1  0
 34 39  1  0
 32 40  1  0
 32 41  1  0
 31 42  1  0
 31 43  1  0
 30 44  1  0
 19 45  1  0
 18 46  1  0
 18 47  1  0
 17 48  1  0
 17 49  1  0
 12 50  1  0
 11 51  1  0
 11 52  1  0
  8 53  1  0
  6 54  1  0
  5 55  1  0
  4 56  1  0
  3 57  1  0
  1 58  1  0
  1 59  1  0
  1 60  1  0
  7  2  1  0
 25 20  1  0
 35 30  1  0
M  CHG  2  17   1  30   1
M  END
>  <plip>  (1) 
-0.125

>  <filename>  (1) 
[H][c]1[n][c]([H])[c]([C]([H])([C]([H])([H])[N+]([H])([H])[C]([H])([C]([H])([H])[H])[C]([H])([H])[C](=[O])[N]([H])[c]2[c]([H])[c]([H])[c]([H])[c]([H])[c]2[C]([H])([H])[H])[N+]2([H])[C]([H])([H])[C]([H])([H])[O][C]([H])([H])[C]2([H])[H])[c]([H])[c]1[H]

$$$$
