
     RDKit          3D

 30 32  0  0  0  0  0  0  0  0999 V2000
    6.5906    1.2125   23.0949 H   0  0  0  0  0  0  0  0  0  0  0  0
    7.3443    1.8701   22.6692 C   0  0  0  0  0  0  0  0  0  0  0  0
    7.0942    3.1991   22.6982 C   0  0  0  0  0  0  0  0  0  0  0  0
    8.0513    4.4813   21.9442 S   0  0  0  0  0  0  0  0  0  0  0  0
    6.8210    5.7159   22.3394 C   0  0  0  0  0  0  0  0  0  0  0  0
    6.8418    6.8823   22.0726 O   0  0  0  0  0  0  0  0  0  0  0  0
    5.8194    5.1176   23.0537 N   0  0  0  0  0  0  0  0  0  0  0  0
    5.0412    5.6681   23.3464 H   0  0  0  0  0  0  0  0  0  0  0  0
    5.8549    3.7697   23.2915 C   0  0  0  0  0  0  0  0  0  0  0  0
    4.9819    3.1925   23.8988 O   0  0  0  0  0  0  0  0  0  0  0  0
    8.5587    1.2876   22.1303 C   0  0  0  0  0  0  0  0  0  0  0  0
    9.8666    1.7415   22.1754 C   0  0  0  0  0  0  0  0  0  0  0  0
   10.2140    2.6332   22.6792 H   0  0  0  0  0  0  0  0  0  0  0  0
   10.6022    0.7932   21.4604 C   0  0  0  0  0  0  0  0  0  0  0  0
   11.6673    0.7702   21.2713 H   0  0  0  0  0  0  0  0  0  0  0  0
    9.8218   -0.1784   20.9951 N   0  0  0  0  0  0  0  0  0  0  0  0
    8.5910    0.1148   21.4328 N   0  0  0  0  0  0  0  0  0  0  0  0
    7.4413   -0.6679   20.9913 C   0  0  0  0  0  0  0  0  0  0  0  0
    7.8424   -1.6333   20.6673 H   0  0  0  0  0  0  0  0  0  0  0  0
    6.8078   -0.8431   21.8655 H   0  0  0  0  0  0  0  0  0  0  0  0
    6.6423    0.0028   19.8946 C   0  0  0  0  0  0  0  0  0  0  0  0
    7.1604    0.0598   18.5925 C   0  0  0  0  0  0  0  0  0  0  0  0
    8.1152   -0.4175   18.3748 H   0  0  0  0  0  0  0  0  0  0  0  0
    6.5575    0.6786   17.5727 N   0  0  0  0  0  0  0  0  0  0  0  0
    5.3954    1.2960   17.8320 C   0  0  0  0  0  0  0  0  0  0  0  0
    4.9219    1.7909   16.9865 H   0  0  0  0  0  0  0  0  0  0  0  0
    4.7962    1.3131   19.0950 C   0  0  0  0  0  0  0  0  0  0  0  0
    3.8684    1.8510   19.2431 H   0  0  0  0  0  0  0  0  0  0  0  0
    5.4258    0.6448   20.1467 C   0  0  0  0  0  0  0  0  0  0  0  0
    4.9988    0.6406   21.1547 H   0  0  0  0  0  0  0  0  0  0  0  0
  1  2  1  0
  2  3  2  3
  3  4  1  0
  4  5  1  0
  5  6  2  0
  5  7  1  0
  7  8  1  0
  7  9  1  0
  9 10  2  0
  2 11  1  0
 11 12  2  0
 12 13  1  0
 12 14  1  0
 14 15  1  0
 14 16  2  0
 16 17  1  0
 17 18  1  0
 18 19  1  0
 18 20  1  0
 18 21  1  0
 21 22  2  0
 22 23  1  0
 22 24  1  0
 24 25  2  0
 25 26  1  0
 25 27  1  0
 27 28  1  0
 27 29  2  0
 29 30  1  0
  9  3  1  0
 17 11  1  0
 29 21  1  0
M  END
>  <plip>  (1) 
-0.10714285714285714

>  <filename>  (1) 
[H][C](=[C]1[S][C](=[O])[N]([H])[C]1=[O])[c]1[c]([H])[c]([H])[n][n]1[C]([H])([H])[c]1[c]([H])[n][c]([H])[c]([H])[c]1[H]

$$$$
