
     RDKit          3D

 24 24  0  0  0  0  0  0  0  0999 V2000
    8.9502    3.0468   23.6381 H   0  0  0  0  0  0  0  0  0  0  0  0
    9.8736    2.9252   23.3806 O   0  0  0  0  0  0  0  0  0  0  0  0
    9.9746    1.6958   22.6852 C   0  0  0  0  0  0  0  0  0  0  0  0
    9.5340    0.8634   23.2541 H   0  0  0  0  0  0  0  0  0  0  0  0
   11.0482    1.4895   22.5768 H   0  0  0  0  0  0  0  0  0  0  0  0
    9.3405    1.7576   21.2919 C   0  0  0  0  0  0  0  0  0  0  0  0
    8.2659    1.9755   21.3679 H   0  0  0  0  0  0  0  0  0  0  0  0
    9.7898    2.5888   20.7415 H   0  0  0  0  0  0  0  0  0  0  0  0
    9.4943    0.5172   20.5109 N   0  0  0  0  0  0  0  0  0  0  0  0
   10.4781    0.2357   20.4675 H   0  0  0  0  0  0  0  0  0  0  0  0
    8.7472   -0.5543   21.0520 N   0  0  0  0  0  0  0  0  0  0  0  0
    9.1245   -1.1655   21.7782 H   0  0  0  0  0  0  0  0  0  0  0  0
    7.4048   -0.7149   20.9563 C   0  0  0  0  0  0  0  0  0  0  0  0
    6.6703   -1.7920   21.9760 S   0  0  0  0  0  0  0  0  0  0  0  0
    6.6833    0.0441   19.9152 C   0  0  0  0  0  0  0  0  0  0  0  0
    7.1919    0.0758   18.6084 C   0  0  0  0  0  0  0  0  0  0  0  0
    8.1333   -0.4183   18.3694 H   0  0  0  0  0  0  0  0  0  0  0  0
    6.5715    0.6638   17.5854 N   0  0  0  0  0  0  0  0  0  0  0  0
    5.4092    1.2855   17.8452 C   0  0  0  0  0  0  0  0  0  0  0  0
    4.9330    1.7774   16.9997 H   0  0  0  0  0  0  0  0  0  0  0  0
    4.8208    1.3094   19.1111 C   0  0  0  0  0  0  0  0  0  0  0  0
    3.8853    1.8292   19.2586 H   0  0  0  0  0  0  0  0  0  0  0  0
    5.4532    0.6673   20.1693 C   0  0  0  0  0  0  0  0  0  0  0  0
    5.0079    0.6270   21.1655 H   0  0  0  0  0  0  0  0  0  0  0  0
  1  2  1  0
  2  3  1  0
  3  4  1  0
  3  5  1  0
  3  6  1  0
  6  7  1  0
  6  8  1  0
  6  9  1  0
  9 10  1  0
  9 11  1  0
 11 12  1  0
 11 13  1  0
 13 14  2  0
 13 15  1  0
 15 16  2  0
 16 17  1  0
 16 18  1  0
 18 19  2  0
 19 20  1  0
 19 21  1  0
 21 22  1  0
 21 23  2  0
 23 24  1  0
 23 15  1  0
M  END
>  <plip>  (1) 
-0.06896551724137931

>  <filename>  (1) 
[H][O][C]([H])([H])[C]([H])([H])[N]([H])[N]([H])[C](=[S])[c]1[c]([H])[n][c]([H])[c]([H])[c]1[H]

$$$$
