
     RDKit          3D

 25 26  0  0  0  0  0  0  0  0999 V2000
    7.2821   -2.4032   20.1762 H   0  0  0  0  0  0  0  0  0  0  0  0
    8.0304   -1.8689   20.4751 O   0  0  0  0  0  0  0  0  0  0  0  0
    7.4630   -0.6655   20.9994 C   0  0  1  0  0  0  0  0  0  0  0  0
    8.6044    0.2516   21.4301 C   0  0  0  0  0  0  0  0  0  0  0  0
    8.4498    1.5656   21.5940 N   0  0  0  0  0  0  0  0  0  0  0  0
    9.6276    1.9881   22.0539 N   0  0  0  0  0  0  0  0  0  0  0  0
    9.7220    2.9736   22.2427 H   0  0  0  0  0  0  0  0  0  0  0  0
   10.5458    0.9997   22.1997 C   0  0  0  0  0  0  0  0  0  0  0  0
   11.5498    1.1809   22.5669 H   0  0  0  0  0  0  0  0  0  0  0  0
    9.9076   -0.1433   21.7970 C   0  0  0  0  0  0  0  0  0  0  0  0
   10.2810   -1.1505   21.7690 H   0  0  0  0  0  0  0  0  0  0  0  0
    6.6314   -0.0138   19.9010 C   0  0  0  0  0  0  0  0  0  0  0  0
    7.1562    0.0454   18.6023 C   0  0  0  0  0  0  0  0  0  0  0  0
    8.1106   -0.4270   18.3821 H   0  0  0  0  0  0  0  0  0  0  0  0
    6.5638    0.6698   17.5793 N   0  0  0  0  0  0  0  0  0  0  0  0
    5.4038    1.2894   17.8358 C   0  0  0  0  0  0  0  0  0  0  0  0
    4.9220    1.7818   16.9940 H   0  0  0  0  0  0  0  0  0  0  0  0
    4.8016    1.3120   19.0978 C   0  0  0  0  0  0  0  0  0  0  0  0
    3.8708    1.8469   19.2550 H   0  0  0  0  0  0  0  0  0  0  0  0
    5.4280    0.6503   20.1542 C   0  0  0  0  0  0  0  0  0  0  0  0
    4.9921    0.6407   21.1578 H   0  0  0  0  0  0  0  0  0  0  0  0
    6.6385   -1.0604   22.2316 C   0  0  0  0  0  0  0  0  0  0  0  0
    7.2535   -1.6874   22.8847 H   0  0  0  0  0  0  0  0  0  0  0  0
    5.7552   -1.6348   21.9301 H   0  0  0  0  0  0  0  0  0  0  0  0
    6.3256   -0.1783   22.7998 H   0  0  0  0  0  0  0  0  0  0  0  0
  1  2  1  0
  3  2  1  6
  3  4  1  0
  4  5  2  0
  5  6  1  0
  6  7  1  0
  6  8  1  0
  8  9  1  0
  8 10  2  0
 10 11  1  0
  3 12  1  0
 12 13  2  0
 13 14  1  0
 13 15  1  0
 15 16  2  0
 16 17  1  0
 16 18  1  0
 18 19  1  0
 18 20  2  0
 20 21  1  0
  3 22  1  0
 22 23  1  0
 22 24  1  0
 22 25  1  0
 10  4  1  0
 20 12  1  0
M  END
>  <plip>  (1) 
-0.10344827586206896

>  <filename>  (1) 
[H][O][C@@]([c]1[n][n]([H])[c]([H])[c]1[H])([c]1[c]([H])[n][c]([H])[c]([H])[c]1[H])[C]([H])([H])[H]

$$$$
