
     RDKit          3D

 37 39  0  0  0  0  0  0  0  0999 V2000
    6.1413   -2.2957   19.7263 H   0  0  0  0  0  0  0  0  0  0  0  0
    6.5076   -2.8573   20.4930 N   0  0  0  0  0  0  0  0  0  0  0  0
    7.1930   -2.0710   21.2105 C   0  0  0  0  0  0  0  0  0  0  0  0
    7.9969   -2.5859   22.6938 S   0  0  0  0  0  0  0  0  0  0  0  0
    8.4053   -0.9368   23.0619 C   0  0  0  0  0  0  0  0  0  0  0  0
    9.0023   -0.6725   23.9194 H   0  0  0  0  0  0  0  0  0  0  0  0
    8.0256   -0.0781   22.0894 C   0  0  0  0  0  0  0  0  0  0  0  0
    8.2588    1.2781   22.1183 N   0  0  0  0  0  0  0  0  0  0  0  0
    8.6022    1.9951   20.9062 C   0  0  0  0  0  0  0  0  0  0  0  0
    9.1598    1.3021   20.2684 H   0  0  0  0  0  0  0  0  0  0  0  0
    7.7160    2.3527   20.3674 H   0  0  0  0  0  0  0  0  0  0  0  0
    9.2376    2.8579   21.1331 H   0  0  0  0  0  0  0  0  0  0  0  0
    7.7811    2.0319   23.2732 C   0  0  0  0  0  0  0  0  0  0  0  0
    8.1686    1.5489   24.1828 H   0  0  0  0  0  0  0  0  0  0  0  0
    8.2207    3.0384   23.2401 H   0  0  0  0  0  0  0  0  0  0  0  0
    6.2637    2.1567   23.3872 C   0  0  0  0  0  0  0  0  0  0  0  0
    5.5449    1.2565   24.1938 C   0  0  0  0  0  0  0  0  0  0  0  0
    6.0485    0.3847   24.6101 H   0  0  0  0  0  0  0  0  0  0  0  0
    4.1949    1.4776   24.4814 C   0  0  0  0  0  0  0  0  0  0  0  0
    3.6708    0.8062   25.1581 H   0  0  0  0  0  0  0  0  0  0  0  0
    3.5189    2.5474   23.8882 C   0  0  0  0  0  0  0  0  0  0  0  0
    2.4625    2.7156   24.0870 H   0  0  0  0  0  0  0  0  0  0  0  0
    4.2009    3.3954   23.0114 C   0  0  0  0  0  0  0  0  0  0  0  0
    3.6853    4.2266   22.5410 H   0  0  0  0  0  0  0  0  0  0  0  0
    5.5608    3.1985   22.7579 C   0  0  0  0  0  0  0  0  0  0  0  0
    6.0826    3.8640   22.0683 H   0  0  0  0  0  0  0  0  0  0  0  0
    7.4150   -0.6983   20.9845 N   0  0  0  0  0  0  0  0  0  0  0  0
    6.7143   -0.0026   19.9155 C   0  0  0  0  0  0  0  0  0  0  0  0
    7.2182    0.0567   18.5983 C   0  0  0  0  0  0  0  0  0  0  0  0
    8.1690   -0.4293   18.3742 H   0  0  0  0  0  0  0  0  0  0  0  0
    6.6012    0.6907   17.5892 N   0  0  0  0  0  0  0  0  0  0  0  0
    5.4360    1.3014   17.8635 C   0  0  0  0  0  0  0  0  0  0  0  0
    4.9510    1.8032   17.0296 H   0  0  0  0  0  0  0  0  0  0  0  0
    4.8466    1.2980   19.1342 C   0  0  0  0  0  0  0  0  0  0  0  0
    3.9027    1.8067   19.3002 H   0  0  0  0  0  0  0  0  0  0  0  0
    5.5030    0.6376   20.1812 C   0  0  0  0  0  0  0  0  0  0  0  0
    5.1317    0.6308   21.2072 H   0  0  0  0  0  0  0  0  0  0  0  0
  1  2  1  0
  2  3  2  3
  3  4  1  0
  4  5  1  0
  5  6  1  0
  5  7  2  0
  7  8  1  0
  8  9  1  0
  9 10  1  0
  9 11  1  0
  9 12  1  0
  8 13  1  0
 13 14  1  0
 13 15  1  0
 13 16  1  0
 16 17  2  0
 17 18  1  0
 17 19  1  0
 19 20  1  0
 19 21  2  0
 21 22  1  0
 21 23  1  0
 23 24  1  0
 23 25  2  0
 25 26  1  0
  7 27  1  0
 27 28  1  0
 28 29  2  0
 29 30  1  0
 29 31  1  0
 31 32  2  0
 32 33  1  0
 32 34  1  0
 34 35  1  0
 34 36  2  0
 36 37  1  0
 27  3  1  0
 36 28  1  0
 25 16  1  0
M  END
>  <plip>  (1) 
-0.07142857142857142

>  <filename>  (1) 
[H][N]=[c]1[s][c]([H])[c]([N]([C]([H])([H])[H])[C]([H])([H])[c]2[c]([H])[c]([H])[c]([H])[c]([H])[c]2[H])[n]1-[c]1[c]([H])[n][c]([H])[c]([H])[c]1[H]

$$$$
