
     RDKit          3D

 34 36  0  0  0  0  0  0  0  0999 V2000
    8.5650   -1.3948   23.6963 O   0  0  0  0  0  0  0  0  0  0  0  0
    8.1237   -0.2787   23.6225 C   0  0  0  0  0  0  0  0  0  0  0  0
    8.3351    0.7609   24.7018 C   0  0  0  0  0  0  0  0  0  0  0  0
    9.6018    1.5033   24.4360 C   0  0  0  0  0  0  0  0  0  0  0  0
   10.8973    1.1473   24.5890 C   0  0  0  0  0  0  0  0  0  0  0  0
   11.6803    2.2152   24.0062 C   0  0  0  0  0  0  0  0  0  0  0  0
   13.0465    2.4543   23.7645 C   0  0  0  0  0  0  0  0  0  0  0  0
   13.4154    3.6970   23.2551 C   0  0  0  0  0  0  0  0  0  0  0  0
   12.4487    4.6831   22.9615 C   0  0  0  0  0  0  0  0  0  0  0  0
   11.0852    4.4311   23.1126 C   0  0  0  0  0  0  0  0  0  0  0  0
   10.7380    3.1755   23.6031 C   0  0  0  0  0  0  0  0  0  0  0  0
    9.4694    2.7114   23.8164 O   0  0  0  0  0  0  0  0  0  0  0  0
   10.3173    5.1535   22.8639 H   0  0  0  0  0  0  0  0  0  0  0  0
   12.7784    5.6634   22.6306 H   0  0  0  0  0  0  0  0  0  0  0  0
   14.4607    3.9135   23.0664 H   0  0  0  0  0  0  0  0  0  0  0  0
   13.7812    1.6814   23.9827 H   0  0  0  0  0  0  0  0  0  0  0  0
   11.2602    0.2591   25.0905 H   0  0  0  0  0  0  0  0  0  0  0  0
    8.4250    0.2112   25.6377 H   0  0  0  0  0  0  0  0  0  0  0  0
    7.4980    1.4559   24.7537 H   0  0  0  0  0  0  0  0  0  0  0  0
    7.4044    0.2407   22.5276 N   0  0  0  0  0  0  0  0  0  0  0  0
    7.4847   -0.8380   21.2466 S   0  0  0  0  0  0  0  0  0  0  0  0
    8.8785   -0.8209   20.8506 O   0  0  0  0  0  0  0  0  0  0  0  0
    6.7354   -2.0266   21.5716 O   0  0  0  0  0  0  0  0  0  0  0  0
    6.6160    0.0797   20.0589 C   0  0  0  0  0  0  0  0  0  0  0  0
    5.3828    0.7149   20.2587 C   0  0  0  0  0  0  0  0  0  0  0  0
    4.8131    1.3104   19.1362 C   0  0  0  0  0  0  0  0  0  0  0  0
    5.4853    1.2542   17.9111 C   0  0  0  0  0  0  0  0  0  0  0  0
    6.6657    0.6411   17.7469 N   0  0  0  0  0  0  0  0  0  0  0  0
    7.2249    0.0698   18.8080 C   0  0  0  0  0  0  0  0  0  0  0  0
    8.1931   -0.4008   18.6421 H   0  0  0  0  0  0  0  0  0  0  0  0
    5.0582    1.7169   17.0225 H   0  0  0  0  0  0  0  0  0  0  0  0
    3.8678    1.8361   19.1927 H   0  0  0  0  0  0  0  0  0  0  0  0
    4.8859    0.7723   21.2325 H   0  0  0  0  0  0  0  0  0  0  0  0
    7.9303    1.0254   22.1649 H   0  0  0  0  0  0  0  0  0  0  0  0
  1  2  2  0
  2  3  1  0
  3  4  1  0
  4  5  2  0
  5  6  1  0
  6  7  2  0
  7  8  1  0
  8  9  2  0
  9 10  1  0
 10 11  2  0
 11 12  1  0
 10 13  1  0
  9 14  1  0
  8 15  1  0
  7 16  1  0
  5 17  1  0
  3 18  1  0
  3 19  1  0
  2 20  1  0
 20 21  1  0
 21 22  2  0
 21 23  2  0
 21 24  1  0
 24 25  2  0
 25 26  1  0
 26 27  2  0
 27 28  1  0
 28 29  2  0
 29 30  1  0
 27 31  1  0
 26 32  1  0
 25 33  1  0
 20 34  1  0
 12  4  1  0
 29 24  1  0
 11  6  1  0
M  END
>  <plip>  (1) 
-0.07142857142857142

>  <filename>  (1) 
[H][c]1[n][c]([H])[c]([S](=[O])(=[O])[N]([H])[C](=[O])[C]([H])([H])[c]2[o][c]3[c]([H])[c]([H])[c]([H])[c]([H])[c]3[c]2[H])[c]([H])[c]1[H]

$$$$
