
     RDKit          3D

 22 23  0  0  0  0  0  0  0  0999 V2000
    9.2150   -1.1097   20.4573 H   0  0  0  0  0  0  0  0  0  0  0  0
    8.6644   -0.5024   20.9900 O   0  0  0  0  0  0  0  0  0  0  0  0
    7.3277   -0.8887   20.8105 N   0  0  0  0  0  0  0  0  0  0  0  0
    6.7453   -1.7432   21.7710 C   0  0  0  0  0  0  0  0  0  0  0  0
    5.6477   -2.4313   21.4050 N   0  0  0  0  0  0  0  0  0  0  0  0
    5.1072   -3.2311   22.3458 C   0  0  0  0  0  0  0  0  0  0  0  0
    4.2350   -3.8081   22.0494 H   0  0  0  0  0  0  0  0  0  0  0  0
    5.6224   -3.3225   23.6483 C   0  0  0  0  0  0  0  0  0  0  0  0
    5.1316   -3.9110   24.4185 H   0  0  0  0  0  0  0  0  0  0  0  0
    6.7471   -2.6680   24.0121 N   0  0  0  0  0  0  0  0  0  0  0  0
    7.3169   -1.9040   23.0720 C   0  0  0  0  0  0  0  0  0  0  0  0
    8.2279   -1.3816   23.3337 H   0  0  0  0  0  0  0  0  0  0  0  0
    6.6420   -0.0732   19.8681 C   0  0  0  0  0  0  0  0  0  0  0  0
    7.2009    0.0606   18.5769 C   0  0  0  0  0  0  0  0  0  0  0  0
    8.1603   -0.4098   18.3639 H   0  0  0  0  0  0  0  0  0  0  0  0
    6.6168    0.7080   17.5667 N   0  0  0  0  0  0  0  0  0  0  0  0
    5.4444    1.3183   17.8175 C   0  0  0  0  0  0  0  0  0  0  0  0
    4.9794    1.8286   16.9766 H   0  0  0  0  0  0  0  0  0  0  0  0
    4.8373    1.3181   19.0781 C   0  0  0  0  0  0  0  0  0  0  0  0
    3.9128    1.8679   19.2155 H   0  0  0  0  0  0  0  0  0  0  0  0
    5.4420    0.6184   20.1347 C   0  0  0  0  0  0  0  0  0  0  0  0
    5.0100    0.6298   21.1364 H   0  0  0  0  0  0  0  0  0  0  0  0
  1  2  1  0
  2  3  1  0
  3  4  1  0
  4  5  2  0
  5  6  1  0
  6  7  1  0
  6  8  2  0
  8  9  1  0
  8 10  1  0
 10 11  2  0
 11 12  1  0
  3 13  1  0
 13 14  2  0
 14 15  1  0
 14 16  1  0
 16 17  2  0
 17 18  1  0
 17 19  1  0
 19 20  1  0
 19 21  2  0
 21 22  1  0
 11  4  1  0
 21 13  1  0
M  END
>  <plip>  (1) 
-0.10344827586206896

>  <filename>  (1) 
[H][O][N]([c]1[n][c]([H])[c]([H])[n][c]1[H])[c]1[c]([H])[n][c]([H])[c]([H])[c]1[H]

$$$$
