
     RDKit          3D

 33 35  0  0  0  0  0  0  0  0999 V2000
    4.8353    1.6010   25.2388 H   0  0  0  0  0  0  0  0  0  0  0  0
    5.6436    1.8478   24.5450 C   0  0  0  0  0  0  0  0  0  0  0  0
    6.0856    0.8927   23.7200 C   0  0  0  0  0  0  0  0  0  0  0  0
    5.6051   -0.0753   23.7618 H   0  0  0  0  0  0  0  0  0  0  0  0
    7.3072    0.9892   22.8224 C   0  0  0  0  0  0  0  0  0  0  0  0
    7.1718    1.7557   22.0521 H   0  0  0  0  0  0  0  0  0  0  0  0
    8.1587    1.3404   23.4106 H   0  0  0  0  0  0  0  0  0  0  0  0
    7.6920   -0.3043   22.1818 C   0  0  0  0  0  0  0  0  0  0  0  0
    8.3587   -1.2778   22.7544 N   0  0  0  0  0  0  0  0  0  0  0  0
    8.4659   -2.2569   21.8304 N   0  0  0  0  0  0  0  0  0  0  0  0
    7.9027   -1.9206   20.7300 N   0  0  0  0  0  0  0  0  0  0  0  0
    7.3888   -0.6824   20.9126 N   0  0  0  0  0  0  0  0  0  0  0  0
    6.6538   -0.0009   19.8941 C   0  0  0  0  0  0  0  0  0  0  0  0
    7.1716    0.0426   18.5879 C   0  0  0  0  0  0  0  0  0  0  0  0
    8.1208   -0.4422   18.3806 H   0  0  0  0  0  0  0  0  0  0  0  0
    6.5677    0.6727   17.5787 N   0  0  0  0  0  0  0  0  0  0  0  0
    5.4028    1.2936   17.8375 C   0  0  0  0  0  0  0  0  0  0  0  0
    4.9283    1.7883   16.9933 H   0  0  0  0  0  0  0  0  0  0  0  0
    4.8086    1.3008   19.1046 C   0  0  0  0  0  0  0  0  0  0  0  0
    3.8798    1.8354   19.2576 H   0  0  0  0  0  0  0  0  0  0  0  0
    5.4397    0.6398   20.1671 C   0  0  0  0  0  0  0  0  0  0  0  0
    5.0096    0.6272   21.1726 H   0  0  0  0  0  0  0  0  0  0  0  0
    6.2416    3.1907   24.6649 C   0  0  0  0  0  0  0  0  0  0  0  0
    6.7013    3.6239   25.9195 C   0  0  0  0  0  0  0  0  0  0  0  0
    6.5975    2.9561   26.7734 H   0  0  0  0  0  0  0  0  0  0  0  0
    7.2897    4.8827   26.0651 C   0  0  0  0  0  0  0  0  0  0  0  0
    7.6207    5.2085   27.0485 H   0  0  0  0  0  0  0  0  0  0  0  0
    7.4226    5.7235   24.9520 C   0  0  0  0  0  0  0  0  0  0  0  0
    7.8671    6.7101   25.0626 H   0  0  0  0  0  0  0  0  0  0  0  0
    6.9733    5.2992   23.6969 C   0  0  0  0  0  0  0  0  0  0  0  0
    7.0679    5.9395   22.8229 H   0  0  0  0  0  0  0  0  0  0  0  0
    6.3893    4.0378   23.5551 C   0  0  0  0  0  0  0  0  0  0  0  0
    6.0301    3.7070   22.5819 H   0  0  0  0  0  0  0  0  0  0  0  0
  1  2  1  0
  2  3  2  3
  3  4  1  0
  3  5  1  0
  5  6  1  0
  5  7  1  0
  5  8  1  0
  8  9  2  0
  9 10  1  0
 10 11  2  0
 11 12  1  0
 12 13  1  0
 13 14  2  0
 14 15  1  0
 14 16  1  0
 16 17  2  0
 17 18  1  0
 17 19  1  0
 19 20  1  0
 19 21  2  0
 21 22  1  0
  2 23  1  0
 23 24  2  0
 24 25  1  0
 24 26  1  0
 26 27  1  0
 26 28  2  0
 28 29  1  0
 28 30  1  0
 30 31  1  0
 30 32  2  0
 32 33  1  0
 12  8  1  0
 21 13  1  0
 32 23  1  0
M  END
>  <plip>  (1) 
-0.0

>  <filename>  (1) 
[H][C](=[C]([H])[C]([H])([H])[c]1[n][n][n][n]1-[c]1[c]([H])[n][c]([H])[c]([H])[c]1[H])[c]1[c]([H])[c]([H])[c]([H])[c]([H])[c]1[H]

$$$$
