
     RDKit          3D

 44 46  0  0  0  0  0  0  0  0999 V2000
    6.6233   -2.0471   21.2795 C   0  0  0  0  0  0  0  0  0  0  0  0
    7.3671   -0.7337   21.0294 C   0  0  0  0  0  0  0  0  0  0  0  0
    8.8633   -0.9935   20.7374 C   0  0  0  0  0  0  0  0  0  0  0  0
    9.4479   -1.5738   22.0534 C   0  0  0  0  0  0  0  0  0  0  0  0
    9.9553   -0.7631   22.8448 O   0  0  0  0  0  0  0  0  0  0  0  0
    9.2617   -2.8066   22.1603 O   0  0  0  0  0  1  0  0  0  0  0  0
    9.3550   -0.0667   20.4375 H   0  0  0  0  0  0  0  0  0  0  0  0
    8.9878   -1.7268   19.9437 H   0  0  0  0  0  0  0  0  0  0  0  0
    7.2584    0.0603   22.2412 N   0  0  0  0  0  0  0  0  0  0  0  0
    7.7954    1.3138   22.3239 C   0  0  0  0  0  0  0  0  0  0  0  0
    8.3900    1.8267   21.3883 O   0  0  0  0  0  0  0  0  0  0  0  0
    7.5752    2.0428   23.6620 C   0  0  0  0  0  0  0  0  0  0  0  0
    8.9042    2.0841   24.4566 C   0  0  0  0  0  0  0  0  0  0  0  0
    8.7438    3.0195   25.6497 C   0  0  0  0  0  0  0  0  0  0  0  0
    8.4908    4.3584   25.2348 O   0  0  0  0  0  0  0  0  0  0  0  0
    7.5046    4.5266   24.3020 C   0  0  0  0  0  0  0  0  0  0  0  0
    7.0454    5.8373   24.1426 C   0  0  0  0  0  0  0  0  0  0  0  0
    6.0532    6.1123   23.2063 C   0  0  0  0  0  0  0  0  0  0  0  0
    5.5261    5.0784   22.4218 C   0  0  0  0  0  0  0  0  0  0  0  0
    6.0080    3.7732   22.5679 C   0  0  0  0  0  0  0  0  0  0  0  0
    7.0124    3.4696   23.5038 C   0  0  0  0  0  0  0  0  0  0  0  0
    5.6142    2.9859   21.9255 H   0  0  0  0  0  0  0  0  0  0  0  0
    4.7624    5.2986   21.6821 H   0  0  0  0  0  0  0  0  0  0  0  0
    5.7088    7.1350   23.0765 H   0  0  0  0  0  0  0  0  0  0  0  0
    7.5074    6.5990   24.7618 H   0  0  0  0  0  0  0  0  0  0  0  0
    7.9261    2.6836   26.3039 H   0  0  0  0  0  0  0  0  0  0  0  0
    9.6424    3.0754   26.2539 H   0  0  0  0  0  0  0  0  0  0  0  0
    9.1973    1.0814   24.7857 H   0  0  0  0  0  0  0  0  0  0  0  0
    9.6914    2.4714   23.7955 H   0  0  0  0  0  0  0  0  0  0  0  0
    6.8358    1.4423   24.2145 H   0  0  0  0  0  0  0  0  0  0  0  0
    6.9370   -0.3919   23.0798 H   0  0  0  0  0  0  0  0  0  0  0  0
    6.6563    0.0151   19.9041 C   0  0  0  0  0  0  0  0  0  0  0  0
    5.4258    0.6609   20.1303 C   0  0  0  0  0  0  0  0  0  0  0  0
    4.7942    1.3016   19.0692 C   0  0  0  0  0  0  0  0  0  0  0  0
    5.4111    1.2758   17.8142 C   0  0  0  0  0  0  0  0  0  0  0  0
    6.5704    0.6568   17.5689 N   0  0  0  0  0  0  0  0  0  0  0  0
    7.1710    0.0591   18.6122 C   0  0  0  0  0  0  0  0  0  0  0  0
    8.1331   -0.4055   18.3927 H   0  0  0  0  0  0  0  0  0  0  0  0
    4.9475    1.7721   16.9689 H   0  0  0  0  0  0  0  0  0  0  0  0
    3.8552    1.8229   19.2048 H   0  0  0  0  0  0  0  0  0  0  0  0
    5.0002    0.6863   21.1359 H   0  0  0  0  0  0  0  0  0  0  0  0
    6.6581   -2.6784   20.3860 H   0  0  0  0  0  0  0  0  0  0  0  0
    5.5756   -1.8344   21.5080 H   0  0  0  0  0  0  0  0  0  0  0  0
    7.0768   -2.6069   22.1016 H   0  0  0  0  0  0  0  0  0  0  0  0
  1  2  1  0
  2  3  1  0
  3  4  1  0
  4  5  2  0
  4  6  1  0
  3  7  1  0
  3  8  1  0
  2  9  1  0
  9 10  1  0
 10 11  2  0
 10 12  1  0
 12 13  1  0
 13 14  1  0
 14 15  1  0
 15 16  1  0
 16 17  2  0
 17 18  1  0
 18 19  2  0
 19 20  1  0
 20 21  2  0
 20 22  1  0
 19 23  1  0
 18 24  1  0
 17 25  1  0
 14 26  1  0
 14 27  1  0
 13 28  1  0
 13 29  1  0
 12 30  1  0
  9 31  1  0
  2 32  1  0
 32 33  2  0
 33 34  1  0
 34 35  2  0
 35 36  1  0
 36 37  2  0
 37 38  1  0
 35 39  1  0
 34 40  1  0
 33 41  1  0
  1 42  1  0
  1 43  1  0
  1 44  1  0
 21 12  1  0
 37 32  1  0
 21 16  1  0
M  CHG  1   6  -1
M  END
>  <plip>  (1) 
-0.07142857142857142

>  <filename>  (1) 
[H][c]1[n][c]([H])[c]([C]([N]([H])[C](=[O])[C]2([H])[c]3[c]([H])[c]([H])[c]([H])[c]([H])[c]3[O][C]([H])([H])[C]2([H])[H])([C]([H])([H])[H])[C]([H])([H])[C](=[O])[O-])[c]([H])[c]1[H]

$$$$
