
     RDKit          3D

 27 28  0  0  0  0  0  0  0  0999 V2000
    4.9170    1.7843   16.9921 H   0  0  0  0  0  0  0  0  0  0  0  0
    5.3963    1.2957   17.8353 C   0  0  0  0  0  0  0  0  0  0  0  0
    6.5616    0.6798   17.5732 N   0  0  0  0  0  0  0  0  0  0  0  0
    7.1726    0.0640   18.5895 C   0  0  0  0  0  0  0  0  0  0  0  0
    8.1196   -0.4219   18.3621 H   0  0  0  0  0  0  0  0  0  0  0  0
    6.6596    0.0089   19.9015 C   0  0  0  0  0  0  0  0  0  0  0  0
    7.3489   -0.6935   20.9401 C   0  0  0  0  0  0  0  0  0  0  0  0
    7.9445   -1.2887   21.8020 C   0  0  0  0  0  0  0  0  0  0  0  0
    8.6563   -1.9615   22.8928 C   0  0  2  0  0  0  0  0  0  0  0  0
    7.8847   -2.2968   23.6138 H   0  0  0  0  0  0  0  0  0  0  0  0
    9.5649   -1.0059   23.6265 C   0  0  0  0  0  0  0  0  0  0  0  0
   10.6924   -0.4699   22.9998 C   0  0  0  0  0  0  0  0  0  0  0  0
   10.9389   -0.7365   21.9759 H   0  0  0  0  0  0  0  0  0  0  0  0
   11.5153    0.4113   23.5828 N   0  0  0  0  0  0  0  0  0  0  0  0
   11.2292    0.7897   24.8337 C   0  0  0  0  0  0  0  0  0  0  0  0
   11.9148    1.5033   25.2827 H   0  0  0  0  0  0  0  0  0  0  0  0
   10.1244    0.3220   25.5462 C   0  0  0  0  0  0  0  0  0  0  0  0
    9.9373    0.6577   26.5582 H   0  0  0  0  0  0  0  0  0  0  0  0
    9.2710   -0.5892   24.9266 C   0  0  0  0  0  0  0  0  0  0  0  0
    8.3878   -0.9722   25.4387 H   0  0  0  0  0  0  0  0  0  0  0  0
    9.4418   -3.0538   22.3121 N   0  0  0  0  0  0  0  0  0  0  0  0
    8.7838   -3.7060   21.8930 H   0  0  0  0  0  0  0  0  0  0  0  0
    9.8974   -3.5505   23.0730 H   0  0  0  0  0  0  0  0  0  0  0  0
    5.4345    0.6564   20.1554 C   0  0  0  0  0  0  0  0  0  0  0  0
    5.0061    0.6356   21.1605 H   0  0  0  0  0  0  0  0  0  0  0  0
    4.8020    1.3140   19.1005 C   0  0  0  0  0  0  0  0  0  0  0  0
    3.8701    1.8464   19.2523 H   0  0  0  0  0  0  0  0  0  0  0  0
  1  2  1  0
  2  3  2  0
  3  4  1  0
  4  5  1  0
  4  6  2  0
  6  7  1  0
  7  8  3  0
  8  9  1  0
  9 10  1  1
  9 11  1  0
 11 12  2  0
 12 13  1  0
 12 14  1  0
 14 15  2  0
 15 16  1  0
 15 17  1  0
 17 18  1  0
 17 19  2  0
 19 20  1  0
  9 21  1  0
 21 22  1  0
 21 23  1  0
  6 24  1  0
 24 25  1  0
 24 26  2  0
 26 27  1  0
 26  2  1  0
 19 11  1  0
M  END
>  <plip>  (1) 
-0.06896551724137931

>  <filename>  (1) 
[H][c]1[n][c]([H])[c]([C]#[C][C@]([H])([c]2[c]([H])[n][c]([H])[c]([H])[c]2[H])[N]([H])[H])[c]([H])[c]1[H]

$$$$
