
     RDKit          3D

 44 46  0  0  0  0  0  0  0  0999 V2000
    4.9236    1.7830   16.9923 H   0  0  0  0  0  0  0  0  0  0  0  0
    5.4037    1.2920   17.8355 C   0  0  0  0  0  0  0  0  0  0  0  0
    6.5612    0.6773   17.5785 N   0  0  0  0  0  0  0  0  0  0  0  0
    7.1710    0.0581   18.6048 C   0  0  0  0  0  0  0  0  0  0  0  0
    8.1155   -0.4173   18.3535 H   0  0  0  0  0  0  0  0  0  0  0  0
    6.6652   -0.0030   19.9062 C   0  0  0  0  0  0  0  0  0  0  0  0
    7.3768   -0.7170   21.0540 C   0  0  0  0  0  0  0  0  0  0  0  0
    7.4818    0.1759   22.1740 O   0  0  0  0  0  0  0  0  0  0  0  0
    8.3533    1.2877   21.9782 C   0  0  0  0  0  0  0  0  0  0  0  0
    9.3943    0.9781   22.1609 H   0  0  0  0  0  0  0  0  0  0  0  0
    8.2928    1.6561   20.9388 H   0  0  0  0  0  0  0  0  0  0  0  0
    7.9773    2.4145   22.9303 C   0  0  0  0  0  0  0  0  0  0  0  0
    8.0177    2.0075   23.9509 H   0  0  0  0  0  0  0  0  0  0  0  0
    8.9968    3.5638   22.8236 C   0  0  0  0  0  0  0  0  0  0  0  0
   10.0079    3.2227   23.0795 H   0  0  0  0  0  0  0  0  0  0  0  0
    9.0272    3.8987   21.7803 H   0  0  0  0  0  0  0  0  0  0  0  0
    8.6016    4.7666   23.6879 C   0  0  0  0  0  0  0  0  0  0  0  0
    9.3033    5.5980   23.5583 H   0  0  0  0  0  0  0  0  0  0  0  0
    8.6460    4.4819   24.7459 H   0  0  0  0  0  0  0  0  0  0  0  0
    7.2442    5.2489   23.4190 N   0  0  0  0  0  0  0  0  0  0  0  0
    7.2221    5.5406   22.4430 H   0  0  0  0  0  0  0  0  0  0  0  0
    6.2547    4.1756   23.5529 C   0  0  0  0  0  0  0  0  0  0  0  0
    5.2626    4.5836   23.3333 H   0  0  0  0  0  0  0  0  0  0  0  0
    6.2390    3.8744   24.6076 H   0  0  0  0  0  0  0  0  0  0  0  0
    6.5514    2.9508   22.6777 C   0  0  0  0  0  0  0  0  0  0  0  0
    6.4446    3.2436   21.6200 H   0  0  0  0  0  0  0  0  0  0  0  0
    5.8124    2.1624   22.8573 H   0  0  0  0  0  0  0  0  0  0  0  0
    8.7720   -1.2803   20.7255 C   0  0  0  0  0  0  0  0  0  0  0  0
    8.6601   -1.9270   19.8723 H   0  0  0  0  0  0  0  0  0  0  0  0
    9.4720   -0.4957   20.4208 H   0  0  0  0  0  0  0  0  0  0  0  0
    9.3147   -2.1197   21.8820 C   0  0  0  0  0  0  0  0  0  0  0  0
   10.2659   -2.5871   21.6177 H   0  0  0  0  0  0  0  0  0  0  0  0
    9.4672   -1.4833   22.7700 H   0  0  0  0  0  0  0  0  0  0  0  0
    8.4216   -3.1845   22.1883 O   0  0  0  0  0  0  0  0  0  0  0  0
    7.1534   -2.7060   22.6151 C   0  0  0  0  0  0  0  0  0  0  0  0
    6.5484   -3.5837   22.8658 H   0  0  0  0  0  0  0  0  0  0  0  0
    7.2600   -2.0880   23.5217 H   0  0  0  0  0  0  0  0  0  0  0  0
    6.4948   -1.8896   21.5100 C   0  0  0  0  0  0  0  0  0  0  0  0
    5.5314   -1.5054   21.8225 H   0  0  0  0  0  0  0  0  0  0  0  0
    6.2982   -2.5409   20.6510 H   0  0  0  0  0  0  0  0  0  0  0  0
    5.4438    0.6522   20.1501 C   0  0  0  0  0  0  0  0  0  0  0  0
    5.0076    0.6442   21.1527 H   0  0  0  0  0  0  0  0  0  0  0  0
    4.8078    1.3147   19.1017 C   0  0  0  0  0  0  0  0  0  0  0  0
    3.8754    1.8423   19.2527 H   0  0  0  0  0  0  0  0  0  0  0  0
  1  2  1  0
  2  3  2  0
  3  4  1  0
  4  5  1  0
  4  6  2  0
  6  7  1  0
  7  8  1  0
  8  9  1  0
  9 10  1  0
  9 11  1  0
  9 12  1  0
 12 13  1  0
 12 14  1  0
 14 15  1  0
 14 16  1  0
 14 17  1  0
 17 18  1  0
 17 19  1  0
 17 20  1  0
 20 21  1  0
 20 22  1  0
 22 23  1  0
 22 24  1  0
 22 25  1  0
 25 26  1  0
 25 27  1  0
  7 28  1  0
 28 29  1  0
 28 30  1  0
 28 31  1  0
 31 32  1  0
 31 33  1  0
 31 34  1  0
 34 35  1  0
 35 36  1  0
 35 37  1  0
 35 38  1  0
 38 39  1  0
 38 40  1  0
  6 41  1  0
 41 42  1  0
 41 43  2  0
 43 44  1  0
 43  2  1  0
 38  7  1  0
 25 12  1  0
M  END
>  <plip>  (1) 
-0.034482758620689655

>  <filename>  (1) 
[H][c]1[n][c]([H])[c]([C]2([O][C]([H])([H])[C]3([H])[C]([H])([H])[C]([H])([H])[N]([H])[C]([H])([H])[C]3([H])[H])[C]([H])([H])[C]([H])([H])[O][C]([H])([H])[C]2([H])[H])[c]([H])[c]1[H]

$$$$
