
     RDKit          3D

 33 35  0  0  0  0  0  0  0  0999 V2000
    4.9877    1.8081   17.0065 H   0  0  0  0  0  0  0  0  0  0  0  0
    5.4584    1.3012   17.8501 C   0  0  0  0  0  0  0  0  0  0  0  0
    6.6206    0.6858   17.6010 N   0  0  0  0  0  0  0  0  0  0  0  0
    7.2252    0.0677   18.6228 C   0  0  0  0  0  0  0  0  0  0  0  0
    8.1658   -0.4102   18.3663 H   0  0  0  0  0  0  0  0  0  0  0  0
    6.7229    0.0128   19.9387 C   0  0  0  0  0  0  0  0  0  0  0  0
    7.4448   -0.6933   21.0686 C   0  0  0  0  0  0  0  0  0  0  0  0
    8.7331   -1.1618   20.5961 N   0  0  0  0  0  0  0  0  0  0  0  0
    8.7440   -2.1609   20.4728 H   0  0  0  0  0  0  0  0  0  0  0  0
    9.9575   -0.7015   21.0807 C   0  0  0  0  0  0  0  0  0  0  0  0
   10.8665   -1.6880   21.4885 C   0  0  0  0  0  0  0  0  0  0  0  0
   10.5170   -2.7118   21.4848 H   0  0  0  0  0  0  0  0  0  0  0  0
   12.1438   -1.3853   21.9457 C   0  0  0  0  0  0  0  0  0  0  0  0
   12.8310   -2.1726   22.2339 H   0  0  0  0  0  0  0  0  0  0  0  0
   12.5163   -0.0466   22.0498 C   0  0  0  0  0  0  0  0  0  0  0  0
   14.1028    0.3556   22.6264 Cl  0  0  0  0  0  0  0  0  0  0  0  0
   11.6338    0.9731   21.6976 C   0  0  0  0  0  0  0  0  0  0  0  0
   11.9261    2.0128   21.7963 H   0  0  0  0  0  0  0  0  0  0  0  0
   10.3518    0.6510   21.2341 C   0  0  0  0  0  0  0  0  0  0  0  0
    9.2692    1.9876   20.9760 Cl  0  0  0  0  0  0  0  0  0  0  0  0
    6.6250   -1.8346   21.7626 C   0  0  0  0  0  0  0  0  0  0  0  0
    5.5609   -1.7860   21.5169 H   0  0  0  0  0  0  0  0  0  0  0  0
    6.9855   -2.8541   21.5808 H   0  0  0  0  0  0  0  0  0  0  0  0
    6.9060   -1.2298   23.1556 C   0  0  0  0  0  0  0  0  0  0  0  0
    6.0570   -1.0726   23.8275 H   0  0  0  0  0  0  0  0  0  0  0  0
    7.6639   -1.7761   23.7284 H   0  0  0  0  0  0  0  0  0  0  0  0
    7.5130    0.0127   22.4792 C   0  0  0  0  0  0  0  0  0  0  0  0
    6.9647    0.9566   22.5493 H   0  0  0  0  0  0  0  0  0  0  0  0
    8.5355    0.1831   22.8241 H   0  0  0  0  0  0  0  0  0  0  0  0
    5.4958    0.6500   20.1638 C   0  0  0  0  0  0  0  0  0  0  0  0
    5.0616    0.6427   21.1632 H   0  0  0  0  0  0  0  0  0  0  0  0
    4.8561    1.3044   19.1093 C   0  0  0  0  0  0  0  0  0  0  0  0
    3.9166    1.8225   19.2533 H   0  0  0  0  0  0  0  0  0  0  0  0
  1  2  1  0
  2  3  2  0
  3  4  1  0
  4  5  1  0
  4  6  2  0
  6  7  1  0
  7  8  1  0
  8  9  1  0
  8 10  1  0
 10 11  2  0
 11 12  1  0
 11 13  1  0
 13 14  1  0
 13 15  2  0
 15 16  1  0
 15 17  1  0
 17 18  1  0
 17 19  2  0
 19 20  1  0
  7 21  1  0
 21 22  1  0
 21 23  1  0
 21 24  1  0
 24 25  1  0
 24 26  1  0
 24 27  1  0
 27 28  1  0
 27 29  1  0
  6 30  1  0
 30 31  1  0
 30 32  2  0
 32 33  1  0
 32  2  1  0
 27  7  1  0
 19 10  1  0
M  END
>  <plip>  (1) 
-0.07142857142857142

>  <filename>  (1) 
[H][c]1[n][c]([H])[c]([C]2([N]([H])[c]3[c]([H])[c]([H])[c]([Cl])[c]([H])[c]3[Cl])[C]([H])([H])[C]([H])([H])[C]2([H])[H])[c]([H])[c]1[H]

$$$$
