
     RDKit          3D

 29 31  0  0  0  0  0  0  0  0999 V2000
    4.9378    1.7924   16.9041 H   0  0  0  0  0  0  0  0  0  0  0  0
    5.4086    1.3094   17.7590 C   0  0  0  0  0  0  0  0  0  0  0  0
    6.5599    0.6596   17.5220 N   0  0  0  0  0  0  0  0  0  0  0  0
    7.1567    0.0527   18.5578 C   0  0  0  0  0  0  0  0  0  0  0  0
    8.0771   -0.4858   18.3424 H   0  0  0  0  0  0  0  0  0  0  0  0
    6.6599    0.0908   19.8765 C   0  0  0  0  0  0  0  0  0  0  0  0
    7.3269   -0.5607   20.9799 N   0  0  0  0  0  0  0  0  0  0  0  0
    7.4387   -1.9353   20.9546 C   0  0  0  0  0  0  0  0  0  0  0  0
    6.9744   -2.4064   20.0906 H   0  0  0  0  0  0  0  0  0  0  0  0
    8.0493   -2.6212   21.9515 C   0  0  0  0  0  0  0  0  0  0  0  0
    8.1683   -3.6914   21.8733 H   0  0  0  0  0  0  0  0  0  0  0  0
    8.5380   -1.9340   23.1151 C   0  0  0  0  0  0  0  0  0  0  0  0
    9.1335   -2.7111   24.1559 N   0  0  0  0  0  0  0  0  0  0  0  0
    9.9352   -3.8055   23.9216 C   0  0  0  0  0  0  0  0  0  0  0  0
   10.2717   -3.9624   22.9098 H   0  0  0  0  0  0  0  0  0  0  0  0
   10.2154   -4.4229   25.1034 C   0  0  0  0  0  0  0  0  0  0  0  0
   10.8204   -5.3131   25.2326 H   0  0  0  0  0  0  0  0  0  0  0  0
    9.5645   -3.6797   26.1293 C   0  0  0  0  0  0  0  0  0  0  0  0
    9.5751   -3.8928   27.1915 H   0  0  0  0  0  0  0  0  0  0  0  0
    8.9282   -2.6305   25.5219 C   0  0  0  0  0  0  0  0  0  0  0  0
    8.3556   -1.8217   25.9393 H   0  0  0  0  0  0  0  0  0  0  0  0
    8.4028   -0.5786   23.1728 C   0  0  0  0  0  0  0  0  0  0  0  0
    8.7984    0.0322   23.9670 H   0  0  0  0  0  0  0  0  0  0  0  0
    7.7223    0.1858   22.1500 C   0  0  0  0  0  0  0  0  0  0  0  0
    7.4964    1.3814   22.2424 O   0  0  0  0  0  0  0  0  0  0  0  0
    5.4515    0.7523   20.1019 C   0  0  0  0  0  0  0  0  0  0  0  0
    5.0477    0.7817   21.1119 H   0  0  0  0  0  0  0  0  0  0  0  0
    4.8069    1.3584   19.0209 C   0  0  0  0  0  0  0  0  0  0  0  0
    3.8553    1.8611   19.1509 H   0  0  0  0  0  0  0  0  0  0  0  0
  1  2  1  0
  2  3  2  0
  3  4  1  0
  4  5  1  0
  4  6  2  0
  6  7  1  0
  7  8  1  0
  8  9  1  0
  8 10  2  0
 10 11  1  0
 10 12  1  0
 12 13  1  0
 13 14  1  0
 14 15  1  0
 14 16  2  0
 16 17  1  0
 16 18  1  0
 18 19  1  0
 18 20  2  0
 20 21  1  0
 12 22  2  0
 22 23  1  0
 22 24  1  0
 24 25  2  0
  6 26  1  0
 26 27  1  0
 26 28  2  0
 28 29  1  0
 28  2  1  0
 24  7  1  0
 20 13  1  0
M  END
>  <plip>  (1) 
-0.03571428571428571

>  <filename>  (1) 
[H][c]1[n][c]([H])[c](-[n]2[c]([H])[c]([H])[c](-[n]3[c]([H])[c]([H])[c]([H])[c]3[H])[c]([H])[c]2=[O])[c]([H])[c]1[H]

$$$$
