
     RDKit          3D

 43 44  0  0  0  0  0  0  0  0999 V2000
    3.6560   -7.3689   25.9653 C   0  0  0  0  0  0  0  0  0  0  0  0
    3.4188   -6.1021   26.6592 C   0  0  0  0  0  0  0  0  0  0  0  0
    3.2074   -5.0669   27.2386 C   0  0  0  0  0  0  0  0  0  0  0  0
    3.0105   -3.8033   27.9580 C   0  0  0  0  0  0  0  0  0  0  0  0
    4.3248   -3.0587   28.2883 C   0  0  0  0  0  0  0  0  0  0  0  0
    4.9154   -2.2319   27.1278 C   0  0  0  0  0  0  0  0  0  0  0  0
    5.4057   -3.0895   25.9739 C   0  0  0  0  0  0  0  0  0  0  0  0
    6.1440   -2.2895   24.9872 N   0  0  0  0  0  4  0  0  0  0  0  0
    6.6340   -3.0780   23.8516 C   0  0  0  0  0  0  0  0  0  0  0  0
    7.3528   -2.1686   22.9048 C   0  0  0  0  0  0  0  0  0  0  0  0
    8.7374   -1.9726   22.9953 C   0  0  0  0  0  0  0  0  0  0  0  0
    9.4406   -1.2030   22.1570 N   0  0  0  0  0  0  0  0  0  0  0  0
    8.7640   -0.5916   21.1805 C   0  0  0  0  0  0  0  0  0  0  0  0
    7.3779   -0.7060   20.9778 C   0  0  0  0  0  0  0  0  0  0  0  0
    6.6606    0.0155   19.8942 C   0  0  0  0  0  0  0  0  0  0  0  0
    5.4365    0.6523   20.1437 C   0  0  0  0  0  0  0  0  0  0  0  0
    4.8027    1.3189   19.0956 C   0  0  0  0  0  0  0  0  0  0  0  0
    5.3907    1.3015   17.8278 C   0  0  0  0  0  0  0  0  0  0  0  0
    6.5507    0.6821   17.5642 N   0  0  0  0  0  0  0  0  0  0  0  0
    7.1649    0.0716   18.5828 C   0  0  0  0  0  0  0  0  0  0  0  0
    8.1063   -0.4223   18.3499 H   0  0  0  0  0  0  0  0  0  0  0  0
    4.9141    1.7948   16.9836 H   0  0  0  0  0  0  0  0  0  0  0  0
    3.8736    1.8470   19.2472 H   0  0  0  0  0  0  0  0  0  0  0  0
    5.0164    0.6394   21.1537 H   0  0  0  0  0  0  0  0  0  0  0  0
    6.6725   -1.5201   21.8675 C   0  0  0  0  0  0  0  0  0  0  0  0
    5.5981   -1.6599   21.7178 H   0  0  0  0  0  0  0  0  0  0  0  0
    9.3447    0.0476   20.5163 H   0  0  0  0  0  0  0  0  0  0  0  0
    9.3279   -2.4825   23.7568 H   0  0  0  0  0  0  0  0  0  0  0  0
    5.7893   -3.5536   23.3385 H   0  0  0  0  0  0  0  0  0  0  0  0
    7.2913   -3.8846   24.1988 H   0  0  0  0  0  0  0  0  0  0  0  0
    5.5413   -1.5174   24.5919 H   0  0  0  0  0  0  0  0  0  0  0  0
    6.9678   -1.8071   25.4265 H   0  0  0  0  0  0  0  0  0  0  0  0
    6.0399   -3.9008   26.3671 H   0  0  0  0  0  0  0  0  0  0  0  0
    4.5626   -3.6111   25.4994 H   0  0  0  0  0  0  0  0  0  0  0  0
    4.1514   -1.5340   26.7546 H   0  0  0  0  0  0  0  0  0  0  0  0
    5.7506   -1.6250   27.5040 H   0  0  0  0  0  0  0  0  0  0  0  0
    4.1375   -2.3956   29.1402 H   0  0  0  0  0  0  0  0  0  0  0  0
    5.0684   -3.7888   28.6412 H   0  0  0  0  0  0  0  0  0  0  0  0
    2.4591   -4.0138   28.8819 H   0  0  0  0  0  0  0  0  0  0  0  0
    2.3582   -3.1562   27.3601 H   0  0  0  0  0  0  0  0  0  0  0  0
    4.3949   -7.2385   25.1669 H   0  0  0  0  0  0  0  0  0  0  0  0
    4.0313   -8.1305   26.6561 H   0  0  0  0  0  0  0  0  0  0  0  0
    2.7317   -7.7441   25.5148 H   0  0  0  0  0  0  0  0  0  0  0  0
  1  2  1  0
  2  3  3  0
  3  4  1  0
  4  5  1  0
  5  6  1  0
  6  7  1  0
  7  8  1  0
  8  9  1  0
  9 10  1  0
 10 11  2  0
 11 12  1  0
 12 13  2  0
 13 14  1  0
 14 15  1  0
 15 16  2  0
 16 17  1  0
 17 18  2  0
 18 19  1  0
 19 20  2  0
 20 21  1  0
 18 22  1  0
 17 23  1  0
 16 24  1  0
 14 25  2  0
 25 26  1  0
 13 27  1  0
 11 28  1  0
  9 29  1  0
  9 30  1  0
  8 31  1  0
  8 32  1  0
  7 33  1  0
  7 34  1  0
  6 35  1  0
  6 36  1  0
  5 37  1  0
  5 38  1  0
  4 39  1  0
  4 40  1  0
  1 41  1  0
  1 42  1  0
  1 43  1  0
 25 10  1  0
 20 15  1  0
M  CHG  1   8   1
M  END
>  <plip>  (1) 
-0.07142857142857142

>  <filename>  (1) 
[H][c]1[n][c]([H])[c](-[c]2[c]([H])[n][c]([H])[c]([C]([H])([H])[N+]([H])([H])[C]([H])([H])[C]([H])([H])[C]([H])([H])[C]([H])([H])[C]#[C][C]([H])([H])[H])[c]2[H])[c]([H])[c]1[H]

$$$$
