
     RDKit          3D

 35 37  0  0  0  0  0  0  0  0999 V2000
    5.0555    1.9100   17.0427 H   0  0  0  0  0  0  0  0  0  0  0  0
    5.4915    1.3202   17.8503 C   0  0  0  0  0  0  0  0  0  0  0  0
    6.6548    0.7094   17.5720 N   0  0  0  0  0  0  0  0  0  0  0  0
    7.2202   -0.0174   18.5479 C   0  0  0  0  0  0  0  0  0  0  0  0
    8.1705   -0.4895   18.2899 H   0  0  0  0  0  0  0  0  0  0  0  0
    6.6608   -0.2100   19.8335 C   0  0  0  0  0  0  0  0  0  0  0  0
    7.3165   -1.0224   20.8960 C   0  0  0  0  0  0  0  0  0  0  0  0
    8.5667   -0.8481   21.4229 C   0  0  0  0  0  0  0  0  0  0  0  0
    9.3766    0.4054   21.2727 C   0  0  0  0  0  0  0  0  0  0  0  0
    9.3087    0.7383   20.2215 H   0  0  0  0  0  0  0  0  0  0  0  0
    8.7565    1.4872   22.1980 C   0  0  0  0  0  0  0  0  0  0  0  0
    7.6751    1.5620   22.0342 H   0  0  0  0  0  0  0  0  0  0  0  0
    8.9098    1.1743   23.2436 H   0  0  0  0  0  0  0  0  0  0  0  0
    9.4337    2.8315   21.9860 C   0  0  0  0  0  0  0  0  0  0  0  0
    8.9984    3.5887   22.6491 H   0  0  0  0  0  0  0  0  0  0  0  0
    9.2261    3.1380   20.9503 H   0  0  0  0  0  0  0  0  0  0  0  0
   10.8795    2.7741   22.2180 N   0  0  0  0  0  0  0  0  0  0  0  0
   11.0105    2.5901   23.2109 H   0  0  0  0  0  0  0  0  0  0  0  0
   11.5360    1.7047   21.4603 C   0  0  0  0  0  0  0  0  0  0  0  0
   12.5948    1.6798   21.7431 H   0  0  0  0  0  0  0  0  0  0  0  0
   11.5066    1.9957   20.4025 H   0  0  0  0  0  0  0  0  0  0  0  0
   10.8829    0.3113   21.5987 C   0  0  0  0  0  0  0  0  0  0  0  0
   11.3794   -0.4102   20.9411 H   0  0  0  0  0  0  0  0  0  0  0  0
   11.0294   -0.0651   22.6202 H   0  0  0  0  0  0  0  0  0  0  0  0
    8.7754   -1.7562   22.6059 C   0  0  0  0  0  0  0  0  0  0  0  0
    8.8958   -1.1562   23.5330 H   0  0  0  0  0  0  0  0  0  0  0  0
    9.6706   -2.3874   22.4953 H   0  0  0  0  0  0  0  0  0  0  0  0
    7.5560   -2.5327   22.6007 N   0  0  0  0  0  0  0  0  0  0  0  0
    7.1909   -3.0482   23.3815 H   0  0  0  0  0  0  0  0  0  0  0  0
    6.6212   -2.0896   21.6964 C   0  0  0  0  0  0  0  0  0  0  0  0
    5.4965   -2.5514   21.6236 O   0  0  0  0  0  0  0  0  0  0  0  0
    5.4279    0.4260   20.0789 C   0  0  0  0  0  0  0  0  0  0  0  0
    4.9610    0.3136   21.0570 H   0  0  0  0  0  0  0  0  0  0  0  0
    4.8464    1.2159   19.0839 C   0  0  0  0  0  0  0  0  0  0  0  0
    3.9177    1.7561   19.2496 H   0  0  0  0  0  0  0  0  0  0  0  0
  1  2  1  0
  2  3  2  0
  3  4  1  0
  4  5  1  0
  4  6  2  0
  6  7  1  0
  7  8  2  0
  8  9  1  0
  9 10  1  0
  9 11  1  0
 11 12  1  0
 11 13  1  0
 11 14  1  0
 14 15  1  0
 14 16  1  0
 14 17  1  0
 17 18  1  0
 17 19  1  0
 19 20  1  0
 19 21  1  0
 19 22  1  0
 22 23  1  0
 22 24  1  0
  8 25  1  0
 25 26  1  0
 25 27  1  0
 25 28  1  0
 28 29  1  0
 28 30  1  0
 30 31  2  0
  6 32  1  0
 32 33  1  0
 32 34  2  0
 34 35  1  0
 34  2  1  0
 30  7  1  0
 22  9  1  0
M  END
>  <plip>  (1) 
-0.10714285714285714

>  <filename>  (1) 
[H][c]1[n][c]([H])[c]([C]2=[C]([C]3([H])[C]([H])([H])[C]([H])([H])[N]([H])[C]([H])([H])[C]3([H])[H])[C]([H])([H])[N]([H])[C]2=[O])[c]([H])[c]1[H]

$$$$
