
     RDKit          3D

 44 46  0  0  0  0  0  0  0  0999 V2000
    8.1014   -1.7458   20.7054 C   0  0  0  0  0  0  0  0  0  0  0  0
    7.6472   -0.3382   21.1775 C   0  0  0  0  0  0  0  0  0  0  0  0
    8.9143    0.4953   21.4921 C   0  0  0  0  0  0  0  0  0  0  0  0
    8.6652    1.4808   21.9088 H   0  0  0  0  0  0  0  0  0  0  0  0
    9.5066    0.6512   20.5812 H   0  0  0  0  0  0  0  0  0  0  0  0
    9.5514   -0.0429   22.2081 H   0  0  0  0  0  0  0  0  0  0  0  0
    6.7742   -0.5304   22.4578 C   0  0  0  0  0  0  0  0  0  0  0  0
    7.3902   -1.2676   23.5514 N   0  0  0  0  0  0  0  0  0  0  0  0
    7.2283   -2.6111   23.7579 C   0  0  0  0  0  0  0  0  0  0  0  0
    6.4936   -3.3010   23.0713 O   0  0  0  0  0  0  0  0  0  0  0  0
    8.0929   -3.2002   24.8897 C   0  0  0  0  0  0  0  0  0  0  0  0
    8.9633   -4.4079   24.4108 C   0  0  0  0  0  0  0  0  0  0  0  0
    8.1815   -5.6863   24.8054 C   0  0  0  0  0  0  0  0  0  0  0  0
    7.2825   -5.2177   25.9251 C   0  0  0  0  0  0  0  0  0  0  0  0
    6.5430   -5.9851   26.8312 C   0  0  0  0  0  0  0  0  0  0  0  0
    5.7695   -5.3072   27.7718 C   0  0  0  0  0  0  0  0  0  0  0  0
    5.0494   -6.0191   28.6570 F   0  0  0  0  0  0  0  0  0  0  0  0
    5.7099   -3.9136   27.8412 C   0  0  0  0  0  0  0  0  0  0  0  0
    6.4548   -3.1573   26.9270 C   0  0  0  0  0  0  0  0  0  0  0  0
    7.2408   -3.8184   25.9826 C   0  0  0  0  0  0  0  0  0  0  0  0
    6.4337   -2.0690   26.9435 H   0  0  0  0  0  0  0  0  0  0  0  0
    5.0922   -3.4581   28.6084 H   0  0  0  0  0  0  0  0  0  0  0  0
    6.5537   -7.0710   26.8477 H   0  0  0  0  0  0  0  0  0  0  0  0
    7.5745   -6.0664   23.9732 H   0  0  0  0  0  0  0  0  0  0  0  0
    8.8304   -6.5096   25.1245 H   0  0  0  0  0  0  0  0  0  0  0  0
    9.1903   -4.3650   23.3395 H   0  0  0  0  0  0  0  0  0  0  0  0
    9.9244   -4.3924   24.9372 H   0  0  0  0  0  0  0  0  0  0  0  0
    8.7201   -2.3886   25.2797 H   0  0  0  0  0  0  0  0  0  0  0  0
    8.0734   -0.7962   24.1154 H   0  0  0  0  0  0  0  0  0  0  0  0
    5.8830   -1.0835   22.1519 H   0  0  0  0  0  0  0  0  0  0  0  0
    6.4686    0.4595   22.8278 H   0  0  0  0  0  0  0  0  0  0  0  0
    6.7838    0.3481   20.0863 C   0  0  0  0  0  0  0  0  0  0  0  0
    5.5124    0.9320   20.2778 C   0  0  0  0  0  0  0  0  0  0  0  0
    4.8161    1.4410   19.1737 C   0  0  0  0  0  0  0  0  0  0  0  0
    5.4116    1.3860   17.9102 C   0  0  0  0  0  0  0  0  0  0  0  0
    6.6239    0.8620   17.6974 N   0  0  0  0  0  0  0  0  0  0  0  0
    7.2705    0.3729   18.7669 C   0  0  0  0  0  0  0  0  0  0  0  0
    8.2483   -0.0526   18.5600 H   0  0  0  0  0  0  0  0  0  0  0  0
    4.9016    1.7729   17.0290 H   0  0  0  0  0  0  0  0  0  0  0  0
    3.8240    1.8685   19.2785 H   0  0  0  0  0  0  0  0  0  0  0  0
    5.0494    0.9933   21.2654 H   0  0  0  0  0  0  0  0  0  0  0  0
    8.5257   -2.2958   21.5482 H   0  0  0  0  0  0  0  0  0  0  0  0
    8.8847   -1.7091   19.9401 H   0  0  0  0  0  0  0  0  0  0  0  0
    7.2437   -2.3195   20.3324 H   0  0  0  0  0  0  0  0  0  0  0  0
  1  2  1  0
  2  3  1  0
  3  4  1  0
  3  5  1  0
  3  6  1  0
  2  7  1  0
  7  8  1  0
  8  9  1  0
  9 10  2  0
  9 11  1  0
 11 12  1  0
 12 13  1  0
 13 14  1  0
 14 15  2  0
 15 16  1  0
 16 17  1  0
 16 18  2  0
 18 19  1  0
 19 20  2  0
 19 21  1  0
 18 22  1  0
 15 23  1  0
 13 24  1  0
 13 25  1  0
 12 26  1  0
 12 27  1  0
 11 28  1  0
  8 29  1  0
  7 30  1  0
  7 31  1  0
  2 32  1  0
 32 33  2  0
 33 34  1  0
 34 35  2  0
 35 36  1  0
 36 37  2  0
 37 38  1  0
 35 39  1  0
 34 40  1  0
 33 41  1  0
  1 42  1  0
  1 43  1  0
  1 44  1  0
 20 11  1  0
 37 32  1  0
 20 14  1  0
M  END
>  <plip>  (1) 
-0.07142857142857142

>  <filename>  (1) 
[H][c]1[n][c]([H])[c]([C]([C]([H])([H])[H])([C]([H])([H])[H])[C]([H])([H])[N]([H])[C](=[O])[C]2([H])[c]3[c]([H])[c]([H])[c]([F])[c]([H])[c]3[C]([H])([H])[C]2([H])[H])[c]([H])[c]1[H]

$$$$
