
     RDKit          3D

 39 41  0  0  0  0  0  0  0  0999 V2000
    5.7314   -3.3894   22.4566 O   0  0  0  0  0  0  0  0  0  0  0  0
    6.9156   -3.2905   22.7431 C   0  0  0  0  0  0  0  0  0  0  0  0
    7.8608   -2.7404   21.9200 N   0  0  0  0  0  0  0  0  0  0  0  0
    7.4876   -1.9385   20.7797 C   0  0  0  0  0  0  0  0  0  0  0  0
    7.3342   -0.4363   21.1051 C   0  0  0  0  0  0  0  0  0  0  0  0
    8.6977    0.1929   21.4597 C   0  0  0  0  0  0  0  0  0  0  0  0
    9.3226   -0.5774   22.4854 O   0  0  0  0  0  0  0  0  0  0  0  0
   10.1828   -0.2034   22.6990 H   0  0  0  0  0  0  0  0  0  0  0  0
    8.5637    1.2333   21.7819 H   0  0  0  0  0  0  0  0  0  0  0  0
    9.3328    0.1937   20.5644 H   0  0  0  0  0  0  0  0  0  0  0  0
    6.6472    0.2641   19.9337 C   0  0  0  0  0  0  0  0  0  0  0  0
    5.4035    0.8924   20.0923 C   0  0  0  0  0  0  0  0  0  0  0  0
    4.7667    1.4544   18.9817 C   0  0  0  0  0  0  0  0  0  0  0  0
    5.3957    1.3741   17.7379 C   0  0  0  0  0  0  0  0  0  0  0  0
    6.5812    0.7752   17.5506 N   0  0  0  0  0  0  0  0  0  0  0  0
    7.1760    0.2410   18.6264 C   0  0  0  0  0  0  0  0  0  0  0  0
    8.1341   -0.2433   18.4319 H   0  0  0  0  0  0  0  0  0  0  0  0
    4.9329    1.8071   16.8538 H   0  0  0  0  0  0  0  0  0  0  0  0
    3.8064    1.9519   19.0687 H   0  0  0  0  0  0  0  0  0  0  0  0
    4.9435    0.9386   21.0793 H   0  0  0  0  0  0  0  0  0  0  0  0
    6.6981   -0.3548   21.9956 H   0  0  0  0  0  0  0  0  0  0  0  0
    6.5679   -2.3472   20.3526 H   0  0  0  0  0  0  0  0  0  0  0  0
    8.2826   -1.9886   20.0325 H   0  0  0  0  0  0  0  0  0  0  0  0
    8.6283   -2.3241   22.4272 H   0  0  0  0  0  0  0  0  0  0  0  0
    7.5134   -3.8043   24.0114 C   0  0  0  0  0  0  0  0  0  0  0  0
    8.8486   -3.9792   24.3093 C   0  0  0  0  0  0  0  0  0  0  0  0
    8.9306   -4.4588   25.6359 C   0  0  0  0  0  0  0  0  0  0  0  0
    7.6058   -4.6056   26.1139 C   0  0  0  0  0  0  0  0  0  0  0  0
    6.7624   -4.1933   25.1184 N   0  0  0  0  0  0  0  0  0  0  0  0
    5.7561   -4.2575   25.1780 H   0  0  0  0  0  0  0  0  0  0  0  0
    7.3514   -5.1522   27.3904 C   0  0  0  0  0  0  0  0  0  0  0  0
    5.7189   -5.4060   27.9211 Cl  0  0  0  0  0  0  0  0  0  0  0  0
    8.4326   -5.4919   28.1921 C   0  0  0  0  0  0  0  0  0  0  0  0
    9.7639   -5.2557   27.7646 C   0  0  0  0  0  0  0  0  0  0  0  0
    9.9952   -4.7959   26.4845 C   0  0  0  0  0  0  0  0  0  0  0  0
   11.2395   -4.6862   26.0086 F   0  0  0  0  0  0  0  0  0  0  0  0
   10.6131   -5.4278   28.4130 H   0  0  0  0  0  0  0  0  0  0  0  0
    8.2476   -5.9521   29.1582 H   0  0  0  0  0  0  0  0  0  0  0  0
    9.7099   -3.8725   23.6529 H   0  0  0  0  0  0  0  0  0  0  0  0
  1  2  2  0
  2  3  1  0
  3  4  1  0
  4  5  1  0
  5  6  1  0
  6  7  1  0
  7  8  1  0
  6  9  1  0
  6 10  1  0
  5 11  1  0
 11 12  2  0
 12 13  1  0
 13 14  2  0
 14 15  1  0
 15 16  2  0
 16 17  1  0
 14 18  1  0
 13 19  1  0
 12 20  1  0
  5 21  1  0
  4 22  1  0
  4 23  1  0
  3 24  1  0
  2 25  1  0
 25 26  2  0
 26 27  1  0
 27 28  2  0
 28 29  1  0
 29 30  1  0
 28 31  1  0
 31 32  1  0
 31 33  2  0
 33 34  1  0
 34 35  2  0
 35 36  1  0
 34 37  1  0
 33 38  1  0
 26 39  1  0
 16 11  1  0
 29 25  1  0
 35 27  1  0
M  END
>  <plip>  (1) 
-0.06896551724137931

>  <filename>  (1) 
[H][O][C]([H])([H])[C]([H])([c]1[c]([H])[n][c]([H])[c]([H])[c]1[H])[C]([H])([H])[N]([H])[C](=[O])[c]1[c]([H])[c]2[c]([F])[c]([H])[c]([H])[c]([Cl])[c]2[n]1[H]

$$$$
