
     RDKit          3D

 36 38  0  0  0  0  0  0  0  0999 V2000
    3.1909    6.8599   24.4386 C   0  0  0  0  0  0  0  0  0  0  0  0
    2.7606    5.5194   24.5900 O   0  0  0  0  0  0  0  0  0  0  0  0
    3.6002    4.4948   24.3403 C   0  0  0  0  0  0  0  0  0  0  0  0
    4.9363    4.6401   23.9310 C   0  0  0  0  0  0  0  0  0  0  0  0
    5.7310    3.5168   23.6889 C   0  0  0  0  0  0  0  0  0  0  0  0
    5.2202    2.2255   23.8582 C   0  0  0  0  0  0  0  0  0  0  0  0
    6.0558    0.9874   23.6901 C   0  0  0  0  0  0  0  0  0  0  0  0
    5.8053   -0.0122   24.3309 O   0  0  0  0  0  0  0  0  0  0  0  0
    7.3163    1.0270   22.7778 C   0  0  0  0  0  0  0  0  0  0  0  0
    7.7121   -0.2368   22.1462 N   0  0  0  0  0  0  0  0  0  0  0  0
    7.4316   -0.7210   20.8929 C   0  0  0  0  0  0  0  0  0  0  0  0
    6.6535    0.0159   19.8981 C   0  0  0  0  0  0  0  0  0  0  0  0
    5.4331    0.6560   20.1593 C   0  0  0  0  0  0  0  0  0  0  0  0
    4.7997    1.3123   19.1033 C   0  0  0  0  0  0  0  0  0  0  0  0
    5.3979    1.2987   17.8362 C   0  0  0  0  0  0  0  0  0  0  0  0
    6.5598    0.6793   17.5771 N   0  0  0  0  0  0  0  0  0  0  0  0
    7.1598    0.0531   18.5922 C   0  0  0  0  0  0  0  0  0  0  0  0
    8.1061   -0.4358   18.3660 H   0  0  0  0  0  0  0  0  0  0  0  0
    4.9306    1.7964   16.9870 H   0  0  0  0  0  0  0  0  0  0  0  0
    3.8675    1.8465   19.2440 H   0  0  0  0  0  0  0  0  0  0  0  0
    4.9930    0.6425   21.1602 H   0  0  0  0  0  0  0  0  0  0  0  0
    7.9012   -1.9070   20.7000 N   0  0  0  0  0  0  0  0  0  0  0  0
    8.5077   -2.2702   21.9100 O   0  0  0  0  0  0  0  0  0  0  0  0
    8.4123   -1.2499   22.8027 C   0  0  0  0  0  0  0  0  0  0  0  0
    8.8562   -1.2502   23.9157 O   0  0  0  0  0  0  0  0  0  0  0  0
    8.1368    1.3205   23.4372 H   0  0  0  0  0  0  0  0  0  0  0  0
    7.2001    1.7919   22.0039 H   0  0  0  0  0  0  0  0  0  0  0  0
    3.8927    2.0811   24.3150 C   0  0  0  0  0  0  0  0  0  0  0  0
    3.0822    3.1866   24.5218 C   0  0  0  0  0  0  0  0  0  0  0  0
    1.4354    2.9439   25.0290 Cl  0  0  0  0  0  0  0  0  0  0  0  0
    3.4902    1.0966   24.5423 H   0  0  0  0  0  0  0  0  0  0  0  0
    6.7671    3.6585   23.3920 H   0  0  0  0  0  0  0  0  0  0  0  0
    5.3520    5.6331   23.7937 H   0  0  0  0  0  0  0  0  0  0  0  0
    2.3125    7.4502   24.6999 H   0  0  0  0  0  0  0  0  0  0  0  0
    4.0202    7.1064   25.1179 H   0  0  0  0  0  0  0  0  0  0  0  0
    3.4947    7.0816   23.4050 H   0  0  0  0  0  0  0  0  0  0  0  0
  1  2  1  0
  2  3  1  0
  3  4  2  0
  4  5  1  0
  5  6  2  0
  6  7  1  0
  7  8  2  0
  7  9  1  0
  9 10  1  0
 10 11  1  0
 11 12  1  0
 12 13  2  0
 13 14  1  0
 14 15  2  0
 15 16  1  0
 16 17  2  0
 17 18  1  0
 15 19  1  0
 14 20  1  0
 13 21  1  0
 11 22  2  0
 22 23  1  0
 23 24  1  0
 24 25  2  0
  9 26  1  0
  9 27  1  0
  6 28  1  0
 28 29  2  0
 29 30  1  0
 28 31  1  0
  5 32  1  0
  4 33  1  0
  1 34  1  0
  1 35  1  0
  1 36  1  0
 29  3  1  0
 24 10  1  0
 17 12  1  0
M  END
>  <plip>  (1) 
-0.034482758620689655

>  <filename>  (1) 
[H][c]1[n][c]([H])[c](-[c]2[n][o][c](=[O])[n]2[C]([H])([H])[C](=[O])[c]2[c]([H])[c]([H])[c]([O][C]([H])([H])[H])[c]([Cl])[c]2[H])[c]([H])[c]1[H]

$$$$
