
     RDKit          3D

 40 41  0  0  0  0  0  0  0  0999 V2000
    6.3569   -2.9840   20.7384 C   0  0  0  0  0  0  0  0  0  0  0  0
    6.0780   -2.0488   21.8540 N   0  0  0  0  0  4  0  0  0  0  0  0
    6.4463   -2.7141   23.1220 C   0  0  0  0  0  0  0  0  0  0  0  0
    6.2272   -2.0692   23.9801 H   0  0  0  0  0  0  0  0  0  0  0  0
    5.8984   -3.6560   23.2443 H   0  0  0  0  0  0  0  0  0  0  0  0
    7.5178   -2.9436   23.1340 H   0  0  0  0  0  0  0  0  0  0  0  0
    6.7525   -0.7272   21.7365 C   0  0  0  0  0  0  0  0  0  0  0  0
    8.3094   -0.8195   21.8067 C   0  0  0  0  0  0  0  0  0  0  0  0
    9.0332    0.4842   21.9239 N   0  0  0  0  0  0  0  0  0  0  0  0
    8.9982    1.2715   23.0525 C   0  0  0  0  0  0  0  0  0  0  0  0
    8.0454    1.0395   23.9413 N   0  0  0  0  0  0  0  0  0  0  0  0
    7.9692    1.8512   25.0020 C   0  0  0  0  0  0  0  0  0  0  0  0
    8.8518    2.9161   25.2235 C   0  0  0  0  0  0  0  0  0  0  0  0
    8.5601    4.0901   26.7069 Br  0  0  0  0  0  0  0  0  0  0  0  0
    9.8944    3.1207   24.3191 C   0  0  0  0  0  0  0  0  0  0  0  0
    9.9230    2.2890   23.1822 C   0  0  0  0  0  0  0  0  0  0  0  0
   10.8540    2.4322   22.0339 C   0  0  0  0  0  0  0  0  0  0  0  0
   10.1533    2.3489   20.8791 F   0  0  0  0  0  0  0  0  0  0  0  0
   11.5176    3.6150   22.0801 F   0  0  0  0  0  0  0  0  0  0  0  0
   11.7503    1.4220   22.0428 F   0  0  0  0  0  0  0  0  0  0  0  0
   10.6242    3.9165   24.5027 H   0  0  0  0  0  0  0  0  0  0  0  0
    7.1714    1.6841   25.7236 H   0  0  0  0  0  0  0  0  0  0  0  0
    9.7374    0.7365   21.2362 H   0  0  0  0  0  0  0  0  0  0  0  0
    8.5593   -1.4481   22.6668 H   0  0  0  0  0  0  0  0  0  0  0  0
    8.6559   -1.3581   20.9190 H   0  0  0  0  0  0  0  0  0  0  0  0
    6.2431   -0.1408   20.4486 C   0  0  0  0  0  0  0  0  0  0  0  0
    5.1204    0.6873   20.4081 C   0  0  0  0  0  0  0  0  0  0  0  0
    4.7636    1.2209   19.1716 C   0  0  0  0  0  0  0  0  0  0  0  0
    5.5216    0.9191   18.0364 C   0  0  0  0  0  0  0  0  0  0  0  0
    6.5708    0.0845   18.0727 N   0  0  0  0  0  0  0  0  0  0  0  0
    6.9150   -0.4394   19.2582 C   0  0  0  0  0  0  0  0  0  0  0  0
    7.7767   -1.0970   19.3017 H   0  0  0  0  0  0  0  0  0  0  0  0
    5.2476    1.3659   17.0852 H   0  0  0  0  0  0  0  0  0  0  0  0
    3.9203    1.8923   19.0774 H   0  0  0  0  0  0  0  0  0  0  0  0
    4.5531    0.9259   21.3077 H   0  0  0  0  0  0  0  0  0  0  0  0
    6.4429   -0.0824   22.5677 H   0  0  0  0  0  0  0  0  0  0  0  0
    5.0707   -1.8489   21.8733 H   0  0  0  0  0  0  0  0  0  0  0  0
    6.1036   -2.5353   19.7720 H   0  0  0  0  0  0  0  0  0  0  0  0
    7.4164   -3.2562   20.7177 H   0  0  0  0  0  0  0  0  0  0  0  0
    5.7760   -3.9063   20.8507 H   0  0  0  0  0  0  0  0  0  0  0  0
  1  2  1  0
  2  3  1  0
  3  4  1  0
  3  5  1  0
  3  6  1  0
  2  7  1  0
  7  8  1  0
  8  9  1  0
  9 10  1  0
 10 11  2  0
 11 12  1  0
 12 13  2  0
 13 14  1  0
 13 15  1  0
 15 16  2  0
 16 17  1  0
 17 18  1  0
 17 19  1  0
 17 20  1  0
 15 21  1  0
 12 22  1  0
  9 23  1  0
  8 24  1  0
  8 25  1  0
  7 26  1  0
 26 27  2  0
 27 28  1  0
 28 29  2  0
 29 30  1  0
 30 31  2  0
 31 32  1  0
 29 33  1  0
 28 34  1  0
 27 35  1  0
  7 36  1  0
  2 37  1  0
  1 38  1  0
  1 39  1  0
  1 40  1  0
 16 10  1  0
 31 26  1  0
M  CHG  1   2   1
M  END
>  <plip>  (1) 
-0.14285714285714285

>  <filename>  (1) 
[H][c]1[n][c]([H])[c]([C]([H])([C]([H])([H])[N]([H])[c]2[n][c]([H])[c]([Br])[c]([H])[c]2[C]([F])([F])[F])[N+]([H])([C]([H])([H])[H])[C]([H])([H])[H])[c]([H])[c]1[H]

$$$$
