
     RDKit          3D

 45 48  0  0  0  0  0  0  0  0999 V2000
    9.1276    1.3920   21.0969 O   0  0  0  0  0  0  0  0  0  0  0  0
    8.4506    1.1812   22.0926 C   0  0  0  0  0  0  0  0  0  0  0  0
    7.6100    0.1106   22.1883 N   0  0  0  0  0  0  0  0  0  0  0  0
    7.3629   -0.7407   21.0178 C   0  0  0  0  0  0  0  0  0  0  0  0
    6.6244    0.0229   19.9136 C   0  0  0  0  0  0  0  0  0  0  0  0
    5.4081    0.6900   20.1303 C   0  0  0  0  0  0  0  0  0  0  0  0
    4.7868    1.3368   19.0603 C   0  0  0  0  0  0  0  0  0  0  0  0
    5.4062    1.3072   17.8065 C   0  0  0  0  0  0  0  0  0  0  0  0
    6.5668    0.6799   17.5716 N   0  0  0  0  0  0  0  0  0  0  0  0
    7.1504    0.0688   18.6154 C   0  0  0  0  0  0  0  0  0  0  0  0
    8.1049   -0.4127   18.3925 H   0  0  0  0  0  0  0  0  0  0  0  0
    4.9462    1.7999   16.9522 H   0  0  0  0  0  0  0  0  0  0  0  0
    3.8433    1.8585   19.1823 H   0  0  0  0  0  0  0  0  0  0  0  0
    4.9553    0.7169   21.1235 H   0  0  0  0  0  0  0  0  0  0  0  0
    6.6525   -2.0643   21.4164 C   0  0  0  0  0  0  0  0  0  0  0  0
    7.3487   -2.8958   22.5019 C   0  0  0  0  0  0  0  0  0  0  0  0
    6.9300   -4.3390   22.1947 C   0  0  0  0  0  0  0  0  0  0  0  0
    6.7209   -4.2942   20.6722 C   0  0  0  0  0  0  0  0  0  0  0  0
    6.6043   -2.9280   20.2905 O   0  0  0  0  0  0  0  0  0  0  0  0
    5.8303   -4.8354   20.3338 H   0  0  0  0  0  0  0  0  0  0  0  0
    7.5765   -4.7335   20.1535 H   0  0  0  0  0  0  0  0  0  0  0  0
    7.6898   -5.0756   22.4833 H   0  0  0  0  0  0  0  0  0  0  0  0
    6.0165   -4.6198   22.7278 H   0  0  0  0  0  0  0  0  0  0  0  0
    8.4304   -2.7985   22.3724 H   0  0  0  0  0  0  0  0  0  0  0  0
    7.0932   -2.5652   23.5121 H   0  0  0  0  0  0  0  0  0  0  0  0
    5.6162   -1.8262   21.6945 H   0  0  0  0  0  0  0  0  0  0  0  0
    8.3440   -1.0312   20.6177 H   0  0  0  0  0  0  0  0  0  0  0  0
    6.9682    0.0791   22.9667 H   0  0  0  0  0  0  0  0  0  0  0  0
    8.5564    2.0985   23.2878 C   0  0  0  0  0  0  0  0  0  0  0  0
    9.3311    3.1955   23.5133 C   0  0  0  0  0  0  0  0  0  0  0  0
    8.9517    3.6179   24.8244 C   0  0  0  0  0  0  0  0  0  0  0  0
    9.4684    4.7897   25.5936 C   0  0  0  0  0  0  0  0  0  0  0  0
    8.7559    5.3849   26.6607 C   0  0  0  0  0  0  0  0  0  0  0  0
    9.2746    6.4966   27.3210 C   0  0  0  0  0  0  0  0  0  0  0  0
    8.5757    7.0575   28.3225 F   0  0  0  0  0  0  0  0  0  0  0  0
   10.5037    7.0539   26.9752 C   0  0  0  0  0  0  0  0  0  0  0  0
   11.2281    6.4729   25.9319 C   0  0  0  0  0  0  0  0  0  0  0  0
   10.7078    5.3678   25.2634 C   0  0  0  0  0  0  0  0  0  0  0  0
   11.4647    4.8395   24.2811 F   0  0  0  0  0  0  0  0  0  0  0  0
   12.1941    6.8533   25.6150 H   0  0  0  0  0  0  0  0  0  0  0  0
   10.8576    7.9228   27.5200 H   0  0  0  0  0  0  0  0  0  0  0  0
    7.7961    4.9986   26.9874 H   0  0  0  0  0  0  0  0  0  0  0  0
    8.0327    2.8220   25.3208 N   0  0  0  0  0  0  0  0  0  0  0  0
    7.7824    1.8655   24.3703 O   0  0  0  0  0  0  0  0  0  0  0  0
   10.0450    3.6555   22.8481 H   0  0  0  0  0  0  0  0  0  0  0  0
  1  2  2  0
  2  3  1  0
  3  4  1  0
  4  5  1  0
  5  6  2  0
  6  7  1  0
  7  8  2  0
  8  9  1  0
  9 10  2  0
 10 11  1  0
  8 12  1  0
  7 13  1  0
  6 14  1  0
  4 15  1  0
 15 16  1  0
 16 17  1  0
 17 18  1  0
 18 19  1  0
 18 20  1  0
 18 21  1  0
 17 22  1  0
 17 23  1  0
 16 24  1  0
 16 25  1  0
 15 26  1  0
  4 27  1  0
  3 28  1  0
  2 29  1  0
 29 30  2  0
 30 31  1  0
 31 32  1  0
 32 33  2  0
 33 34  1  0
 34 35  1  0
 34 36  2  0
 36 37  1  0
 37 38  2  0
 38 39  1  0
 37 40  1  0
 36 41  1  0
 33 42  1  0
 31 43  2  0
 43 44  1  0
 30 45  1  0
 10  5  1  0
 19 15  1  0
 44 29  1  0
 38 32  1  0
M  END
>  <plip>  (1) 
-0.1724137931034483

>  <filename>  (1) 
[H][c]1[n][c]([H])[c]([C]([H])([N]([H])[C](=[O])[c]2[o][n][c](-[c]3[c]([H])[c]([F])[c]([H])[c]([H])[c]3[F])[c]2[H])[C]2([H])[O][C]([H])([H])[C]([H])([H])[C]2([H])[H])[c]([H])[c]1[H]

$$$$
