
     RDKit          3D

 34 35  0  0  0  0  0  0  0  0999 V2000
    6.8534    0.2216   23.9966 O   0  0  0  0  0  0  0  0  0  0  0  0
    6.9834    1.2825   23.4222 C   0  0  0  0  0  0  0  0  0  0  0  0
    7.8385    1.5005   22.3550 N   0  0  0  0  0  0  0  0  0  0  0  0
    8.4295    0.3423   21.6853 C   0  0  0  0  0  0  0  0  0  0  0  0
    7.4176   -0.6100   21.0149 C   0  0  0  0  0  0  0  0  0  0  0  0
    6.6453    0.0178   19.8757 C   0  0  0  0  0  0  0  0  0  0  0  0
    5.4234    0.6685   20.1035 C   0  0  0  0  0  0  0  0  0  0  0  0
    4.7961    1.3300   19.0449 C   0  0  0  0  0  0  0  0  0  0  0  0
    5.4087    1.3093   17.7887 C   0  0  0  0  0  0  0  0  0  0  0  0
    6.5590    0.6689   17.5347 N   0  0  0  0  0  0  0  0  0  0  0  0
    7.1485    0.0411   18.5607 C   0  0  0  0  0  0  0  0  0  0  0  0
    8.0747   -0.4828   18.3174 H   0  0  0  0  0  0  0  0  0  0  0  0
    4.9541    1.8211   16.9437 H   0  0  0  0  0  0  0  0  0  0  0  0
    3.8581    1.8587   19.1797 H   0  0  0  0  0  0  0  0  0  0  0  0
    4.9844    0.6503   21.1046 H   0  0  0  0  0  0  0  0  0  0  0  0
    7.9650   -1.4913   20.6601 H   0  0  0  0  0  0  0  0  0  0  0  0
    6.7391   -0.9612   21.7997 H   0  0  0  0  0  0  0  0  0  0  0  0
    9.1424    0.7207   20.9471 H   0  0  0  0  0  0  0  0  0  0  0  0
    9.0096   -0.2205   22.4235 H   0  0  0  0  0  0  0  0  0  0  0  0
    7.4877    2.2111   21.7289 H   0  0  0  0  0  0  0  0  0  0  0  0
    6.3452    2.4816   23.7777 N   0  0  0  0  0  0  0  0  0  0  0  0
    5.7991    2.7726   25.0470 N   0  0  0  0  0  0  0  0  0  0  0  0
    6.3281    2.2750   26.2268 C   0  0  0  0  0  0  0  0  0  0  0  0
    7.6570    1.8519   26.4081 C   0  0  0  0  0  0  0  0  0  0  0  0
    7.9757    1.1996   27.5973 C   0  0  0  0  0  0  0  0  0  0  0  0
    6.9989    1.1462   28.5907 C   0  0  0  0  0  0  0  0  0  0  0  0
    7.2560    0.5745   29.7766 F   0  0  0  0  0  0  0  0  0  0  0  0
    5.7291    1.6695   28.3427 C   0  0  0  0  0  0  0  0  0  0  0  0
    5.3872    2.2096   27.1692 N   0  0  0  0  0  0  0  0  0  0  0  0
    4.9624    1.6364   29.1100 H   0  0  0  0  0  0  0  0  0  0  0  0
    8.9210    0.6843   27.7360 H   0  0  0  0  0  0  0  0  0  0  0  0
    8.3701    1.9787   25.5991 H   0  0  0  0  0  0  0  0  0  0  0  0
    4.7931    2.6582   25.1887 H   0  0  0  0  0  0  0  0  0  0  0  0
    6.8336    3.2770   23.3837 H   0  0  0  0  0  0  0  0  0  0  0  0
  1  2  2  0
  2  3  1  0
  3  4  1  0
  4  5  1  0
  5  6  1  0
  6  7  2  0
  7  8  1  0
  8  9  2  0
  9 10  1  0
 10 11  2  0
 11 12  1  0
  9 13  1  0
  8 14  1  0
  7 15  1  0
  5 16  1  0
  5 17  1  0
  4 18  1  0
  4 19  1  0
  3 20  1  0
  2 21  1  0
 21 22  1  0
 22 23  1  0
 23 24  2  0
 24 25  1  0
 25 26  2  0
 26 27  1  0
 26 28  1  0
 28 29  2  0
 28 30  1  0
 25 31  1  0
 24 32  1  0
 22 33  1  0
 21 34  1  0
 11  6  1  0
 29 23  1  0
M  END
>  <plip>  (1) 
-0.03571428571428571

>  <filename>  (1) 
[H][c]1[n][c]([H])[c]([C]([H])([H])[C]([H])([H])[N]([H])[C](=[O])[N]([H])[N]([H])[c]2[n][c]([H])[c]([F])[c]([H])[c]2[H])[c]([H])[c]1[H]

$$$$
