
     RDKit          3D

 34 37  0  0  0  0  0  0  0  0999 V2000
    5.2263    1.8689   17.3946 H   0  0  0  0  0  0  0  0  0  0  0  0
    5.5484    1.3551   18.2945 C   0  0  0  0  0  0  0  0  0  0  0  0
    6.6408    0.5902   18.1613 N   0  0  0  0  0  0  0  0  0  0  0  0
    7.0325   -0.0775   19.2496 C   0  0  0  0  0  0  0  0  0  0  0  0
    7.9225   -0.6922   19.1227 H   0  0  0  0  0  0  0  0  0  0  0  0
    6.3903   -0.0400   20.5039 C   0  0  0  0  0  0  0  0  0  0  0  0
    6.9783   -0.8445   21.5919 C   0  0  0  0  0  0  0  0  0  0  0  0
    7.6621   -2.0279   21.4421 C   0  0  0  0  0  0  0  0  0  0  0  0
    7.7803   -2.5374   20.4985 H   0  0  0  0  0  0  0  0  0  0  0  0
    8.0966   -2.4682   22.7137 C   0  0  0  0  0  0  0  0  0  0  0  0
    8.7158   -3.3374   22.9077 H   0  0  0  0  0  0  0  0  0  0  0  0
    7.6481   -1.5397   23.6234 C   0  0  0  0  0  0  0  0  0  0  0  0
    7.7514   -1.5057   24.6960 H   0  0  0  0  0  0  0  0  0  0  0  0
    6.9699   -0.5372   22.9520 N   0  0  0  0  0  0  0  0  0  0  0  0
    6.5054    0.6874   23.5531 C   0  0  0  0  0  0  0  0  0  0  0  0
    5.5441    0.6496   24.5468 C   0  0  0  0  0  0  0  0  0  0  0  0
    5.1698   -0.3163   24.8820 H   0  0  0  0  0  0  0  0  0  0  0  0
    5.0205    1.8475   25.0902 C   0  0  0  0  0  0  0  0  0  0  0  0
    4.2605    1.7741   25.8621 H   0  0  0  0  0  0  0  0  0  0  0  0
    5.4633    3.0886   24.6803 C   0  0  0  0  0  0  0  0  0  0  0  0
    5.0627    4.0077   25.1094 H   0  0  0  0  0  0  0  0  0  0  0  0
    6.4776    3.1767   23.6820 C   0  0  0  0  0  0  0  0  0  0  0  0
    7.0141    4.4213   23.2091 C   0  0  0  0  0  0  0  0  0  0  0  0
    6.6393    5.3635   23.6108 H   0  0  0  0  0  0  0  0  0  0  0  0
    8.0097    4.4080   22.2600 C   0  0  0  0  0  0  0  0  0  0  0  0
    8.4590    5.3146   21.8630 H   0  0  0  0  0  0  0  0  0  0  0  0
    8.4760    3.1558   21.7764 C   0  0  0  0  0  0  0  0  0  0  0  0
    9.2708    3.0983   21.0361 H   0  0  0  0  0  0  0  0  0  0  0  0
    8.0141    1.9933   22.1663 N   0  0  0  0  0  0  0  0  0  0  0  0
    7.0138    1.9676   23.1102 C   0  0  0  0  0  0  0  0  0  0  0  0
    5.2493    0.7786   20.6160 C   0  0  0  0  0  0  0  0  0  0  0  0
    4.7261    0.8599   21.5701 H   0  0  0  0  0  0  0  0  0  0  0  0
    4.8277    1.4886   19.4870 C   0  0  0  0  0  0  0  0  0  0  0  0
    3.9686    2.1514   19.5170 H   0  0  0  0  0  0  0  0  0  0  0  0
  1  2  1  0
  2  3  2  0
  3  4  1  0
  4  5  1  0
  4  6  2  0
  6  7  1  0
  7  8  2  0
  8  9  1  0
  8 10  1  0
 10 11  1  0
 10 12  2  0
 12 13  1  0
 12 14  1  0
 14 15  1  0
 15 16  2  0
 16 17  1  0
 16 18  1  0
 18 19  1  0
 18 20  2  0
 20 21  1  0
 20 22  1  0
 22 23  2  0
 23 24  1  0
 23 25  1  0
 25 26  1  0
 25 27  2  0
 27 28  1  0
 27 29  1  0
 29 30  2  0
  6 31  1  0
 31 32  1  0
 31 33  2  0
 33 34  1  0
 33  2  1  0
 14  7  1  0
 30 15  1  0
 30 22  1  0
M  END
>  <plip>  (1) 
-0.03571428571428571

>  <filename>  (1) 
[H][c]1[n][c]([H])[c](-[c]2[c]([H])[c]([H])[c]([H])[n]2-[c]2[c]([H])[c]([H])[c]([H])[c]3[c]([H])[c]([H])[c]([H])[n][c]23)[c]([H])[c]1[H]

$$$$
