
     RDKit          3D

 41 44  0  0  0  0  0  0  0  0999 V2000
    3.8145   -5.9142   24.0049 C   0  0  0  0  0  0  0  0  0  0  0  0
    5.2506   -5.6083   24.3373 C   0  0  0  0  0  0  0  0  0  0  0  0
    5.9502   -6.2196   25.3877 C   0  0  0  0  0  0  0  0  0  0  0  0
    7.3098   -5.9324   25.5757 C   0  0  0  0  0  0  0  0  0  0  0  0
    8.0077   -5.0580   24.8291 N   0  0  0  0  0  0  0  0  0  0  0  0
    7.3119   -4.4352   23.8749 C   0  0  0  0  0  0  0  0  0  0  0  0
    5.9757   -4.6804   23.5872 C   0  0  0  0  0  0  0  0  0  0  0  0
    5.5224   -3.8424   22.4434 C   0  0  0  0  0  0  0  0  0  0  0  0
    6.7032   -3.0442   22.0984 N   0  0  0  0  0  0  0  0  0  0  0  0
    6.5701   -2.2177   20.9951 C   0  0  0  0  0  0  0  0  0  0  0  0
    5.7971   -2.5452   20.1037 O   0  0  0  0  0  0  0  0  0  0  0  0
    7.3158   -0.8356   20.9756 C   0  0  0  0  0  0  0  0  0  0  0  0
    6.6973    0.0323   19.8737 C   0  0  0  0  0  0  0  0  0  0  0  0
    5.4630    0.6587   20.1035 C   0  0  0  0  0  0  0  0  0  0  0  0
    4.8296    1.3186   19.0496 C   0  0  0  0  0  0  0  0  0  0  0  0
    5.4440    1.3329   17.7917 C   0  0  0  0  0  0  0  0  0  0  0  0
    6.6116    0.7217   17.5332 N   0  0  0  0  0  0  0  0  0  0  0  0
    7.2034    0.0934   18.5606 C   0  0  0  0  0  0  0  0  0  0  0  0
    8.1321   -0.4241   18.3275 H   0  0  0  0  0  0  0  0  0  0  0  0
    4.9825    1.8623   16.9595 H   0  0  0  0  0  0  0  0  0  0  0  0
    3.8833    1.8290   19.1932 H   0  0  0  0  0  0  0  0  0  0  0  0
    5.0076    0.6047   21.0953 H   0  0  0  0  0  0  0  0  0  0  0  0
    8.8867   -0.8455   20.9928 C   0  0  0  0  0  0  0  0  0  0  0  0
    8.8971   -0.1378   22.3626 C   0  0  0  0  0  0  0  0  0  0  0  0
    7.3594   -0.1247   22.3777 C   0  0  0  0  0  0  0  0  0  0  0  0
    6.9306    0.8823   22.3624 H   0  0  0  0  0  0  0  0  0  0  0  0
    6.8912   -0.6900   23.1871 H   0  0  0  0  0  0  0  0  0  0  0  0
    9.3738   -0.6906   23.1783 H   0  0  0  0  0  0  0  0  0  0  0  0
    9.3330    0.8627   22.3357 H   0  0  0  0  0  0  0  0  0  0  0  0
    9.3751   -1.8231   20.9420 H   0  0  0  0  0  0  0  0  0  0  0  0
    9.3206   -0.2124   20.2136 H   0  0  0  0  0  0  0  0  0  0  0  0
    7.8598   -3.3767   22.9451 C   0  0  0  0  0  0  0  0  0  0  0  0
    8.2257   -2.5138   23.5160 H   0  0  0  0  0  0  0  0  0  0  0  0
    8.7156   -3.7797   22.3866 H   0  0  0  0  0  0  0  0  0  0  0  0
    4.6815   -3.1823   22.7129 H   0  0  0  0  0  0  0  0  0  0  0  0
    5.1869   -4.4341   21.5776 H   0  0  0  0  0  0  0  0  0  0  0  0
    7.8723   -6.4617   26.3463 H   0  0  0  0  0  0  0  0  0  0  0  0
    5.4654   -6.9647   26.0138 H   0  0  0  0  0  0  0  0  0  0  0  0
    3.6937   -6.1953   22.9515 H   0  0  0  0  0  0  0  0  0  0  0  0
    3.4182   -6.7250   24.6212 H   0  0  0  0  0  0  0  0  0  0  0  0
    3.1939   -5.0284   24.1703 H   0  0  0  0  0  0  0  0  0  0  0  0
  1  2  1  0
  2  3  2  0
  3  4  1  0
  4  5  2  0
  5  6  1  0
  6  7  2  0
  7  8  1  0
  8  9  1  0
  9 10  1  0
 10 11  2  0
 10 12  1  0
 12 13  1  0
 13 14  2  0
 14 15  1  0
 15 16  2  0
 16 17  1  0
 17 18  2  0
 18 19  1  0
 16 20  1  0
 15 21  1  0
 14 22  1  0
 12 23  1  0
 23 24  1  0
 24 25  1  0
 25 26  1  0
 25 27  1  0
 24 28  1  0
 24 29  1  0
 23 30  1  0
 23 31  1  0
  9 32  1  0
 32 33  1  0
 32 34  1  0
  8 35  1  0
  8 36  1  0
  4 37  1  0
  3 38  1  0
  1 39  1  0
  1 40  1  0
  1 41  1  0
  7  2  1  0
 25 12  1  0
 32  6  1  0
 18 13  1  0
M  END
>  <plip>  (1) 
-0.10714285714285714

>  <filename>  (1) 
[H][c]1[n][c]([H])[c]([C]2([C](=[O])[N]3[C]([H])([H])[c]4[n][c]([H])[c]([H])[c]([C]([H])([H])[H])[c]4[C]3([H])[H])[C]([H])([H])[C]([H])([H])[C]2([H])[H])[c]([H])[c]1[H]

$$$$
