
     RDKit          3D

 30 32  0  0  0  0  0  0  0  0999 V2000
    8.3615   -4.6168   28.0425 N   0  0  0  0  0  0  0  0  0  0  0  0
    8.3618   -3.9031   26.8723 C   0  0  0  0  0  0  0  0  0  0  0  0
    7.3063   -3.3653   26.3608 N   0  0  0  0  0  0  0  0  0  0  0  0
    7.7463   -2.9177   25.1192 C   0  0  0  0  0  0  0  0  0  0  0  0
    7.0131   -2.3442   24.0871 C   0  0  0  0  0  0  0  0  0  0  0  0
    7.6415   -2.1327   22.8517 C   0  0  0  0  0  0  0  0  0  0  0  0
    6.7823   -1.7579   21.6729 C   0  0  0  0  0  0  0  0  0  0  0  0
    5.7018   -2.2658   21.4474 O   0  0  0  0  0  0  0  0  0  0  0  0
    7.3691   -0.8061   20.8636 N   0  0  0  0  0  0  0  0  0  0  0  0
    6.6907   -0.0575   19.8479 C   0  0  0  0  0  0  0  0  0  0  0  0
    5.4811    0.5965   20.1034 C   0  0  0  0  0  0  0  0  0  0  0  0
    4.8628    1.2927   19.0575 C   0  0  0  0  0  0  0  0  0  0  0  0
    5.4795    1.3178   17.8037 C   0  0  0  0  0  0  0  0  0  0  0  0
    6.6538    0.7157   17.5489 N   0  0  0  0  0  0  0  0  0  0  0  0
    7.2439    0.0585   18.5564 C   0  0  0  0  0  0  0  0  0  0  0  0
    8.2016   -0.4222   18.3537 H   0  0  0  0  0  0  0  0  0  0  0  0
    5.0180    1.8311   16.9655 H   0  0  0  0  0  0  0  0  0  0  0  0
    3.9283    1.8208   19.2080 H   0  0  0  0  0  0  0  0  0  0  0  0
    5.0526    0.5581   21.1041 H   0  0  0  0  0  0  0  0  0  0  0  0
    8.1590   -0.3599   21.3009 H   0  0  0  0  0  0  0  0  0  0  0  0
    9.0317   -2.3864   22.7055 C   0  0  0  0  0  0  0  0  0  0  0  0
    9.7831   -2.9285   23.7438 C   0  0  0  0  0  0  0  0  0  0  0  0
    9.1172   -3.2135   24.9337 C   0  0  0  0  0  0  0  0  0  0  0  0
    9.5044   -3.7957   26.1402 N   0  0  0  0  0  0  0  0  0  0  0  0
   10.2674   -4.4237   26.3117 H   0  0  0  0  0  0  0  0  0  0  0  0
   10.8427   -3.1178   23.6254 H   0  0  0  0  0  0  0  0  0  0  0  0
    9.5245   -2.2092   21.7499 H   0  0  0  0  0  0  0  0  0  0  0  0
    5.9720   -2.0939   24.2681 H   0  0  0  0  0  0  0  0  0  0  0  0
    7.4675   -4.4340   28.4812 H   0  0  0  0  0  0  0  0  0  0  0  0
    9.1120   -4.3311   28.6452 H   0  0  0  0  0  0  0  0  0  0  0  0
  1  2  1  0
  2  3  2  0
  3  4  1  0
  4  5  2  0
  5  6  1  0
  6  7  1  0
  7  8  2  0
  7  9  1  0
  9 10  1  0
 10 11  2  0
 11 12  1  0
 12 13  2  0
 13 14  1  0
 14 15  2  0
 15 16  1  0
 13 17  1  0
 12 18  1  0
 11 19  1  0
  9 20  1  0
  6 21  2  0
 21 22  1  0
 22 23  2  0
 23 24  1  0
 24 25  1  0
 22 26  1  0
 21 27  1  0
  5 28  1  0
  1 29  1  0
  1 30  1  0
 24  2  1  0
 23  4  1  0
 15 10  1  0
M  END
>  <plip>  (1) 
-0.06896551724137931

>  <filename>  (1) 
[H][c]1[n][c]([H])[c]([N]([H])[C](=[O])[c]2[c]([H])[c]([H])[c]3[c]([n][c]([N]([H])[H])[n]3[H])[c]2[H])[c]([H])[c]1[H]

$$$$
