
     RDKit          3D

 33 35  0  0  0  0  0  0  0  0999 V2000
    4.9275    1.8219   16.9778 H   0  0  0  0  0  0  0  0  0  0  0  0
    5.3897    1.3008   17.8124 C   0  0  0  0  0  0  0  0  0  0  0  0
    6.5436    0.6677   17.5504 N   0  0  0  0  0  0  0  0  0  0  0  0
    7.1423    0.0346   18.5667 C   0  0  0  0  0  0  0  0  0  0  0  0
    8.0985   -0.4386   18.3269 H   0  0  0  0  0  0  0  0  0  0  0  0
    6.6431   -0.0253   19.8862 C   0  0  0  0  0  0  0  0  0  0  0  0
    7.3766   -0.7618   20.9912 C   0  0  0  0  0  0  0  0  0  0  0  0
    6.6384   -1.1935   21.6807 H   0  0  0  0  0  0  0  0  0  0  0  0
    7.9178   -1.6135   20.5578 H   0  0  0  0  0  0  0  0  0  0  0  0
    8.3952    0.0635   21.8517 C   0  0  1  0  0  0  0  0  0  0  0  0
    8.9842   -0.8719   22.9074 C   0  0  0  0  0  0  0  0  0  0  0  0
   10.5615   -1.5823   22.8125 S   0  0  0  0  0  0  0  0  0  0  0  0
   10.1961   -2.6559   24.1161 C   0  0  0  0  0  0  0  0  0  0  0  0
   11.2506   -3.9662   24.4747 Cl  0  0  0  0  0  0  0  0  0  0  0  0
    8.9789   -2.4142   24.6818 C   0  0  0  0  0  0  0  0  0  0  0  0
    8.6123   -2.9141   25.5754 H   0  0  0  0  0  0  0  0  0  0  0  0
    8.2807   -1.4048   23.9494 C   0  0  0  0  0  0  0  0  0  0  0  0
    7.2453   -1.1290   24.1274 H   0  0  0  0  0  0  0  0  0  0  0  0
    9.4733    0.7621   20.9933 C   0  0  0  0  0  0  0  0  0  0  0  0
   10.2533    0.0761   20.6478 H   0  0  0  0  0  0  0  0  0  0  0  0
    8.9911    1.1906   20.1078 H   0  0  0  0  0  0  0  0  0  0  0  0
   10.0171    1.8576   21.7950 N   0  0  0  0  0  0  0  0  0  0  0  0
   10.8480    1.5487   22.2832 H   0  0  0  0  0  0  0  0  0  0  0  0
    8.9881    2.2477   22.7770 C   0  0  0  0  0  0  0  0  0  0  0  0
    9.3791    2.1458   23.7997 H   0  0  0  0  0  0  0  0  0  0  0  0
    8.7031    3.3000   22.6414 H   0  0  0  0  0  0  0  0  0  0  0  0
    7.7853    1.3123   22.5431 C   0  0  0  0  0  0  0  0  0  0  0  0
    7.2436    1.0670   23.4630 H   0  0  0  0  0  0  0  0  0  0  0  0
    7.0799    1.8073   21.8641 H   0  0  0  0  0  0  0  0  0  0  0  0
    5.4226    0.6353   20.1204 C   0  0  0  0  0  0  0  0  0  0  0  0
    4.9899    0.6417   21.1215 H   0  0  0  0  0  0  0  0  0  0  0  0
    4.7893    1.3096   19.0729 C   0  0  0  0  0  0  0  0  0  0  0  0
    3.8620    1.8569   19.2270 H   0  0  0  0  0  0  0  0  0  0  0  0
  1  2  1  0
  2  3  2  0
  3  4  1  0
  4  5  1  0
  4  6  2  0
  6  7  1  0
  7  8  1  0
  7  9  1  0
 10  7  1  6
 10 11  1  0
 11 12  1  0
 12 13  1  0
 13 14  1  0
 13 15  2  0
 15 16  1  0
 15 17  1  0
 17 18  1  0
 10 19  1  0
 19 20  1  0
 19 21  1  0
 19 22  1  0
 22 23  1  0
 22 24  1  0
 24 25  1  0
 24 26  1  0
 24 27  1  0
 27 28  1  0
 27 29  1  0
  6 30  1  0
 30 31  1  0
 30 32  2  0
 32 33  1  0
 32  2  1  0
 27 10  1  0
 17 11  2  0
M  END
>  <plip>  (1) 
-0.034482758620689655

>  <filename>  (1) 
[H][c]1[n][c]([H])[c]([C]([H])([H])[C@@]2([c]3[s][c]([Cl])[c]([H])[c]3[H])[C]([H])([H])[N]([H])[C]([H])([H])[C]2([H])[H])[c]([H])[c]1[H]

$$$$
