
     RDKit          3D

 41 44  0  0  0  0  0  0  0  0999 V2000
    6.9949   -4.5765   21.0109 C   0  0  0  0  0  0  0  0  0  0  0  0
    7.4854   -3.2284   21.0391 O   0  0  0  0  0  0  0  0  0  0  0  0
    6.5926   -2.2378   21.2482 C   0  0  0  0  0  0  0  0  0  0  0  0
    5.4389   -2.4383   21.5511 O   0  0  0  0  0  0  0  0  0  0  0  0
    7.2704   -0.8284   21.0249 C   0  0  0  0  0  0  0  0  0  0  0  0
    7.3608   -0.0949   22.2799 N   0  0  0  0  0  0  0  0  0  0  0  0
    8.0994    1.0682   22.4821 C   0  0  0  0  0  0  0  0  0  0  0  0
    9.1040    1.5198   21.5939 C   0  0  0  0  0  0  0  0  0  0  0  0
    9.8347    2.6768   21.8739 C   0  0  0  0  0  0  0  0  0  0  0  0
    9.5281    3.3785   23.0347 C   0  0  0  0  0  0  0  0  0  0  0  0
   10.0942    4.5637   23.4177 O   0  0  0  0  0  0  0  0  0  0  0  0
    9.5086    4.8823   24.6116 C   0  0  0  0  0  0  0  0  0  0  0  0
    9.8111    6.0117   25.3662 C   0  0  0  0  0  0  0  0  0  0  0  0
    9.1951    6.1208   26.6121 C   0  0  0  0  0  0  0  0  0  0  0  0
    8.2899    5.1407   27.0699 C   0  0  0  0  0  0  0  0  0  0  0  0
    7.9630    4.0431   26.2747 C   0  0  0  0  0  0  0  0  0  0  0  0
    8.5749    3.9161   25.0188 C   0  0  0  0  0  0  0  0  0  0  0  0
    8.5581    2.9362   23.9473 C   0  0  0  0  0  0  0  0  0  0  0  0
    7.8284    1.7806   23.6626 C   0  0  0  0  0  0  0  0  0  0  0  0
    7.0724    1.4003   24.3452 H   0  0  0  0  0  0  0  0  0  0  0  0
    7.2672    3.2893   26.6348 H   0  0  0  0  0  0  0  0  0  0  0  0
    7.8637    5.2271   28.0641 H   0  0  0  0  0  0  0  0  0  0  0  0
    9.4349    6.9691   27.2459 H   0  0  0  0  0  0  0  0  0  0  0  0
   10.5006    6.7543   24.9814 H   0  0  0  0  0  0  0  0  0  0  0  0
   10.6594    3.0088   21.2526 H   0  0  0  0  0  0  0  0  0  0  0  0
    9.2880    0.9864   20.6650 H   0  0  0  0  0  0  0  0  0  0  0  0
    6.5265   -0.1288   22.8471 H   0  0  0  0  0  0  0  0  0  0  0  0
    6.5921   -0.0123   19.9259 C   0  0  0  0  0  0  0  0  0  0  0  0
    5.3859    0.6685   20.1252 C   0  0  0  0  0  0  0  0  0  0  0  0
    4.8072    1.3319   19.0415 C   0  0  0  0  0  0  0  0  0  0  0  0
    5.4589    1.3103   17.8050 C   0  0  0  0  0  0  0  0  0  0  0  0
    6.6280    0.6860   17.6032 N   0  0  0  0  0  0  0  0  0  0  0  0
    7.1743    0.0569   18.6524 C   0  0  0  0  0  0  0  0  0  0  0  0
    8.1248   -0.4461   18.4610 H   0  0  0  0  0  0  0  0  0  0  0  0
    5.0268    1.8200   16.9436 H   0  0  0  0  0  0  0  0  0  0  0  0
    3.8783    1.8765   19.1487 H   0  0  0  0  0  0  0  0  0  0  0  0
    4.9133    0.6998   21.1098 H   0  0  0  0  0  0  0  0  0  0  0  0
    8.2922   -1.0587   20.7085 H   0  0  0  0  0  0  0  0  0  0  0  0
    6.1579   -4.6618   20.3084 H   0  0  0  0  0  0  0  0  0  0  0  0
    7.8372   -5.1775   20.6658 H   0  0  0  0  0  0  0  0  0  0  0  0
    6.6855   -4.8981   22.0118 H   0  0  0  0  0  0  0  0  0  0  0  0
  1  2  1  0
  2  3  1  0
  3  4  2  0
  3  5  1  0
  5  6  1  0
  6  7  1  0
  7  8  2  0
  8  9  1  0
  9 10  2  0
 10 11  1  0
 11 12  1  0
 12 13  2  0
 13 14  1  0
 14 15  2  0
 15 16  1  0
 16 17  2  0
 17 18  1  0
 18 19  2  0
 19 20  1  0
 16 21  1  0
 15 22  1  0
 14 23  1  0
 13 24  1  0
  9 25  1  0
  8 26  1  0
  6 27  1  0
  5 28  1  0
 28 29  2  0
 29 30  1  0
 30 31  2  0
 31 32  1  0
 32 33  2  0
 33 34  1  0
 31 35  1  0
 30 36  1  0
 29 37  1  0
  5 38  1  0
  1 39  1  0
  1 40  1  0
  1 41  1  0
 19  7  1  0
 33 28  1  0
 18 10  1  0
 17 12  1  0
M  END
>  <plip>  (1) 
-0.14285714285714285

>  <filename>  (1) 
[H][c]1[n][c]([H])[c]([C]([H])([C](=[O])[O][C]([H])([H])[H])[N]([H])[c]2[c]([H])[c]([H])[c]3[o][c]4[c]([H])[c]([H])[c]([H])[c]([H])[c]4[c]3[c]2[H])[c]([H])[c]1[H]

$$$$
