
     RDKit          3D

 38 38  0  0  0  0  0  0  0  0999 V2000
    4.9149    1.7810   16.9955 H   0  0  0  0  0  0  0  0  0  0  0  0
    5.4004    1.2904   17.8355 C   0  0  0  0  0  0  0  0  0  0  0  0
    6.5593    0.6739   17.5740 N   0  0  0  0  0  0  0  0  0  0  0  0
    7.1729    0.0683   18.6006 C   0  0  0  0  0  0  0  0  0  0  0  0
    8.1170   -0.4185   18.3639 H   0  0  0  0  0  0  0  0  0  0  0  0
    6.6769    0.0227   19.9147 C   0  0  0  0  0  0  0  0  0  0  0  0
    7.3471   -0.7548   21.0576 C   0  0  0  0  0  0  0  0  0  0  0  0
    7.3708    0.1054   22.3844 C   0  0  0  0  0  0  0  0  0  0  0  0
    6.9975   -0.3480   23.4471 O   0  0  0  0  0  0  0  0  0  0  0  0
    7.9544    1.5861   22.2675 C   0  0  0  0  0  0  0  0  0  0  0  0
    8.4155    2.0025   21.2154 O   0  0  0  0  0  0  0  0  0  0  0  0
    7.9124    2.3388   23.4099 N   0  0  0  0  0  0  0  0  0  0  0  0
    7.5409    1.9070   24.2414 H   0  0  0  0  0  0  0  0  0  0  0  0
    8.3658    3.7364   23.5107 C   0  0  0  0  0  0  0  0  0  0  0  0
    9.8613    3.8199   23.1808 C   0  0  0  0  0  0  0  0  0  0  0  0
   10.4327    3.1419   23.8244 H   0  0  0  0  0  0  0  0  0  0  0  0
   10.0453    3.5364   22.1434 H   0  0  0  0  0  0  0  0  0  0  0  0
   10.2293    4.8395   23.3421 H   0  0  0  0  0  0  0  0  0  0  0  0
    8.1432    4.2197   24.9479 C   0  0  0  0  0  0  0  0  0  0  0  0
    7.0853    4.1937   25.2310 H   0  0  0  0  0  0  0  0  0  0  0  0
    8.4718    5.2614   25.0451 H   0  0  0  0  0  0  0  0  0  0  0  0
    8.7198    3.6354   25.6732 H   0  0  0  0  0  0  0  0  0  0  0  0
    7.5463    4.6124   22.5554 C   0  0  0  0  0  0  0  0  0  0  0  0
    7.7352    4.3337   21.5180 H   0  0  0  0  0  0  0  0  0  0  0  0
    6.4745    4.4943   22.7523 H   0  0  0  0  0  0  0  0  0  0  0  0
    7.8057    5.6685   22.6877 H   0  0  0  0  0  0  0  0  0  0  0  0
    8.8055   -1.1508   20.7433 C   0  0  0  0  0  0  0  0  0  0  0  0
    9.2705   -1.6175   21.6187 H   0  0  0  0  0  0  0  0  0  0  0  0
    9.4116   -0.2953   20.4282 H   0  0  0  0  0  0  0  0  0  0  0  0
    8.8483   -1.8966   19.9471 H   0  0  0  0  0  0  0  0  0  0  0  0
    6.5268   -2.0434   21.2912 C   0  0  0  0  0  0  0  0  0  0  0  0
    6.4672   -2.6385   20.3706 H   0  0  0  0  0  0  0  0  0  0  0  0
    6.9846   -2.6504   22.0788 H   0  0  0  0  0  0  0  0  0  0  0  0
    5.5043   -1.8040   21.6001 H   0  0  0  0  0  0  0  0  0  0  0  0
    5.4496    0.6553   20.1546 C   0  0  0  0  0  0  0  0  0  0  0  0
    5.0102    0.6362   21.1567 H   0  0  0  0  0  0  0  0  0  0  0  0
    4.8093    1.3104   19.1031 C   0  0  0  0  0  0  0  0  0  0  0  0
    3.8768    1.8404   19.2579 H   0  0  0  0  0  0  0  0  0  0  0  0
  1  2  1  0
  2  3  2  0
  3  4  1  0
  4  5  1  0
  4  6  2  0
  6  7  1  0
  7  8  1  0
  8  9  2  0
  8 10  1  0
 10 11  2  0
 10 12  1  0
 12 13  1  0
 12 14  1  0
 14 15  1  0
 15 16  1  0
 15 17  1  0
 15 18  1  0
 14 19  1  0
 19 20  1  0
 19 21  1  0
 19 22  1  0
 14 23  1  0
 23 24  1  0
 23 25  1  0
 23 26  1  0
  7 27  1  0
 27 28  1  0
 27 29  1  0
 27 30  1  0
  7 31  1  0
 31 32  1  0
 31 33  1  0
 31 34  1  0
  6 35  1  0
 35 36  1  0
 35 37  2  0
 37 38  1  0
 37  2  1  0
M  END
>  <plip>  (1) 
-0.03571428571428571

>  <filename>  (1) 
[H][c]1[n][c]([H])[c]([C]([C](=[O])[C](=[O])[N]([H])[C]([C]([H])([H])[H])([C]([H])([H])[H])[C]([H])([H])[H])([C]([H])([H])[H])[C]([H])([H])[H])[c]([H])[c]1[H]

$$$$
