
     RDKit          3D

 27 29  0  0  0  0  0  0  0  0999 V2000
    4.9373    1.7845   16.7607 H   0  0  0  0  0  0  0  0  0  0  0  0
    5.3308    1.3797   17.6900 C   0  0  0  0  0  0  0  0  0  0  0  0
    6.5200    0.7689   17.5950 N   0  0  0  0  0  0  0  0  0  0  0  0
    7.0450    0.2731   18.7213 C   0  0  0  0  0  0  0  0  0  0  0  0
    8.0126   -0.2133   18.6121 H   0  0  0  0  0  0  0  0  0  0  0  0
    6.4422    0.3563   19.9953 C   0  0  0  0  0  0  0  0  0  0  0  0
    7.1515   -0.2206   21.2132 C   0  0  2  0  0  0  0  0  0  0  0  0
    6.5488    0.0028   22.1018 H   0  0  0  0  0  0  0  0  0  0  0  0
    8.5989    0.3390   21.3970 C   0  0  0  0  0  0  0  0  0  0  0  0
    8.8181    0.5131   22.4657 H   0  0  0  0  0  0  0  0  0  0  0  0
    8.7530    1.2887   20.8685 H   0  0  0  0  0  0  0  0  0  0  0  0
    9.4340   -0.7072   20.8174 N   0  0  0  0  0  0  0  0  0  0  0  0
   10.4376   -0.7692   20.8907 H   0  0  0  0  0  0  0  0  0  0  0  0
    8.8629   -1.9306   20.9145 C   0  0  0  0  0  0  0  0  0  0  0  0
    9.4714   -2.9727   20.9075 O   0  0  0  0  0  0  0  0  0  0  0  0
    7.3769   -1.7554   21.0324 C   0  0  1  0  0  0  0  0  0  0  0  0
    6.9349   -2.1012   20.0935 H   0  0  0  0  0  0  0  0  0  0  0  0
    6.8530   -2.7395   22.0206 C   0  0  0  0  0  0  0  0  0  0  0  0
    5.8411   -3.5450   21.7907 N   0  0  0  0  0  0  0  0  0  0  0  0
    5.7544   -4.3738   22.8538 N   0  0  0  0  0  0  0  0  0  0  0  0
    6.6683   -4.1123   23.7163 N   0  0  0  0  0  0  0  0  0  0  0  0
    7.3695   -3.0887   23.2105 N   0  0  0  0  0  0  0  0  0  0  0  0
    8.1393   -2.7063   23.7339 H   0  0  0  0  0  0  0  0  0  0  0  0
    5.1862    0.9796   20.0608 C   0  0  0  0  0  0  0  0  0  0  0  0
    4.6571    1.0668   21.0144 H   0  0  0  0  0  0  0  0  0  0  0  0
    4.6206    1.4995   18.8901 C   0  0  0  0  0  0  0  0  0  0  0  0
    3.6603    2.0066   18.8877 H   0  0  0  0  0  0  0  0  0  0  0  0
  1  2  1  0
  2  3  2  0
  3  4  1  0
  4  5  1  0
  4  6  2  0
  6  7  1  0
  7  8  1  1
  7  9  1  0
  9 10  1  0
  9 11  1  0
  9 12  1  0
 12 13  1  0
 12 14  1  0
 14 15  2  0
 14 16  1  0
 16 17  1  6
 16 18  1  0
 18 19  2  0
 19 20  1  0
 20 21  2  0
 21 22  1  0
 22 23  1  0
  6 24  1  0
 24 25  1  0
 24 26  2  0
 26 27  1  0
 26  2  1  0
 16  7  1  0
 22 18  1  0
M  END
>  <plip>  (1) 
-0.10344827586206896

>  <filename>  (1) 
[H][c]1[n][c]([H])[c]([C@]2([H])[C]([H])([H])[N]([H])[C](=[O])[C@@]2([H])[c]2[n][n][n][n]2[H])[c]([H])[c]1[H]

$$$$
