
     RDKit          3D

 34 36  0  0  0  0  0  0  0  0999 V2000
    6.1410   -1.6397   23.8681 H   0  0  0  0  0  0  0  0  0  0  0  0
    6.8927   -1.8166   24.4675 O   0  0  0  0  0  0  0  0  0  0  0  0
    7.6317   -2.8042   23.8098 C   0  0  1  0  0  0  0  0  0  0  0  0
    8.5518   -2.9840   24.3815 H   0  0  0  0  0  0  0  0  0  0  0  0
    6.8854   -4.1431   23.6425 C   0  0  0  0  0  0  0  0  0  0  0  0
    5.5739   -4.3437   24.1031 C   0  0  0  0  0  0  0  0  0  0  0  0
    5.0961   -3.5831   24.7195 H   0  0  0  0  0  0  0  0  0  0  0  0
    4.8712   -5.5048   23.7651 C   0  0  0  0  0  0  0  0  0  0  0  0
    3.8359   -5.6128   24.0822 H   0  0  0  0  0  0  0  0  0  0  0  0
    5.4868   -6.5026   23.0028 C   0  0  0  0  0  0  0  0  0  0  0  0
    4.9240   -7.3855   22.7157 H   0  0  0  0  0  0  0  0  0  0  0  0
    6.8230   -6.3552   22.6117 C   0  0  0  0  0  0  0  0  0  0  0  0
    7.3075   -7.1411   22.0354 H   0  0  0  0  0  0  0  0  0  0  0  0
    7.5181   -5.1878   22.9436 C   0  0  0  0  0  0  0  0  0  0  0  0
    8.5591   -5.0873   22.6400 H   0  0  0  0  0  0  0  0  0  0  0  0
    8.0260   -2.2765   22.5125 N   0  0  0  0  0  0  0  0  0  0  0  0
    7.0042   -1.8074   21.7165 C   0  0  0  0  0  0  0  0  0  0  0  0
    5.8332   -2.1247   21.8483 O   0  0  0  0  0  0  0  0  0  0  0  0
    7.6240   -0.8618   20.7498 C   0  0  0  0  0  0  0  0  0  0  0  0
    6.8655   -0.1137   19.7248 C   0  0  0  0  0  0  0  0  0  0  0  0
    7.3584    0.0938   18.4196 C   0  0  0  0  0  0  0  0  0  0  0  0
    8.3115   -0.3478   18.1332 H   0  0  0  0  0  0  0  0  0  0  0  0
    6.7114    0.7674   17.4614 N   0  0  0  0  0  0  0  0  0  0  0  0
    5.5350    1.3282   17.7928 C   0  0  0  0  0  0  0  0  0  0  0  0
    5.0308    1.8895   17.0067 H   0  0  0  0  0  0  0  0  0  0  0  0
    4.9516    1.1957   19.0582 C   0  0  0  0  0  0  0  0  0  0  0  0
    3.9949    1.6721   19.2572 H   0  0  0  0  0  0  0  0  0  0  0  0
    5.6151    0.4500   20.0308 C   0  0  0  0  0  0  0  0  0  0  0  0
    5.1772    0.2752   21.0155 H   0  0  0  0  0  0  0  0  0  0  0  0
    8.9229   -0.7444   21.0724 C   0  0  0  0  0  0  0  0  0  0  0  0
    9.6114   -0.0709   20.5828 H   0  0  0  0  0  0  0  0  0  0  0  0
    9.2759   -1.5821   22.2603 C   0  0  0  0  0  0  0  0  0  0  0  0
    9.5885   -0.9588   23.1150 H   0  0  0  0  0  0  0  0  0  0  0  0
   10.1023   -2.2779   22.0530 H   0  0  0  0  0  0  0  0  0  0  0  0
  1  2  1  0
  2  3  1  0
  3  4  1  1
  3  5  1  0
  5  6  2  0
  6  7  1  0
  6  8  1  0
  8  9  1  0
  8 10  2  0
 10 11  1  0
 10 12  1  0
 12 13  1  0
 12 14  2  0
 14 15  1  0
  3 16  1  0
 16 17  1  0
 17 18  2  0
 17 19  1  0
 19 20  1  0
 20 21  2  0
 21 22  1  0
 21 23  1  0
 23 24  2  0
 24 25  1  0
 24 26  1  0
 26 27  1  0
 26 28  2  0
 28 29  1  0
 19 30  2  0
 30 31  1  0
 30 32  1  0
 32 33  1  0
 32 34  1  0
 14  5  1  0
 32 16  1  0
 28 20  1  0
M  END
>  <plip>  (1) 
-0.14285714285714285

>  <filename>  (1) 
[H][O][C@@]([H])([c]1[c]([H])[c]([H])[c]([H])[c]([H])[c]1[H])[N]1[C](=[O])[C]([c]2[c]([H])[n][c]([H])[c]([H])[c]2[H])=[C]([H])[C]1([H])[H]

$$$$
