
     RDKit          3D

 23 24  0  0  0  0  0  0  0  0999 V2000
    7.4594   -1.6540   23.3735 H   0  0  0  0  0  0  0  0  0  0  0  0
    8.4760   -2.0000   23.2156 C   0  0  0  0  0  0  0  0  0  0  0  0
    9.0935   -2.6997   24.1774 N   0  0  0  0  0  0  0  0  0  0  0  0
   10.3393   -3.1267   23.8984 C   0  0  0  0  0  0  0  0  0  0  0  0
   10.7936   -3.9533   24.8904 N   0  0  0  0  0  0  0  0  0  0  0  0
   10.1283   -3.7970   25.6392 H   0  0  0  0  0  0  0  0  0  0  0  0
   11.7633   -3.8741   25.1536 H   0  0  0  0  0  0  0  0  0  0  0  0
   11.0034   -2.7415   22.6839 C   0  0  0  0  0  0  0  0  0  0  0  0
   12.0374   -3.0303   22.5050 H   0  0  0  0  0  0  0  0  0  0  0  0
   10.3803   -2.0540   21.7287 N   0  0  0  0  0  0  0  0  0  0  0  0
    9.0865   -1.7131   21.9702 C   0  0  0  0  0  0  0  0  0  0  0  0
    8.4458   -1.0901   20.8540 N   0  0  0  0  0  0  0  0  0  0  0  0
    7.2851   -0.6719   21.0790 N   0  0  0  0  0  0  0  0  0  0  0  0
    6.6621   -0.0329   19.9592 C   0  0  0  0  0  0  0  0  0  0  0  0
    7.2071   -0.0202   18.6584 C   0  0  0  0  0  0  0  0  0  0  0  0
    8.1462   -0.5433   18.4895 H   0  0  0  0  0  0  0  0  0  0  0  0
    6.6329    0.6027   17.6260 N   0  0  0  0  0  0  0  0  0  0  0  0
    5.4778    1.2481   17.8611 C   0  0  0  0  0  0  0  0  0  0  0  0
    5.0378    1.7601   17.0106 H   0  0  0  0  0  0  0  0  0  0  0  0
    4.8429    1.2786   19.1118 C   0  0  0  0  0  0  0  0  0  0  0  0
    3.9102    1.8258   19.2308 H   0  0  0  0  0  0  0  0  0  0  0  0
    5.4454    0.6202   20.1867 C   0  0  0  0  0  0  0  0  0  0  0  0
    5.0190    0.6042   21.1914 H   0  0  0  0  0  0  0  0  0  0  0  0
  1  2  1  0
  2  3  2  0
  3  4  1  0
  4  5  1  0
  5  6  1  0
  5  7  1  0
  4  8  2  0
  8  9  1  0
  8 10  1  0
 10 11  2  0
 11 12  1  0
 12 13  2  3
 13 14  1  0
 14 15  2  0
 15 16  1  0
 15 17  1  0
 17 18  2  0
 18 19  1  0
 18 20  1  0
 20 21  1  0
 20 22  2  0
 22 23  1  0
 11  2  1  0
 22 14  1  0
M  END
>  <plip>  (1) 
-0.06896551724137931

>  <filename>  (1) 
[H][c]1[n][c]([N]([H])[H])[c]([H])[n][c]1[N]=[N][c]1[c]([H])[n][c]([H])[c]([H])[c]1[H]

$$$$
