
     RDKit          3D

 41 43  0  0  0  0  0  0  0  0999 V2000
    5.5436   -3.9726   26.9094 O   0  0  0  0  0  0  0  0  0  0  0  0
    5.8196   -3.0230   27.6233 C   0  0  0  0  0  0  0  0  0  0  0  0
    6.9434   -2.2439   27.4300 N   0  0  0  0  0  0  0  0  0  0  0  0
    7.9726   -2.6409   26.4693 C   0  0  0  0  0  0  0  0  0  0  0  0
    7.6258   -2.0303   25.1187 C   0  0  0  0  0  0  0  0  0  0  0  0
    8.5870   -2.2433   24.0548 N   0  0  0  0  0  0  0  0  0  0  0  0
    8.3335   -1.7602   22.8147 C   0  0  0  0  0  0  0  0  0  0  0  0
    9.0821   -1.9733   21.7768 N   0  0  0  0  0  0  0  0  0  0  0  0
    8.5705   -1.3658   20.6550 N   0  0  0  0  0  0  0  0  0  0  0  0
    7.4658   -0.7258   20.8704 C   0  0  0  0  0  0  0  0  0  0  0  0
    6.6898   -0.0055   19.8540 C   0  0  0  0  0  0  0  0  0  0  0  0
    5.4714    0.6454   20.1172 C   0  0  0  0  0  0  0  0  0  0  0  0
    4.8433    1.3033   19.0616 C   0  0  0  0  0  0  0  0  0  0  0  0
    5.4517    1.2896   17.8009 C   0  0  0  0  0  0  0  0  0  0  0  0
    6.6082    0.6632   17.5371 N   0  0  0  0  0  0  0  0  0  0  0  0
    7.2040    0.0325   18.5493 C   0  0  0  0  0  0  0  0  0  0  0  0
    8.1411   -0.4809   18.3439 H   0  0  0  0  0  0  0  0  0  0  0  0
    4.9906    1.7984   16.9597 H   0  0  0  0  0  0  0  0  0  0  0  0
    3.9070    1.8321   19.2021 H   0  0  0  0  0  0  0  0  0  0  0  0
    5.0327    0.6406   21.1173 H   0  0  0  0  0  0  0  0  0  0  0  0
    6.9247   -0.7802   22.5198 S   0  0  0  0  0  0  0  0  0  0  0  0
    9.4170   -2.8128   24.1041 H   0  0  0  0  0  0  0  0  0  0  0  0
    6.6354   -2.4239   24.8450 H   0  0  0  0  0  0  0  0  0  0  0  0
    7.4862   -0.9503   25.2704 H   0  0  0  0  0  0  0  0  0  0  0  0
    8.9385   -2.2726   26.8220 H   0  0  0  0  0  0  0  0  0  0  0  0
    8.0443   -3.7341   26.3901 H   0  0  0  0  0  0  0  0  0  0  0  0
    7.2426   -1.7651   28.2619 H   0  0  0  0  0  0  0  0  0  0  0  0
    5.0345   -2.6332   28.7017 N   0  0  0  0  0  0  0  0  0  0  0  0
    4.3653   -3.6802   29.4861 C   0  0  0  0  0  0  0  0  0  0  0  0
    3.0540   -3.1454   30.0554 C   0  0  0  0  0  0  0  0  0  0  0  0
    3.2557   -1.9625   30.8114 O   0  0  0  0  0  0  0  0  0  0  0  0
    3.8256   -0.9280   30.0290 C   0  0  0  0  0  0  0  0  0  0  0  0
    5.1481   -1.3367   29.3761 C   0  0  0  0  0  0  0  0  0  0  0  0
    5.9162   -1.3459   30.1541 H   0  0  0  0  0  0  0  0  0  0  0  0
    5.4181   -0.5563   28.6585 H   0  0  0  0  0  0  0  0  0  0  0  0
    4.0098   -0.0953   30.7132 H   0  0  0  0  0  0  0  0  0  0  0  0
    3.1293   -0.5896   29.2458 H   0  0  0  0  0  0  0  0  0  0  0  0
    2.6068   -3.8737   30.7370 H   0  0  0  0  0  0  0  0  0  0  0  0
    2.3465   -2.9648   29.2297 H   0  0  0  0  0  0  0  0  0  0  0  0
    4.1449   -4.5311   28.8331 H   0  0  0  0  0  0  0  0  0  0  0  0
    5.0203   -4.0230   30.3062 H   0  0  0  0  0  0  0  0  0  0  0  0
  1  2  2  0
  2  3  1  0
  3  4  1  0
  4  5  1  0
  5  6  1  0
  6  7  1  0
  7  8  2  0
  8  9  1  0
  9 10  2  0
 10 11  1  0
 11 12  2  0
 12 13  1  0
 13 14  2  0
 14 15  1  0
 15 16  2  0
 16 17  1  0
 14 18  1  0
 13 19  1  0
 12 20  1  0
 10 21  1  0
  6 22  1  0
  5 23  1  0
  5 24  1  0
  4 25  1  0
  4 26  1  0
  3 27  1  0
  2 28  1  0
 28 29  1  0
 29 30  1  0
 30 31  1  0
 31 32  1  0
 32 33  1  0
 33 34  1  0
 33 35  1  0
 32 36  1  0
 32 37  1  0
 30 38  1  0
 30 39  1  0
 29 40  1  0
 29 41  1  0
 21  7  1  0
 33 28  1  0
 16 11  1  0
M  END
>  <plip>  (1) 
-0.034482758620689655

>  <filename>  (1) 
[H][c]1[n][c]([H])[c](-[c]2[n][n][c]([N]([H])[C]([H])([H])[C]([H])([H])[N]([H])[C](=[O])[N]3[C]([H])([H])[C]([H])([H])[O][C]([H])([H])[C]3([H])[H])[s]2)[c]([H])[c]1[H]

$$$$
