
     RDKit          3D

 33 34  0  0  0  0  0  0  0  0999 V2000
    9.1188   -0.9706   21.5943 H   0  0  0  0  0  0  0  0  0  0  0  0
    8.7218   -0.8348   20.7228 O   0  0  0  0  0  0  0  0  0  0  0  0
    7.3499   -0.7214   21.0261 C   0  0  1  0  0  0  0  0  0  0  0  0
    7.2365   -0.2044   22.3460 O   0  0  0  0  0  0  0  0  0  0  0  0
    7.6391    1.0660   22.6741 C   0  0  0  0  0  0  0  0  0  0  0  0
    8.3625    1.9140   21.8392 C   0  0  0  0  0  0  0  0  0  0  0  0
    8.6232    1.6100   20.8290 H   0  0  0  0  0  0  0  0  0  0  0  0
    8.7353    3.1745   22.3164 C   0  0  0  0  0  0  0  0  0  0  0  0
    9.2923    3.8431   21.6980 H   0  0  0  0  0  0  0  0  0  0  0  0
    8.4080    3.6027   23.6027 C   0  0  0  0  0  0  0  0  0  0  0  0
    8.7690    4.8029   24.1378 O   0  0  0  0  0  0  0  0  0  0  0  0
    9.5133    5.6974   23.3318 C   0  0  0  0  0  0  0  0  0  0  0  0
    9.6819    6.5733   23.9549 H   0  0  0  0  0  0  0  0  0  0  0  0
   10.4828    5.2732   23.0300 H   0  0  0  0  0  0  0  0  0  0  0  0
    8.9583    5.9905   22.4286 H   0  0  0  0  0  0  0  0  0  0  0  0
    7.6655    2.7466   24.4264 C   0  0  0  0  0  0  0  0  0  0  0  0
    7.4155    3.1054   25.4179 H   0  0  0  0  0  0  0  0  0  0  0  0
    7.2836    1.4889   23.9682 C   0  0  0  0  0  0  0  0  0  0  0  0
    6.7059    0.8061   24.5848 H   0  0  0  0  0  0  0  0  0  0  0  0
    6.6385    0.0827   19.9543 C   0  0  0  0  0  0  0  0  0  0  0  0
    7.1765    0.0876   18.6654 C   0  0  0  0  0  0  0  0  0  0  0  0
    8.1334   -0.3960   18.4700 H   0  0  0  0  0  0  0  0  0  0  0  0
    6.5916    0.6752   17.6121 N   0  0  0  0  0  0  0  0  0  0  0  0
    5.4242    1.2996   17.8281 C   0  0  0  0  0  0  0  0  0  0  0  0
    4.9719    1.7761   16.9607 H   0  0  0  0  0  0  0  0  0  0  0  0
    4.7858    1.3411   19.0729 C   0  0  0  0  0  0  0  0  0  0  0  0
    3.8334    1.8538   19.1707 H   0  0  0  0  0  0  0  0  0  0  0  0
    5.3994    0.7160   20.1590 C   0  0  0  0  0  0  0  0  0  0  0  0
    4.9380    0.7369   21.1491 H   0  0  0  0  0  0  0  0  0  0  0  0
    6.7569   -2.1064   21.1254 C   0  0  0  0  0  0  0  0  0  0  0  0
    6.8817   -2.6340   20.1822 H   0  0  0  0  0  0  0  0  0  0  0  0
    7.2752   -2.6438   21.9197 H   0  0  0  0  0  0  0  0  0  0  0  0
    5.6976   -2.0509   21.3841 H   0  0  0  0  0  0  0  0  0  0  0  0
  1  2  1  0
  3  2  1  6
  3  4  1  0
  4  5  1  0
  5  6  2  0
  6  7  1  0
  6  8  1  0
  8  9  1  0
  8 10  2  0
 10 11  1  0
 11 12  1  0
 12 13  1  0
 12 14  1  0
 12 15  1  0
 10 16  1  0
 16 17  1  0
 16 18  2  0
 18 19  1  0
  3 20  1  0
 20 21  2  0
 21 22  1  0
 21 23  1  0
 23 24  2  0
 24 25  1  0
 24 26  1  0
 26 27  1  0
 26 28  2  0
 28 29  1  0
  3 30  1  0
 30 31  1  0
 30 32  1  0
 30 33  1  0
 18  5  1  0
 28 20  1  0
M  END
>  <plip>  (1) 
-0.03571428571428571

>  <filename>  (1) 
[H][O][C@@]([O][c]1[c]([H])[c]([H])[c]([O][C]([H])([H])[H])[c]([H])[c]1[H])([c]1[c]([H])[n][c]([H])[c]([H])[c]1[H])[C]([H])([H])[H]

$$$$
