
     RDKit          3D

 33 35  0  0  0  0  0  0  0  0999 V2000
    9.0793   -1.1924   23.1090 H   0  0  0  0  0  0  0  0  0  0  0  0
    9.0853   -0.1404   22.8296 C   0  0  0  0  0  0  0  0  0  0  0  0
    8.3384    0.3107   21.8097 C   0  0  0  0  0  0  0  0  0  0  0  0
    7.3423   -0.6306   21.1000 C   0  0  0  0  0  0  0  0  0  0  0  0
    6.5830   -0.0078   19.9322 C   0  0  0  0  0  0  0  0  0  0  0  0
    7.1167   -0.0388   18.6402 C   0  0  0  0  0  0  0  0  0  0  0  0
    8.0368   -0.5890   18.4382 H   0  0  0  0  0  0  0  0  0  0  0  0
    6.5739    0.5896   17.5842 N   0  0  0  0  0  0  0  0  0  0  0  0
    5.4372    1.2691   17.7876 C   0  0  0  0  0  0  0  0  0  0  0  0
    5.0216    1.7912   16.9243 H   0  0  0  0  0  0  0  0  0  0  0  0
    4.7872    1.3201   19.0261 C   0  0  0  0  0  0  0  0  0  0  0  0
    3.8635    1.8792   19.1159 H   0  0  0  0  0  0  0  0  0  0  0  0
    5.3644    0.6748   20.1185 C   0  0  0  0  0  0  0  0  0  0  0  0
    4.8729    0.6968   21.0963 H   0  0  0  0  0  0  0  0  0  0  0  0
    6.3588   -1.0805   22.0337 O   0  0  0  0  0  0  0  0  0  0  0  0
    6.3947   -2.4915   22.1246 C   0  0  0  0  0  0  0  0  0  0  0  0
    5.3703   -2.8766   22.1636 H   0  0  0  0  0  0  0  0  0  0  0  0
    6.9314   -2.8021   23.0313 H   0  0  0  0  0  0  0  0  0  0  0  0
    7.1654   -2.9032   20.8831 C   0  0  0  0  0  0  0  0  0  0  0  0
    6.5258   -3.0335   19.9985 H   0  0  0  0  0  0  0  0  0  0  0  0
    7.7693   -3.8047   21.0269 H   0  0  0  0  0  0  0  0  0  0  0  0
    8.0405   -1.8023   20.6945 O   0  0  0  0  0  0  0  0  0  0  0  0
    8.3737    1.8050   21.4781 C   0  0  0  0  0  0  0  0  0  0  0  0
    8.4296    1.9460   20.3986 H   0  0  0  0  0  0  0  0  0  0  0  0
    7.4269    2.2625   21.7961 H   0  0  0  0  0  0  0  0  0  0  0  0
    9.5335    2.5655   22.1552 C   0  0  0  0  0  0  0  0  0  0  0  0
    9.3465    3.6460   22.1157 H   0  0  0  0  0  0  0  0  0  0  0  0
   10.4698    2.3832   21.6084 H   0  0  0  0  0  0  0  0  0  0  0  0
    9.7395    2.1734   23.5512 N   0  0  0  0  0  0  0  0  0  0  0  0
    8.8707    2.3508   24.0524 H   0  0  0  0  0  0  0  0  0  0  0  0
   10.0123    0.7409   23.6559 C   0  0  0  0  0  0  0  0  0  0  0  0
    9.9522    0.4525   24.7121 H   0  0  0  0  0  0  0  0  0  0  0  0
   11.0588    0.5634   23.3620 H   0  0  0  0  0  0  0  0  0  0  0  0
  1  2  1  0
  2  3  2  0
  3  4  1  0
  4  5  1  0
  5  6  2  0
  6  7  1  0
  6  8  1  0
  8  9  2  0
  9 10  1  0
  9 11  1  0
 11 12  1  0
 11 13  2  0
 13 14  1  0
  4 15  1  0
 15 16  1  0
 16 17  1  0
 16 18  1  0
 16 19  1  0
 19 20  1  0
 19 21  1  0
 19 22  1  0
  3 23  1  0
 23 24  1  0
 23 25  1  0
 23 26  1  0
 26 27  1  0
 26 28  1  0
 26 29  1  0
 29 30  1  0
 29 31  1  0
 31 32  1  0
 31 33  1  0
 31  2  1  0
 22  4  1  0
 13  5  1  0
M  END
>  <plip>  (1) 
-0.034482758620689655

>  <filename>  (1) 
[H][C]1=[C]([C]2([c]3[c]([H])[n][c]([H])[c]([H])[c]3[H])[O][C]([H])([H])[C]([H])([H])[O]2)[C]([H])([H])[C]([H])([H])[N]([H])[C]1([H])[H]

$$$$
