
     RDKit          3D

 29 31  0  0  0  0  0  0  0  0999 V2000
    4.9220    1.7736   17.0031 H   0  0  0  0  0  0  0  0  0  0  0  0
    5.4078    1.2867   17.8462 C   0  0  0  0  0  0  0  0  0  0  0  0
    6.5714    0.6720   17.5878 N   0  0  0  0  0  0  0  0  0  0  0  0
    7.1821    0.0561   18.6026 C   0  0  0  0  0  0  0  0  0  0  0  0
    8.1275   -0.4309   18.3749 H   0  0  0  0  0  0  0  0  0  0  0  0
    6.6629    0.0088   19.8981 C   0  0  0  0  0  0  0  0  0  0  0  0
    7.4087   -0.7072   20.9300 C   0  0  0  0  0  0  0  0  0  0  0  0
    6.9432   -0.7799   22.1925 N   0  0  0  0  0  0  0  0  0  0  0  0
    7.8445   -1.4852   22.8478 C   0  0  0  0  0  0  0  0  0  0  0  0
    7.8388   -1.8724   24.2817 C   0  0  0  0  0  0  0  0  0  0  0  0
    6.7829   -1.4486   24.9890 N   0  0  0  0  0  0  0  0  0  0  0  0
    6.6949   -1.7500   26.2823 C   0  0  0  0  0  0  0  0  0  0  0  0
    5.4709   -1.2546   27.0867 C   0  0  0  0  0  0  0  0  0  0  0  0
    4.7977   -2.2899   27.6328 F   0  0  0  0  0  0  0  0  0  0  0  0
    5.8537   -0.4818   28.1255 F   0  0  0  0  0  0  0  0  0  0  0  0
    4.5960   -0.5478   26.3664 F   0  0  0  0  0  0  0  0  0  0  0  0
    7.6904   -2.5052   26.9143 C   0  0  0  0  0  0  0  0  0  0  0  0
    7.6258   -2.7551   27.9325 H   0  0  0  0  0  0  0  0  0  0  0  0
    8.7958   -2.9564   26.2047 C   0  0  0  0  0  0  0  0  0  0  0  0
    9.5614   -3.5436   26.7118 H   0  0  0  0  0  0  0  0  0  0  0  0
    8.8754   -2.6358   24.8591 C   0  0  0  0  0  0  0  0  0  0  0  0
    9.7276   -2.9778   24.2871 H   0  0  0  0  0  0  0  0  0  0  0  0
    8.8225   -1.8220   21.9751 N   0  0  0  0  0  0  0  0  0  0  0  0
    9.6679   -2.3466   22.1094 H   0  0  0  0  0  0  0  0  0  0  0  0
    8.5623   -1.3349   20.7480 N   0  0  0  0  0  0  0  0  0  0  0  0
    5.4400    0.6508   20.1652 C   0  0  0  0  0  0  0  0  0  0  0  0
    5.0098    0.6281   21.1732 H   0  0  0  0  0  0  0  0  0  0  0  0
    4.8089    1.3066   19.1130 C   0  0  0  0  0  0  0  0  0  0  0  0
    3.8759    1.8417   19.2615 H   0  0  0  0  0  0  0  0  0  0  0  0
  1  2  1  0
  2  3  2  0
  3  4  1  0
  4  5  1  0
  4  6  2  0
  6  7  1  0
  7  8  1  0
  8  9  2  0
  9 10  1  0
 10 11  2  0
 11 12  1  0
 12 13  1  0
 13 14  1  0
 13 15  1  0
 13 16  1  0
 12 17  2  0
 17 18  1  0
 17 19  1  0
 19 20  1  0
 19 21  2  0
 21 22  1  0
  9 23  1  0
 23 24  1  0
 23 25  1  0
  6 26  1  0
 26 27  1  0
 26 28  2  0
 28 29  1  0
 28  2  1  0
 25  7  2  0
 21 10  1  0
M  END
>  <plip>  (1) 
-0.03333333333333333

>  <filename>  (1) 
[H][c]1[n][c]([H])[c](-[c]2[n][c](-[c]3[n][c]([C]([F])([F])[F])[c]([H])[c]([H])[c]3[H])[n]([H])[n]2)[c]([H])[c]1[H]

$$$$
