
     RDKit          3D

 30 32  0  0  0  0  0  0  0  0999 V2000
    8.2340   -4.0839   21.5883 F   0  0  0  0  0  0  0  0  0  0  0  0
    8.8350   -3.2634   22.4713 C   0  0  0  0  0  0  0  0  0  0  0  0
    9.2277   -3.8051   23.7158 C   0  0  0  0  0  0  0  0  0  0  0  0
    9.8459   -2.9948   24.6657 C   0  0  0  0  0  0  0  0  0  0  0  0
   10.0558   -1.6456   24.3356 C   0  0  0  0  0  0  0  0  0  0  0  0
   10.6094   -0.6214   25.0609 N   0  0  0  0  0  0  0  0  0  0  0  0
   10.5850    0.5435   24.3260 C   0  0  0  0  0  0  0  0  0  0  0  0
   10.0178    0.2810   23.1107 C   0  0  0  0  0  0  0  0  0  0  0  0
    9.6680   -1.1072   23.0912 C   0  0  0  0  0  0  0  0  0  0  0  0
    9.0452   -1.9292   22.1294 C   0  0  0  0  0  0  0  0  0  0  0  0
    8.6028   -1.3298   20.8290 C   0  0  0  0  0  0  0  0  0  0  0  0
    7.3259   -0.6636   20.9643 N   0  0  0  0  0  0  0  0  0  0  0  0
    6.6790   -0.0067   19.9283 C   0  0  0  0  0  0  0  0  0  0  0  0
    5.4496    0.6429   20.1710 C   0  0  0  0  0  0  0  0  0  0  0  0
    4.8168    1.3019   19.1138 C   0  0  0  0  0  0  0  0  0  0  0  0
    5.4003    1.2937   17.8373 C   0  0  0  0  0  0  0  0  0  0  0  0
    6.5643    0.6795   17.5747 N   0  0  0  0  0  0  0  0  0  0  0  0
    7.1777    0.0616   18.5953 C   0  0  0  0  0  0  0  0  0  0  0  0
    8.1219   -0.4240   18.3594 H   0  0  0  0  0  0  0  0  0  0  0  0
    4.9108    1.7819   16.9955 H   0  0  0  0  0  0  0  0  0  0  0  0
    3.8819    1.8366   19.2650 H   0  0  0  0  0  0  0  0  0  0  0  0
    5.0129    0.6257   21.1731 H   0  0  0  0  0  0  0  0  0  0  0  0
    6.8726   -0.6671   21.8667 H   0  0  0  0  0  0  0  0  0  0  0  0
    8.5260   -2.1028   20.0793 H   0  0  0  0  0  0  0  0  0  0  0  0
    9.3612   -0.6308   20.4480 H   0  0  0  0  0  0  0  0  0  0  0  0
    9.8363    0.9820   22.3097 H   0  0  0  0  0  0  0  0  0  0  0  0
   10.9726    1.4773   24.7255 H   0  0  0  0  0  0  0  0  0  0  0  0
   10.9601   -0.7357   25.9952 H   0  0  0  0  0  0  0  0  0  0  0  0
   10.1514   -3.3796   25.6367 H   0  0  0  0  0  0  0  0  0  0  0  0
    9.0353   -4.8527   23.9208 H   0  0  0  0  0  0  0  0  0  0  0  0
  1  2  1  0
  2  3  2  0
  3  4  1  0
  4  5  2  0
  5  6  1  0
  6  7  1  0
  7  8  2  0
  8  9  1  0
  9 10  2  0
 10 11  1  0
 11 12  1  0
 12 13  1  0
 13 14  2  0
 14 15  1  0
 15 16  2  0
 16 17  1  0
 17 18  2  0
 18 19  1  0
 16 20  1  0
 15 21  1  0
 14 22  1  0
 12 23  1  0
 11 24  1  0
 11 25  1  0
  8 26  1  0
  7 27  1  0
  6 28  1  0
  4 29  1  0
  3 30  1  0
 10  2  1  0
 18 13  1  0
  9  5  1  0
M  END
>  <plip>  (1) 
-0.10714285714285714

>  <filename>  (1) 
[H][c]1[n][c]([H])[c]([N]([H])[C]([H])([H])[c]2[c]([F])[c]([H])[c]([H])[c]3[c]2[c]([H])[c]([H])[n]3[H])[c]([H])[c]1[H]

$$$$
