
     RDKit          3D

 44 46  0  0  0  0  0  0  0  0999 V2000
   10.0652   -2.4739   21.8498 C   0  0  0  0  0  0  0  0  0  0  0  0
    8.5902   -2.2806   22.0202 N   0  0  0  0  0  4  0  0  0  0  0  0
    7.8341   -3.5253   22.3741 C   0  0  0  0  0  0  0  0  0  0  0  0
    7.7747   -4.2145   21.5200 H   0  0  0  0  0  0  0  0  0  0  0  0
    8.3057   -4.0508   23.2101 H   0  0  0  0  0  0  0  0  0  0  0  0
    6.8118   -3.2560   22.6605 H   0  0  0  0  0  0  0  0  0  0  0  0
    7.9989   -1.6045   20.7823 C   0  0  0  0  0  0  0  0  0  0  0  0
    7.0954   -0.4033   21.1288 C   0  0  0  0  0  0  0  0  0  0  0  0
    7.8455    0.5609   21.9240 N   0  0  0  0  0  0  0  0  0  0  0  0
    8.9664    1.2078   21.5009 C   0  0  0  0  0  0  0  0  0  0  0  0
    9.6758    0.7936   20.5898 O   0  0  0  0  0  0  0  0  0  0  0  0
    9.2871    2.4367   22.2751 C   0  0  0  0  0  0  0  0  0  0  0  0
    8.5318    3.1925   23.1528 C   0  0  0  0  0  0  0  0  0  0  0  0
    6.8646    3.0439   23.6086 Cl  0  0  0  0  0  0  0  0  0  0  0  0
    9.3042    4.2787   23.6221 C   0  0  0  0  0  0  0  0  0  0  0  0
    9.0273    5.3543   24.4891 C   0  0  0  0  0  0  0  0  0  0  0  0
   10.0270    6.2870   24.7218 C   0  0  0  0  0  0  0  0  0  0  0  0
   11.2950    6.1634   24.0948 C   0  0  0  0  0  0  0  0  0  0  0  0
   11.5747    5.1147   23.2267 C   0  0  0  0  0  0  0  0  0  0  0  0
   10.5599    4.1652   22.9900 C   0  0  0  0  0  0  0  0  0  0  0  0
   10.5322    3.0548   22.1946 N   0  0  0  0  0  0  0  0  0  0  0  0
   11.2260    2.8724   21.4793 H   0  0  0  0  0  0  0  0  0  0  0  0
   12.5389    5.0174   22.7411 H   0  0  0  0  0  0  0  0  0  0  0  0
   12.0594    6.9123   24.2949 H   0  0  0  0  0  0  0  0  0  0  0  0
    9.8297    7.1240   25.3829 H   0  0  0  0  0  0  0  0  0  0  0  0
    8.0396    5.4270   24.9342 H   0  0  0  0  0  0  0  0  0  0  0  0
    7.2857    1.1243   22.5342 H   0  0  0  0  0  0  0  0  0  0  0  0
    6.4341    0.2468   19.9306 C   0  0  0  0  0  0  0  0  0  0  0  0
    5.1910    0.8870   20.0519 C   0  0  0  0  0  0  0  0  0  0  0  0
    4.6293    1.4814   18.9210 C   0  0  0  0  0  0  0  0  0  0  0  0
    5.3296    1.4210   17.7118 C   0  0  0  0  0  0  0  0  0  0  0  0
    6.5200    0.8235   17.5773 N   0  0  0  0  0  0  0  0  0  0  0  0
    7.0517    0.2687   18.6739 C   0  0  0  0  0  0  0  0  0  0  0  0
    8.0145   -0.2240   18.5329 H   0  0  0  0  0  0  0  0  0  0  0  0
    4.9162    1.8594   16.8071 H   0  0  0  0  0  0  0  0  0  0  0  0
    3.6718    1.9880   18.9577 H   0  0  0  0  0  0  0  0  0  0  0  0
    4.6693    0.9148   21.0112 H   0  0  0  0  0  0  0  0  0  0  0  0
    6.3028   -0.7583   21.8022 H   0  0  0  0  0  0  0  0  0  0  0  0
    8.8295   -1.2240   20.1893 H   0  0  0  0  0  0  0  0  0  0  0  0
    7.4323   -2.3314   20.1972 H   0  0  0  0  0  0  0  0  0  0  0  0
    8.4786   -1.5742   22.7830 H   0  0  0  0  0  0  0  0  0  0  0  0
   10.5911   -1.5148   21.8817 H   0  0  0  0  0  0  0  0  0  0  0  0
   10.2846   -2.9041   20.8728 H   0  0  0  0  0  0  0  0  0  0  0  0
   10.4682   -3.1259   22.6261 H   0  0  0  0  0  0  0  0  0  0  0  0
  1  2  1  0
  2  3  1  0
  3  4  1  0
  3  5  1  0
  3  6  1  0
  2  7  1  0
  7  8  1  0
  8  9  1  0
  9 10  1  0
 10 11  2  0
 10 12  1  0
 12 13  2  0
 13 14  1  0
 13 15  1  0
 15 16  2  0
 16 17  1  0
 17 18  2  0
 18 19  1  0
 19 20  2  0
 20 21  1  0
 21 22  1  0
 19 23  1  0
 18 24  1  0
 17 25  1  0
 16 26  1  0
  9 27  1  0
  8 28  1  0
 28 29  2  0
 29 30  1  0
 30 31  2  0
 31 32  1  0
 32 33  2  0
 33 34  1  0
 31 35  1  0
 30 36  1  0
 29 37  1  0
  8 38  1  0
  7 39  1  0
  7 40  1  0
  2 41  1  0
  1 42  1  0
  1 43  1  0
  1 44  1  0
 21 12  1  0
 33 28  1  0
 20 15  1  0
M  CHG  1   2   1
M  END
>  <plip>  (1) 
-0.06896551724137931

>  <filename>  (1) 
[H][c]1[n][c]([H])[c]([C]([H])([N]([H])[C](=[O])[c]2[c]([Cl])[c]3[c]([H])[c]([H])[c]([H])[c]([H])[c]3[n]2[H])[C]([H])([H])[N+]([H])([C]([H])([H])[H])[C]([H])([H])[H])[c]([H])[c]1[H]

$$$$
