
     RDKit          3D

 33 35  0  0  0  0  0  0  0  0999 V2000
    4.9743    1.7903   16.9271 H   0  0  0  0  0  0  0  0  0  0  0  0
    5.4176    1.3103   17.7985 C   0  0  0  0  0  0  0  0  0  0  0  0
    6.5926    0.6944   17.6037 N   0  0  0  0  0  0  0  0  0  0  0  0
    7.1716    0.1165   18.6647 C   0  0  0  0  0  0  0  0  0  0  0  0
    8.1206   -0.3769   18.4611 H   0  0  0  0  0  0  0  0  0  0  0  0
    6.6206    0.0995   19.9553 C   0  0  0  0  0  0  0  0  0  0  0  0
    7.3477   -0.6084   21.0841 C   0  0  2  0  0  0  0  0  0  0  0  0
    6.8735   -0.3215   22.0335 H   0  0  0  0  0  0  0  0  0  0  0  0
    8.7779   -0.2641   21.1460 N   0  0  0  0  0  0  0  0  0  0  0  0
    9.2472    0.9727   21.5469 C   0  0  0  0  0  0  0  0  0  0  0  0
    8.3271    1.7810   22.0650 N   0  0  0  0  0  0  0  0  0  0  0  0
    8.7115    2.9977   22.4729 C   0  0  0  0  0  0  0  0  0  0  0  0
    7.6114    3.8964   22.9755 C   0  0  0  0  0  0  0  0  0  0  0  0
    6.7115    3.3036   23.1493 H   0  0  0  0  0  0  0  0  0  0  0  0
    7.8834    4.4234   23.8950 H   0  0  0  0  0  0  0  0  0  0  0  0
    7.3713    4.6644   22.2322 H   0  0  0  0  0  0  0  0  0  0  0  0
   10.0415    3.4334   22.4077 C   0  0  0  0  0  0  0  0  0  0  0  0
   10.2914    4.4400   22.7343 H   0  0  0  0  0  0  0  0  0  0  0  0
   10.9984    2.5825   21.8399 C   0  0  0  0  0  0  0  0  0  0  0  0
   12.0472    2.8833   21.7574 H   0  0  0  0  0  0  0  0  0  0  0  0
   10.5999    1.3334   21.3850 C   0  0  0  0  0  0  0  0  0  0  0  0
   11.2767    0.6174   20.9518 H   0  0  0  0  0  0  0  0  0  0  0  0
    9.5967   -1.3680   21.1937 C   0  0  0  0  0  0  0  0  0  0  0  0
   10.8047   -1.4218   21.2673 O   0  0  0  0  0  0  0  0  0  0  0  0
    8.7850   -2.4561   21.1619 N   0  0  0  0  0  0  0  0  0  0  0  0
    9.2636   -3.2776   20.8464 H   0  0  0  0  0  0  0  0  0  0  0  0
    7.3829   -2.1555   20.9701 C   0  0  0  0  0  0  0  0  0  0  0  0
    6.9982   -2.5000   20.0024 H   0  0  0  0  0  0  0  0  0  0  0  0
    6.7761   -2.6304   21.7470 H   0  0  0  0  0  0  0  0  0  0  0  0
    5.3797    0.7369   20.1327 C   0  0  0  0  0  0  0  0  0  0  0  0
    4.8976    0.7611   21.1125 H   0  0  0  0  0  0  0  0  0  0  0  0
    4.7689    1.3490   19.0348 C   0  0  0  0  0  0  0  0  0  0  0  0
    3.8209    1.8678   19.1252 H   0  0  0  0  0  0  0  0  0  0  0  0
  1  2  1  0
  2  3  2  0
  3  4  1  0
  4  5  1  0
  4  6  2  0
  6  7  1  0
  7  8  1  1
  7  9  1  0
  9 10  1  0
 10 11  2  0
 11 12  1  0
 12 13  1  0
 13 14  1  0
 13 15  1  0
 13 16  1  0
 12 17  2  0
 17 18  1  0
 17 19  1  0
 19 20  1  0
 19 21  2  0
 21 22  1  0
  9 23  1  0
 23 24  2  0
 23 25  1  0
 25 26  1  0
 25 27  1  0
 27 28  1  0
 27 29  1  0
  6 30  1  0
 30 31  1  0
 30 32  2  0
 32 33  1  0
 32  2  1  0
 27  7  1  0
 21 10  1  0
M  END
>  <plip>  (1) 
-0.10344827586206896

>  <filename>  (1) 
[H][c]1[n][c]([H])[c]([C@]2([H])[N]([c]3[n][c]([C]([H])([H])[H])[c]([H])[c]([H])[c]3[H])[C](=[O])[N]([H])[C]2([H])[H])[c]([H])[c]1[H]

$$$$
