
     RDKit          3D

 33 34  0  0  0  0  0  0  0  0999 V2000
   10.3130   -1.4683   22.0639 C   0  0  0  0  0  0  0  0  0  0  0  0
    9.3608   -0.4883   22.6056 N   0  0  0  0  0  4  0  0  0  0  0  0
    8.5272    0.2251   21.5448 C   0  0  0  0  0  0  0  0  0  0  0  0
    7.4067   -0.6953   20.9846 C   0  0  0  0  0  0  0  0  0  0  0  0
    6.6285   -0.0269   19.8767 C   0  0  0  0  0  0  0  0  0  0  0  0
    5.4259    0.6438   20.1442 C   0  0  0  0  0  0  0  0  0  0  0  0
    4.7984    1.3184   19.0949 C   0  0  0  0  0  0  0  0  0  0  0  0
    5.3945    1.3026   17.8296 C   0  0  0  0  0  0  0  0  0  0  0  0
    6.5580    0.6883   17.5575 N   0  0  0  0  0  0  0  0  0  0  0  0
    7.1496    0.0567   18.5741 C   0  0  0  0  0  0  0  0  0  0  0  0
    8.1087   -0.4154   18.3578 H   0  0  0  0  0  0  0  0  0  0  0  0
    4.9139    1.7923   16.9873 H   0  0  0  0  0  0  0  0  0  0  0  0
    3.8668    1.8529   19.2486 H   0  0  0  0  0  0  0  0  0  0  0  0
    5.0221    0.6396   21.1635 H   0  0  0  0  0  0  0  0  0  0  0  0
    6.7386   -0.9601   21.8148 H   0  0  0  0  0  0  0  0  0  0  0  0
    7.8642   -1.6258   20.6186 H   0  0  0  0  0  0  0  0  0  0  0  0
    8.0035    1.5220   22.1282 C   0  0  0  0  0  0  0  0  0  0  0  0
    8.2120    2.7367   21.4506 C   0  0  0  0  0  0  0  0  0  0  0  0
    7.6534    3.9365   21.9013 C   0  0  0  0  0  0  0  0  0  0  0  0
    6.8586    3.9146   23.0454 C   0  0  0  0  0  0  0  0  0  0  0  0
    6.1653    5.3977   23.6290 Cl  0  0  0  0  0  0  0  0  0  0  0  0
    6.6119    2.7228   23.7315 C   0  0  0  0  0  0  0  0  0  0  0  0
    7.1817    1.5363   23.2633 C   0  0  0  0  0  0  0  0  0  0  0  0
    6.9524    0.6109   23.7877 H   0  0  0  0  0  0  0  0  0  0  0  0
    5.9915    2.7321   24.6213 H   0  0  0  0  0  0  0  0  0  0  0  0
    7.8231    4.8736   21.3725 H   0  0  0  0  0  0  0  0  0  0  0  0
    8.8085    2.7531   20.5426 H   0  0  0  0  0  0  0  0  0  0  0  0
    9.1946    0.4705   20.7175 H   0  0  0  0  0  0  0  0  0  0  0  0
    9.8303    0.2711   23.1566 H   0  0  0  0  0  0  0  0  0  0  0  0
    8.6561   -0.9363   23.2418 H   0  0  0  0  0  0  0  0  0  0  0  0
   10.9390   -1.9059   22.8460 H   0  0  0  0  0  0  0  0  0  0  0  0
   10.9699   -0.9995   21.3190 H   0  0  0  0  0  0  0  0  0  0  0  0
    9.8108   -2.2840   21.5257 H   0  0  0  0  0  0  0  0  0  0  0  0
  1  2  1  0
  2  3  1  0
  3  4  1  0
  4  5  1  0
  5  6  2  0
  6  7  1  0
  7  8  2  0
  8  9  1  0
  9 10  2  0
 10 11  1  0
  8 12  1  0
  7 13  1  0
  6 14  1  0
  4 15  1  0
  4 16  1  0
  3 17  1  0
 17 18  2  0
 18 19  1  0
 19 20  2  0
 20 21  1  0
 20 22  1  0
 22 23  2  0
 23 24  1  0
 22 25  1  0
 19 26  1  0
 18 27  1  0
  3 28  1  0
  2 29  1  0
  2 30  1  0
  1 31  1  0
  1 32  1  0
  1 33  1  0
 10  5  1  0
 23 17  1  0
M  CHG  1   2   1
M  END
>  <plip>  (1) 
-0.03571428571428571

>  <filename>  (1) 
[H][c]1[n][c]([H])[c]([C]([H])([H])[C]([H])([c]2[c]([H])[c]([H])[c]([Cl])[c]([H])[c]2[H])[N+]([H])([H])[C]([H])([H])[H])[c]([H])[c]1[H]

$$$$
