
     RDKit          3D

 40 41  0  0  0  0  0  0  0  0999 V2000
    4.8532    1.8582   17.0042 H   0  0  0  0  0  0  0  0  0  0  0  0
    5.3461    1.3255   17.8124 C   0  0  0  0  0  0  0  0  0  0  0  0
    6.4984    0.7076   17.5009 N   0  0  0  0  0  0  0  0  0  0  0  0
    7.1480    0.0785   18.4884 C   0  0  0  0  0  0  0  0  0  0  0  0
    8.0790   -0.4100   18.2223 H   0  0  0  0  0  0  0  0  0  0  0  0
    6.6890    0.0260   19.8284 C   0  0  0  0  0  0  0  0  0  0  0  0
    7.3790   -0.6165   20.8847 N   0  0  0  0  0  0  0  0  0  0  0  0
    6.8151   -0.7238   21.7205 H   0  0  0  0  0  0  0  0  0  0  0  0
    8.7622   -0.6571   21.0233 C   0  0  0  0  0  0  0  0  0  0  0  0
    9.4663   -0.0627   20.2246 O   0  0  0  0  0  0  0  0  0  0  0  0
    9.3767   -1.6178   22.1691 C   0  0  0  0  0  0  0  0  0  0  0  0
    9.3190   -1.1567   23.5887 N   0  0  0  0  0  0  0  0  0  0  0  0
    8.3666   -1.1725   23.9425 H   0  0  0  0  0  0  0  0  0  0  0  0
    9.8607    0.1068   23.8793 C   0  0  0  0  0  0  0  0  0  0  0  0
   11.2313    0.2381   24.0999 C   0  0  0  0  0  0  0  0  0  0  0  0
   11.8500   -0.6230   23.9371 H   0  0  0  0  0  0  0  0  0  0  0  0
   11.8090    1.4613   24.4279 C   0  0  0  0  0  0  0  0  0  0  0  0
   12.8792    1.5171   24.6163 H   0  0  0  0  0  0  0  0  0  0  0  0
   11.0064    2.6051   24.4557 C   0  0  0  0  0  0  0  0  0  0  0  0
   11.4593    3.5800   24.6178 H   0  0  0  0  0  0  0  0  0  0  0  0
    9.6374    2.4965   24.2122 C   0  0  0  0  0  0  0  0  0  0  0  0
    9.0258    3.3970   24.2420 H   0  0  0  0  0  0  0  0  0  0  0  0
    9.0360    1.2483   23.9277 C   0  0  0  0  0  0  0  0  0  0  0  0
    7.5825    1.1185   23.6091 C   0  0  0  0  0  0  0  0  0  0  0  0
    6.9061    0.1027   23.7320 O   0  0  0  0  0  0  0  0  0  0  0  0
    6.9767    2.2478   23.1420 N   0  0  0  0  0  0  0  0  0  0  0  0
    6.0580    2.0507   22.7764 H   0  0  0  0  0  0  0  0  0  0  0  0
    7.5633    2.8254   22.5651 H   0  0  0  0  0  0  0  0  0  0  0  0
   10.8436   -1.8584   21.8040 C   0  0  0  0  0  0  0  0  0  0  0  0
   11.3072   -2.5513   22.5138 H   0  0  0  0  0  0  0  0  0  0  0  0
   10.8821   -2.2845   20.8058 H   0  0  0  0  0  0  0  0  0  0  0  0
   11.4026   -0.9192   21.7614 H   0  0  0  0  0  0  0  0  0  0  0  0
    8.6460   -2.9699   22.1800 C   0  0  0  0  0  0  0  0  0  0  0  0
    7.6186   -2.8820   22.5523 H   0  0  0  0  0  0  0  0  0  0  0  0
    8.6161   -3.4131   21.1789 H   0  0  0  0  0  0  0  0  0  0  0  0
    9.1836   -3.6516   22.8465 H   0  0  0  0  0  0  0  0  0  0  0  0
    5.4614    0.6311   20.1204 C   0  0  0  0  0  0  0  0  0  0  0  0
    5.0637    0.5737   21.1370 H   0  0  0  0  0  0  0  0  0  0  0  0
    4.7876    1.3051   19.0953 C   0  0  0  0  0  0  0  0  0  0  0  0
    3.8530    1.8223   19.2844 H   0  0  0  0  0  0  0  0  0  0  0  0
  1  2  1  0
  2  3  2  0
  3  4  1  0
  4  5  1  0
  4  6  2  0
  6  7  1  0
  7  8  1  0
  7  9  1  0
  9 10  2  0
  9 11  1  0
 11 12  1  0
 12 13  1  0
 12 14  1  0
 14 15  2  0
 15 16  1  0
 15 17  1  0
 17 18  1  0
 17 19  2  0
 19 20  1  0
 19 21  1  0
 21 22  1  0
 21 23  2  0
 23 24  1  0
 24 25  2  0
 24 26  1  0
 26 27  1  0
 26 28  1  0
 11 29  1  0
 29 30  1  0
 29 31  1  0
 29 32  1  0
 11 33  1  0
 33 34  1  0
 33 35  1  0
 33 36  1  0
  6 37  1  0
 37 38  1  0
 37 39  2  0
 39 40  1  0
 39  2  1  0
 23 14  1  0
M  END
>  <plip>  (1) 
-0.10344827586206896

>  <filename>  (1) 
[H][c]1[n][c]([H])[c]([N]([H])[C](=[O])[C]([N]([H])[c]2[c]([H])[c]([H])[c]([H])[c]([H])[c]2[C](=[O])[N]([H])[H])([C]([H])([H])[H])[C]([H])([H])[H])[c]([H])[c]1[H]

$$$$
