
     RDKit          3D

 27 28  0  0  0  0  0  0  0  0999 V2000
    5.0713    1.7027   16.9390 H   0  0  0  0  0  0  0  0  0  0  0  0
    5.4850    1.2347   17.8305 C   0  0  0  0  0  0  0  0  0  0  0  0
    6.6619    0.6063   17.6794 N   0  0  0  0  0  0  0  0  0  0  0  0
    7.1971    0.0372   18.7677 C   0  0  0  0  0  0  0  0  0  0  0  0
    8.1689   -0.4413   18.6387 H   0  0  0  0  0  0  0  0  0  0  0  0
    6.5993    0.0465   20.0406 C   0  0  0  0  0  0  0  0  0  0  0  0
    7.2619   -0.5553   21.2258 C   0  0  0  0  0  0  0  0  0  0  0  0
    7.6523   -1.9423   21.2928 C   0  0  0  0  0  0  0  0  0  0  0  0
    7.4695   -2.5843   20.4431 H   0  0  0  0  0  0  0  0  0  0  0  0
    8.2344   -2.4706   22.3297 N   0  0  0  0  0  0  0  0  0  0  0  0
    8.4752   -1.6823   23.3965 N   0  0  0  0  0  0  0  0  0  0  0  0
    9.2291   -2.4195   24.3507 N   0  0  0  0  0  0  0  0  0  0  0  0
    9.4694   -3.3115   23.9258 H   0  0  0  0  0  0  0  0  0  0  0  0
    8.5267   -3.1174   25.7307 S   0  0  0  0  0  0  0  0  0  0  0  0
    9.1285   -2.5823   26.9283 O   0  0  0  0  0  0  0  0  0  0  0  0
    7.1367   -3.4858   25.6378 O   0  0  0  0  0  0  0  0  0  0  0  0
    9.3466   -4.5064   25.3992 N   0  0  0  0  0  0  0  0  0  0  0  0
   10.2442   -4.2730   25.8198 H   0  0  0  0  0  0  0  0  0  0  0  0
    8.8583   -5.1285   26.0409 H   0  0  0  0  0  0  0  0  0  0  0  0
    8.2488   -0.2183   23.4649 C   0  0  0  0  0  0  0  0  0  0  0  0
    8.5911    0.4627   24.3984 O   0  0  0  0  0  0  0  0  0  0  0  0
    7.5402    0.2425   22.2954 C   0  0  0  0  0  0  0  0  0  0  0  0
    7.2894    1.2949   22.3179 H   0  0  0  0  0  0  0  0  0  0  0  0
    5.3759    0.7199   20.1743 C   0  0  0  0  0  0  0  0  0  0  0  0
    4.8977    0.7730   21.1539 H   0  0  0  0  0  0  0  0  0  0  0  0
    4.8025    1.3086   19.0497 C   0  0  0  0  0  0  0  0  0  0  0  0
    3.8650    1.8470   19.1168 H   0  0  0  0  0  0  0  0  0  0  0  0
  1  2  1  0
  2  3  2  0
  3  4  1  0
  4  5  1  0
  4  6  2  0
  6  7  1  0
  7  8  1  0
  8  9  1  0
  8 10  2  0
 10 11  1  0
 11 12  1  0
 12 13  1  0
 12 14  1  0
 14 15  2  0
 14 16  2  0
 14 17  1  0
 17 18  1  0
 17 19  1  0
 11 20  1  0
 20 21  2  0
 20 22  1  0
 22 23  1  0
  6 24  1  0
 24 25  1  0
 24 26  2  0
 26 27  1  0
 26  2  1  0
 22  7  2  0
M  END
>  <plip>  (1) 
-0.034482758620689655

>  <filename>  (1) 
[H][c]1[n][c]([H])[c](-[c]2[c]([H])[n][n]([N]([H])[S](=[O])(=[O])[N]([H])[H])[c](=[O])[c]2[H])[c]([H])[c]1[H]

$$$$
