
     RDKit          3D

 34 36  0  0  0  0  0  0  0  0999 V2000
    4.9429    1.8509   16.7581 H   0  0  0  0  0  0  0  0  0  0  0  0
    5.3075    1.3975   17.6772 C   0  0  0  0  0  0  0  0  0  0  0  0
    6.4559    0.7122   17.5746 N   0  0  0  0  0  0  0  0  0  0  0  0
    6.9523    0.1742   18.6968 C   0  0  0  0  0  0  0  0  0  0  0  0
    7.8690   -0.4018   18.5710 H   0  0  0  0  0  0  0  0  0  0  0  0
    6.3656    0.3128   19.9666 C   0  0  0  0  0  0  0  0  0  0  0  0
    7.0412   -0.2813   21.1897 C   0  0  1  0  0  0  0  0  0  0  0  0
    6.3790   -0.1344   22.0586 H   0  0  0  0  0  0  0  0  0  0  0  0
    7.3520   -1.6896   21.0207 N   0  0  0  0  0  0  0  0  0  0  0  0
    6.4383   -2.6951   20.5253 C   0  0  0  0  0  0  0  0  0  0  0  0
    5.4048   -2.3922   20.7332 H   0  0  0  0  0  0  0  0  0  0  0  0
    6.5220   -2.7761   19.4392 H   0  0  0  0  0  0  0  0  0  0  0  0
    6.6958   -3.9749   21.0399 O   0  0  0  0  0  0  0  0  0  0  0  0
    6.5994   -4.1694   22.3931 C   0  0  0  0  0  0  0  0  0  0  0  0
    7.4027   -5.1652   22.9557 C   0  0  0  0  0  0  0  0  0  0  0  0
    8.1306   -5.6645   22.3207 H   0  0  0  0  0  0  0  0  0  0  0  0
    7.2815   -5.4426   24.3217 C   0  0  0  0  0  0  0  0  0  0  0  0
    7.8975   -6.2157   24.7623 H   0  0  0  0  0  0  0  0  0  0  0  0
    6.3704   -4.7412   25.1258 C   0  0  0  0  0  0  0  0  0  0  0  0
    6.2624   -4.9607   26.1868 H   0  0  0  0  0  0  0  0  0  0  0  0
    5.5944   -3.7384   24.5512 C   0  0  0  0  0  0  0  0  0  0  0  0
    4.9060   -3.1578   25.1606 H   0  0  0  0  0  0  0  0  0  0  0  0
    5.7361   -3.4281   23.1997 C   0  0  0  0  0  0  0  0  0  0  0  0
    5.2621   -2.5727   22.7554 H   0  0  0  0  0  0  0  0  0  0  0  0
    8.6916   -1.9672   21.1546 C   0  0  0  0  0  0  0  0  0  0  0  0
    9.2495   -3.0191   21.0216 O   0  0  0  0  0  0  0  0  0  0  0  0
    9.3446   -0.8201   21.4695 O   0  0  0  0  0  0  0  0  0  0  0  0
    8.4469    0.2836   21.5400 C   0  0  0  0  0  0  0  0  0  0  0  0
    8.4919    0.6844   22.5577 H   0  0  0  0  0  0  0  0  0  0  0  0
    8.8022    1.0537   20.8464 H   0  0  0  0  0  0  0  0  0  0  0  0
    5.1321    0.9775   20.0384 C   0  0  0  0  0  0  0  0  0  0  0  0
    4.5971    1.0520   20.9876 H   0  0  0  0  0  0  0  0  0  0  0  0
    4.5952    1.5331   18.8725 C   0  0  0  0  0  0  0  0  0  0  0  0
    3.6565    2.0792   18.8778 H   0  0  0  0  0  0  0  0  0  0  0  0
  1  2  1  0
  2  3  2  0
  3  4  1  0
  4  5  1  0
  4  6  2  0
  6  7  1  0
  7  8  1  1
  7  9  1  0
  9 10  1  0
 10 11  1  0
 10 12  1  0
 10 13  1  0
 13 14  1  0
 14 15  2  0
 15 16  1  0
 15 17  1  0
 17 18  1  0
 17 19  2  0
 19 20  1  0
 19 21  1  0
 21 22  1  0
 21 23  2  0
 23 24  1  0
  9 25  1  0
 25 26  2  0
 25 27  1  0
 27 28  1  0
 28 29  1  0
 28 30  1  0
  6 31  1  0
 31 32  1  0
 31 33  2  0
 33 34  1  0
 33  2  1  0
 28  7  1  0
 23 14  1  0
M  END
>  <plip>  (1) 
-0.1

>  <filename>  (1) 
[H][c]1[n][c]([H])[c]([C@@]2([H])[N]([C]([H])([H])[O][c]3[c]([H])[c]([H])[c]([H])[c]([H])[c]3[H])[C](=[O])[O][C]2([H])[H])[c]([H])[c]1[H]

$$$$
