
     RDKit          3D

 30 32  0  0  0  0  0  0  0  0999 V2000
    6.4633    1.4604   24.1815 H   0  0  0  0  0  0  0  0  0  0  0  0
    6.9735    0.9624   25.0017 C   0  0  0  0  0  0  0  0  0  0  0  0
    6.8444    1.4908   26.2280 N   0  0  0  0  0  0  0  0  0  0  0  0
    7.4940    0.8407   27.2110 C   0  0  0  0  0  0  0  0  0  0  0  0
    7.2602    1.4215   28.4022 N   0  0  0  0  0  0  0  0  0  0  0  0
    6.7063    2.2509   28.2653 H   0  0  0  0  0  0  0  0  0  0  0  0
    7.7177    1.1847   29.2572 H   0  0  0  0  0  0  0  0  0  0  0  0
    8.2884   -0.3286   26.9738 C   0  0  0  0  0  0  0  0  0  0  0  0
    8.7968   -0.8153   27.8047 H   0  0  0  0  0  0  0  0  0  0  0  0
    8.4056   -0.8416   25.7526 N   0  0  0  0  0  0  0  0  0  0  0  0
    7.7360   -0.1922   24.7494 C   0  0  0  0  0  0  0  0  0  0  0  0
    7.8459   -0.7278   23.3714 C   0  0  0  0  0  0  0  0  0  0  0  0
    7.2040   -0.0717   22.3831 N   0  0  0  0  0  0  0  0  0  0  0  0
    7.3641   -0.5258   21.1334 C   0  0  0  0  0  0  0  0  0  0  0  0
    6.6239    0.1432   20.0364 C   0  0  0  0  0  0  0  0  0  0  0  0
    7.1670    0.1142   18.7398 C   0  0  0  0  0  0  0  0  0  0  0  0
    8.1190   -0.3800   18.5445 H   0  0  0  0  0  0  0  0  0  0  0  0
    6.5899    0.6656   17.6736 N   0  0  0  0  0  0  0  0  0  0  0  0
    5.4144    1.2795   17.8709 C   0  0  0  0  0  0  0  0  0  0  0  0
    4.9856    1.7495   16.9928 H   0  0  0  0  0  0  0  0  0  0  0  0
    4.7652    1.3389   19.1088 C   0  0  0  0  0  0  0  0  0  0  0  0
    3.8118    1.8475   19.1889 H   0  0  0  0  0  0  0  0  0  0  0  0
    5.3762    0.7602   20.2202 C   0  0  0  0  0  0  0  0  0  0  0  0
    4.9047    0.7664   21.2078 H   0  0  0  0  0  0  0  0  0  0  0  0
    8.1684   -1.6337   20.8441 C   0  0  0  0  0  0  0  0  0  0  0  0
    8.3013   -1.8925   19.8172 H   0  0  0  0  0  0  0  0  0  0  0  0
    8.7617   -2.3669   21.8617 C   0  0  0  0  0  0  0  0  0  0  0  0
    9.3264   -3.2741   21.6583 H   0  0  0  0  0  0  0  0  0  0  0  0
    8.6070   -1.8912   23.1544 C   0  0  0  0  0  0  0  0  0  0  0  0
    9.0754   -2.3809   23.9980 H   0  0  0  0  0  0  0  0  0  0  0  0
  1  2  1  0
  2  3  2  0
  3  4  1  0
  4  5  1  0
  5  6  1  0
  5  7  1  0
  4  8  2  0
  8  9  1  0
  8 10  1  0
 10 11  2  0
 11 12  1  0
 12 13  2  0
 13 14  1  0
 14 15  1  0
 15 16  2  0
 16 17  1  0
 16 18  1  0
 18 19  2  0
 19 20  1  0
 19 21  1  0
 21 22  1  0
 21 23  2  0
 23 24  1  0
 14 25  2  0
 25 26  1  0
 25 27  1  0
 27 28  1  0
 27 29  2  0
 29 30  1  0
 11  2  1  0
 29 12  1  0
 23 15  1  0
M  END
>  <plip>  (1) 
-0.03571428571428571

>  <filename>  (1) 
[H][c]1[n][c]([N]([H])[H])[c]([H])[n][c]1-[c]1[n][c](-[c]2[c]([H])[n][c]([H])[c]([H])[c]2[H])[c]([H])[c]([H])[c]1[H]

$$$$
