
     RDKit          3D

 23 24  0  0  0  0  0  0  0  0999 V2000
    7.6120   -1.7914   20.7050 H   0  0  0  0  0  0  0  0  0  0  0  0
    7.3728   -0.7543   20.9210 C   0  0  0  0  0  0  0  0  0  0  0  0
    7.7613   -0.2223   22.1321 C   0  0  0  0  0  0  0  0  0  0  0  0
    7.4508    1.6372   22.5046 Br  0  0  0  0  0  0  0  0  0  0  0  0
    8.4307   -1.0157   23.0791 N   0  0  0  0  0  0  0  0  0  0  0  0
    9.1375   -2.1983   22.8327 C   0  0  0  0  0  0  0  0  0  0  0  0
    9.2803   -2.6645   21.8588 H   0  0  0  0  0  0  0  0  0  0  0  0
    9.6482   -2.6490   24.0234 C   0  0  0  0  0  0  0  0  0  0  0  0
   10.2609   -3.5381   24.1799 H   0  0  0  0  0  0  0  0  0  0  0  0
    9.2382   -1.7125   25.0509 C   0  0  0  0  0  0  0  0  0  0  0  0
    9.4737   -1.7797   26.1131 H   0  0  0  0  0  0  0  0  0  0  0  0
    8.5030   -0.7294   24.4420 C   0  0  0  0  0  0  0  0  0  0  0  0
    8.0385    0.1260   24.9275 H   0  0  0  0  0  0  0  0  0  0  0  0
    6.6620    0.0066   19.8883 C   0  0  0  0  0  0  0  0  0  0  0  0
    7.1769    0.0536   18.5805 C   0  0  0  0  0  0  0  0  0  0  0  0
    8.1241   -0.4429   18.3915 H   0  0  0  0  0  0  0  0  0  0  0  0
    6.5646    0.6815   17.5626 N   0  0  0  0  0  0  0  0  0  0  0  0
    5.4017    1.2986   17.8278 C   0  0  0  0  0  0  0  0  0  0  0  0
    4.8856    1.7962   17.0123 H   0  0  0  0  0  0  0  0  0  0  0  0
    4.8231    1.3131   19.1067 C   0  0  0  0  0  0  0  0  0  0  0  0
    3.8829    1.8333   19.2616 H   0  0  0  0  0  0  0  0  0  0  0  0
    5.4572    0.6586   20.1649 C   0  0  0  0  0  0  0  0  0  0  0  0
    5.0167    0.6332   21.1641 H   0  0  0  0  0  0  0  0  0  0  0  0
  1  2  1  0
  2  3  2  3
  3  4  1  0
  3  5  1  0
  5  6  1  0
  6  7  1  0
  6  8  2  0
  8  9  1  0
  8 10  1  0
 10 11  1  0
 10 12  2  0
 12 13  1  0
  2 14  1  0
 14 15  2  0
 15 16  1  0
 15 17  1  0
 17 18  2  0
 18 19  1  0
 18 20  1  0
 20 21  1  0
 20 22  2  0
 22 23  1  0
 12  5  1  0
 22 14  1  0
M  END
>  <plip>  (1) 
-0.03571428571428571

>  <filename>  (1) 
[H][C](=[C]([Br])[n]1[c]([H])[c]([H])[c]([H])[c]1[H])[c]1[c]([H])[n][c]([H])[c]([H])[c]1[H]

$$$$
