
     RDKit          3D

 32 33  0  0  0  0  0  0  0  0999 V2000
    5.9477   -0.9548   22.2697 H   0  0  0  0  0  0  0  0  0  0  0  0
    7.0032   -1.0728   21.9882 C   0  0  0  0  0  0  0  0  0  0  0  0
    7.4510   -0.6810   20.8588 N   0  0  0  0  0  0  0  0  0  0  0  0
    6.6648   -0.0091   19.9001 C   0  0  0  0  0  0  0  0  0  0  0  0
    7.1701    0.0489   18.5742 C   0  0  0  0  0  0  0  0  0  0  0  0
    8.1208   -0.4459   18.3769 H   0  0  0  0  0  0  0  0  0  0  0  0
    6.5628    0.6685   17.5614 N   0  0  0  0  0  0  0  0  0  0  0  0
    5.3976    1.2936   17.8316 C   0  0  0  0  0  0  0  0  0  0  0  0
    4.9280    1.8093   16.9997 H   0  0  0  0  0  0  0  0  0  0  0  0
    4.8089    1.2982   19.0983 C   0  0  0  0  0  0  0  0  0  0  0  0
    3.8740    1.8275   19.2524 H   0  0  0  0  0  0  0  0  0  0  0  0
    5.4446    0.6375   20.1548 C   0  0  0  0  0  0  0  0  0  0  0  0
    5.0231    0.6523   21.1594 H   0  0  0  0  0  0  0  0  0  0  0  0
    7.8565   -1.7698   22.9808 C   0  0  0  0  0  0  0  0  0  0  0  0
    7.3382   -2.2417   24.1908 C   0  0  0  0  0  0  0  0  0  0  0  0
    6.2910   -2.0875   24.4550 H   0  0  0  0  0  0  0  0  0  0  0  0
    8.1652   -2.9358   25.0833 C   0  0  0  0  0  0  0  0  0  0  0  0
    7.7622   -3.2752   26.0325 H   0  0  0  0  0  0  0  0  0  0  0  0
    9.5102   -3.2136   24.7762 C   0  0  0  0  0  0  0  0  0  0  0  0
   10.3424   -3.9417   25.5652 O   0  0  0  0  0  0  0  0  0  0  0  0
    9.8960   -4.3734   26.8347 C   0  0  0  0  0  0  0  0  0  0  0  0
   10.7508   -4.8324   27.3324 H   0  0  0  0  0  0  0  0  0  0  0  0
    9.0925   -5.1150   26.7500 H   0  0  0  0  0  0  0  0  0  0  0  0
    9.5441   -3.5289   27.4381 H   0  0  0  0  0  0  0  0  0  0  0  0
   10.0518   -2.7234   23.5455 C   0  0  0  0  0  0  0  0  0  0  0  0
   11.3398   -3.0400   23.2107 O   0  0  0  0  0  0  0  0  0  0  0  0
   11.9937   -2.2051   22.2667 C   0  0  0  0  0  0  0  0  0  0  0  0
   13.0064   -2.5876   22.1519 H   0  0  0  0  0  0  0  0  0  0  0  0
   11.5112   -2.2323   21.2845 H   0  0  0  0  0  0  0  0  0  0  0  0
   12.0173   -1.1648   22.6192 H   0  0  0  0  0  0  0  0  0  0  0  0
    9.2211   -1.9930   22.7027 C   0  0  0  0  0  0  0  0  0  0  0  0
    9.6231   -1.5928   21.7789 H   0  0  0  0  0  0  0  0  0  0  0  0
  1  2  1  0
  2  3  2  3
  3  4  1  0
  4  5  2  0
  5  6  1  0
  5  7  1  0
  7  8  2  0
  8  9  1  0
  8 10  1  0
 10 11  1  0
 10 12  2  0
 12 13  1  0
  2 14  1  0
 14 15  2  0
 15 16  1  0
 15 17  1  0
 17 18  1  0
 17 19  2  0
 19 20  1  0
 20 21  1  0
 21 22  1  0
 21 23  1  0
 21 24  1  0
 19 25  1  0
 25 26  1  0
 26 27  1  0
 27 28  1  0
 27 29  1  0
 27 30  1  0
 25 31  2  0
 31 32  1  0
 12  4  1  0
 31 14  1  0
M  END
>  <plip>  (1) 
-0.0

>  <filename>  (1) 
[H][C](=[N][c]1[c]([H])[n][c]([H])[c]([H])[c]1[H])[c]1[c]([H])[c]([H])[c]([O][C]([H])([H])[H])[c]([O][C]([H])([H])[H])[c]1[H]

$$$$
