
     RDKit          3D

 43 44  0  0  0  0  0  0  0  0999 V2000
    5.6001   -3.1231   21.6381 C   0  0  0  0  0  0  0  0  0  0  0  0
    6.6897   -2.9664   20.5864 C   0  0  0  0  0  0  0  0  0  0  0  0
    7.7676   -1.9352   20.9430 C   0  0  0  0  0  0  0  0  0  0  0  0
    7.2855   -0.5411   21.0747 N   0  0  0  0  0  0  0  0  0  0  0  0
    7.3041    0.0368   22.3631 C   0  0  0  0  0  0  0  0  0  0  0  0
    7.0498   -0.6053   23.3635 O   0  0  0  0  0  0  0  0  0  0  0  0
    7.8015    1.5212   22.4669 C   0  0  0  0  0  0  0  0  0  0  0  0
    9.3083    1.6707   22.7149 N   0  0  0  0  0  4  0  0  0  0  0  0
   10.0777    1.2200   21.4989 C   0  0  0  0  0  0  0  0  0  0  0  0
   11.3935    1.9888   21.5117 C   0  0  0  0  0  0  0  0  0  0  0  0
   12.0089    2.1124   23.1841 S   0  0  0  0  0  0  0  0  0  0  0  0
   11.3789    3.3131   23.7484 O   0  0  0  0  0  0  0  0  0  0  0  0
   13.4467    1.8906   23.2048 O   0  0  0  0  0  0  0  0  0  0  0  0
   11.2255    0.7420   24.0140 C   0  0  0  0  0  0  0  0  0  0  0  0
    9.7190    1.0119   24.0449 C   0  0  0  0  0  0  0  0  0  0  0  0
    9.4560    1.7127   24.8518 H   0  0  0  0  0  0  0  0  0  0  0  0
    9.1112    0.1134   24.2011 H   0  0  0  0  0  0  0  0  0  0  0  0
   11.6929    0.7618   24.9964 H   0  0  0  0  0  0  0  0  0  0  0  0
   11.5152   -0.1658   23.4759 H   0  0  0  0  0  0  0  0  0  0  0  0
   12.1848    1.5615   20.9067 H   0  0  0  0  0  0  0  0  0  0  0  0
   11.2627    3.0396   21.2445 H   0  0  0  0  0  0  0  0  0  0  0  0
    9.4900    1.4328   20.5957 H   0  0  0  0  0  0  0  0  0  0  0  0
   10.1970    0.1270   21.5236 H   0  0  0  0  0  0  0  0  0  0  0  0
    9.6058    2.6645   22.8710 H   0  0  0  0  0  0  0  0  0  0  0  0
    7.2297    1.9706   23.2829 H   0  0  0  0  0  0  0  0  0  0  0  0
    7.5375    2.0317   21.5337 H   0  0  0  0  0  0  0  0  0  0  0  0
    6.6726    0.0867   19.9432 C   0  0  0  0  0  0  0  0  0  0  0  0
    5.4608    0.7798   20.1109 C   0  0  0  0  0  0  0  0  0  0  0  0
    4.8734    1.3910   19.0021 C   0  0  0  0  0  0  0  0  0  0  0  0
    5.4941    1.2873   17.7550 C   0  0  0  0  0  0  0  0  0  0  0  0
    6.6381    0.6138   17.5659 N   0  0  0  0  0  0  0  0  0  0  0  0
    7.1990    0.0200   18.6292 C   0  0  0  0  0  0  0  0  0  0  0  0
    8.1257   -0.5204   18.4386 H   0  0  0  0  0  0  0  0  0  0  0  0
    5.0610    1.7590   16.8750 H   0  0  0  0  0  0  0  0  0  0  0  0
    3.9548    1.9568   19.0997 H   0  0  0  0  0  0  0  0  0  0  0  0
    4.9887    0.8172   21.0945 H   0  0  0  0  0  0  0  0  0  0  0  0
    8.2386   -2.2164   21.8930 H   0  0  0  0  0  0  0  0  0  0  0  0
    8.5571   -1.9561   20.1796 H   0  0  0  0  0  0  0  0  0  0  0  0
    7.1977   -3.9334   20.4536 H   0  0  0  0  0  0  0  0  0  0  0  0
    6.2454   -2.7032   19.6150 H   0  0  0  0  0  0  0  0  0  0  0  0
    5.0607   -2.1843   21.7642 H   0  0  0  0  0  0  0  0  0  0  0  0
    6.0198   -3.4038   22.6115 H   0  0  0  0  0  0  0  0  0  0  0  0
    4.8819   -3.8942   21.3460 H   0  0  0  0  0  0  0  0  0  0  0  0
  1  2  1  0
  2  3  1  0
  3  4  1  0
  4  5  1  0
  5  6  2  0
  5  7  1  0
  7  8  1  0
  8  9  1  0
  9 10  1  0
 10 11  1  0
 11 12  2  0
 11 13  2  0
 11 14  1  0
 14 15  1  0
 15 16  1  0
 15 17  1  0
 14 18  1  0
 14 19  1  0
 10 20  1  0
 10 21  1  0
  9 22  1  0
  9 23  1  0
  8 24  1  0
  7 25  1  0
  7 26  1  0
  4 27  1  0
 27 28  2  0
 28 29  1  0
 29 30  2  0
 30 31  1  0
 31 32  2  0
 32 33  1  0
 30 34  1  0
 29 35  1  0
 28 36  1  0
  3 37  1  0
  3 38  1  0
  2 39  1  0
  2 40  1  0
  1 41  1  0
  1 42  1  0
  1 43  1  0
 15  8  1  0
 32 27  1  0
M  CHG  1   8   1
M  END
>  <plip>  (1) 
-0.06896551724137931

>  <filename>  (1) 
[H][c]1[n][c]([H])[c]([N]([C](=[O])[C]([H])([H])[N+]2([H])[C]([H])([H])[C]([H])([H])[S](=[O])(=[O])[C]([H])([H])[C]2([H])[H])[C]([H])([H])[C]([H])([H])[C]([H])([H])[H])[c]([H])[c]1[H]

$$$$
