
     RDKit          3D

 41 43  0  0  0  0  0  0  0  0999 V2000
   13.5628    3.7949   22.3662 C   0  0  0  0  0  0  0  0  0  0  0  0
   12.5232    4.5485   23.1430 C   0  0  0  0  0  0  0  0  0  0  0  0
   12.9047    5.6376   23.9140 C   0  0  0  0  0  0  0  0  0  0  0  0
   11.9590    6.3869   24.6097 C   0  0  0  0  0  0  0  0  0  0  0  0
   10.6549    6.0856   24.5959 N   0  0  0  0  0  0  0  0  0  0  0  0
   10.2831    5.0290   23.8678 C   0  0  0  0  0  0  0  0  0  0  0  0
   11.1535    4.2237   23.1165 C   0  0  0  0  0  0  0  0  0  0  0  0
   10.6666    3.1043   22.3079 C   0  0  0  0  0  0  0  0  0  0  0  0
    9.5817    2.3797   22.5882 C   0  0  0  0  0  0  0  0  0  0  0  0
    9.1418    1.3223   21.6566 C   0  0  0  0  0  0  0  0  0  0  0  0
    9.7209    1.0618   20.6087 O   0  0  0  0  0  0  0  0  0  0  0  0
    8.0448    0.6362   22.0597 N   0  0  0  0  0  0  0  0  0  0  0  0
    7.4133   -0.3805   21.2410 C   0  0  0  0  0  0  0  0  0  0  0  0
    6.6653    0.2397   20.0699 C   0  0  0  0  0  0  0  0  0  0  0  0
    5.3915    0.8188   20.2073 C   0  0  0  0  0  0  0  0  0  0  0  0
    4.7745    1.3633   19.0786 C   0  0  0  0  0  0  0  0  0  0  0  0
    5.4494    1.3125   17.8533 C   0  0  0  0  0  0  0  0  0  0  0  0
    6.6750    0.7929   17.7029 N   0  0  0  0  0  0  0  0  0  0  0  0
    7.2620    0.2963   18.7997 C   0  0  0  0  0  0  0  0  0  0  0  0
    8.2691   -0.0978   18.6597 H   0  0  0  0  0  0  0  0  0  0  0  0
    4.9872    1.7035   16.9501 H   0  0  0  0  0  0  0  0  0  0  0  0
    3.7949    1.8289   19.1298 H   0  0  0  0  0  0  0  0  0  0  0  0
    4.8928    0.8444   21.1803 H   0  0  0  0  0  0  0  0  0  0  0  0
    8.3723   -1.5535   20.8777 C   0  0  0  0  0  0  0  0  0  0  0  0
    7.5171   -2.5382   21.7124 C   0  0  0  0  0  0  0  0  0  0  0  0
    6.5808   -1.3608   22.0958 C   0  0  0  0  0  0  0  0  0  0  0  0
    5.5713   -1.4920   21.7043 H   0  0  0  0  0  0  0  0  0  0  0  0
    6.5444   -1.0815   23.1569 H   0  0  0  0  0  0  0  0  0  0  0  0
    8.0424   -3.0067   22.5524 H   0  0  0  0  0  0  0  0  0  0  0  0
    7.0312   -3.3317   21.1292 H   0  0  0  0  0  0  0  0  0  0  0  0
    8.4376   -1.7520   19.8120 H   0  0  0  0  0  0  0  0  0  0  0  0
    9.3891   -1.3953   21.2362 H   0  0  0  0  0  0  0  0  0  0  0  0
    7.5885    0.9258   22.9048 H   0  0  0  0  0  0  0  0  0  0  0  0
    9.0315    2.5144   23.5173 H   0  0  0  0  0  0  0  0  0  0  0  0
   11.2380    2.8600   21.4060 H   0  0  0  0  0  0  0  0  0  0  0  0
    9.2183    4.8136   23.8389 H   0  0  0  0  0  0  0  0  0  0  0  0
   12.2560    7.2642   25.1862 H   0  0  0  0  0  0  0  0  0  0  0  0
   13.9475    5.8890   23.9372 H   0  0  0  0  0  0  0  0  0  0  0  0
   13.4931    4.0226   21.2962 H   0  0  0  0  0  0  0  0  0  0  0  0
   14.5534    4.0924   22.7110 H   0  0  0  0  0  0  0  0  0  0  0  0
   13.4803    2.7143   22.5050 H   0  0  0  0  0  0  0  0  0  0  0  0
  1  2  1  0
  2  3  2  0
  3  4  1  0
  4  5  2  0
  5  6  1  0
  6  7  2  0
  7  8  1  0
  8  9  2  3
  9 10  1  0
 10 11  2  0
 10 12  1  0
 12 13  1  0
 13 14  1  0
 14 15  2  0
 15 16  1  0
 16 17  2  0
 17 18  1  0
 18 19  2  0
 19 20  1  0
 17 21  1  0
 16 22  1  0
 15 23  1  0
 13 24  1  0
 24 25  1  0
 25 26  1  0
 26 27  1  0
 26 28  1  0
 25 29  1  0
 25 30  1  0
 24 31  1  0
 24 32  1  0
 12 33  1  0
  9 34  1  0
  8 35  1  0
  6 36  1  0
  4 37  1  0
  3 38  1  0
  1 39  1  0
  1 40  1  0
  1 41  1  0
  7  2  1  0
 26 13  1  0
 19 14  1  0
M  END
>  <plip>  (1) 
-0.07142857142857142

>  <filename>  (1) 
[H][C]([C](=[O])[N]([H])[C]1([c]2[c]([H])[n][c]([H])[c]([H])[c]2[H])[C]([H])([H])[C]([H])([H])[C]1([H])[H])=[C]([H])[c]1[c]([H])[n][c]([H])[c]([H])[c]1[C]([H])([H])[H]

$$$$
