
     RDKit          3D

 36 37  0  0  0  0  0  0  0  0999 V2000
    3.1472   -4.9291   23.3861 C   0  0  0  0  0  0  0  0  0  0  0  0
    4.4299   -5.6403   23.0339 C   0  0  0  0  0  0  0  0  0  0  0  0
    4.5326   -7.0211   23.2540 C   0  0  0  0  0  0  0  0  0  0  0  0
    5.7048   -7.7280   22.9659 C   0  0  0  0  0  0  0  0  0  0  0  0
    6.8276   -7.0461   22.4951 C   0  0  0  0  0  0  0  0  0  0  0  0
    6.7388   -5.6820   22.2400 C   0  0  0  0  0  0  0  0  0  0  0  0
    5.5447   -4.9893   22.4675 C   0  0  0  0  0  0  0  0  0  0  0  0
    5.5080   -3.6233   22.0696 N   0  0  0  0  0  0  0  0  0  0  0  0
    5.7144   -3.1942   20.8038 C   0  0  0  0  0  0  0  0  0  0  0  0
    5.6738   -4.1321   19.4348 S   0  0  0  0  0  0  0  0  0  0  0  0
    5.9015   -1.8413   20.7166 N   0  0  0  0  0  0  0  0  0  0  0  0
    6.8103   -0.9864   21.5151 C   0  0  0  0  0  0  0  0  0  0  0  0
    7.6525    0.0037   20.6651 C   0  0  0  0  0  0  0  0  0  0  0  0
    8.1541    0.9468   21.5125 F   0  0  0  0  0  0  0  0  0  0  0  0
    8.7532   -0.6635   20.1838 F   0  0  0  0  0  0  0  0  0  0  0  0
    6.9162    0.6692   19.5267 C   0  0  0  0  0  0  0  0  0  0  0  0
    5.7055    1.3496   19.7132 C   0  0  0  0  0  0  0  0  0  0  0  0
    5.0344    1.8249   18.5839 C   0  0  0  0  0  0  0  0  0  0  0  0
    5.6000    1.6116   17.3240 C   0  0  0  0  0  0  0  0  0  0  0  0
    6.7605    0.9685   17.1387 N   0  0  0  0  0  0  0  0  0  0  0  0
    7.3980    0.5203   18.2223 C   0  0  0  0  0  0  0  0  0  0  0  0
    8.3374    0.0001   18.0555 H   0  0  0  0  0  0  0  0  0  0  0  0
    5.1132    1.9826   16.4244 H   0  0  0  0  0  0  0  0  0  0  0  0
    4.0872    2.3451   18.6587 H   0  0  0  0  0  0  0  0  0  0  0  0
    5.2713    1.4786   20.7060 H   0  0  0  0  0  0  0  0  0  0  0  0
    7.5520   -1.5707   22.0793 H   0  0  0  0  0  0  0  0  0  0  0  0
    6.2480   -0.3807   22.2390 H   0  0  0  0  0  0  0  0  0  0  0  0
    5.8070   -1.6009   19.7358 H   0  0  0  0  0  0  0  0  0  0  0  0
    5.1689   -2.9122   22.6884 H   0  0  0  0  0  0  0  0  0  0  0  0
    7.5782   -5.1153   21.8518 H   0  0  0  0  0  0  0  0  0  0  0  0
    7.7698   -7.5625   22.3226 H   0  0  0  0  0  0  0  0  0  0  0  0
    5.7344   -8.8024   23.1178 H   0  0  0  0  0  0  0  0  0  0  0  0
    3.6775   -7.5444   23.6735 H   0  0  0  0  0  0  0  0  0  0  0  0
    2.6054   -4.6265   22.4847 H   0  0  0  0  0  0  0  0  0  0  0  0
    2.4824   -5.5880   23.9550 H   0  0  0  0  0  0  0  0  0  0  0  0
    3.3307   -4.0390   23.9983 H   0  0  0  0  0  0  0  0  0  0  0  0
  1  2  1  0
  2  3  2  0
  3  4  1  0
  4  5  2  0
  5  6  1  0
  6  7  2  0
  7  8  1  0
  8  9  1  0
  9 10  2  0
  9 11  1  0
 11 12  1  0
 12 13  1  0
 13 14  1  0
 13 15  1  0
 13 16  1  0
 16 17  2  0
 17 18  1  0
 18 19  2  0
 19 20  1  0
 20 21  2  0
 21 22  1  0
 19 23  1  0
 18 24  1  0
 17 25  1  0
 12 26  1  0
 12 27  1  0
 11 28  1  0
  8 29  1  0
  6 30  1  0
  5 31  1  0
  4 32  1  0
  3 33  1  0
  1 34  1  0
  1 35  1  0
  1 36  1  0
  7  2  1  0
 21 16  1  0
M  END
>  <plip>  (1) 
-0.125

>  <filename>  (1) 
[H][c]1[n][c]([H])[c]([C]([F])([F])[C]([H])([H])[N]([H])[C](=[S])[N]([H])[c]2[c]([H])[c]([H])[c]([H])[c]([H])[c]2[C]([H])([H])[H])[c]([H])[c]1[H]

$$$$
