
     RDKit          3D

 26 27  0  0  0  0  0  0  0  0999 V2000
    7.1755   -0.1266   22.4700 O   0  0  0  0  0  0  0  0  0  0  0  0
    7.4837   -0.8146   21.2275 S   0  0  0  0  0  0  0  0  0  0  0  0
    8.8478   -0.9773   20.7340 O   0  0  0  0  0  0  0  0  0  0  0  0
    6.7260   -2.4168   21.2119 C   0  0  0  0  0  0  0  0  0  0  0  0
    7.4587   -3.1347   22.2611 C   0  0  0  0  0  0  0  0  0  0  0  0
    8.7057   -3.6348   22.1022 C   0  0  0  0  0  0  0  0  0  0  0  0
    9.2117   -4.4184   23.5393 S   0  0  0  0  0  0  0  0  0  0  0  0
    7.7421   -3.8909   24.2938 C   0  0  0  0  0  0  0  0  0  0  0  0
    7.6017   -4.1779   25.7842 C   0  0  0  0  0  0  0  0  0  0  0  0
    6.3415   -4.1540   26.2309 F   0  0  0  0  0  0  0  0  0  0  0  0
    8.3078   -3.2796   26.4934 F   0  0  0  0  0  0  0  0  0  0  0  0
    8.1076   -5.3877   26.0766 F   0  0  0  0  0  0  0  0  0  0  0  0
    6.9388   -3.2143   23.5119 N   0  0  0  0  0  0  0  0  0  0  0  0
    9.3220   -3.4566   21.2360 H   0  0  0  0  0  0  0  0  0  0  0  0
    6.8959   -2.8177   20.2139 H   0  0  0  0  0  0  0  0  0  0  0  0
    5.6695   -2.2962   21.4344 H   0  0  0  0  0  0  0  0  0  0  0  0
    6.5847   -0.0387   19.9653 C   0  0  0  0  0  0  0  0  0  0  0  0
    5.3794    0.6205   20.2062 C   0  0  0  0  0  0  0  0  0  0  0  0
    4.8034    1.2692   19.1190 C   0  0  0  0  0  0  0  0  0  0  0  0
    5.4545    1.2299   17.8786 C   0  0  0  0  0  0  0  0  0  0  0  0
    6.6111    0.5786   17.6756 N   0  0  0  0  0  0  0  0  0  0  0  0
    7.1781   -0.0336   18.7120 C   0  0  0  0  0  0  0  0  0  0  0  0
    8.1494   -0.4994   18.5480 H   0  0  0  0  0  0  0  0  0  0  0  0
    5.0348    1.7564   17.0200 H   0  0  0  0  0  0  0  0  0  0  0  0
    3.8874    1.8368   19.2350 H   0  0  0  0  0  0  0  0  0  0  0  0
    4.9493    0.6711   21.2108 H   0  0  0  0  0  0  0  0  0  0  0  0
  1  2  2  0
  2  3  2  0
  2  4  1  0
  4  5  1  0
  5  6  2  0
  6  7  1  0
  7  8  1  0
  8  9  1  0
  9 10  1  0
  9 11  1  0
  9 12  1  0
  8 13  2  0
  6 14  1  0
  4 15  1  0
  4 16  1  0
  2 17  1  0
 17 18  2  0
 18 19  1  0
 19 20  2  0
 20 21  1  0
 21 22  2  0
 22 23  1  0
 20 24  1  0
 19 25  1  0
 18 26  1  0
 13  5  1  0
 22 17  1  0
M  END
>  <plip>  (1) 
-0.0

>  <filename>  (1) 
[H][c]1[n][c]([H])[c]([S](=[O])(=[O])[C]([H])([H])[c]2[n][c]([C]([F])([F])[F])[s][c]2[H])[c]([H])[c]1[H]

$$$$
