
     RDKit          3D

 41 43  0  0  0  0  0  0  0  0999 V2000
    5.0284    1.7659   16.9770 H   0  0  0  0  0  0  0  0  0  0  0  0
    5.4593    1.2663   17.8437 C   0  0  0  0  0  0  0  0  0  0  0  0
    6.6192    0.6259   17.6408 N   0  0  0  0  0  0  0  0  0  0  0  0
    7.1782    0.0120   18.6874 C   0  0  0  0  0  0  0  0  0  0  0  0
    8.1209   -0.4971   18.5044 H   0  0  0  0  0  0  0  0  0  0  0  0
    6.6133    0.0002   19.9686 C   0  0  0  0  0  0  0  0  0  0  0  0
    7.3344   -0.7036   21.0293 C   0  0  0  0  0  0  0  0  0  0  0  0
    8.5330   -1.3311   20.8081 N   0  0  0  0  0  0  0  0  0  0  0  0
    8.8038   -1.8034   22.0023 C   0  0  0  0  0  0  0  0  0  0  0  0
   10.0623   -2.7271   22.7836 S   0  0  0  0  0  0  0  0  0  0  0  0
    9.1692   -2.6514   24.3056 C   0  0  0  0  0  0  0  0  0  0  0  0
    9.5625   -3.1233   25.1943 H   0  0  0  0  0  0  0  0  0  0  0  0
    8.0190   -1.9518   24.1801 C   0  0  0  0  0  0  0  0  0  0  0  0
    7.0773   -1.6232   25.0658 O   0  0  0  0  0  0  0  0  0  0  0  0
    7.1108   -2.2326   26.3664 C   0  0  0  0  0  0  0  0  0  0  0  0
    6.4553   -1.6155   26.9877 H   0  0  0  0  0  0  0  0  0  0  0  0
    8.1210   -2.1738   26.7940 H   0  0  0  0  0  0  0  0  0  0  0  0
    6.6136   -3.6846   26.3141 C   0  0  0  0  0  0  0  0  0  0  0  0
    7.2972   -4.2414   25.6530 H   0  0  0  0  0  0  0  0  0  0  0  0
    5.6440   -3.6865   25.7944 H   0  0  0  0  0  0  0  0  0  0  0  0
    6.5348   -4.2975   27.6440 N   0  0  0  0  0  0  0  0  0  0  0  0
    7.4186   -5.4438   27.8431 C   0  0  0  0  0  0  0  0  0  0  0  0
    7.2887   -5.7800   28.8784 H   0  0  0  0  0  0  0  0  0  0  0  0
    7.1444   -6.3089   27.2018 H   0  0  0  0  0  0  0  0  0  0  0  0
    8.8745   -5.0710   27.5944 C   0  0  0  0  0  0  0  0  0  0  0  0
    9.1263   -5.2173   26.5425 H   0  0  0  0  0  0  0  0  0  0  0  0
    9.0544   -4.0215   27.8375 H   0  0  0  0  0  0  0  0  0  0  0  0
    9.5637   -5.6861   28.1750 H   0  0  0  0  0  0  0  0  0  0  0  0
    5.1919   -4.5360   28.1682 C   0  0  0  0  0  0  0  0  0  0  0  0
    5.2945   -5.0197   29.1505 H   0  0  0  0  0  0  0  0  0  0  0  0
    4.6126   -5.2401   27.5376 H   0  0  0  0  0  0  0  0  0  0  0  0
    4.4024   -3.2512   28.3651 C   0  0  0  0  0  0  0  0  0  0  0  0
    4.9247   -2.5950   29.0686 H   0  0  0  0  0  0  0  0  0  0  0  0
    3.4103   -3.4757   28.7718 H   0  0  0  0  0  0  0  0  0  0  0  0
    4.2615   -2.7109   27.4237 H   0  0  0  0  0  0  0  0  0  0  0  0
    7.8341   -1.4888   22.8856 N   0  0  0  0  0  0  0  0  0  0  0  0
    6.8621   -0.7687   22.2602 N   0  0  0  0  0  0  0  0  0  0  0  0
    5.3938    0.6695   20.1758 C   0  0  0  0  0  0  0  0  0  0  0  0
    4.9283    0.6896   21.1644 H   0  0  0  0  0  0  0  0  0  0  0  0
    4.8119    1.3091   19.0848 C   0  0  0  0  0  0  0  0  0  0  0  0
    3.8787    1.8508   19.1780 H   0  0  0  0  0  0  0  0  0  0  0  0
  1  2  1  0
  2  3  2  0
  3  4  1  0
  4  5  1  0
  4  6  2  0
  6  7  1  0
  7  8  1  0
  8  9  2  0
  9 10  1  0
 10 11  1  0
 11 12  1  0
 11 13  2  0
 13 14  1  0
 14 15  1  0
 15 16  1  0
 15 17  1  0
 15 18  1  0
 18 19  1  0
 18 20  1  0
 18 21  1  0
 21 22  1  0
 22 23  1  0
 22 24  1  0
 22 25  1  0
 25 26  1  0
 25 27  1  0
 25 28  1  0
 21 29  1  0
 29 30  1  0
 29 31  1  0
 29 32  1  0
 32 33  1  0
 32 34  1  0
 32 35  1  0
 13 36  1  0
 36 37  1  0
  6 38  1  0
 38 39  1  0
 38 40  2  0
 40 41  1  0
 40  2  1  0
 37  7  2  0
 36  9  1  0
M  END
>  <plip>  (1) 
-0.06896551724137931

>  <filename>  (1) 
[H][c]1[n][c]([H])[c](-[c]2[n][c]3[s][c]([H])[c]([O][C]([H])([H])[C]([H])([H])[N]([C]([H])([H])[C]([H])([H])[H])[C]([H])([H])[C]([H])([H])[H])[n]3[n]2)[c]([H])[c]1[H]

$$$$
