
     RDKit          3D

 31 32  0  0  0  0  0  0  0  0999 V2000
   11.2131   -1.3024   21.2893 N   0  0  0  0  0  0  0  0  0  0  0  0
   10.2366   -1.6267   22.1868 C   0  0  0  0  0  0  0  0  0  0  0  0
   10.1810   -2.7625   22.6108 O   0  0  0  0  0  0  0  0  0  0  0  0
    9.1416   -0.5719   22.6547 C   0  0  0  0  0  0  0  0  0  0  0  0
    8.2094    0.1392   21.6554 N   0  0  0  0  0  4  0  0  0  0  0  0
    7.2599   -0.7161   20.9236 C   0  0  0  0  0  0  0  0  0  0  0  0
    6.5963    0.0988   19.8546 C   0  0  0  0  0  0  0  0  0  0  0  0
    5.3692    0.7476   20.0546 C   0  0  0  0  0  0  0  0  0  0  0  0
    4.7796    1.4189   18.9811 C   0  0  0  0  0  0  0  0  0  0  0  0
    5.4376    1.4138   17.7476 C   0  0  0  0  0  0  0  0  0  0  0  0
    6.6141    0.8016   17.5390 N   0  0  0  0  0  0  0  0  0  0  0  0
    7.1680    0.1681   18.5763 C   0  0  0  0  0  0  0  0  0  0  0  0
    8.1121   -0.3446   18.3743 H   0  0  0  0  0  0  0  0  0  0  0  0
    4.9997    1.9091   16.8818 H   0  0  0  0  0  0  0  0  0  0  0  0
    3.8259    1.9303   19.0796 H   0  0  0  0  0  0  0  0  0  0  0  0
    4.8838    0.7151   21.0336 H   0  0  0  0  0  0  0  0  0  0  0  0
    7.7811   -1.5689   20.4736 H   0  0  0  0  0  0  0  0  0  0  0  0
    6.5002   -1.1274   21.6028 H   0  0  0  0  0  0  0  0  0  0  0  0
    7.6425    0.8332   22.2069 H   0  0  0  0  0  0  0  0  0  0  0  0
    8.7664    0.7307   20.9933 H   0  0  0  0  0  0  0  0  0  0  0  0
    9.7136    0.5328   23.4825 C   0  0  0  0  0  0  0  0  0  0  0  0
    9.9237    0.5031   24.8256 C   0  0  0  0  0  0  0  0  0  0  0  0
   10.6569    1.6317   25.2869 C   0  0  0  0  0  0  0  0  0  0  0  0
   10.9803    2.5024   24.2900 C   0  0  0  0  0  0  0  0  0  0  0  0
   10.3809    1.9488   22.7649 S   0  0  0  0  0  0  0  0  0  0  0  0
   11.4923    3.4541   24.3628 H   0  0  0  0  0  0  0  0  0  0  0  0
   10.8852    1.7503   26.3342 H   0  0  0  0  0  0  0  0  0  0  0  0
    9.5326   -0.2720   25.4779 H   0  0  0  0  0  0  0  0  0  0  0  0
    8.5590   -1.2512   23.2774 H   0  0  0  0  0  0  0  0  0  0  0  0
   11.6708   -0.4043   21.3281 H   0  0  0  0  0  0  0  0  0  0  0  0
   11.8155   -2.1125   21.2310 H   0  0  0  0  0  0  0  0  0  0  0  0
  1  2  1  0
  2  3  2  0
  2  4  1  0
  4  5  1  0
  5  6  1  0
  6  7  1  0
  7  8  2  0
  8  9  1  0
  9 10  2  0
 10 11  1  0
 11 12  2  0
 12 13  1  0
 10 14  1  0
  9 15  1  0
  8 16  1  0
  6 17  1  0
  6 18  1  0
  5 19  1  0
  5 20  1  0
  4 21  1  0
 21 22  2  0
 22 23  1  0
 23 24  2  0
 24 25  1  0
 24 26  1  0
 23 27  1  0
 22 28  1  0
  4 29  1  0
  1 30  1  0
  1 31  1  0
 12  7  1  0
 25 21  1  0
M  CHG  1   5   1
M  END
>  <plip>  (1) 
-0.06896551724137931

>  <filename>  (1) 
[H][c]1[n][c]([H])[c]([C]([H])([H])[N+]([H])([H])[C]([H])([C](=[O])[N]([H])[H])[c]2[s][c]([H])[c]([H])[c]2[H])[c]([H])[c]1[H]

$$$$
