
     RDKit          3D

 37 39  0  0  0  0  0  0  0  0999 V2000
    8.6368    1.0834   21.5544 H   0  0  0  0  0  0  0  0  0  0  0  0
    7.9637    0.3294   21.9348 C   0  0  0  0  0  0  0  0  0  0  0  0
    7.5137    0.3658   23.2028 C   0  0  0  0  0  0  0  0  0  0  0  0
    7.8997    1.4471   24.1971 C   0  0  0  0  0  0  0  0  0  0  0  0
    8.3672    2.2285   23.5885 H   0  0  0  0  0  0  0  0  0  0  0  0
    8.9646    0.9131   25.1982 C   0  0  0  0  0  0  0  0  0  0  0  0
    9.7772    0.4098   24.6645 H   0  0  0  0  0  0  0  0  0  0  0  0
    9.4072    1.7696   25.7250 H   0  0  0  0  0  0  0  0  0  0  0  0
    8.3645   -0.0669   26.2323 C   0  0  0  0  0  0  0  0  0  0  0  0
    9.0018   -0.0719   27.1324 H   0  0  0  0  0  0  0  0  0  0  0  0
    8.3759   -1.0900   25.8279 H   0  0  0  0  0  0  0  0  0  0  0  0
    6.9621    0.2611   26.5570 N   0  0  0  0  0  0  0  0  0  0  0  0
    6.7425   -0.0747   27.4880 H   0  0  0  0  0  0  0  0  0  0  0  0
    6.6743    1.6935   26.4663 C   0  0  0  0  0  0  0  0  0  0  0  0
    7.4019    2.3113   27.0291 H   0  0  0  0  0  0  0  0  0  0  0  0
    5.6880    1.9036   26.8961 H   0  0  0  0  0  0  0  0  0  0  0  0
    6.7025    2.0882   24.9788 C   0  0  0  0  0  0  0  0  0  0  0  0
    6.7487    3.1817   24.9058 H   0  0  0  0  0  0  0  0  0  0  0  0
    5.7555    1.7783   24.5234 H   0  0  0  0  0  0  0  0  0  0  0  0
    6.7486   -0.7110   23.6637 N   0  0  0  0  0  0  0  0  0  0  0  0
    6.5226   -0.8439   24.6409 H   0  0  0  0  0  0  0  0  0  0  0  0
    6.4958   -1.8227   22.9317 C   0  0  0  0  0  0  0  0  0  0  0  0
    5.8530   -3.1993   23.6107 S   0  0  0  0  0  0  0  0  0  0  0  0
    6.7794   -1.7547   21.6229 N   0  0  0  0  0  0  0  0  0  0  0  0
    6.4802   -2.5721   21.1342 H   0  0  0  0  0  0  0  0  0  0  0  0
    7.4989   -0.6822   20.9440 C   0  0  1  0  0  0  0  0  0  0  0  0
    8.3788   -1.1308   20.4482 H   0  0  0  0  0  0  0  0  0  0  0  0
    6.6501   -0.0503   19.8366 C   0  0  0  0  0  0  0  0  0  0  0  0
    7.1509    0.0042   18.5338 C   0  0  0  0  0  0  0  0  0  0  0  0
    8.0948   -0.4901   18.2993 H   0  0  0  0  0  0  0  0  0  0  0  0
    6.5588    0.6486   17.5206 N   0  0  0  0  0  0  0  0  0  0  0  0
    5.4079    1.2813   17.7910 C   0  0  0  0  0  0  0  0  0  0  0  0
    4.9532    1.8194   16.9600 H   0  0  0  0  0  0  0  0  0  0  0  0
    4.7994    1.2660   19.0532 C   0  0  0  0  0  0  0  0  0  0  0  0
    3.8730    1.8090   19.2055 H   0  0  0  0  0  0  0  0  0  0  0  0
    5.4270    0.5837   20.0961 C   0  0  0  0  0  0  0  0  0  0  0  0
    4.9953    0.5677   21.0993 H   0  0  0  0  0  0  0  0  0  0  0  0
  1  2  1  0
  2  3  2  0
  3  4  1  0
  4  5  1  0
  4  6  1  0
  6  7  1  0
  6  8  1  0
  6  9  1  0
  9 10  1  0
  9 11  1  0
  9 12  1  0
 12 13  1  0
 12 14  1  0
 14 15  1  0
 14 16  1  0
 14 17  1  0
 17 18  1  0
 17 19  1  0
  3 20  1  0
 20 21  1  0
 20 22  1  0
 22 23  2  0
 22 24  1  0
 24 25  1  0
 24 26  1  0
 26 27  1  6
 26 28  1  0
 28 29  2  0
 29 30  1  0
 29 31  1  0
 31 32  2  0
 32 33  1  0
 32 34  1  0
 34 35  1  0
 34 36  2  0
 36 37  1  0
 26  2  1  0
 36 28  1  0
 17  4  1  0
M  END
>  <plip>  (1) 
-0.03571428571428571

>  <filename>  (1) 
[H][C]1=[C]([C]2([H])[C]([H])([H])[C]([H])([H])[N]([H])[C]([H])([H])[C]2([H])[H])[N]([H])[C](=[S])[N]([H])[C@@]1([H])[c]1[c]([H])[n][c]([H])[c]([H])[c]1[H]

$$$$
