
     RDKit          3D

 45 48  0  0  0  0  0  0  0  0999 V2000
    4.9315    1.7899   17.0030 H   0  0  0  0  0  0  0  0  0  0  0  0
    5.4207    1.3133   17.8535 C   0  0  0  0  0  0  0  0  0  0  0  0
    6.5955    0.7063   17.6137 N   0  0  0  0  0  0  0  0  0  0  0  0
    7.2007    0.0751   18.6323 C   0  0  0  0  0  0  0  0  0  0  0  0
    8.1507   -0.4120   18.4150 H   0  0  0  0  0  0  0  0  0  0  0  0
    6.6601    0.0214   19.9393 C   0  0  0  0  0  0  0  0  0  0  0  0
    7.2946   -0.6539   21.0351 N   0  0  0  0  0  0  0  0  0  0  0  0
    7.6936   -0.1721   22.2912 C   0  0  0  0  0  0  0  0  0  0  0  0
    7.3060    1.0575   22.7403 N   0  0  0  0  0  0  0  0  0  0  0  0
    6.6925    1.2168   24.0619 C   0  0  0  0  0  0  0  0  0  0  0  0
    5.6697    1.6177   23.9584 H   0  0  0  0  0  0  0  0  0  0  0  0
    6.6090    0.2334   24.5367 H   0  0  0  0  0  0  0  0  0  0  0  0
    7.5267    2.1669   24.9239 C   0  0  0  0  0  0  0  0  0  0  0  0
    7.0489    2.3367   25.8953 H   0  0  0  0  0  0  0  0  0  0  0  0
    8.4943    1.6964   25.1279 H   0  0  0  0  0  0  0  0  0  0  0  0
    7.7641    3.4999   24.1998 C   0  0  0  0  0  0  0  0  0  0  0  0
    8.4434    4.1198   24.8245 H   0  0  0  0  0  0  0  0  0  0  0  0
    6.5085    4.2271   23.9942 N   0  0  0  0  0  0  0  0  0  0  0  0
    6.6762    5.4947   23.2779 C   0  0  0  0  0  0  0  0  0  0  0  0
    6.7394    5.3250   22.1956 H   0  0  0  0  0  0  0  0  0  0  0  0
    7.6078    6.0100   23.5788 H   0  0  0  0  0  0  0  0  0  0  0  0
    5.4601    6.3510   23.6459 C   0  0  0  0  0  0  0  0  0  0  0  0
    5.7638    7.3910   23.8007 H   0  0  0  0  0  0  0  0  0  0  0  0
    4.7252    6.3473   22.8360 H   0  0  0  0  0  0  0  0  0  0  0  0
    4.8768    5.7136   24.9214 C   0  0  0  0  0  0  0  0  0  0  0  0
    4.8703    6.4072   25.7678 H   0  0  0  0  0  0  0  0  0  0  0  0
    3.8440    5.3931   24.7593 H   0  0  0  0  0  0  0  0  0  0  0  0
    5.7782    4.5125   25.2304 C   0  0  0  0  0  0  0  0  0  0  0  0
    6.4659    4.7596   26.0606 H   0  0  0  0  0  0  0  0  0  0  0  0
    5.1946    3.6385   25.5452 H   0  0  0  0  0  0  0  0  0  0  0  0
    8.4595    3.2115   22.8637 C   0  0  0  0  0  0  0  0  0  0  0  0
    8.6790    4.1398   22.3249 H   0  0  0  0  0  0  0  0  0  0  0  0
    9.4218    2.7334   23.0742 H   0  0  0  0  0  0  0  0  0  0  0  0
    7.6170    2.2754   21.9929 C   0  0  0  0  0  0  0  0  0  0  0  0
    6.6878    2.7818   21.6810 H   0  0  0  0  0  0  0  0  0  0  0  0
    8.1629    2.0186   21.0775 H   0  0  0  0  0  0  0  0  0  0  0  0
    8.3547   -1.0565   22.9809 N   0  0  0  0  0  0  0  0  0  0  0  0
    8.2847   -2.1923   22.1763 N   0  0  0  0  0  0  0  0  0  0  0  0
    8.3690   -3.1121   22.5694 H   0  0  0  0  0  0  0  0  0  0  0  0
    7.4034   -2.0420   21.1469 C   0  0  0  0  0  0  0  0  0  0  0  0
    6.8264   -2.8953   20.5095 O   0  0  0  0  0  0  0  0  0  0  0  0
    5.4508    0.6682   20.1707 C   0  0  0  0  0  0  0  0  0  0  0  0
    5.0360    0.6411   21.1780 H   0  0  0  0  0  0  0  0  0  0  0  0
    4.8104    1.3239   19.1140 C   0  0  0  0  0  0  0  0  0  0  0  0
    3.8558    1.8210   19.2574 H   0  0  0  0  0  0  0  0  0  0  0  0
  1  2  1  0
  2  3  2  0
  3  4  1  0
  4  5  1  0
  4  6  2  0
  6  7  1  0
  7  8  1  0
  8  9  1  0
  9 10  1  0
 10 11  1  0
 10 12  1  0
 10 13  1  0
 13 14  1  0
 13 15  1  0
 13 16  1  0
 16 17  1  0
 16 18  1  0
 18 19  1  0
 19 20  1  0
 19 21  1  0
 19 22  1  0
 22 23  1  0
 22 24  1  0
 22 25  1  0
 25 26  1  0
 25 27  1  0
 25 28  1  0
 28 29  1  0
 28 30  1  0
 16 31  1  0
 31 32  1  0
 31 33  1  0
 31 34  1  0
 34 35  1  0
 34 36  1  0
  8 37  2  0
 37 38  1  0
 38 39  1  0
 38 40  1  0
 40 41  2  0
  6 42  1  0
 42 43  1  0
 42 44  2  0
 44 45  1  0
 44  2  1  0
 40  7  1  0
 34  9  1  0
 28 18  1  0
M  END
>  <plip>  (1) 
-0.06896551724137931

>  <filename>  (1) 
[H][c]1[n][c]([H])[c](-[n]2[c]([N]3[C]([H])([H])[C]([H])([H])[C]([H])([N]4[C]([H])([H])[C]([H])([H])[C]([H])([H])[C]4([H])[H])[C]([H])([H])[C]3([H])[H])[n][n]([H])[c]2=[O])[c]([H])[c]1[H]

$$$$
