
     RDKit          3D

 29 31  0  0  0  0  0  0  0  0999 V2000
    4.7727    1.3543   19.0673 C   0  0  0  0  0  0  0  0  0  0  0  0
    5.4016    1.3223   17.8193 C   0  0  0  0  0  0  0  0  0  0  0  0
    6.5688    0.6961   17.6008 N   0  0  0  0  0  0  0  0  0  0  0  0
    7.1413    0.0757   18.6444 C   0  0  0  0  0  0  0  0  0  0  0  0
    6.5889    0.0379   19.9479 C   0  0  0  0  0  0  0  0  0  0  0  0
    7.2419   -0.7208   21.0457 C   0  0  0  0  0  0  0  0  0  0  0  0
    7.6012   -2.0520   21.0828 C   0  0  0  0  0  0  0  0  0  0  0  0
    8.3698   -2.1926   22.2562 C   0  0  0  0  0  0  0  0  0  0  0  0
    8.4445   -1.0473   22.9190 N   0  0  0  0  0  0  0  0  0  0  0  0
    7.6964   -0.1752   22.2174 N   0  0  0  0  0  0  0  0  0  0  0  0
    7.7400    1.2115   22.6771 C   0  0  0  0  0  0  0  0  0  0  0  0
    9.0502    1.8304   22.2994 C   0  0  0  0  0  0  0  0  0  0  0  0
    9.3485    1.9003   21.0600 N   0  0  0  0  0  0  0  0  0  0  0  0
   10.6102    2.4091   20.8929 O   0  0  0  0  0  0  0  0  0  0  0  0
   11.1224    2.8494   22.1654 C   0  0  0  0  0  0  0  0  0  0  0  0
   10.1663    2.2834   23.2165 C   0  0  0  0  0  0  0  0  0  0  0  0
   10.5687    1.4081   23.7465 H   0  0  0  0  0  0  0  0  0  0  0  0
    9.8739    3.0410   23.9565 H   0  0  0  0  0  0  0  0  0  0  0  0
   12.1467    2.4760   22.2460 H   0  0  0  0  0  0  0  0  0  0  0  0
   11.1326    3.9448   22.1670 H   0  0  0  0  0  0  0  0  0  0  0  0
    7.6122    1.1712   23.7616 H   0  0  0  0  0  0  0  0  0  0  0  0
    6.9152    1.7683   22.2266 H   0  0  0  0  0  0  0  0  0  0  0  0
    8.8929   -3.0638   22.6322 H   0  0  0  0  0  0  0  0  0  0  0  0
    7.3219   -2.8089   20.3758 H   0  0  0  0  0  0  0  0  0  0  0  0
    5.3802    0.7167   20.1506 C   0  0  0  0  0  0  0  0  0  0  0  0
    4.9318    0.7284   21.1440 H   0  0  0  0  0  0  0  0  0  0  0  0
    8.0888   -0.4156   18.4306 H   0  0  0  0  0  0  0  0  0  0  0  0
    4.9431    1.8121   16.9592 H   0  0  0  0  0  0  0  0  0  0  0  0
    3.8319    1.8783   19.1782 H   0  0  0  0  0  0  0  0  0  0  0  0
  1  2  2  0
  2  3  1  0
  3  4  2  0
  4  5  1  0
  5  6  1  0
  6  7  2  0
  7  8  1  0
  8  9  2  0
  9 10  1  0
 10 11  1  0
 11 12  1  0
 12 13  2  0
 13 14  1  0
 14 15  1  0
 15 16  1  0
 16 17  1  0
 16 18  1  0
 15 19  1  0
 15 20  1  0
 11 21  1  0
 11 22  1  0
  8 23  1  0
  7 24  1  0
  5 25  2  0
 25 26  1  0
  4 27  1  0
  2 28  1  0
  1 29  1  0
 25  1  1  0
 10  6  1  0
 16 12  1  0
M  END
>  <plip>  (1) 
-0.07142857142857142

>  <filename>  (1) 
[H][c]1[n][c]([H])[c](-[c]2[c]([H])[c]([H])[n][n]2[C]([H])([H])[C]2=[N][O][C]([H])([H])[C]2([H])[H])[c]([H])[c]1[H]

$$$$
