
     RDKit          3D

 22 23  0  0  0  0  0  0  0  0999 V2000
    6.9073   -1.7927   26.6299 H   0  0  0  0  0  0  0  0  0  0  0  0
    7.4392   -1.8309   25.6835 C   0  0  0  0  0  0  0  0  0  0  0  0
    8.4408   -2.2579   25.7184 H   0  0  0  0  0  0  0  0  0  0  0  0
    6.8788   -1.3729   24.5561 C   0  0  0  0  0  0  0  0  0  0  0  0
    5.8794   -0.9410   24.5699 H   0  0  0  0  0  0  0  0  0  0  0  0
    7.4818   -1.3664   23.2032 C   0  0  0  0  0  0  0  0  0  0  0  0
    6.8116   -0.7172   22.2449 N   0  0  0  0  0  0  0  0  0  0  0  0
    7.3799   -0.7133   21.0178 C   0  0  0  0  0  0  0  0  0  0  0  0
    6.6633   -0.0003   19.9325 C   0  0  0  0  0  0  0  0  0  0  0  0
    7.1833    0.0472   18.6296 C   0  0  0  0  0  0  0  0  0  0  0  0
    8.1251   -0.4314   18.3835 H   0  0  0  0  0  0  0  0  0  0  0  0
    6.5768    0.6606   17.6084 N   0  0  0  0  0  0  0  0  0  0  0  0
    5.4145    1.2817   17.8515 C   0  0  0  0  0  0  0  0  0  0  0  0
    4.9309    1.7717   17.0049 H   0  0  0  0  0  0  0  0  0  0  0  0
    4.8138    1.3024   19.1141 C   0  0  0  0  0  0  0  0  0  0  0  0
    3.8811    1.8382   19.2597 H   0  0  0  0  0  0  0  0  0  0  0  0
    5.4396    0.6491   20.1715 C   0  0  0  0  0  0  0  0  0  0  0  0
    4.9994    0.6360   21.1715 H   0  0  0  0  0  0  0  0  0  0  0  0
    8.5475   -1.3212   20.7206 N   0  0  0  0  0  0  0  0  0  0  0  0
    9.2248   -1.9849   21.6702 N   0  0  0  0  0  0  0  0  0  0  0  0
    8.7073   -2.0084   22.8950 C   0  0  0  0  0  0  0  0  0  0  0  0
    9.2646   -2.5521   23.6404 H   0  0  0  0  0  0  0  0  0  0  0  0
  1  2  1  0
  2  3  1  0
  2  4  2  3
  4  5  1  0
  4  6  1  0
  6  7  2  0
  7  8  1  0
  8  9  1  0
  9 10  2  0
 10 11  1  0
 10 12  1  0
 12 13  2  0
 13 14  1  0
 13 15  1  0
 15 16  1  0
 15 17  2  0
 17 18  1  0
  8 19  2  0
 19 20  1  0
 20 21  2  0
 21 22  1  0
 21  6  1  0
 17  9  1  0
M  END
>  <plip>  (1) 
-0.034482758620689655

>  <filename>  (1) 
[H][C]([H])=[C]([H])[c]1[n][c](-[c]2[c]([H])[n][c]([H])[c]([H])[c]2[H])[n][n][c]1[H]

$$$$
