
     RDKit          3D

 27 28  0  0  0  0  0  0  0  0999 V2000
    4.9150    1.7904   16.9882 H   0  0  0  0  0  0  0  0  0  0  0  0
    5.3978    1.2990   17.8285 C   0  0  0  0  0  0  0  0  0  0  0  0
    6.5616    0.6878   17.5628 N   0  0  0  0  0  0  0  0  0  0  0  0
    7.1550    0.0612   18.5829 C   0  0  0  0  0  0  0  0  0  0  0  0
    8.1089   -0.4156   18.3644 H   0  0  0  0  0  0  0  0  0  0  0  0
    6.6379   -0.0201   19.8865 C   0  0  0  0  0  0  0  0  0  0  0  0
    7.4014   -0.7099   20.9949 C   0  0  0  0  0  0  0  0  0  0  0  0
    7.9383   -1.5842   20.6023 H   0  0  0  0  0  0  0  0  0  0  0  0
    6.6947   -1.0796   21.7465 H   0  0  0  0  0  0  0  0  0  0  0  0
    8.4063    0.1901   21.7556 C   0  0  1  0  0  0  0  0  0  0  0  0
    8.8829   -0.4076   22.5385 H   0  0  0  0  0  0  0  0  0  0  0  0
    9.7697    0.6360   20.6830 Cl  0  0  0  0  0  0  0  0  0  0  0  0
    7.7822    1.4234   22.3737 C   0  0  0  0  0  0  0  0  0  0  0  0
    7.6056    2.6118   21.6552 C   0  0  0  0  0  0  0  0  0  0  0  0
    7.9526    2.6032   20.6308 H   0  0  0  0  0  0  0  0  0  0  0  0
    6.9506    3.7121   22.2159 C   0  0  0  0  0  0  0  0  0  0  0  0
    6.7897    4.6423   21.6746 H   0  0  0  0  0  0  0  0  0  0  0  0
    6.4799    3.6190   23.5213 C   0  0  0  0  0  0  0  0  0  0  0  0
    5.8663    4.6627   24.0944 F   0  0  0  0  0  0  0  0  0  0  0  0
    6.6470    2.4340   24.2470 C   0  0  0  0  0  0  0  0  0  0  0  0
    6.1920    2.3517   25.5033 F   0  0  0  0  0  0  0  0  0  0  0  0
    7.2855    1.3423   23.6794 C   0  0  0  0  0  0  0  0  0  0  0  0
    7.3869    0.4388   24.2690 H   0  0  0  0  0  0  0  0  0  0  0  0
    5.4207    0.6284   20.1402 C   0  0  0  0  0  0  0  0  0  0  0  0
    5.0135    0.6357   21.1574 H   0  0  0  0  0  0  0  0  0  0  0  0
    4.7964    1.3088   19.0934 C   0  0  0  0  0  0  0  0  0  0  0  0
    3.8660    1.8488   19.2499 H   0  0  0  0  0  0  0  0  0  0  0  0
  1  2  1  0
  2  3  2  0
  3  4  1  0
  4  5  1  0
  4  6  2  0
  6  7  1  0
  7  8  1  0
  7  9  1  0
  7 10  1  0
 10 11  1  1
 10 12  1  0
 10 13  1  0
 13 14  2  0
 14 15  1  0
 14 16  1  0
 16 17  1  0
 16 18  2  0
 18 19  1  0
 18 20  1  0
 20 21  1  0
 20 22  2  0
 22 23  1  0
  6 24  1  0
 24 25  1  0
 24 26  2  0
 26 27  1  0
 26  2  1  0
 22 13  1  0
M  END
>  <plip>  (1) 
-0.03571428571428571

>  <filename>  (1) 
[H][c]1[n][c]([H])[c]([C]([H])([H])[C@@]([H])([Cl])[c]2[c]([H])[c]([H])[c]([F])[c]([F])[c]2[H])[c]([H])[c]1[H]

$$$$
