
     RDKit          3D

 40 42  0  0  0  0  0  0  0  0999 V2000
    6.2861   -2.9214   20.2814 C   0  0  0  0  0  0  0  0  0  0  0  0
    6.4757   -1.9477   21.3553 N   0  0  0  0  0  0  0  0  0  0  0  0
    6.1699   -2.2327   22.6792 C   0  0  0  0  0  0  0  0  0  0  0  0
    6.5813   -1.5656   23.6139 O   0  0  0  0  0  0  0  0  0  0  0  0
    5.2156   -3.4301   22.9556 C   0  0  0  0  0  0  0  0  0  0  0  0
    5.8330   -4.7558   22.8913 N   0  0  0  0  0  0  0  0  0  0  0  0
    5.6782   -5.6329   21.8127 C   0  0  0  0  0  0  0  0  0  0  0  0
    4.7922   -5.6469   20.9866 O   0  0  0  0  0  0  0  0  0  0  0  0
    6.7672   -6.4708   21.8266 N   0  0  0  0  0  0  0  0  0  0  0  0
    7.5670   -6.2008   22.9262 C   0  0  0  0  0  0  0  0  0  0  0  0
    8.7580   -6.7499   23.3737 C   0  0  0  0  0  0  0  0  0  0  0  0
    9.3018   -6.2533   24.5650 C   0  0  0  0  0  0  0  0  0  0  0  0
    8.6919   -5.1969   25.2652 C   0  0  0  0  0  0  0  0  0  0  0  0
    7.5312   -4.5906   24.7713 C   0  0  0  0  0  0  0  0  0  0  0  0
    6.9798   -5.1158   23.6040 C   0  0  0  0  0  0  0  0  0  0  0  0
    7.0788   -3.7276   25.2586 H   0  0  0  0  0  0  0  0  0  0  0  0
    9.1416   -4.8217   26.1836 H   0  0  0  0  0  0  0  0  0  0  0  0
   10.2065   -6.6949   24.9715 H   0  0  0  0  0  0  0  0  0  0  0  0
    9.2364   -7.5558   22.8271 H   0  0  0  0  0  0  0  0  0  0  0  0
    6.6865   -7.3332   21.3224 H   0  0  0  0  0  0  0  0  0  0  0  0
    4.8041   -3.2564   23.9531 H   0  0  0  0  0  0  0  0  0  0  0  0
    4.3781   -3.3961   22.2554 H   0  0  0  0  0  0  0  0  0  0  0  0
    7.3054   -0.7682   21.0381 C   0  0  0  0  0  0  0  0  0  0  0  0
    8.9619   -1.0118   20.7818 C   0  0  0  0  0  0  0  0  0  0  0  0
    9.5530    0.0752   20.8094 O   0  0  0  0  0  0  0  0  0  0  0  0
    9.3499   -2.1772   20.6303 O   0  0  0  0  0  1  0  0  0  0  0  0
    6.6536    0.0254   19.9093 C   0  0  0  0  0  0  0  0  0  0  0  0
    5.4397    0.6944   20.1331 C   0  0  0  0  0  0  0  0  0  0  0  0
    4.8264    1.3497   19.0632 C   0  0  0  0  0  0  0  0  0  0  0  0
    5.4424    1.3154   17.8071 C   0  0  0  0  0  0  0  0  0  0  0  0
    6.5983    0.6793   17.5652 N   0  0  0  0  0  0  0  0  0  0  0  0
    7.1755    0.0595   18.6057 C   0  0  0  0  0  0  0  0  0  0  0  0
    8.1222   -0.4446   18.4060 H   0  0  0  0  0  0  0  0  0  0  0  0
    4.9895    1.8160   16.9547 H   0  0  0  0  0  0  0  0  0  0  0  0
    3.8933    1.8874   19.1903 H   0  0  0  0  0  0  0  0  0  0  0  0
    4.9924    0.6863   21.1276 H   0  0  0  0  0  0  0  0  0  0  0  0
    7.3134   -0.1510   21.9431 H   0  0  0  0  0  0  0  0  0  0  0  0
    5.2628   -3.3033   20.2664 H   0  0  0  0  0  0  0  0  0  0  0  0
    6.4685   -2.4452   19.3154 H   0  0  0  0  0  0  0  0  0  0  0  0
    6.9758   -3.7677   20.3869 H   0  0  0  0  0  0  0  0  0  0  0  0
  1  2  1  0
  2  3  1  0
  3  4  2  0
  3  5  1  0
  5  6  1  0
  6  7  1  0
  7  8  2  0
  7  9  1  0
  9 10  1  0
 10 11  2  0
 11 12  1  0
 12 13  2  0
 13 14  1  0
 14 15  2  0
 14 16  1  0
 13 17  1  0
 12 18  1  0
 11 19  1  0
  9 20  1  0
  5 21  1  0
  5 22  1  0
  2 23  1  0
 23 24  1  0
 24 25  2  0
 24 26  1  0
 23 27  1  0
 27 28  2  0
 28 29  1  0
 29 30  2  0
 30 31  1  0
 31 32  2  0
 32 33  1  0
 30 34  1  0
 29 35  1  0
 28 36  1  0
 23 37  1  0
  1 38  1  0
  1 39  1  0
  1 40  1  0
 15  6  1  0
 32 27  1  0
 15 10  1  0
M  CHG  1  26  -1
M  END
>  <plip>  (1) 
-0.13333333333333333

>  <filename>  (1) 
[H][c]1[n][c]([H])[c]([C]([H])([C](=[O])[O-])[N]([C](=[O])[C]([H])([H])[n]2[c](=[O])[n]([H])[c]3[c]([H])[c]([H])[c]([H])[c]([H])[c]32)[C]([H])([H])[H])[c]([H])[c]1[H]

$$$$
