
     RDKit          3D

 37 38  0  0  0  0  0  0  0  0999 V2000
   -0.0799   -6.0665   24.4952 F   0  0  0  0  0  0  0  0  0  0  0  0
    0.4429   -7.1129   23.8412 C   0  0  0  0  0  0  0  0  0  0  0  0
   -0.2044   -7.2180   22.6672 F   0  0  0  0  0  0  0  0  0  0  0  0
    0.1553   -8.2280   24.5416 F   0  0  0  0  0  0  0  0  0  0  0  0
    1.9097   -6.9587   23.6450 C   0  0  0  0  0  0  0  0  0  0  0  0
    2.8527   -7.9095   23.7969 C   0  0  0  0  0  0  0  0  0  0  0  0
    4.1315   -7.5522   23.4611 N   0  0  0  0  0  0  0  0  0  0  0  0
    4.1678   -6.3297   23.0276 C   0  0  0  0  0  0  0  0  0  0  0  0
    5.3481   -5.8360   22.5940 N   0  0  0  0  0  0  0  0  0  0  0  0
    5.7103   -4.4498   22.4267 C   0  0  0  0  0  0  0  0  0  0  0  0
    7.1738   -4.3695   22.0054 C   0  0  0  0  0  0  0  0  0  0  0  0
    7.7361   -2.9584   22.1044 C   0  0  0  0  0  0  0  0  0  0  0  0
    7.0730   -2.1214   21.0775 N   0  0  0  0  0  4  0  0  0  0  0  0
    7.4239   -0.6856   21.0299 C   0  0  0  0  0  0  0  0  0  0  0  0
    6.6279   -0.0593   19.9190 C   0  0  0  0  0  0  0  0  0  0  0  0
    5.4277    0.6335   20.1355 C   0  0  0  0  0  0  0  0  0  0  0  0
    4.8172    1.2886   19.0648 C   0  0  0  0  0  0  0  0  0  0  0  0
    5.4265    1.2191   17.8074 C   0  0  0  0  0  0  0  0  0  0  0  0
    6.5500    0.5265   17.5712 N   0  0  0  0  0  0  0  0  0  0  0  0
    7.1214   -0.1000   18.6052 C   0  0  0  0  0  0  0  0  0  0  0  0
    8.0414   -0.6403   18.3709 H   0  0  0  0  0  0  0  0  0  0  0  0
    4.9989    1.7397   16.9524 H   0  0  0  0  0  0  0  0  0  0  0  0
    3.9053    1.8659   19.1867 H   0  0  0  0  0  0  0  0  0  0  0  0
    4.9851    0.6717   21.1351 H   0  0  0  0  0  0  0  0  0  0  0  0
    8.5002   -0.5669   20.8541 H   0  0  0  0  0  0  0  0  0  0  0  0
    7.1990   -0.2048   21.9895 H   0  0  0  0  0  0  0  0  0  0  0  0
    7.2546   -2.5180   20.1245 H   0  0  0  0  0  0  0  0  0  0  0  0
    6.0363   -2.1528   21.2147 H   0  0  0  0  0  0  0  0  0  0  0  0
    7.5305   -2.5703   23.1164 H   0  0  0  0  0  0  0  0  0  0  0  0
    8.8332   -2.9399   21.9957 H   0  0  0  0  0  0  0  0  0  0  0  0
    7.2767   -4.7604   20.9870 H   0  0  0  0  0  0  0  0  0  0  0  0
    7.7670   -5.0318   22.6449 H   0  0  0  0  0  0  0  0  0  0  0  0
    5.5500   -3.8618   23.3462 H   0  0  0  0  0  0  0  0  0  0  0  0
    5.0621   -3.9939   21.6690 H   0  0  0  0  0  0  0  0  0  0  0  0
    6.0412   -6.5216   22.8620 H   0  0  0  0  0  0  0  0  0  0  0  0
    2.6321   -5.4770   23.0589 S   0  0  0  0  0  0  0  0  0  0  0  0
    2.6457   -8.9165   24.1602 H   0  0  0  0  0  0  0  0  0  0  0  0
  1  2  1  0
  2  3  1  0
  2  4  1  0
  2  5  1  0
  5  6  2  0
  6  7  1  0
  7  8  2  0
  8  9  1  0
  9 10  1  0
 10 11  1  0
 11 12  1  0
 12 13  1  0
 13 14  1  0
 14 15  1  0
 15 16  2  0
 16 17  1  0
 17 18  2  0
 18 19  1  0
 19 20  2  0
 20 21  1  0
 18 22  1  0
 17 23  1  0
 16 24  1  0
 14 25  1  0
 14 26  1  0
 13 27  1  0
 13 28  1  0
 12 29  1  0
 12 30  1  0
 11 31  1  0
 11 32  1  0
 10 33  1  0
 10 34  1  0
  9 35  1  0
  8 36  1  0
  6 37  1  0
 36  5  1  0
 20 15  1  0
M  CHG  1  13   1
M  END
>  <plip>  (1) 
-0.13793103448275862

>  <filename>  (1) 
[H][c]1[n][c]([N]([H])[C]([H])([H])[C]([H])([H])[C]([H])([H])[N+]([H])([H])[C]([H])([H])[c]2[c]([H])[n][c]([H])[c]([H])[c]2[H])[s][c]1[C]([F])([F])[F]

$$$$
