
     RDKit          3D

 26 27  0  0  0  0  0  0  0  0999 V2000
    6.5460    0.1330   22.0463 H   0  0  0  0  0  0  0  0  0  0  0  0
    6.9854   -0.2520   21.1239 C   0  0  0  0  0  0  0  0  0  0  0  0
    7.9422   -1.1865   21.1650 C   0  0  0  0  0  0  0  0  0  0  0  0
    8.3309   -1.5700   20.2225 H   0  0  0  0  0  0  0  0  0  0  0  0
    8.5325   -1.7757   22.4216 C   0  0  2  0  0  0  0  0  0  0  0  0
    7.7500   -1.9344   23.1781 H   0  0  0  0  0  0  0  0  0  0  0  0
    9.6104   -0.9242   23.1180 C   0  0  0  0  0  0  0  0  0  0  0  0
    9.1740   -0.1264   23.7203 H   0  0  0  0  0  0  0  0  0  0  0  0
   10.3397   -0.4857   22.4127 H   0  0  0  0  0  0  0  0  0  0  0  0
   10.2653   -1.8298   23.9833 O   0  0  0  0  0  0  0  0  0  0  0  0
   10.4554   -3.0273   23.2473 C   0  0  0  0  0  0  0  0  0  0  0  0
   11.4392   -3.0263   22.7592 H   0  0  0  0  0  0  0  0  0  0  0  0
   10.4484   -3.8546   23.9598 H   0  0  0  0  0  0  0  0  0  0  0  0
    9.3316   -3.0692   22.1969 C   0  0  0  0  0  0  0  0  0  0  0  0
    9.7675   -2.9828   21.1994 H   0  0  0  0  0  0  0  0  0  0  0  0
    8.7465   -3.9917   22.2452 H   0  0  0  0  0  0  0  0  0  0  0  0
    6.3798    0.3171   19.9034 C   0  0  0  0  0  0  0  0  0  0  0  0
    6.9642    0.2208   18.6232 C   0  0  0  0  0  0  0  0  0  0  0  0
    7.9040   -0.3135   18.4904 H   0  0  0  0  0  0  0  0  0  0  0  0
    6.4417    0.7591   17.5130 N   0  0  0  0  0  0  0  0  0  0  0  0
    5.2773    1.4169   17.6361 C   0  0  0  0  0  0  0  0  0  0  0  0
    4.8873    1.8666   16.7265 H   0  0  0  0  0  0  0  0  0  0  0  0
    4.5838    1.5346   18.8457 C   0  0  0  0  0  0  0  0  0  0  0  0
    3.6395    2.0634   18.8763 H   0  0  0  0  0  0  0  0  0  0  0  0
    5.1475    0.9844   19.9955 C   0  0  0  0  0  0  0  0  0  0  0  0
    4.6448    1.0557   20.9619 H   0  0  0  0  0  0  0  0  0  0  0  0
  1  2  1  0
  2  3  2  3
  3  4  1  0
  3  5  1  0
  5  6  1  1
  5  7  1  0
  7  8  1  0
  7  9  1  0
  7 10  1  0
 10 11  1  0
 11 12  1  0
 11 13  1  0
 11 14  1  0
 14 15  1  0
 14 16  1  0
  2 17  1  0
 17 18  2  0
 18 19  1  0
 18 20  1  0
 20 21  2  0
 21 22  1  0
 21 23  1  0
 23 24  1  0
 23 25  2  0
 25 26  1  0
 14  5  1  0
 25 17  1  0
M  END
>  <plip>  (1) 
-0.0

>  <filename>  (1) 
[H][C](=[C]([H])[C@]1([H])[C]([H])([H])[O][C]([H])([H])[C]1([H])[H])[c]1[c]([H])[n][c]([H])[c]([H])[c]1[H]

$$$$
