
     RDKit          3D

 47 50  0  0  0  0  0  0  0  0999 V2000
   11.3954   -5.2799   25.1141 C   0  0  0  0  0  0  0  0  0  0  0  0
   10.2241   -5.8494   25.6207 C   0  0  0  0  0  0  0  0  0  0  0  0
    8.9787   -5.3582   25.2078 C   0  0  0  0  0  0  0  0  0  0  0  0
    8.9806   -4.2856   24.2937 C   0  0  0  0  0  0  0  0  0  0  0  0
    7.8247   -3.7317   23.6770 N   0  0  0  0  0  0  0  0  0  0  0  0
    6.5229   -3.7813   24.0269 C   0  0  0  0  0  0  0  0  0  0  0  0
    5.7830   -3.0124   23.2553 N   0  0  0  0  0  0  0  0  0  0  0  0
    6.7019   -2.4929   22.4079 C   0  0  0  0  0  0  0  0  0  0  0  0
    6.3189   -1.5764   21.4947 N   0  0  0  0  0  0  0  0  0  0  0  0
    7.2669   -0.6855   20.8380 C   0  0  0  0  0  0  0  0  0  0  0  0
    8.1960    0.1684   21.7647 C   0  0  0  0  0  0  0  0  0  0  0  0
    7.6031    1.2437   22.6207 N   0  0  0  0  0  4  0  0  0  0  0  0
    8.6005    2.2465   23.1549 C   0  0  0  0  0  0  0  0  0  0  0  0
    7.8330    2.9681   24.2567 C   0  0  0  0  0  0  0  0  0  0  0  0
    6.8513    1.9198   24.8206 C   0  0  0  0  0  0  0  0  0  0  0  0
    6.9073    0.7223   23.8625 C   0  0  0  0  0  0  0  0  0  0  0  0
    5.9291    0.3084   23.6101 H   0  0  0  0  0  0  0  0  0  0  0  0
    7.5194   -0.0858   24.2780 H   0  0  0  0  0  0  0  0  0  0  0  0
    7.1312    1.5996   25.8282 H   0  0  0  0  0  0  0  0  0  0  0  0
    5.8379    2.3254   24.8819 H   0  0  0  0  0  0  0  0  0  0  0  0
    8.5113    3.3561   25.0215 H   0  0  0  0  0  0  0  0  0  0  0  0
    7.2924    3.8256   23.8414 H   0  0  0  0  0  0  0  0  0  0  0  0
    8.9582    2.9021   22.3562 H   0  0  0  0  0  0  0  0  0  0  0  0
    9.4599    1.7051   23.5718 H   0  0  0  0  0  0  0  0  0  0  0  0
    6.9083    1.7771   22.0405 H   0  0  0  0  0  0  0  0  0  0  0  0
    8.6890   -0.5587   22.4207 H   0  0  0  0  0  0  0  0  0  0  0  0
    8.9716    0.5985   21.1236 H   0  0  0  0  0  0  0  0  0  0  0  0
    6.5400    0.0776   19.7627 C   0  0  0  0  0  0  0  0  0  0  0  0
    5.3770    0.8166   20.0080 C   0  0  0  0  0  0  0  0  0  0  0  0
    4.7621    1.4839   18.9484 C   0  0  0  0  0  0  0  0  0  0  0  0
    5.3368    1.4009   17.6763 C   0  0  0  0  0  0  0  0  0  0  0  0
    6.4400    0.6855   17.4143 N   0  0  0  0  0  0  0  0  0  0  0  0
    7.0049    0.0340   18.4379 C   0  0  0  0  0  0  0  0  0  0  0  0
    7.8878   -0.5556   18.1843 H   0  0  0  0  0  0  0  0  0  0  0  0
    4.8987    1.9411   16.8387 H   0  0  0  0  0  0  0  0  0  0  0  0
    3.8556    2.0550   19.1007 H   0  0  0  0  0  0  0  0  0  0  0  0
    4.9572    0.8622   21.0171 H   0  0  0  0  0  0  0  0  0  0  0  0
    7.9894   -1.3463   20.3484 H   0  0  0  0  0  0  0  0  0  0  0  0
    5.4002   -1.2780   21.7655 H   0  0  0  0  0  0  0  0  0  0  0  0
    7.9286   -2.9024   22.5689 N   0  0  0  0  0  0  0  0  0  0  0  0
    6.1412   -4.3995   24.8286 H   0  0  0  0  0  0  0  0  0  0  0  0
   10.1046   -3.6997   23.8883 N   0  0  0  0  0  0  0  0  0  0  0  0
   11.2758   -4.1948   24.2571 C   0  0  0  0  0  0  0  0  0  0  0  0
   12.1342   -3.7234   23.7824 H   0  0  0  0  0  0  0  0  0  0  0  0
    8.0702   -5.8011   25.6068 H   0  0  0  0  0  0  0  0  0  0  0  0
   10.2913   -6.6631   26.3407 H   0  0  0  0  0  0  0  0  0  0  0  0
   12.3859   -5.6709   25.3142 H   0  0  0  0  0  0  0  0  0  0  0  0
  1  2  2  0
  2  3  1  0
  3  4  2  0
  4  5  1  0
  5  6  1  0
  6  7  2  0
  7  8  1  0
  8  9  1  0
  9 10  1  0
 10 11  1  0
 11 12  1  0
 12 13  1  0
 13 14  1  0
 14 15  1  0
 15 16  1  0
 16 17  1  0
 16 18  1  0
 15 19  1  0
 15 20  1  0
 14 21  1  0
 14 22  1  0
 13 23  1  0
 13 24  1  0
 12 25  1  0
 11 26  1  0
 11 27  1  0
 10 28  1  0
 28 29  2  0
 29 30  1  0
 30 31  2  0
 31 32  1  0
 32 33  2  0
 33 34  1  0
 31 35  1  0
 30 36  1  0
 29 37  1  0
 10 38  1  0
  9 39  1  0
  8 40  2  0
  6 41  1  0
  4 42  1  0
 42 43  2  0
 43 44  1  0
  3 45  1  0
  2 46  1  0
  1 47  1  0
 43  1  1  0
 40  5  1  0
 16 12  1  0
 33 28  1  0
M  CHG  1  12   1
M  END
>  <plip>  (1) 
-0.1724137931034483

>  <filename>  (1) 
[H][c]1[n][c](-[n]2[n][c]([N]([H])[C]([H])([c]3[c]([H])[n][c]([H])[c]([H])[c]3[H])[C]([H])([H])[N+]3([H])[C]([H])([H])[C]([H])([H])[C]([H])([H])[C]3([H])[H])[n][c]2[H])[c]([H])[c]([H])[c]1[H]

$$$$
