
     RDKit          3D

 35 37  0  0  0  0  0  0  0  0999 V2000
    5.0146    1.8507   16.9028 H   0  0  0  0  0  0  0  0  0  0  0  0
    5.4382    1.3358   17.7643 C   0  0  0  0  0  0  0  0  0  0  0  0
    6.5976    0.6951   17.5609 N   0  0  0  0  0  0  0  0  0  0  0  0
    7.1249    0.0263   18.5940 C   0  0  0  0  0  0  0  0  0  0  0  0
    8.0731   -0.4779   18.4053 H   0  0  0  0  0  0  0  0  0  0  0  0
    6.5434   -0.0329   19.8828 C   0  0  0  0  0  0  0  0  0  0  0  0
    7.1969   -0.7324   21.0156 C   0  0  0  0  0  0  0  0  0  0  0  0
    7.8533   -0.1639   22.0554 C   0  0  0  0  0  0  0  0  0  0  0  0
    7.8865    1.2714   22.5360 C   0  0  1  0  0  0  0  0  0  0  0  0
    7.2346    1.8530   21.8705 H   0  0  0  0  0  0  0  0  0  0  0  0
    7.2967    1.4020   23.9536 C   0  0  0  0  0  0  0  0  0  0  0  0
    8.0247    1.0954   25.1168 C   0  0  0  0  0  0  0  0  0  0  0  0
    9.0596    0.7577   25.0487 H   0  0  0  0  0  0  0  0  0  0  0  0
    7.4343    1.1974   26.3822 C   0  0  0  0  0  0  0  0  0  0  0  0
    8.0120    0.9453   27.2683 H   0  0  0  0  0  0  0  0  0  0  0  0
    6.1024    1.6066   26.5052 C   0  0  0  0  0  0  0  0  0  0  0  0
    5.6440    1.6910   27.4868 H   0  0  0  0  0  0  0  0  0  0  0  0
    5.3662    1.9182   25.3574 C   0  0  0  0  0  0  0  0  0  0  0  0
    4.3328    2.2455   25.4377 H   0  0  0  0  0  0  0  0  0  0  0  0
    5.9623    1.8106   24.0991 C   0  0  0  0  0  0  0  0  0  0  0  0
    5.3857    2.0520   23.2059 H   0  0  0  0  0  0  0  0  0  0  0  0
    9.2809    1.9114   22.4409 C   0  0  0  0  0  0  0  0  0  0  0  0
    9.6309    1.9191   21.4044 H   0  0  0  0  0  0  0  0  0  0  0  0
   10.0267    1.3972   23.0535 H   0  0  0  0  0  0  0  0  0  0  0  0
    9.2280    2.9479   22.7866 H   0  0  0  0  0  0  0  0  0  0  0  0
    8.5127   -1.2552   22.8452 C   0  0  0  0  0  0  0  0  0  0  0  0
    8.2209   -1.2630   23.9069 H   0  0  0  0  0  0  0  0  0  0  0  0
    9.6111   -1.1914   22.8091 H   0  0  0  0  0  0  0  0  0  0  0  0
    8.0918   -2.4634   22.2393 O   0  0  0  0  0  0  0  0  0  0  0  0
    7.2279   -2.2128   21.2134 C   0  0  0  0  0  0  0  0  0  0  0  0
    6.6374   -3.0951   20.6483 O   0  0  0  0  0  0  0  0  0  0  0  0
    5.3331    0.6444   20.0627 C   0  0  0  0  0  0  0  0  0  0  0  0
    4.8511    0.6318   21.0437 H   0  0  0  0  0  0  0  0  0  0  0  0
    4.7678    1.3364   18.9915 C   0  0  0  0  0  0  0  0  0  0  0  0
    3.8329    1.8724   19.0919 H   0  0  0  0  0  0  0  0  0  0  0  0
  1  2  1  0
  2  3  2  0
  3  4  1  0
  4  5  1  0
  4  6  2  0
  6  7  1  0
  7  8  2  0
  8  9  1  0
  9 10  1  6
  9 11  1  0
 11 12  2  0
 12 13  1  0
 12 14  1  0
 14 15  1  0
 14 16  2  0
 16 17  1  0
 16 18  1  0
 18 19  1  0
 18 20  2  0
 20 21  1  0
  9 22  1  0
 22 23  1  0
 22 24  1  0
 22 25  1  0
  8 26  1  0
 26 27  1  0
 26 28  1  0
 26 29  1  0
 29 30  1  0
 30 31  2  0
  6 32  1  0
 32 33  1  0
 32 34  2  0
 34 35  1  0
 34  2  1  0
 30  7  1  0
 20 11  1  0
M  END
>  <plip>  (1) 
-0.07142857142857142

>  <filename>  (1) 
[H][c]1[n][c]([H])[c]([C]2=[C]([C@@]([H])([c]3[c]([H])[c]([H])[c]([H])[c]([H])[c]3[H])[C]([H])([H])[H])[C]([H])([H])[O][C]2=[O])[c]([H])[c]1[H]

$$$$
