
     RDKit          3D

 34 35  0  0  0  0  0  0  0  0999 V2000
    6.1078    0.9807   25.7044 C   0  0  0  0  0  0  0  0  0  0  0  0
    7.6220    1.0264   25.4544 C   0  0  0  0  0  0  0  0  0  0  0  0
    8.2615   -0.3680   25.5434 C   0  0  0  0  0  0  0  0  0  0  0  0
    7.7754   -1.1180   24.9094 H   0  0  0  0  0  0  0  0  0  0  0  0
    8.1857   -0.7336   26.5718 H   0  0  0  0  0  0  0  0  0  0  0  0
    9.3184   -0.3371   25.2604 H   0  0  0  0  0  0  0  0  0  0  0  0
    7.9486    1.7756   24.1729 C   0  0  0  0  0  0  0  0  0  0  0  0
    8.4639    3.0755   24.2361 C   0  0  0  0  0  0  0  0  0  0  0  0
    8.7515    3.7855   23.0687 C   0  0  0  0  0  0  0  0  0  0  0  0
    8.5211    3.1511   21.8534 C   0  0  0  0  0  0  0  0  0  0  0  0
    8.0326    1.9210   21.7511 N   0  0  0  0  0  0  0  0  0  0  0  0
    7.7175    1.2751   22.8649 C   0  0  0  0  0  0  0  0  0  0  0  0
    7.0335    0.1040   22.6443 N   0  0  0  0  0  0  0  0  0  0  0  0
    7.4860   -0.7306   21.3097 S   0  0  0  0  0  0  0  0  0  0  0  0
    8.9026   -0.5962   21.0354 O   0  0  0  0  0  0  0  0  0  0  0  0
    6.9135   -2.0267   21.6141 O   0  0  0  0  0  0  0  0  0  0  0  0
    6.5993    0.1154   20.1022 C   0  0  0  0  0  0  0  0  0  0  0  0
    5.3651    0.7486   20.2761 C   0  0  0  0  0  0  0  0  0  0  0  0
    4.8020    1.3138   19.1352 C   0  0  0  0  0  0  0  0  0  0  0  0
    5.4936    1.2345   17.9207 C   0  0  0  0  0  0  0  0  0  0  0  0
    6.6881    0.6417   17.7869 N   0  0  0  0  0  0  0  0  0  0  0  0
    7.2417    0.1108   18.8756 C   0  0  0  0  0  0  0  0  0  0  0  0
    8.2290   -0.3296   18.7486 H   0  0  0  0  0  0  0  0  0  0  0  0
    5.0755    1.6796   17.0193 H   0  0  0  0  0  0  0  0  0  0  0  0
    3.8583    1.8478   19.1735 H   0  0  0  0  0  0  0  0  0  0  0  0
    4.8743    0.8434   21.2484 H   0  0  0  0  0  0  0  0  0  0  0  0
    7.0554   -0.6300   23.3214 H   0  0  0  0  0  0  0  0  0  0  0  0
    8.7356    3.6436   20.9144 H   0  0  0  0  0  0  0  0  0  0  0  0
    9.1400    4.7982   23.0785 H   0  0  0  0  0  0  0  0  0  0  0  0
    8.6432    3.5340   25.2076 H   0  0  0  0  0  0  0  0  0  0  0  0
    8.0694    1.6149   26.2689 H   0  0  0  0  0  0  0  0  0  0  0  0
    5.8991    0.5026   26.6663 H   0  0  0  0  0  0  0  0  0  0  0  0
    5.6853    1.9911   25.7309 H   0  0  0  0  0  0  0  0  0  0  0  0
    5.5828    0.4230   24.9209 H   0  0  0  0  0  0  0  0  0  0  0  0
  1  2  1  0
  2  3  1  0
  3  4  1  0
  3  5  1  0
  3  6  1  0
  2  7  1  0
  7  8  2  0
  8  9  1  0
  9 10  2  0
 10 11  1  0
 11 12  2  0
 12 13  1  0
 13 14  1  0
 14 15  2  0
 14 16  2  0
 14 17  1  0
 17 18  2  0
 18 19  1  0
 19 20  2  0
 20 21  1  0
 21 22  2  0
 22 23  1  0
 20 24  1  0
 19 25  1  0
 18 26  1  0
 13 27  1  0
 10 28  1  0
  9 29  1  0
  8 30  1  0
  2 31  1  0
  1 32  1  0
  1 33  1  0
  1 34  1  0
 12  7  1  0
 22 17  1  0
M  END
>  <plip>  (1) 
-0.03571428571428571

>  <filename>  (1) 
[H][c]1[n][c]([N]([H])[S](=[O])(=[O])[c]2[c]([H])[n][c]([H])[c]([H])[c]2[H])[c]([C]([H])([C]([H])([H])[H])[C]([H])([H])[H])[c]([H])[c]1[H]

$$$$
