
     RDKit          3D

 24 25  0  0  0  0  0  0  0  0999 V2000
    4.9466    1.8266   16.9773 H   0  0  0  0  0  0  0  0  0  0  0  0
    5.4012    1.3103   17.8233 C   0  0  0  0  0  0  0  0  0  0  0  0
    6.5673    0.6924   17.5806 N   0  0  0  0  0  0  0  0  0  0  0  0
    7.1524    0.0629   18.6082 C   0  0  0  0  0  0  0  0  0  0  0  0
    8.1040   -0.4231   18.3861 H   0  0  0  0  0  0  0  0  0  0  0  0
    6.6148   -0.0191   19.9095 C   0  0  0  0  0  0  0  0  0  0  0  0
    7.3259   -0.7706   21.0330 C   0  0  0  0  0  0  0  0  0  0  0  0
    7.1023   -0.2768   21.9852 H   0  0  0  0  0  0  0  0  0  0  0  0
    8.4138   -0.7369   20.9099 H   0  0  0  0  0  0  0  0  0  0  0  0
    6.9688   -2.2372   21.2755 C   0  0  0  0  0  0  0  0  0  0  0  0
    7.7750   -3.1312   21.3169 O   0  0  0  0  0  0  0  0  0  0  0  0
    5.6289   -2.3868   21.5220 O   0  0  0  0  0  0  0  0  0  0  0  0
    5.1356   -3.6695   21.7400 C   0  0  0  0  0  0  0  0  0  0  0  0
    4.1918   -4.0914   22.6968 C   0  0  0  0  0  0  0  0  0  0  0  0
    3.7315   -3.5331   23.5060 H   0  0  0  0  0  0  0  0  0  0  0  0
    3.9174   -5.3833   22.5188 N   0  0  0  0  0  0  0  0  0  0  0  0
    4.6787   -5.7750   21.4947 N   0  0  0  0  0  0  0  0  0  0  0  0
    4.5611   -6.7208   21.1417 H   0  0  0  0  0  0  0  0  0  0  0  0
    5.4469   -4.7776   20.9963 C   0  0  0  0  0  0  0  0  0  0  0  0
    6.1708   -4.8762   20.2047 H   0  0  0  0  0  0  0  0  0  0  0  0
    5.3970    0.6401   20.1362 C   0  0  0  0  0  0  0  0  0  0  0  0
    4.9412    0.6441   21.1284 H   0  0  0  0  0  0  0  0  0  0  0  0
    4.7806    1.3125   19.0747 C   0  0  0  0  0  0  0  0  0  0  0  0
    3.8491    1.8540   19.2037 H   0  0  0  0  0  0  0  0  0  0  0  0
  1  2  1  0
  2  3  2  0
  3  4  1  0
  4  5  1  0
  4  6  2  0
  6  7  1  0
  7  8  1  0
  7  9  1  0
  7 10  1  0
 10 11  2  0
 10 12  1  0
 12 13  1  0
 13 14  1  0
 14 15  1  0
 14 16  2  0
 16 17  1  0
 17 18  1  0
 17 19  1  0
 19 20  1  0
  6 21  1  0
 21 22  1  0
 21 23  2  0
 23 24  1  0
 23  2  1  0
 19 13  2  0
M  END
>  <plip>  (1) 
-0.034482758620689655

>  <filename>  (1) 
[H][c]1[n][c]([H])[c]([C]([H])([H])[C](=[O])[O][c]2[c]([H])[n][n]([H])[c]2[H])[c]([H])[c]1[H]

$$$$
