
     RDKit          3D

 35 36  0  0  0  0  0  0  0  0999 V2000
    4.8706    2.0051   16.6510 H   0  0  0  0  0  0  0  0  0  0  0  0
    5.3091    1.4578   17.4857 C   0  0  0  0  0  0  0  0  0  0  0  0
    6.4458    0.7969   17.2232 N   0  0  0  0  0  0  0  0  0  0  0  0
    7.0101    0.1202   18.2317 C   0  0  0  0  0  0  0  0  0  0  0  0
    7.9023   -0.4424   17.9510 H   0  0  0  0  0  0  0  0  0  0  0  0
    6.5167    0.0727   19.5507 C   0  0  0  0  0  0  0  0  0  0  0  0
    7.2078   -0.6922   20.6703 C   0  0  0  0  0  0  0  0  0  0  0  0
    6.4366   -1.1379   21.3082 H   0  0  0  0  0  0  0  0  0  0  0  0
    7.7818   -1.5252   20.2465 H   0  0  0  0  0  0  0  0  0  0  0  0
    8.1674    0.0489   21.6437 C   0  0  2  0  0  0  0  0  0  0  0  0
    8.8440   -0.9411   22.4313 O   0  0  0  0  0  0  0  0  0  0  0  0
    8.1291   -1.6323   23.4559 C   0  0  0  0  0  0  0  0  0  0  0  0
    7.1214   -1.9383   23.1398 H   0  0  0  0  0  0  0  0  0  0  0  0
    8.7085   -2.5462   23.6200 H   0  0  0  0  0  0  0  0  0  0  0  0
    8.0822   -0.8462   24.7605 C   0  0  0  0  0  0  0  0  0  0  0  0
    6.9223   -0.3365   25.3633 C   0  0  0  0  0  0  0  0  0  0  0  0
    5.9392   -0.5632   24.9749 H   0  0  0  0  0  0  0  0  0  0  0  0
    7.0327    0.4681   26.5075 C   0  0  0  0  0  0  0  0  0  0  0  0
    6.1466    0.9203   26.9562 H   0  0  0  0  0  0  0  0  0  0  0  0
    8.1987    0.7548   27.1002 N   0  0  0  0  0  0  0  0  0  0  0  0
    9.3034    0.2338   26.5487 C   0  0  0  0  0  0  0  0  0  0  0  0
   10.2631    0.4362   27.0171 H   0  0  0  0  0  0  0  0  0  0  0  0
    9.2951   -0.5494   25.3976 C   0  0  0  0  0  0  0  0  0  0  0  0
   10.2210   -0.9285   24.9978 H   0  0  0  0  0  0  0  0  0  0  0  0
    7.4954    1.0053   22.4842 N   0  0  0  0  0  0  0  0  0  0  0  0
    8.2022    1.2582   23.1731 H   0  0  0  0  0  0  0  0  0  0  0  0
    6.7927    0.5211   23.0341 H   0  0  0  0  0  0  0  0  0  0  0  0
    9.2639    0.8109   20.9374 C   0  0  0  0  0  0  0  0  0  0  0  0
    9.8369    0.1526   20.2804 H   0  0  0  0  0  0  0  0  0  0  0  0
    9.9322    1.2405   21.6910 H   0  0  0  0  0  0  0  0  0  0  0  0
    8.8072    1.6206   20.3658 H   0  0  0  0  0  0  0  0  0  0  0  0
    5.3057    0.7472   19.7832 C   0  0  0  0  0  0  0  0  0  0  0  0
    4.8428    0.7169   20.7709 H   0  0  0  0  0  0  0  0  0  0  0  0
    4.6910    1.4460   18.7390 C   0  0  0  0  0  0  0  0  0  0  0  0
    3.7520    1.9745   18.8789 H   0  0  0  0  0  0  0  0  0  0  0  0
  1  2  1  0
  2  3  2  0
  3  4  1  0
  4  5  1  0
  4  6  2  0
  6  7  1  0
  7  8  1  0
  7  9  1  0
  7 10  1  0
 10 11  1  1
 11 12  1  0
 12 13  1  0
 12 14  1  0
 12 15  1  0
 15 16  2  0
 16 17  1  0
 16 18  1  0
 18 19  1  0
 18 20  2  0
 20 21  1  0
 21 22  1  0
 21 23  2  0
 23 24  1  0
 10 25  1  0
 25 26  1  0
 25 27  1  0
 10 28  1  0
 28 29  1  0
 28 30  1  0
 28 31  1  0
  6 32  1  0
 32 33  1  0
 32 34  2  0
 34 35  1  0
 34  2  1  0
 23 15  1  0
M  END
>  <plip>  (1) 
-0.10714285714285714

>  <filename>  (1) 
[H][c]1[n][c]([H])[c]([C]([H])([H])[C@]([O][C]([H])([H])[c]2[c]([H])[c]([H])[n][c]([H])[c]2[H])([N]([H])[H])[C]([H])([H])[H])[c]([H])[c]1[H]

$$$$
