
     RDKit          3D

 36 39  0  0  0  0  0  0  0  0999 V2000
    4.9349    1.8114   16.9851 H   0  0  0  0  0  0  0  0  0  0  0  0
    5.3934    1.2921   17.8245 C   0  0  0  0  0  0  0  0  0  0  0  0
    6.5487    0.6603   17.5623 N   0  0  0  0  0  0  0  0  0  0  0  0
    7.1523    0.0397   18.5897 C   0  0  0  0  0  0  0  0  0  0  0  0
    8.1004   -0.4475   18.3656 H   0  0  0  0  0  0  0  0  0  0  0  0
    6.6539   -0.0094   19.9025 C   0  0  0  0  0  0  0  0  0  0  0  0
    7.3846   -0.7372   20.9917 C   0  0  2  0  0  0  0  0  0  0  0  0
    7.1215   -1.7898   21.0766 H   0  0  0  0  0  0  0  0  0  0  0  0
    7.7111   -0.1078   22.3262 C   0  0  2  0  0  0  0  0  0  0  0  0
    7.5228   -0.6769   23.2295 H   0  0  0  0  0  0  0  0  0  0  0  0
    7.6768    1.4016   22.4374 C   0  0  0  0  0  0  0  0  0  0  0  0
    6.6723    1.8367   22.3568 H   0  0  0  0  0  0  0  0  0  0  0  0
    8.0943    1.6956   23.4155 H   0  0  0  0  0  0  0  0  0  0  0  0
    8.5135    1.8690   21.3471 N   0  0  0  0  0  0  0  0  0  0  0  0
    8.9357    3.1934   21.4189 N   0  0  0  0  0  0  0  0  0  0  0  0
    9.5544    3.3875   20.6284 H   0  0  0  0  0  0  0  0  0  0  0  0
    9.6012    3.6452   22.6476 C   0  0  0  0  0  0  0  0  0  0  0  0
    8.8865    3.6454   23.4839 H   0  0  0  0  0  0  0  0  0  0  0  0
    9.8380    4.6907   22.4477 H   0  0  0  0  0  0  0  0  0  0  0  0
   10.8279    2.8674   23.0591 C   0  0  0  0  0  0  0  0  0  0  0  0
   12.3236    3.0382   22.2166 S   0  0  0  0  0  0  0  0  0  0  0  0
   13.1069    1.8883   23.2295 C   0  0  0  0  0  0  0  0  0  0  0  0
   14.1514    1.6576   23.0498 H   0  0  0  0  0  0  0  0  0  0  0  0
   12.2627    1.3978   24.1797 C   0  0  0  0  0  0  0  0  0  0  0  0
   12.5538    0.6544   24.9146 H   0  0  0  0  0  0  0  0  0  0  0  0
   10.9544    1.9692   24.0804 C   0  0  0  0  0  0  0  0  0  0  0  0
   10.1143    1.7137   24.7179 H   0  0  0  0  0  0  0  0  0  0  0  0
    9.4472    0.8316   20.9037 C   0  0  0  0  0  0  0  0  0  0  0  0
   10.4487    0.9688   21.3359 H   0  0  0  0  0  0  0  0  0  0  0  0
    9.5479    0.8268   19.8133 H   0  0  0  0  0  0  0  0  0  0  0  0
    8.8208   -0.4593   21.3777 C   0  0  2  0  0  0  0  0  0  0  0  0
    9.4846   -1.3034   21.5279 H   0  0  0  0  0  0  0  0  0  0  0  0
    5.4263    0.6268   20.1359 C   0  0  0  0  0  0  0  0  0  0  0  0
    5.0037    0.6083   21.1414 H   0  0  0  0  0  0  0  0  0  0  0  0
    4.7897    1.2973   19.0870 C   0  0  0  0  0  0  0  0  0  0  0  0
    3.8667    1.8458   19.2407 H   0  0  0  0  0  0  0  0  0  0  0  0
  1  2  1  0
  2  3  2  0
  3  4  1  0
  4  5  1  0
  4  6  2  0
  6  7  1  0
  7  8  1  1
  7  9  1  0
  9 10  1  1
  9 11  1  0
 11 12  1  0
 11 13  1  0
 11 14  1  0
 14 15  1  0
 15 16  1  0
 15 17  1  0
 17 18  1  0
 17 19  1  0
 17 20  1  0
 20 21  1  0
 21 22  1  0
 22 23  1  0
 22 24  2  0
 24 25  1  0
 24 26  1  0
 26 27  1  0
 14 28  1  0
 28 29  1  0
 28 30  1  0
 28 31  1  0
 31 32  1  1
  6 33  1  0
 33 34  1  0
 33 35  2  0
 35 36  1  0
 35  2  1  0
 31  7  1  0
 31  9  1  0
 26 20  2  0
M  END
>  <plip>  (1) 
-0.10344827586206896

>  <filename>  (1) 
[H][c]1[n][c]([H])[c]([C@]2([H])[C@]3([H])[C]([H])([H])[N]([N]([H])[C]([H])([H])[c]4[s][c]([H])[c]([H])[c]4[H])[C]([H])([H])[C@]23[H])[c]([H])[c]1[H]

$$$$
