
     RDKit          3D

 25 26  0  0  0  0  0  0  0  0999 V2000
    7.2189   -1.4624   24.3455 H   0  0  0  0  0  0  0  0  0  0  0  0
    8.1298   -1.9819   24.0075 C   0  0  0  0  0  0  0  0  0  0  0  0
    8.5547   -1.8769   22.7889 N   0  0  0  0  0  0  0  0  0  0  0  0
    7.8947   -1.2389   21.8576 C   0  0  0  0  0  0  0  0  0  0  0  0
    7.3394   -0.6813   20.9400 C   0  0  0  0  0  0  0  0  0  0  0  0
    6.6550   -0.0003   19.8897 C   0  0  0  0  0  0  0  0  0  0  0  0
    7.1840    0.0387   18.5821 C   0  0  0  0  0  0  0  0  0  0  0  0
    8.1356   -0.4571   18.3777 H   0  0  0  0  0  0  0  0  0  0  0  0
    6.5806    0.6655   17.5661 N   0  0  0  0  0  0  0  0  0  0  0  0
    5.4202    1.2906   17.8284 C   0  0  0  0  0  0  0  0  0  0  0  0
    4.9615    1.8055   16.9911 H   0  0  0  0  0  0  0  0  0  0  0  0
    4.8090    1.3076   19.0865 C   0  0  0  0  0  0  0  0  0  0  0  0
    3.8758    1.8355   19.2297 H   0  0  0  0  0  0  0  0  0  0  0  0
    5.4367    0.6522   20.1424 C   0  0  0  0  0  0  0  0  0  0  0  0
    5.0278    0.6406   21.1522 H   0  0  0  0  0  0  0  0  0  0  0  0
    8.8191   -2.7642   24.9932 C   0  0  0  0  0  0  0  0  0  0  0  0
    8.2331   -2.8176   26.2611 C   0  0  0  0  0  0  0  0  0  0  0  0
    7.3487   -2.2083   26.4571 H   0  0  0  0  0  0  0  0  0  0  0  0
    8.7059   -3.5563   27.2572 N   0  0  0  0  0  0  0  0  0  0  0  0
    9.8099   -4.2815   27.0196 C   0  0  0  0  0  0  0  0  0  0  0  0
   10.1783   -4.8829   27.8478 H   0  0  0  0  0  0  0  0  0  0  0  0
   10.4936   -4.2714   25.7981 C   0  0  0  0  0  0  0  0  0  0  0  0
   11.3726   -4.8887   25.6652 H   0  0  0  0  0  0  0  0  0  0  0  0
   10.0093   -3.4746   24.7665 C   0  0  0  0  0  0  0  0  0  0  0  0
   10.4943   -3.3895   23.7963 H   0  0  0  0  0  0  0  0  0  0  0  0
  1  2  1  0
  2  3  2  3
  3  4  1  0
  4  5  3  0
  5  6  1  0
  6  7  2  0
  7  8  1  0
  7  9  1  0
  9 10  2  0
 10 11  1  0
 10 12  1  0
 12 13  1  0
 12 14  2  0
 14 15  1  0
  2 16  1  0
 16 17  2  0
 17 18  1  0
 17 19  1  0
 19 20  2  0
 20 21  1  0
 20 22  1  0
 22 23  1  0
 22 24  2  0
 24 25  1  0
 14  6  1  0
 24 16  1  0
M  END
>  <plip>  (1) 
-0.03571428571428571

>  <filename>  (1) 
[H][C](=[N][C]#[C][c]1[c]([H])[n][c]([H])[c]([H])[c]1[H])[c]1[c]([H])[n][c]([H])[c]([H])[c]1[H]

$$$$
