
     RDKit          3D

 31 33  0  0  0  0  0  0  0  0999 V2000
    5.0296    1.6730   17.0066 H   0  0  0  0  0  0  0  0  0  0  0  0
    5.5486    1.1932   17.8344 C   0  0  0  0  0  0  0  0  0  0  0  0
    6.7087    0.5916   17.5238 N   0  0  0  0  0  0  0  0  0  0  0  0
    7.3874    0.0220   18.5254 C   0  0  0  0  0  0  0  0  0  0  0  0
    8.3354   -0.4494   18.2640 H   0  0  0  0  0  0  0  0  0  0  0  0
    6.9435   -0.0057   19.8501 C   0  0  0  0  0  0  0  0  0  0  0  0
    7.7819   -0.6522   20.8734 C   0  0  0  0  0  0  0  0  0  0  0  0
    9.0083   -0.2462   21.0770 N   0  0  0  0  0  0  0  0  0  0  0  0
    9.4813   -0.9976   22.1193 O   0  0  0  0  0  0  0  0  0  0  0  0
    8.5317   -1.8627   22.5113 C   0  0  0  0  0  0  0  0  0  0  0  0
    8.8554   -2.4985   23.3248 H   0  0  0  0  0  0  0  0  0  0  0  0
    7.4094   -1.7191   21.7654 C   0  0  0  0  0  0  0  0  0  0  0  0
    6.0627   -2.3985   21.6538 C   0  0  0  0  0  0  0  0  0  0  0  0
    5.3564   -1.5634   21.5615 H   0  0  0  0  0  0  0  0  0  0  0  0
    5.9458   -3.2166   20.3511 C   0  0  0  0  0  0  0  0  0  0  0  0
    6.4637   -2.6858   19.5495 H   0  0  0  0  0  0  0  0  0  0  0  0
    4.9038   -3.2793   20.0463 H   0  0  0  0  0  0  0  0  0  0  0  0
    6.5030   -4.6309   20.4879 C   0  0  0  0  0  0  0  0  0  0  0  0
    7.5999   -4.5949   20.5655 H   0  0  0  0  0  0  0  0  0  0  0  0
    6.2323   -5.2313   19.6094 H   0  0  0  0  0  0  0  0  0  0  0  0
    5.9756   -5.3160   21.6116 O   0  0  0  0  0  0  0  0  0  0  0  0
    6.2241   -4.6561   22.8457 C   0  0  0  0  0  0  0  0  0  0  0  0
    5.7376   -5.2751   23.6077 H   0  0  0  0  0  0  0  0  0  0  0  0
    7.3032   -4.6336   23.0686 H   0  0  0  0  0  0  0  0  0  0  0  0
    5.6281   -3.2458   22.8585 C   0  0  0  0  0  0  0  0  0  0  0  0
    5.8293   -2.7119   23.7971 H   0  0  0  0  0  0  0  0  0  0  0  0
    4.5422   -3.3828   22.7923 H   0  0  0  0  0  0  0  0  0  0  0  0
    5.7205    0.6120   20.1586 C   0  0  0  0  0  0  0  0  0  0  0  0
    5.3464    0.6173   21.1848 H   0  0  0  0  0  0  0  0  0  0  0  0
    5.0153    1.2299   19.1264 C   0  0  0  0  0  0  0  0  0  0  0  0
    4.0768    1.7422   19.3128 H   0  0  0  0  0  0  0  0  0  0  0  0
  1  2  1  0
  2  3  2  0
  3  4  1  0
  4  5  1  0
  4  6  2  0
  6  7  1  0
  7  8  2  0
  8  9  1  0
  9 10  1  0
 10 11  1  0
 10 12  2  0
 12 13  1  0
 13 14  1  0
 13 15  1  0
 15 16  1  0
 15 17  1  0
 15 18  1  0
 18 19  1  0
 18 20  1  0
 18 21  1  0
 21 22  1  0
 22 23  1  0
 22 24  1  0
 22 25  1  0
 25 26  1  0
 25 27  1  0
  6 28  1  0
 28 29  1  0
 28 30  2  0
 30 31  1  0
 30  2  1  0
 12  7  1  0
 25 13  1  0
M  END
>  <plip>  (1) 
-0.10344827586206896

>  <filename>  (1) 
[H][c]1[n][c]([H])[c](-[c]2[n][o][c]([H])[c]2[C]2([H])[C]([H])([H])[C]([H])([H])[O][C]([H])([H])[C]2([H])[H])[c]([H])[c]1[H]

$$$$
