
     RDKit          3D

 22 23  0  0  0  0  0  0  0  0999 V2000
    4.9131    1.7814   16.9954 H   0  0  0  0  0  0  0  0  0  0  0  0
    5.3994    1.2937   17.8391 C   0  0  0  0  0  0  0  0  0  0  0  0
    6.5649    0.6825   17.5727 N   0  0  0  0  0  0  0  0  0  0  0  0
    7.1660    0.0534   18.5896 C   0  0  0  0  0  0  0  0  0  0  0  0
    8.1183   -0.4299   18.3716 H   0  0  0  0  0  0  0  0  0  0  0  0
    6.6349   -0.0287   19.8862 C   0  0  0  0  0  0  0  0  0  0  0  0
    7.5387   -0.8504   21.1886 S   0  0  0  0  0  0  0  0  0  0  0  0
    8.4810    0.5787   21.6926 C   0  0  0  0  0  0  0  0  0  0  0  0
    9.6944    0.8746   21.0622 C   0  0  0  0  0  0  0  0  0  0  0  0
   10.0377    0.1781   20.3117 H   0  0  0  0  0  0  0  0  0  0  0  0
   10.4428    2.0028   21.3953 C   0  0  0  0  0  0  0  0  0  0  0  0
   11.3951    2.2247   20.9252 H   0  0  0  0  0  0  0  0  0  0  0  0
    9.9370    2.8470   22.3763 C   0  0  0  0  0  0  0  0  0  0  0  0
   10.6428    3.9266   22.7334 F   0  0  0  0  0  0  0  0  0  0  0  0
    8.7216    2.6172   23.0162 C   0  0  0  0  0  0  0  0  0  0  0  0
    8.3402    3.2862   23.7781 H   0  0  0  0  0  0  0  0  0  0  0  0
    8.0065    1.4833   22.6487 C   0  0  0  0  0  0  0  0  0  0  0  0
    6.8276    1.2654   23.2454 F   0  0  0  0  0  0  0  0  0  0  0  0
    5.4324    0.6429   20.1587 C   0  0  0  0  0  0  0  0  0  0  0  0
    5.0139    0.6358   21.1701 H   0  0  0  0  0  0  0  0  0  0  0  0
    4.8029    1.3132   19.1049 C   0  0  0  0  0  0  0  0  0  0  0  0
    3.8708    1.8475   19.2614 H   0  0  0  0  0  0  0  0  0  0  0  0
  1  2  1  0
  2  3  2  0
  3  4  1  0
  4  5  1  0
  4  6  2  0
  6  7  1  0
  7  8  1  0
  8  9  2  0
  9 10  1  0
  9 11  1  0
 11 12  1  0
 11 13  2  0
 13 14  1  0
 13 15  1  0
 15 16  1  0
 15 17  2  0
 17 18  1  0
  6 19  1  0
 19 20  1  0
 19 21  2  0
 21 22  1  0
 21  2  1  0
 17  8  1  0
M  END
>  <plip>  (1) 
-0.06896551724137931

>  <filename>  (1) 
[H][c]1[n][c]([H])[c]([S][c]2[c]([H])[c]([H])[c]([F])[c]([H])[c]2[F])[c]([H])[c]1[H]

$$$$
