
     RDKit          3D

 30 33  0  0  0  0  0  0  0  0999 V2000
    4.9719    1.7938   17.0216 H   0  0  0  0  0  0  0  0  0  0  0  0
    5.4349    1.2637   17.8527 C   0  0  0  0  0  0  0  0  0  0  0  0
    6.5841    0.6137   17.6008 N   0  0  0  0  0  0  0  0  0  0  0  0
    7.1878   -0.0168   18.6216 C   0  0  0  0  0  0  0  0  0  0  0  0
    8.1175   -0.5433   18.4023 H   0  0  0  0  0  0  0  0  0  0  0  0
    6.6714   -0.0271   19.9277 C   0  0  0  0  0  0  0  0  0  0  0  0
    7.2941   -0.7543   20.9950 N   0  0  0  0  0  0  0  0  0  0  0  0
    6.5259   -1.5837   21.7425 N   0  0  0  0  0  0  0  0  0  0  0  0
    7.2867   -2.1088   22.6206 N   0  0  0  0  0  0  0  0  0  0  0  0
    8.5569   -1.6565   22.5124 N   0  0  0  0  0  0  0  0  0  0  0  0
    8.5468   -0.7964   21.5224 C   0  0  0  0  0  0  0  0  0  0  0  0
    9.9260    0.1582   20.9858 S   0  0  0  0  0  0  0  0  0  0  0  0
    9.4679    1.7534   21.6140 C   0  0  0  0  0  0  0  0  0  0  0  0
   10.2719    2.3597   23.0332 S   0  0  0  0  0  0  0  0  0  0  0  0
    9.1856    3.7191   23.1106 C   0  0  0  0  0  0  0  0  0  0  0  0
    9.0948    4.6724   24.1391 C   0  0  0  0  0  0  0  0  0  0  0  0
    9.7088    4.5707   25.0339 H   0  0  0  0  0  0  0  0  0  0  0  0
    8.1976    5.7267   23.9789 C   0  0  0  0  0  0  0  0  0  0  0  0
    8.1216    6.4852   24.7526 H   0  0  0  0  0  0  0  0  0  0  0  0
    7.3940    5.8301   22.8171 C   0  0  0  0  0  0  0  0  0  0  0  0
    6.7359    6.6896   22.6896 H   0  0  0  0  0  0  0  0  0  0  0  0
    7.4458    4.8492   21.8357 C   0  0  0  0  0  0  0  0  0  0  0  0
    6.8189    4.9347   20.9516 H   0  0  0  0  0  0  0  0  0  0  0  0
    8.3211    3.7488   21.9909 C   0  0  0  0  0  0  0  0  0  0  0  0
    8.4886    2.5803   21.1638 C   0  0  0  0  0  0  0  0  0  0  0  0
    7.8604    2.3667   20.3044 H   0  0  0  0  0  0  0  0  0  0  0  0
    5.4576    0.6273   20.1761 C   0  0  0  0  0  0  0  0  0  0  0  0
    5.0114    0.5927   21.1721 H   0  0  0  0  0  0  0  0  0  0  0  0
    4.8367    1.2882   19.1168 C   0  0  0  0  0  0  0  0  0  0  0  0
    3.9040    1.8200   19.2665 H   0  0  0  0  0  0  0  0  0  0  0  0
  1  2  1  0
  2  3  2  0
  3  4  1  0
  4  5  1  0
  4  6  2  0
  6  7  1  0
  7  8  1  0
  8  9  2  0
  9 10  1  0
 10 11  2  0
 11 12  1  0
 12 13  1  0
 13 14  1  0
 14 15  1  0
 15 16  2  0
 16 17  1  0
 16 18  1  0
 18 19  1  0
 18 20  2  0
 20 21  1  0
 20 22  1  0
 22 23  1  0
 22 24  2  0
 24 25  1  0
 25 26  1  0
  6 27  1  0
 27 28  1  0
 27 29  2  0
 29 30  1  0
 29  2  1  0
 11  7  1  0
 25 13  2  0
 24 15  1  0
M  END
>  <plip>  (1) 
-0.03571428571428571

>  <filename>  (1) 
[H][c]1[n][c]([H])[c](-[n]2[n][n][n][c]2[S][c]2[s][c]3[c]([H])[c]([H])[c]([H])[c]([H])[c]3[c]2[H])[c]([H])[c]1[H]

$$$$
