
     RDKit          3D

 29 31  0  0  0  0  0  0  0  0999 V2000
    4.8823    1.8338   16.9977 H   0  0  0  0  0  0  0  0  0  0  0  0
    5.3888    1.3093   17.8049 C   0  0  0  0  0  0  0  0  0  0  0  0
    6.5646    0.7036   17.5576 N   0  0  0  0  0  0  0  0  0  0  0  0
    7.1909    0.0818   18.5776 C   0  0  0  0  0  0  0  0  0  0  0  0
    8.1398   -0.4078   18.3891 H   0  0  0  0  0  0  0  0  0  0  0  0
    6.6707    0.0153   19.8774 C   0  0  0  0  0  0  0  0  0  0  0  0
    7.3587   -0.6406   20.9081 N   0  0  0  0  0  0  0  0  0  0  0  0
    6.8190   -1.5544   21.8106 C   0  0  0  0  0  0  0  0  0  0  0  0
    5.7341   -2.1248   21.7301 O   0  0  0  0  0  0  0  0  0  0  0  0
    7.9251   -1.9492   22.6850 C   0  0  0  0  0  0  0  0  0  0  0  0
    7.8159   -2.8142   23.8654 C   0  0  0  0  0  0  0  0  0  0  0  0
    8.7959   -2.7806   24.8649 C   0  0  0  0  0  0  0  0  0  0  0  0
    9.6214   -2.0836   24.7697 H   0  0  0  0  0  0  0  0  0  0  0  0
    8.7082   -3.6148   25.9897 C   0  0  0  0  0  0  0  0  0  0  0  0
    9.4646   -3.5795   26.7678 H   0  0  0  0  0  0  0  0  0  0  0  0
    7.6398   -4.5046   26.1271 C   0  0  0  0  0  0  0  0  0  0  0  0
    7.5399   -5.6505   27.6600 Br  0  0  0  0  0  0  0  0  0  0  0  0
    6.6530   -4.5455   25.1360 C   0  0  0  0  0  0  0  0  0  0  0  0
    5.8262   -5.2410   25.2490 H   0  0  0  0  0  0  0  0  0  0  0  0
    6.7345   -3.6962   24.0180 C   0  0  0  0  0  0  0  0  0  0  0  0
    5.9647   -3.7244   23.2551 H   0  0  0  0  0  0  0  0  0  0  0  0
    9.0938   -1.3988   22.1885 C   0  0  0  0  0  0  0  0  0  0  0  0
   10.0912   -1.5536   22.6032 H   0  0  0  0  0  0  0  0  0  0  0  0
    8.7787   -0.6680   21.0449 N   0  0  0  0  0  0  0  0  0  0  0  0
    9.4338   -0.0829   20.5173 H   0  0  0  0  0  0  0  0  0  0  0  0
    5.4429    0.6284   20.1276 C   0  0  0  0  0  0  0  0  0  0  0  0
    5.0140    0.6101   21.1260 H   0  0  0  0  0  0  0  0  0  0  0  0
    4.8074    1.2931   19.0757 C   0  0  0  0  0  0  0  0  0  0  0  0
    3.8771    1.8232   19.2299 H   0  0  0  0  0  0  0  0  0  0  0  0
  1  2  1  0
  2  3  2  0
  3  4  1  0
  4  5  1  0
  4  6  2  0
  6  7  1  0
  7  8  1  0
  8  9  2  0
  8 10  1  0
 10 11  1  0
 11 12  2  0
 12 13  1  0
 12 14  1  0
 14 15  1  0
 14 16  2  0
 16 17  1  0
 16 18  1  0
 18 19  1  0
 18 20  2  0
 20 21  1  0
 10 22  2  0
 22 23  1  0
 22 24  1  0
 24 25  1  0
  6 26  1  0
 26 27  1  0
 26 28  2  0
 28 29  1  0
 28  2  1  0
 24  7  1  0
 20 11  1  0
M  END
>  <plip>  (1) 
-0.034482758620689655

>  <filename>  (1) 
[H][c]1[n][c]([H])[c](-[n]2[c](=[O])[c](-[c]3[c]([H])[c]([H])[c]([Br])[c]([H])[c]3[H])[c]([H])[n]2[H])[c]([H])[c]1[H]

$$$$
