
     RDKit          3D

 26 27  0  0  0  0  0  0  0  0999 V2000
    9.5734   -3.7137   26.6440 F   0  0  0  0  0  0  0  0  0  0  0  0
    9.6692   -4.5399   25.5912 C   0  0  0  0  0  0  0  0  0  0  0  0
   10.9819   -4.7155   25.3385 F   0  0  0  0  0  0  0  0  0  0  0  0
    9.1721   -5.7256   25.9596 F   0  0  0  0  0  0  0  0  0  0  0  0
    8.9554   -3.9486   24.3925 C   0  0  0  0  0  0  0  0  0  0  0  0
    9.6429   -3.4468   23.2648 C   0  0  0  0  0  0  0  0  0  0  0  0
    8.8705   -2.8738   22.2726 C   0  0  0  0  0  0  0  0  0  0  0  0
    7.4747   -2.8087   22.4710 C   0  0  0  0  0  0  0  0  0  0  0  0
    6.3806   -2.1321   21.2617 S   0  0  0  0  0  0  0  0  0  0  0  0
    7.2179   -0.5446   20.8997 C   0  0  0  0  0  0  0  0  0  0  0  0
    6.5207    0.1551   19.7604 C   0  0  0  0  0  0  0  0  0  0  0  0
    5.3047    0.8297   19.9459 C   0  0  0  0  0  0  0  0  0  0  0  0
    4.7179    1.4718   18.8519 C   0  0  0  0  0  0  0  0  0  0  0  0
    5.3602    1.4131   17.6114 C   0  0  0  0  0  0  0  0  0  0  0  0
    6.5183    0.7666   17.4097 N   0  0  0  0  0  0  0  0  0  0  0  0
    7.0734    0.1688   18.4700 C   0  0  0  0  0  0  0  0  0  0  0  0
    8.0278   -0.3245   18.2799 H   0  0  0  0  0  0  0  0  0  0  0  0
    4.9366    1.9052   16.7374 H   0  0  0  0  0  0  0  0  0  0  0  0
    3.7950    2.0350   18.9491 H   0  0  0  0  0  0  0  0  0  0  0  0
    4.8345    0.8582   20.9315 H   0  0  0  0  0  0  0  0  0  0  0  0
    7.2092    0.0718   21.8057 H   0  0  0  0  0  0  0  0  0  0  0  0
    8.2645   -0.7313   20.6349 H   0  0  0  0  0  0  0  0  0  0  0  0
    6.8873   -3.3394   23.5563 N   0  0  0  0  0  0  0  0  0  0  0  0
    7.6271   -3.8843   24.5063 N   0  0  0  0  0  0  0  0  0  0  0  0
    9.3185   -2.5117   21.3509 H   0  0  0  0  0  0  0  0  0  0  0  0
   10.7278   -3.4860   23.1841 H   0  0  0  0  0  0  0  0  0  0  0  0
  1  2  1  0
  2  3  1  0
  2  4  1  0
  2  5  1  0
  5  6  2  0
  6  7  1  0
  7  8  2  0
  8  9  1  0
  9 10  1  0
 10 11  1  0
 11 12  2  0
 12 13  1  0
 13 14  2  0
 14 15  1  0
 15 16  2  0
 16 17  1  0
 14 18  1  0
 13 19  1  0
 12 20  1  0
 10 21  1  0
 10 22  1  0
  8 23  1  0
 23 24  2  0
  7 25  1  0
  6 26  1  0
 24  5  1  0
 16 11  1  0
M  END
>  <plip>  (1) 
-0.034482758620689655

>  <filename>  (1) 
[H][c]1[n][c]([H])[c]([C]([H])([H])[S][c]2[n][n][c]([C]([F])([F])[F])[c]([H])[c]2[H])[c]([H])[c]1[H]

$$$$
