
     RDKit          3D

 28 30  0  0  0  0  0  0  0  0999 V2000
    5.6949   -1.2491   21.9062 H   0  0  0  0  0  0  0  0  0  0  0  0
    6.7659   -1.3770   21.9123 C   0  0  0  0  0  0  0  0  0  0  0  0
    7.4428   -0.8260   20.8408 C   0  0  0  0  0  0  0  0  0  0  0  0
    9.3460   -0.9747   20.6900 Br  0  0  0  0  0  0  0  0  0  0  0  0
    6.7121   -0.0703   19.8047 C   0  0  0  0  0  0  0  0  0  0  0  0
    7.2757    0.0828   18.5251 C   0  0  0  0  0  0  0  0  0  0  0  0
    8.2448   -0.3713   18.3397 H   0  0  0  0  0  0  0  0  0  0  0  0
    6.6741    0.7519   17.5217 N   0  0  0  0  0  0  0  0  0  0  0  0
    5.4870    1.3272   17.7773 C   0  0  0  0  0  0  0  0  0  0  0  0
    5.0004    1.8843   16.9835 H   0  0  0  0  0  0  0  0  0  0  0  0
    4.8620    1.2442   19.0263 C   0  0  0  0  0  0  0  0  0  0  0  0
    3.9131    1.7489   19.1686 H   0  0  0  0  0  0  0  0  0  0  0  0
    5.4707    0.5304   20.0605 C   0  0  0  0  0  0  0  0  0  0  0  0
    4.9942    0.4622   21.0391 H   0  0  0  0  0  0  0  0  0  0  0  0
    7.3373   -2.0946   23.0585 C   0  0  0  0  0  0  0  0  0  0  0  0
    6.5568   -2.2277   24.2264 C   0  0  0  0  0  0  0  0  0  0  0  0
    5.5564   -1.8059   24.2774 H   0  0  0  0  0  0  0  0  0  0  0  0
    7.0557   -2.9269   25.3299 C   0  0  0  0  0  0  0  0  0  0  0  0
    6.4537   -3.0343   26.2241 H   0  0  0  0  0  0  0  0  0  0  0  0
    8.3275   -3.4935   25.2541 C   0  0  0  0  0  0  0  0  0  0  0  0
    9.1081   -3.3568   24.1292 C   0  0  0  0  0  0  0  0  0  0  0  0
   10.3296   -4.0870   24.4168 C   0  0  0  0  0  0  0  0  0  0  0  0
   11.1605   -4.2132   23.7271 H   0  0  0  0  0  0  0  0  0  0  0  0
   10.2772   -4.6371   25.6080 N   0  0  0  0  0  0  0  0  0  0  0  0
    9.0582   -4.2815   26.1194 N   0  0  0  0  0  0  0  0  0  0  0  0
    8.6479   -4.6786   26.9662 H   0  0  0  0  0  0  0  0  0  0  0  0
    8.6197   -2.6745   23.0131 C   0  0  0  0  0  0  0  0  0  0  0  0
    9.2162   -2.6468   22.1086 H   0  0  0  0  0  0  0  0  0  0  0  0
  1  2  1  0
  2  3  2  3
  3  4  1  0
  3  5  1  0
  5  6  2  0
  6  7  1  0
  6  8  1  0
  8  9  2  0
  9 10  1  0
  9 11  1  0
 11 12  1  0
 11 13  2  0
 13 14  1  0
  2 15  1  0
 15 16  2  0
 16 17  1  0
 16 18  1  0
 18 19  1  0
 18 20  2  0
 20 21  1  0
 21 22  1  0
 22 23  1  0
 22 24  2  0
 24 25  1  0
 25 26  1  0
 21 27  2  0
 27 28  1  0
 13  5  1  0
 27 15  1  0
 25 20  1  0
M  END
>  <plip>  (1) 
-0.06896551724137931

>  <filename>  (1) 
[H][C](=[C]([Br])[c]1[c]([H])[n][c]([H])[c]([H])[c]1[H])[c]1[c]([H])[c]([H])[c]2[c]([c]([H])[n][n]2[H])[c]1[H]

$$$$
