
     RDKit          3D

 33 34  0  0  0  0  0  0  0  0999 V2000
    4.9312    1.8173   16.9657 H   0  0  0  0  0  0  0  0  0  0  0  0
    5.3976    1.3021   17.7993 C   0  0  0  0  0  0  0  0  0  0  0  0
    6.5528    0.6706   17.5334 N   0  0  0  0  0  0  0  0  0  0  0  0
    7.1569    0.0565   18.5582 C   0  0  0  0  0  0  0  0  0  0  0  0
    8.1066   -0.4284   18.3179 H   0  0  0  0  0  0  0  0  0  0  0  0
    6.6601    0.0303   19.8671 C   0  0  0  0  0  0  0  0  0  0  0  0
    7.4022   -0.7139   20.9462 C   0  0  0  0  0  0  0  0  0  0  0  0
    8.4918   -0.6734   20.7722 H   0  0  0  0  0  0  0  0  0  0  0  0
    7.2375   -0.2225   21.9157 H   0  0  0  0  0  0  0  0  0  0  0  0
    6.9205   -2.0826   21.0451 N   0  0  0  0  0  0  0  0  0  0  0  0
    7.0343   -2.6097   20.1871 H   0  0  0  0  0  0  0  0  0  0  0  0
    7.2810   -2.8351   22.1798 N   0  0  0  0  0  0  0  0  0  0  0  0
    6.3674   -2.5416   23.2798 C   0  0  0  0  0  0  0  0  0  0  0  0
    6.5857   -3.2016   24.1214 H   0  0  0  0  0  0  0  0  0  0  0  0
    5.3438   -2.7686   22.9704 H   0  0  0  0  0  0  0  0  0  0  0  0
    6.4197   -1.4904   23.6265 H   0  0  0  0  0  0  0  0  0  0  0  0
    8.7032   -2.8336   22.5713 C   0  0  0  0  0  0  0  0  0  0  0  0
    9.0285   -1.8539   22.9721 H   0  0  0  0  0  0  0  0  0  0  0  0
    9.3082   -3.0181   21.6706 H   0  0  0  0  0  0  0  0  0  0  0  0
    8.9428   -3.9359   23.5679 C   0  0  0  0  0  0  0  0  0  0  0  0
    8.7871   -5.2580   23.1458 C   0  0  0  0  0  0  0  0  0  0  0  0
    8.5035   -5.4628   22.1130 H   0  0  0  0  0  0  0  0  0  0  0  0
    9.0003   -6.3205   23.9314 N   0  0  0  0  0  0  0  0  0  0  0  0
    9.3333   -6.0833   25.2076 C   0  0  0  0  0  0  0  0  0  0  0  0
    9.5329   -6.9566   25.8249 H   0  0  0  0  0  0  0  0  0  0  0  0
    9.4204   -4.8045   25.7591 C   0  0  0  0  0  0  0  0  0  0  0  0
    9.6540   -4.6736   26.8103 H   0  0  0  0  0  0  0  0  0  0  0  0
    9.2021   -3.7080   24.9213 C   0  0  0  0  0  0  0  0  0  0  0  0
    9.2032   -2.6918   25.3107 H   0  0  0  0  0  0  0  0  0  0  0  0
    5.4353    0.6707   20.1159 C   0  0  0  0  0  0  0  0  0  0  0  0
    4.9981    0.6597   21.1178 H   0  0  0  0  0  0  0  0  0  0  0  0
    4.7951    1.3199   19.0615 C   0  0  0  0  0  0  0  0  0  0  0  0
    3.8614    1.8563   19.2086 H   0  0  0  0  0  0  0  0  0  0  0  0
  1  2  1  0
  2  3  2  0
  3  4  1  0
  4  5  1  0
  4  6  2  0
  6  7  1  0
  7  8  1  0
  7  9  1  0
  7 10  1  0
 10 11  1  0
 10 12  1  0
 12 13  1  0
 13 14  1  0
 13 15  1  0
 13 16  1  0
 12 17  1  0
 17 18  1  0
 17 19  1  0
 17 20  1  0
 20 21  2  0
 21 22  1  0
 21 23  1  0
 23 24  2  0
 24 25  1  0
 24 26  1  0
 26 27  1  0
 26 28  2  0
 28 29  1  0
  6 30  1  0
 30 31  1  0
 30 32  2  0
 32 33  1  0
 32  2  1  0
 28 20  1  0
M  END
>  <plip>  (1) 
-0.034482758620689655

>  <filename>  (1) 
[H][c]1[n][c]([H])[c]([C]([H])([H])[N]([H])[N]([C]([H])([H])[H])[C]([H])([H])[c]2[c]([H])[n][c]([H])[c]([H])[c]2[H])[c]([H])[c]1[H]

$$$$
