
     RDKit          3D

 46 49  0  0  0  0  0  0  0  0999 V2000
    7.0789    5.1950   26.6603 C   0  0  0  0  0  0  0  0  0  0  0  0
    6.6515    4.0097   25.8502 C   0  0  0  0  0  0  0  0  0  0  0  0
    5.4283    3.3821   25.9632 C   0  0  0  0  0  0  0  0  0  0  0  0
    5.1267    2.2669   25.1378 C   0  0  0  0  0  0  0  0  0  0  0  0
    5.9683    1.7542   24.2409 N   0  0  0  0  0  0  0  0  0  0  0  0
    7.1584    2.3946   24.1276 C   0  0  0  0  0  0  0  0  0  0  0  0
    8.2385    2.1864   23.2707 C   0  0  0  0  0  0  0  0  0  0  0  0
    8.3912    1.2384   22.1893 C   0  0  0  0  0  0  0  0  0  0  0  0
    9.2321    1.3978   21.3146 O   0  0  0  0  0  0  0  0  0  0  0  0
    7.5681    0.1532   22.2391 N   0  0  0  0  0  0  0  0  0  0  0  0
    7.3992   -0.6645   21.0461 C   0  0  0  0  0  0  0  0  0  0  0  0
    6.6937   -1.9907   21.3528 C   0  0  0  0  0  0  0  0  0  0  0  0
    7.4510   -2.9421   22.2807 C   0  0  0  0  0  0  0  0  0  0  0  0
    6.7403   -4.2567   22.5177 C   0  0  0  0  0  0  0  0  0  0  0  0
    7.5366   -5.4499   22.9582 C   0  0  0  0  0  0  0  0  0  0  0  0
    6.9397   -5.4130   21.5802 C   0  0  0  0  0  0  0  0  0  0  0  0
    7.6064   -5.2641   20.7364 H   0  0  0  0  0  0  0  0  0  0  0  0
    6.0990   -6.0652   21.3724 H   0  0  0  0  0  0  0  0  0  0  0  0
    7.1025   -6.1171   23.6949 H   0  0  0  0  0  0  0  0  0  0  0  0
    8.6102   -5.3234   23.0558 H   0  0  0  0  0  0  0  0  0  0  0  0
    5.7448   -4.1676   22.9515 H   0  0  0  0  0  0  0  0  0  0  0  0
    7.6322   -2.4612   23.2479 H   0  0  0  0  0  0  0  0  0  0  0  0
    8.4473   -3.1307   21.8539 H   0  0  0  0  0  0  0  0  0  0  0  0
    5.7016   -1.7587   21.7594 H   0  0  0  0  0  0  0  0  0  0  0  0
    6.5184   -2.4898   20.3908 H   0  0  0  0  0  0  0  0  0  0  0  0
    6.6616    0.0807   19.9397 C   0  0  0  0  0  0  0  0  0  0  0  0
    5.4250    0.7100   20.1492 C   0  0  0  0  0  0  0  0  0  0  0  0
    4.7884    1.3310   19.0733 C   0  0  0  0  0  0  0  0  0  0  0  0
    5.4042    1.2900   17.8178 C   0  0  0  0  0  0  0  0  0  0  0  0
    6.5672    0.6668   17.5840 N   0  0  0  0  0  0  0  0  0  0  0  0
    7.1728    0.0906   18.6338 C   0  0  0  0  0  0  0  0  0  0  0  0
    8.1222   -0.3989   18.4073 H   0  0  0  0  0  0  0  0  0  0  0  0
    4.9407    1.7804   16.9641 H   0  0  0  0  0  0  0  0  0  0  0  0
    3.8418    1.8476   19.1973 H   0  0  0  0  0  0  0  0  0  0  0  0
    4.9657    0.7169   21.1419 H   0  0  0  0  0  0  0  0  0  0  0  0
    8.4115   -0.8828   20.6822 H   0  0  0  0  0  0  0  0  0  0  0  0
    6.7797    0.2834   22.8608 H   0  0  0  0  0  0  0  0  0  0  0  0
    9.1570    3.1902   23.5810 C   0  0  0  0  0  0  0  0  0  0  0  0
    8.7591    3.9792   24.5630 N   0  0  0  0  0  0  0  0  0  0  0  0
    7.5164    3.4989   24.8987 N   0  0  0  0  0  0  0  0  0  0  0  0
   10.1188    3.3461   23.1027 H   0  0  0  0  0  0  0  0  0  0  0  0
    4.1485    1.7947   25.2306 H   0  0  0  0  0  0  0  0  0  0  0  0
    4.7010    3.7389   26.6848 H   0  0  0  0  0  0  0  0  0  0  0  0
    8.1150    5.1099   27.0006 H   0  0  0  0  0  0  0  0  0  0  0  0
    6.4360    5.2897   27.5374 H   0  0  0  0  0  0  0  0  0  0  0  0
    7.0071    6.1232   26.0831 H   0  0  0  0  0  0  0  0  0  0  0  0
  1  2  1  0
  2  3  2  0
  3  4  1  0
  4  5  2  0
  5  6  1  0
  6  7  2  0
  7  8  1  0
  8  9  2  0
  8 10  1  0
 10 11  1  0
 11 12  1  0
 12 13  1  0
 13 14  1  0
 14 15  1  0
 15 16  1  0
 16 17  1  0
 16 18  1  0
 15 19  1  0
 15 20  1  0
 14 21  1  0
 13 22  1  0
 13 23  1  0
 12 24  1  0
 12 25  1  0
 11 26  1  0
 26 27  2  0
 27 28  1  0
 28 29  2  0
 29 30  1  0
 30 31  2  0
 31 32  1  0
 29 33  1  0
 28 34  1  0
 27 35  1  0
 11 36  1  0
 10 37  1  0
  7 38  1  0
 38 39  2  0
 39 40  1  0
 38 41  1  0
  4 42  1  0
  3 43  1  0
  1 44  1  0
  1 45  1  0
  1 46  1  0
 40  2  1  0
 40  6  1  0
 16 14  1  0
 31 26  1  0
M  END
>  <plip>  (1) 
-0.17857142857142858

>  <filename>  (1) 
[H][c]1[n][c]([H])[c]([C]([H])([N]([H])[C](=[O])[c]2[c]([H])[n][n]3[c]([C]([H])([H])[H])[c]([H])[c]([H])[n][c]23)[C]([H])([H])[C]([H])([H])[C]2([H])[C]([H])([H])[C]2([H])[H])[c]([H])[c]1[H]

$$$$
