
     RDKit          3D

 27 28  0  0  0  0  0  0  0  0999 V2000
   10.1658   -2.2482   20.8962 H   0  0  0  0  0  0  0  0  0  0  0  0
    9.2109   -1.7847   21.1561 C   0  0  0  0  0  0  0  0  0  0  0  0
    8.8068   -1.9171   22.4129 N   0  0  0  0  0  0  0  0  0  0  0  0
    7.6440   -1.3208   22.6527 C   0  0  0  0  0  0  0  0  0  0  0  0
    7.1175   -1.3390   23.8696 O   0  0  0  0  0  0  0  0  0  0  0  0
    7.7938   -2.0270   24.9300 C   0  0  0  0  0  0  0  0  0  0  0  0
    7.9386   -3.0793   24.6562 H   0  0  0  0  0  0  0  0  0  0  0  0
    8.7865   -1.5866   25.0837 H   0  0  0  0  0  0  0  0  0  0  0  0
    6.9923   -1.9474   26.2299 C   0  0  0  0  0  0  0  0  0  0  0  0
    5.9807   -2.3499   26.1012 H   0  0  0  0  0  0  0  0  0  0  0  0
    6.8522   -0.9060   26.5458 H   0  0  0  0  0  0  0  0  0  0  0  0
    7.6442   -2.6720   27.3226 N   0  0  0  0  0  0  0  0  0  0  0  0
    7.7423   -3.6601   27.1017 H   0  0  0  0  0  0  0  0  0  0  0  0
    8.5940   -2.3349   27.4627 H   0  0  0  0  0  0  0  0  0  0  0  0
    6.8952   -0.6712   21.7778 N   0  0  0  0  0  0  0  0  0  0  0  0
    7.4040   -0.6205   20.5657 C   0  0  0  0  0  0  0  0  0  0  0  0
    6.6301    0.0901   19.5458 C   0  0  0  0  0  0  0  0  0  0  0  0
    7.1567    0.1106   18.2514 C   0  0  0  0  0  0  0  0  0  0  0  0
    8.0882   -0.4135   18.0512 H   0  0  0  0  0  0  0  0  0  0  0  0
    6.5866    0.7429   17.2274 N   0  0  0  0  0  0  0  0  0  0  0  0
    5.4433    1.3976   17.4706 C   0  0  0  0  0  0  0  0  0  0  0  0
    5.0050    1.9205   16.6247 H   0  0  0  0  0  0  0  0  0  0  0  0
    4.8220    1.4292   18.7246 C   0  0  0  0  0  0  0  0  0  0  0  0
    3.8998    1.9879   18.8503 H   0  0  0  0  0  0  0  0  0  0  0  0
    5.4184    0.7621   19.7909 C   0  0  0  0  0  0  0  0  0  0  0  0
    4.9653    0.7709   20.7867 H   0  0  0  0  0  0  0  0  0  0  0  0
    8.5717   -1.1587   20.1924 N   0  0  0  0  0  0  0  0  0  0  0  0
  1  2  1  0
  2  3  2  0
  3  4  1  0
  4  5  1  0
  5  6  1  0
  6  7  1  0
  6  8  1  0
  6  9  1  0
  9 10  1  0
  9 11  1  0
  9 12  1  0
 12 13  1  0
 12 14  1  0
  4 15  2  0
 15 16  1  0
 16 17  1  0
 17 18  2  0
 18 19  1  0
 18 20  1  0
 20 21  2  0
 21 22  1  0
 21 23  1  0
 23 24  1  0
 23 25  2  0
 25 26  1  0
 16 27  2  0
 27  2  1  0
 25 17  1  0
M  END
>  <plip>  (1) 
-0.07142857142857142

>  <filename>  (1) 
[H][c]1[n][c]([O][C]([H])([H])[C]([H])([H])[N]([H])[H])[n][c](-[c]2[c]([H])[n][c]([H])[c]([H])[c]2[H])[n]1

$$$$
