
     RDKit          3D

 36 37  0  0  0  0  0  0  0  0999 V2000
    7.6418    1.8806   24.4271 O   0  0  0  0  0  0  0  0  0  0  0  0
    8.3978    2.1375   23.5011 C   0  0  0  0  0  0  0  0  0  0  0  0
    9.2616    3.2062   23.5224 N   0  0  0  0  0  0  0  0  0  0  0  0
    9.2246    4.2626   24.4655 C   0  0  0  0  0  0  0  0  0  0  0  0
    8.0063    4.7009   24.9994 C   0  0  0  0  0  0  0  0  0  0  0  0
    7.9847    5.7320   25.9433 C   0  0  0  0  0  0  0  0  0  0  0  0
    9.1823    6.3266   26.3588 C   0  0  0  0  0  0  0  0  0  0  0  0
    9.1426    7.5792   27.5534 Cl  0  0  0  0  0  0  0  0  0  0  0  0
   10.3937    5.8960   25.7948 C   0  0  0  0  0  0  0  0  0  0  0  0
   11.5531    6.4437   26.1747 F   0  0  0  0  0  0  0  0  0  0  0  0
   10.4198    4.8844   24.8349 C   0  0  0  0  0  0  0  0  0  0  0  0
   11.3818    4.5804   24.4371 H   0  0  0  0  0  0  0  0  0  0  0  0
    7.0436    6.0707   26.3805 H   0  0  0  0  0  0  0  0  0  0  0  0
    7.0948    4.2181   24.6693 H   0  0  0  0  0  0  0  0  0  0  0  0
    9.9500    3.2854   22.7860 H   0  0  0  0  0  0  0  0  0  0  0  0
    8.4198    1.2102   22.1492 C   0  0  0  0  0  0  0  0  0  0  0  0
    9.0864    1.4964   21.1678 O   0  0  0  0  0  0  0  0  0  0  0  0
    7.6365    0.0864   22.2030 N   0  0  0  0  0  0  0  0  0  0  0  0
    7.4101   -0.7287   20.9983 C   0  0  0  0  0  0  0  0  0  0  0  0
    6.6814   -2.0494   21.3608 C   0  0  0  0  0  0  0  0  0  0  0  0
    6.5437   -2.9734   20.2926 O   0  0  0  0  0  0  0  0  0  0  0  0
    7.4133   -3.2389   19.9581 H   0  0  0  0  0  0  0  0  0  0  0  0
    7.1878   -2.4985   22.2302 H   0  0  0  0  0  0  0  0  0  0  0  0
    5.6495   -1.8162   21.6517 H   0  0  0  0  0  0  0  0  0  0  0  0
    6.6727    0.0502   19.9120 C   0  0  0  0  0  0  0  0  0  0  0  0
    5.4446    0.6827   20.1464 C   0  0  0  0  0  0  0  0  0  0  0  0
    4.7989    1.3208   19.0863 C   0  0  0  0  0  0  0  0  0  0  0  0
    5.3931    1.2958   17.8185 C   0  0  0  0  0  0  0  0  0  0  0  0
    6.5583    0.6848   17.5678 N   0  0  0  0  0  0  0  0  0  0  0  0
    7.1731    0.0921   18.6035 C   0  0  0  0  0  0  0  0  0  0  0  0
    8.1219   -0.3944   18.3652 H   0  0  0  0  0  0  0  0  0  0  0  0
    4.9281    1.7973   16.9702 H   0  0  0  0  0  0  0  0  0  0  0  0
    3.8599    1.8408   19.2269 H   0  0  0  0  0  0  0  0  0  0  0  0
    4.9960    0.6642   21.1419 H   0  0  0  0  0  0  0  0  0  0  0  0
    8.4033   -0.9852   20.5971 H   0  0  0  0  0  0  0  0  0  0  0  0
    7.0317    0.0181   23.0136 H   0  0  0  0  0  0  0  0  0  0  0  0
  1  2  2  0
  2  3  1  0
  3  4  1  0
  4  5  2  0
  5  6  1  0
  6  7  2  0
  7  8  1  0
  7  9  1  0
  9 10  1  0
  9 11  2  0
 11 12  1  0
  6 13  1  0
  5 14  1  0
  3 15  1  0
  2 16  1  0
 16 17  2  0
 16 18  1  0
 18 19  1  0
 19 20  1  0
 20 21  1  0
 21 22  1  0
 20 23  1  0
 20 24  1  0
 19 25  1  0
 25 26  2  0
 26 27  1  0
 27 28  2  0
 28 29  1  0
 29 30  2  0
 30 31  1  0
 28 32  1  0
 27 33  1  0
 26 34  1  0
 19 35  1  0
 18 36  1  0
 11  4  1  0
 30 25  1  0
M  END
>  <plip>  (1) 
-0.21428571428571427

>  <filename>  (1) 
[H][O][C]([H])([H])[C]([H])([c]1[c]([H])[n][c]([H])[c]([H])[c]1[H])[N]([H])[C](=[O])[C](=[O])[N]([H])[c]1[c]([H])[c]([H])[c]([Cl])[c]([F])[c]1[H]

$$$$
