
     RDKit          3D

 27 28  0  0  0  0  0  0  0  0999 V2000
    4.8459    4.3645   26.5878 H   0  0  0  0  0  0  0  0  0  0  0  0
    5.1767    4.4631   25.6750 O   0  0  0  0  0  0  0  0  0  0  0  0
    5.6410    3.2289   25.4756 C   0  0  0  0  0  0  0  0  0  0  0  0
    5.5468    2.4163   26.3676 O   0  0  0  0  0  0  0  0  0  0  0  0
    6.2821    2.9787   24.0344 C   0  0  0  0  0  0  0  0  0  0  0  0
    6.4094    3.9047   23.2316 O   0  0  0  0  0  0  0  0  0  0  0  0
    6.6922    1.6416   23.7360 C   0  0  0  0  0  0  0  0  0  0  0  0
    6.4661    0.8543   24.4333 H   0  0  0  0  0  0  0  0  0  0  0  0
    7.3262    1.2892   22.5753 C   0  0  0  0  0  0  0  0  0  0  0  0
    7.5718    2.1750   21.6338 O   0  0  0  0  0  0  0  0  0  0  0  0
    7.2155    3.0385   21.9600 H   0  0  0  0  0  0  0  0  0  0  0  0
    7.6738   -0.0914   22.2733 C   0  0  0  0  0  0  0  0  0  0  0  0
    7.3387   -0.6669   21.0653 C   0  0  0  0  0  0  0  0  0  0  0  0
    6.6506    0.0154   19.9596 C   0  0  0  0  0  0  0  0  0  0  0  0
    7.2140    0.0498   18.6710 C   0  0  0  0  0  0  0  0  0  0  0  0
    8.1726   -0.4347   18.4839 H   0  0  0  0  0  0  0  0  0  0  0  0
    6.6461    0.6658   17.6300 N   0  0  0  0  0  0  0  0  0  0  0  0
    5.4717    1.2832   17.8405 C   0  0  0  0  0  0  0  0  0  0  0  0
    5.0329    1.7859   16.9787 H   0  0  0  0  0  0  0  0  0  0  0  0
    4.8159    1.2942   19.0746 C   0  0  0  0  0  0  0  0  0  0  0  0
    3.8754    1.8226   19.1801 H   0  0  0  0  0  0  0  0  0  0  0  0
    5.4140    0.6496   20.1573 C   0  0  0  0  0  0  0  0  0  0  0  0
    4.9338    0.6292   21.1380 H   0  0  0  0  0  0  0  0  0  0  0  0
    7.5993   -2.3781   20.9259 S   0  0  0  0  0  0  0  0  0  0  0  0
    8.6602   -2.5355   22.6784 S   0  0  0  0  0  0  0  0  0  0  0  0
    8.3592   -0.9188   23.2545 C   0  0  0  0  0  0  0  0  0  0  0  0
    8.9133   -0.5168   24.7470 S   0  0  0  0  0  0  0  0  0  0  0  0
  1  2  1  0
  2  3  1  0
  3  4  2  0
  3  5  1  0
  5  6  2  0
  5  7  1  0
  7  8  1  0
  7  9  2  3
  9 10  1  0
 10 11  1  0
  9 12  1  0
 12 13  2  0
 13 14  1  0
 14 15  2  0
 15 16  1  0
 15 17  1  0
 17 18  2  0
 18 19  1  0
 18 20  1  0
 20 21  1  0
 20 22  2  0
 22 23  1  0
 13 24  1  0
 24 25  1  0
 25 26  1  0
 26 27  2  0
 26 12  1  0
 22 14  1  0
M  END
>  <plip>  (1) 
-0.07142857142857142

>  <filename>  (1) 
[H][O][C](=[O])[C](=[O])[C]([H])=[C]([O][H])[c]1[c](-[c]2[c]([H])[n][c]([H])[c]([H])[c]2[H])[s][s][c]1=[S]

$$$$
