
     RDKit          3D

 36 37  0  0  0  0  0  0  0  0999 V2000
    6.8013   -6.0589   20.4095 C   0  0  0  0  0  0  0  0  0  0  0  0
    6.8438   -5.7767   21.8750 C   0  0  0  0  0  0  0  0  0  0  0  0
    6.1435   -4.7799   22.4832 C   0  0  0  0  0  0  0  0  0  0  0  0
    5.2527   -3.8090   21.7392 C   0  0  0  0  0  0  0  0  0  0  0  0
    5.7113   -2.4309   21.8295 N   0  0  0  0  0  0  0  0  0  0  0  0
    6.9404   -2.1228   21.2983 C   0  0  0  0  0  0  0  0  0  0  0  0
    7.7181   -2.9568   20.8792 O   0  0  0  0  0  0  0  0  0  0  0  0
    7.2633   -0.6410   21.1671 C   0  0  0  0  0  0  0  0  0  0  0  0
    6.5905    0.0381   19.9744 C   0  0  0  0  0  0  0  0  0  0  0  0
    5.3510    0.6697   20.1325 C   0  0  0  0  0  0  0  0  0  0  0  0
    4.7650    1.3146   19.0398 C   0  0  0  0  0  0  0  0  0  0  0  0
    5.4244    1.2837   17.8103 C   0  0  0  0  0  0  0  0  0  0  0  0
    6.5922    0.6477   17.6178 N   0  0  0  0  0  0  0  0  0  0  0  0
    7.1462    0.0464   18.6787 C   0  0  0  0  0  0  0  0  0  0  0  0
    8.0909   -0.4680   18.4888 H   0  0  0  0  0  0  0  0  0  0  0  0
    5.0058    1.7900   16.9409 H   0  0  0  0  0  0  0  0  0  0  0  0
    3.8276    1.8524   19.1349 H   0  0  0  0  0  0  0  0  0  0  0  0
    4.8623    0.6550   21.1071 H   0  0  0  0  0  0  0  0  0  0  0  0
    8.3529   -0.5935   21.0852 H   0  0  0  0  0  0  0  0  0  0  0  0
    6.9720   -0.1368   22.0940 H   0  0  0  0  0  0  0  0  0  0  0  0
    5.5049   -2.0491   22.7555 H   0  0  0  0  0  0  0  0  0  0  0  0
    5.1936   -4.0736   20.6793 H   0  0  0  0  0  0  0  0  0  0  0  0
    4.2389   -3.8360   22.1423 H   0  0  0  0  0  0  0  0  0  0  0  0
    6.5048   -4.6176   23.8654 C   0  0  0  0  0  0  0  0  0  0  0  0
    5.9398   -3.5055   24.7673 C   0  0  0  0  0  0  0  0  0  0  0  0
    6.5418   -3.2480   25.8247 O   0  0  0  0  0  0  0  0  0  0  0  0
    4.9119   -2.9222   24.3413 O   0  0  0  0  0  1  0  0  0  0  0  0
    7.4655   -5.5008   24.2791 C   0  0  0  0  0  0  0  0  0  0  0  0
    8.0630   -5.5848   25.6426 C   0  0  0  0  0  0  0  0  0  0  0  0
    8.6180   -4.6577   25.8361 H   0  0  0  0  0  0  0  0  0  0  0  0
    8.7119   -6.4580   25.7582 H   0  0  0  0  0  0  0  0  0  0  0  0
    7.2572   -5.5991   26.3860 H   0  0  0  0  0  0  0  0  0  0  0  0
    7.9713   -6.5072   22.9625 S   0  0  0  0  0  0  0  0  0  0  0  0
    7.5730   -6.7542   20.0971 H   0  0  0  0  0  0  0  0  0  0  0  0
    5.8184   -6.4470   20.1193 H   0  0  0  0  0  0  0  0  0  0  0  0
    6.9592   -5.1173   19.8757 H   0  0  0  0  0  0  0  0  0  0  0  0
  1  2  1  0
  2  3  2  0
  3  4  1  0
  4  5  1  0
  5  6  1  0
  6  7  2  0
  6  8  1  0
  8  9  1  0
  9 10  2  0
 10 11  1  0
 11 12  2  0
 12 13  1  0
 13 14  2  0
 14 15  1  0
 12 16  1  0
 11 17  1  0
 10 18  1  0
  8 19  1  0
  8 20  1  0
  5 21  1  0
  4 22  1  0
  4 23  1  0
  3 24  1  0
 24 25  1  0
 25 26  2  0
 25 27  1  0
 24 28  2  0
 28 29  1  0
 29 30  1  0
 29 31  1  0
 29 32  1  0
 28 33  1  0
  1 34  1  0
  1 35  1  0
  1 36  1  0
 33  2  1  0
 14  9  1  0
M  CHG  1  27  -1
M  END
>  <plip>  (1) 
-0.1

>  <filename>  (1) 
[H][c]1[n][c]([H])[c]([C]([H])([H])[C](=[O])[N]([H])[C]([H])([H])[c]2[c]([C]([H])([H])[H])[s][c]([C]([H])([H])[H])[c]2[C](=[O])[O-])[c]([H])[c]1[H]

$$$$
