
     RDKit          3D

 34 36  0  0  0  0  0  0  0  0999 V2000
    4.9211    1.7785   16.9977 H   0  0  0  0  0  0  0  0  0  0  0  0
    5.4041    1.2936   17.8399 C   0  0  0  0  0  0  0  0  0  0  0  0
    6.5701    0.6780   17.5805 N   0  0  0  0  0  0  0  0  0  0  0  0
    7.1658    0.0517   18.5984 C   0  0  0  0  0  0  0  0  0  0  0  0
    8.1132   -0.4353   18.3782 H   0  0  0  0  0  0  0  0  0  0  0  0
    6.6466    0.0201   19.8992 C   0  0  0  0  0  0  0  0  0  0  0  0
    7.3756   -0.7366   20.9168 C   0  0  0  0  0  0  0  0  0  0  0  0
    7.7698   -1.9795   20.7656 N   0  0  0  0  0  0  0  0  0  0  0  0
    8.3380   -2.3289   21.9602 C   0  0  0  0  0  0  0  0  0  0  0  0
    8.7500   -3.3144   22.1248 H   0  0  0  0  0  0  0  0  0  0  0  0
    8.3184   -1.2761   22.8319 C   0  0  0  0  0  0  0  0  0  0  0  0
    8.6955   -1.1776   23.8395 H   0  0  0  0  0  0  0  0  0  0  0  0
    7.6963   -0.2419   22.1553 N   0  0  0  0  0  0  0  0  0  0  0  0
    7.5376    1.1274   22.6739 C   0  0  0  0  0  0  0  0  0  0  0  0
    7.0909    1.7399   21.8856 H   0  0  0  0  0  0  0  0  0  0  0  0
    6.5957    1.1589   23.8882 C   0  0  0  0  0  0  0  0  0  0  0  0
    7.0020    0.4955   24.6621 H   0  0  0  0  0  0  0  0  0  0  0  0
    5.6191    0.7473   23.6109 H   0  0  0  0  0  0  0  0  0  0  0  0
    6.4431    2.5759   24.4576 C   0  0  0  0  0  0  0  0  0  0  0  0
    5.9216    3.2037   23.7227 H   0  0  0  0  0  0  0  0  0  0  0  0
    5.8062    2.5596   25.3503 H   0  0  0  0  0  0  0  0  0  0  0  0
    7.8035    3.2063   24.7842 C   0  0  0  0  0  0  0  0  0  0  0  0
    8.2666    2.6449   25.6059 H   0  0  0  0  0  0  0  0  0  0  0  0
    7.6740    4.2326   25.1460 H   0  0  0  0  0  0  0  0  0  0  0  0
    8.7449    3.1795   23.5735 C   0  0  0  0  0  0  0  0  0  0  0  0
    9.7273    3.5857   23.8414 H   0  0  0  0  0  0  0  0  0  0  0  0
    8.3468    3.8385   22.7904 H   0  0  0  0  0  0  0  0  0  0  0  0
    8.8994    1.7636   23.0046 C   0  0  0  0  0  0  0  0  0  0  0  0
    9.4112    1.1328   23.7423 H   0  0  0  0  0  0  0  0  0  0  0  0
    9.5283    1.7706   22.1093 H   0  0  0  0  0  0  0  0  0  0  0  0
    5.4296    0.6672   20.1583 C   0  0  0  0  0  0  0  0  0  0  0  0
    4.9895    0.6368   21.1622 H   0  0  0  0  0  0  0  0  0  0  0  0
    4.7961    1.3138   19.1022 C   0  0  0  0  0  0  0  0  0  0  0  0
    3.8655    1.8481   19.2587 H   0  0  0  0  0  0  0  0  0  0  0  0
  1  2  1  0
  2  3  2  0
  3  4  1  0
  4  5  1  0
  4  6  2  0
  6  7  1  0
  7  8  2  0
  8  9  1  0
  9 10  1  0
  9 11  2  0
 11 12  1  0
 11 13  1  0
 13 14  1  0
 14 15  1  0
 14 16  1  0
 16 17  1  0
 16 18  1  0
 16 19  1  0
 19 20  1  0
 19 21  1  0
 19 22  1  0
 22 23  1  0
 22 24  1  0
 22 25  1  0
 25 26  1  0
 25 27  1  0
 25 28  1  0
 28 29  1  0
 28 30  1  0
  6 31  1  0
 31 32  1  0
 31 33  2  0
 33 34  1  0
 33  2  1  0
 13  7  1  0
 28 14  1  0
M  END
>  <plip>  (1) 
-0.0

>  <filename>  (1) 
[H][c]1[n][c]([H])[c](-[c]2[n][c]([H])[c]([H])[n]2[C]2([H])[C]([H])([H])[C]([H])([H])[C]([H])([H])[C]([H])([H])[C]2([H])[H])[c]([H])[c]1[H]

$$$$
