
     RDKit          3D

 39 41  0  0  0  0  0  0  0  0999 V2000
    7.1253    5.1039   26.7073 C   0  0  0  0  0  0  0  0  0  0  0  0
    7.5378    4.1855   25.5863 C   0  0  0  0  0  0  0  0  0  0  0  0
    7.1940    4.4733   24.2911 C   0  0  0  0  0  0  0  0  0  0  0  0
    7.5599    3.5909   23.2379 C   0  0  0  0  0  0  0  0  0  0  0  0
    7.2750    3.6522   21.9483 N   0  0  0  0  0  0  0  0  0  0  0  0
    7.8051    2.5348   21.4218 C   0  0  0  0  0  0  0  0  0  0  0  0
    8.4380    1.7528   22.3593 C   0  0  0  0  0  0  0  0  0  0  0  0
    9.1932    0.4977   22.1907 C   0  0  0  0  0  0  0  0  0  0  0  0
   10.2773    0.2981   22.7276 O   0  0  0  0  0  0  0  0  0  0  0  0
    8.6228   -0.4454   21.3318 N   0  0  0  0  0  0  0  0  0  0  0  0
    9.5412   -1.4587   20.8287 C   0  0  0  0  0  0  0  0  0  0  0  0
   10.2826   -0.9559   20.2066 H   0  0  0  0  0  0  0  0  0  0  0  0
   10.0764   -1.9384   21.6520 H   0  0  0  0  0  0  0  0  0  0  0  0
    8.9969   -2.2205   20.2815 H   0  0  0  0  0  0  0  0  0  0  0  0
    7.1784   -0.6797   21.1724 C   0  0  0  0  0  0  0  0  0  0  0  0
    6.6278   -2.3661   21.2841 C   0  0  0  0  0  0  0  0  0  0  0  0
    5.5111   -2.5385   20.7951 O   0  0  0  0  0  0  0  0  0  0  0  0
    7.4402   -3.1234   21.8256 O   0  0  0  0  0  1  0  0  0  0  0  0
    6.5750    0.0142   19.9542 C   0  0  0  0  0  0  0  0  0  0  0  0
    5.3009    0.5959   20.0636 C   0  0  0  0  0  0  0  0  0  0  0  0
    4.7441    1.2428   18.9562 C   0  0  0  0  0  0  0  0  0  0  0  0
    5.4753    1.2743   17.7646 C   0  0  0  0  0  0  0  0  0  0  0  0
    6.6838    0.7044   17.6256 N   0  0  0  0  0  0  0  0  0  0  0  0
    7.2098    0.1001   18.7037 C   0  0  0  0  0  0  0  0  0  0  0  0
    8.1903   -0.3571   18.5526 H   0  0  0  0  0  0  0  0  0  0  0  0
    5.0791    1.7716   16.8810 H   0  0  0  0  0  0  0  0  0  0  0  0
    3.7779    1.7340   19.0145 H   0  0  0  0  0  0  0  0  0  0  0  0
    4.7713    0.5633   21.0161 H   0  0  0  0  0  0  0  0  0  0  0  0
    6.7052   -0.2599   22.0668 H   0  0  0  0  0  0  0  0  0  0  0  0
    8.2985    2.4510   23.5478 N   0  0  0  0  0  0  0  0  0  0  0  0
    8.6906    2.1568   24.8410 C   0  0  0  0  0  0  0  0  0  0  0  0
    8.3039    2.9863   25.8559 C   0  0  0  0  0  0  0  0  0  0  0  0
    8.5408    2.7426   26.8863 H   0  0  0  0  0  0  0  0  0  0  0  0
    9.3078    1.2674   24.9300 H   0  0  0  0  0  0  0  0  0  0  0  0
    7.6937    2.3323   20.3666 H   0  0  0  0  0  0  0  0  0  0  0  0
    6.6113    5.3427   24.0165 H   0  0  0  0  0  0  0  0  0  0  0  0
    7.9152    5.8291   26.9270 H   0  0  0  0  0  0  0  0  0  0  0  0
    6.2217    5.6664   26.4511 H   0  0  0  0  0  0  0  0  0  0  0  0
    6.9218    4.5416   27.6211 H   0  0  0  0  0  0  0  0  0  0  0  0
  1  2  1  0
  2  3  2  0
  3  4  1  0
  4  5  2  0
  5  6  1  0
  6  7  2  0
  7  8  1  0
  8  9  2  0
  8 10  1  0
 10 11  1  0
 11 12  1  0
 11 13  1  0
 11 14  1  0
 10 15  1  0
 15 16  1  0
 16 17  2  0
 16 18  1  0
 15 19  1  0
 19 20  2  0
 20 21  1  0
 21 22  2  0
 22 23  1  0
 23 24  2  0
 24 25  1  0
 22 26  1  0
 21 27  1  0
 20 28  1  0
 15 29  1  0
  7 30  1  0
 30 31  1  0
 31 32  2  0
 32 33  1  0
 31 34  1  0
  6 35  1  0
  3 36  1  0
  1 37  1  0
  1 38  1  0
  1 39  1  0
 32  2  1  0
 30  4  1  0
 24 19  1  0
M  CHG  1  18  -1
M  END
>  <plip>  (1) 
-0.10344827586206896

>  <filename>  (1) 
[H][c]1[n][c]([H])[c]([C]([H])([C](=[O])[O-])[N]([C](=[O])[c]2[c]([H])[n][c]3[c]([H])[c]([C]([H])([H])[H])[c]([H])[c]([H])[n]23)[C]([H])([H])[H])[c]([H])[c]1[H]

$$$$
