
     RDKit          3D

 32 34  0  0  0  0  0  0  0  0999 V2000
    4.9121    1.7834   16.9942 H   0  0  0  0  0  0  0  0  0  0  0  0
    5.3988    1.2958   17.8356 C   0  0  0  0  0  0  0  0  0  0  0  0
    6.5617    0.6836   17.5657 N   0  0  0  0  0  0  0  0  0  0  0  0
    7.1618    0.0601   18.5877 C   0  0  0  0  0  0  0  0  0  0  0  0
    8.1168   -0.4200   18.3758 H   0  0  0  0  0  0  0  0  0  0  0  0
    6.6429   -0.0161   19.8923 C   0  0  0  0  0  0  0  0  0  0  0  0
    7.4073   -0.7019   21.0128 C   0  0  0  0  0  0  0  0  0  0  0  0
    6.6883   -1.1121   21.7394 H   0  0  0  0  0  0  0  0  0  0  0  0
    8.0171   -1.5170   20.6127 H   0  0  0  0  0  0  0  0  0  0  0  0
    8.3315    0.3335   21.6615 C   0  0  0  0  0  0  0  0  0  0  0  0
    9.8461    0.5535   21.1116 S   0  0  0  0  0  0  0  0  0  0  0  0
    7.7240    1.2592   22.6546 C   0  0  0  0  0  0  0  0  0  0  0  0
    7.5282    2.5880   22.2949 C   0  0  0  0  0  0  0  0  0  0  0  0
    7.8320    2.9181   21.3055 H   0  0  0  0  0  0  0  0  0  0  0  0
    6.9319    3.5120   23.1862 C   0  0  0  0  0  0  0  0  0  0  0  0
    6.7901    4.5407   22.8607 H   0  0  0  0  0  0  0  0  0  0  0  0
    6.5404    3.1086   24.4420 C   0  0  0  0  0  0  0  0  0  0  0  0
    6.0808    3.8131   25.1356 H   0  0  0  0  0  0  0  0  0  0  0  0
    6.7329    1.7593   24.8668 C   0  0  0  0  0  0  0  0  0  0  0  0
    6.3365    1.3325   26.1725 C   0  0  0  0  0  0  0  0  0  0  0  0
    5.8745    2.0642   26.8366 H   0  0  0  0  0  0  0  0  0  0  0  0
    6.5377    0.0362   26.5824 C   0  0  0  0  0  0  0  0  0  0  0  0
    6.2336   -0.2788   27.5789 H   0  0  0  0  0  0  0  0  0  0  0  0
    7.1516   -0.9054   25.7106 C   0  0  0  0  0  0  0  0  0  0  0  0
    7.3119   -1.9257   26.0478 H   0  0  0  0  0  0  0  0  0  0  0  0
    7.5462   -0.5299   24.4405 C   0  0  0  0  0  0  0  0  0  0  0  0
    8.0312   -1.2431   23.7769 H   0  0  0  0  0  0  0  0  0  0  0  0
    7.3406    0.8087   23.9711 C   0  0  0  0  0  0  0  0  0  0  0  0
    5.4401    0.6486   20.1532 C   0  0  0  0  0  0  0  0  0  0  0  0
    5.0209    0.6384   21.1649 H   0  0  0  0  0  0  0  0  0  0  0  0
    4.8025    1.3154   19.1025 C   0  0  0  0  0  0  0  0  0  0  0  0
    3.8683    1.8485   19.2567 H   0  0  0  0  0  0  0  0  0  0  0  0
  1  2  1  0
  2  3  2  0
  3  4  1  0
  4  5  1  0
  4  6  2  0
  6  7  1  0
  7  8  1  0
  7  9  1  0
  7 10  1  0
 10 11  2  0
 10 12  1  0
 12 13  2  0
 13 14  1  0
 13 15  1  0
 15 16  1  0
 15 17  2  0
 17 18  1  0
 17 19  1  0
 19 20  2  0
 20 21  1  0
 20 22  1  0
 22 23  1  0
 22 24  2  0
 24 25  1  0
 24 26  1  0
 26 27  1  0
 26 28  2  0
  6 29  1  0
 29 30  1  0
 29 31  2  0
 31 32  1  0
 31  2  1  0
 28 12  1  0
 28 19  1  0
M  END
>  <plip>  (1) 
-0.0

>  <filename>  (1) 
[H][c]1[n][c]([H])[c]([C]([H])([H])[C](=[S])[c]2[c]([H])[c]([H])[c]([H])[c]3[c]([H])[c]([H])[c]([H])[c]([H])[c]23)[c]([H])[c]1[H]

$$$$
