
     RDKit          3D

 45 47  0  0  0  0  0  0  0  0999 V2000
    6.3523   -3.0281   20.6244 C   0  0  0  0  0  0  0  0  0  0  0  0
    6.5973   -1.8825   21.6100 C   0  0  0  0  0  0  0  0  0  0  0  0
    7.4055   -0.7129   21.0373 C   0  0  0  0  0  0  0  0  0  0  0  0
    7.7724    0.1572   22.1478 N   0  0  0  0  0  0  0  0  0  0  0  0
    8.7247    1.1227   21.9783 C   0  0  0  0  0  0  0  0  0  0  0  0
    9.4882    1.1188   21.0297 O   0  0  0  0  0  0  0  0  0  0  0  0
    8.7925    2.1748   23.0842 C   0  0  0  0  0  0  0  0  0  0  0  0
    8.4854    3.6261   22.5823 C   0  0  0  0  0  0  0  0  0  0  0  0
    7.0506    3.7834   22.0097 C   0  0  0  0  0  0  0  0  0  0  0  0
    6.0166    3.8522   23.1259 C   0  0  0  0  0  0  0  0  0  0  0  0
    4.7127    3.3496   23.0116 C   0  0  0  0  0  0  0  0  0  0  0  0
    3.7902    3.4769   24.0592 C   0  0  0  0  0  0  0  0  0  0  0  0
    4.1697    4.1190   25.2437 C   0  0  0  0  0  0  0  0  0  0  0  0
    5.4636    4.6259   25.3808 C   0  0  0  0  0  0  0  0  0  0  0  0
    6.3780    4.4827   24.3336 C   0  0  0  0  0  0  0  0  0  0  0  0
    7.6881    4.9540   24.4944 N   0  0  0  0  0  0  0  0  0  0  0  0
    8.7434    4.6839   23.6695 C   0  0  0  0  0  0  0  0  0  0  0  0
    9.8028    5.2444   23.8675 O   0  0  0  0  0  0  0  0  0  0  0  0
    7.9490    5.6104   25.2082 H   0  0  0  0  0  0  0  0  0  0  0  0
    5.7939    5.1232   26.2873 H   0  0  0  0  0  0  0  0  0  0  0  0
    3.4621    4.2311   26.0624 H   0  0  0  0  0  0  0  0  0  0  0  0
    2.7803    3.0909   23.9530 H   0  0  0  0  0  0  0  0  0  0  0  0
    4.4174    2.8574   22.0861 H   0  0  0  0  0  0  0  0  0  0  0  0
    6.8098    2.9733   21.3048 H   0  0  0  0  0  0  0  0  0  0  0  0
    7.0063    4.7097   21.4145 H   0  0  0  0  0  0  0  0  0  0  0  0
    9.2343    3.8503   21.8311 H   0  0  0  0  0  0  0  0  0  0  0  0
    8.1200    1.8944   23.9014 H   0  0  0  0  0  0  0  0  0  0  0  0
    9.8218    2.1233   23.4607 H   0  0  0  0  0  0  0  0  0  0  0  0
    7.0356    0.3842   22.7999 H   0  0  0  0  0  0  0  0  0  0  0  0
    6.6631    0.0488   19.9378 C   0  0  0  0  0  0  0  0  0  0  0  0
    5.4356    0.6997   20.1529 C   0  0  0  0  0  0  0  0  0  0  0  0
    4.8036    1.3376   19.0843 C   0  0  0  0  0  0  0  0  0  0  0  0
    5.4140    1.3018   17.8260 C   0  0  0  0  0  0  0  0  0  0  0  0
    6.5748    0.6808   17.5891 N   0  0  0  0  0  0  0  0  0  0  0  0
    7.1760    0.0850   18.6317 C   0  0  0  0  0  0  0  0  0  0  0  0
    8.1245   -0.4038   18.4042 H   0  0  0  0  0  0  0  0  0  0  0  0
    4.9439    1.7874   16.9739 H   0  0  0  0  0  0  0  0  0  0  0  0
    3.8527    1.8455   19.2006 H   0  0  0  0  0  0  0  0  0  0  0  0
    4.9661    0.6960   21.1394 H   0  0  0  0  0  0  0  0  0  0  0  0
    8.3354   -1.1118   20.6133 H   0  0  0  0  0  0  0  0  0  0  0  0
    5.6427   -1.4688   21.9342 H   0  0  0  0  0  0  0  0  0  0  0  0
    7.1017   -2.2547   22.5147 H   0  0  0  0  0  0  0  0  0  0  0  0
    6.0039   -2.6630   19.6462 H   0  0  0  0  0  0  0  0  0  0  0  0
    7.2714   -3.5948   20.4733 H   0  0  0  0  0  0  0  0  0  0  0  0
    5.6117   -3.7318   21.0222 H   0  0  0  0  0  0  0  0  0  0  0  0
  1  2  1  0
  2  3  1  0
  3  4  1  0
  4  5  1  0
  5  6  2  0
  5  7  1  0
  7  8  1  0
  8  9  1  0
  9 10  1  0
 10 11  2  0
 11 12  1  0
 12 13  2  0
 13 14  1  0
 14 15  2  0
 15 16  1  0
 16 17  1  0
 17 18  2  0
 16 19  1  0
 14 20  1  0
 13 21  1  0
 12 22  1  0
 11 23  1  0
  9 24  1  0
  9 25  1  0
  8 26  1  0
  7 27  1  0
  7 28  1  0
  4 29  1  0
  3 30  1  0
 30 31  2  0
 31 32  1  0
 32 33  2  0
 33 34  1  0
 34 35  2  0
 35 36  1  0
 33 37  1  0
 32 38  1  0
 31 39  1  0
  3 40  1  0
  2 41  1  0
  2 42  1  0
  1 43  1  0
  1 44  1  0
  1 45  1  0
 17  8  1  0
 35 30  1  0
 15 10  1  0
M  END
>  <plip>  (1) 
-0.10714285714285714

>  <filename>  (1) 
[H][c]1[n][c]([H])[c]([C]([H])([N]([H])[C](=[O])[C]([H])([H])[C]2([H])[C](=[O])[N]([H])[c]3[c]([H])[c]([H])[c]([H])[c]([H])[c]3[C]2([H])[H])[C]([H])([H])[C]([H])([H])[H])[c]([H])[c]1[H]

$$$$
