
     RDKit          3D

 28 30  0  0  0  0  0  0  0  0999 V2000
    4.9562    1.8123   16.9870 H   0  0  0  0  0  0  0  0  0  0  0  0
    5.4081    1.2979   17.8286 C   0  0  0  0  0  0  0  0  0  0  0  0
    6.5767    0.6832   17.5812 N   0  0  0  0  0  0  0  0  0  0  0  0
    7.1825    0.0726   18.6070 C   0  0  0  0  0  0  0  0  0  0  0  0
    8.1414   -0.4034   18.3919 H   0  0  0  0  0  0  0  0  0  0  0  0
    6.6487    0.0329   19.9183 C   0  0  0  0  0  0  0  0  0  0  0  0
    7.3090   -0.6615   20.9964 N   0  0  0  0  0  0  0  0  0  0  0  0
    7.6600   -1.9906   20.9954 C   0  0  0  0  0  0  0  0  0  0  0  0
    7.3893   -2.6440   20.1886 H   0  0  0  0  0  0  0  0  0  0  0  0
    8.2064   -2.3499   22.1182 N   0  0  0  0  0  0  0  0  0  0  0  0
    8.1836   -1.2582   22.9447 N   0  0  0  0  0  0  0  0  0  0  0  0
    7.6290   -0.2672   22.2966 C   0  0  0  0  0  0  0  0  0  0  0  0
    7.3223    1.0439   22.9007 C   0  0  0  0  0  0  0  0  0  0  0  0
    7.5066    2.2311   22.1732 C   0  0  0  0  0  0  0  0  0  0  0  0
    7.8478    2.1708   21.1421 H   0  0  0  0  0  0  0  0  0  0  0  0
    7.2254    3.4649   22.7475 C   0  0  0  0  0  0  0  0  0  0  0  0
    7.3781    4.3728   22.1703 H   0  0  0  0  0  0  0  0  0  0  0  0
    6.7399    3.5289   24.0683 C   0  0  0  0  0  0  0  0  0  0  0  0
    6.4602    4.8048   24.6812 C   0  0  0  0  0  0  0  0  0  0  0  0
    6.2460    5.8268   25.1890 N   0  0  0  0  0  0  0  0  0  0  0  0
    6.5377    2.3400   24.7994 C   0  0  0  0  0  0  0  0  0  0  0  0
    6.1502    2.3873   25.8148 H   0  0  0  0  0  0  0  0  0  0  0  0
    6.8331    1.1105   24.2219 C   0  0  0  0  0  0  0  0  0  0  0  0
    6.6844    0.1893   24.7852 H   0  0  0  0  0  0  0  0  0  0  0  0
    5.4166    0.6584   20.1511 C   0  0  0  0  0  0  0  0  0  0  0  0
    4.9970    0.6537   21.1602 H   0  0  0  0  0  0  0  0  0  0  0  0
    4.7914    1.3061   19.0830 C   0  0  0  0  0  0  0  0  0  0  0  0
    3.8498    1.8246   19.2192 H   0  0  0  0  0  0  0  0  0  0  0  0
  1  2  1  0
  2  3  2  0
  3  4  1  0
  4  5  1  0
  4  6  2  0
  6  7  1  0
  7  8  1  0
  8  9  1  0
  8 10  2  0
 10 11  1  0
 11 12  2  0
 12 13  1  0
 13 14  2  0
 14 15  1  0
 14 16  1  0
 16 17  1  0
 16 18  2  0
 18 19  1  0
 19 20  3  0
 18 21  1  0
 21 22  1  0
 21 23  2  0
 23 24  1  0
  6 25  1  0
 25 26  1  0
 25 27  2  0
 27 28  1  0
 27  2  1  0
 12  7  1  0
 23 13  1  0
M  END
>  <plip>  (1) 
-0.034482758620689655

>  <filename>  (1) 
[H][c]1[n][c]([H])[c](-[n]2[c]([H])[n][n][c]2-[c]2[c]([H])[c]([H])[c]([C]#[N])[c]([H])[c]2[H])[c]([H])[c]1[H]

$$$$
