
     RDKit          3D

 35 37  0  0  0  0  0  0  0  0999 V2000
    4.9953    1.9184   17.0282 H   0  0  0  0  0  0  0  0  0  0  0  0
    5.4575    1.3389   17.8260 C   0  0  0  0  0  0  0  0  0  0  0  0
    6.6183    0.7400   17.5181 N   0  0  0  0  0  0  0  0  0  0  0  0
    7.2295    0.0392   18.4868 C   0  0  0  0  0  0  0  0  0  0  0  0
    8.1817   -0.4229   18.2206 H   0  0  0  0  0  0  0  0  0  0  0  0
    6.7096   -0.1335   19.7941 C   0  0  0  0  0  0  0  0  0  0  0  0
    7.3939   -0.9153   20.8501 C   0  0  0  0  0  0  0  0  0  0  0  0
    8.6821   -0.8282   21.2800 C   0  0  0  0  0  0  0  0  0  0  0  0
    9.6768    0.0419   20.8447 N   0  0  0  0  0  0  0  0  0  0  0  0
   10.5494   -0.1687   21.3127 H   0  0  0  0  0  0  0  0  0  0  0  0
    9.4265    1.4912   20.9361 C   0  0  0  0  0  0  0  0  0  0  0  0
    8.6169    1.7528   20.2540 H   0  0  0  0  0  0  0  0  0  0  0  0
   10.3310    1.9862   20.5599 H   0  0  0  0  0  0  0  0  0  0  0  0
    9.0928    2.0554   22.3000 C   0  0  0  0  0  0  0  0  0  0  0  0
   10.0571    2.0840   23.3145 C   0  0  0  0  0  0  0  0  0  0  0  0
   11.0573    1.6925   23.1273 H   0  0  0  0  0  0  0  0  0  0  0  0
    9.7485    2.6261   24.5606 C   0  0  0  0  0  0  0  0  0  0  0  0
   10.5072    2.5784   25.3276 H   0  0  0  0  0  0  0  0  0  0  0  0
    8.4876    3.1797   24.8079 C   0  0  0  0  0  0  0  0  0  0  0  0
    8.2585    3.6095   25.7817 H   0  0  0  0  0  0  0  0  0  0  0  0
    7.5071    3.1209   23.8096 C   0  0  0  0  0  0  0  0  0  0  0  0
    6.5139    3.5251   23.9888 H   0  0  0  0  0  0  0  0  0  0  0  0
    7.8072    2.5471   22.5694 C   0  0  0  0  0  0  0  0  0  0  0  0
    7.0424    2.4572   21.7950 H   0  0  0  0  0  0  0  0  0  0  0  0
    8.9487   -1.7882   22.3992 C   0  0  0  0  0  0  0  0  0  0  0  0
    9.3791   -1.2360   23.2525 H   0  0  0  0  0  0  0  0  0  0  0  0
    9.6545   -2.5763   22.0898 H   0  0  0  0  0  0  0  0  0  0  0  0
    7.6286   -2.2995   22.6720 N   0  0  0  0  0  0  0  0  0  0  0  0
    7.4310   -3.1677   23.1364 H   0  0  0  0  0  0  0  0  0  0  0  0
    6.7276   -1.9463   21.6984 C   0  0  0  0  0  0  0  0  0  0  0  0
    5.6357   -2.4752   21.5991 O   0  0  0  0  0  0  0  0  0  0  0  0
    5.4764    0.4820   20.0716 C   0  0  0  0  0  0  0  0  0  0  0  0
    5.0429    0.3599   21.0657 H   0  0  0  0  0  0  0  0  0  0  0  0
    4.8552    1.2454   19.0837 C   0  0  0  0  0  0  0  0  0  0  0  0
    3.9350    1.7821   19.2762 H   0  0  0  0  0  0  0  0  0  0  0  0
  1  2  1  0
  2  3  2  0
  3  4  1  0
  4  5  1  0
  4  6  2  0
  6  7  1  0
  7  8  2  0
  8  9  1  0
  9 10  1  0
  9 11  1  0
 11 12  1  0
 11 13  1  0
 11 14  1  0
 14 15  2  0
 15 16  1  0
 15 17  1  0
 17 18  1  0
 17 19  2  0
 19 20  1  0
 19 21  1  0
 21 22  1  0
 21 23  2  0
 23 24  1  0
  8 25  1  0
 25 26  1  0
 25 27  1  0
 25 28  1  0
 28 29  1  0
 28 30  1  0
 30 31  2  0
  6 32  1  0
 32 33  1  0
 32 34  2  0
 34 35  1  0
 34  2  1  0
 30  7  1  0
 23 14  1  0
M  END
>  <plip>  (1) 
-0.10714285714285714

>  <filename>  (1) 
[H][c]1[n][c]([H])[c]([C]2=[C]([N]([H])[C]([H])([H])[c]3[c]([H])[c]([H])[c]([H])[c]([H])[c]3[H])[C]([H])([H])[N]([H])[C]2=[O])[c]([H])[c]1[H]

$$$$
