
     RDKit          3D

 42 44  0  0  0  0  0  0  0  0999 V2000
    9.5000    0.3640   20.5841 O   0  0  0  0  0  0  0  0  0  0  0  0
    8.6864   -0.3576   21.1280 C   0  0  0  0  0  0  0  0  0  0  0  0
    7.3436   -0.3340   20.8212 N   0  0  0  0  0  0  0  0  0  0  0  0
    6.6814    0.2671   19.7274 C   0  0  0  0  0  0  0  0  0  0  0  0
    5.4212    0.8235   19.9684 C   0  0  0  0  0  0  0  0  0  0  0  0
    4.7365    1.4163   18.9064 C   0  0  0  0  0  0  0  0  0  0  0  0
    5.3209    1.4076   17.6343 C   0  0  0  0  0  0  0  0  0  0  0  0
    6.5149    0.8493   17.3776 N   0  0  0  0  0  0  0  0  0  0  0  0
    7.1823    0.3045   18.4044 C   0  0  0  0  0  0  0  0  0  0  0  0
    8.1586   -0.1242   18.1870 H   0  0  0  0  0  0  0  0  0  0  0  0
    4.8219    1.8717   16.7886 H   0  0  0  0  0  0  0  0  0  0  0  0
    3.7742    1.8917   19.0558 H   0  0  0  0  0  0  0  0  0  0  0  0
    5.0146    0.8197   20.9800 H   0  0  0  0  0  0  0  0  0  0  0  0
    6.7401   -0.7407   21.5132 H   0  0  0  0  0  0  0  0  0  0  0  0
    9.0648   -1.4146   22.1876 C   0  0  0  0  0  0  0  0  0  0  0  0
    8.4998   -2.8168   21.8643 C   0  0  0  0  0  0  0  0  0  0  0  0
    9.0703   -3.8678   22.7957 C   0  0  0  0  0  0  0  0  0  0  0  0
    8.7166   -3.5535   24.2199 N   0  0  0  0  0  4  0  0  0  0  0  0
    9.0406   -4.7011   25.1528 C   0  0  0  0  0  0  0  0  0  0  0  0
    8.2127   -4.6455   26.4489 C   0  0  0  0  0  0  0  0  0  0  0  0
    9.1598   -5.1443   27.5077 C   0  0  0  0  0  0  0  0  0  0  0  0
   10.4154   -5.1505   27.0701 C   0  0  0  0  0  0  0  0  0  0  0  0
   10.5193   -4.8863   25.5824 C   0  0  0  0  0  0  0  0  0  0  0  0
   10.9579   -5.7392   25.0451 H   0  0  0  0  0  0  0  0  0  0  0  0
   11.1581   -4.0313   25.3385 H   0  0  0  0  0  0  0  0  0  0  0  0
   11.2930   -5.2887   27.6979 H   0  0  0  0  0  0  0  0  0  0  0  0
    8.8218   -5.4415   28.4979 H   0  0  0  0  0  0  0  0  0  0  0  0
    7.9275   -3.6144   26.6846 H   0  0  0  0  0  0  0  0  0  0  0  0
    7.2745   -5.2047   26.3812 H   0  0  0  0  0  0  0  0  0  0  0  0
    8.7624   -5.6174   24.6263 H   0  0  0  0  0  0  0  0  0  0  0  0
    9.2421   -2.1658   24.6068 C   0  0  0  0  0  0  0  0  0  0  0  0
    8.6986   -1.0856   23.6592 C   0  0  0  0  0  0  0  0  0  0  0  0
    9.1159   -0.1179   23.9646 H   0  0  0  0  0  0  0  0  0  0  0  0
    7.6074   -1.0163   23.7781 H   0  0  0  0  0  0  0  0  0  0  0  0
   10.3361   -2.1667   24.5395 H   0  0  0  0  0  0  0  0  0  0  0  0
    8.9674   -1.9354   25.6398 H   0  0  0  0  0  0  0  0  0  0  0  0
    7.6748   -3.4633   24.2553 H   0  0  0  0  0  0  0  0  0  0  0  0
    8.6847   -4.8563   22.5214 H   0  0  0  0  0  0  0  0  0  0  0  0
   10.1639   -3.8822   22.7079 H   0  0  0  0  0  0  0  0  0  0  0  0
    7.4058   -2.8179   21.9800 H   0  0  0  0  0  0  0  0  0  0  0  0
    8.7159   -3.0945   20.8319 H   0  0  0  0  0  0  0  0  0  0  0  0
   10.1585   -1.4445   22.1142 H   0  0  0  0  0  0  0  0  0  0  0  0
  1  2  2  0
  2  3  1  0
  3  4  1  0
  4  5  2  0
  5  6  1  0
  6  7  2  0
  7  8  1  0
  8  9  2  0
  9 10  1  0
  7 11  1  0
  6 12  1  0
  5 13  1  0
  3 14  1  0
  2 15  1  0
 15 16  1  0
 16 17  1  0
 17 18  1  0
 18 19  1  0
 19 20  1  0
 20 21  1  0
 21 22  2  0
 22 23  1  0
 23 24  1  0
 23 25  1  0
 22 26  1  0
 21 27  1  0
 20 28  1  0
 20 29  1  0
 19 30  1  0
 18 31  1  0
 31 32  1  0
 32 33  1  0
 32 34  1  0
 31 35  1  0
 31 36  1  0
 18 37  1  0
 17 38  1  0
 17 39  1  0
 16 40  1  0
 16 41  1  0
 15 42  1  0
  9  4  1  0
 32 15  1  0
 23 19  1  0
M  CHG  1  18   1
M  END
>  <plip>  (1) 
-0.10714285714285714

>  <filename>  (1) 
[H][C]1=[C]([H])[C]([H])([H])[C]([H])([N+]2([H])[C]([H])([H])[C]([H])([H])[C]([H])([C](=[O])[N]([H])[c]3[c]([H])[n][c]([H])[c]([H])[c]3[H])[C]([H])([H])[C]2([H])[H])[C]1([H])[H]

$$$$
