
     RDKit          3D

 33 35  0  0  0  0  0  0  0  0999 V2000
    5.0442    1.8833   17.0204 H   0  0  0  0  0  0  0  0  0  0  0  0
    5.4698    1.2940   17.8294 C   0  0  0  0  0  0  0  0  0  0  0  0
    6.5933    0.6167   17.5425 N   0  0  0  0  0  0  0  0  0  0  0  0
    7.1592   -0.1021   18.5275 C   0  0  0  0  0  0  0  0  0  0  0  0
    8.0487   -0.6630   18.2438 H   0  0  0  0  0  0  0  0  0  0  0  0
    6.6548   -0.1698   19.8567 C   0  0  0  0  0  0  0  0  0  0  0  0
    7.2656   -0.8497   20.9260 N   0  0  0  0  0  0  0  0  0  0  0  0
    6.6481   -1.1118   21.6955 H   0  0  0  0  0  0  0  0  0  0  0  0
    8.6283   -0.7945   21.2529 C   0  0  0  0  0  0  0  0  0  0  0  0
    9.5984    0.1628   20.8380 C   0  0  0  0  0  0  0  0  0  0  0  0
    9.4417    1.0301   20.2104 H   0  0  0  0  0  0  0  0  0  0  0  0
   10.8098   -0.1238   21.3051 N   0  0  0  0  0  0  0  0  0  0  0  0
   10.6274   -1.2447   22.0146 N   0  0  0  0  0  0  0  0  0  0  0  0
   11.4278   -1.6541   22.4797 H   0  0  0  0  0  0  0  0  0  0  0  0
    9.3401   -1.6884   22.0426 C   0  0  0  0  0  0  0  0  0  0  0  0
    8.9724   -2.8865   22.8786 C   0  0  0  0  0  0  0  0  0  0  0  0
    9.8649   -3.4658   23.1480 H   0  0  0  0  0  0  0  0  0  0  0  0
    8.2876   -3.5415   22.3305 H   0  0  0  0  0  0  0  0  0  0  0  0
    8.3017   -2.5233   24.1209 N   0  0  0  0  0  0  0  0  0  0  0  0
    8.9963   -2.0794   25.2576 N   0  0  0  0  0  0  0  0  0  0  0  0
    8.0652   -1.4725   25.9102 C   0  0  0  0  0  0  0  0  0  0  0  0
    8.1047   -0.8691   27.0805 O   0  0  0  0  0  0  0  0  0  0  0  0
    9.4047   -0.5344   27.5963 C   0  0  0  0  0  0  0  0  0  0  0  0
    9.8767    0.2398   26.9799 H   0  0  0  0  0  0  0  0  0  0  0  0
   10.0455   -1.4174   27.6194 H   0  0  0  0  0  0  0  0  0  0  0  0
    9.2316   -0.1642   28.6094 H   0  0  0  0  0  0  0  0  0  0  0  0
    6.8658   -1.3856   25.3018 O   0  0  0  0  0  0  0  0  0  0  0  0
    7.0425   -2.0185   24.1026 C   0  0  0  0  0  0  0  0  0  0  0  0
    6.2239   -2.1106   23.2193 O   0  0  0  0  0  0  0  0  0  0  0  0
    5.4427    0.4892   20.1040 C   0  0  0  0  0  0  0  0  0  0  0  0
    4.9924    0.4104   21.0954 H   0  0  0  0  0  0  0  0  0  0  0  0
    4.8526    1.2464   19.0854 C   0  0  0  0  0  0  0  0  0  0  0  0
    3.9353    1.8020   19.2540 H   0  0  0  0  0  0  0  0  0  0  0  0
  1  2  1  0
  2  3  2  0
  3  4  1  0
  4  5  1  0
  4  6  2  0
  6  7  1  0
  7  8  1  0
  7  9  1  0
  9 10  1  0
 10 11  1  0
 10 12  2  0
 12 13  1  0
 13 14  1  0
 13 15  1  0
 15 16  1  0
 16 17  1  0
 16 18  1  0
 16 19  1  0
 19 20  1  0
 20 21  2  0
 21 22  1  0
 22 23  1  0
 23 24  1  0
 23 25  1  0
 23 26  1  0
 21 27  1  0
 27 28  1  0
 28 29  2  0
  6 30  1  0
 30 31  1  0
 30 32  2  0
 32 33  1  0
 32  2  1  0
 15  9  2  0
 28 19  1  0
M  END
>  <plip>  (1) 
-0.06896551724137931

>  <filename>  (1) 
[H][c]1[n][c]([H])[c]([N]([H])[c]2[c]([H])[n][n]([H])[c]2[C]([H])([H])[n]2[n][c]([O][C]([H])([H])[H])[o][c]2=[O])[c]([H])[c]1[H]

$$$$
