
     RDKit          3D

 32 34  0  0  0  0  0  0  0  0999 V2000
    4.9243    1.8063   16.9767 H   0  0  0  0  0  0  0  0  0  0  0  0
    5.3887    1.2995   17.8225 C   0  0  0  0  0  0  0  0  0  0  0  0
    6.5505    0.6762   17.5677 N   0  0  0  0  0  0  0  0  0  0  0  0
    7.1553    0.0573   18.5900 C   0  0  0  0  0  0  0  0  0  0  0  0
    8.1037   -0.4244   18.3513 H   0  0  0  0  0  0  0  0  0  0  0  0
    6.6483   -0.0172   19.8990 C   0  0  0  0  0  0  0  0  0  0  0  0
    7.4243   -0.7180   20.9634 C   0  0  0  0  0  0  0  0  0  0  0  0
    6.9859   -1.8107   21.6757 C   0  0  0  0  0  0  0  0  0  0  0  0
    5.6875   -2.5234   21.3944 C   0  0  0  0  0  0  0  0  0  0  0  0
    5.0095   -1.6739   21.2522 H   0  0  0  0  0  0  0  0  0  0  0  0
    5.1204   -3.3907   22.5393 C   0  0  0  0  0  0  0  0  0  0  0  0
    5.2257   -2.8805   23.5033 H   0  0  0  0  0  0  0  0  0  0  0  0
    4.0519   -3.5384   22.3494 H   0  0  0  0  0  0  0  0  0  0  0  0
    5.7547   -4.7754   22.6109 C   0  0  0  0  0  0  0  0  0  0  0  0
    6.7932   -4.7025   22.9698 H   0  0  0  0  0  0  0  0  0  0  0  0
    5.2055   -5.4258   23.3006 H   0  0  0  0  0  0  0  0  0  0  0  0
    5.6908   -5.4054   21.3427 O   0  0  0  0  0  0  0  0  0  0  0  0
    6.4060   -4.7036   20.3413 C   0  0  0  0  0  0  0  0  0  0  0  0
    6.3776   -5.3522   19.4619 H   0  0  0  0  0  0  0  0  0  0  0  0
    7.4580   -4.5926   20.6507 H   0  0  0  0  0  0  0  0  0  0  0  0
    5.7977   -3.3236   20.0704 C   0  0  0  0  0  0  0  0  0  0  0  0
    6.4065   -2.7623   19.3530 H   0  0  0  0  0  0  0  0  0  0  0  0
    4.8224   -3.4268   19.5948 H   0  0  0  0  0  0  0  0  0  0  0  0
    8.1662   -2.3135   22.8325 S   0  0  0  0  0  0  0  0  0  0  0  0
    9.2603   -1.0711   22.3562 C   0  0  0  0  0  0  0  0  0  0  0  0
   10.2200   -0.9907   22.8536 H   0  0  0  0  0  0  0  0  0  0  0  0
    8.7366   -0.3102   21.3585 C   0  0  0  0  0  0  0  0  0  0  0  0
    9.2145    0.5513   20.9023 H   0  0  0  0  0  0  0  0  0  0  0  0
    5.4283    0.6409   20.1370 C   0  0  0  0  0  0  0  0  0  0  0  0
    5.0103    0.6403   21.1444 H   0  0  0  0  0  0  0  0  0  0  0  0
    4.7937    1.3139   19.0874 C   0  0  0  0  0  0  0  0  0  0  0  0
    3.8622    1.8534   19.2319 H   0  0  0  0  0  0  0  0  0  0  0  0
  1  2  1  0
  2  3  2  0
  3  4  1  0
  4  5  1  0
  4  6  2  0
  6  7  1  0
  7  8  2  0
  8  9  1  0
  9 10  1  0
  9 11  1  0
 11 12  1  0
 11 13  1  0
 11 14  1  0
 14 15  1  0
 14 16  1  0
 14 17  1  0
 17 18  1  0
 18 19  1  0
 18 20  1  0
 18 21  1  0
 21 22  1  0
 21 23  1  0
  8 24  1  0
 24 25  1  0
 25 26  1  0
 25 27  2  0
 27 28  1  0
  6 29  1  0
 29 30  1  0
 29 31  2  0
 31 32  1  0
 31  2  1  0
 27  7  1  0
 21  9  1  0
M  END
>  <plip>  (1) 
-0.034482758620689655

>  <filename>  (1) 
[H][c]1[n][c]([H])[c](-[c]2[c]([C]3([H])[C]([H])([H])[C]([H])([H])[O][C]([H])([H])[C]3([H])[H])[s][c]([H])[c]2[H])[c]([H])[c]1[H]

$$$$
