
     RDKit          3D

 33 35  0  0  0  0  0  0  0  0999 V2000
    8.0412    0.2851   21.9550 C   0  0  0  0  0  0  0  0  0  0  0  0
    7.4124   -0.7388   21.0085 C   0  0  1  0  0  0  0  0  0  0  0  0
    6.6423   -1.6840   21.8046 N   0  0  0  0  0  0  0  0  0  0  0  0
    6.3232   -2.9579   21.4128 C   0  0  0  0  0  0  0  0  0  0  0  0
    6.3346   -3.3659   20.1021 C   0  0  0  0  0  0  0  0  0  0  0  0
    6.1858   -4.7373   19.8199 C   0  0  0  0  0  0  0  0  0  0  0  0
    5.9233   -5.6567   20.7213 N   0  0  0  0  0  0  0  0  0  0  0  0
    5.8031   -5.2433   22.0095 C   0  0  0  0  0  0  0  0  0  0  0  0
    5.4914   -6.2187   22.9770 C   0  0  0  0  0  0  0  0  0  0  0  0
    5.4109   -5.8196   24.2823 C   0  0  0  0  0  0  0  0  0  0  0  0
    5.6269   -4.5449   24.6925 N   0  0  0  0  0  0  0  0  0  0  0  0
    5.9158   -3.6287   23.7921 C   0  0  0  0  0  0  0  0  0  0  0  0
    5.9966   -3.9046   22.4160 C   0  0  0  0  0  0  0  0  0  0  0  0
    6.1113   -2.6218   24.1719 H   0  0  0  0  0  0  0  0  0  0  0  0
    5.1651   -6.5297   25.0695 H   0  0  0  0  0  0  0  0  0  0  0  0
    5.3344   -7.2299   22.6295 H   0  0  0  0  0  0  0  0  0  0  0  0
    6.3209   -5.1062   18.8046 H   0  0  0  0  0  0  0  0  0  0  0  0
    6.5117   -2.6320   19.3297 H   0  0  0  0  0  0  0  0  0  0  0  0
    5.9434   -1.2764   22.4100 H   0  0  0  0  0  0  0  0  0  0  0  0
    6.6228   -0.0335   19.9111 C   0  0  0  0  0  0  0  0  0  0  0  0
    5.4179    0.6438   20.1510 C   0  0  0  0  0  0  0  0  0  0  0  0
    4.7979    1.3105   19.0921 C   0  0  0  0  0  0  0  0  0  0  0  0
    5.4008    1.2948   17.8307 C   0  0  0  0  0  0  0  0  0  0  0  0
    6.5644    0.6760   17.5861 N   0  0  0  0  0  0  0  0  0  0  0  0
    7.1499    0.0424   18.6112 C   0  0  0  0  0  0  0  0  0  0  0  0
    8.1076   -0.4281   18.3766 H   0  0  0  0  0  0  0  0  0  0  0  0
    4.9367    1.7953   16.9821 H   0  0  0  0  0  0  0  0  0  0  0  0
    3.8711    1.8500   19.2376 H   0  0  0  0  0  0  0  0  0  0  0  0
    4.9786    0.6648   21.1508 H   0  0  0  0  0  0  0  0  0  0  0  0
    8.2174   -1.3085   20.5156 H   0  0  0  0  0  0  0  0  0  0  0  0
    8.5993   -0.2144   22.7530 H   0  0  0  0  0  0  0  0  0  0  0  0
    8.7181    0.9435   21.4017 H   0  0  0  0  0  0  0  0  0  0  0  0
    7.2677    0.9151   22.4145 H   0  0  0  0  0  0  0  0  0  0  0  0
  1  2  1  0
  2  3  1  0
  3  4  1  0
  4  5  2  0
  5  6  1  0
  6  7  2  0
  7  8  1  0
  8  9  2  0
  9 10  1  0
 10 11  2  0
 11 12  1  0
 12 13  2  0
 12 14  1  0
 10 15  1  0
  9 16  1  0
  6 17  1  0
  5 18  1  0
  3 19  1  0
  2 20  1  0
 20 21  2  0
 21 22  1  0
 22 23  2  0
 23 24  1  0
 24 25  2  0
 25 26  1  0
 23 27  1  0
 22 28  1  0
 21 29  1  0
  2 30  1  6
  1 31  1  0
  1 32  1  0
  1 33  1  0
 13  4  1  0
 25 20  1  0
 13  8  1  0
M  END
>  <plip>  (1) 
-0.14285714285714285

>  <filename>  (1) 
[H][c]1[n][c]([H])[c]([C@]([H])([N]([H])[c]2[c]([H])[c]([H])[n][c]3[c]([H])[c]([H])[n][c]([H])[c]23)[C]([H])([H])[H])[c]([H])[c]1[H]

$$$$
