
     RDKit          3D

 50 52  0  0  0  0  0  0  0  0999 V2000
    6.7577    4.4823   24.7759 C   0  0  0  0  0  0  0  0  0  0  0  0
    7.8869    3.8122   25.3352 O   0  0  0  0  0  0  0  0  0  0  0  0
    9.0519    3.9426   24.5887 C   0  0  0  0  0  0  0  0  0  0  0  0
    9.9835    4.9548   24.8614 C   0  0  0  0  0  0  0  0  0  0  0  0
    9.7608    6.0004   25.9216 C   0  0  0  0  0  0  0  0  0  0  0  0
    9.0140    6.7347   25.6013 H   0  0  0  0  0  0  0  0  0  0  0  0
   10.6886    6.5436   26.1180 H   0  0  0  0  0  0  0  0  0  0  0  0
    9.4168    5.5471   26.8547 H   0  0  0  0  0  0  0  0  0  0  0  0
   11.1631    4.9784   24.0961 C   0  0  0  0  0  0  0  0  0  0  0  0
   11.3731    4.0054   23.1278 C   0  0  0  0  0  0  0  0  0  0  0  0
   10.5025    3.0247   22.8682 N   0  0  0  0  0  0  0  0  0  0  0  0
    9.3643    3.0227   23.5394 C   0  0  0  0  0  0  0  0  0  0  0  0
    8.4394    2.0499   23.2091 N   0  0  0  0  0  0  0  0  0  0  0  0
    8.4877    1.2893   22.0645 C   0  0  0  0  0  0  0  0  0  0  0  0
    9.1007    1.5576   21.0585 O   0  0  0  0  0  0  0  0  0  0  0  0
    7.7351    0.1421   22.2327 N   0  0  0  0  0  0  0  0  0  0  0  0
    7.4372   -0.6676   21.0536 C   0  0  0  0  0  0  0  0  0  0  0  0
    6.6652   -1.9361   21.4273 C   0  0  0  0  0  0  0  0  0  0  0  0
    7.3172   -2.8828   22.4320 C   0  0  0  0  0  0  0  0  0  0  0  0
    8.5944   -3.5855   21.9545 C   0  0  0  0  0  0  0  0  0  0  0  0
    8.6079   -4.9080   22.7485 C   0  0  0  0  0  0  0  0  0  0  0  0
    7.3254   -5.0353   23.3433 O   0  0  0  0  0  0  0  0  0  0  0  0
    6.4513   -4.1021   22.7461 C   0  0  0  0  0  0  0  0  0  0  0  0
    6.0158   -4.5107   21.8148 H   0  0  0  0  0  0  0  0  0  0  0  0
    5.6339   -3.9004   23.4440 H   0  0  0  0  0  0  0  0  0  0  0  0
    8.8046   -5.7774   22.1016 H   0  0  0  0  0  0  0  0  0  0  0  0
    9.3444   -4.9218   23.5581 H   0  0  0  0  0  0  0  0  0  0  0  0
    8.5064   -3.8137   20.8893 H   0  0  0  0  0  0  0  0  0  0  0  0
    9.5104   -3.0009   22.0794 H   0  0  0  0  0  0  0  0  0  0  0  0
    7.5220   -2.3591   23.3747 H   0  0  0  0  0  0  0  0  0  0  0  0
    5.6751   -1.6379   21.7934 H   0  0  0  0  0  0  0  0  0  0  0  0
    6.4817   -2.4898   20.4977 H   0  0  0  0  0  0  0  0  0  0  0  0
    6.6749    0.1044   19.9758 C   0  0  0  0  0  0  0  0  0  0  0  0
    5.4460    0.7569   20.1788 C   0  0  0  0  0  0  0  0  0  0  0  0
    4.8153    1.3494   19.0798 C   0  0  0  0  0  0  0  0  0  0  0  0
    5.4376    1.2836   17.8271 C   0  0  0  0  0  0  0  0  0  0  0  0
    6.6140    0.6791   17.6122 N   0  0  0  0  0  0  0  0  0  0  0  0
    7.2021    0.1219   18.6801 C   0  0  0  0  0  0  0  0  0  0  0  0
    8.1580   -0.3693   18.4945 H   0  0  0  0  0  0  0  0  0  0  0  0
    4.9697    1.7315   16.9541 H   0  0  0  0  0  0  0  0  0  0  0  0
    3.8636    1.8625   19.1784 H   0  0  0  0  0  0  0  0  0  0  0  0
    4.9775    0.8044   21.1666 H   0  0  0  0  0  0  0  0  0  0  0  0
    8.4078   -0.9514   20.6210 H   0  0  0  0  0  0  0  0  0  0  0  0
    6.9452    0.2989   22.8330 H   0  0  0  0  0  0  0  0  0  0  0  0
    7.8896    1.7175   23.9721 H   0  0  0  0  0  0  0  0  0  0  0  0
   12.2861    4.0113   22.5386 H   0  0  0  0  0  0  0  0  0  0  0  0
   11.8963    5.7621   24.2543 H   0  0  0  0  0  0  0  0  0  0  0  0
    6.4419    4.0177   23.8312 H   0  0  0  0  0  0  0  0  0  0  0  0
    6.9757    5.5441   24.5991 H   0  0  0  0  0  0  0  0  0  0  0  0
    5.9575    4.3934   25.5128 H   0  0  0  0  0  0  0  0  0  0  0  0
  1  2  1  0
  2  3  1  0
  3  4  2  0
  4  5  1  0
  5  6  1  0
  5  7  1  0
  5  8  1  0
  4  9  1  0
  9 10  2  0
 10 11  1  0
 11 12  2  0
 12 13  1  0
 13 14  1  0
 14 15  2  0
 14 16  1  0
 16 17  1  0
 17 18  1  0
 18 19  1  0
 19 20  1  0
 20 21  1  0
 21 22  1  0
 22 23  1  0
 23 24  1  0
 23 25  1  0
 21 26  1  0
 21 27  1  0
 20 28  1  0
 20 29  1  0
 19 30  1  0
 18 31  1  0
 18 32  1  0
 17 33  1  0
 33 34  2  0
 34 35  1  0
 35 36  2  0
 36 37  1  0
 37 38  2  0
 38 39  1  0
 36 40  1  0
 35 41  1  0
 34 42  1  0
 17 43  1  0
 16 44  1  0
 13 45  1  0
 10 46  1  0
  9 47  1  0
  1 48  1  0
  1 49  1  0
  1 50  1  0
 12  3  1  0
 23 19  1  0
 38 33  1  0
M  END
>  <plip>  (1) 
-0.13793103448275862

>  <filename>  (1) 
[H][c]1[n][c]([H])[c]([C]([H])([N]([H])[C](=[O])[N]([H])[c]2[n][c]([H])[c]([H])[c]([C]([H])([H])[H])[c]2[O][C]([H])([H])[H])[C]([H])([H])[C]2([H])[C]([H])([H])[O][C]([H])([H])[C]2([H])[H])[c]([H])[c]1[H]

$$$$
