
     RDKit          3D

 46 49  0  0  0  0  0  0  0  0999 V2000
    2.5797   -7.0778   25.3922 C   0  0  0  0  0  0  0  0  0  0  0  0
    3.4492   -5.9980   24.8793 N   0  0  0  0  0  4  0  0  0  0  0  0
    3.7472   -4.9613   25.9435 C   0  0  0  0  0  0  0  0  0  0  0  0
    4.6251   -3.8394   25.3910 C   0  0  0  0  0  0  0  0  0  0  0  0
    5.9278   -4.3944   24.7978 C   0  0  0  0  0  0  0  0  0  0  0  0
    5.6660   -5.4745   23.7310 C   0  0  0  0  0  0  0  0  0  0  0  0
    6.8663   -6.1507   23.4277 O   0  0  0  0  0  0  0  0  0  0  0  0
    7.5272   -5.4929   23.1627 H   0  0  0  0  0  0  0  0  0  0  0  0
    5.0481   -4.9115   22.4277 C   0  0  0  0  0  0  0  0  0  0  0  0
    5.9191   -3.8671   21.8393 C   0  0  0  0  0  0  0  0  0  0  0  0
    5.7676   -2.5811   21.7773 N   0  0  0  0  0  0  0  0  0  0  0  0
    6.9901   -2.1732   21.2762 C   0  0  0  0  0  0  0  0  0  0  0  0
    7.3591   -0.7287   21.0432 C   0  0  0  0  0  0  0  0  0  0  0  0
    6.6487   -0.0041   19.9176 C   0  0  0  0  0  0  0  0  0  0  0  0
    5.4237    0.6345   20.1468 C   0  0  0  0  0  0  0  0  0  0  0  0
    4.7979    1.2961   19.0890 C   0  0  0  0  0  0  0  0  0  0  0  0
    5.4142    1.2887   17.8345 C   0  0  0  0  0  0  0  0  0  0  0  0
    6.5720    0.6614   17.5789 N   0  0  0  0  0  0  0  0  0  0  0  0
    7.1693    0.0439   18.6068 C   0  0  0  0  0  0  0  0  0  0  0  0
    8.1162   -0.4498   18.3793 H   0  0  0  0  0  0  0  0  0  0  0  0
    4.9574    1.8054   16.9948 H   0  0  0  0  0  0  0  0  0  0  0  0
    3.8683    1.8347   19.2276 H   0  0  0  0  0  0  0  0  0  0  0  0
    4.9894    0.6250   21.1486 H   0  0  0  0  0  0  0  0  0  0  0  0
    8.7934   -0.3372   21.3052 C   0  0  0  0  0  0  0  0  0  0  0  0
    7.7399    0.0787   22.2832 C   0  0  0  0  0  0  0  0  0  0  0  0
    7.6931   -0.4201   23.2492 H   0  0  0  0  0  0  0  0  0  0  0  0
    7.4550    1.1299   22.3156 H   0  0  0  0  0  0  0  0  0  0  0  0
    9.4752   -1.1373   21.5829 H   0  0  0  0  0  0  0  0  0  0  0  0
    9.2125    0.4284   20.6549 H   0  0  0  0  0  0  0  0  0  0  0  0
    7.8210   -3.1541   21.0446 N   0  0  0  0  0  0  0  0  0  0  0  0
    7.1092   -4.2811   21.3904 O   0  0  0  0  0  0  0  0  0  0  0  0
    4.0491   -4.5114   22.6032 H   0  0  0  0  0  0  0  0  0  0  0  0
    4.9493   -5.7346   21.7174 H   0  0  0  0  0  0  0  0  0  0  0  0
    4.7469   -6.5540   24.3110 C   0  0  0  0  0  0  0  0  0  0  0  0
    4.5479   -7.2866   23.5260 H   0  0  0  0  0  0  0  0  0  0  0  0
    5.3070   -7.0573   25.1036 H   0  0  0  0  0  0  0  0  0  0  0  0
    6.5436   -3.5930   24.3640 H   0  0  0  0  0  0  0  0  0  0  0  0
    6.5359   -4.8640   25.5840 H   0  0  0  0  0  0  0  0  0  0  0  0
    4.8411   -3.1255   26.1921 H   0  0  0  0  0  0  0  0  0  0  0  0
    4.0794   -3.2792   24.6202 H   0  0  0  0  0  0  0  0  0  0  0  0
    4.2730   -5.4663   26.7642 H   0  0  0  0  0  0  0  0  0  0  0  0
    2.8019   -4.5766   26.3387 H   0  0  0  0  0  0  0  0  0  0  0  0
    2.9389   -5.5070   24.1155 H   0  0  0  0  0  0  0  0  0  0  0  0
    3.0864   -7.6057   26.2114 H   0  0  0  0  0  0  0  0  0  0  0  0
    1.6410   -6.6691   25.7800 H   0  0  0  0  0  0  0  0  0  0  0  0
    2.3521   -7.8069   24.6074 H   0  0  0  0  0  0  0  0  0  0  0  0
  1  2  1  0
  2  3  1  0
  3  4  1  0
  4  5  1  0
  5  6  1  0
  6  7  1  0
  7  8  1  0
  6  9  1  0
  9 10  1  0
 10 11  2  0
 11 12  1  0
 12 13  1  0
 13 14  1  0
 14 15  2  0
 15 16  1  0
 16 17  2  0
 17 18  1  0
 18 19  2  0
 19 20  1  0
 17 21  1  0
 16 22  1  0
 15 23  1  0
 13 24  1  0
 24 25  1  0
 25 26  1  0
 25 27  1  0
 24 28  1  0
 24 29  1  0
 12 30  2  0
 30 31  1  0
  9 32  1  0
  9 33  1  0
  6 34  1  0
 34 35  1  0
 34 36  1  0
  5 37  1  0
  5 38  1  0
  4 39  1  0
  4 40  1  0
  3 41  1  0
  3 42  1  0
  2 43  1  0
  1 44  1  0
  1 45  1  0
  1 46  1  0
 34  2  1  0
 31 10  1  0
 25 13  1  0
 19 14  1  0
M  CHG  1   2   1
M  END
>  <plip>  (1) 
-0.034482758620689655

>  <filename>  (1) 
[H][O][C]1([C]([H])([H])[c]2[n][c]([C]3([c]4[c]([H])[n][c]([H])[c]([H])[c]4[H])[C]([H])([H])[C]3([H])[H])[n][o]2)[C]([H])([H])[C]([H])([H])[C]([H])([H])[N+]([H])([C]([H])([H])[H])[C]1([H])[H]

$$$$
