
     RDKit          3D

 41 44  0  0  0  0  0  0  0  0999 V2000
    7.3312   -3.0217   23.6248 C   0  0  0  0  0  0  0  0  0  0  0  0
    7.6672   -2.0857   22.5742 N   0  0  0  0  0  0  0  0  0  0  0  0
    8.8576   -1.4752   22.3865 C   0  0  0  0  0  0  0  0  0  0  0  0
    8.7046   -0.5712   21.3561 C   0  0  0  0  0  0  0  0  0  0  0  0
    9.7550    0.3894   20.8639 C   0  0  0  0  0  0  0  0  0  0  0  0
    9.8446    1.6731   21.6469 N   0  0  0  0  0  4  0  0  0  0  0  0
    8.6595    2.6438   21.4566 C   0  0  0  0  0  0  0  0  0  0  0  0
    8.3486    3.0607   22.8994 C   0  0  0  0  0  0  0  0  0  0  0  0
    9.5309    3.8931   23.4571 C   0  0  0  0  0  0  0  0  0  0  0  0
   10.6396    2.8117   23.6724 C   0  0  0  0  0  0  0  0  0  0  0  0
    9.9649    1.5327   23.1765 C   0  0  0  0  0  0  0  0  0  0  0  0
    8.5246    1.7272   23.6415 C   0  0  0  0  0  0  0  0  0  0  0  0
    8.4486    1.8062   24.7301 H   0  0  0  0  0  0  0  0  0  0  0  0
    7.8401    0.9539   23.2942 H   0  0  0  0  0  0  0  0  0  0  0  0
   10.4612    0.6011   23.4406 H   0  0  0  0  0  0  0  0  0  0  0  0
   10.8938    2.7006   24.7315 H   0  0  0  0  0  0  0  0  0  0  0  0
   11.5675    3.0153   23.1293 H   0  0  0  0  0  0  0  0  0  0  0  0
    9.2513    4.3683   24.4034 H   0  0  0  0  0  0  0  0  0  0  0  0
    9.8397    4.6934   22.7763 H   0  0  0  0  0  0  0  0  0  0  0  0
    7.3684    3.5355   22.9894 H   0  0  0  0  0  0  0  0  0  0  0  0
    8.9449    3.4785   20.8145 H   0  0  0  0  0  0  0  0  0  0  0  0
    7.8364    2.1054   20.9815 H   0  0  0  0  0  0  0  0  0  0  0  0
   10.7074    2.1543   21.3405 H   0  0  0  0  0  0  0  0  0  0  0  0
    9.5774    0.6323   19.8125 H   0  0  0  0  0  0  0  0  0  0  0  0
   10.7259   -0.1233   20.9025 H   0  0  0  0  0  0  0  0  0  0  0  0
    7.3457   -0.7294   20.9745 C   0  0  0  0  0  0  0  0  0  0  0  0
    6.6372    0.0036   19.9185 C   0  0  0  0  0  0  0  0  0  0  0  0
    5.4184    0.6503   20.1622 C   0  0  0  0  0  0  0  0  0  0  0  0
    4.8042    1.3169   19.1035 C   0  0  0  0  0  0  0  0  0  0  0  0
    5.4086    1.2939   17.8401 C   0  0  0  0  0  0  0  0  0  0  0  0
    6.5699    0.6736   17.5926 N   0  0  0  0  0  0  0  0  0  0  0  0
    7.1660    0.0564   18.6206 C   0  0  0  0  0  0  0  0  0  0  0  0
    8.1058   -0.4345   18.3783 H   0  0  0  0  0  0  0  0  0  0  0  0
    4.9326    1.7825   16.9915 H   0  0  0  0  0  0  0  0  0  0  0  0
    3.8731    1.8463   19.2476 H   0  0  0  0  0  0  0  0  0  0  0  0
    4.9861    0.6254   21.1675 H   0  0  0  0  0  0  0  0  0  0  0  0
    6.7302   -1.6300   21.7334 N   0  0  0  0  0  0  0  0  0  0  0  0
    9.7100   -1.7097   23.0200 H   0  0  0  0  0  0  0  0  0  0  0  0
    7.1031   -2.5133   24.5677 H   0  0  0  0  0  0  0  0  0  0  0  0
    8.1790   -3.6889   23.7762 H   0  0  0  0  0  0  0  0  0  0  0  0
    6.4645   -3.6019   23.3117 H   0  0  0  0  0  0  0  0  0  0  0  0
  1  2  1  0
  2  3  1  0
  3  4  2  0
  4  5  1  0
  5  6  1  0
  6  7  1  0
  7  8  1  0
  8  9  1  0
  9 10  1  0
 10 11  1  0
 11 12  1  0
 12 13  1  0
 12 14  1  0
 11 15  1  0
 10 16  1  0
 10 17  1  0
  9 18  1  0
  9 19  1  0
  8 20  1  0
  7 21  1  0
  7 22  1  0
  6 23  1  0
  5 24  1  0
  5 25  1  0
  4 26  1  0
 26 27  1  0
 27 28  2  0
 28 29  1  0
 29 30  2  0
 30 31  1  0
 31 32  2  0
 32 33  1  0
 30 34  1  0
 29 35  1  0
 28 36  1  0
 26 37  2  0
  3 38  1  0
  1 39  1  0
  1 40  1  0
  1 41  1  0
 37  2  1  0
 11  6  1  0
 32 27  1  0
 12  8  1  0
M  CHG  1   6   1
M  END
>  <plip>  (1) 
-0.14285714285714285

>  <filename>  (1) 
[H][c]1[n][c]([H])[c](-[c]2[n][n]([C]([H])([H])[H])[c]([H])[c]2[C]([H])([H])[N+]2([H])[C]([H])([H])[C]3([H])[C]([H])([H])[C]([H])([H])[C]2([H])[C]3([H])[H])[c]([H])[c]1[H]

$$$$
