
     RDKit          3D

 36 39  0  0  0  0  0  0  0  0999 V2000
    4.9278    1.8129   16.9723 H   0  0  0  0  0  0  0  0  0  0  0  0
    5.3834    1.3033   17.8201 C   0  0  0  0  0  0  0  0  0  0  0  0
    6.5446    0.6820   17.5721 N   0  0  0  0  0  0  0  0  0  0  0  0
    7.1431    0.0637   18.5974 C   0  0  0  0  0  0  0  0  0  0  0  0
    8.0918   -0.4154   18.3583 H   0  0  0  0  0  0  0  0  0  0  0  0
    6.6263    0.0054   19.9032 C   0  0  0  0  0  0  0  0  0  0  0  0
    7.4050   -0.7018   21.0065 C   0  0  0  0  0  0  0  0  0  0  0  0
    6.7835   -0.7873   21.9069 H   0  0  0  0  0  0  0  0  0  0  0  0
    7.6225   -1.7390   20.7165 H   0  0  0  0  0  0  0  0  0  0  0  0
    8.7164   -0.0350   21.3139 C   0  0  0  0  0  0  0  0  0  0  0  0
    9.9882   -0.4762   21.0448 C   0  0  0  0  0  0  0  0  0  0  0  0
   10.2201   -1.4521   20.6376 H   0  0  0  0  0  0  0  0  0  0  0  0
   10.8973    0.5747   21.3556 C   0  0  0  0  0  0  0  0  0  0  0  0
   11.9763    0.5560   21.2851 H   0  0  0  0  0  0  0  0  0  0  0  0
   10.1438    1.6283   21.7968 C   0  0  0  0  0  0  0  0  0  0  0  0
   10.3994    2.6195   22.1398 H   0  0  0  0  0  0  0  0  0  0  0  0
    8.8140    1.2605   21.8042 N   0  0  0  0  0  0  0  0  0  0  0  0
    7.7564    2.1302   22.2409 C   0  0  0  0  0  0  0  0  0  0  0  0
    7.6993    3.4310   21.6903 C   0  0  0  0  0  0  0  0  0  0  0  0
    8.5427    3.7647   21.0949 H   0  0  0  0  0  0  0  0  0  0  0  0
    6.6168    4.2744   21.8877 C   0  0  0  0  0  0  0  0  0  0  0  0
    6.5420    5.2007   21.3201 H   0  0  0  0  0  0  0  0  0  0  0  0
    5.6211    3.8541   22.7879 C   0  0  0  0  0  0  0  0  0  0  0  0
    5.7106    2.6092   23.4551 C   0  0  0  0  0  0  0  0  0  0  0  0
    6.7859    1.7444   23.1656 C   0  0  0  0  0  0  0  0  0  0  0  0
    6.8683    0.7880   23.6601 H   0  0  0  0  0  0  0  0  0  0  0  0
    4.5962    2.5481   24.3659 C   0  0  0  0  0  0  0  0  0  0  0  0
    4.3882    1.7606   25.0774 H   0  0  0  0  0  0  0  0  0  0  0  0
    3.8938    3.7100   24.2167 C   0  0  0  0  0  0  0  0  0  0  0  0
    3.0166    4.0747   24.7340 H   0  0  0  0  0  0  0  0  0  0  0  0
    4.4965    4.4917   23.2528 N   0  0  0  0  0  0  0  0  0  0  0  0
    4.1908    5.3969   22.9395 H   0  0  0  0  0  0  0  0  0  0  0  0
    5.4171    0.6711   20.1401 C   0  0  0  0  0  0  0  0  0  0  0  0
    5.0053    0.6936   21.1523 H   0  0  0  0  0  0  0  0  0  0  0  0
    4.7753    1.3213   19.0784 C   0  0  0  0  0  0  0  0  0  0  0  0
    3.8396    1.8556   19.2058 H   0  0  0  0  0  0  0  0  0  0  0  0
  1  2  1  0
  2  3  2  0
  3  4  1  0
  4  5  1  0
  4  6  2  0
  6  7  1  0
  7  8  1  0
  7  9  1  0
  7 10  1  0
 10 11  2  0
 11 12  1  0
 11 13  1  0
 13 14  1  0
 13 15  2  0
 15 16  1  0
 15 17  1  0
 17 18  1  0
 18 19  2  0
 19 20  1  0
 19 21  1  0
 21 22  1  0
 21 23  2  0
 23 24  1  0
 24 25  2  0
 25 26  1  0
 24 27  1  0
 27 28  1  0
 27 29  2  0
 29 30  1  0
 29 31  1  0
 31 32  1  0
  6 33  1  0
 33 34  1  0
 33 35  2  0
 35 36  1  0
 35  2  1  0
 17 10  1  0
 25 18  1  0
 31 23  1  0
M  END
>  <plip>  (1) 
-0.10714285714285714

>  <filename>  (1) 
[H][c]1[n][c]([H])[c]([C]([H])([H])[c]2[c]([H])[c]([H])[c]([H])[n]2-[c]2[c]([H])[c]([H])[c]3[c]([c]2[H])[c]([H])[c]([H])[n]3[H])[c]([H])[c]1[H]

$$$$
