
     RDKit          3D

 22 24  0  0  0  0  0  0  0  0999 V2000
    8.0210   -2.7870   27.2689 H   0  0  0  0  0  0  0  0  0  0  0  0
    7.6390   -2.3188   26.3700 C   0  0  0  0  0  0  0  0  0  0  0  0
    6.4580   -1.6267   26.3651 N   0  0  0  0  0  0  0  0  0  0  0  0
    6.3510   -1.2289   25.1274 C   0  0  0  0  0  0  0  0  0  0  0  0
    5.5407   -0.6395   24.7160 H   0  0  0  0  0  0  0  0  0  0  0  0
    7.4226   -1.6614   24.4092 N   0  0  0  0  0  0  0  0  0  0  0  0
    7.6541   -1.4272   23.0535 C   0  0  0  0  0  0  0  0  0  0  0  0
    6.8451   -0.7471   22.2966 N   0  0  0  0  0  0  0  0  0  0  0  0
    7.3726   -0.7113   21.0262 C   0  0  0  0  0  0  0  0  0  0  0  0
    6.6575   -0.0002   19.9418 C   0  0  0  0  0  0  0  0  0  0  0  0
    7.1841    0.0431   18.6382 C   0  0  0  0  0  0  0  0  0  0  0  0
    8.1274   -0.4329   18.3853 H   0  0  0  0  0  0  0  0  0  0  0  0
    6.5789    0.6566   17.6127 N   0  0  0  0  0  0  0  0  0  0  0  0
    5.4170    1.2795   17.8534 C   0  0  0  0  0  0  0  0  0  0  0  0
    4.9374    1.7711   17.0048 H   0  0  0  0  0  0  0  0  0  0  0  0
    4.8136    1.3016   19.1161 C   0  0  0  0  0  0  0  0  0  0  0  0
    3.8818    1.8374   19.2582 H   0  0  0  0  0  0  0  0  0  0  0  0
    5.4365    0.6490   20.1776 C   0  0  0  0  0  0  0  0  0  0  0  0
    5.0002    0.6344   21.1804 H   0  0  0  0  0  0  0  0  0  0  0  0
    8.5092   -1.3157   20.7843 N   0  0  0  0  0  0  0  0  0  0  0  0
    9.0393   -2.0134   22.2133 S   0  0  0  0  0  0  0  0  0  0  0  0
    8.2630   -2.3726   25.2166 N   0  0  0  0  0  0  0  0  0  0  0  0
  1  2  1  0
  2  3  1  0
  3  4  2  0
  4  5  1  0
  4  6  1  0
  6  7  1  0
  7  8  2  0
  8  9  1  0
  9 10  1  0
 10 11  2  0
 11 12  1  0
 11 13  1  0
 13 14  2  0
 14 15  1  0
 14 16  1  0
 16 17  1  0
 16 18  2  0
 18 19  1  0
  9 20  2  0
 20 21  1  0
  6 22  1  0
 22  2  2  0
 21  7  1  0
 18 10  1  0
M  END
>  <plip>  (1) 
-0.034482758620689655

>  <filename>  (1) 
[H][c]1[n][c]([H])[n](-[c]2[n][c](-[c]3[c]([H])[n][c]([H])[c]([H])[c]3[H])[n][s]2)[n]1

$$$$
