
     RDKit          3D

 43 45  0  0  0  0  0  0  0  0999 V2000
    4.9411    1.8409   16.9659 H   0  0  0  0  0  0  0  0  0  0  0  0
    5.3855    1.3177   17.8101 C   0  0  0  0  0  0  0  0  0  0  0  0
    6.5392    0.6757   17.5737 N   0  0  0  0  0  0  0  0  0  0  0  0
    7.1178    0.0516   18.6061 C   0  0  0  0  0  0  0  0  0  0  0  0
    8.0516   -0.4635   18.3792 H   0  0  0  0  0  0  0  0  0  0  0  0
    6.5969    0.0196   19.9149 C   0  0  0  0  0  0  0  0  0  0  0  0
    7.3778   -0.6839   21.0171 C   0  0  0  0  0  0  0  0  0  0  0  0
    6.7530   -0.8187   21.9119 H   0  0  0  0  0  0  0  0  0  0  0  0
    7.6482   -1.6959   20.6925 H   0  0  0  0  0  0  0  0  0  0  0  0
    8.6593    0.0146   21.3700 C   0  0  0  0  0  0  0  0  0  0  0  0
    9.9481   -0.2595   20.9682 C   0  0  0  0  0  0  0  0  0  0  0  0
   10.2553   -1.1424   20.4238 H   0  0  0  0  0  0  0  0  0  0  0  0
   10.7894    0.7836   21.4372 C   0  0  0  0  0  0  0  0  0  0  0  0
   11.8598    0.8735   21.2923 H   0  0  0  0  0  0  0  0  0  0  0  0
    9.9961    1.6480   22.1373 C   0  0  0  0  0  0  0  0  0  0  0  0
   10.2385    2.5613   22.6695 H   0  0  0  0  0  0  0  0  0  0  0  0
    8.7012    1.1868   22.0973 N   0  0  0  0  0  0  0  0  0  0  0  0
    7.6533    1.6077   22.9604 N   0  0  0  0  0  0  0  0  0  0  0  0
    6.7989    1.4609   22.4286 H   0  0  0  0  0  0  0  0  0  0  0  0
    7.7733    3.0195   23.3718 C   0  0  0  0  0  0  0  0  0  0  0  0
    8.5193    3.0698   24.1798 H   0  0  0  0  0  0  0  0  0  0  0  0
    8.1318    3.6679   22.5507 H   0  0  0  0  0  0  0  0  0  0  0  0
    6.4446    3.5731   23.9127 C   0  0  0  0  0  0  0  0  0  0  0  0
    6.0418    2.8503   24.6366 H   0  0  0  0  0  0  0  0  0  0  0  0
    5.7147    3.6316   23.0902 H   0  0  0  0  0  0  0  0  0  0  0  0
    6.4952    4.8902   24.5608 N   0  0  0  0  0  0  0  0  0  0  0  0
    6.7920    6.0201   23.6693 C   0  0  0  0  0  0  0  0  0  0  0  0
    7.8149    5.9866   23.2480 H   0  0  0  0  0  0  0  0  0  0  0  0
    6.0860    6.0094   22.8274 H   0  0  0  0  0  0  0  0  0  0  0  0
    6.6263    7.3473   24.4233 C   0  0  0  0  0  0  0  0  0  0  0  0
    6.9553    8.1828   23.7970 H   0  0  0  0  0  0  0  0  0  0  0  0
    5.5623    7.5014   24.6638 H   0  0  0  0  0  0  0  0  0  0  0  0
    7.4176    7.3990   25.6075 O   0  0  0  0  0  0  0  0  0  0  0  0
    7.1198    6.3106   26.4763 C   0  0  0  0  0  0  0  0  0  0  0  0
    7.8055    6.3986   27.3251 H   0  0  0  0  0  0  0  0  0  0  0  0
    6.0907    6.3908   26.8602 H   0  0  0  0  0  0  0  0  0  0  0  0
    7.3039    4.9529   25.7854 C   0  0  0  0  0  0  0  0  0  0  0  0
    6.9771    4.1600   26.4719 H   0  0  0  0  0  0  0  0  0  0  0  0
    8.3858    4.8086   25.6013 H   0  0  0  0  0  0  0  0  0  0  0  0
    5.3833    0.6845   20.1313 C   0  0  0  0  0  0  0  0  0  0  0  0
    4.9185    0.7067   21.1196 H   0  0  0  0  0  0  0  0  0  0  0  0
    4.7650    1.3394   19.0619 C   0  0  0  0  0  0  0  0  0  0  0  0
    3.8343    1.8803   19.1882 H   0  0  0  0  0  0  0  0  0  0  0  0
  1  2  1  0
  2  3  2  0
  3  4  1  0
  4  5  1  0
  4  6  2  0
  6  7  1  0
  7  8  1  0
  7  9  1  0
  7 10  1  0
 10 11  2  0
 11 12  1  0
 11 13  1  0
 13 14  1  0
 13 15  2  0
 15 16  1  0
 15 17  1  0
 17 18  1  0
 18 19  1  0
 18 20  1  0
 20 21  1  0
 20 22  1  0
 20 23  1  0
 23 24  1  0
 23 25  1  0
 23 26  1  0
 26 27  1  0
 27 28  1  0
 27 29  1  0
 27 30  1  0
 30 31  1  0
 30 32  1  0
 30 33  1  0
 33 34  1  0
 34 35  1  0
 34 36  1  0
 34 37  1  0
 37 38  1  0
 37 39  1  0
  6 40  1  0
 40 41  1  0
 40 42  2  0
 42 43  1  0
 42  2  1  0
 17 10  1  0
 37 26  1  0
M  END
>  <plip>  (1) 
-0.03571428571428571

>  <filename>  (1) 
[H][c]1[n][c]([H])[c]([C]([H])([H])[c]2[c]([H])[c]([H])[c]([H])[n]2[N]([H])[C]([H])([H])[C]([H])([H])[N]2[C]([H])([H])[C]([H])([H])[O][C]([H])([H])[C]2([H])[H])[c]([H])[c]1[H]

$$$$
