
     RDKit          3D

 38 40  0  0  0  0  0  0  0  0999 V2000
   10.4704    2.3204   21.0673 O   0  0  0  0  0  0  0  0  0  0  0  0
    9.2416    2.3025   21.8093 C   0  0  1  0  0  0  0  0  0  0  0  0
    9.3439    1.2340   22.9167 C   0  0  0  0  0  0  0  0  0  0  0  0
    8.7622   -0.1468   22.5833 N   0  0  0  0  0  4  0  0  0  0  0  0
    7.2125   -0.2791   22.4212 C   0  0  0  0  0  0  0  0  0  0  0  0
    7.3320   -0.7735   20.9498 C   0  0  0  0  0  0  0  0  0  0  0  0
    6.9395   -2.1128   20.8213 F   0  0  0  0  0  0  0  0  0  0  0  0
    6.6353    0.0149   19.8775 C   0  0  0  0  0  0  0  0  0  0  0  0
    5.4148    0.6803   20.0976 C   0  0  0  0  0  0  0  0  0  0  0  0
    4.8110    1.3515   19.0353 C   0  0  0  0  0  0  0  0  0  0  0  0
    5.4369    1.3339   17.7851 C   0  0  0  0  0  0  0  0  0  0  0  0
    6.5822    0.6725   17.5457 N   0  0  0  0  0  0  0  0  0  0  0  0
    7.1464    0.0265   18.5684 C   0  0  0  0  0  0  0  0  0  0  0  0
    8.0574   -0.5270   18.3391 H   0  0  0  0  0  0  0  0  0  0  0  0
    5.0086    1.8679   16.9409 H   0  0  0  0  0  0  0  0  0  0  0  0
    3.8836    1.9017   19.1630 H   0  0  0  0  0  0  0  0  0  0  0  0
    4.9379    0.6535   21.0795 H   0  0  0  0  0  0  0  0  0  0  0  0
    8.8792   -0.6789   21.1037 C   0  0  0  0  0  0  0  0  0  0  0  0
    9.4055    0.0473   20.4874 H   0  0  0  0  0  0  0  0  0  0  0  0
    9.3587   -1.6519   21.0717 H   0  0  0  0  0  0  0  0  0  0  0  0
    6.7998   -1.0340   23.0833 H   0  0  0  0  0  0  0  0  0  0  0  0
    6.7294    0.6875   22.5586 H   0  0  0  0  0  0  0  0  0  0  0  0
    9.1576   -0.8103   23.2791 H   0  0  0  0  0  0  0  0  0  0  0  0
   10.4097    1.1157   23.1243 H   0  0  0  0  0  0  0  0  0  0  0  0
    8.8416    1.5975   23.8188 H   0  0  0  0  0  0  0  0  0  0  0  0
    8.9996    3.6844   22.3843 C   0  0  0  0  0  0  0  0  0  0  0  0
    9.9872    4.4132   23.0679 C   0  0  0  0  0  0  0  0  0  0  0  0
    9.7934    5.7462   23.4383 C   0  0  0  0  0  0  0  0  0  0  0  0
    8.5704    6.3709   23.1512 C   0  0  0  0  0  0  0  0  0  0  0  0
    7.5443    5.6530   22.5269 C   0  0  0  0  0  0  0  0  0  0  0  0
    7.7701    4.3223   22.1890 C   0  0  0  0  0  0  0  0  0  0  0  0
    6.7486    3.6276   21.6462 F   0  0  0  0  0  0  0  0  0  0  0  0
    6.5819    6.0880   22.2712 H   0  0  0  0  0  0  0  0  0  0  0  0
    8.4252    7.4211   23.3893 H   0  0  0  0  0  0  0  0  0  0  0  0
   10.5987    6.2990   23.9201 H   0  0  0  0  0  0  0  0  0  0  0  0
   10.9349    3.9214   23.2853 H   0  0  0  0  0  0  0  0  0  0  0  0
    8.4090    2.0593   21.1279 H   0  0  0  0  0  0  0  0  0  0  0  0
   10.5964    3.2556   20.8328 H   0  0  0  0  0  0  0  0  0  0  0  0
  1  2  1  0
  2  3  1  0
  3  4  1  0
  4  5  1  0
  5  6  1  0
  6  7  1  0
  6  8  1  0
  8  9  2  0
  9 10  1  0
 10 11  2  0
 11 12  1  0
 12 13  2  0
 13 14  1  0
 11 15  1  0
 10 16  1  0
  9 17  1  0
  6 18  1  0
 18 19  1  0
 18 20  1  0
  5 21  1  0
  5 22  1  0
  4 23  1  0
  3 24  1  0
  3 25  1  0
  2 26  1  0
 26 27  2  0
 27 28  1  0
 28 29  2  0
 29 30  1  0
 30 31  2  0
 31 32  1  0
 30 33  1  0
 29 34  1  0
 28 35  1  0
 27 36  1  0
  2 37  1  6
  1 38  1  0
 18  4  1  0
 31 26  1  0
 13  8  1  0
M  CHG  1   4   1
M  END
>  <plip>  (1) 
-0.07142857142857142

>  <filename>  (1) 
[H][O][C@]([H])([c]1[c]([H])[c]([H])[c]([H])[c]([H])[c]1[F])[C]([H])([H])[N+]1([H])[C]([H])([H])[C]([F])([c]2[c]([H])[n][c]([H])[c]([H])[c]2[H])[C]1([H])[H]

$$$$
