
     RDKit          3D

 30 32  0  0  0  0  0  0  0  0999 V2000
    8.7560   -3.2018   22.1343 H   0  0  0  0  0  0  0  0  0  0  0  0
    8.3463   -2.2255   21.9214 C   0  0  0  0  0  0  0  0  0  0  0  0
    8.4502   -1.1786   22.7767 N   0  0  0  0  0  0  0  0  0  0  0  0
    7.8331   -0.2101   22.1275 C   0  0  0  0  0  0  0  0  0  0  0  0
    7.8026    1.2378   22.5032 C   0  0  0  0  0  0  0  0  0  0  0  0
    6.8781    1.6566   22.1014 H   0  0  0  0  0  0  0  0  0  0  0  0
    7.8897    1.4386   24.0285 C   0  0  0  0  0  0  0  0  0  0  0  0
    7.3504    2.3496   24.3139 H   0  0  0  0  0  0  0  0  0  0  0  0
    7.4119    0.6132   24.5663 H   0  0  0  0  0  0  0  0  0  0  0  0
    9.3964    1.5562   24.3574 C   0  0  0  0  0  0  0  0  0  0  0  0
    9.7629    0.6369   24.8232 H   0  0  0  0  0  0  0  0  0  0  0  0
    9.5689    2.3563   25.0845 H   0  0  0  0  0  0  0  0  0  0  0  0
   10.1277    1.8112   23.0169 C   0  0  0  0  0  0  0  0  0  0  0  0
   10.7748    0.9615   22.7744 H   0  0  0  0  0  0  0  0  0  0  0  0
   10.7816    2.6880   23.0598 H   0  0  0  0  0  0  0  0  0  0  0  0
    9.0374    1.9887   21.9422 C   0  0  0  0  0  0  0  0  0  0  0  0
    9.3462    1.6045   20.9629 H   0  0  0  0  0  0  0  0  0  0  0  0
    8.7936    3.0467   21.7875 H   0  0  0  0  0  0  0  0  0  0  0  0
    7.3671   -0.6837   20.9274 N   0  0  0  0  0  0  0  0  0  0  0  0
    6.6484   -0.0040   19.9019 C   0  0  0  0  0  0  0  0  0  0  0  0
    7.1661    0.0338   18.5944 C   0  0  0  0  0  0  0  0  0  0  0  0
    8.1171   -0.4407   18.3691 H   0  0  0  0  0  0  0  0  0  0  0  0
    6.5665    0.6697   17.5831 N   0  0  0  0  0  0  0  0  0  0  0  0
    5.4026    1.2928   17.8381 C   0  0  0  0  0  0  0  0  0  0  0  0
    4.9284    1.7874   16.9920 H   0  0  0  0  0  0  0  0  0  0  0  0
    4.8061    1.3043   19.1028 C   0  0  0  0  0  0  0  0  0  0  0  0
    3.8779    1.8393   19.2574 H   0  0  0  0  0  0  0  0  0  0  0  0
    5.4379    0.6476   20.1664 C   0  0  0  0  0  0  0  0  0  0  0  0
    5.0099    0.6259   21.1720 H   0  0  0  0  0  0  0  0  0  0  0  0
    7.7180   -1.9834   20.7905 N   0  0  0  0  0  0  0  0  0  0  0  0
  1  2  1  0
  2  3  1  0
  3  4  2  0
  4  5  1  0
  5  6  1  0
  5  7  1  0
  7  8  1  0
  7  9  1  0
  7 10  1  0
 10 11  1  0
 10 12  1  0
 10 13  1  0
 13 14  1  0
 13 15  1  0
 13 16  1  0
 16 17  1  0
 16 18  1  0
  4 19  1  0
 19 20  1  0
 20 21  2  0
 21 22  1  0
 21 23  1  0
 23 24  2  0
 24 25  1  0
 24 26  1  0
 26 27  1  0
 26 28  2  0
 28 29  1  0
 19 30  1  0
 30  2  2  0
 16  5  1  0
 28 20  1  0
M  END
>  <plip>  (1) 
-0.0

>  <filename>  (1) 
[H][c]1[n][c]([C]2([H])[C]([H])([H])[C]([H])([H])[C]([H])([H])[C]2([H])[H])[n](-[c]2[c]([H])[n][c]([H])[c]([H])[c]2[H])[n]1

$$$$
