
     RDKit          3D

 40 42  0  0  0  0  0  0  0  0999 V2000
    4.8022    1.3221   19.0994 C   0  0  0  0  0  0  0  0  0  0  0  0
    5.4074    1.2969   17.8379 C   0  0  0  0  0  0  0  0  0  0  0  0
    6.5701    0.6748   17.5950 N   0  0  0  0  0  0  0  0  0  0  0  0
    7.1643    0.0524   18.6201 C   0  0  0  0  0  0  0  0  0  0  0  0
    6.6395    0.0151   19.9203 C   0  0  0  0  0  0  0  0  0  0  0  0
    7.3671   -0.6728   20.9984 C   0  0  0  0  0  0  0  0  0  0  0  0
    6.7412   -1.5406   21.7875 N   0  0  0  0  0  0  0  0  0  0  0  0
    7.6691   -1.9466   22.6677 N   0  0  0  0  0  0  0  0  0  0  0  0
    8.8697   -1.3431   22.4873 C   0  0  0  0  0  0  0  0  0  0  0  0
    8.7197   -0.5065   21.4010 C   0  0  0  0  0  0  0  0  0  0  0  0
    9.7534    0.4301   20.8575 C   0  0  0  0  0  0  0  0  0  0  0  0
    9.7486    1.6775   21.6654 N   0  0  0  0  0  4  0  0  0  0  0  0
    8.4912    2.5208   21.4875 C   0  0  0  0  0  0  0  0  0  0  0  0
    8.6166    3.8387   22.2423 C   0  0  0  0  0  0  0  0  0  0  0  0
    8.6299    3.7230   23.7669 C   0  0  0  0  0  0  0  0  0  0  0  0
    8.0201    5.0337   24.2906 C   0  0  0  0  0  0  0  0  0  0  0  0
    7.3047    5.7033   23.0930 C   0  0  0  0  0  0  0  0  0  0  0  0
    7.4435    4.7439   21.9585 N   0  0  0  0  0  4  0  0  0  0  0  0
    7.5325    5.2248   21.0410 H   0  0  0  0  0  0  0  0  0  0  0  0
    6.5760    4.1267   21.9116 H   0  0  0  0  0  0  0  0  0  0  0  0
    7.7730    6.6629   22.8555 H   0  0  0  0  0  0  0  0  0  0  0  0
    6.2531    5.9111   23.3021 H   0  0  0  0  0  0  0  0  0  0  0  0
    8.7880    5.7005   24.6976 H   0  0  0  0  0  0  0  0  0  0  0  0
    7.3311    4.8331   25.1156 H   0  0  0  0  0  0  0  0  0  0  0  0
    9.6509    3.5679   24.1324 H   0  0  0  0  0  0  0  0  0  0  0  0
    8.0538    2.8518   24.1032 H   0  0  0  0  0  0  0  0  0  0  0  0
    9.5461    4.3277   21.9489 H   0  0  0  0  0  0  0  0  0  0  0  0
    8.3050    2.6930   20.4210 H   0  0  0  0  0  0  0  0  0  0  0  0
    7.6082    1.9872   21.8550 H   0  0  0  0  0  0  0  0  0  0  0  0
   10.5772    2.2896   21.4800 H   0  0  0  0  0  0  0  0  0  0  0  0
    9.7659    1.3395   22.6643 H   0  0  0  0  0  0  0  0  0  0  0  0
    9.5195    0.6833   19.8253 H   0  0  0  0  0  0  0  0  0  0  0  0
   10.7403   -0.0334   20.8804 H   0  0  0  0  0  0  0  0  0  0  0  0
    9.7247   -1.5328   23.1261 H   0  0  0  0  0  0  0  0  0  0  0  0
    7.3864   -2.5963   23.3866 H   0  0  0  0  0  0  0  0  0  0  0  0
    5.4178    0.6575   20.1584 C   0  0  0  0  0  0  0  0  0  0  0  0
    4.9749    0.6279   21.1602 H   0  0  0  0  0  0  0  0  0  0  0  0
    8.1089   -0.4360   18.3875 H   0  0  0  0  0  0  0  0  0  0  0  0
    4.9380    1.7854   16.9862 H   0  0  0  0  0  0  0  0  0  0  0  0
    3.8686    1.8482   19.2325 H   0  0  0  0  0  0  0  0  0  0  0  0
  1  2  2  0
  2  3  1  0
  3  4  2  0
  4  5  1  0
  5  6  1  0
  6  7  2  0
  7  8  1  0
  8  9  1  0
  9 10  2  0
 10 11  1  0
 11 12  1  0
 12 13  1  0
 13 14  1  0
 14 15  1  0
 15 16  1  0
 16 17  1  0
 17 18  1  0
 18 19  1  0
 18 20  1  0
 17 21  1  0
 17 22  1  0
 16 23  1  0
 16 24  1  0
 15 25  1  0
 15 26  1  0
 14 27  1  0
 13 28  1  0
 13 29  1  0
 12 30  1  0
 12 31  1  0
 11 32  1  0
 11 33  1  0
  9 34  1  0
  8 35  1  0
  5 36  2  0
 36 37  1  0
  4 38  1  0
  2 39  1  0
  1 40  1  0
 36  1  1  0
 10  6  1  0
 18 14  1  0
M  CHG  2  12   1  18   1
M  END
>  <plip>  (1) 
-0.13793103448275862

>  <filename>  (1) 
[H][c]1[n][c]([H])[c](-[c]2[n][n]([H])[c]([H])[c]2[C]([H])([H])[N+]([H])([H])[C]([H])([H])[C]2([H])[C]([H])([H])[C]([H])([H])[C]([H])([H])[N+]2([H])[H])[c]([H])[c]1[H]

$$$$
