
     RDKit          3D

 42 43  0  0  0  0  0  0  0  0999 V2000
   11.2932    2.6004   24.0526 C   0  0  0  0  0  0  0  0  0  0  0  0
   10.1656    1.6193   23.7862 C   0  0  0  0  0  0  0  0  0  0  0  0
    9.2885    2.2297   22.6895 N   0  0  0  0  0  4  0  0  0  0  0  0
    8.1338    1.4002   22.2491 C   0  0  0  0  0  0  0  0  0  0  0  0
    8.5876    0.1314   21.5130 C   0  0  0  0  0  0  0  0  0  0  0  0
    7.4137   -0.7249   20.9954 C   0  0  0  0  0  0  0  0  0  0  0  0
    6.6358   -0.0318   19.8912 C   0  0  0  0  0  0  0  0  0  0  0  0
    5.4252    0.6417   20.1266 C   0  0  0  0  0  0  0  0  0  0  0  0
    4.7876    1.3168   19.0782 C   0  0  0  0  0  0  0  0  0  0  0  0
    5.3897    1.3085   17.8196 C   0  0  0  0  0  0  0  0  0  0  0  0
    6.5507    0.6857   17.5682 N   0  0  0  0  0  0  0  0  0  0  0  0
    7.1494    0.0474   18.5809 C   0  0  0  0  0  0  0  0  0  0  0  0
    8.1059   -0.4195   18.3356 H   0  0  0  0  0  0  0  0  0  0  0  0
    4.9316    1.8265   16.9752 H   0  0  0  0  0  0  0  0  0  0  0  0
    3.8581    1.8584   19.2233 H   0  0  0  0  0  0  0  0  0  0  0  0
    4.9971    0.6520   21.1290 H   0  0  0  0  0  0  0  0  0  0  0  0
    7.8034   -1.6854   20.6302 H   0  0  0  0  0  0  0  0  0  0  0  0
    6.7383   -0.9920   21.8234 H   0  0  0  0  0  0  0  0  0  0  0  0
    9.2367    0.3904   20.6606 H   0  0  0  0  0  0  0  0  0  0  0  0
    9.1959   -0.4646   22.2037 H   0  0  0  0  0  0  0  0  0  0  0  0
    7.5547    1.1177   23.1404 H   0  0  0  0  0  0  0  0  0  0  0  0
    7.4655    1.9875   21.6106 H   0  0  0  0  0  0  0  0  0  0  0  0
    9.8737    2.4879   21.8615 H   0  0  0  0  0  0  0  0  0  0  0  0
    8.9651    3.1243   23.1265 H   0  0  0  0  0  0  0  0  0  0  0  0
    9.3315    1.3053   25.0193 C   0  0  0  0  0  0  0  0  0  0  0  0
    9.2560   -0.0216   25.4745 C   0  0  0  0  0  0  0  0  0  0  0  0
    8.5254   -0.3403   26.6205 C   0  0  0  0  0  0  0  0  0  0  0  0
    7.8495    0.6658   27.3184 C   0  0  0  0  0  0  0  0  0  0  0  0
    7.8953    1.9961   26.8710 C   0  0  0  0  0  0  0  0  0  0  0  0
    7.0823    3.0562   27.5634 C   0  0  0  0  0  0  0  0  0  0  0  0
    7.8333    4.1509   27.8788 F   0  0  0  0  0  0  0  0  0  0  0  0
    6.0795    3.4938   26.7429 F   0  0  0  0  0  0  0  0  0  0  0  0
    6.6224    2.6979   28.4873 H   0  0  0  0  0  0  0  0  0  0  0  0
    8.6449    2.3061   25.7265 C   0  0  0  0  0  0  0  0  0  0  0  0
    8.6839    3.3440   25.4046 H   0  0  0  0  0  0  0  0  0  0  0  0
    7.2948    0.3958   28.2153 H   0  0  0  0  0  0  0  0  0  0  0  0
    8.4846   -1.3720   26.9607 H   0  0  0  0  0  0  0  0  0  0  0  0
    9.7763   -0.8029   24.9196 H   0  0  0  0  0  0  0  0  0  0  0  0
   10.5731    0.6714   23.4229 H   0  0  0  0  0  0  0  0  0  0  0  0
   10.8899    3.5594   24.3969 H   0  0  0  0  0  0  0  0  0  0  0  0
   11.8875    2.7805   23.1499 H   0  0  0  0  0  0  0  0  0  0  0  0
   11.9570    2.2151   24.8306 H   0  0  0  0  0  0  0  0  0  0  0  0
  1  2  1  0
  2  3  1  0
  3  4  1  0
  4  5  1  0
  5  6  1  0
  6  7  1  0
  7  8  2  0
  8  9  1  0
  9 10  2  0
 10 11  1  0
 11 12  2  0
 12 13  1  0
 10 14  1  0
  9 15  1  0
  8 16  1  0
  6 17  1  0
  6 18  1  0
  5 19  1  0
  5 20  1  0
  4 21  1  0
  4 22  1  0
  3 23  1  0
  3 24  1  0
  2 25  1  0
 25 26  2  0
 26 27  1  0
 27 28  2  0
 28 29  1  0
 29 30  1  0
 30 31  1  0
 30 32  1  0
 30 33  1  0
 29 34  2  0
 34 35  1  0
 28 36  1  0
 27 37  1  0
 26 38  1  0
  2 39  1  0
  1 40  1  0
  1 41  1  0
  1 42  1  0
 12  7  1  0
 34 25  1  0
M  CHG  1   3   1
M  END
>  <plip>  (1) 
-0.07142857142857142

>  <filename>  (1) 
[H][c]1[n][c]([H])[c]([C]([H])([H])[C]([H])([H])[C]([H])([H])[N+]([H])([H])[C]([H])([c]2[c]([H])[c]([H])[c]([H])[c]([C]([H])([F])[F])[c]2[H])[C]([H])([H])[H])[c]([H])[c]1[H]

$$$$
