
     RDKit          3D

 33 35  0  0  0  0  0  0  0  0999 V2000
    4.9641    1.7809   16.9789 H   0  0  0  0  0  0  0  0  0  0  0  0
    5.4162    1.3074   17.8478 C   0  0  0  0  0  0  0  0  0  0  0  0
    6.6062    0.7194   17.6459 N   0  0  0  0  0  0  0  0  0  0  0  0
    7.1901    0.1237   18.6942 C   0  0  0  0  0  0  0  0  0  0  0  0
    8.1539   -0.3458   18.5088 H   0  0  0  0  0  0  0  0  0  0  0  0
    6.6183    0.0869   19.9793 C   0  0  0  0  0  0  0  0  0  0  0  0
    7.2161   -0.6356   21.0622 N   0  0  0  0  0  0  0  0  0  0  0  0
    7.4942    0.1087   22.1773 N   0  0  0  0  0  0  0  0  0  0  0  0
    8.1885   -0.4537   23.1278 C   0  0  0  0  0  0  0  0  0  0  0  0
    8.4416    0.3731   24.3663 C   0  0  0  0  0  0  0  0  0  0  0  0
    8.4619   -0.2885   25.2374 H   0  0  0  0  0  0  0  0  0  0  0  0
    7.5987    1.0611   24.4879 H   0  0  0  0  0  0  0  0  0  0  0  0
    9.7388    1.1368   24.2510 C   0  0  0  0  0  0  0  0  0  0  0  0
    9.7577    2.3699   23.5907 C   0  0  0  0  0  0  0  0  0  0  0  0
    8.8193    2.8161   23.2685 H   0  0  0  0  0  0  0  0  0  0  0  0
   10.9613    3.0201   23.3262 C   0  0  0  0  0  0  0  0  0  0  0  0
   10.9819    3.9686   22.7978 H   0  0  0  0  0  0  0  0  0  0  0  0
   12.1688    2.4287   23.7099 C   0  0  0  0  0  0  0  0  0  0  0  0
   13.6428    3.2122   23.2589 Cl  0  0  0  0  0  0  0  0  0  0  0  0
   12.1557    1.2051   24.3982 C   0  0  0  0  0  0  0  0  0  0  0  0
   13.6123    0.4032   24.8513 Cl  0  0  0  0  0  0  0  0  0  0  0  0
   10.9417    0.5762   24.6858 C   0  0  0  0  0  0  0  0  0  0  0  0
   10.9645   -0.3583   25.2450 H   0  0  0  0  0  0  0  0  0  0  0  0
    8.6975   -1.8041   23.0014 C   0  0  0  0  0  0  0  0  0  0  0  0
    9.4109   -2.1674   23.7497 H   0  0  0  0  0  0  0  0  0  0  0  0
    8.2407   -2.5997   21.9939 C   0  0  0  0  0  0  0  0  0  0  0  0
    8.4901   -3.6491   21.8798 H   0  0  0  0  0  0  0  0  0  0  0  0
    7.2548   -2.0818   21.0374 C   0  0  0  0  0  0  0  0  0  0  0  0
    6.5717   -2.7388   20.2784 O   0  0  0  0  0  0  0  0  0  0  0  0
    5.4228    0.7713   20.1970 C   0  0  0  0  0  0  0  0  0  0  0  0
    5.0381    0.8570   21.2133 H   0  0  0  0  0  0  0  0  0  0  0  0
    4.7885    1.3613   19.0978 C   0  0  0  0  0  0  0  0  0  0  0  0
    3.8501    1.8900   19.2128 H   0  0  0  0  0  0  0  0  0  0  0  0
  1  2  1  0
  2  3  2  0
  3  4  1  0
  4  5  1  0
  4  6  2  0
  6  7  1  0
  7  8  1  0
  8  9  2  0
  9 10  1  0
 10 11  1  0
 10 12  1  0
 10 13  1  0
 13 14  2  0
 14 15  1  0
 14 16  1  0
 16 17  1  0
 16 18  2  0
 18 19  1  0
 18 20  1  0
 20 21  1  0
 20 22  2  0
 22 23  1  0
  9 24  1  0
 24 25  1  0
 24 26  2  0
 26 27  1  0
 26 28  1  0
 28 29  2  0
  6 30  1  0
 30 31  1  0
 30 32  2  0
 32 33  1  0
 32  2  1  0
 28  7  1  0
 22 13  1  0
M  END
>  <plip>  (1) 
-0.10714285714285714

>  <filename>  (1) 
[H][c]1[n][c]([H])[c](-[n]2[n][c]([C]([H])([H])[c]3[c]([H])[c]([H])[c]([Cl])[c]([Cl])[c]3[H])[c]([H])[c]([H])[c]2=[O])[c]([H])[c]1[H]

$$$$
