
     RDKit          3D

 29 30  0  0  0  0  0  0  0  0999 V2000
    5.7065   -5.0800   19.3812 H   0  0  0  0  0  0  0  0  0  0  0  0
    5.7090   -4.2624   19.9128 O   0  0  0  0  0  0  0  0  0  0  0  0
    6.2702   -4.8043   21.0085 C   0  0  0  0  0  0  0  0  0  0  0  0
    6.5187   -5.9872   20.9872 O   0  0  0  0  0  0  0  0  0  0  0  0
    6.5067   -3.9268   22.1737 C   0  0  0  0  0  0  0  0  0  0  0  0
    6.4799   -4.5074   23.0936 H   0  0  0  0  0  0  0  0  0  0  0  0
    6.7970   -2.6207   22.1948 C   0  0  0  0  0  0  0  0  0  0  0  0
    6.7559   -2.1302   23.1706 H   0  0  0  0  0  0  0  0  0  0  0  0
    7.3120   -1.7674   21.0554 C   0  0  2  0  0  0  0  0  0  0  0  0
    6.9013   -2.1831   20.1278 H   0  0  0  0  0  0  0  0  0  0  0  0
    8.8365   -1.8537   20.8893 C   0  0  0  0  0  0  0  0  0  0  0  0
    9.5216   -2.8452   20.7917 O   0  0  0  0  0  0  0  0  0  0  0  0
    9.3221   -0.5856   20.8777 N   0  0  0  0  0  0  0  0  0  0  0  0
   10.3280   -0.5256   20.8635 H   0  0  0  0  0  0  0  0  0  0  0  0
    8.4218    0.3787   21.4831 C   0  0  0  0  0  0  0  0  0  0  0  0
    8.5306    1.3708   21.0262 H   0  0  0  0  0  0  0  0  0  0  0  0
    8.6182    0.4824   22.5622 H   0  0  0  0  0  0  0  0  0  0  0  0
    7.0169   -0.2419   21.2219 C   0  0  1  0  0  0  0  0  0  0  0  0
    6.3603   -0.0719   22.0864 H   0  0  0  0  0  0  0  0  0  0  0  0
    6.3406    0.3455   19.9932 C   0  0  0  0  0  0  0  0  0  0  0  0
    6.9728    0.2511   18.7382 C   0  0  0  0  0  0  0  0  0  0  0  0
    7.9302   -0.2569   18.6612 H   0  0  0  0  0  0  0  0  0  0  0  0
    6.4891    0.7446   17.5921 N   0  0  0  0  0  0  0  0  0  0  0  0
    5.3103    1.3791   17.6591 C   0  0  0  0  0  0  0  0  0  0  0  0
    4.9350    1.7824   16.7226 H   0  0  0  0  0  0  0  0  0  0  0  0
    4.5844    1.5374   18.8432 C   0  0  0  0  0  0  0  0  0  0  0  0
    3.6390    2.0714   18.8231 H   0  0  0  0  0  0  0  0  0  0  0  0
    5.1080    1.0162   20.0309 C   0  0  0  0  0  0  0  0  0  0  0  0
    4.5611    1.1320   20.9687 H   0  0  0  0  0  0  0  0  0  0  0  0
  1  2  1  0
  2  3  1  0
  3  4  2  0
  3  5  1  0
  5  6  1  0
  5  7  2  3
  7  8  1  0
  7  9  1  0
  9 10  1  6
  9 11  1  0
 11 12  2  0
 11 13  1  0
 13 14  1  0
 13 15  1  0
 15 16  1  0
 15 17  1  0
 15 18  1  0
 18 19  1  1
 18 20  1  0
 20 21  2  0
 21 22  1  0
 21 23  1  0
 23 24  2  0
 24 25  1  0
 24 26  1  0
 26 27  1  0
 26 28  2  0
 28 29  1  0
 18  9  1  0
 28 20  1  0
M  END
>  <plip>  (1) 
-0.13793103448275862

>  <filename>  (1) 
[H][O][C](=[O])[C]([H])=[C]([H])[C@]1([H])[C](=[O])[N]([H])[C]([H])([H])[C@@]1([H])[c]1[c]([H])[n][c]([H])[c]([H])[c]1[H]

$$$$
