
     RDKit          3D

 39 41  0  0  0  0  0  0  0  0999 V2000
    7.0548   -2.9450   19.5390 H   0  0  0  0  0  0  0  0  0  0  0  0
    6.1933   -2.7103   19.9129 O   0  0  0  0  0  0  0  0  0  0  0  0
    6.4244   -2.0390   21.1492 C   0  0  1  0  0  0  0  0  0  0  0  0
    5.4163   -1.7127   21.4460 H   0  0  0  0  0  0  0  0  0  0  0  0
    6.9311   -2.9912   22.2208 C   0  0  0  0  0  0  0  0  0  0  0  0
    8.0232   -3.8425   21.9807 C   0  0  0  0  0  0  0  0  0  0  0  0
    8.5521   -3.7940   21.0291 H   0  0  0  0  0  0  0  0  0  0  0  0
    8.4415   -4.7454   22.9528 C   0  0  0  0  0  0  0  0  0  0  0  0
    9.2124   -5.4756   22.7416 H   0  0  0  0  0  0  0  0  0  0  0  0
    7.8400   -4.7377   24.2115 C   0  0  0  0  0  0  0  0  0  0  0  0
    8.4424   -5.5914   25.1237 O   0  0  0  0  0  0  0  0  0  0  0  0
    7.9521   -5.7890   26.3620 C   0  0  0  0  0  0  0  0  0  0  0  0
    6.6660   -6.1765   26.3671 F   0  0  0  0  0  0  0  0  0  0  0  0
    8.6869   -6.7452   26.8959 F   0  0  0  0  0  0  0  0  0  0  0  0
    8.0282   -4.7000   27.1457 F   0  0  0  0  0  0  0  0  0  0  0  0
    6.7588   -3.9028   24.4934 C   0  0  0  0  0  0  0  0  0  0  0  0
    6.2796   -3.8877   25.4662 H   0  0  0  0  0  0  0  0  0  0  0  0
    6.3038   -3.0596   23.4766 C   0  0  0  0  0  0  0  0  0  0  0  0
    5.4076   -2.4723   23.6585 H   0  0  0  0  0  0  0  0  0  0  0  0
    7.2588   -0.7056   21.0133 C   0  0  0  0  0  0  0  0  0  0  0  0
    6.6335    0.1022   19.8897 C   0  0  0  0  0  0  0  0  0  0  0  0
    7.1485    0.1123   18.5798 C   0  0  0  0  0  0  0  0  0  0  0  0
    8.0854   -0.4028   18.3669 H   0  0  0  0  0  0  0  0  0  0  0  0
    6.5626    0.7082   17.5307 N   0  0  0  0  0  0  0  0  0  0  0  0
    5.4004    1.3366   17.7631 C   0  0  0  0  0  0  0  0  0  0  0  0
    4.9402    1.8249   16.9061 H   0  0  0  0  0  0  0  0  0  0  0  0
    4.7800    1.3785   19.0185 C   0  0  0  0  0  0  0  0  0  0  0  0
    3.8359    1.8974   19.1403 H   0  0  0  0  0  0  0  0  0  0  0  0
    5.4072    0.7496   20.0948 C   0  0  0  0  0  0  0  0  0  0  0  0
    4.9582    0.7547   21.0920 H   0  0  0  0  0  0  0  0  0  0  0  0
    8.8327   -0.7438   20.9841 C   0  0  0  0  0  0  0  0  0  0  0  0
    9.3248   -1.7102   20.8440 H   0  0  0  0  0  0  0  0  0  0  0  0
    9.2389   -0.0487   20.2414 H   0  0  0  0  0  0  0  0  0  0  0  0
    8.8961   -0.1306   22.3997 C   0  0  0  0  0  0  0  0  0  0  0  0
    9.4717    0.7967   22.4692 H   0  0  0  0  0  0  0  0  0  0  0  0
    9.2512   -0.8111   23.1795 H   0  0  0  0  0  0  0  0  0  0  0  0
    7.3659    0.0496   22.3847 C   0  0  0  0  0  0  0  0  0  0  0  0
    7.0292    1.0880   22.3404 H   0  0  0  0  0  0  0  0  0  0  0  0
    6.8504   -0.4362   23.2173 H   0  0  0  0  0  0  0  0  0  0  0  0
  1  2  1  0
  2  3  1  0
  3  4  1  1
  3  5  1  0
  5  6  2  0
  6  7  1  0
  6  8  1  0
  8  9  1  0
  8 10  2  0
 10 11  1  0
 11 12  1  0
 12 13  1  0
 12 14  1  0
 12 15  1  0
 10 16  1  0
 16 17  1  0
 16 18  2  0
 18 19  1  0
  3 20  1  0
 20 21  1  0
 21 22  2  0
 22 23  1  0
 22 24  1  0
 24 25  2  0
 25 26  1  0
 25 27  1  0
 27 28  1  0
 27 29  2  0
 29 30  1  0
 20 31  1  0
 31 32  1  0
 31 33  1  0
 31 34  1  0
 34 35  1  0
 34 36  1  0
 34 37  1  0
 37 38  1  0
 37 39  1  0
 18  5  1  0
 37 20  1  0
 29 21  1  0
M  END
>  <plip>  (1) 
-0.14285714285714285

>  <filename>  (1) 
[H][O][C@@]([H])([c]1[c]([H])[c]([H])[c]([O][C]([F])([F])[F])[c]([H])[c]1[H])[C]1([c]2[c]([H])[n][c]([H])[c]([H])[c]2[H])[C]([H])([H])[C]([H])([H])[C]1([H])[H]

$$$$
