
     RDKit          3D

 30 32  0  0  0  0  0  0  0  0999 V2000
    8.3579    2.1691   20.6400 H   0  0  0  0  0  0  0  0  0  0  0  0
    7.9201    2.4293   21.6027 C   0  0  0  0  0  0  0  0  0  0  0  0
    7.7376    3.7376   21.8685 N   0  0  0  0  0  0  0  0  0  0  0  0
    7.1579    4.0168   23.0490 C   0  0  0  0  0  0  0  0  0  0  0  0
    7.0646    5.3585   23.2400 N   0  0  0  0  0  0  0  0  0  0  0  0
    7.3106    5.8149   22.3783 H   0  0  0  0  0  0  0  0  0  0  0  0
    6.5095    5.8149   23.9348 H   0  0  0  0  0  0  0  0  0  0  0  0
    6.7681    2.9820   23.9626 C   0  0  0  0  0  0  0  0  0  0  0  0
    6.2555    3.2435   24.8864 H   0  0  0  0  0  0  0  0  0  0  0  0
    7.0158    1.6935   23.7152 N   0  0  0  0  0  0  0  0  0  0  0  0
    7.5698    1.4014   22.5088 C   0  0  0  0  0  0  0  0  0  0  0  0
    7.7492   -0.0328   22.2265 C   0  0  0  0  0  0  0  0  0  0  0  0
    8.3179   -0.8554   23.2174 C   0  0  0  0  0  0  0  0  0  0  0  0
    8.5636   -0.4422   24.1938 H   0  0  0  0  0  0  0  0  0  0  0  0
    8.5969   -2.1461   23.0428 N   0  0  0  0  0  0  0  0  0  0  0  0
    8.2165   -2.6980   21.8828 C   0  0  0  0  0  0  0  0  0  0  0  0
    8.4489   -3.7519   21.7450 H   0  0  0  0  0  0  0  0  0  0  0  0
    7.5558   -1.9963   20.8805 C   0  0  0  0  0  0  0  0  0  0  0  0
    7.1465   -2.5112   20.0245 H   0  0  0  0  0  0  0  0  0  0  0  0
    7.3418   -0.6239   21.0185 C   0  0  0  0  0  0  0  0  0  0  0  0
    6.6330    0.0954   19.9247 C   0  0  0  0  0  0  0  0  0  0  0  0
    7.1500    0.0887   18.6190 C   0  0  0  0  0  0  0  0  0  0  0  0
    8.0932   -0.4197   18.4016 H   0  0  0  0  0  0  0  0  0  0  0  0
    6.5587    0.6863   17.5745 N   0  0  0  0  0  0  0  0  0  0  0  0
    5.3937    1.3116   17.8047 C   0  0  0  0  0  0  0  0  0  0  0  0
    4.9357    1.8047   16.9501 H   0  0  0  0  0  0  0  0  0  0  0  0
    4.7704    1.3469   19.0555 C   0  0  0  0  0  0  0  0  0  0  0  0
    3.8238    1.8563   19.1719 H   0  0  0  0  0  0  0  0  0  0  0  0
    5.3973    0.7247   20.1350 C   0  0  0  0  0  0  0  0  0  0  0  0
    4.9471    0.7073   21.1294 H   0  0  0  0  0  0  0  0  0  0  0  0
  1  2  1  0
  2  3  2  0
  3  4  1  0
  4  5  1  0
  5  6  1  0
  5  7  1  0
  4  8  2  0
  8  9  1  0
  8 10  1  0
 10 11  2  0
 11 12  1  0
 12 13  2  0
 13 14  1  0
 13 15  1  0
 15 16  2  0
 16 17  1  0
 16 18  1  0
 18 19  1  0
 18 20  2  0
 20 21  1  0
 21 22  2  0
 22 23  1  0
 22 24  1  0
 24 25  2  0
 25 26  1  0
 25 27  1  0
 27 28  1  0
 27 29  2  0
 29 30  1  0
 11  2  1  0
 20 12  1  0
 29 21  1  0
M  END
>  <plip>  (1) 
-0.10714285714285714

>  <filename>  (1) 
[H][c]1[n][c]([N]([H])[H])[c]([H])[n][c]1-[c]1[c]([H])[n][c]([H])[c]([H])[c]1-[c]1[c]([H])[n][c]([H])[c]([H])[c]1[H]

$$$$
