
     RDKit          3D

 32 34  0  0  0  0  0  0  0  0999 V2000
    5.6804   -1.8202   21.5090 H   0  0  0  0  0  0  0  0  0  0  0  0
    6.7265   -1.6001   21.7115 C   0  0  0  0  0  0  0  0  0  0  0  0
    7.3633   -0.6820   20.9722 C   0  0  0  0  0  0  0  0  0  0  0  0
    6.6475    0.0281   19.8802 C   0  0  0  0  0  0  0  0  0  0  0  0
    7.1665    0.0803   18.5725 C   0  0  0  0  0  0  0  0  0  0  0  0
    8.1140   -0.4121   18.3496 H   0  0  0  0  0  0  0  0  0  0  0  0
    6.5658    0.6930   17.5435 N   0  0  0  0  0  0  0  0  0  0  0  0
    5.4053    1.3173   17.7962 C   0  0  0  0  0  0  0  0  0  0  0  0
    4.9368    1.8196   16.9531 H   0  0  0  0  0  0  0  0  0  0  0  0
    4.7910    1.3357   19.0556 C   0  0  0  0  0  0  0  0  0  0  0  0
    3.8519    1.8615   19.1936 H   0  0  0  0  0  0  0  0  0  0  0  0
    5.4176    0.6694   20.1081 C   0  0  0  0  0  0  0  0  0  0  0  0
    4.9890    0.6624   21.1130 H   0  0  0  0  0  0  0  0  0  0  0  0
    8.8008   -0.2603   21.2559 C   0  0  0  0  0  0  0  0  0  0  0  0
    8.7678    0.7106   21.7712 H   0  0  0  0  0  0  0  0  0  0  0  0
    9.3223   -0.0700   20.3113 H   0  0  0  0  0  0  0  0  0  0  0  0
    9.5573   -1.2825   22.1161 C   0  0  0  0  0  0  0  0  0  0  0  0
   10.5014   -0.8671   22.4821 H   0  0  0  0  0  0  0  0  0  0  0  0
    9.8103   -2.1508   21.4944 H   0  0  0  0  0  0  0  0  0  0  0  0
    8.6896   -1.7301   23.3033 C   0  0  2  0  0  0  0  0  0  0  0  0
    8.4221   -0.8375   23.8813 H   0  0  0  0  0  0  0  0  0  0  0  0
    9.3893   -2.6369   24.2102 N   0  0  0  0  0  0  0  0  0  0  0  0
    9.8820   -3.8487   23.8352 C   0  0  0  0  0  0  0  0  0  0  0  0
    9.9512   -4.1055   22.7914 H   0  0  0  0  0  0  0  0  0  0  0  0
   10.2215   -4.5924   24.8563 N   0  0  0  0  0  0  0  0  0  0  0  0
    9.9373   -3.8297   25.9610 C   0  0  0  0  0  0  0  0  0  0  0  0
   10.1083   -4.1989   26.9682 H   0  0  0  0  0  0  0  0  0  0  0  0
    9.4228   -2.6145   25.5905 C   0  0  0  0  0  0  0  0  0  0  0  0
    9.1089   -1.7406   26.1460 H   0  0  0  0  0  0  0  0  0  0  0  0
    7.3841   -2.3866   22.8102 C   0  0  0  0  0  0  0  0  0  0  0  0
    6.7000   -2.5288   23.6516 H   0  0  0  0  0  0  0  0  0  0  0  0
    7.5967   -3.3978   22.4355 H   0  0  0  0  0  0  0  0  0  0  0  0
  1  2  1  0
  2  3  2  0
  3  4  1  0
  4  5  2  0
  5  6  1  0
  5  7  1  0
  7  8  2  0
  8  9  1  0
  8 10  1  0
 10 11  1  0
 10 12  2  0
 12 13  1  0
  3 14  1  0
 14 15  1  0
 14 16  1  0
 14 17  1  0
 17 18  1  0
 17 19  1  0
 17 20  1  0
 20 21  1  1
 20 22  1  0
 22 23  1  0
 23 24  1  0
 23 25  2  0
 25 26  1  0
 26 27  1  0
 26 28  2  0
 28 29  1  0
 20 30  1  0
 30 31  1  0
 30 32  1  0
 30  2  1  0
 12  4  1  0
 28 22  1  0
M  END
>  <plip>  (1) 
-0.03571428571428571

>  <filename>  (1) 
[H][C]1=[C]([c]2[c]([H])[n][c]([H])[c]([H])[c]2[H])[C]([H])([H])[C]([H])([H])[C@]([H])([n]2[c]([H])[n][c]([H])[c]2[H])[C]1([H])[H]

$$$$
