
     RDKit          3D

 55 57  0  0  0  0  0  0  0  0999 V2000
    5.5763   -2.6268   19.4389 C   0  0  0  0  0  0  0  0  0  0  0  0
    6.7332   -2.5980   20.4303 C   0  0  0  0  0  0  0  0  0  0  0  0
    6.9750   -3.9705   21.0685 C   0  0  0  0  0  0  0  0  0  0  0  0
    5.8852   -4.2562   22.0717 C   0  0  0  0  0  0  0  0  0  0  0  0
    4.7604   -4.5515   21.7202 O   0  0  0  0  0  0  0  0  0  0  0  0
    6.2565   -4.0661   23.3966 N   0  0  0  0  0  0  0  0  0  0  0  0
    5.4835   -4.4284   24.5343 C   0  0  0  0  0  0  0  0  0  0  0  0
    4.0885   -4.2982   24.5202 C   0  0  0  0  0  0  0  0  0  0  0  0
    3.3587   -4.6265   25.6691 C   0  0  0  0  0  0  0  0  0  0  0  0
    4.0362   -5.0794   26.8012 C   0  0  0  0  0  0  0  0  0  0  0  0
    5.3699   -5.2129   26.8403 N   0  0  0  0  0  0  0  0  0  0  0  0
    6.0549   -4.8966   25.7581 C   0  0  0  0  0  0  0  0  0  0  0  0
    7.7859   -5.0925   25.8684 Cl  0  0  0  0  0  0  0  0  0  0  0  0
    3.5028   -5.3466   27.7110 H   0  0  0  0  0  0  0  0  0  0  0  0
    2.2778   -4.5380   25.6823 H   0  0  0  0  0  0  0  0  0  0  0  0
    3.6030   -3.9610   23.6096 H   0  0  0  0  0  0  0  0  0  0  0  0
    7.2523   -4.1670   23.5365 H   0  0  0  0  0  0  0  0  0  0  0  0
    6.9366   -4.7601   20.3178 H   0  0  0  0  0  0  0  0  0  0  0  0
    7.9540   -3.9998   21.5512 H   0  0  0  0  0  0  0  0  0  0  0  0
    6.5359   -1.6412   21.5781 N   0  0  0  0  0  4  0  0  0  0  0  0
    7.1478   -0.2631   21.4845 C   0  0  0  0  0  0  0  0  0  0  0  0
    6.5062    0.4942   20.3365 C   0  0  0  0  0  0  0  0  0  0  0  0
    5.3997    1.3279   20.5721 C   0  0  0  0  0  0  0  0  0  0  0  0
    4.7485    1.9291   19.4925 C   0  0  0  0  0  0  0  0  0  0  0  0
    5.2263    1.6818   18.2022 C   0  0  0  0  0  0  0  0  0  0  0  0
    6.2775    0.8868   17.9526 N   0  0  0  0  0  0  0  0  0  0  0  0
    6.9027    0.3340   18.9992 C   0  0  0  0  0  0  0  0  0  0  0  0
    7.7432   -0.3058   18.7425 H   0  0  0  0  0  0  0  0  0  0  0  0
    4.7437    2.1289   17.3347 H   0  0  0  0  0  0  0  0  0  0  0  0
    3.8968    2.5873   19.6333 H   0  0  0  0  0  0  0  0  0  0  0  0
    5.0465    1.4884   21.5923 H   0  0  0  0  0  0  0  0  0  0  0  0
    8.7299   -0.1949   21.5602 C   0  0  0  0  0  0  0  0  0  0  0  0
    9.2500   -0.6553   22.9441 C   0  0  0  0  0  0  0  0  0  0  0  0
   10.6798   -0.2156   23.3220 C   0  0  0  0  0  0  0  0  0  0  0  0
   11.9267   -0.7300   22.0869 C   0  0  0  0  0  0  0  0  0  0  0  0
   11.8343   -0.9464   22.2229 C   0  0  0  0  0  0  0  0  0  0  0  0
    9.5819   -0.9262   20.5234 C   0  0  0  0  0  0  0  0  0  0  0  0
    9.6382   -0.5160   19.5039 H   0  0  0  0  0  0  0  0  0  0  0  0
    9.4853   -2.0125   20.5589 H   0  0  0  0  0  0  0  0  0  0  0  0
   11.0427   -0.9742   21.2293 H   0  0  0  0  0  0  0  0  0  0  0  0
   12.6429   -1.6066   21.4939 H   0  0  0  0  0  0  0  0  0  0  0  0
   12.2365    0.7389   21.4661 H   0  0  0  0  0  0  0  0  0  0  0  0
   12.7243   -0.5983   23.0465 H   0  0  0  0  0  0  0  0  0  0  0  0
   10.8333   -0.6062   24.3652 H   0  0  0  0  0  0  0  0  0  0  0  0
   10.6284    0.9215   23.4734 H   0  0  0  0  0  0  0  0  0  0  0  0
    8.5556   -0.3323   23.7314 H   0  0  0  0  0  0  0  0  0  0  0  0
    9.2312   -1.7547   22.9509 H   0  0  0  0  0  0  0  0  0  0  0  0
    8.8939    0.8870   21.4436 H   0  0  0  0  0  0  0  0  0  0  0  0
    6.8299    0.2699   22.3890 H   0  0  0  0  0  0  0  0  0  0  0  0
    6.8165   -2.1039   22.4587 H   0  0  0  0  0  0  0  0  0  0  0  0
    5.4980   -1.4892   21.6329 H   0  0  0  0  0  0  0  0  0  0  0  0
    7.6104   -2.2555   19.8897 H   0  0  0  0  0  0  0  0  0  0  0  0
    5.8889   -3.1558   18.5342 H   0  0  0  0  0  0  0  0  0  0  0  0
    5.2557   -1.6233   19.1505 H   0  0  0  0  0  0  0  0  0  0  0  0
    4.7399   -3.1733   19.8589 H   0  0  0  0  0  0  0  0  0  0  0  0
  1  2  1  0
  2  3  1  0
  3  4  1  0
  4  5  2  0
  4  6  1  0
  6  7  1  0
  7  8  2  0
  8  9  1  0
  9 10  2  0
 10 11  1  0
 11 12  2  0
 12 13  1  0
 10 14  1  0
  9 15  1  0
  8 16  1  0
  6 17  1  0
  3 18  1  0
  3 19  1  0
  2 20  1  0
 20 21  1  0
 21 22  1  0
 22 23  2  0
 23 24  1  0
 24 25  2  0
 25 26  1  0
 26 27  2  0
 27 28  1  0
 25 29  1  0
 24 30  1  0
 23 31  1  0
 21 32  1  0
 32 33  1  0
 33 34  1  0
 34 35  1  0
 35 36  1  0
 36 37  1  0
 37 38  1  0
 37 39  1  0
 36 40  1  0
 36 41  1  0
 35 42  1  0
 35 43  1  0
 34 44  1  0
 34 45  1  0
 33 46  1  0
 33 47  1  0
 32 48  1  0
 21 49  1  0
 20 50  1  0
 20 51  1  0
  2 52  1  0
  1 53  1  0
  1 54  1  0
  1 55  1  0
 12  7  1  0
 27 22  1  0
 37 32  1  0
M  CHG  1  20   1
M  END
>  <plip>  (1) 
-0.10344827586206896

>  <filename>  (1) 
[H][c]1[n][c]([Cl])[c]([N]([H])[C](=[O])[C]([H])([H])[C]([H])([C]([H])([H])[H])[N+]([H])([H])[C]([H])([c]2[c]([H])[n][c]([H])[c]([H])[c]2[H])[C]2([H])[C]([H])([H])[C]([H])([H])[C]([H])([H])[C]([H])([H])[C]2([H])[H])[c]([H])[c]1[H]

$$$$
