
     RDKit          3D

 37 40  0  0  0  0  0  0  0  0999 V2000
    4.9430    1.8030   16.9951 H   0  0  0  0  0  0  0  0  0  0  0  0
    5.4037    1.2949   17.8397 C   0  0  0  0  0  0  0  0  0  0  0  0
    6.5569    0.6556   17.5879 N   0  0  0  0  0  0  0  0  0  0  0  0
    7.1514    0.0353   18.6105 C   0  0  0  0  0  0  0  0  0  0  0  0
    8.0788   -0.4880   18.3804 H   0  0  0  0  0  0  0  0  0  0  0  0
    6.6544    0.0489   19.9236 C   0  0  0  0  0  0  0  0  0  0  0  0
    7.4254   -0.6679   20.9431 C   0  0  0  0  0  0  0  0  0  0  0  0
    7.9508   -1.8555   20.7470 N   0  0  0  0  0  0  0  0  0  0  0  0
    8.5428   -2.2068   21.9290 C   0  0  0  0  0  0  0  0  0  0  0  0
    9.0204   -3.1708   22.0561 H   0  0  0  0  0  0  0  0  0  0  0  0
    8.4088   -1.1978   22.8414 C   0  0  0  0  0  0  0  0  0  0  0  0
    8.7441   -1.1014   23.8620 H   0  0  0  0  0  0  0  0  0  0  0  0
    7.6921   -0.2009   22.2104 N   0  0  0  0  0  0  0  0  0  0  0  0
    7.4145    1.1012   22.8222 C   0  0  0  0  0  0  0  0  0  0  0  0
    8.3535    1.4568   23.2647 H   0  0  0  0  0  0  0  0  0  0  0  0
    7.1770    1.8007   22.0162 H   0  0  0  0  0  0  0  0  0  0  0  0
    6.3080    1.1184   23.8782 C   0  0  0  0  0  0  0  0  0  0  0  0
    5.7594   -0.0450   24.3679 C   0  0  0  0  0  0  0  0  0  0  0  0
    6.1969   -1.0135   24.1269 H   0  0  0  0  0  0  0  0  0  0  0  0
    4.5593   -0.0478   25.1320 C   0  0  0  0  0  0  0  0  0  0  0  0
    4.1243   -1.0113   25.3939 H   0  0  0  0  0  0  0  0  0  0  0  0
    3.9568    1.1287   25.4929 C   0  0  0  0  0  0  0  0  0  0  0  0
    3.0096    1.1408   26.0273 H   0  0  0  0  0  0  0  0  0  0  0  0
    4.6130    2.3671   25.2163 C   0  0  0  0  0  0  0  0  0  0  0  0
    4.1539    3.5795   25.8148 C   0  0  0  0  0  0  0  0  0  0  0  0
    3.2626    3.5509   26.4381 H   0  0  0  0  0  0  0  0  0  0  0  0
    4.8385    4.7578   25.6388 C   0  0  0  0  0  0  0  0  0  0  0  0
    4.5101    5.6669   26.1425 H   0  0  0  0  0  0  0  0  0  0  0  0
    5.9869    4.7866   24.8060 C   0  0  0  0  0  0  0  0  0  0  0  0
    6.5177    5.7277   24.6813 H   0  0  0  0  0  0  0  0  0  0  0  0
    6.4407    3.6413   24.1835 C   0  0  0  0  0  0  0  0  0  0  0  0
    7.3096    3.7083   23.5314 H   0  0  0  0  0  0  0  0  0  0  0  0
    5.8019    2.3759   24.4010 C   0  0  0  0  0  0  0  0  0  0  0  0
    5.4353    0.6987   20.1692 C   0  0  0  0  0  0  0  0  0  0  0  0
    5.0011    0.6977   21.1728 H   0  0  0  0  0  0  0  0  0  0  0  0
    4.7969    1.3272   19.0998 C   0  0  0  0  0  0  0  0  0  0  0  0
    3.8585    1.8512   19.2332 H   0  0  0  0  0  0  0  0  0  0  0  0
  1  2  1  0
  2  3  2  0
  3  4  1  0
  4  5  1  0
  4  6  2  0
  6  7  1  0
  7  8  2  0
  8  9  1  0
  9 10  1  0
  9 11  2  0
 11 12  1  0
 11 13  1  0
 13 14  1  0
 14 15  1  0
 14 16  1  0
 14 17  1  0
 17 18  2  0
 18 19  1  0
 18 20  1  0
 20 21  1  0
 20 22  2  0
 22 23  1  0
 22 24  1  0
 24 25  2  0
 25 26  1  0
 25 27  1  0
 27 28  1  0
 27 29  2  0
 29 30  1  0
 29 31  1  0
 31 32  1  0
 31 33  2  0
  6 34  1  0
 34 35  1  0
 34 36  2  0
 36 37  1  0
 36  2  1  0
 13  7  1  0
 33 17  1  0
 33 24  1  0
M  END
>  <plip>  (1) 
-0.034482758620689655

>  <filename>  (1) 
[H][c]1[n][c]([H])[c](-[c]2[n][c]([H])[c]([H])[n]2[C]([H])([H])[c]2[c]([H])[c]([H])[c]([H])[c]3[c]([H])[c]([H])[c]([H])[c]([H])[c]23)[c]([H])[c]1[H]

$$$$
