
     RDKit          3D

 31 33  0  0  0  0  0  0  0  0999 V2000
   12.7300    5.5074   22.8541 C   0  0  0  0  0  0  0  0  0  0  0  0
   11.6476    4.4967   22.6774 C   0  0  0  0  0  0  0  0  0  0  0  0
   10.4141    4.6966   23.0597 N   0  0  0  0  0  0  0  0  0  0  0  0
    9.7381    3.5529   22.6628 C   0  0  0  0  0  0  0  0  0  0  0  0
    8.3920    3.1721   22.7509 C   0  0  0  0  0  0  0  0  0  0  0  0
    8.0477    1.9252   22.2413 C   0  0  0  0  0  0  0  0  0  0  0  0
    9.0524    1.1153   21.6526 C   0  0  0  0  0  0  0  0  0  0  0  0
    8.7786   -0.1090   21.1717 N   0  0  0  0  0  0  0  0  0  0  0  0
    7.4609   -0.6800   21.0003 C   0  0  0  0  0  0  0  0  0  0  0  0
    6.6534    0.0149   19.9202 C   0  0  0  0  0  0  0  0  0  0  0  0
    5.4253    0.6552   20.1502 C   0  0  0  0  0  0  0  0  0  0  0  0
    4.7891    1.3097   19.0898 C   0  0  0  0  0  0  0  0  0  0  0  0
    5.3996    1.2946   17.8326 C   0  0  0  0  0  0  0  0  0  0  0  0
    6.5666    0.6804   17.5888 N   0  0  0  0  0  0  0  0  0  0  0  0
    7.1724    0.0748   18.6180 C   0  0  0  0  0  0  0  0  0  0  0  0
    8.1201   -0.4094   18.3796 H   0  0  0  0  0  0  0  0  0  0  0  0
    4.9382    1.7945   16.9824 H   0  0  0  0  0  0  0  0  0  0  0  0
    3.8575    1.8494   19.2282 H   0  0  0  0  0  0  0  0  0  0  0  0
    4.9714    0.6511   21.1454 H   0  0  0  0  0  0  0  0  0  0  0  0
    6.8904   -0.6566   21.9439 H   0  0  0  0  0  0  0  0  0  0  0  0
    7.5959   -1.7393   20.7594 H   0  0  0  0  0  0  0  0  0  0  0  0
    9.6493   -0.5092   20.8665 H   0  0  0  0  0  0  0  0  0  0  0  0
   10.3550    1.4431   21.5319 N   0  0  0  0  0  0  0  0  0  0  0  0
   10.6250    2.6390   22.0334 C   0  0  0  0  0  0  0  0  0  0  0  0
   11.8397    3.2736   22.0652 N   0  0  0  0  0  0  0  0  0  0  0  0
   12.6816    2.8762   21.6829 H   0  0  0  0  0  0  0  0  0  0  0  0
    7.0414    1.5299   22.2714 H   0  0  0  0  0  0  0  0  0  0  0  0
    7.6675    3.8495   23.2007 H   0  0  0  0  0  0  0  0  0  0  0  0
   12.8745    6.0926   21.9420 H   0  0  0  0  0  0  0  0  0  0  0  0
   13.6921    5.0590   23.1075 H   0  0  0  0  0  0  0  0  0  0  0  0
   12.4409    6.1968   23.6488 H   0  0  0  0  0  0  0  0  0  0  0  0
  1  2  1  0
  2  3  2  0
  3  4  1  0
  4  5  2  0
  5  6  1  0
  6  7  2  0
  7  8  1  0
  8  9  1  0
  9 10  1  0
 10 11  2  0
 11 12  1  0
 12 13  2  0
 13 14  1  0
 14 15  2  0
 15 16  1  0
 13 17  1  0
 12 18  1  0
 11 19  1  0
  9 20  1  0
  9 21  1  0
  8 22  1  0
  7 23  1  0
 23 24  2  0
 24 25  1  0
 25 26  1  0
  6 27  1  0
  5 28  1  0
  1 29  1  0
  1 30  1  0
  1 31  1  0
 25  2  1  0
 24  4  1  0
 15 10  1  0
M  END
>  <plip>  (1) 
-0.034482758620689655

>  <filename>  (1) 
[H][c]1[n][c]([H])[c]([C]([H])([H])[N]([H])[c]2[n][c]3[c]([n][c]([C]([H])([H])[H])[n]3[H])[c]([H])[c]2[H])[c]([H])[c]1[H]

$$$$
