
     RDKit          3D

 33 35  0  0  0  0  0  0  0  0999 V2000
    5.6973   -2.0591   21.5942 O   0  0  0  0  0  0  0  0  0  0  0  0
    6.7645   -1.5266   21.8339 C   0  0  0  0  0  0  0  0  0  0  0  0
    7.3783   -0.6560   20.9519 N   0  0  0  0  0  0  0  0  0  0  0  0
    6.7008    0.0174   19.8937 C   0  0  0  0  0  0  0  0  0  0  0  0
    5.4708    0.6394   20.1417 C   0  0  0  0  0  0  0  0  0  0  0  0
    4.8209    1.3057   19.0965 C   0  0  0  0  0  0  0  0  0  0  0  0
    5.4047    1.2965   17.8250 C   0  0  0  0  0  0  0  0  0  0  0  0
    6.5693    0.6803   17.5559 N   0  0  0  0  0  0  0  0  0  0  0  0
    7.1991    0.0698   18.5702 C   0  0  0  0  0  0  0  0  0  0  0  0
    8.1421   -0.4205   18.3309 H   0  0  0  0  0  0  0  0  0  0  0  0
    4.9269    1.7998   16.9864 H   0  0  0  0  0  0  0  0  0  0  0  0
    3.8839    1.8313   19.2557 H   0  0  0  0  0  0  0  0  0  0  0  0
    5.0348    0.5935   21.1378 H   0  0  0  0  0  0  0  0  0  0  0  0
    8.3806   -0.5791   21.0179 H   0  0  0  0  0  0  0  0  0  0  0  0
    7.5993   -1.8291   23.1368 C   0  0  2  0  0  0  0  0  0  0  0  0
    6.9081   -2.8084   24.0918 C   0  0  0  0  0  0  0  0  0  0  0  0
    5.9142   -2.1252   25.0194 C   0  0  0  0  0  0  0  0  0  0  0  0
    4.9557   -2.8708   25.7264 C   0  0  0  0  0  0  0  0  0  0  0  0
    4.0661   -2.2528   26.6119 C   0  0  0  0  0  0  0  0  0  0  0  0
    4.1249   -0.8679   26.8000 C   0  0  0  0  0  0  0  0  0  0  0  0
    5.0775   -0.1160   26.1058 C   0  0  0  0  0  0  0  0  0  0  0  0
    5.9788   -0.7333   25.2226 C   0  0  0  0  0  0  0  0  0  0  0  0
    6.9961    0.0875   24.4419 C   0  0  0  0  0  0  0  0  0  0  0  0
    8.0417   -0.6898   23.8796 O   0  0  0  0  0  0  0  0  0  0  0  0
    6.4935    0.6379   23.6314 H   0  0  0  0  0  0  0  0  0  0  0  0
    7.4860    0.8233   25.0918 H   0  0  0  0  0  0  0  0  0  0  0  0
    5.1291    0.9601   26.2594 H   0  0  0  0  0  0  0  0  0  0  0  0
    3.4406   -0.3784   27.4908 H   0  0  0  0  0  0  0  0  0  0  0  0
    3.3307   -2.8480   27.1511 H   0  0  0  0  0  0  0  0  0  0  0  0
    4.9147   -3.9475   25.5812 H   0  0  0  0  0  0  0  0  0  0  0  0
    7.6911   -3.2799   24.7033 H   0  0  0  0  0  0  0  0  0  0  0  0
    6.4162   -3.5922   23.5104 H   0  0  0  0  0  0  0  0  0  0  0  0
    8.5520   -2.2494   22.7966 H   0  0  0  0  0  0  0  0  0  0  0  0
  1  2  2  0
  2  3  1  0
  3  4  1  0
  4  5  2  0
  5  6  1  0
  6  7  2  0
  7  8  1  0
  8  9  2  0
  9 10  1  0
  7 11  1  0
  6 12  1  0
  5 13  1  0
  3 14  1  0
  2 15  1  0
 15 16  1  0
 16 17  1  0
 17 18  2  0
 18 19  1  0
 19 20  2  0
 20 21  1  0
 21 22  2  0
 22 23  1  0
 23 24  1  0
 23 25  1  0
 23 26  1  0
 21 27  1  0
 20 28  1  0
 19 29  1  0
 18 30  1  0
 16 31  1  0
 16 32  1  0
 15 33  1  6
  9  4  1  0
 24 15  1  0
 22 17  1  0
M  END
>  <plip>  (1) 
-0.07142857142857142

>  <filename>  (1) 
[H][c]1[n][c]([H])[c]([N]([H])[C](=[O])[C@@]2([H])[O][C]([H])([H])[c]3[c]([H])[c]([H])[c]([H])[c]([H])[c]3[C]2([H])[H])[c]([H])[c]1[H]

$$$$
