
     RDKit          3D

 33 35  0  0  0  0  0  0  0  0999 V2000
    5.8800   -0.8873   22.2142 H   0  0  0  0  0  0  0  0  0  0  0  0
    6.9139   -1.1008   21.9337 C   0  0  0  0  0  0  0  0  0  0  0  0
    7.3813   -0.8056   20.7868 N   0  0  0  0  0  0  0  0  0  0  0  0
    6.6473   -0.0613   19.8373 C   0  0  0  0  0  0  0  0  0  0  0  0
    7.1617    0.0253   18.5188 C   0  0  0  0  0  0  0  0  0  0  0  0
    8.0964   -0.4859   18.3072 H   0  0  0  0  0  0  0  0  0  0  0  0
    6.5741    0.6823   17.5145 N   0  0  0  0  0  0  0  0  0  0  0  0
    5.4158    1.3161   17.7869 C   0  0  0  0  0  0  0  0  0  0  0  0
    4.9489    1.8435   16.9585 H   0  0  0  0  0  0  0  0  0  0  0  0
    4.8240    1.3086   19.0532 C   0  0  0  0  0  0  0  0  0  0  0  0
    3.8924    1.8387   19.2184 H   0  0  0  0  0  0  0  0  0  0  0  0
    5.4494    0.6222   20.1012 C   0  0  0  0  0  0  0  0  0  0  0  0
    5.0340    0.6304   21.1087 H   0  0  0  0  0  0  0  0  0  0  0  0
    7.7605   -1.8319   22.9464 C   0  0  0  0  0  0  0  0  0  0  0  0
    8.1461   -2.7283   22.4491 H   0  0  0  0  0  0  0  0  0  0  0  0
    7.1294   -2.1639   23.7704 H   0  0  0  0  0  0  0  0  0  0  0  0
    8.9234   -0.9925   23.4385 C   0  0  0  0  0  0  0  0  0  0  0  0
    8.7845   -0.1126   24.5575 C   0  0  0  0  0  0  0  0  0  0  0  0
    7.8531   -0.1023   25.1239 H   0  0  0  0  0  0  0  0  0  0  0  0
    9.8062    0.7379   24.9209 C   0  0  0  0  0  0  0  0  0  0  0  0
    9.7165    1.4133   25.7693 H   0  0  0  0  0  0  0  0  0  0  0  0
   11.0208    0.7844   24.1700 C   0  0  0  0  0  0  0  0  0  0  0  0
   12.0613    1.7228   24.4415 C   0  0  0  0  0  0  0  0  0  0  0  0
   11.9274    2.4137   25.2689 H   0  0  0  0  0  0  0  0  0  0  0  0
   13.1830    1.7679   23.6501 C   0  0  0  0  0  0  0  0  0  0  0  0
   13.9434    2.5131   23.8356 H   0  0  0  0  0  0  0  0  0  0  0  0
   13.3430    0.8625   22.5636 C   0  0  0  0  0  0  0  0  0  0  0  0
   14.2414    0.9013   21.9541 H   0  0  0  0  0  0  0  0  0  0  0  0
   12.3585   -0.0489   22.2726 C   0  0  0  0  0  0  0  0  0  0  0  0
   12.4487   -0.7173   21.4172 H   0  0  0  0  0  0  0  0  0  0  0  0
   11.1680   -0.1053   23.0581 C   0  0  0  0  0  0  0  0  0  0  0  0
   10.0954   -0.9788   22.7158 C   0  0  0  0  0  0  0  0  0  0  0  0
   10.1942   -1.6021   21.8255 H   0  0  0  0  0  0  0  0  0  0  0  0
  1  2  1  0
  2  3  2  3
  3  4  1  0
  4  5  2  0
  5  6  1  0
  5  7  1  0
  7  8  2  0
  8  9  1  0
  8 10  1  0
 10 11  1  0
 10 12  2  0
 12 13  1  0
  2 14  1  0
 14 15  1  0
 14 16  1  0
 14 17  1  0
 17 18  2  0
 18 19  1  0
 18 20  1  0
 20 21  1  0
 20 22  2  0
 22 23  1  0
 23 24  1  0
 23 25  2  0
 25 26  1  0
 25 27  1  0
 27 28  1  0
 27 29  2  0
 29 30  1  0
 29 31  1  0
 31 32  2  0
 32 33  1  0
 12  4  1  0
 32 17  1  0
 31 22  1  0
M  END
>  <plip>  (1) 
-0.07142857142857142

>  <filename>  (1) 
[H][C](=[N][c]1[c]([H])[n][c]([H])[c]([H])[c]1[H])[C]([H])([H])[c]1[c]([H])[c]([H])[c]2[c]([H])[c]([H])[c]([H])[c]([H])[c]2[c]1[H]

$$$$
