
     RDKit          3D

 37 39  0  0  0  0  0  0  0  0999 V2000
   10.5261   -1.8523   22.2323 O   0  0  0  0  0  0  0  0  0  0  0  0
    9.3329   -1.6475   22.2232 C   0  0  0  0  0  0  0  0  0  0  0  0
    8.6438   -0.9403   21.1198 C   0  0  0  0  0  0  0  0  0  0  0  0
    7.3263   -0.7018   21.0329 C   0  0  0  0  0  0  0  0  0  0  0  0
    6.6567   -0.0043   19.9183 C   0  0  0  0  0  0  0  0  0  0  0  0
    5.4282    0.6433   20.1477 C   0  0  0  0  0  0  0  0  0  0  0  0
    4.7969    1.3095   19.0984 C   0  0  0  0  0  0  0  0  0  0  0  0
    5.4018    1.2950   17.8374 C   0  0  0  0  0  0  0  0  0  0  0  0
    6.5664    0.6782   17.5894 N   0  0  0  0  0  0  0  0  0  0  0  0
    7.1741    0.0609   18.6097 C   0  0  0  0  0  0  0  0  0  0  0  0
    8.1143   -0.4256   18.3562 H   0  0  0  0  0  0  0  0  0  0  0  0
    4.9334    1.7930   16.9896 H   0  0  0  0  0  0  0  0  0  0  0  0
    3.8662    1.8479   19.2403 H   0  0  0  0  0  0  0  0  0  0  0  0
    4.9895    0.6354   21.1490 H   0  0  0  0  0  0  0  0  0  0  0  0
    6.6538   -1.0056   21.8426 H   0  0  0  0  0  0  0  0  0  0  0  0
    9.3453   -0.5956   20.3698 H   0  0  0  0  0  0  0  0  0  0  0  0
    8.4841   -2.0254   23.2055 O   0  0  0  0  0  0  0  0  0  0  0  0
    8.9799   -2.8659   24.2484 C   0  0  0  0  0  0  0  0  0  0  0  0
    9.1996   -4.2957   23.7545 C   0  0  0  0  0  0  0  0  0  0  0  0
    8.0320   -4.8931   23.1585 N   0  0  0  0  0  0  0  0  0  0  0  0
    7.8409   -4.8585   21.8215 N   0  0  0  0  0  0  0  0  0  0  0  0
    6.6296   -5.3290   21.6064 C   0  0  0  0  0  0  0  0  0  0  0  0
    5.9855   -5.7004   22.8301 C   0  0  0  0  0  0  0  0  0  0  0  0
    4.7364   -6.2590   23.2120 C   0  0  0  0  0  0  0  0  0  0  0  0
    4.4998   -6.4773   24.5551 C   0  0  0  0  0  0  0  0  0  0  0  0
    5.4715   -6.1532   25.5399 C   0  0  0  0  0  0  0  0  0  0  0  0
    6.6980   -5.6093   25.1947 C   0  0  0  0  0  0  0  0  0  0  0  0
    6.9450   -5.3916   23.8194 C   0  0  0  0  0  0  0  0  0  0  0  0
    7.4357   -5.3585   25.9493 H   0  0  0  0  0  0  0  0  0  0  0  0
    5.2473   -6.3370   26.5856 H   0  0  0  0  0  0  0  0  0  0  0  0
    3.5549   -6.9015   24.8703 H   0  0  0  0  0  0  0  0  0  0  0  0
    3.9877   -6.5156   22.4683 H   0  0  0  0  0  0  0  0  0  0  0  0
    6.2367   -5.3744   20.5983 H   0  0  0  0  0  0  0  0  0  0  0  0
    9.5165   -4.9350   24.5816 H   0  0  0  0  0  0  0  0  0  0  0  0
    9.9764   -4.2488   22.9990 H   0  0  0  0  0  0  0  0  0  0  0  0
    8.2023   -2.8281   25.0159 H   0  0  0  0  0  0  0  0  0  0  0  0
    9.9241   -2.4693   24.6382 H   0  0  0  0  0  0  0  0  0  0  0  0
  1  2  2  0
  2  3  1  0
  3  4  2  3
  4  5  1  0
  5  6  2  0
  6  7  1  0
  7  8  2  0
  8  9  1  0
  9 10  2  0
 10 11  1  0
  8 12  1  0
  7 13  1  0
  6 14  1  0
  4 15  1  0
  3 16  1  0
  2 17  1  0
 17 18  1  0
 18 19  1  0
 19 20  1  0
 20 21  1  0
 21 22  2  0
 22 23  1  0
 23 24  2  0
 24 25  1  0
 25 26  2  0
 26 27  1  0
 27 28  2  0
 27 29  1  0
 26 30  1  0
 25 31  1  0
 24 32  1  0
 22 33  1  0
 19 34  1  0
 19 35  1  0
 18 36  1  0
 18 37  1  0
 10  5  1  0
 28 20  1  0
 28 23  1  0
M  END
>  <plip>  (1) 
-0.034482758620689655

>  <filename>  (1) 
[H][C]([C](=[O])[O][C]([H])([H])[C]([H])([H])[n]1[n][c]([H])[c]2[c]([H])[c]([H])[c]([H])[c]([H])[c]21)=[C]([H])[c]1[c]([H])[n][c]([H])[c]([H])[c]1[H]

$$$$
