
     RDKit          3D

 37 39  0  0  0  0  0  0  0  0999 V2000
    4.8223    1.3088   19.0858 C   0  0  0  0  0  0  0  0  0  0  0  0
    5.4399    1.2853   17.8303 C   0  0  0  0  0  0  0  0  0  0  0  0
    6.5974    0.6534   17.5951 N   0  0  0  0  0  0  0  0  0  0  0  0
    7.1878    0.0296   18.6152 C   0  0  0  0  0  0  0  0  0  0  0  0
    6.6479   -0.0146   19.9162 C   0  0  0  0  0  0  0  0  0  0  0  0
    7.3767   -0.7592   20.9488 C   0  0  0  0  0  0  0  0  0  0  0  0
    8.5019   -1.3746   20.7417 N   0  0  0  0  0  0  0  0  0  0  0  0
    8.9737   -1.9409   21.8930 C   0  0  0  0  0  0  0  0  0  0  0  0
    8.2303   -1.7802   23.0203 C   0  0  0  0  0  0  0  0  0  0  0  0
    8.5141   -2.2626   24.4002 C   0  0  0  0  0  0  0  0  0  0  0  0
    7.9081   -3.6369   24.4563 N   0  0  0  0  0  4  0  0  0  0  0  0
    8.0333   -4.3768   25.7369 C   0  0  0  0  0  0  0  0  0  0  0  0
    6.7873   -4.2493   26.6141 C   0  0  0  0  0  0  0  0  0  0  0  0
    6.8336   -5.0455   27.9273 C   0  0  0  0  0  0  0  0  0  0  0  0
    5.7844   -4.3502   28.8195 C   0  0  0  0  0  0  0  0  0  0  0  0
    5.4842   -3.1183   28.1643 O   0  0  0  0  0  0  0  0  0  0  0  0
    6.4615   -2.8672   27.1681 C   0  0  0  0  0  0  0  0  0  0  0  0
    7.3638   -2.4043   27.6135 H   0  0  0  0  0  0  0  0  0  0  0  0
    6.0169   -2.1688   26.4551 H   0  0  0  0  0  0  0  0  0  0  0  0
    6.1625   -4.1500   29.8400 H   0  0  0  0  0  0  0  0  0  0  0  0
    4.8472   -4.9153   28.9047 H   0  0  0  0  0  0  0  0  0  0  0  0
    6.6398   -6.1125   27.7924 H   0  0  0  0  0  0  0  0  0  0  0  0
    7.8230   -4.9506   28.3887 H   0  0  0  0  0  0  0  0  0  0  0  0
    5.9219   -4.5743   26.0260 H   0  0  0  0  0  0  0  0  0  0  0  0
    8.8994   -4.0166   26.3061 H   0  0  0  0  0  0  0  0  0  0  0  0
    8.2301   -5.4332   25.5387 H   0  0  0  0  0  0  0  0  0  0  0  0
    8.3145   -4.1361   23.6371 H   0  0  0  0  0  0  0  0  0  0  0  0
    6.8946   -3.4902   24.2294 H   0  0  0  0  0  0  0  0  0  0  0  0
    8.0745   -1.6253   25.1750 H   0  0  0  0  0  0  0  0  0  0  0  0
    9.5946   -2.2993   24.5858 H   0  0  0  0  0  0  0  0  0  0  0  0
    6.8045   -0.8923   22.6018 S   0  0  0  0  0  0  0  0  0  0  0  0
    9.9123   -2.4840   21.8467 H   0  0  0  0  0  0  0  0  0  0  0  0
    5.4361    0.6551   20.1523 C   0  0  0  0  0  0  0  0  0  0  0  0
    4.9815    0.6772   21.1435 H   0  0  0  0  0  0  0  0  0  0  0  0
    8.1337   -0.4615   18.4027 H   0  0  0  0  0  0  0  0  0  0  0  0
    4.9863    1.7939   16.9808 H   0  0  0  0  0  0  0  0  0  0  0  0
    3.8893    1.8420   19.2160 H   0  0  0  0  0  0  0  0  0  0  0  0
  1  2  2  0
  2  3  1  0
  3  4  2  0
  4  5  1  0
  5  6  1  0
  6  7  2  0
  7  8  1  0
  8  9  2  0
  9 10  1  0
 10 11  1  0
 11 12  1  0
 12 13  1  0
 13 14  1  0
 14 15  1  0
 15 16  1  0
 16 17  1  0
 17 18  1  0
 17 19  1  0
 15 20  1  0
 15 21  1  0
 14 22  1  0
 14 23  1  0
 13 24  1  0
 12 25  1  0
 12 26  1  0
 11 27  1  0
 11 28  1  0
 10 29  1  0
 10 30  1  0
  9 31  1  0
  8 32  1  0
  5 33  2  0
 33 34  1  0
  4 35  1  0
  2 36  1  0
  1 37  1  0
 33  1  1  0
 31  6  1  0
 17 13  1  0
M  CHG  1  11   1
M  END
>  <plip>  (1) 
-0.03571428571428571

>  <filename>  (1) 
[H][c]1[n][c](-[c]2[c]([H])[n][c]([H])[c]([H])[c]2[H])[s][c]1[C]([H])([H])[N+]([H])([H])[C]([H])([H])[C]1([H])[C]([H])([H])[O][C]([H])([H])[C]1([H])[H]

$$$$
