
     RDKit          3D

 28 29  0  0  0  0  0  0  0  0999 V2000
    4.9340    1.7974   16.9836 H   0  0  0  0  0  0  0  0  0  0  0  0
    5.4023    1.2675   17.8086 C   0  0  0  0  0  0  0  0  0  0  0  0
    6.5593    0.6358   17.5455 N   0  0  0  0  0  0  0  0  0  0  0  0
    7.1787    0.0374   18.5724 C   0  0  0  0  0  0  0  0  0  0  0  0
    8.1345   -0.4444   18.3558 H   0  0  0  0  0  0  0  0  0  0  0  0
    6.6905    0.0231   19.8957 C   0  0  0  0  0  0  0  0  0  0  0  0
    7.5245   -0.5140   20.9252 N   0  0  0  0  0  0  0  0  0  0  0  0
    7.6732   -1.5172   20.8414 H   0  0  0  0  0  0  0  0  0  0  0  0
    7.0412   -0.3176   22.2314 O   0  0  0  0  0  0  0  0  0  0  0  0
    7.2685    0.9329   22.7551 C   0  0  0  0  0  0  0  0  0  0  0  0
    7.6881    1.8706   22.1223 O   0  0  0  0  0  0  0  0  0  0  0  0
    6.8497    1.0243   24.2188 C   0  0  0  0  0  0  0  0  0  0  0  0
    6.4884   -0.0627   24.9325 N   0  0  0  0  0  0  0  0  0  0  0  0
    6.1412    0.1231   26.2111 C   0  0  0  0  0  0  0  0  0  0  0  0
    5.8442   -0.7777   26.7450 H   0  0  0  0  0  0  0  0  0  0  0  0
    6.1277    1.3760   26.8607 C   0  0  0  0  0  0  0  0  0  0  0  0
    5.7462    1.5136   28.3113 C   0  0  0  0  0  0  0  0  0  0  0  0
    5.2924    2.4895   28.5086 H   0  0  0  0  0  0  0  0  0  0  0  0
    6.6203    1.4256   28.9659 H   0  0  0  0  0  0  0  0  0  0  0  0
    5.0282    0.7476   28.6233 H   0  0  0  0  0  0  0  0  0  0  0  0
    6.4945    2.4939   26.0985 C   0  0  0  0  0  0  0  0  0  0  0  0
    6.4842    3.4912   26.5420 H   0  0  0  0  0  0  0  0  0  0  0  0
    6.8582    2.3157   24.7703 C   0  0  0  0  0  0  0  0  0  0  0  0
    7.1580    3.1489   24.1444 H   0  0  0  0  0  0  0  0  0  0  0  0
    5.4426    0.6178   20.1316 C   0  0  0  0  0  0  0  0  0  0  0  0
    5.0008    0.5823   21.1266 H   0  0  0  0  0  0  0  0  0  0  0  0
    4.8042    1.2699   19.0733 C   0  0  0  0  0  0  0  0  0  0  0  0
    3.8752    1.8035   19.2412 H   0  0  0  0  0  0  0  0  0  0  0  0
  1  2  1  0
  2  3  2  0
  3  4  1  0
  4  5  1  0
  4  6  2  0
  6  7  1  0
  7  8  1  0
  7  9  1  0
  9 10  1  0
 10 11  2  0
 10 12  1  0
 12 13  2  0
 13 14  1  0
 14 15  1  0
 14 16  2  0
 16 17  1  0
 17 18  1  0
 17 19  1  0
 17 20  1  0
 16 21  1  0
 21 22  1  0
 21 23  2  0
 23 24  1  0
  6 25  1  0
 25 26  1  0
 25 27  2  0
 27 28  1  0
 27  2  1  0
 23 12  1  0
M  END
>  <plip>  (1) 
-0.03571428571428571

>  <filename>  (1) 
[H][c]1[n][c]([H])[c]([N]([H])[O][C](=[O])[c]2[n][c]([H])[c]([C]([H])([H])[H])[c]([H])[c]2[H])[c]([H])[c]1[H]

$$$$
