
     RDKit          3D

 33 35  0  0  0  0  0  0  0  0999 V2000
    4.9347    1.8015   16.9898 H   0  0  0  0  0  0  0  0  0  0  0  0
    5.4046    1.2961   17.8288 C   0  0  0  0  0  0  0  0  0  0  0  0
    6.5642    0.6732   17.5647 N   0  0  0  0  0  0  0  0  0  0  0  0
    7.1716    0.0567   18.5869 C   0  0  0  0  0  0  0  0  0  0  0  0
    8.1106   -0.4374   18.3396 H   0  0  0  0  0  0  0  0  0  0  0  0
    6.6681   -0.0014   19.9006 C   0  0  0  0  0  0  0  0  0  0  0  0
    7.4014   -0.7298   20.9658 C   0  0  0  0  0  0  0  0  0  0  0  0
    8.7633   -0.7755   21.0859 C   0  0  0  0  0  0  0  0  0  0  0  0
    9.5088   -0.3130   20.4551 H   0  0  0  0  0  0  0  0  0  0  0  0
    9.2737   -1.6660   22.4769 S   0  0  0  0  0  0  0  0  0  0  0  0
    7.6141   -2.0214   22.9146 C   0  0  0  0  0  0  0  0  0  0  0  0
    7.2629   -2.7289   24.0495 N   0  0  0  0  0  0  0  0  0  0  0  0
    6.0771   -3.5633   24.0452 C   0  0  0  0  0  0  0  0  0  0  0  0
    5.6081   -3.5247   25.0375 H   0  0  0  0  0  0  0  0  0  0  0  0
    5.3399   -3.1632   23.3389 H   0  0  0  0  0  0  0  0  0  0  0  0
    6.4814   -4.9769   23.6554 C   0  0  0  0  0  0  0  0  0  0  0  0
    5.7208   -5.7366   23.8252 H   0  0  0  0  0  0  0  0  0  0  0  0
    6.8706   -5.0311   22.6369 H   0  0  0  0  0  0  0  0  0  0  0  0
    7.7900   -5.5494   24.7025 S   0  0  0  0  0  0  0  0  0  0  0  0
    8.5032   -6.5584   23.9320 O   0  0  0  0  0  0  0  0  0  0  0  0
    7.1814   -5.8052   26.0048 O   0  0  0  0  0  0  0  0  0  0  0  0
    8.9370   -4.2258   24.9330 C   0  0  0  0  0  0  0  0  0  0  0  0
    9.5151   -4.5782   25.7865 H   0  0  0  0  0  0  0  0  0  0  0  0
    9.5505   -4.2129   24.0302 H   0  0  0  0  0  0  0  0  0  0  0  0
    8.1966   -2.9139   25.1429 C   0  0  0  0  0  0  0  0  0  0  0  0
    8.8922   -2.0636   25.1756 H   0  0  0  0  0  0  0  0  0  0  0  0
    7.6370   -2.8980   26.0884 H   0  0  0  0  0  0  0  0  0  0  0  0
    6.7578   -1.4759   22.0018 C   0  0  0  0  0  0  0  0  0  0  0  0
    5.6872   -1.6083   22.0582 H   0  0  0  0  0  0  0  0  0  0  0  0
    5.4441    0.6526   20.1436 C   0  0  0  0  0  0  0  0  0  0  0  0
    5.0190    0.6568   21.1487 H   0  0  0  0  0  0  0  0  0  0  0  0
    4.8050    1.3121   19.0934 C   0  0  0  0  0  0  0  0  0  0  0  0
    3.8678    1.8437   19.2390 H   0  0  0  0  0  0  0  0  0  0  0  0
  1  2  1  0
  2  3  2  0
  3  4  1  0
  4  5  1  0
  4  6  2  0
  6  7  1  0
  7  8  2  0
  8  9  1  0
  8 10  1  0
 10 11  1  0
 11 12  1  0
 12 13  1  0
 13 14  1  0
 13 15  1  0
 13 16  1  0
 16 17  1  0
 16 18  1  0
 16 19  1  0
 19 20  2  0
 19 21  2  0
 19 22  1  0
 22 23  1  0
 22 24  1  0
 22 25  1  0
 25 26  1  0
 25 27  1  0
 11 28  2  0
 28 29  1  0
  6 30  1  0
 30 31  1  0
 30 32  2  0
 32 33  1  0
 32  2  1  0
 28  7  1  0
 25 12  1  0
M  END
>  <plip>  (1) 
-0.03571428571428571

>  <filename>  (1) 
[H][c]1[n][c]([H])[c](-[c]2[c]([H])[s][c]([N]3[C]([H])([H])[C]([H])([H])[S](=[O])(=[O])[C]([H])([H])[C]3([H])[H])[c]2[H])[c]([H])[c]1[H]

$$$$
