
     RDKit          3D

 28 28  0  0  0  0  0  0  0  0999 V2000
    8.6919   -6.3898   23.2854 H   0  0  0  0  0  0  0  0  0  0  0  0
    8.8219   -5.4634   23.0167 O   0  0  0  0  0  0  0  0  0  0  0  0
    7.9264   -5.2327   21.9630 N   0  0  0  0  0  0  0  0  0  0  0  0
    8.3703   -4.6116   21.2946 H   0  0  0  0  0  0  0  0  0  0  0  0
    6.6641   -4.7056   22.2388 C   0  0  0  0  0  0  0  0  0  0  0  0
    6.1050   -4.6926   23.3097 O   0  0  0  0  0  0  0  0  0  0  0  0
    5.9940   -4.2169   20.9799 C   0  0  0  0  0  0  0  0  0  0  0  0
    4.9798   -4.5977   21.0439 H   0  0  0  0  0  0  0  0  0  0  0  0
    6.4408   -4.6280   20.0714 H   0  0  0  0  0  0  0  0  0  0  0  0
    5.9578   -2.7005   20.9713 C   0  0  0  0  0  0  0  0  0  0  0  0
    5.3703   -2.3399   20.1133 H   0  0  0  0  0  0  0  0  0  0  0  0
    5.4553   -2.3603   21.8875 H   0  0  0  0  0  0  0  0  0  0  0  0
    7.3024   -2.1471   20.9459 N   0  0  0  0  0  0  0  0  0  0  0  0
    7.7402   -2.3035   20.0461 H   0  0  0  0  0  0  0  0  0  0  0  0
    7.3437   -0.6926   21.0600 C   0  0  1  0  0  0  0  0  0  0  0  0
    6.9179   -0.3837   22.0323 H   0  0  0  0  0  0  0  0  0  0  0  0
    8.7261   -0.4867   20.9778 O   0  0  0  0  0  0  0  0  0  0  0  0
    8.9671   -1.3649   21.3040 H   0  0  0  0  0  0  0  0  0  0  0  0
    6.6284    0.0297   19.9616 C   0  0  0  0  0  0  0  0  0  0  0  0
    7.1700    0.0177   18.6749 C   0  0  0  0  0  0  0  0  0  0  0  0
    8.1197   -0.4743   18.4740 H   0  0  0  0  0  0  0  0  0  0  0  0
    6.6017    0.6124   17.6147 N   0  0  0  0  0  0  0  0  0  0  0  0
    5.4428    1.2565   17.8216 C   0  0  0  0  0  0  0  0  0  0  0  0
    5.0003    1.7503   16.9543 H   0  0  0  0  0  0  0  0  0  0  0  0
    4.8092    1.3200   19.0671 C   0  0  0  0  0  0  0  0  0  0  0  0
    3.8754    1.8658   19.1671 H   0  0  0  0  0  0  0  0  0  0  0  0
    5.4111    0.6938   20.1616 C   0  0  0  0  0  0  0  0  0  0  0  0
    4.9379    0.7256   21.1461 H   0  0  0  0  0  0  0  0  0  0  0  0
  1  2  1  0
  2  3  1  0
  3  4  1  0
  3  5  1  0
  5  6  2  0
  5  7  1  0
  7  8  1  0
  7  9  1  0
  7 10  1  0
 10 11  1  0
 10 12  1  0
 10 13  1  0
 13 14  1  0
 13 15  1  0
 15 16  1  1
 15 17  1  0
 17 18  1  0
 15 19  1  0
 19 20  2  0
 20 21  1  0
 20 22  1  0
 22 23  2  0
 23 24  1  0
 23 25  1  0
 25 26  1  0
 25 27  2  0
 27 28  1  0
 27 19  1  0
M  END
>  <plip>  (1) 
-0.06896551724137931

>  <filename>  (1) 
[H][O][N]([H])[C](=[O])[C]([H])([H])[C]([H])([H])[N]([H])[C@@]([H])([O][H])[c]1[c]([H])[n][c]([H])[c]([H])[c]1[H]

$$$$
