
     RDKit          3D

 43 45  0  0  0  0  0  0  0  0999 V2000
    7.4326    0.5957   22.9193 C   0  0  0  0  0  0  0  0  0  0  0  0
    7.1061   -0.7364   22.2350 C   0  0  0  0  0  0  0  0  0  0  0  0
    7.4159   -0.6952   20.8381 O   0  0  0  0  0  0  0  0  0  0  0  0
    6.6583   -0.0002   19.9440 C   0  0  0  0  0  0  0  0  0  0  0  0
    5.4400    0.6474   20.1918 C   0  0  0  0  0  0  0  0  0  0  0  0
    4.8115    1.3004   19.1170 C   0  0  0  0  0  0  0  0  0  0  0  0
    5.4046    1.2852   17.8551 C   0  0  0  0  0  0  0  0  0  0  0  0
    6.5701    0.6616   17.6062 N   0  0  0  0  0  0  0  0  0  0  0  0
    7.1709    0.0465   18.6253 C   0  0  0  0  0  0  0  0  0  0  0  0
    8.1200   -0.4443   18.4139 H   0  0  0  0  0  0  0  0  0  0  0  0
    4.9440    1.7862   17.0081 H   0  0  0  0  0  0  0  0  0  0  0  0
    3.8757    1.8325   19.2541 H   0  0  0  0  0  0  0  0  0  0  0  0
    4.9930    0.6508   21.1853 H   0  0  0  0  0  0  0  0  0  0  0  0
    7.9370   -1.9082   22.8412 C   0  0  0  0  0  0  0  0  0  0  0  0
    9.1146   -2.0670   22.5652 O   0  0  0  0  0  0  0  0  0  0  0  0
    7.3083   -2.7605   23.7470 N   0  0  0  0  0  0  0  0  0  0  0  0
    6.0750   -2.4783   24.5017 C   0  0  0  0  0  0  0  0  0  0  0  0
    6.1325   -3.0971   25.9174 C   0  0  0  0  0  0  0  0  0  0  0  0
    6.4811   -4.5069   25.8840 N   0  0  0  0  0  0  0  0  0  0  0  0
    5.5280   -5.4992   26.0377 C   0  0  0  0  0  0  0  0  0  0  0  0
    4.3695   -5.3430   25.3818 N   0  0  0  0  0  0  0  0  0  0  0  0
    3.4568   -6.3137   25.4853 C   0  0  0  0  0  0  0  0  0  0  0  0
    3.6242   -7.4568   26.2631 C   0  0  0  0  0  0  0  0  0  0  0  0
    4.8125   -7.6055   27.0008 C   0  0  0  0  0  0  0  0  0  0  0  0
    5.7758   -6.6080   26.8918 C   0  0  0  0  0  0  0  0  0  0  0  0
    7.1999   -6.6414   27.8930 Cl  0  0  0  0  0  0  0  0  0  0  0  0
    5.0025   -8.4634   27.6454 H   0  0  0  0  0  0  0  0  0  0  0  0
    2.8300   -8.1917   26.3100 H   0  0  0  0  0  0  0  0  0  0  0  0
    2.5414   -6.1485   24.9166 H   0  0  0  0  0  0  0  0  0  0  0  0
    7.7474   -4.7526   25.2017 C   0  0  0  0  0  0  0  0  0  0  0  0
    7.7290   -4.1784   23.7697 C   0  0  0  0  0  0  0  0  0  0  0  0
    8.7314   -4.2286   23.3352 H   0  0  0  0  0  0  0  0  0  0  0  0
    7.0401   -4.7757   23.1473 H   0  0  0  0  0  0  0  0  0  0  0  0
    8.5432   -4.2618   25.7851 H   0  0  0  0  0  0  0  0  0  0  0  0
    7.9584   -5.8303   25.1677 H   0  0  0  0  0  0  0  0  0  0  0  0
    5.1659   -2.9601   26.4169 H   0  0  0  0  0  0  0  0  0  0  0  0
    6.9194   -2.5960   26.5058 H   0  0  0  0  0  0  0  0  0  0  0  0
    5.1918   -2.8979   23.9948 H   0  0  0  0  0  0  0  0  0  0  0  0
    5.9512   -1.3964   24.6129 H   0  0  0  0  0  0  0  0  0  0  0  0
    6.0480   -0.9962   22.3292 H   0  0  0  0  0  0  0  0  0  0  0  0
    6.8348    1.4188   22.5125 H   0  0  0  0  0  0  0  0  0  0  0  0
    8.4887    0.8339   22.7585 H   0  0  0  0  0  0  0  0  0  0  0  0
    7.2417    0.5443   23.9970 H   0  0  0  0  0  0  0  0  0  0  0  0
  1  2  1  0
  2  3  1  0
  3  4  1  0
  4  5  2  0
  5  6  1  0
  6  7  2  0
  7  8  1  0
  8  9  2  0
  9 10  1  0
  7 11  1  0
  6 12  1  0
  5 13  1  0
  2 14  1  0
 14 15  2  0
 14 16  1  0
 16 17  1  0
 17 18  1  0
 18 19  1  0
 19 20  1  0
 20 21  2  0
 21 22  1  0
 22 23  2  0
 23 24  1  0
 24 25  2  0
 25 26  1  0
 24 27  1  0
 23 28  1  0
 22 29  1  0
 19 30  1  0
 30 31  1  0
 31 32  1  0
 31 33  1  0
 30 34  1  0
 30 35  1  0
 18 36  1  0
 18 37  1  0
 17 38  1  0
 17 39  1  0
  2 40  1  0
  1 41  1  0
  1 42  1  0
  1 43  1  0
  9  4  1  0
 31 16  1  0
 25 20  1  0
M  END
>  <plip>  (1) 
-0.034482758620689655

>  <filename>  (1) 
[H][c]1[n][c]([N]2[C]([H])([H])[C]([H])([H])[N]([C](=[O])[C]([H])([O][c]3[c]([H])[n][c]([H])[c]([H])[c]3[H])[C]([H])([H])[H])[C]([H])([H])[C]2([H])[H])[c]([Cl])[c]([H])[c]1[H]

$$$$
