
     RDKit          3D

 23 24  0  0  0  0  0  0  0  0999 V2000
    8.0516   -1.2211   26.5974 H   0  0  0  0  0  0  0  0  0  0  0  0
    8.0493   -0.5464   25.9027 O   0  0  0  0  0  0  0  0  0  0  0  0
    7.0135   -1.3035   25.0083 P   0  0  0  0  0  0  0  0  0  0  0  0
    7.1726   -2.6290   25.6269 O   0  0  0  0  0  0  0  0  0  0  0  0
    5.5805   -0.8026   25.4183 O   0  0  0  0  0  0  0  0  0  0  0  0
    5.6138   -1.0527   26.3503 H   0  0  0  0  0  0  0  0  0  0  0  0
    7.3969   -1.2488   23.1508 C   0  0  0  0  0  0  0  0  0  0  0  0
    6.7533   -0.6149   22.1114 N   0  0  0  0  0  0  0  0  0  0  0  0
    7.2979   -0.6746   20.8692 C   0  0  0  0  0  0  0  0  0  0  0  0
    6.6421    0.0208   19.7649 C   0  0  0  0  0  0  0  0  0  0  0  0
    7.2149    0.0215   18.4881 C   0  0  0  0  0  0  0  0  0  0  0  0
    8.1494   -0.5032   18.2983 H   0  0  0  0  0  0  0  0  0  0  0  0
    6.6508    0.6512   17.4465 N   0  0  0  0  0  0  0  0  0  0  0  0
    5.4961    1.3168   17.6419 C   0  0  0  0  0  0  0  0  0  0  0  0
    5.0321    1.8451   16.8156 H   0  0  0  0  0  0  0  0  0  0  0  0
    4.8647    1.3542   18.8860 C   0  0  0  0  0  0  0  0  0  0  0  0
    3.9382    1.9043   19.0085 H   0  0  0  0  0  0  0  0  0  0  0  0
    5.4338    0.6973   19.9635 C   0  0  0  0  0  0  0  0  0  0  0  0
    4.9521    0.7092   20.9421 H   0  0  0  0  0  0  0  0  0  0  0  0
    8.4473   -1.3590   20.6581 N   0  0  0  0  0  0  0  0  0  0  0  0
    9.0687   -2.0096   21.6559 N   0  0  0  0  0  0  0  0  0  0  0  0
    8.5585   -1.9547   22.8966 C   0  0  0  0  0  0  0  0  0  0  0  0
    9.0706   -2.4399   23.7232 H   0  0  0  0  0  0  0  0  0  0  0  0
  1  2  1  0
  2  3  1  0
  3  4  2  0
  3  5  1  0
  5  6  1  0
  3  7  1  0
  7  8  2  0
  8  9  1  0
  9 10  1  0
 10 11  2  0
 11 12  1  0
 11 13  1  0
 13 14  2  0
 14 15  1  0
 14 16  1  0
 16 17  1  0
 16 18  2  0
 18 19  1  0
  9 20  2  0
 20 21  1  0
 21 22  2  0
 22 23  1  0
 22  7  1  0
 18 10  1  0
M  END
>  <plip>  (1) 
-0.034482758620689655

>  <filename>  (1) 
[H][O][P](=[O])([O][H])[c]1[n][c](-[c]2[c]([H])[n][c]([H])[c]([H])[c]2[H])[n][n][c]1[H]

$$$$
