
     RDKit          3D

 35 35  0  0  0  0  0  0  0  0999 V2000
   10.1217   -0.0287   25.6974 H   0  0  0  0  0  0  0  0  0  0  0  0
    9.7964    0.2744   24.8135 O   0  0  0  0  0  0  0  0  0  0  0  0
    8.3813    0.0999   25.3208 P   0  0  0  0  0  0  0  0  0  0  0  0
    7.3710    1.1508   25.2121 O   0  0  0  0  0  0  0  0  0  0  0  0
    9.5156    0.3257   26.3310 O   0  0  0  0  0  0  0  0  0  0  0  0
    9.9748    0.8039   25.5984 H   0  0  0  0  0  0  0  0  0  0  0  0
    7.5284   -1.4019   25.0693 C   0  0  0  0  0  0  0  0  0  0  0  0
    8.2783   -2.1810   25.0209 H   0  0  0  0  0  0  0  0  0  0  0  0
    6.4727   -1.6929   23.9802 N   0  0  0  0  0  0  0  0  0  0  0  0
    5.8196   -0.9304   23.7314 H   0  0  0  0  0  0  0  0  0  0  0  0
    7.1892   -2.0723   22.8483 N   0  0  0  0  0  0  0  0  0  0  0  0
    6.5217   -1.4825   21.7515 N   0  0  0  0  0  0  0  0  0  0  0  0
    5.6430   -1.0216   21.9603 H   0  0  0  0  0  0  0  0  0  0  0  0
    7.1968   -1.0435   20.6280 C   0  0  0  0  0  0  0  0  0  0  0  0
    8.3472   -1.4013   20.4040 O   0  0  0  0  0  0  0  0  0  0  0  0
    6.5476   -0.1717   19.6703 C   0  0  0  0  0  0  0  0  0  0  0  0
    7.1921    0.0140   18.4444 C   0  0  0  0  0  0  0  0  0  0  0  0
    8.1383   -0.4894   18.2600 H   0  0  0  0  0  0  0  0  0  0  0  0
    6.6968    0.7909   17.4729 N   0  0  0  0  0  0  0  0  0  0  0  0
    5.5344    1.4276   17.7038 C   0  0  0  0  0  0  0  0  0  0  0  0
    5.1238    2.0707   16.9328 H   0  0  0  0  0  0  0  0  0  0  0  0
    4.8315    1.2977   18.9068 C   0  0  0  0  0  0  0  0  0  0  0  0
    3.9056    1.8479   19.0450 H   0  0  0  0  0  0  0  0  0  0  0  0
    5.3346    0.4848   19.9174 C   0  0  0  0  0  0  0  0  0  0  0  0
    4.7988    0.3839   20.8630 H   0  0  0  0  0  0  0  0  0  0  0  0
    7.4656   -3.5100   22.7763 C   0  0  0  0  0  0  0  0  0  0  0  0
    8.0006   -3.8219   23.6769 H   0  0  0  0  0  0  0  0  0  0  0  0
    8.0789   -3.7369   21.9009 H   0  0  0  0  0  0  0  0  0  0  0  0
    6.5267   -4.0663   22.7090 H   0  0  0  0  0  0  0  0  0  0  0  0
    7.3736   -1.0158   26.7745 P   0  0  0  0  0  0  0  0  0  0  0  0
    8.5868   -1.6196   27.3372 O   0  0  0  0  0  0  0  0  0  0  0  0
    6.9072    0.2874   27.4496 O   0  0  0  0  0  0  0  0  0  0  0  0
    5.9837   -0.0695   27.4140 H   0  0  0  0  0  0  0  0  0  0  0  0
    6.0566   -1.0185   27.4933 O   0  0  0  0  0  0  0  0  0  0  0  0
    6.4606   -0.3054   28.0536 H   0  0  0  0  0  0  0  0  0  0  0  0
  1  2  1  0
  2  3  1  0
  3  4  2  0
  3  5  1  0
  5  6  1  0
  3  7  1  0
  7  8  1  0
  7  9  1  0
  9 10  1  0
  9 11  1  0
 11 12  1  0
 12 13  1  0
 12 14  1  0
 14 15  2  0
 14 16  1  0
 16 17  2  0
 17 18  1  0
 17 19  1  0
 19 20  2  0
 20 21  1  0
 20 22  1  0
 22 23  1  0
 22 24  2  0
 24 25  1  0
 11 26  1  0
 26 27  1  0
 26 28  1  0
 26 29  1  0
  7 30  1  0
 30 31  2  0
 30 32  1  0
 32 33  1  0
 30 34  1  0
 34 35  1  0
 24 16  1  0
M  END
>  <plip>  (1) 
-0.0967741935483871

>  <filename>  (1) 
[H][O][P](=[O])([O][H])[C]([H])([N]([H])[N]([N]([H])[C](=[O])[c]1[c]([H])[n][c]([H])[c]([H])[c]1[H])[C]([H])([H])[H])[P](=[O])([O][H])[O][H]

$$$$
