
     RDKit          3D

 33 36  0  0  0  0  0  0  0  0999 V2000
    4.9282    1.7902   17.0293 H   0  0  0  0  0  0  0  0  0  0  0  0
    5.4186    1.2842   17.8599 C   0  0  0  0  0  0  0  0  0  0  0  0
    6.5797    0.6742   17.5658 N   0  0  0  0  0  0  0  0  0  0  0  0
    7.2246    0.0553   18.5613 C   0  0  0  0  0  0  0  0  0  0  0  0
    8.1755   -0.4262   18.3406 H   0  0  0  0  0  0  0  0  0  0  0  0
    6.7320   -0.0132   19.8816 C   0  0  0  0  0  0  0  0  0  0  0  0
    7.4303   -0.7137   20.9255 N   0  0  0  0  0  0  0  0  0  0  0  0
    6.8390   -1.7044   21.7149 C   0  0  0  0  0  0  0  0  0  0  0  0
    5.7477   -2.1788   21.5165 O   0  0  0  0  0  0  0  0  0  0  0  0
    7.7606   -2.0550   22.6936 N   0  0  0  0  0  0  0  0  0  0  0  0
    7.5645   -3.1756   23.5223 C   0  0  0  0  0  0  0  0  0  0  0  0
    6.8927   -4.2775   23.1167 C   0  0  0  0  0  0  0  0  0  0  0  0
    6.3677   -4.3611   22.1780 H   0  0  0  0  0  0  0  0  0  0  0  0
    6.8901   -5.5498   24.2713 S   0  0  0  0  0  0  0  0  0  0  0  0
    7.8162   -4.5887   25.3923 C   0  0  0  0  0  0  0  0  0  0  0  0
    8.2979   -4.9898   26.6519 C   0  0  0  0  0  0  0  0  0  0  0  0
    8.0724   -5.9825   27.0347 H   0  0  0  0  0  0  0  0  0  0  0  0
    9.0621   -4.0903   27.3845 C   0  0  0  0  0  0  0  0  0  0  0  0
    9.5181   -4.4043   28.3214 H   0  0  0  0  0  0  0  0  0  0  0  0
    9.2816   -2.7756   26.9107 C   0  0  0  0  0  0  0  0  0  0  0  0
    9.8270   -2.0537   27.5169 H   0  0  0  0  0  0  0  0  0  0  0  0
    8.8097   -2.3820   25.6664 C   0  0  0  0  0  0  0  0  0  0  0  0
    8.9903   -1.3686   25.3070 H   0  0  0  0  0  0  0  0  0  0  0  0
    8.0938   -3.3027   24.8683 C   0  0  0  0  0  0  0  0  0  0  0  0
    9.0767   -1.5528   22.3353 C   0  0  0  0  0  0  0  0  0  0  0  0
    9.5762   -0.9860   23.1201 H   0  0  0  0  0  0  0  0  0  0  0  0
    9.7535   -2.3404   21.9977 H   0  0  0  0  0  0  0  0  0  0  0  0
    8.7916   -0.6497   21.1649 C   0  0  0  0  0  0  0  0  0  0  0  0
    9.5956   -0.0236   20.5225 O   0  0  0  0  0  0  0  0  0  0  0  0
    5.5086    0.5975   20.1708 C   0  0  0  0  0  0  0  0  0  0  0  0
    5.0963    0.5292   21.1769 H   0  0  0  0  0  0  0  0  0  0  0  0
    4.8485    1.2764   19.1386 C   0  0  0  0  0  0  0  0  0  0  0  0
    3.9108    1.7975   19.3051 H   0  0  0  0  0  0  0  0  0  0  0  0
  1  2  1  0
  2  3  2  0
  3  4  1  0
  4  5  1  0
  4  6  2  0
  6  7  1  0
  7  8  1  0
  8  9  2  0
  8 10  1  0
 10 11  1  0
 11 12  2  0
 12 13  1  0
 12 14  1  0
 14 15  1  0
 15 16  2  0
 16 17  1  0
 16 18  1  0
 18 19  1  0
 18 20  2  0
 20 21  1  0
 20 22  1  0
 22 23  1  0
 22 24  2  0
 10 25  1  0
 25 26  1  0
 25 27  1  0
 25 28  1  0
 28 29  2  0
  6 30  1  0
 30 31  1  0
 30 32  2  0
 32 33  1  0
 32  2  1  0
 28  7  1  0
 24 11  1  0
 24 15  1  0
M  END
>  <plip>  (1) 
-0.10344827586206896

>  <filename>  (1) 
[H][c]1[n][c]([H])[c]([N]2[C](=[O])[N]([c]3[c]([H])[s][c]4[c]([H])[c]([H])[c]([H])[c]([H])[c]34)[C]([H])([H])[C]2=[O])[c]([H])[c]1[H]

$$$$
