
     RDKit          3D

 25 26  0  0  0  0  0  0  0  0999 V2000
    7.0105    2.1100   24.5109 H   0  0  0  0  0  0  0  0  0  0  0  0
    6.8400    1.0982   24.1589 C   0  0  0  0  0  0  0  0  0  0  0  0
    7.2622    0.9577   22.7504 C   0  0  0  0  0  0  0  0  0  0  0  0
    7.7318    1.8673   22.1313 O   0  0  0  0  0  0  0  0  0  0  0  0
    7.0173   -0.3203   22.2583 O   0  0  0  0  0  0  0  0  0  0  0  0
    7.4986   -0.5425   20.9449 N   0  0  0  0  0  0  0  0  0  0  0  0
    7.6538   -1.5448   20.8536 H   0  0  0  0  0  0  0  0  0  0  0  0
    6.6851    0.0152   19.9083 C   0  0  0  0  0  0  0  0  0  0  0  0
    7.1798    0.0339   18.5869 C   0  0  0  0  0  0  0  0  0  0  0  0
    8.1367   -0.4478   18.3723 H   0  0  0  0  0  0  0  0  0  0  0  0
    6.5615    0.6358   17.5607 N   0  0  0  0  0  0  0  0  0  0  0  0
    5.4022    1.2676   17.8177 C   0  0  0  0  0  0  0  0  0  0  0  0
    4.9386    1.7946   16.9875 H   0  0  0  0  0  0  0  0  0  0  0  0
    4.8031    1.2740   19.0795 C   0  0  0  0  0  0  0  0  0  0  0  0
    3.8736    1.8104   19.2427 H   0  0  0  0  0  0  0  0  0  0  0  0
    5.4413    0.6213   20.1376 C   0  0  0  0  0  0  0  0  0  0  0  0
    5.0018    0.5906   21.1326 H   0  0  0  0  0  0  0  0  0  0  0  0
    6.3485    0.1713   25.0070 C   0  0  0  0  0  0  0  0  0  0  0  0
    6.1034   -1.5500   24.7408 S   0  0  0  0  0  0  0  0  0  0  0  0
    5.3872   -1.7898   26.3322 C   0  0  0  0  0  0  0  0  0  0  0  0
    4.8331   -3.1834   26.9822 S   0  0  0  0  0  0  0  0  0  0  0  0
    5.3643   -0.6011   26.9933 N   0  0  0  0  0  0  0  0  0  0  0  0
    5.0768   -0.5350   27.9547 H   0  0  0  0  0  0  0  0  0  0  0  0
    5.9004    0.5187   26.4039 C   0  0  0  0  0  0  0  0  0  0  0  0
    5.9625    1.5809   26.9678 O   0  0  0  0  0  0  0  0  0  0  0  0
  1  2  1  0
  2  3  1  0
  3  4  2  0
  3  5  1  0
  5  6  1  0
  6  7  1  0
  6  8  1  0
  8  9  2  0
  9 10  1  0
  9 11  1  0
 11 12  2  0
 12 13  1  0
 12 14  1  0
 14 15  1  0
 14 16  2  0
 16 17  1  0
  2 18  2  3
 18 19  1  0
 19 20  1  0
 20 21  2  0
 20 22  1  0
 22 23  1  0
 22 24  1  0
 24 25  2  0
 16  8  1  0
 24 18  1  0
M  END
>  <plip>  (1) 
-0.0

>  <filename>  (1) 
[H][C]([C](=[O])[O][N]([H])[c]1[c]([H])[n][c]([H])[c]([H])[c]1[H])=[C]1[S][C](=[S])[N]([H])[C]1=[O]

$$$$
