
     RDKit          3D

 37 38  0  0  0  0  0  0  0  0999 V2000
    4.6708   -6.8678   23.2262 C   0  0  0  0  0  0  0  0  0  0  0  0
    5.5091   -5.5958   23.4315 C   0  0  0  0  0  0  0  0  0  0  0  0
    5.8703   -5.3195   24.8918 C   0  0  0  0  0  0  0  0  0  0  0  0
    6.4034   -4.3624   24.9520 H   0  0  0  0  0  0  0  0  0  0  0  0
    6.5196   -6.1011   25.2992 H   0  0  0  0  0  0  0  0  0  0  0  0
    4.9787   -5.2541   25.5229 H   0  0  0  0  0  0  0  0  0  0  0  0
    6.7731   -5.6386   22.6153 C   0  0  0  0  0  0  0  0  0  0  0  0
    7.9924   -6.1452   22.9404 C   0  0  0  0  0  0  0  0  0  0  0  0
    8.8246   -6.0619   21.9013 O   0  0  0  0  0  0  0  0  0  0  0  0
    8.1835   -5.4705   20.8472 N   0  0  0  0  0  0  0  0  0  0  0  0
    6.9798   -5.1797   21.2740 C   0  0  0  0  0  0  0  0  0  0  0  0
    5.9887   -4.4195   20.4058 C   0  0  0  0  0  0  0  0  0  0  0  0
    6.2017   -2.9674   20.2492 N   0  0  0  0  0  0  0  0  0  0  0  0
    6.5306   -2.1593   21.3013 C   0  0  0  0  0  0  0  0  0  0  0  0
    6.2690   -2.4840   22.4464 O   0  0  0  0  0  0  0  0  0  0  0  0
    7.3054   -0.7962   20.9790 C   0  0  0  0  0  0  0  0  0  0  0  0
    8.7140   -0.9058   20.8490 O   0  0  0  0  0  0  0  0  0  0  0  0
    8.9260   -1.2270   19.9614 H   0  0  0  0  0  0  0  0  0  0  0  0
    6.7049    0.0042   19.8376 C   0  0  0  0  0  0  0  0  0  0  0  0
    5.4559    0.6009   20.0607 C   0  0  0  0  0  0  0  0  0  0  0  0
    4.8405    1.2939   19.0167 C   0  0  0  0  0  0  0  0  0  0  0  0
    5.5011    1.3616   17.7836 C   0  0  0  0  0  0  0  0  0  0  0  0
    6.7057    0.8184   17.5537 N   0  0  0  0  0  0  0  0  0  0  0  0
    7.3002    0.1818   18.5716 C   0  0  0  0  0  0  0  0  0  0  0  0
    8.3053   -0.1832   18.3527 H   0  0  0  0  0  0  0  0  0  0  0  0
    5.0357    1.8548   16.9328 H   0  0  0  0  0  0  0  0  0  0  0  0
    3.8736    1.7710   19.1395 H   0  0  0  0  0  0  0  0  0  0  0  0
    5.0036    0.5372   21.0541 H   0  0  0  0  0  0  0  0  0  0  0  0
    7.1585   -0.2487   21.9162 H   0  0  0  0  0  0  0  0  0  0  0  0
    6.3953   -2.5991   19.3322 H   0  0  0  0  0  0  0  0  0  0  0  0
    5.0155   -4.6055   20.8640 H   0  0  0  0  0  0  0  0  0  0  0  0
    5.9557   -4.8472   19.4034 H   0  0  0  0  0  0  0  0  0  0  0  0
    8.4307   -6.5618   23.8368 H   0  0  0  0  0  0  0  0  0  0  0  0
    4.9155   -4.7332   23.0961 H   0  0  0  0  0  0  0  0  0  0  0  0
    3.7866   -6.8707   23.8722 H   0  0  0  0  0  0  0  0  0  0  0  0
    5.2574   -7.7699   23.4397 H   0  0  0  0  0  0  0  0  0  0  0  0
    4.3206   -6.9182   22.1879 H   0  0  0  0  0  0  0  0  0  0  0  0
  1  2  1  0
  2  3  1  0
  3  4  1  0
  3  5  1  0
  3  6  1  0
  2  7  1  0
  7  8  2  0
  8  9  1  0
  9 10  1  0
 10 11  2  0
 11 12  1  0
 12 13  1  0
 13 14  1  0
 14 15  2  0
 14 16  1  0
 16 17  1  0
 17 18  1  0
 16 19  1  0
 19 20  2  0
 20 21  1  0
 21 22  2  0
 22 23  1  0
 23 24  2  0
 24 25  1  0
 22 26  1  0
 21 27  1  0
 20 28  1  0
 16 29  1  0
 13 30  1  0
 12 31  1  0
 12 32  1  0
  8 33  1  0
  2 34  1  0
  1 35  1  0
  1 36  1  0
  1 37  1  0
 11  7  1  0
 24 19  1  0
M  END
>  <plip>  (1) 
-0.13333333333333333

>  <filename>  (1) 
[H][O][C]([H])([C](=[O])[N]([H])[C]([H])([H])[c]1[n][o][c]([H])[c]1[C]([H])([C]([H])([H])[H])[C]([H])([H])[H])[c]1[c]([H])[n][c]([H])[c]([H])[c]1[H]

$$$$
