
     RDKit          3D

 35 37  0  0  0  0  0  0  0  0999 V2000
    4.9224    1.8084   16.9712 H   0  0  0  0  0  0  0  0  0  0  0  0
    5.3788    1.2988   17.8193 C   0  0  0  0  0  0  0  0  0  0  0  0
    6.5447    0.6829   17.5737 N   0  0  0  0  0  0  0  0  0  0  0  0
    7.1397    0.0601   18.5995 C   0  0  0  0  0  0  0  0  0  0  0  0
    8.1011   -0.4034   18.3715 H   0  0  0  0  0  0  0  0  0  0  0  0
    6.6051   -0.0173   19.8976 C   0  0  0  0  0  0  0  0  0  0  0  0
    7.3398   -0.7419   21.0090 C   0  0  0  0  0  0  0  0  0  0  0  0
    7.3684   -1.8123   20.7827 H   0  0  0  0  0  0  0  0  0  0  0  0
    6.7882   -0.6530   21.9487 H   0  0  0  0  0  0  0  0  0  0  0  0
    8.7566   -0.3026   21.1882 C   0  0  0  0  0  0  0  0  0  0  0  0
    9.8751   -0.9978   20.8482 C   0  0  0  0  0  0  0  0  0  0  0  0
    9.8422   -1.9744   20.3935 H   0  0  0  0  0  0  0  0  0  0  0  0
   11.0193   -0.2186   21.1438 C   0  0  0  0  0  0  0  0  0  0  0  0
   12.0365   -0.5314   20.9673 H   0  0  0  0  0  0  0  0  0  0  0  0
   10.5891    0.9657   21.6618 C   0  0  0  0  0  0  0  0  0  0  0  0
   11.1268    1.8486   21.9982 H   0  0  0  0  0  0  0  0  0  0  0  0
    9.1827    0.9195   21.7158 N   0  0  0  0  0  0  0  0  0  0  0  0
    8.2212    2.2217   22.2570 S   0  0  0  0  0  0  0  0  0  0  0  0
    9.1610    3.1269   22.9030 O   0  0  0  0  0  0  0  0  0  0  0  0
    7.3581    2.6862   21.1922 O   0  0  0  0  0  0  0  0  0  0  0  0
    7.1130    1.5652   23.4989 C   0  0  0  0  0  0  0  0  0  0  0  0
    7.5826    0.6471   24.4399 C   0  0  0  0  0  0  0  0  0  0  0  0
    8.6121    0.2875   24.4345 H   0  0  0  0  0  0  0  0  0  0  0  0
    6.7085    0.1757   25.4176 C   0  0  0  0  0  0  0  0  0  0  0  0
    7.0422   -0.5386   26.1560 H   0  0  0  0  0  0  0  0  0  0  0  0
    5.3918    0.6313   25.4554 C   0  0  0  0  0  0  0  0  0  0  0  0
    4.3153    0.0292   26.6755 Cl  0  0  0  0  0  0  0  0  0  0  0  0
    4.9267    1.5646   24.5285 C   0  0  0  0  0  0  0  0  0  0  0  0
    3.9046    1.9144   24.6006 H   0  0  0  0  0  0  0  0  0  0  0  0
    5.7879    2.0391   23.5403 C   0  0  0  0  0  0  0  0  0  0  0  0
    5.4115    2.7789   22.8308 H   0  0  0  0  0  0  0  0  0  0  0  0
    5.3938    0.6326   20.1316 C   0  0  0  0  0  0  0  0  0  0  0  0
    4.9991    0.6686   21.1475 H   0  0  0  0  0  0  0  0  0  0  0  0
    4.7702    1.3072   19.0783 C   0  0  0  0  0  0  0  0  0  0  0  0
    3.8527    1.8640   19.2246 H   0  0  0  0  0  0  0  0  0  0  0  0
  1  2  1  0
  2  3  2  0
  3  4  1  0
  4  5  1  0
  4  6  2  0
  6  7  1  0
  7  8  1  0
  7  9  1  0
  7 10  1  0
 10 11  2  0
 11 12  1  0
 11 13  1  0
 13 14  1  0
 13 15  2  0
 15 16  1  0
 15 17  1  0
 17 18  1  0
 18 19  2  0
 18 20  2  0
 18 21  1  0
 21 22  2  0
 22 23  1  0
 22 24  1  0
 24 25  1  0
 24 26  2  0
 26 27  1  0
 26 28  1  0
 28 29  1  0
 28 30  2  0
 30 31  1  0
  6 32  1  0
 32 33  1  0
 32 34  2  0
 34 35  1  0
 34  2  1  0
 17 10  1  0
 30 21  1  0
M  END
>  <plip>  (1) 
-0.10714285714285714

>  <filename>  (1) 
[H][c]1[n][c]([H])[c]([C]([H])([H])[c]2[c]([H])[c]([H])[c]([H])[n]2[S](=[O])(=[O])[c]2[c]([H])[c]([H])[c]([Cl])[c]([H])[c]2[H])[c]([H])[c]1[H]

$$$$
