
     RDKit          3D

 39 41  0  0  0  0  0  0  0  0999 V2000
    5.1143    1.7593   16.9297 H   0  0  0  0  0  0  0  0  0  0  0  0
    5.5211    1.2615   17.8084 C   0  0  0  0  0  0  0  0  0  0  0  0
    6.6546    0.5687   17.6211 N   0  0  0  0  0  0  0  0  0  0  0  0
    7.1738   -0.0404   18.6952 C   0  0  0  0  0  0  0  0  0  0  0  0
    8.0946   -0.5987   18.5265 H   0  0  0  0  0  0  0  0  0  0  0  0
    6.6212   -0.0157   19.9917 C   0  0  0  0  0  0  0  0  0  0  0  0
    7.2720   -0.7873   21.1288 C   0  0  2  0  0  0  0  0  0  0  0  0
    8.2066   -1.2106   20.7420 H   0  0  0  0  0  0  0  0  0  0  0  0
    6.4104   -1.9887   21.6343 C   0  0  0  0  0  0  0  0  0  0  0  0
    6.8096   -2.9276   21.2317 H   0  0  0  0  0  0  0  0  0  0  0  0
    5.3699   -1.9143   21.2910 H   0  0  0  0  0  0  0  0  0  0  0  0
    6.4607   -1.9959   23.1036 N   0  0  0  0  0  0  0  0  0  0  0  0
    5.6052   -1.5502   23.4295 H   0  0  0  0  0  0  0  0  0  0  0  0
    7.5728   -1.1226   23.4774 C   0  0  0  0  0  0  0  0  0  0  0  0
    8.5109   -1.6952   23.4475 H   0  0  0  0  0  0  0  0  0  0  0  0
    7.4381   -0.7707   24.5061 H   0  0  0  0  0  0  0  0  0  0  0  0
    7.5945    0.0007   22.4302 C   0  0  1  0  0  0  0  0  0  0  0  0
    6.7225    0.6469   22.6296 H   0  0  0  0  0  0  0  0  0  0  0  0
    8.8428    0.9251   22.5044 C   0  0  1  0  0  0  0  0  0  0  0  0
    8.7803    1.3932   23.4970 H   0  0  0  0  0  0  0  0  0  0  0  0
   10.2161    0.2491   22.4667 C   0  0  0  0  0  0  0  0  0  0  0  0
   10.7186   -0.3852   21.3184 C   0  0  0  0  0  0  0  0  0  0  0  0
   10.1092   -0.4565   20.4204 H   0  0  0  0  0  0  0  0  0  0  0  0
   12.0263   -0.8828   21.2817 C   0  0  0  0  0  0  0  0  0  0  0  0
   12.3930   -1.3833   20.3846 H   0  0  0  0  0  0  0  0  0  0  0  0
   12.8909   -0.6706   22.3581 C   0  0  0  0  0  0  0  0  0  0  0  0
   13.9218   -1.0122   22.2710 H   0  0  0  0  0  0  0  0  0  0  0  0
   12.4176   -0.0352   23.5119 C   0  0  0  0  0  0  0  0  0  0  0  0
   13.0490    0.1114   24.3893 H   0  0  0  0  0  0  0  0  0  0  0  0
   11.0872    0.3877   23.5705 C   0  0  0  0  0  0  0  0  0  0  0  0
   10.7247    0.8529   24.4840 H   0  0  0  0  0  0  0  0  0  0  0  0
    8.7743    2.0830   21.4956 C   0  0  0  0  0  0  0  0  0  0  0  0
    8.6023    1.7378   20.4744 H   0  0  0  0  0  0  0  0  0  0  0  0
    9.7149    2.6447   21.4832 H   0  0  0  0  0  0  0  0  0  0  0  0
    7.9640    2.7704   21.7605 H   0  0  0  0  0  0  0  0  0  0  0  0
    5.4235    0.6998   20.1530 C   0  0  0  0  0  0  0  0  0  0  0  0
    4.9256    0.7444   21.1252 H   0  0  0  0  0  0  0  0  0  0  0  0
    4.8721    1.3494   19.0440 C   0  0  0  0  0  0  0  0  0  0  0  0
    3.9608    1.9309   19.1231 H   0  0  0  0  0  0  0  0  0  0  0  0
  1  2  1  0
  2  3  2  0
  3  4  1  0
  4  5  1  0
  4  6  2  0
  6  7  1  0
  7  8  1  6
  7  9  1  0
  9 10  1  0
  9 11  1  0
  9 12  1  0
 12 13  1  0
 12 14  1  0
 14 15  1  0
 14 16  1  0
 14 17  1  0
 17 18  1  1
 17 19  1  0
 19 20  1  1
 19 21  1  0
 21 22  2  0
 22 23  1  0
 22 24  1  0
 24 25  1  0
 24 26  2  0
 26 27  1  0
 26 28  1  0
 28 29  1  0
 28 30  2  0
 30 31  1  0
 19 32  1  0
 32 33  1  0
 32 34  1  0
 32 35  1  0
  6 36  1  0
 36 37  1  0
 36 38  2  0
 38 39  1  0
 38  2  1  0
 17  7  1  0
 30 21  1  0
M  END
>  <plip>  (1) 
-0.07142857142857142

>  <filename>  (1) 
[H][c]1[n][c]([H])[c]([C@]2([H])[C]([H])([H])[N]([H])[C]([H])([H])[C@@]2([H])[C@@]([H])([c]2[c]([H])[c]([H])[c]([H])[c]([H])[c]2[H])[C]([H])([H])[H])[c]([H])[c]1[H]

$$$$
