
     RDKit          3D

 32 34  0  0  0  0  0  0  0  0999 V2000
   11.0075    4.1823   23.0139 C   0  0  0  0  0  0  0  0  0  0  0  0
   10.2590    2.9642   22.7459 N   0  0  0  0  0  0  0  0  0  0  0  0
   10.6996    1.8401   22.0986 C   0  0  0  0  0  0  0  0  0  0  0  0
    9.8017    0.8981   21.9708 N   0  0  0  0  0  0  0  0  0  0  0  0
    8.6712    1.4143   22.5962 C   0  0  0  0  0  0  0  0  0  0  0  0
    7.4007    0.8354   22.8163 C   0  0  0  0  0  0  0  0  0  0  0  0
    7.1252   -0.5614   22.2995 C   0  0  0  0  0  0  0  0  0  0  0  0
    7.4406   -0.7566   20.8802 N   0  0  0  0  0  0  0  0  0  0  0  0
    6.7042   -0.0691   19.8833 C   0  0  0  0  0  0  0  0  0  0  0  0
    5.4666    0.5634   20.1145 C   0  0  0  0  0  0  0  0  0  0  0  0
    4.8474    1.2644   19.0674 C   0  0  0  0  0  0  0  0  0  0  0  0
    5.4477    1.2911   17.8076 C   0  0  0  0  0  0  0  0  0  0  0  0
    6.5911    0.6405   17.5327 N   0  0  0  0  0  0  0  0  0  0  0  0
    7.1813   -0.0162   18.5418 C   0  0  0  0  0  0  0  0  0  0  0  0
    8.1002   -0.5439   18.2838 H   0  0  0  0  0  0  0  0  0  0  0  0
    5.0094    1.8574   16.9887 H   0  0  0  0  0  0  0  0  0  0  0  0
    3.9241    1.8117   19.2270 H   0  0  0  0  0  0  0  0  0  0  0  0
    5.0022    0.5214   21.0978 H   0  0  0  0  0  0  0  0  0  0  0  0
    8.4407   -0.5665   20.7907 H   0  0  0  0  0  0  0  0  0  0  0  0
    7.7639   -1.2770   22.8363 H   0  0  0  0  0  0  0  0  0  0  0  0
    6.0900   -0.8678   22.5004 H   0  0  0  0  0  0  0  0  0  0  0  0
    6.4393    1.5981   23.4890 C   0  0  0  0  0  0  0  0  0  0  0  0
    6.7120    2.9090   23.9359 C   0  0  0  0  0  0  0  0  0  0  0  0
    7.9618    3.4843   23.7253 C   0  0  0  0  0  0  0  0  0  0  0  0
    8.9383    2.7146   23.0726 C   0  0  0  0  0  0  0  0  0  0  0  0
    8.1991    4.4870   24.0645 H   0  0  0  0  0  0  0  0  0  0  0  0
    5.9351    3.4754   24.4464 H   0  0  0  0  0  0  0  0  0  0  0  0
    5.4562    1.1710   23.6695 H   0  0  0  0  0  0  0  0  0  0  0  0
   11.7237    1.7706   21.7513 H   0  0  0  0  0  0  0  0  0  0  0  0
   12.0440    4.0493   22.6848 H   0  0  0  0  0  0  0  0  0  0  0  0
   10.5700    5.0331   22.4777 H   0  0  0  0  0  0  0  0  0  0  0  0
   11.0060    4.4133   24.0861 H   0  0  0  0  0  0  0  0  0  0  0  0
  1  2  1  0
  2  3  1  0
  3  4  2  0
  4  5  1  0
  5  6  2  0
  6  7  1  0
  7  8  1  0
  8  9  1  0
  9 10  2  0
 10 11  1  0
 11 12  2  0
 12 13  1  0
 13 14  2  0
 14 15  1  0
 12 16  1  0
 11 17  1  0
 10 18  1  0
  8 19  1  0
  7 20  1  0
  7 21  1  0
  6 22  1  0
 22 23  2  0
 23 24  1  0
 24 25  2  0
 24 26  1  0
 23 27  1  0
 22 28  1  0
  3 29  1  0
  1 30  1  0
  1 31  1  0
  1 32  1  0
 25  2  1  0
 25  5  1  0
 14  9  1  0
M  END
>  <plip>  (1) 
-0.07142857142857142

>  <filename>  (1) 
[H][c]1[n][c]([H])[c]([N]([H])[C]([H])([H])[c]2[c]([H])[c]([H])[c]([H])[c]3[c]2[n][c]([H])[n]3[C]([H])([H])[H])[c]([H])[c]1[H]

$$$$
