
     RDKit          3D

 44 45  0  0  0  0  0  0  0  0999 V2000
    3.4779   -6.7758   27.8814 C   0  0  0  0  0  0  0  0  0  0  0  0
    3.9825   -5.7964   26.9989 O   0  0  0  0  0  0  0  0  0  0  0  0
    3.5309   -5.7351   25.7129 C   0  0  0  0  0  0  0  0  0  0  0  0
    2.4449   -6.4663   25.2181 C   0  0  0  0  0  0  0  0  0  0  0  0
    1.9681   -6.2633   23.9124 C   0  0  0  0  0  0  0  0  0  0  0  0
    2.5862   -5.3336   23.0824 C   0  0  0  0  0  0  0  0  0  0  0  0
    3.7035   -4.6170   23.5435 C   0  0  0  0  0  0  0  0  0  0  0  0
    4.1903   -4.8149   24.8437 C   0  0  0  0  0  0  0  0  0  0  0  0
    5.2733   -4.1640   25.3682 O   0  0  0  0  0  0  0  0  0  0  0  0
    5.8095   -3.0443   24.6855 C   0  0  0  0  0  0  0  0  0  0  0  0
    6.8097   -3.4830   23.6055 C   0  0  0  0  0  0  0  0  0  0  0  0
    7.9972   -4.2318   24.1902 C   0  0  0  0  0  0  0  0  0  0  0  0
    8.5822   -3.5960   24.8658 H   0  0  0  0  0  0  0  0  0  0  0  0
    8.6592   -4.5813   23.3914 H   0  0  0  0  0  0  0  0  0  0  0  0
    7.6473   -5.0929   24.7671 H   0  0  0  0  0  0  0  0  0  0  0  0
    7.2715   -2.3617   22.8089 N   0  0  0  0  0  0  0  0  0  0  0  0
    6.5886   -1.8800   21.7268 C   0  0  0  0  0  0  0  0  0  0  0  0
    5.4837   -2.3024   21.4158 O   0  0  0  0  0  0  0  0  0  0  0  0
    7.2757   -0.8925   21.0025 N   0  0  0  0  0  0  0  0  0  0  0  0
    8.6355   -0.4932   21.3560 C   0  0  0  0  0  0  0  0  0  0  0  0
    8.9622    0.3119   20.6964 H   0  0  0  0  0  0  0  0  0  0  0  0
    8.6869   -0.1041   22.3835 H   0  0  0  0  0  0  0  0  0  0  0  0
    9.3445   -1.3275   21.2577 H   0  0  0  0  0  0  0  0  0  0  0  0
    6.6225   -0.1895   19.9395 C   0  0  0  0  0  0  0  0  0  0  0  0
    5.4054    0.4672   20.1611 C   0  0  0  0  0  0  0  0  0  0  0  0
    4.8564    1.2270   19.1232 C   0  0  0  0  0  0  0  0  0  0  0  0
    5.5191    1.2687   17.8907 C   0  0  0  0  0  0  0  0  0  0  0  0
    6.6733    0.6243   17.6518 N   0  0  0  0  0  0  0  0  0  0  0  0
    7.2132   -0.0702   18.6605 C   0  0  0  0  0  0  0  0  0  0  0  0
    8.1588   -0.5774   18.4641 H   0  0  0  0  0  0  0  0  0  0  0  0
    5.1110    1.8382   17.0593 H   0  0  0  0  0  0  0  0  0  0  0  0
    3.9372    1.7856   19.2633 H   0  0  0  0  0  0  0  0  0  0  0  0
    4.9327    0.3690   21.1367 H   0  0  0  0  0  0  0  0  0  0  0  0
    8.1562   -1.9419   23.0235 H   0  0  0  0  0  0  0  0  0  0  0  0
    6.2701   -4.1669   22.9417 H   0  0  0  0  0  0  0  0  0  0  0  0
    6.3118   -2.4314   25.4403 H   0  0  0  0  0  0  0  0  0  0  0  0
    5.0039   -2.4552   24.2418 H   0  0  0  0  0  0  0  0  0  0  0  0
    4.1776   -3.8809   22.8921 H   0  0  0  0  0  0  0  0  0  0  0  0
    2.1924   -5.1396   22.0875 H   0  0  0  0  0  0  0  0  0  0  0  0
    1.1004   -6.8193   23.5638 H   0  0  0  0  0  0  0  0  0  0  0  0
    1.9419   -7.1823   25.8601 H   0  0  0  0  0  0  0  0  0  0  0  0
    4.0311   -6.6423   28.8107 H   0  0  0  0  0  0  0  0  0  0  0  0
    2.4064   -6.6433   28.0898 H   0  0  0  0  0  0  0  0  0  0  0  0
    3.6562   -7.7902   27.5005 H   0  0  0  0  0  0  0  0  0  0  0  0
  1  2  1  0
  2  3  1  0
  3  4  2  0
  4  5  1  0
  5  6  2  0
  6  7  1  0
  7  8  2  0
  8  9  1  0
  9 10  1  0
 10 11  1  0
 11 12  1  0
 12 13  1  0
 12 14  1  0
 12 15  1  0
 11 16  1  0
 16 17  1  0
 17 18  2  0
 17 19  1  0
 19 20  1  0
 20 21  1  0
 20 22  1  0
 20 23  1  0
 19 24  1  0
 24 25  2  0
 25 26  1  0
 26 27  2  0
 27 28  1  0
 28 29  2  0
 29 30  1  0
 27 31  1  0
 26 32  1  0
 25 33  1  0
 16 34  1  0
 11 35  1  0
 10 36  1  0
 10 37  1  0
  7 38  1  0
  6 39  1  0
  5 40  1  0
  4 41  1  0
  1 42  1  0
  1 43  1  0
  1 44  1  0
  8  3  1  0
 29 24  1  0
M  END
>  <plip>  (1) 
-0.034482758620689655

>  <filename>  (1) 
[H][c]1[n][c]([H])[c]([N]([C](=[O])[N]([H])[C]([H])([C]([H])([H])[H])[C]([H])([H])[O][c]2[c]([H])[c]([H])[c]([H])[c]([H])[c]2[O][C]([H])([H])[H])[C]([H])([H])[H])[c]([H])[c]1[H]

$$$$
