
     RDKit          3D

 35 38  0  0  0  0  0  0  0  0999 V2000
    4.9209    1.7806   16.9966 H   0  0  0  0  0  0  0  0  0  0  0  0
    5.4046    1.2880   17.8422 C   0  0  0  0  0  0  0  0  0  0  0  0
    6.5696    0.6682   17.5972 N   0  0  0  0  0  0  0  0  0  0  0  0
    7.1841    0.0521   18.6182 C   0  0  0  0  0  0  0  0  0  0  0  0
    8.1262   -0.4374   18.3876 H   0  0  0  0  0  0  0  0  0  0  0  0
    6.6682    0.0215   19.9315 C   0  0  0  0  0  0  0  0  0  0  0  0
    7.3571   -0.7145   20.9162 O   0  0  0  0  0  0  0  0  0  0  0  0
    7.3371   -0.3219   22.2412 C   0  0  0  0  0  0  0  0  0  0  0  0
    6.9760    0.7669   22.6063 O   0  0  0  0  0  0  0  0  0  0  0  0
    7.8581   -1.4133   23.1940 C   0  0  0  0  0  0  0  0  0  0  0  0
    6.8237   -2.3132   23.7618 C   0  0  0  0  0  0  0  0  0  0  0  0
    6.1771   -2.2149   24.9663 C   0  0  0  0  0  0  0  0  0  0  0  0
    6.2947   -1.4604   25.7411 H   0  0  0  0  0  0  0  0  0  0  0  0
    5.2791   -3.2527   25.0858 N   0  0  0  0  0  0  0  0  0  0  0  0
    4.6527   -3.4211   25.8542 H   0  0  0  0  0  0  0  0  0  0  0  0
    5.3235   -4.0355   23.9578 C   0  0  0  0  0  0  0  0  0  0  0  0
    4.5909   -5.1821   23.6048 C   0  0  0  0  0  0  0  0  0  0  0  0
    3.8433   -5.5915   24.2862 H   0  0  0  0  0  0  0  0  0  0  0  0
    4.8573   -5.7543   22.3619 C   0  0  0  0  0  0  0  0  0  0  0  0
    4.3086   -6.6417   22.0547 H   0  0  0  0  0  0  0  0  0  0  0  0
    5.8364   -5.2027   21.4856 C   0  0  0  0  0  0  0  0  0  0  0  0
    6.0209   -5.6707   20.5229 H   0  0  0  0  0  0  0  0  0  0  0  0
    6.5533   -4.0709   21.8550 C   0  0  0  0  0  0  0  0  0  0  0  0
    7.2994   -3.6234   21.1993 H   0  0  0  0  0  0  0  0  0  0  0  0
    6.2891   -3.4734   23.1000 C   0  0  0  0  0  0  0  0  0  0  0  0
    9.2567   -1.9684   22.9563 C   0  0  0  0  0  0  0  0  0  0  0  0
    9.4113   -3.0192   23.1955 H   0  0  0  0  0  0  0  0  0  0  0  0
    9.8008   -1.5987   22.0910 H   0  0  0  0  0  0  0  0  0  0  0  0
    9.0164   -1.0283   24.0934 C   0  0  0  0  0  0  0  0  0  0  0  0
    9.3928   -0.0128   24.0251 H   0  0  0  0  0  0  0  0  0  0  0  0
    9.0115   -1.4390   25.0998 H   0  0  0  0  0  0  0  0  0  0  0  0
    5.4445    0.6487   20.1777 C   0  0  0  0  0  0  0  0  0  0  0  0
    5.0076    0.6334   21.1757 H   0  0  0  0  0  0  0  0  0  0  0  0
    4.8124    1.2977   19.1086 C   0  0  0  0  0  0  0  0  0  0  0  0
    3.8816    1.8343   19.2605 H   0  0  0  0  0  0  0  0  0  0  0  0
  1  2  1  0
  2  3  2  0
  3  4  1  0
  4  5  1  0
  4  6  2  0
  6  7  1  0
  7  8  1  0
  8  9  2  0
  8 10  1  0
 10 11  1  0
 11 12  2  0
 12 13  1  0
 12 14  1  0
 14 15  1  0
 14 16  1  0
 16 17  2  0
 17 18  1  0
 17 19  1  0
 19 20  1  0
 19 21  2  0
 21 22  1  0
 21 23  1  0
 23 24  1  0
 23 25  2  0
 10 26  1  0
 26 27  1  0
 26 28  1  0
 26 29  1  0
 29 30  1  0
 29 31  1  0
  6 32  1  0
 32 33  1  0
 32 34  2  0
 34 35  1  0
 34  2  1  0
 29 10  1  0
 25 11  1  0
 25 16  1  0
M  END
>  <plip>  (1) 
-0.0

>  <filename>  (1) 
[H][c]1[n][c]([H])[c]([O][C](=[O])[C]2([c]3[c]([H])[n]([H])[c]4[c]([H])[c]([H])[c]([H])[c]([H])[c]34)[C]([H])([H])[C]2([H])[H])[c]([H])[c]1[H]

$$$$
