
     RDKit          3D

 27 29  0  0  0  0  0  0  0  0999 V2000
   10.9354   -4.9671   26.6852 H   0  0  0  0  0  0  0  0  0  0  0  0
   10.4975   -4.3161   25.9334 C   0  0  0  0  0  0  0  0  0  0  0  0
    9.6289   -3.3777   26.3714 N   0  0  0  0  0  0  0  0  0  0  0  0
    9.1125   -2.5737   25.4282 C   0  0  0  0  0  0  0  0  0  0  0  0
    8.4761   -1.7620   25.7827 H   0  0  0  0  0  0  0  0  0  0  0  0
    9.3880   -2.7494   24.0342 C   0  0  0  0  0  0  0  0  0  0  0  0
    8.7254   -2.0141   22.9510 C   0  0  0  0  0  0  0  0  0  0  0  0
    9.2132   -1.9547   21.6391 C   0  0  0  0  0  0  0  0  0  0  0  0
   10.1456   -2.4439   21.3618 H   0  0  0  0  0  0  0  0  0  0  0  0
    8.5761   -1.3108   20.6747 N   0  0  0  0  0  0  0  0  0  0  0  0
    7.4121   -0.7289   20.9956 C   0  0  0  0  0  0  0  0  0  0  0  0
    6.6718   -0.0222   19.9554 C   0  0  0  0  0  0  0  0  0  0  0  0
    7.2131    0.0032   18.6692 C   0  0  0  0  0  0  0  0  0  0  0  0
    8.1617   -0.4910   18.4700 H   0  0  0  0  0  0  0  0  0  0  0  0
    6.6252    0.6175   17.6401 N   0  0  0  0  0  0  0  0  0  0  0  0
    5.4665    1.2483   17.8748 C   0  0  0  0  0  0  0  0  0  0  0  0
    5.0148    1.7550   17.0264 H   0  0  0  0  0  0  0  0  0  0  0  0
    4.8414    1.2777   19.1271 C   0  0  0  0  0  0  0  0  0  0  0  0
    3.9056    1.8128   19.2541 H   0  0  0  0  0  0  0  0  0  0  0  0
    5.4520    0.6336   20.1940 C   0  0  0  0  0  0  0  0  0  0  0  0
    5.0104    0.6388   21.1932 H   0  0  0  0  0  0  0  0  0  0  0  0
    6.8585   -0.7437   22.2107 N   0  0  0  0  0  0  0  0  0  0  0  0
    7.5107   -1.3789   23.1601 C   0  0  0  0  0  0  0  0  0  0  0  0
    7.0348   -1.3977   24.1395 H   0  0  0  0  0  0  0  0  0  0  0  0
   10.2766   -3.6697   23.6240 N   0  0  0  0  0  0  0  0  0  0  0  0
   10.8499   -4.4240   24.5788 C   0  0  0  0  0  0  0  0  0  0  0  0
   11.5867   -5.1500   24.2499 H   0  0  0  0  0  0  0  0  0  0  0  0
  1  2  1  0
  2  3  2  0
  3  4  1  0
  4  5  1  0
  4  6  2  0
  6  7  1  0
  7  8  2  0
  8  9  1  0
  8 10  1  0
 10 11  2  0
 11 12  1  0
 12 13  2  0
 13 14  1  0
 13 15  1  0
 15 16  2  0
 16 17  1  0
 16 18  1  0
 18 19  1  0
 18 20  2  0
 20 21  1  0
 11 22  1  0
 22 23  2  0
 23 24  1  0
  6 25  1  0
 25 26  2  0
 26 27  1  0
 26  2  1  0
 23  7  1  0
 20 12  1  0
M  END
>  <plip>  (1) 
-0.03571428571428571

>  <filename>  (1) 
[H][c]1[n][c]([H])[c](-[c]2[c]([H])[n][c](-[c]3[c]([H])[n][c]([H])[c]([H])[c]3[H])[n][c]2[H])[n][c]1[H]

$$$$
