
     RDKit          3D

 38 38  0  0  0  0  0  0  0  0999 V2000
    0.9363   -5.4050   25.3084 C   0  0  0  0  0  0  0  0  0  0  0  0
    1.7619   -5.7424   24.1658 N   0  0  0  0  0  0  0  0  0  0  0  0
    3.1082   -5.6794   24.2262 C   0  0  0  0  0  0  0  0  0  0  0  0
    3.7536   -5.3712   25.2075 O   0  0  0  0  0  0  0  0  0  0  0  0
    3.6204   -6.0097   23.0148 O   0  0  0  0  0  0  0  0  0  0  0  0
    5.0606   -5.9844   22.9197 C   0  0  0  0  0  0  0  0  0  0  0  0
    5.6192   -4.5683   22.7820 C   0  0  0  0  0  0  0  0  0  0  0  0
    5.0876   -3.8502   21.5423 C   0  0  0  0  0  0  0  0  0  0  0  0
    5.6079   -2.5084   21.3854 N   0  0  0  0  0  0  0  0  0  0  0  0
    6.9203   -2.2825   21.1327 C   0  0  0  0  0  0  0  0  0  0  0  0
    7.7267   -3.2010   21.0631 O   0  0  0  0  0  0  0  0  0  0  0  0
    7.3645   -0.8032   20.9973 C   0  0  0  0  0  0  0  0  0  0  0  0
    7.3512   -0.1035   22.3807 C   0  0  0  0  0  0  0  0  0  0  0  0
    8.0559   -0.5893   23.0607 H   0  0  0  0  0  0  0  0  0  0  0  0
    6.3680   -0.1345   22.8657 H   0  0  0  0  0  0  0  0  0  0  0  0
    7.6388    0.9487   22.2999 H   0  0  0  0  0  0  0  0  0  0  0  0
    6.6464    0.0045   19.9053 C   0  0  0  0  0  0  0  0  0  0  0  0
    5.4346    0.6692   20.1381 C   0  0  0  0  0  0  0  0  0  0  0  0
    4.7916    1.3256   19.0803 C   0  0  0  0  0  0  0  0  0  0  0  0
    5.3859    1.3077   17.8155 C   0  0  0  0  0  0  0  0  0  0  0  0
    6.5546    0.6967   17.5633 N   0  0  0  0  0  0  0  0  0  0  0  0
    7.1585    0.0829   18.5893 C   0  0  0  0  0  0  0  0  0  0  0  0
    8.1066   -0.3979   18.3464 H   0  0  0  0  0  0  0  0  0  0  0  0
    4.9144    1.8085   16.9693 H   0  0  0  0  0  0  0  0  0  0  0  0
    3.8541    1.8531   19.2276 H   0  0  0  0  0  0  0  0  0  0  0  0
    4.9960    0.6816   21.1374 H   0  0  0  0  0  0  0  0  0  0  0  0
    8.4043   -0.9298   20.6842 H   0  0  0  0  0  0  0  0  0  0  0  0
    5.0317   -1.7113   21.5948 H   0  0  0  0  0  0  0  0  0  0  0  0
    4.0010   -3.7817   21.6113 H   0  0  0  0  0  0  0  0  0  0  0  0
    5.3737   -4.4268   20.6491 H   0  0  0  0  0  0  0  0  0  0  0  0
    6.7111   -4.6311   22.7272 H   0  0  0  0  0  0  0  0  0  0  0  0
    5.3684   -3.9901   23.6813 H   0  0  0  0  0  0  0  0  0  0  0  0
    5.2681   -6.5988   22.0345 H   0  0  0  0  0  0  0  0  0  0  0  0
    5.4897   -6.4722   23.8039 H   0  0  0  0  0  0  0  0  0  0  0  0
    1.4215   -6.0391   23.2698 H   0  0  0  0  0  0  0  0  0  0  0  0
   -0.1191   -5.5077   25.0407 H   0  0  0  0  0  0  0  0  0  0  0  0
    1.1215   -4.3747   25.6398 H   0  0  0  0  0  0  0  0  0  0  0  0
    1.1546   -6.0587   26.1631 H   0  0  0  0  0  0  0  0  0  0  0  0
  1  2  1  0
  2  3  1  0
  3  4  2  0
  3  5  1  0
  5  6  1  0
  6  7  1  0
  7  8  1  0
  8  9  1  0
  9 10  1  0
 10 11  2  0
 10 12  1  0
 12 13  1  0
 13 14  1  0
 13 15  1  0
 13 16  1  0
 12 17  1  0
 17 18  2  0
 18 19  1  0
 19 20  2  0
 20 21  1  0
 21 22  2  0
 22 23  1  0
 20 24  1  0
 19 25  1  0
 18 26  1  0
 12 27  1  0
  9 28  1  0
  8 29  1  0
  8 30  1  0
  7 31  1  0
  7 32  1  0
  6 33  1  0
  6 34  1  0
  2 35  1  0
  1 36  1  0
  1 37  1  0
  1 38  1  0
 22 17  1  0
M  END
>  <plip>  (1) 
-0.10344827586206896

>  <filename>  (1) 
[H][c]1[n][c]([H])[c]([C]([H])([C](=[O])[N]([H])[C]([H])([H])[C]([H])([H])[C]([H])([H])[O][C](=[O])[N]([H])[C]([H])([H])[H])[C]([H])([H])[H])[c]([H])[c]1[H]

$$$$
