
     RDKit          3D

 41 43  0  0  0  0  0  0  0  0999 V2000
    8.7569    3.1728   22.8306 C   0  0  0  0  0  0  0  0  0  0  0  0
    9.7306    2.3182   22.0487 C   0  0  0  0  0  0  0  0  0  0  0  0
   11.0305    2.6417   21.9068 C   0  0  0  0  0  0  0  0  0  0  0  0
   11.7645    3.7186   22.6089 C   0  0  0  0  0  0  0  0  0  0  0  0
   12.9500    4.2273   22.0422 C   0  0  0  0  0  0  0  0  0  0  0  0
   13.6288    5.2591   22.6833 C   0  0  0  0  0  0  0  0  0  0  0  0
   13.0833    5.7631   23.8677 C   0  0  0  0  0  0  0  0  0  0  0  0
   11.9194    5.1841   24.3668 C   0  0  0  0  0  0  0  0  0  0  0  0
   11.2729    4.1840   23.7696 N   0  0  0  0  0  0  0  0  0  0  0  0
   11.4695    5.5563   25.2823 H   0  0  0  0  0  0  0  0  0  0  0  0
   13.5146    6.6000   24.3963 H   0  0  0  0  0  0  0  0  0  0  0  0
   14.5569    5.6554   22.2712 H   0  0  0  0  0  0  0  0  0  0  0  0
   13.2797    3.8416   21.0876 H   0  0  0  0  0  0  0  0  0  0  0  0
   11.6366    2.1185   21.1612 H   0  0  0  0  0  0  0  0  0  0  0  0
    9.1702    1.1190   21.3074 C   0  0  0  0  0  0  0  0  0  0  0  0
    9.5917    0.7319   20.2266 O   0  0  0  0  0  0  0  0  0  0  0  0
    8.1379    0.4870   21.9317 N   0  0  0  0  0  0  0  0  0  0  0  0
    7.3817   -0.5083   21.1976 C   0  0  0  0  0  0  0  0  0  0  0  0
    6.6262    0.1075   20.0172 C   0  0  0  0  0  0  0  0  0  0  0  0
    5.3812    0.7294   20.1821 C   0  0  0  0  0  0  0  0  0  0  0  0
    4.7740    1.3335   19.0796 C   0  0  0  0  0  0  0  0  0  0  0  0
    5.4193    1.2845   17.8404 C   0  0  0  0  0  0  0  0  0  0  0  0
    6.5983    0.6775   17.6509 N   0  0  0  0  0  0  0  0  0  0  0  0
    7.1845    0.1289   18.7230 C   0  0  0  0  0  0  0  0  0  0  0  0
    8.1708   -0.2931   18.5378 H   0  0  0  0  0  0  0  0  0  0  0  0
    4.9825    1.7572   16.9641 H   0  0  0  0  0  0  0  0  0  0  0  0
    3.8243    1.8451   19.1712 H   0  0  0  0  0  0  0  0  0  0  0  0
    4.9077    0.7470   21.1664 H   0  0  0  0  0  0  0  0  0  0  0  0
    8.3069   -1.6943   20.8237 C   0  0  0  0  0  0  0  0  0  0  0  0
    7.4699   -2.6537   21.6905 C   0  0  0  0  0  0  0  0  0  0  0  0
    6.5328   -1.4675   22.0633 C   0  0  0  0  0  0  0  0  0  0  0  0
    5.5285   -1.5908   21.6465 H   0  0  0  0  0  0  0  0  0  0  0  0
    6.4486   -1.2051   23.1252 H   0  0  0  0  0  0  0  0  0  0  0  0
    6.9676   -3.4521   21.1345 H   0  0  0  0  0  0  0  0  0  0  0  0
    8.0228   -3.1017   22.5237 H   0  0  0  0  0  0  0  0  0  0  0  0
    8.2607   -1.8327   19.7579 H   0  0  0  0  0  0  0  0  0  0  0  0
    9.3535   -1.5499   21.0995 H   0  0  0  0  0  0  0  0  0  0  0  0
    7.8034    0.8547   22.8054 H   0  0  0  0  0  0  0  0  0  0  0  0
    7.7173    2.9739   22.5514 H   0  0  0  0  0  0  0  0  0  0  0  0
    8.8662    3.0251   23.9115 H   0  0  0  0  0  0  0  0  0  0  0  0
    8.9466    4.2355   22.6422 H   0  0  0  0  0  0  0  0  0  0  0  0
  1  2  1  0
  2  3  2  3
  3  4  1  0
  4  5  2  0
  5  6  1  0
  6  7  2  0
  7  8  1  0
  8  9  2  0
  8 10  1  0
  7 11  1  0
  6 12  1  0
  5 13  1  0
  3 14  1  0
  2 15  1  0
 15 16  2  0
 15 17  1  0
 17 18  1  0
 18 19  1  0
 19 20  2  0
 20 21  1  0
 21 22  2  0
 22 23  1  0
 23 24  2  0
 24 25  1  0
 22 26  1  0
 21 27  1  0
 20 28  1  0
 18 29  1  0
 29 30  1  0
 30 31  1  0
 31 32  1  0
 31 33  1  0
 30 34  1  0
 30 35  1  0
 29 36  1  0
 29 37  1  0
 17 38  1  0
  1 39  1  0
  1 40  1  0
  1 41  1  0
  9  4  1  0
 31 18  1  0
 24 19  1  0
M  END
>  <plip>  (1) 
-0.03571428571428571

>  <filename>  (1) 
[H][C](=[C]([C](=[O])[N]([H])[C]1([c]2[c]([H])[n][c]([H])[c]([H])[c]2[H])[C]([H])([H])[C]([H])([H])[C]1([H])[H])[C]([H])([H])[H])[c]1[n][c]([H])[c]([H])[c]([H])[c]1[H]

$$$$
