
     RDKit          3D

 43 45  0  0  0  0  0  0  0  0999 V2000
    5.3763   -5.1485   22.1012 C   0  0  0  0  0  0  0  0  0  0  0  0
    6.4412   -4.2953   21.4139 C   0  0  0  0  0  0  0  0  0  0  0  0
    6.2457   -2.7803   21.5545 C   0  0  0  0  0  0  0  0  0  0  0  0
    7.4196   -2.0112   20.9415 C   0  0  0  0  0  0  0  0  0  0  0  0
    7.3223   -0.5473   21.0364 N   0  0  0  0  0  0  0  0  0  0  0  0
    7.6501    0.0106   22.2772 C   0  0  0  0  0  0  0  0  0  0  0  0
    7.8910   -0.7054   23.2403 O   0  0  0  0  0  0  0  0  0  0  0  0
    7.7424    1.4724   22.3683 C   0  0  0  0  0  0  0  0  0  0  0  0
    7.2200    2.3357   23.3484 C   0  0  0  0  0  0  0  0  0  0  0  0
    6.3467    2.2263   24.4731 C   0  0  0  0  0  0  0  0  0  0  0  0
    5.8165    0.8772   24.8528 C   0  0  0  0  0  0  0  0  0  0  0  0
    5.0056    0.9174   25.5890 H   0  0  0  0  0  0  0  0  0  0  0  0
    5.4309    0.3710   23.9628 H   0  0  0  0  0  0  0  0  0  0  0  0
    6.6100    0.2225   25.2297 H   0  0  0  0  0  0  0  0  0  0  0  0
    6.0112    3.4046   25.1376 C   0  0  0  0  0  0  0  0  0  0  0  0
    6.4967    4.6756   24.7040 C   0  0  0  0  0  0  0  0  0  0  0  0
    7.3028    4.7549   23.5966 C   0  0  0  0  0  0  0  0  0  0  0  0
    7.6408    3.5987   22.9440 N   0  0  0  0  0  0  0  0  0  0  0  0
    8.3697    3.5768   21.8133 N   0  0  0  0  0  0  0  0  0  0  0  0
    8.4186    2.3046   21.4680 C   0  0  0  0  0  0  0  0  0  0  0  0
    8.9529    2.0226   20.5724 H   0  0  0  0  0  0  0  0  0  0  0  0
    7.7006    5.6486   23.1354 H   0  0  0  0  0  0  0  0  0  0  0  0
    6.2287    5.5851   25.2309 H   0  0  0  0  0  0  0  0  0  0  0  0
    5.3440    3.3736   25.9987 H   0  0  0  0  0  0  0  0  0  0  0  0
    6.6317    0.1055   19.9513 C   0  0  0  0  0  0  0  0  0  0  0  0
    5.3925    0.7374   20.1330 C   0  0  0  0  0  0  0  0  0  0  0  0
    4.7781    1.3495   19.0321 C   0  0  0  0  0  0  0  0  0  0  0  0
    5.4200    1.3302   17.7894 C   0  0  0  0  0  0  0  0  0  0  0  0
    6.5934    0.7107   17.5851 N   0  0  0  0  0  0  0  0  0  0  0  0
    7.1622    0.1043   18.6358 C   0  0  0  0  0  0  0  0  0  0  0  0
    8.0974   -0.4155   18.4347 H   0  0  0  0  0  0  0  0  0  0  0  0
    4.9588    1.7982   16.9191 H   0  0  0  0  0  0  0  0  0  0  0  0
    3.8095    1.8279   19.1269 H   0  0  0  0  0  0  0  0  0  0  0  0
    4.9268    0.7402   21.1202 H   0  0  0  0  0  0  0  0  0  0  0  0
    8.3581   -2.3158   21.4159 H   0  0  0  0  0  0  0  0  0  0  0  0
    7.4585   -2.2124   19.8731 H   0  0  0  0  0  0  0  0  0  0  0  0
    5.3272   -2.4819   21.0402 H   0  0  0  0  0  0  0  0  0  0  0  0
    6.1354   -2.4972   22.6109 H   0  0  0  0  0  0  0  0  0  0  0  0
    7.4229   -4.5599   21.8323 H   0  0  0  0  0  0  0  0  0  0  0  0
    6.4790   -4.5589   20.3458 H   0  0  0  0  0  0  0  0  0  0  0  0
    5.3986   -5.0033   23.1880 H   0  0  0  0  0  0  0  0  0  0  0  0
    5.5643   -6.2113   21.9053 H   0  0  0  0  0  0  0  0  0  0  0  0
    4.3618   -4.9068   21.7588 H   0  0  0  0  0  0  0  0  0  0  0  0
  1  2  1  0
  2  3  1  0
  3  4  1  0
  4  5  1  0
  5  6  1  0
  6  7  2  0
  6  8  1  0
  8  9  2  0
  9 10  1  0
 10 11  1  0
 11 12  1  0
 11 13  1  0
 11 14  1  0
 10 15  2  0
 15 16  1  0
 16 17  2  0
 17 18  1  0
 18 19  1  0
 19 20  2  0
 20 21  1  0
 17 22  1  0
 16 23  1  0
 15 24  1  0
  5 25  1  0
 25 26  2  0
 26 27  1  0
 27 28  2  0
 28 29  1  0
 29 30  2  0
 30 31  1  0
 28 32  1  0
 27 33  1  0
 26 34  1  0
  4 35  1  0
  4 36  1  0
  3 37  1  0
  3 38  1  0
  2 39  1  0
  2 40  1  0
  1 41  1  0
  1 42  1  0
  1 43  1  0
 20  8  1  0
 30 25  1  0
 18  9  1  0
M  END
>  <plip>  (1) 
-0.07142857142857142

>  <filename>  (1) 
[H][c]1[n][c]([H])[c]([N]([C](=[O])[c]2[c]([H])[n][n]3[c]([H])[c]([H])[c]([H])[c]([C]([H])([H])[H])[c]23)[C]([H])([H])[C]([H])([H])[C]([H])([H])[C]([H])([H])[H])[c]([H])[c]1[H]

$$$$
