
     RDKit          3D

 32 35  0  0  0  0  0  0  0  0999 V2000
    4.8102    1.3013   19.1100 C   0  0  0  0  0  0  0  0  0  0  0  0
    5.4054    1.2897   17.8449 C   0  0  0  0  0  0  0  0  0  0  0  0
    6.5732    0.6719   17.5937 N   0  0  0  0  0  0  0  0  0  0  0  0
    7.1768    0.0392   18.6017 C   0  0  0  0  0  0  0  0  0  0  0  0
    6.6529   -0.0124   19.9052 C   0  0  0  0  0  0  0  0  0  0  0  0
    7.3731   -0.6905   20.9257 N   0  0  0  0  0  0  0  0  0  0  0  0
    7.9517   -1.8895   20.6960 N   0  0  0  0  0  0  0  0  0  0  0  0
    8.4727   -2.2515   21.8594 C   0  0  0  0  0  0  0  0  0  0  0  0
    8.2534   -1.2895   22.8570 C   0  0  0  0  0  0  0  0  0  0  0  0
    7.5448   -0.2860   22.2316 C   0  0  0  0  0  0  0  0  0  0  0  0
    7.1802    1.0304   22.7620 C   0  0  0  0  0  0  0  0  0  0  0  0
    7.6474    2.1946   22.1718 C   0  0  0  0  0  0  0  0  0  0  0  0
    7.4101    3.4425   22.6533 N   0  0  0  0  0  0  0  0  0  0  0  0
    6.6821    3.5464   23.7528 C   0  0  0  0  0  0  0  0  0  0  0  0
    6.1257    2.4351   24.4866 C   0  0  0  0  0  0  0  0  0  0  0  0
    5.3808    2.6438   25.6239 N   0  0  0  0  0  0  0  0  0  0  0  0
    4.8903    1.5816   26.2294 C   0  0  0  0  0  0  0  0  0  0  0  0
    5.0764    0.2431   25.7819 C   0  0  0  0  0  0  0  0  0  0  0  0
    5.8233    0.0174   24.6517 C   0  0  0  0  0  0  0  0  0  0  0  0
    6.3908    1.1308   23.9606 C   0  0  0  0  0  0  0  0  0  0  0  0
    5.9789   -0.9852   24.2472 H   0  0  0  0  0  0  0  0  0  0  0  0
    4.6296   -0.5826   26.3265 H   0  0  0  0  0  0  0  0  0  0  0  0
    4.2998    1.7603   27.1278 H   0  0  0  0  0  0  0  0  0  0  0  0
    6.4916    4.5397   24.1389 H   0  0  0  0  0  0  0  0  0  0  0  0
    8.2522    2.1304   21.2683 H   0  0  0  0  0  0  0  0  0  0  0  0
    8.5767   -1.2845   23.8881 H   0  0  0  0  0  0  0  0  0  0  0  0
    9.0066   -3.1877   21.9562 H   0  0  0  0  0  0  0  0  0  0  0  0
    5.4374    0.6394   20.1680 C   0  0  0  0  0  0  0  0  0  0  0  0
    5.0121    0.6373   21.1754 H   0  0  0  0  0  0  0  0  0  0  0  0
    8.1256   -0.4403   18.3782 H   0  0  0  0  0  0  0  0  0  0  0  0
    4.9213    1.7786   17.0001 H   0  0  0  0  0  0  0  0  0  0  0  0
    3.8805    1.8391   19.2612 H   0  0  0  0  0  0  0  0  0  0  0  0
  1  2  2  0
  2  3  1  0
  3  4  2  0
  4  5  1  0
  5  6  1  0
  6  7  1  0
  7  8  2  0
  8  9  1  0
  9 10  2  0
 10 11  1  0
 11 12  2  0
 12 13  1  0
 13 14  2  0
 14 15  1  0
 15 16  2  0
 16 17  1  0
 17 18  2  0
 18 19  1  0
 19 20  2  0
 19 21  1  0
 18 22  1  0
 17 23  1  0
 14 24  1  0
 12 25  1  0
  9 26  1  0
  8 27  1  0
  5 28  2  0
 28 29  1  0
  4 30  1  0
  2 31  1  0
  1 32  1  0
 28  1  1  0
 10  6  1  0
 20 11  1  0
 20 15  1  0
M  END
>  <plip>  (1) 
-0.0

>  <filename>  (1) 
[H][c]1[n][c]([H])[c](-[n]2[n][c]([H])[c]([H])[c]2-[c]2[c]([H])[n][c]([H])[c]3[n][c]([H])[c]([H])[c]([H])[c]23)[c]([H])[c]1[H]

$$$$
