
     RDKit          3D

 38 41  0  0  0  0  0  0  0  0999 V2000
   12.2840    2.2648   21.6562 C   0  0  0  0  0  0  0  0  0  0  0  0
   10.7815    2.4950   21.8390 C   0  0  0  0  0  0  0  0  0  0  0  0
    9.9009    1.3212   22.0836 C   0  0  0  0  0  0  0  0  0  0  0  0
    9.0986    0.8650   21.1466 N   0  0  0  0  0  0  0  0  0  0  0  0
    8.3384   -0.0413   21.8033 N   0  0  0  0  0  0  0  0  0  0  0  0
    7.3505   -0.8318   21.0563 C   0  0  0  0  0  0  0  0  0  0  0  0
    6.6326   -0.0605   19.9658 C   0  0  0  0  0  0  0  0  0  0  0  0
    5.4329    0.6217   20.1794 C   0  0  0  0  0  0  0  0  0  0  0  0
    4.8460    1.3016   19.1048 C   0  0  0  0  0  0  0  0  0  0  0  0
    5.4856    1.2851   17.8620 C   0  0  0  0  0  0  0  0  0  0  0  0
    6.6511    0.6554   17.6402 N   0  0  0  0  0  0  0  0  0  0  0  0
    7.2028    0.0211   18.6808 C   0  0  0  0  0  0  0  0  0  0  0  0
    8.1728   -0.4425   18.4954 H   0  0  0  0  0  0  0  0  0  0  0  0
    5.0480    1.7954   17.0032 H   0  0  0  0  0  0  0  0  0  0  0  0
    3.9122    1.8420   19.2161 H   0  0  0  0  0  0  0  0  0  0  0  0
    4.9729    0.6282   21.1714 H   0  0  0  0  0  0  0  0  0  0  0  0
    7.8745   -1.6770   20.5945 H   0  0  0  0  0  0  0  0  0  0  0  0
    6.6420   -1.2364   21.7843 H   0  0  0  0  0  0  0  0  0  0  0  0
    8.7599   -0.1204   23.1021 C   0  0  0  0  0  0  0  0  0  0  0  0
    8.2121   -0.9897   24.1578 C   0  0  0  0  0  0  0  0  0  0  0  0
    8.9598   -1.9685   24.7703 C   0  0  0  0  0  0  0  0  0  0  0  0
    8.2139   -2.6088   25.7245 N   0  0  0  0  0  0  0  0  0  0  0  0
    6.9799   -2.0505   25.7897 C   0  0  0  0  0  0  0  0  0  0  0  0
    6.0050   -2.4763   26.5949 N   0  0  0  0  0  0  0  0  0  0  0  0
    4.9095   -1.7326   26.5093 C   0  0  0  0  0  0  0  0  0  0  0  0
    4.7295   -0.6298   25.7637 N   0  0  0  0  0  0  0  0  0  0  0  0
    5.7231   -0.2748   24.9443 C   0  0  0  0  0  0  0  0  0  0  0  0
    6.9243   -0.9903   24.8669 C   0  0  0  0  0  0  0  0  0  0  0  0
    5.5360    0.5981   24.3133 H   0  0  0  0  0  0  0  0  0  0  0  0
    4.0410   -2.0460   27.0922 H   0  0  0  0  0  0  0  0  0  0  0  0
    8.4586   -3.3849   26.3153 H   0  0  0  0  0  0  0  0  0  0  0  0
   10.0012   -2.2091   24.5824 H   0  0  0  0  0  0  0  0  0  0  0  0
    9.7604    0.7267   23.2880 N   0  0  0  0  0  0  0  0  0  0  0  0
   10.5811    3.1946   22.6522 H   0  0  0  0  0  0  0  0  0  0  0  0
   10.3854    2.9295   20.9248 H   0  0  0  0  0  0  0  0  0  0  0  0
   12.4386    1.7299   20.7243 H   0  0  0  0  0  0  0  0  0  0  0  0
   12.7648    1.6980   22.4618 H   0  0  0  0  0  0  0  0  0  0  0  0
   12.8068    3.2217   21.5437 H   0  0  0  0  0  0  0  0  0  0  0  0
  1  2  1  0
  2  3  1  0
  3  4  2  0
  4  5  1  0
  5  6  1  0
  6  7  1  0
  7  8  2  0
  8  9  1  0
  9 10  2  0
 10 11  1  0
 11 12  2  0
 12 13  1  0
 10 14  1  0
  9 15  1  0
  8 16  1  0
  6 17  1  0
  6 18  1  0
  5 19  1  0
 19 20  1  0
 20 21  2  0
 21 22  1  0
 22 23  1  0
 23 24  2  0
 24 25  1  0
 25 26  2  0
 26 27  1  0
 27 28  2  0
 27 29  1  0
 25 30  1  0
 22 31  1  0
 21 32  1  0
 19 33  2  0
  2 34  1  0
  2 35  1  0
  1 36  1  0
  1 37  1  0
  1 38  1  0
 33  3  1  0
 12  7  1  0
 28 20  1  0
 28 23  1  0
M  END
>  <plip>  (1) 
-0.14285714285714285

>  <filename>  (1) 
[H][c]1[n][c]([H])[c]2[c](-[c]3[n][c]([C]([H])([H])[C]([H])([H])[H])[n][n]3[C]([H])([H])[c]3[c]([H])[n][c]([H])[c]([H])[c]3[H])[c]([H])[n]([H])[c]2[n]1

$$$$
