
     RDKit          3D

 31 33  0  0  0  0  0  0  0  0999 V2000
    4.9333    1.8544   16.8939 H   0  0  0  0  0  0  0  0  0  0  0  0
    5.3952    1.3536   17.7448 C   0  0  0  0  0  0  0  0  0  0  0  0
    6.5599    0.7345   17.5028 N   0  0  0  0  0  0  0  0  0  0  0  0
    7.1534    0.1252   18.5394 C   0  0  0  0  0  0  0  0  0  0  0  0
    8.0885   -0.3828   18.3042 H   0  0  0  0  0  0  0  0  0  0  0  0
    6.6440    0.0910   19.8500 C   0  0  0  0  0  0  0  0  0  0  0  0
    7.4001   -0.6084   20.9702 C   0  0  2  0  0  0  0  0  0  0  0  0
    8.2626   -1.1288   20.5382 H   0  0  0  0  0  0  0  0  0  0  0  0
    6.2487   -1.9035   21.6196 S   0  0  0  0  0  0  0  0  0  0  0  0
    7.3196   -2.9505   22.5616 C   0  0  0  0  0  0  0  0  0  0  0  0
    7.9164   -4.0310   21.9993 C   0  0  0  0  0  0  0  0  0  0  0  0
    7.8538   -4.3540   20.9694 H   0  0  0  0  0  0  0  0  0  0  0  0
    8.8892   -4.9392   23.0924 S   0  0  0  0  0  0  0  0  0  0  0  0
    8.6231   -3.7905   24.3628 C   0  0  0  0  0  0  0  0  0  0  0  0
    9.2848   -3.7261   25.6059 C   0  0  0  0  0  0  0  0  0  0  0  0
   10.1115   -4.3969   25.8417 H   0  0  0  0  0  0  0  0  0  0  0  0
    8.8768   -2.7488   26.5042 C   0  0  0  0  0  0  0  0  0  0  0  0
    9.4116   -2.6272   27.4322 H   0  0  0  0  0  0  0  0  0  0  0  0
    7.8245   -1.8615   26.2020 C   0  0  0  0  0  0  0  0  0  0  0  0
    7.5000   -1.1271   26.9335 H   0  0  0  0  0  0  0  0  0  0  0  0
    7.2428   -1.8827   24.9421 C   0  0  0  0  0  0  0  0  0  0  0  0
    6.5102   -1.1396   24.6525 H   0  0  0  0  0  0  0  0  0  0  0  0
    7.6666   -2.8213   23.9780 C   0  0  0  0  0  0  0  0  0  0  0  0
    7.9016    0.3195   22.0859 C   0  0  0  0  0  0  0  0  0  0  0  0
    7.0709    0.7704   22.6386 H   0  0  0  0  0  0  0  0  0  0  0  0
    8.5148   -0.2398   22.8002 H   0  0  0  0  0  0  0  0  0  0  0  0
    8.5155    1.1324   21.6827 H   0  0  0  0  0  0  0  0  0  0  0  0
    5.4118    0.7242   20.0689 C   0  0  0  0  0  0  0  0  0  0  0  0
    4.9469    0.7021   21.0575 H   0  0  0  0  0  0  0  0  0  0  0  0
    4.7793    1.3648   19.0001 C   0  0  0  0  0  0  0  0  0  0  0  0
    3.8318    1.8770   19.1306 H   0  0  0  0  0  0  0  0  0  0  0  0
  1  2  1  0
  2  3  2  0
  3  4  1  0
  4  5  1  0
  4  6  2  0
  6  7  1  0
  7  8  1  6
  7  9  1  0
  9 10  1  0
 10 11  2  0
 11 12  1  0
 11 13  1  0
 13 14  1  0
 14 15  2  0
 15 16  1  0
 15 17  1  0
 17 18  1  0
 17 19  2  0
 19 20  1  0
 19 21  1  0
 21 22  1  0
 21 23  2  0
  7 24  1  0
 24 25  1  0
 24 26  1  0
 24 27  1  0
  6 28  1  0
 28 29  1  0
 28 30  2  0
 30 31  1  0
 30  2  1  0
 23 10  1  0
 23 14  1  0
M  END
>  <plip>  (1) 
-0.03571428571428571

>  <filename>  (1) 
[H][c]1[n][c]([H])[c]([C@]([H])([S][c]2[c]([H])[s][c]3[c]([H])[c]([H])[c]([H])[c]([H])[c]23)[C]([H])([H])[H])[c]([H])[c]1[H]

$$$$
