
     RDKit          3D

 28 28  0  0  0  0  0  0  0  0999 V2000
    4.9524    1.7822   16.9803 H   0  0  0  0  0  0  0  0  0  0  0  0
    5.4184    1.2830   17.8246 C   0  0  0  0  0  0  0  0  0  0  0  0
    6.5847    0.6664   17.5705 N   0  0  0  0  0  0  0  0  0  0  0  0
    7.2051    0.0815   18.5938 C   0  0  0  0  0  0  0  0  0  0  0  0
    8.1601   -0.3966   18.3765 H   0  0  0  0  0  0  0  0  0  0  0  0
    6.6861    0.0469   19.8997 C   0  0  0  0  0  0  0  0  0  0  0  0
    7.4584   -0.6146   20.9597 C   0  0  0  0  0  0  0  0  0  0  0  0
    8.7356   -0.5442   20.9157 N   0  0  0  0  0  0  0  0  0  0  0  0
    9.4950   -1.3273   21.8463 C   0  0  0  0  0  0  0  0  0  0  0  0
    9.2864   -2.4139   21.7796 H   0  0  0  0  0  0  0  0  0  0  0  0
    9.2942   -1.0474   22.9172 H   0  0  0  0  0  0  0  0  0  0  0  0
   10.8532   -1.0785   21.4574 N   0  0  0  0  0  0  0  0  0  0  0  0
   10.7861   -0.1416   21.0897 H   0  0  0  0  0  0  0  0  0  0  0  0
   11.8361   -1.3641   22.4654 C   0  0  0  0  0  0  0  0  0  0  0  0
   11.6676   -0.8202   23.4238 H   0  0  0  0  0  0  0  0  0  0  0  0
   11.7570   -2.4428   22.6813 H   0  0  0  0  0  0  0  0  0  0  0  0
   13.2289   -1.0747   21.9404 C   0  0  0  0  0  0  0  0  0  0  0  0
   13.3463   -1.5295   20.9524 H   0  0  0  0  0  0  0  0  0  0  0  0
   13.9876   -1.4910   22.6067 H   0  0  0  0  0  0  0  0  0  0  0  0
   13.4065    0.0025   21.8707 H   0  0  0  0  0  0  0  0  0  0  0  0
    6.6991   -1.3368   22.0572 C   0  0  0  0  0  0  0  0  0  0  0  0
    6.5801   -0.6904   22.9340 H   0  0  0  0  0  0  0  0  0  0  0  0
    7.2399   -2.2288   22.3819 H   0  0  0  0  0  0  0  0  0  0  0  0
    5.7179   -1.6490   21.7054 H   0  0  0  0  0  0  0  0  0  0  0  0
    5.4501    0.6588   20.1413 C   0  0  0  0  0  0  0  0  0  0  0  0
    5.0124    0.6506   21.1419 H   0  0  0  0  0  0  0  0  0  0  0  0
    4.8163    1.3004   19.0853 C   0  0  0  0  0  0  0  0  0  0  0  0
    3.8767    1.8175   19.2218 H   0  0  0  0  0  0  0  0  0  0  0  0
  1  2  1  0
  2  3  2  0
  3  4  1  0
  4  5  1  0
  4  6  2  0
  6  7  1  0
  7  8  2  3
  8  9  1  0
  9 10  1  0
  9 11  1  0
  9 12  1  0
 12 13  1  0
 12 14  1  0
 14 15  1  0
 14 16  1  0
 14 17  1  0
 17 18  1  0
 17 19  1  0
 17 20  1  0
  7 21  1  0
 21 22  1  0
 21 23  1  0
 21 24  1  0
  6 25  1  0
 25 26  1  0
 25 27  2  0
 27 28  1  0
 27  2  1  0
M  END
>  <plip>  (1) 
-0.10714285714285714

>  <filename>  (1) 
[H][c]1[n][c]([H])[c]([C](=[N][C]([H])([H])[N]([H])[C]([H])([H])[C]([H])([H])[H])[C]([H])([H])[H])[c]([H])[c]1[H]

$$$$
