
     RDKit          3D

 40 42  0  0  0  0  0  0  0  0999 V2000
    9.0174   -1.5479   24.9585 C   0  0  0  0  0  0  0  0  0  0  0  0
    8.7515   -0.3272   24.2927 O   0  0  0  0  0  0  0  0  0  0  0  0
    7.6897    0.4541   24.6275 C   0  0  0  0  0  0  0  0  0  0  0  0
    6.9285    0.3393   25.7887 C   0  0  0  0  0  0  0  0  0  0  0  0
    5.8984    1.2616   26.0676 C   0  0  0  0  0  0  0  0  0  0  0  0
    5.6113    2.3049   25.2018 C   0  0  0  0  0  0  0  0  0  0  0  0
    6.4030    2.4454   24.0481 C   0  0  0  0  0  0  0  0  0  0  0  0
    7.4073    1.5116   23.7088 C   0  0  0  0  0  0  0  0  0  0  0  0
    8.0905    1.8687   22.4646 C   0  0  0  0  0  0  0  0  0  0  0  0
    9.0498    0.9803   21.6763 C   0  0  0  0  0  0  0  0  0  0  0  0
   10.1402    1.3926   21.3110 O   0  0  0  0  0  0  0  0  0  0  0  0
    8.6389   -0.3208   21.3536 N   0  0  0  0  0  0  0  0  0  0  0  0
    9.6480   -1.1941   20.7597 C   0  0  0  0  0  0  0  0  0  0  0  0
    9.2335   -2.1779   20.5315 H   0  0  0  0  0  0  0  0  0  0  0  0
   10.4715   -1.3384   21.4641 H   0  0  0  0  0  0  0  0  0  0  0  0
   10.0477   -0.7218   19.8586 H   0  0  0  0  0  0  0  0  0  0  0  0
    7.2403   -0.7121   21.1571 C   0  0  0  0  0  0  0  0  0  0  0  0
    6.9447   -2.4132   21.1163 C   0  0  0  0  0  0  0  0  0  0  0  0
    5.9567   -2.7184   20.4362 O   0  0  0  0  0  0  0  0  0  0  0  0
    7.7348   -3.1141   21.7724 O   0  0  0  0  0  1  0  0  0  0  0  0
    6.6066    0.0309   19.9933 C   0  0  0  0  0  0  0  0  0  0  0  0
    5.3798    0.6825   20.1687 C   0  0  0  0  0  0  0  0  0  0  0  0
    4.7909    1.3309   19.0776 C   0  0  0  0  0  0  0  0  0  0  0  0
    5.4606    1.3166   17.8496 C   0  0  0  0  0  0  0  0  0  0  0  0
    6.6461    0.7134   17.6582 N   0  0  0  0  0  0  0  0  0  0  0  0
    7.1886    0.0921   18.7182 C   0  0  0  0  0  0  0  0  0  0  0  0
    8.1451   -0.4017   18.5364 H   0  0  0  0  0  0  0  0  0  0  0  0
    5.0302    1.8116   16.9794 H   0  0  0  0  0  0  0  0  0  0  0  0
    3.8445    1.8552   19.1744 H   0  0  0  0  0  0  0  0  0  0  0  0
    4.9057    0.6865   21.1509 H   0  0  0  0  0  0  0  0  0  0  0  0
    6.6990   -0.4355   22.0671 H   0  0  0  0  0  0  0  0  0  0  0  0
    7.7183    3.1139   22.0619 C   0  0  0  0  0  0  0  0  0  0  0  0
    6.3975    3.7817   22.9426 S   0  0  0  0  0  0  0  0  0  0  0  0
    8.1922    3.7612   21.3366 H   0  0  0  0  0  0  0  0  0  0  0  0
    4.8206    3.0123   25.4326 H   0  0  0  0  0  0  0  0  0  0  0  0
    5.3432    1.1711   26.9986 H   0  0  0  0  0  0  0  0  0  0  0  0
    7.1380   -0.4549   26.4943 H   0  0  0  0  0  0  0  0  0  0  0  0
    9.4001   -1.3795   25.9745 H   0  0  0  0  0  0  0  0  0  0  0  0
    8.1304   -2.1939   24.9990 H   0  0  0  0  0  0  0  0  0  0  0  0
    9.7888   -2.0417   24.3595 H   0  0  0  0  0  0  0  0  0  0  0  0
  1  2  1  0
  2  3  1  0
  3  4  2  0
  4  5  1  0
  5  6  2  0
  6  7  1  0
  7  8  2  0
  8  9  1  0
  9 10  1  0
 10 11  2  0
 10 12  1  0
 12 13  1  0
 13 14  1  0
 13 15  1  0
 13 16  1  0
 12 17  1  0
 17 18  1  0
 18 19  2  0
 18 20  1  0
 17 21  1  0
 21 22  2  0
 22 23  1  0
 23 24  2  0
 24 25  1  0
 25 26  2  0
 26 27  1  0
 24 28  1  0
 23 29  1  0
 22 30  1  0
 17 31  1  0
  9 32  2  0
 32 33  1  0
 32 34  1  0
  6 35  1  0
  5 36  1  0
  4 37  1  0
  1 38  1  0
  1 39  1  0
  1 40  1  0
  8  3  1  0
 26 21  1  0
 33  7  1  0
M  CHG  1  20  -1
M  END
>  <plip>  (1) 
-0.10714285714285714

>  <filename>  (1) 
[H][c]1[n][c]([H])[c]([C]([H])([C](=[O])[O-])[N]([C](=[O])[c]2[c]([H])[s][c]3[c]([H])[c]([H])[c]([H])[c]([O][C]([H])([H])[H])[c]23)[C]([H])([H])[H])[c]([H])[c]1[H]

$$$$
