
     RDKit          3D

 54 58  0  0  0  0  0  0  0  0999 V2000
    6.2928   -2.9456   20.8610 C   0  0  0  0  0  0  0  0  0  0  0  0
    6.5561   -1.7507   21.6994 N   0  0  0  0  0  4  0  0  0  0  0  0
    7.1489   -2.0304   23.0533 C   0  0  0  0  0  0  0  0  0  0  0  0
    8.0753   -0.8281   23.3473 C   0  0  0  0  0  0  0  0  0  0  0  0
    7.8601    0.1827   22.2052 C   0  0  1  0  0  0  0  0  0  0  0  0
    9.0364    1.0939   21.8652 C   0  0  0  0  0  0  0  0  0  0  0  0
    9.3351    2.0487   22.9656 N   0  0  0  0  0  4  0  0  0  0  0  0
   10.2723    3.1932   22.6446 C   0  0  0  0  0  0  0  0  0  0  0  0
   10.3529    4.1553   23.8270 C   0  0  0  0  0  0  0  0  0  0  0  0
    9.2243    4.7860   24.3745 C   0  0  0  0  0  0  0  0  0  0  0  0
    9.3752    5.8124   25.3114 C   0  0  0  0  0  0  0  0  0  0  0  0
   10.6547    6.2006   25.7354 C   0  0  0  0  0  0  0  0  0  0  0  0
   11.7878    5.5741   25.2082 C   0  0  0  0  0  0  0  0  0  0  0  0
   11.6452    4.5730   24.2423 C   0  0  0  0  0  0  0  0  0  0  0  0
   12.8253    3.9477   23.5213 C   0  0  0  0  0  0  0  0  0  0  0  0
   12.5627    4.0070   21.9860 C   0  0  0  0  0  0  0  0  0  0  0  0
   11.6849    2.7302   22.1935 C   0  0  0  0  0  0  0  0  0  0  0  0
   12.6254    2.4114   23.3926 C   0  0  0  0  0  0  0  0  0  0  0  0
   13.5388    1.9086   23.0591 H   0  0  0  0  0  0  0  0  0  0  0  0
   12.2308    1.8707   24.2574 H   0  0  0  0  0  0  0  0  0  0  0  0
   11.5860    2.0033   21.3783 H   0  0  0  0  0  0  0  0  0  0  0  0
   12.0909    4.9126   21.5911 H   0  0  0  0  0  0  0  0  0  0  0  0
   13.4739    3.8248   21.4094 H   0  0  0  0  0  0  0  0  0  0  0  0
   13.7860    4.3193   23.9043 H   0  0  0  0  0  0  0  0  0  0  0  0
   12.7880    5.8698   25.5193 H   0  0  0  0  0  0  0  0  0  0  0  0
   10.7750    7.0026   26.4575 H   0  0  0  0  0  0  0  0  0  0  0  0
    8.4935    6.3086   25.7125 H   0  0  0  0  0  0  0  0  0  0  0  0
    8.2240    4.5212   24.0320 H   0  0  0  0  0  0  0  0  0  0  0  0
    9.8390    3.7417   21.8027 H   0  0  0  0  0  0  0  0  0  0  0  0
    8.4464    2.4902   23.2935 H   0  0  0  0  0  0  0  0  0  0  0  0
    9.7596    1.5684   23.8018 H   0  0  0  0  0  0  0  0  0  0  0  0
    9.9200    0.4802   21.6503 H   0  0  0  0  0  0  0  0  0  0  0  0
    8.8181    1.6458   20.9410 H   0  0  0  0  0  0  0  0  0  0  0  0
    7.4437   -0.7135   21.0327 C   0  0  2  0  0  0  0  0  0  0  0  0
    6.6947   -0.0337   19.9235 C   0  0  0  0  0  0  0  0  0  0  0  0
    5.4767    0.6376   20.1219 C   0  0  0  0  0  0  0  0  0  0  0  0
    4.8987    1.3051   19.0453 C   0  0  0  0  0  0  0  0  0  0  0  0
    5.5405    1.2562   17.8014 C   0  0  0  0  0  0  0  0  0  0  0  0
    6.6726    0.5744   17.5809 N   0  0  0  0  0  0  0  0  0  0  0  0
    7.2204   -0.0583   18.6247 C   0  0  0  0  0  0  0  0  0  0  0  0
    8.1362   -0.6162   18.4204 H   0  0  0  0  0  0  0  0  0  0  0  0
    5.1218    1.7861   16.9492 H   0  0  0  0  0  0  0  0  0  0  0  0
    3.9810    1.8711   19.1523 H   0  0  0  0  0  0  0  0  0  0  0  0
    4.9893    0.6537   21.1019 H   0  0  0  0  0  0  0  0  0  0  0  0
    8.3224   -1.2429   20.6350 H   0  0  0  0  0  0  0  0  0  0  0  0
    7.0020    0.8230   22.4462 H   0  0  0  0  0  0  0  0  0  0  0  0
    7.8718   -0.3876   24.3292 H   0  0  0  0  0  0  0  0  0  0  0  0
    9.1203   -1.1618   23.3547 H   0  0  0  0  0  0  0  0  0  0  0  0
    7.7163   -2.9671   23.0146 H   0  0  0  0  0  0  0  0  0  0  0  0
    6.3554   -2.1593   23.7969 H   0  0  0  0  0  0  0  0  0  0  0  0
    5.6600   -1.2278   21.8459 H   0  0  0  0  0  0  0  0  0  0  0  0
    5.4869   -3.5658   21.2688 H   0  0  0  0  0  0  0  0  0  0  0  0
    7.1984   -3.5663   20.7852 H   0  0  0  0  0  0  0  0  0  0  0  0
    6.0261   -2.6408   19.8451 H   0  0  0  0  0  0  0  0  0  0  0  0
  1  2  1  0
  2  3  1  0
  3  4  1  0
  4  5  1  0
  5  6  1  0
  6  7  1  0
  7  8  1  0
  8  9  1  0
  9 10  2  0
 10 11  1  0
 11 12  2  0
 12 13  1  0
 13 14  2  0
 14 15  1  0
 15 16  1  0
 16 17  1  0
 17 18  1  0
 18 19  1  0
 18 20  1  0
 17 21  1  0
 16 22  1  0
 16 23  1  0
 15 24  1  0
 13 25  1  0
 12 26  1  0
 11 27  1  0
 10 28  1  0
  8 29  1  0
  7 30  1  0
  7 31  1  0
  6 32  1  0
  6 33  1  0
  5 34  1  0
 34 35  1  0
 35 36  2  0
 36 37  1  0
 37 38  2  0
 38 39  1  0
 39 40  2  0
 40 41  1  0
 38 42  1  0
 37 43  1  0
 36 44  1  0
 34 45  1  6
  5 46  1  1
  4 47  1  0
  4 48  1  0
  3 49  1  0
  3 50  1  0
  2 51  1  0
  1 52  1  0
  1 53  1  0
  1 54  1  0
 34  2  1  0
 40 35  1  0
 17  8  1  0
 14  9  1  0
 18 15  1  0
M  CHG  2   2   1   7   1
M  END
>  <plip>  (1) 
-0.10344827586206896

>  <filename>  (1) 
[H][c]1[n][c]([H])[c]([C@@]2([H])[C@]([H])([C]([H])([H])[N+]([H])([H])[C]3([H])[c]4[c]([H])[c]([H])[c]([H])[c]([H])[c]4[C]4([H])[C]([H])([H])[C]3([H])[C]4([H])[H])[C]([H])([H])[C]([H])([H])[N+]2([H])[C]([H])([H])[H])[c]([H])[c]1[H]

$$$$
