
     RDKit          3D

 48 51  0  0  0  0  0  0  0  0999 V2000
   13.5245    7.2297   23.5777 O   0  0  0  0  0  0  0  0  0  0  0  0
   12.8203    6.1197   23.2434 C   0  0  0  0  0  0  0  0  0  0  0  0
   11.4459    6.1552   23.4916 C   0  0  0  0  0  0  0  0  0  0  0  0
   10.6578    5.0779   23.1306 C   0  0  0  0  0  0  0  0  0  0  0  0
   11.2370    3.9356   22.5279 C   0  0  0  0  0  0  0  0  0  0  0  0
   10.3380    2.8408   22.1325 C   0  0  0  0  0  0  0  0  0  0  0  0
    9.0572    2.8948   22.3076 N   0  0  0  0  0  0  0  0  0  0  0  0
    8.4046    1.7603   21.9270 N   0  0  0  0  0  0  0  0  0  0  0  0
    9.2138    0.8605   21.4614 C   0  0  0  0  0  0  0  0  0  0  0  0
    8.8004   -0.3918   21.0951 N   0  0  0  0  0  0  0  0  0  0  0  0
    7.3561   -0.6362   21.0757 C   0  0  0  0  0  0  0  0  0  0  0  0
    7.1361   -2.1437   20.9156 C   0  0  0  0  0  0  0  0  0  0  0  0
    7.6307   -2.9931   22.0842 N   0  0  0  0  0  4  0  0  0  0  0  0
    7.9508   -4.4118   21.6904 C   0  0  0  0  0  0  0  0  0  0  0  0
    6.6252   -5.1623   21.8106 C   0  0  0  0  0  0  0  0  0  0  0  0
    5.8448   -4.4300   22.9225 C   0  0  0  0  0  0  0  0  0  0  0  0
    6.5987   -3.1141   23.1891 C   0  0  0  0  0  0  0  0  0  0  0  0
    5.9530   -2.2325   23.1770 H   0  0  0  0  0  0  0  0  0  0  0  0
    7.1141   -3.1315   24.1517 H   0  0  0  0  0  0  0  0  0  0  0  0
    5.7972   -5.0179   23.8428 H   0  0  0  0  0  0  0  0  0  0  0  0
    4.8131   -4.2291   22.6207 H   0  0  0  0  0  0  0  0  0  0  0  0
    6.0822   -5.1263   20.8591 H   0  0  0  0  0  0  0  0  0  0  0  0
    6.7931   -6.2191   22.0353 H   0  0  0  0  0  0  0  0  0  0  0  0
    8.7013   -4.8123   22.3773 H   0  0  0  0  0  0  0  0  0  0  0  0
    8.3639   -4.4328   20.6779 H   0  0  0  0  0  0  0  0  0  0  0  0
    8.4801   -2.5004   22.4294 H   0  0  0  0  0  0  0  0  0  0  0  0
    7.7153   -2.3981   20.0349 H   0  0  0  0  0  0  0  0  0  0  0  0
    6.0905   -2.3663   20.7050 H   0  0  0  0  0  0  0  0  0  0  0  0
    6.6699    0.1364   19.9696 C   0  0  0  0  0  0  0  0  0  0  0  0
    5.4271    0.7657   20.1472 C   0  0  0  0  0  0  0  0  0  0  0  0
    4.8061    1.3573   19.0446 C   0  0  0  0  0  0  0  0  0  0  0  0
    5.4605    1.3197   17.8099 C   0  0  0  0  0  0  0  0  0  0  0  0
    6.6606    0.7527   17.6288 N   0  0  0  0  0  0  0  0  0  0  0  0
    7.2467    0.1976   18.6961 C   0  0  0  0  0  0  0  0  0  0  0  0
    8.2184   -0.2560   18.4968 H   0  0  0  0  0  0  0  0  0  0  0  0
    5.0034    1.7540   16.9232 H   0  0  0  0  0  0  0  0  0  0  0  0
    3.8415    1.8484   19.1217 H   0  0  0  0  0  0  0  0  0  0  0  0
    4.9577    0.8131   21.1339 H   0  0  0  0  0  0  0  0  0  0  0  0
    6.9583   -0.3187   22.0470 H   0  0  0  0  0  0  0  0  0  0  0  0
    9.3094   -0.7611   20.3060 H   0  0  0  0  0  0  0  0  0  0  0  0
   10.8884    1.3385   21.4102 S   0  0  0  0  0  0  0  0  0  0  0  0
   12.6273    3.8971   22.3135 C   0  0  0  0  0  0  0  0  0  0  0  0
   13.4152    4.9989   22.6553 C   0  0  0  0  0  0  0  0  0  0  0  0
   14.4827    4.9964   22.4526 H   0  0  0  0  0  0  0  0  0  0  0  0
   13.1001    3.0083   21.9011 H   0  0  0  0  0  0  0  0  0  0  0  0
    9.5843    5.1002   23.3086 H   0  0  0  0  0  0  0  0  0  0  0  0
   11.0224    7.0337   23.9613 H   0  0  0  0  0  0  0  0  0  0  0  0
   14.4611    6.9789   23.6417 H   0  0  0  0  0  0  0  0  0  0  0  0
  1  2  1  0
  2  3  2  0
  3  4  1  0
  4  5  2  0
  5  6  1  0
  6  7  2  0
  7  8  1  0
  8  9  2  0
  9 10  1  0
 10 11  1  0
 11 12  1  0
 12 13  1  0
 13 14  1  0
 14 15  1  0
 15 16  1  0
 16 17  1  0
 17 18  1  0
 17 19  1  0
 16 20  1  0
 16 21  1  0
 15 22  1  0
 15 23  1  0
 14 24  1  0
 14 25  1  0
 13 26  1  0
 12 27  1  0
 12 28  1  0
 11 29  1  0
 29 30  2  0
 30 31  1  0
 31 32  2  0
 32 33  1  0
 33 34  2  0
 34 35  1  0
 32 36  1  0
 31 37  1  0
 30 38  1  0
 11 39  1  0
 10 40  1  0
  9 41  1  0
  5 42  1  0
 42 43  2  0
 43 44  1  0
 42 45  1  0
  4 46  1  0
  3 47  1  0
  1 48  1  0
 43  2  1  0
 41  6  1  0
 17 13  1  0
 34 29  1  0
M  CHG  1  13   1
M  END
>  <plip>  (1) 
-0.09375

>  <filename>  (1) 
[H][O][c]1[c]([H])[c]([H])[c](-[c]2[n][n][c]([N]([H])[C]([H])([c]3[c]([H])[n][c]([H])[c]([H])[c]3[H])[C]([H])([H])[N+]3([H])[C]([H])([H])[C]([H])([H])[C]([H])([H])[C]3([H])[H])[s]2)[c]([H])[c]1[H]

$$$$
