
     RDKit          3D

 32 34  0  0  0  0  0  0  0  0999 V2000
    8.6530   -0.8165   20.8224 O   0  0  0  0  0  0  0  0  0  0  0  0
    7.4460   -0.7242   20.9504 C   0  0  0  0  0  0  0  0  0  0  0  0
    6.7614   -1.2459   22.0209 N   0  0  0  0  0  0  0  0  0  0  0  0
    7.3214   -1.5683   23.2782 C   0  0  0  0  0  0  0  0  0  0  0  0
    8.4740   -1.0264   23.7955 C   0  0  0  0  0  0  0  0  0  0  0  0
    8.6166   -1.5666   25.0271 N   0  0  0  0  0  0  0  0  0  0  0  0
    7.6424   -2.4225   25.3520 N   0  0  0  0  0  0  0  0  0  0  0  0
    6.8317   -2.4596   24.2911 C   0  0  0  0  0  0  0  0  0  0  0  0
    5.6306   -3.3302   24.2494 C   0  0  0  0  0  0  0  0  0  0  0  0
    5.2202   -3.9372   23.0451 C   0  0  0  0  0  0  0  0  0  0  0  0
    4.0784   -4.7429   23.0048 C   0  0  0  0  0  0  0  0  0  0  0  0
    3.3303   -4.9568   24.1673 C   0  0  0  0  0  0  0  0  0  0  0  0
    3.7332   -4.3696   25.3720 C   0  0  0  0  0  0  0  0  0  0  0  0
    4.8765   -3.5680   25.4156 C   0  0  0  0  0  0  0  0  0  0  0  0
    5.1922   -3.1198   26.3550 H   0  0  0  0  0  0  0  0  0  0  0  0
    3.1639   -4.5413   26.2829 H   0  0  0  0  0  0  0  0  0  0  0  0
    2.4470   -5.5901   24.1406 H   0  0  0  0  0  0  0  0  0  0  0  0
    3.7769   -5.2026   22.0681 H   0  0  0  0  0  0  0  0  0  0  0  0
    5.8080   -3.7740   22.1446 H   0  0  0  0  0  0  0  0  0  0  0  0
    9.3311   -1.3786   25.7152 H   0  0  0  0  0  0  0  0  0  0  0  0
    9.1536   -0.3192   23.3457 H   0  0  0  0  0  0  0  0  0  0  0  0
    5.7597   -1.2812   21.9370 H   0  0  0  0  0  0  0  0  0  0  0  0
    6.5997   -0.0464   19.9335 C   0  0  0  0  0  0  0  0  0  0  0  0
    5.3896    0.6241   20.1763 C   0  0  0  0  0  0  0  0  0  0  0  0
    4.7884    1.2974   19.1137 C   0  0  0  0  0  0  0  0  0  0  0  0
    5.4094    1.2740   17.8586 C   0  0  0  0  0  0  0  0  0  0  0  0
    6.5690    0.6447   17.6232 N   0  0  0  0  0  0  0  0  0  0  0  0
    7.1508    0.0213   18.6492 C   0  0  0  0  0  0  0  0  0  0  0  0
    8.1169   -0.4333   18.4428 H   0  0  0  0  0  0  0  0  0  0  0  0
    4.9651    1.7802   17.0027 H   0  0  0  0  0  0  0  0  0  0  0  0
    3.8666    1.8550   19.2392 H   0  0  0  0  0  0  0  0  0  0  0  0
    4.9439    0.6849   21.1734 H   0  0  0  0  0  0  0  0  0  0  0  0
  1  2  2  0
  2  3  1  0
  3  4  1  0
  4  5  2  0
  5  6  1  0
  6  7  1  0
  7  8  2  0
  8  9  1  0
  9 10  2  0
 10 11  1  0
 11 12  2  0
 12 13  1  0
 13 14  2  0
 14 15  1  0
 13 16  1  0
 12 17  1  0
 11 18  1  0
 10 19  1  0
  6 20  1  0
  5 21  1  0
  3 22  1  0
  2 23  1  0
 23 24  2  0
 24 25  1  0
 25 26  2  0
 26 27  1  0
 27 28  2  0
 28 29  1  0
 26 30  1  0
 25 31  1  0
 24 32  1  0
  8  4  1  0
 14  9  1  0
 28 23  1  0
M  END
>  <plip>  (1) 
-0.034482758620689655

>  <filename>  (1) 
[H][c]1[n][c]([H])[c]([C](=[O])[N]([H])[c]2[c](-[c]3[c]([H])[c]([H])[c]([H])[c]([H])[c]3[H])[n][n]([H])[c]2[H])[c]([H])[c]1[H]

$$$$
