
     RDKit          3D

 56 59  0  0  0  0  0  0  0  0999 V2000
    3.6309   -7.4699   28.5770 C   0  0  0  0  0  0  0  0  0  0  0  0
    3.0966   -6.1829   28.7625 C   0  0  0  0  0  0  0  0  0  0  0  0
    3.4301   -5.2038   27.8441 C   0  0  0  0  0  0  0  0  0  0  0  0
    4.2314   -5.5664   26.7498 C   0  0  0  0  0  0  0  0  0  0  0  0
    4.4664   -4.5715   25.8657 O   0  0  0  0  0  0  0  0  0  0  0  0
    4.9409   -4.8013   24.5906 C   0  0  0  0  0  0  0  0  0  0  0  0
    5.8228   -3.8310   24.1176 C   0  0  0  0  0  0  0  0  0  0  0  0
    6.3154   -3.9086   22.8057 C   0  0  0  0  0  0  0  0  0  0  0  0
    7.3080   -2.9082   22.2717 C   0  0  0  0  0  0  0  0  0  0  0  0
    6.6040   -1.8209   21.5443 N   0  0  0  0  0  4  0  0  0  0  0  0
    7.4025   -0.6809   20.9949 C   0  0  0  0  0  0  0  0  0  0  0  0
    7.8430    0.2992   22.1072 C   0  0  0  0  0  0  0  0  0  0  0  0
    8.8268    1.3422   21.6630 N   0  0  0  0  0  4  0  0  0  0  0  0
   10.1451    0.7925   21.1573 C   0  0  0  0  0  0  0  0  0  0  0  0
   11.1564    1.9202   21.3490 C   0  0  0  0  0  0  0  0  0  0  0  0
   10.5992    2.8042   22.4819 C   0  0  0  0  0  0  0  0  0  0  0  0
    9.1732    2.3132   22.7681 C   0  0  0  0  0  0  0  0  0  0  0  0
    8.4207    3.1067   22.8197 H   0  0  0  0  0  0  0  0  0  0  0  0
    9.1446    1.7678   23.7191 H   0  0  0  0  0  0  0  0  0  0  0  0
   10.6208    3.8565   22.1962 H   0  0  0  0  0  0  0  0  0  0  0  0
   11.1966    2.7017   23.3935 H   0  0  0  0  0  0  0  0  0  0  0  0
   11.2871    2.4951   20.4267 H   0  0  0  0  0  0  0  0  0  0  0  0
   12.1326    1.5009   21.6142 H   0  0  0  0  0  0  0  0  0  0  0  0
   10.0301    0.4788   20.1165 H   0  0  0  0  0  0  0  0  0  0  0  0
   10.4265   -0.0790   21.7620 H   0  0  0  0  0  0  0  0  0  0  0  0
    8.3769    1.8991   20.8887 H   0  0  0  0  0  0  0  0  0  0  0  0
    6.9448    0.7681   22.5285 H   0  0  0  0  0  0  0  0  0  0  0  0
    8.2957   -0.2965   22.9150 H   0  0  0  0  0  0  0  0  0  0  0  0
    6.5723   -0.0183   19.9133 C   0  0  0  0  0  0  0  0  0  0  0  0
    5.3623    0.6631   20.1329 C   0  0  0  0  0  0  0  0  0  0  0  0
    4.7611    1.3279   19.0597 C   0  0  0  0  0  0  0  0  0  0  0  0
    5.3804    1.3034   17.8081 C   0  0  0  0  0  0  0  0  0  0  0  0
    6.5226    0.6455   17.5707 N   0  0  0  0  0  0  0  0  0  0  0  0
    7.0865    0.0118   18.6067 C   0  0  0  0  0  0  0  0  0  0  0  0
    8.0229   -0.5020   18.3856 H   0  0  0  0  0  0  0  0  0  0  0  0
    4.9492    1.8473   16.9655 H   0  0  0  0  0  0  0  0  0  0  0  0
    3.8403    1.8850   19.1866 H   0  0  0  0  0  0  0  0  0  0  0  0
    4.8891    0.6910   21.1181 H   0  0  0  0  0  0  0  0  0  0  0  0
    8.3221   -1.0706   20.5391 H   0  0  0  0  0  0  0  0  0  0  0  0
    6.0569   -2.2284   20.7478 H   0  0  0  0  0  0  0  0  0  0  0  0
    5.8846   -1.4185   22.2102 H   0  0  0  0  0  0  0  0  0  0  0  0
    7.9007   -2.5162   23.1067 H   0  0  0  0  0  0  0  0  0  0  0  0
    8.0075   -3.4346   21.6123 H   0  0  0  0  0  0  0  0  0  0  0  0
    5.9184   -4.9930   22.0030 C   0  0  0  0  0  0  0  0  0  0  0  0
    5.0265   -5.9506   22.4854 C   0  0  0  0  0  0  0  0  0  0  0  0
    4.5232   -5.8646   23.7855 C   0  0  0  0  0  0  0  0  0  0  0  0
    3.8649   -6.6257   24.1902 H   0  0  0  0  0  0  0  0  0  0  0  0
    4.7340   -6.7880   21.8573 H   0  0  0  0  0  0  0  0  0  0  0  0
    6.3200   -5.0894   20.9969 H   0  0  0  0  0  0  0  0  0  0  0  0
    6.1177   -3.0439   24.8091 H   0  0  0  0  0  0  0  0  0  0  0  0
    4.7667   -6.7598   26.5710 N   0  0  0  0  0  0  0  0  0  0  0  0
    4.4884   -7.6786   27.5112 C   0  0  0  0  0  0  0  0  0  0  0  0
    4.9880   -8.6321   27.4025 H   0  0  0  0  0  0  0  0  0  0  0  0
    3.1209   -4.1699   27.9242 H   0  0  0  0  0  0  0  0  0  0  0  0
    2.4578   -5.9640   29.6166 H   0  0  0  0  0  0  0  0  0  0  0  0
    3.4094   -8.3002   29.2305 H   0  0  0  0  0  0  0  0  0  0  0  0
  1  2  2  0
  2  3  1  0
  3  4  2  0
  4  5  1  0
  5  6  1  0
  6  7  2  0
  7  8  1  0
  8  9  1  0
  9 10  1  0
 10 11  1  0
 11 12  1  0
 12 13  1  0
 13 14  1  0
 14 15  1  0
 15 16  1  0
 16 17  1  0
 17 18  1  0
 17 19  1  0
 16 20  1  0
 16 21  1  0
 15 22  1  0
 15 23  1  0
 14 24  1  0
 14 25  1  0
 13 26  1  0
 12 27  1  0
 12 28  1  0
 11 29  1  0
 29 30  2  0
 30 31  1  0
 31 32  2  0
 32 33  1  0
 33 34  2  0
 34 35  1  0
 32 36  1  0
 31 37  1  0
 30 38  1  0
 11 39  1  0
 10 40  1  0
 10 41  1  0
  9 42  1  0
  9 43  1  0
  8 44  2  0
 44 45  1  0
 45 46  2  0
 46 47  1  0
 45 48  1  0
 44 49  1  0
  7 50  1  0
  4 51  1  0
 51 52  2  0
 52 53  1  0
  3 54  1  0
  2 55  1  0
  1 56  1  0
 52  1  1  0
 46  6  1  0
 17 13  1  0
 34 29  1  0
M  CHG  2  10   1  13   1
M  END
>  <plip>  (1) 
-0.14285714285714285

>  <filename>  (1) 
[H][c]1[n][c]([O][c]2[c]([H])[c]([H])[c]([H])[c]([C]([H])([H])[N+]([H])([H])[C]([H])([c]3[c]([H])[n][c]([H])[c]([H])[c]3[H])[C]([H])([H])[N+]3([H])[C]([H])([H])[C]([H])([H])[C]([H])([H])[C]3([H])[H])[c]2[H])[c]([H])[c]([H])[c]1[H]

$$$$
