
     RDKit          3D

 39 40  0  0  0  0  0  0  0  0999 V2000
    8.7865   -6.0735   25.2757 C   0  0  0  0  0  0  0  0  0  0  0  0
    8.0809   -4.8583   25.3718 O   0  0  0  0  0  0  0  0  0  0  0  0
    6.9806   -4.6271   24.5959 C   0  0  0  0  0  0  0  0  0  0  0  0
    6.6193   -5.3989   23.4794 C   0  0  0  0  0  0  0  0  0  0  0  0
    5.5553   -4.9890   22.6634 C   0  0  0  0  0  0  0  0  0  0  0  0
    4.8168   -3.8532   22.9928 C   0  0  0  0  0  0  0  0  0  0  0  0
    5.1282   -3.1503   24.1646 C   0  0  0  0  0  0  0  0  0  0  0  0
    6.2230   -3.4925   24.9635 C   0  0  0  0  0  0  0  0  0  0  0  0
    6.6667   -2.6267   26.1238 C   0  0  0  0  0  0  0  0  0  0  0  0
    7.8733   -1.7337   25.7385 C   0  0  0  0  0  0  0  0  0  0  0  0
    7.4965   -0.6880   24.7050 C   0  0  0  0  0  0  0  0  0  0  0  0
    6.9607    0.3671   24.9940 O   0  0  0  0  0  0  0  0  0  0  0  0
    7.8108   -1.0782   23.4143 N   0  0  0  0  0  0  0  0  0  0  0  0
    7.1629   -0.4960   22.2961 N   0  0  0  0  0  0  0  0  0  0  0  0
    7.4235   -0.8146   20.9870 C   0  0  0  0  0  0  0  0  0  0  0  0
    8.1949   -1.6824   20.6171 O   0  0  0  0  0  0  0  0  0  0  0  0
    6.6425    0.0123   20.0068 C   0  0  0  0  0  0  0  0  0  0  0  0
    5.4280    0.6833   20.2295 C   0  0  0  0  0  0  0  0  0  0  0  0
    4.8244    1.3168   19.1414 C   0  0  0  0  0  0  0  0  0  0  0  0
    5.4555    1.2796   17.8927 C   0  0  0  0  0  0  0  0  0  0  0  0
    6.6172    0.6481   17.6740 N   0  0  0  0  0  0  0  0  0  0  0  0
    7.1804    0.0287   18.7139 C   0  0  0  0  0  0  0  0  0  0  0  0
    8.1138   -0.4979   18.5290 H   0  0  0  0  0  0  0  0  0  0  0  0
    5.0022    1.7645   17.0282 H   0  0  0  0  0  0  0  0  0  0  0  0
    3.8855    1.8481   19.2453 H   0  0  0  0  0  0  0  0  0  0  0  0
    4.9391    0.7066   21.2089 H   0  0  0  0  0  0  0  0  0  0  0  0
    6.8663    0.4590   22.4444 H   0  0  0  0  0  0  0  0  0  0  0  0
    7.9322   -2.0818   23.3268 H   0  0  0  0  0  0  0  0  0  0  0  0
    8.2215   -1.1976   26.6246 H   0  0  0  0  0  0  0  0  0  0  0  0
    8.6972   -2.3629   25.3818 H   0  0  0  0  0  0  0  0  0  0  0  0
    5.8333   -2.0018   26.4694 H   0  0  0  0  0  0  0  0  0  0  0  0
    6.9639   -3.2626   26.9668 H   0  0  0  0  0  0  0  0  0  0  0  0
    4.5039   -2.3248   24.4957 H   0  0  0  0  0  0  0  0  0  0  0  0
    4.0248   -3.4946   22.3429 H   0  0  0  0  0  0  0  0  0  0  0  0
    5.3025   -5.5580   21.7706 H   0  0  0  0  0  0  0  0  0  0  0  0
    7.1663   -6.3045   23.2465 H   0  0  0  0  0  0  0  0  0  0  0  0
    9.2026   -6.2431   24.2719 H   0  0  0  0  0  0  0  0  0  0  0  0
    9.6007   -5.9990   25.9969 H   0  0  0  0  0  0  0  0  0  0  0  0
    8.1504   -6.9146   25.5660 H   0  0  0  0  0  0  0  0  0  0  0  0
  1  2  1  0
  2  3  1  0
  3  4  2  0
  4  5  1  0
  5  6  2  0
  6  7  1  0
  7  8  2  0
  8  9  1  0
  9 10  1  0
 10 11  1  0
 11 12  2  0
 11 13  1  0
 13 14  1  0
 14 15  1  0
 15 16  2  0
 15 17  1  0
 17 18  2  0
 18 19  1  0
 19 20  2  0
 20 21  1  0
 21 22  2  0
 22 23  1  0
 20 24  1  0
 19 25  1  0
 18 26  1  0
 14 27  1  0
 13 28  1  0
 10 29  1  0
 10 30  1  0
  9 31  1  0
  9 32  1  0
  7 33  1  0
  6 34  1  0
  5 35  1  0
  4 36  1  0
  1 37  1  0
  1 38  1  0
  1 39  1  0
  8  3  1  0
 22 17  1  0
M  END
>  <plip>  (1) 
-0.06666666666666667

>  <filename>  (1) 
[H][c]1[n][c]([H])[c]([C](=[O])[N]([H])[N]([H])[C](=[O])[C]([H])([H])[C]([H])([H])[c]2[c]([H])[c]([H])[c]([H])[c]([H])[c]2[O][C]([H])([H])[H])[c]([H])[c]1[H]

$$$$
