
     RDKit          3D

 33 34  0  0  0  0  0  0  0  0999 V2000
    5.4840    2.1593   16.2892 H   0  0  0  0  0  0  0  0  0  0  0  0
    5.5456    1.5892   17.2148 C   0  0  0  0  0  0  0  0  0  0  0  0
    6.5089    0.6584   17.2709 N   0  0  0  0  0  0  0  0  0  0  0  0
    6.6124   -0.0481   18.4020 C   0  0  0  0  0  0  0  0  0  0  0  0
    7.3869   -0.8121   18.4319 H   0  0  0  0  0  0  0  0  0  0  0  0
    5.8000    0.1602   19.5220 C   0  0  0  0  0  0  0  0  0  0  0  0
    6.1257   -0.6231   20.7392 C   0  0  0  0  0  0  0  0  0  0  0  0
    5.8103   -2.2330   20.8365 S   0  0  0  0  0  0  0  0  0  0  0  0
    6.7624    0.1401   21.6640 N   0  0  0  0  0  0  0  0  0  0  0  0
    7.4822    0.7014   21.2304 H   0  0  0  0  0  0  0  0  0  0  0  0
    7.3699   -0.4504   22.8263 C   0  0  0  0  0  0  0  0  0  0  0  0
    6.9281   -1.4360   23.0251 H   0  0  0  0  0  0  0  0  0  0  0  0
    7.1911    0.1762   23.7146 H   0  0  0  0  0  0  0  0  0  0  0  0
    8.7817   -0.5209   22.4936 N   0  0  0  0  0  0  0  0  0  0  0  0
    9.1828    0.3965   22.6630 H   0  0  0  0  0  0  0  0  0  0  0  0
    9.5416   -1.5666   23.1831 C   0  0  0  0  0  0  0  0  0  0  0  0
    9.1187   -2.5363   22.8840 H   0  0  0  0  0  0  0  0  0  0  0  0
   10.5731   -1.5718   22.8078 H   0  0  0  0  0  0  0  0  0  0  0  0
    9.5288   -1.4570   24.7004 C   0  0  0  0  0  0  0  0  0  0  0  0
    8.5987   -2.2012   25.4537 C   0  0  0  0  0  0  0  0  0  0  0  0
    7.9877   -2.9599   24.9604 H   0  0  0  0  0  0  0  0  0  0  0  0
    8.4559   -1.9911   26.8295 C   0  0  0  0  0  0  0  0  0  0  0  0
    7.7303   -2.5683   27.4004 H   0  0  0  0  0  0  0  0  0  0  0  0
    9.2557   -1.0426   27.4734 C   0  0  0  0  0  0  0  0  0  0  0  0
    9.1477   -0.8542   28.5398 H   0  0  0  0  0  0  0  0  0  0  0  0
   10.2357   -0.3569   26.7468 C   0  0  0  0  0  0  0  0  0  0  0  0
   10.9287    0.3115   27.2422 H   0  0  0  0  0  0  0  0  0  0  0  0
   10.3745   -0.5594   25.3722 C   0  0  0  0  0  0  0  0  0  0  0  0
   11.1548   -0.0213   24.8300 H   0  0  0  0  0  0  0  0  0  0  0  0
    4.7784    1.1157   19.4479 C   0  0  0  0  0  0  0  0  0  0  0  0
    4.1126    1.3009   20.2947 H   0  0  0  0  0  0  0  0  0  0  0  0
    4.6489    1.8386   18.2612 C   0  0  0  0  0  0  0  0  0  0  0  0
    3.8783    2.5920   18.1334 H   0  0  0  0  0  0  0  0  0  0  0  0
  1  2  1  0
  2  3  2  0
  3  4  1  0
  4  5  1  0
  4  6  2  0
  6  7  1  0
  7  8  2  0
  7  9  1  0
  9 10  1  0
  9 11  1  0
 11 12  1  0
 11 13  1  0
 11 14  1  0
 14 15  1  0
 14 16  1  0
 16 17  1  0
 16 18  1  0
 16 19  1  0
 19 20  2  0
 20 21  1  0
 20 22  1  0
 22 23  1  0
 22 24  2  0
 24 25  1  0
 24 26  1  0
 26 27  1  0
 26 28  2  0
 28 29  1  0
  6 30  1  0
 30 31  1  0
 30 32  2  0
 32 33  1  0
 32  2  1  0
 28 19  1  0
M  END
>  <plip>  (1) 
-0.10344827586206896

>  <filename>  (1) 
[H][c]1[n][c]([H])[c]([C](=[S])[N]([H])[C]([H])([H])[N]([H])[C]([H])([H])[c]2[c]([H])[c]([H])[c]([H])[c]([H])[c]2[H])[c]([H])[c]1[H]

$$$$
