
     RDKit          3D

 37 39  0  0  0  0  0  0  0  0999 V2000
    9.8220   -1.3117   21.1516 C   0  0  0  0  0  0  0  0  0  0  0  0
    9.0562   -0.0273   21.4844 C   0  0  0  0  0  0  0  0  0  0  0  0
    7.6035   -0.1790   21.2600 N   0  0  0  0  0  0  0  0  0  0  0  0
    6.9694   -1.1180   22.0904 C   0  0  0  0  0  0  0  0  0  0  0  0
    7.3999   -1.3332   23.2087 O   0  0  0  0  0  0  0  0  0  0  0  0
    5.7751   -1.9027   21.4967 C   0  0  0  0  0  0  0  0  0  0  0  0
    5.3709   -3.1229   22.3782 C   0  0  0  0  0  0  0  0  0  0  0  0
    5.4170   -4.2920   21.4458 C   0  0  0  0  0  0  0  0  0  0  0  0
    5.1396   -5.6325   21.6962 C   0  0  0  0  0  0  0  0  0  0  0  0
    5.2534   -6.5120   20.6167 C   0  0  0  0  0  0  0  0  0  0  0  0
    5.5662   -6.0145   19.3516 C   0  0  0  0  0  0  0  0  0  0  0  0
    5.7888   -4.7212   19.0977 N   0  0  0  0  0  0  0  0  0  0  0  0
    5.7393   -3.9010   20.1425 C   0  0  0  0  0  0  0  0  0  0  0  0
    6.0193   -2.4430   20.0560 C   0  0  0  0  0  0  0  0  0  0  0  0
    5.4071   -1.9430   19.3006 H   0  0  0  0  0  0  0  0  0  0  0  0
    7.0491   -2.2726   19.7562 H   0  0  0  0  0  0  0  0  0  0  0  0
    5.6140   -6.6854   18.5006 H   0  0  0  0  0  0  0  0  0  0  0  0
    5.0789   -7.5666   20.7018 H   0  0  0  0  0  0  0  0  0  0  0  0
    4.8051   -5.9892   22.6722 H   0  0  0  0  0  0  0  0  0  0  0  0
    4.3644   -3.0386   22.8037 H   0  0  0  0  0  0  0  0  0  0  0  0
    6.0292   -3.2449   23.2443 H   0  0  0  0  0  0  0  0  0  0  0  0
    4.9650   -1.1842   21.3971 H   0  0  0  0  0  0  0  0  0  0  0  0
    6.9554    0.4280   20.1406 C   0  0  0  0  0  0  0  0  0  0  0  0
    5.6575    0.9457   20.2800 C   0  0  0  0  0  0  0  0  0  0  0  0
    4.9389    1.3009   19.1361 C   0  0  0  0  0  0  0  0  0  0  0  0
    5.5597    1.2078   17.8884 C   0  0  0  0  0  0  0  0  0  0  0  0
    6.8343    0.8136   17.7399 N   0  0  0  0  0  0  0  0  0  0  0  0
    7.5154    0.4651   18.8425 C   0  0  0  0  0  0  0  0  0  0  0  0
    8.5546    0.1841   18.6839 H   0  0  0  0  0  0  0  0  0  0  0  0
    5.0202    1.4646   16.9790 H   0  0  0  0  0  0  0  0  0  0  0  0
    3.9194    1.6622   19.2066 H   0  0  0  0  0  0  0  0  0  0  0  0
    5.2243    1.0603   21.2734 H   0  0  0  0  0  0  0  0  0  0  0  0
    9.3975    0.8240   20.8876 H   0  0  0  0  0  0  0  0  0  0  0  0
    9.1916    0.2327   22.5420 H   0  0  0  0  0  0  0  0  0  0  0  0
   10.8968   -1.1329   21.0609 H   0  0  0  0  0  0  0  0  0  0  0  0
    9.6805   -2.0540   21.9424 H   0  0  0  0  0  0  0  0  0  0  0  0
    9.4714   -1.7459   20.2079 H   0  0  0  0  0  0  0  0  0  0  0  0
  1  2  1  0
  2  3  1  0
  3  4  1  0
  4  5  2  0
  4  6  1  0
  6  7  1  0
  7  8  1  0
  8  9  2  0
  9 10  1  0
 10 11  2  0
 11 12  1  0
 12 13  2  0
 13 14  1  0
 14 15  1  0
 14 16  1  0
 11 17  1  0
 10 18  1  0
  9 19  1  0
  7 20  1  0
  7 21  1  0
  6 22  1  0
  3 23  1  0
 23 24  2  0
 24 25  1  0
 25 26  2  0
 26 27  1  0
 27 28  2  0
 28 29  1  0
 26 30  1  0
 25 31  1  0
 24 32  1  0
  2 33  1  0
  2 34  1  0
  1 35  1  0
  1 36  1  0
  1 37  1  0
 14  6  1  0
 28 23  1  0
 13  8  1  0
M  END
>  <plip>  (1) 
-0.1

>  <filename>  (1) 
[H][c]1[n][c]([H])[c]([N]([C](=[O])[C]2([H])[C]([H])([H])[c]3[n][c]([H])[c]([H])[c]([H])[c]3[C]2([H])[H])[C]([H])([H])[C]([H])([H])[H])[c]([H])[c]1[H]

$$$$
