
     RDKit          3D

 26 27  0  0  0  0  0  0  0  0999 V2000
    8.5633   -3.5281   23.9936 H   0  0  0  0  0  0  0  0  0  0  0  0
    8.6588   -3.5190   22.9462 N   0  0  0  0  0  0  0  0  0  0  0  0
    8.6323   -1.8684   23.0276 S   0  0  2  0  0  6  0  0  0  0  0  0
    8.4436   -1.4871   24.4497 O   0  0  0  0  0  0  0  0  0  0  0  0
    7.6123   -1.0733   21.9251 C   0  0  0  0  0  0  0  0  0  0  0  0
    7.1062   -0.5570   20.9592 C   0  0  0  0  0  0  0  0  0  0  0  0
    6.4897    0.0843   19.8419 C   0  0  0  0  0  0  0  0  0  0  0  0
    7.0850    0.0615   18.5642 C   0  0  0  0  0  0  0  0  0  0  0  0
    8.0166   -0.4784   18.3955 H   0  0  0  0  0  0  0  0  0  0  0  0
    6.5700    0.6834   17.4992 N   0  0  0  0  0  0  0  0  0  0  0  0
    5.4292    1.3712   17.6696 C   0  0  0  0  0  0  0  0  0  0  0  0
    5.0468    1.8880   16.7925 H   0  0  0  0  0  0  0  0  0  0  0  0
    4.7446    1.4372   18.8862 C   0  0  0  0  0  0  0  0  0  0  0  0
    3.8257    2.0071   18.9584 H   0  0  0  0  0  0  0  0  0  0  0  0
    5.2744    0.7761   19.9910 C   0  0  0  0  0  0  0  0  0  0  0  0
    4.7700    0.7865   20.9569 H   0  0  0  0  0  0  0  0  0  0  0  0
   10.2436   -1.4216   22.5045 C   0  0  0  0  0  0  0  0  0  0  0  0
   10.8918   -0.5495   23.3582 C   0  0  0  0  0  0  0  0  0  0  0  0
   10.3947   -0.1936   24.2535 H   0  0  0  0  0  0  0  0  0  0  0  0
   12.1450   -0.1554   23.1431 N   0  0  0  0  0  0  0  0  0  0  0  0
   12.7767   -0.6285   22.0607 C   0  0  0  0  0  0  0  0  0  0  0  0
   13.8066   -0.3051   21.9072 H   0  0  0  0  0  0  0  0  0  0  0  0
   12.1817   -1.5120   21.1509 C   0  0  0  0  0  0  0  0  0  0  0  0
   12.7369   -1.8733   20.2925 H   0  0  0  0  0  0  0  0  0  0  0  0
   10.8732   -1.9323   21.3759 C   0  0  0  0  0  0  0  0  0  0  0  0
   10.3518   -2.6195   20.7085 H   0  0  0  0  0  0  0  0  0  0  0  0
  1  2  1  0
  2  3  2  0
  3  4  2  0
  3  5  1  6
  5  6  3  0
  6  7  1  0
  7  8  2  0
  8  9  1  0
  8 10  1  0
 10 11  2  0
 11 12  1  0
 11 13  1  0
 13 14  1  0
 13 15  2  0
 15 16  1  0
  3 17  1  0
 17 18  2  0
 18 19  1  0
 18 20  1  0
 20 21  2  0
 21 22  1  0
 21 23  1  0
 23 24  1  0
 23 25  2  0
 25 26  1  0
 15  7  1  0
 25 17  1  0
M  END
>  <plip>  (1) 
-0.07142857142857142

>  <filename>  (1) 
[H][N]=[S@](=[O])([C]#[C][c]1[c]([H])[n][c]([H])[c]([H])[c]1[H])[c]1[c]([H])[n][c]([H])[c]([H])[c]1[H]

$$$$
