
     RDKit          3D

 25 26  0  0  0  0  0  0  0  0999 V2000
    4.9008    1.8195   16.9743 H   0  0  0  0  0  0  0  0  0  0  0  0
    5.3875    1.3105   17.8042 C   0  0  0  0  0  0  0  0  0  0  0  0
    6.5401    0.6830   17.5219 N   0  0  0  0  0  0  0  0  0  0  0  0
    7.1855    0.0741   18.5257 C   0  0  0  0  0  0  0  0  0  0  0  0
    8.1228   -0.4179   18.2700 H   0  0  0  0  0  0  0  0  0  0  0  0
    6.7252    0.0539   19.8660 C   0  0  0  0  0  0  0  0  0  0  0  0
    7.4159   -0.5939   20.9455 N   0  0  0  0  0  0  0  0  0  0  0  0
    8.7313   -0.3760   21.2975 C   0  0  0  0  0  0  0  0  0  0  0  0
    9.3562   -1.0222   22.2037 N   0  0  0  0  0  0  0  0  0  0  0  0
   10.6865   -0.4322   22.2977 C   0  0  0  0  0  0  0  0  0  0  0  0
   10.9422   -0.2509   23.3468 H   0  0  0  0  0  0  0  0  0  0  0  0
   11.4380   -1.1347   21.9130 H   0  0  0  0  0  0  0  0  0  0  0  0
   10.6275    0.8595   21.4542 C   0  0  0  0  0  0  0  0  0  0  0  0
   10.5505    1.7597   22.0760 H   0  0  0  0  0  0  0  0  0  0  0  0
   11.5119    0.9701   20.8252 H   0  0  0  0  0  0  0  0  0  0  0  0
    9.4262    0.6317   20.6362 N   0  0  0  0  0  0  0  0  0  0  0  0
    8.7699    1.3919   20.5077 H   0  0  0  0  0  0  0  0  0  0  0  0
    6.7158   -1.6053   21.7336 C   0  0  0  0  0  0  0  0  0  0  0  0
    7.3624   -2.4767   21.8619 H   0  0  0  0  0  0  0  0  0  0  0  0
    6.4488   -1.2473   22.7372 H   0  0  0  0  0  0  0  0  0  0  0  0
    5.8027   -1.9142   21.2167 H   0  0  0  0  0  0  0  0  0  0  0  0
    5.4866    0.6622   20.1190 C   0  0  0  0  0  0  0  0  0  0  0  0
    5.0774    0.6169   21.1281 H   0  0  0  0  0  0  0  0  0  0  0  0
    4.8143    1.3181   19.0811 C   0  0  0  0  0  0  0  0  0  0  0  0
    3.8679    1.8304   19.2451 H   0  0  0  0  0  0  0  0  0  0  0  0
  1  2  1  0
  2  3  2  0
  3  4  1  0
  4  5  1  0
  4  6  2  0
  6  7  1  0
  7  8  1  0
  8  9  2  0
  9 10  1  0
 10 11  1  0
 10 12  1  0
 10 13  1  0
 13 14  1  0
 13 15  1  0
 13 16  1  0
 16 17  1  0
  7 18  1  0
 18 19  1  0
 18 20  1  0
 18 21  1  0
  6 22  1  0
 22 23  1  0
 22 24  2  0
 24 25  1  0
 24  2  1  0
 16  8  1  0
M  END
>  <plip>  (1) 
-0.06896551724137931

>  <filename>  (1) 
[H][c]1[n][c]([H])[c]([N]([C]2=[N][C]([H])([H])[C]([H])([H])[N]2[H])[C]([H])([H])[H])[c]([H])[c]1[H]

$$$$
