
     RDKit          3D

 38 40  0  0  0  0  0  0  0  0999 V2000
    5.0241    1.8171   16.9423 H   0  0  0  0  0  0  0  0  0  0  0  0
    5.4211    1.2638   17.7936 C   0  0  0  0  0  0  0  0  0  0  0  0
    6.5545    0.5801   17.5809 N   0  0  0  0  0  0  0  0  0  0  0  0
    7.0893   -0.0764   18.6212 C   0  0  0  0  0  0  0  0  0  0  0  0
    8.0110   -0.6201   18.4181 H   0  0  0  0  0  0  0  0  0  0  0  0
    6.5365   -0.0847   19.9086 C   0  0  0  0  0  0  0  0  0  0  0  0
    7.3260   -0.6592   21.0753 C   0  0  0  0  0  0  0  0  0  0  0  0
    8.2080    0.4269   21.7678 C   0  0  0  0  0  0  0  0  0  0  0  0
    8.6884   -0.0949   22.6109 H   0  0  0  0  0  0  0  0  0  0  0  0
    7.4784    1.1316   22.1939 H   0  0  0  0  0  0  0  0  0  0  0  0
    9.1864    1.1681   20.9321 N   0  0  0  0  0  0  0  0  0  0  0  0
    9.9242    0.5224   20.6445 H   0  0  0  0  0  0  0  0  0  0  0  0
    9.8322    2.3120   21.6012 C   0  0  0  0  0  0  0  0  0  0  0  0
    9.0652    3.0405   21.9113 H   0  0  0  0  0  0  0  0  0  0  0  0
   10.4505    2.7996   20.8369 H   0  0  0  0  0  0  0  0  0  0  0  0
   10.7335    1.9483   22.7778 C   0  0  0  0  0  0  0  0  0  0  0  0
   12.0391    1.4863   22.5205 C   0  0  0  0  0  0  0  0  0  0  0  0
   12.4243    1.5229   21.5029 H   0  0  0  0  0  0  0  0  0  0  0  0
   12.8409    0.9717   23.5408 C   0  0  0  0  0  0  0  0  0  0  0  0
   13.8366    0.6009   23.3033 H   0  0  0  0  0  0  0  0  0  0  0  0
   12.3541    0.9275   24.8514 C   0  0  0  0  0  0  0  0  0  0  0  0
   12.9601    0.4902   25.6412 H   0  0  0  0  0  0  0  0  0  0  0  0
   11.0857    1.4477   25.1404 C   0  0  0  0  0  0  0  0  0  0  0  0
   10.7176    1.4285   26.1651 H   0  0  0  0  0  0  0  0  0  0  0  0
   10.2879    1.9719   24.1153 C   0  0  0  0  0  0  0  0  0  0  0  0
    9.3122    2.3925   24.3615 H   0  0  0  0  0  0  0  0  0  0  0  0
    8.0971   -1.7873   20.6792 O   0  0  0  0  0  0  0  0  0  0  0  0
    7.3547   -2.9525   21.0209 C   0  0  0  0  0  0  0  0  0  0  0  0
    6.6383   -3.2160   20.2290 H   0  0  0  0  0  0  0  0  0  0  0  0
    8.0469   -3.7854   21.1697 H   0  0  0  0  0  0  0  0  0  0  0  0
    6.6773   -2.5199   22.2995 C   0  0  0  0  0  0  0  0  0  0  0  0
    7.3433   -2.6464   23.1637 H   0  0  0  0  0  0  0  0  0  0  0  0
    5.7245   -3.0146   22.5032 H   0  0  0  0  0  0  0  0  0  0  0  0
    6.4176   -1.1482   22.0597 O   0  0  0  0  0  0  0  0  0  0  0  0
    5.3321    0.6082   20.1062 C   0  0  0  0  0  0  0  0  0  0  0  0
    4.8435    0.6157   21.0836 H   0  0  0  0  0  0  0  0  0  0  0  0
    4.7690    1.2920   19.0319 C   0  0  0  0  0  0  0  0  0  0  0  0
    3.8580    1.8679   19.1363 H   0  0  0  0  0  0  0  0  0  0  0  0
  1  2  1  0
  2  3  2  0
  3  4  1  0
  4  5  1  0
  4  6  2  0
  6  7  1  0
  7  8  1  0
  8  9  1  0
  8 10  1  0
  8 11  1  0
 11 12  1  0
 11 13  1  0
 13 14  1  0
 13 15  1  0
 13 16  1  0
 16 17  2  0
 17 18  1  0
 17 19  1  0
 19 20  1  0
 19 21  2  0
 21 22  1  0
 21 23  1  0
 23 24  1  0
 23 25  2  0
 25 26  1  0
  7 27  1  0
 27 28  1  0
 28 29  1  0
 28 30  1  0
 28 31  1  0
 31 32  1  0
 31 33  1  0
 31 34  1  0
  6 35  1  0
 35 36  1  0
 35 37  2  0
 37 38  1  0
 37  2  1  0
 34  7  1  0
 25 16  1  0
M  END
>  <plip>  (1) 
-0.0967741935483871

>  <filename>  (1) 
[H][c]1[n][c]([H])[c]([C]2([C]([H])([H])[N]([H])[C]([H])([H])[c]3[c]([H])[c]([H])[c]([H])[c]([H])[c]3[H])[O][C]([H])([H])[C]([H])([H])[O]2)[c]([H])[c]1[H]

$$$$
