
     RDKit          3D

 25 27  0  0  0  0  0  0  0  0999 V2000
    8.0859    0.8532   27.3978 H   0  0  0  0  0  0  0  0  0  0  0  0
    7.8001    0.7682   26.3551 C   0  0  0  0  0  0  0  0  0  0  0  0
    6.6068    0.6475   25.7778 C   0  0  0  0  0  0  0  0  0  0  0  0
    5.6132    0.5932   26.2089 H   0  0  0  0  0  0  0  0  0  0  0  0
    6.7684    0.6477   24.2916 C   0  0  0  0  0  0  0  0  0  0  0  0
    5.8923    0.5946   23.4679 O   0  0  0  0  0  0  0  0  0  0  0  0
    8.1536    0.7280   24.0731 N   0  0  0  0  0  0  0  0  0  0  0  0
    8.7496    1.0185   22.8497 N   0  0  0  0  0  0  0  0  0  0  0  0
    9.6725    1.9821   22.7598 N   0  0  0  0  0  0  0  0  0  0  0  0
   10.0783    2.0020   21.5492 N   0  0  0  0  0  0  0  0  0  0  0  0
    9.4374    1.0699   20.7983 N   0  0  0  0  0  0  0  0  0  0  0  0
    8.6142    0.4624   21.6169 C   0  0  0  0  0  0  0  0  0  0  0  0
    7.5399   -0.8566   21.1882 S   0  0  0  0  0  0  0  0  0  0  0  0
    6.6313   -0.0287   19.8765 C   0  0  0  0  0  0  0  0  0  0  0  0
    7.1528    0.0359   18.5678 C   0  0  0  0  0  0  0  0  0  0  0  0
    8.1230   -0.4127   18.3658 H   0  0  0  0  0  0  0  0  0  0  0  0
    6.5515    0.6723   17.5563 N   0  0  0  0  0  0  0  0  0  0  0  0
    5.3959    1.2959   17.8302 C   0  0  0  0  0  0  0  0  0  0  0  0
    4.9175    1.7933   16.9890 H   0  0  0  0  0  0  0  0  0  0  0  0
    4.8042    1.3100   19.0984 C   0  0  0  0  0  0  0  0  0  0  0  0
    3.8752    1.8459   19.2522 H   0  0  0  0  0  0  0  0  0  0  0  0
    5.4283    0.6366   20.1563 C   0  0  0  0  0  0  0  0  0  0  0  0
    5.0074    0.6338   21.1678 H   0  0  0  0  0  0  0  0  0  0  0  0
    8.8571    0.8302   25.3060 C   0  0  0  0  0  0  0  0  0  0  0  0
   10.0402    0.9349   25.4662 O   0  0  0  0  0  0  0  0  0  0  0  0
  1  2  1  0
  2  3  2  0
  3  4  1  0
  3  5  1  0
  5  6  2  0
  5  7  1  0
  7  8  1  0
  8  9  1  0
  9 10  2  0
 10 11  1  0
 11 12  2  0
 12 13  1  0
 13 14  1  0
 14 15  2  0
 15 16  1  0
 15 17  1  0
 17 18  2  0
 18 19  1  0
 18 20  1  0
 20 21  1  0
 20 22  2  0
 22 23  1  0
  7 24  1  0
 24 25  2  0
 24  2  1  0
 12  8  1  0
 22 14  1  0
M  END
>  <plip>  (1) 
-0.10714285714285714

>  <filename>  (1) 
[H][C]1=[C]([H])[C](=[O])[N]([n]2[n][n][n][c]2[S][c]2[c]([H])[n][c]([H])[c]([H])[c]2[H])[C]1=[O]

$$$$
