
     RDKit          3D

 41 42  0  0  0  0  0  0  0  0999 V2000
    8.5611   -0.1090   23.1956 C   0  0  0  0  0  0  0  0  0  0  0  0
    8.2664    0.3168   21.7875 N   0  0  0  0  0  4  0  0  0  0  0  0
    9.5542    0.6519   21.0646 C   0  0  0  0  0  0  0  0  0  0  0  0
   10.2320   -0.2092   21.0540 H   0  0  0  0  0  0  0  0  0  0  0  0
   10.0676    1.4823   21.5616 H   0  0  0  0  0  0  0  0  0  0  0  0
    9.3474    0.9252   20.0281 H   0  0  0  0  0  0  0  0  0  0  0  0
    7.3576   -0.7003   21.0544 C   0  0  0  0  0  0  0  0  0  0  0  0
    8.0458   -2.0066   20.6457 C   0  0  0  0  0  0  0  0  0  0  0  0
    8.4065   -2.9345   21.7252 N   0  0  0  0  0  0  0  0  0  0  0  0
    7.4204   -3.5537   22.4427 C   0  0  0  0  0  0  0  0  0  0  0  0
    6.2579   -3.4826   22.0793 O   0  0  0  0  0  0  0  0  0  0  0  0
    7.8249   -4.3236   23.7203 C   0  0  0  0  0  0  0  0  0  0  0  0
    8.8851   -3.8099   24.3750 N   0  0  0  0  0  0  0  0  0  0  0  0
    9.2999   -4.2962   25.5423 N   0  0  0  0  0  0  0  0  0  0  0  0
    8.6730   -5.3522   26.0735 C   0  0  0  0  0  0  0  0  0  0  0  0
    7.5701   -5.9649   25.4571 C   0  0  0  0  0  0  0  0  0  0  0  0
    7.1178   -5.4567   24.2424 C   0  0  0  0  0  0  0  0  0  0  0  0
    5.9066   -6.0181   23.4741 C   0  0  0  0  0  0  0  0  0  0  0  0
    5.4356   -7.1907   23.9292 F   0  0  0  0  0  0  0  0  0  0  0  0
    4.8746   -5.1735   23.5281 F   0  0  0  0  0  0  0  0  0  0  0  0
    6.2480   -6.2103   22.1905 F   0  0  0  0  0  0  0  0  0  0  0  0
    7.0899   -6.8103   25.9493 H   0  0  0  0  0  0  0  0  0  0  0  0
    9.0743   -5.7063   27.0149 H   0  0  0  0  0  0  0  0  0  0  0  0
    9.3611   -3.0165   22.0578 H   0  0  0  0  0  0  0  0  0  0  0  0
    8.9346   -1.7879   20.0522 H   0  0  0  0  0  0  0  0  0  0  0  0
    7.2614   -2.4717   20.0454 H   0  0  0  0  0  0  0  0  0  0  0  0
    6.6631    0.0215   19.9175 C   0  0  0  0  0  0  0  0  0  0  0  0
    5.4439    0.6687   20.1578 C   0  0  0  0  0  0  0  0  0  0  0  0
    4.8043    1.3181   19.1011 C   0  0  0  0  0  0  0  0  0  0  0  0
    5.3988    1.2986   17.8356 C   0  0  0  0  0  0  0  0  0  0  0  0
    6.5639    0.6859   17.5842 N   0  0  0  0  0  0  0  0  0  0  0  0
    7.1725    0.0717   18.6087 C   0  0  0  0  0  0  0  0  0  0  0  0
    8.1166   -0.4154   18.3579 H   0  0  0  0  0  0  0  0  0  0  0  0
    4.9234    1.7899   16.9877 H   0  0  0  0  0  0  0  0  0  0  0  0
    3.8711    1.8471   19.2459 H   0  0  0  0  0  0  0  0  0  0  0  0
    5.0090    0.6484   21.1603 H   0  0  0  0  0  0  0  0  0  0  0  0
    6.5955   -1.0008   21.7837 H   0  0  0  0  0  0  0  0  0  0  0  0
    7.6502    1.1703   21.7592 H   0  0  0  0  0  0  0  0  0  0  0  0
    7.6455   -0.4500   23.6880 H   0  0  0  0  0  0  0  0  0  0  0  0
    8.9965    0.7147   23.7696 H   0  0  0  0  0  0  0  0  0  0  0  0
    9.2626   -0.9514   23.2094 H   0  0  0  0  0  0  0  0  0  0  0  0
  1  2  1  0
  2  3  1  0
  3  4  1  0
  3  5  1  0
  3  6  1  0
  2  7  1  0
  7  8  1  0
  8  9  1  0
  9 10  1  0
 10 11  2  0
 10 12  1  0
 12 13  2  0
 13 14  1  0
 14 15  2  0
 15 16  1  0
 16 17  2  0
 17 18  1  0
 18 19  1  0
 18 20  1  0
 18 21  1  0
 16 22  1  0
 15 23  1  0
  9 24  1  0
  8 25  1  0
  8 26  1  0
  7 27  1  0
 27 28  2  0
 28 29  1  0
 29 30  2  0
 30 31  1  0
 31 32  2  0
 32 33  1  0
 30 34  1  0
 29 35  1  0
 28 36  1  0
  7 37  1  0
  2 38  1  0
  1 39  1  0
  1 40  1  0
  1 41  1  0
 17 12  1  0
 32 27  1  0
M  CHG  1   2   1
M  END
>  <plip>  (1) 
-0.10344827586206896

>  <filename>  (1) 
[H][c]1[n][c]([H])[c]([C]([H])([C]([H])([H])[N]([H])[C](=[O])[c]2[n][n][c]([H])[c]([H])[c]2[C]([F])([F])[F])[N+]([H])([C]([H])([H])[H])[C]([H])([H])[H])[c]([H])[c]1[H]

$$$$
