
     RDKit          3D

 41 41  0  0  0  0  0  0  0  0999 V2000
    7.1434    3.8233   24.9768 C   0  0  0  0  0  0  0  0  0  0  0  0
    7.8234    2.7705   25.8448 C   0  0  0  0  0  0  0  0  0  0  0  0
    8.2765    1.5354   25.0658 C   0  0  0  0  0  0  0  0  0  0  0  0
    9.4133    1.8032   24.0770 C   0  0  0  0  0  0  0  0  0  0  0  0
   10.0439    0.5467   23.4587 C   0  0  0  0  0  0  0  0  0  0  0  0
   11.2314    0.8743   22.5365 C   0  0  0  0  0  0  0  0  0  0  0  0
   12.4823    1.3442   23.2740 C   0  0  0  0  0  0  0  0  0  0  0  0
   12.7814    0.6213   24.0394 H   0  0  0  0  0  0  0  0  0  0  0  0
   12.3283    2.3057   23.7724 H   0  0  0  0  0  0  0  0  0  0  0  0
   13.3224    1.4608   22.5845 H   0  0  0  0  0  0  0  0  0  0  0  0
   10.9365    1.6432   21.8112 H   0  0  0  0  0  0  0  0  0  0  0  0
   11.4910   -0.0132   21.9434 H   0  0  0  0  0  0  0  0  0  0  0  0
    9.0355   -0.3835   22.7816 C   0  0  0  0  0  0  0  0  0  0  0  0
    8.3055    0.2415   21.6660 N   0  0  0  0  0  4  0  0  0  0  0  0
    7.3957   -0.6983   20.9891 C   0  0  0  0  0  0  0  0  0  0  0  0
    6.6670    0.0330   19.9065 C   0  0  0  0  0  0  0  0  0  0  0  0
    5.4409    0.6588   20.1566 C   0  0  0  0  0  0  0  0  0  0  0  0
    4.8032    1.3126   19.1047 C   0  0  0  0  0  0  0  0  0  0  0  0
    5.4042    1.2947   17.8403 C   0  0  0  0  0  0  0  0  0  0  0  0
    6.5705    0.6828   17.5813 N   0  0  0  0  0  0  0  0  0  0  0  0
    7.1787    0.0772   18.6058 C   0  0  0  0  0  0  0  0  0  0  0  0
    8.1170   -0.4266   18.3723 H   0  0  0  0  0  0  0  0  0  0  0  0
    4.9153    1.7790   16.9973 H   0  0  0  0  0  0  0  0  0  0  0  0
    3.8697    1.8465   19.2581 H   0  0  0  0  0  0  0  0  0  0  0  0
    5.0017    0.6312   21.1620 H   0  0  0  0  0  0  0  0  0  0  0  0
    7.9720   -1.5363   20.5764 H   0  0  0  0  0  0  0  0  0  0  0  0
    6.6784   -1.1082   21.7147 H   0  0  0  0  0  0  0  0  0  0  0  0
    7.7349    1.0563   22.0091 H   0  0  0  0  0  0  0  0  0  0  0  0
    8.9735    0.6330   20.9598 H   0  0  0  0  0  0  0  0  0  0  0  0
    8.3192   -0.7720   23.5182 H   0  0  0  0  0  0  0  0  0  0  0  0
    9.5626   -1.2720   22.4050 H   0  0  0  0  0  0  0  0  0  0  0  0
   10.4399   -0.0516   24.2930 H   0  0  0  0  0  0  0  0  0  0  0  0
    9.0671    2.4720   23.2780 H   0  0  0  0  0  0  0  0  0  0  0  0
   10.1937    2.3701   24.5992 H   0  0  0  0  0  0  0  0  0  0  0  0
    8.5927    0.7575   25.7725 H   0  0  0  0  0  0  0  0  0  0  0  0
    7.4083    1.1208   24.5368 H   0  0  0  0  0  0  0  0  0  0  0  0
    7.1367    2.4621   26.6414 H   0  0  0  0  0  0  0  0  0  0  0  0
    8.6879    3.2155   26.3517 H   0  0  0  0  0  0  0  0  0  0  0  0
    6.7471    4.6425   25.5817 H   0  0  0  0  0  0  0  0  0  0  0  0
    7.8325    4.2546   24.2448 H   0  0  0  0  0  0  0  0  0  0  0  0
    6.3092    3.3858   24.4193 H   0  0  0  0  0  0  0  0  0  0  0  0
  1  2  1  0
  2  3  1  0
  3  4  1  0
  4  5  1  0
  5  6  1  0
  6  7  1  0
  7  8  1  0
  7  9  1  0
  7 10  1  0
  6 11  1  0
  6 12  1  0
  5 13  1  0
 13 14  1  0
 14 15  1  0
 15 16  1  0
 16 17  2  0
 17 18  1  0
 18 19  2  0
 19 20  1  0
 20 21  2  0
 21 22  1  0
 19 23  1  0
 18 24  1  0
 17 25  1  0
 15 26  1  0
 15 27  1  0
 14 28  1  0
 14 29  1  0
 13 30  1  0
 13 31  1  0
  5 32  1  0
  4 33  1  0
  4 34  1  0
  3 35  1  0
  3 36  1  0
  2 37  1  0
  2 38  1  0
  1 39  1  0
  1 40  1  0
  1 41  1  0
 21 16  1  0
M  CHG  1  14   1
M  END
>  <plip>  (1) 
-0.03571428571428571

>  <filename>  (1) 
[H][c]1[n][c]([H])[c]([C]([H])([H])[N+]([H])([H])[C]([H])([H])[C]([H])([C]([H])([H])[C]([H])([H])[H])[C]([H])([H])[C]([H])([H])[C]([H])([H])[C]([H])([H])[H])[c]([H])[c]1[H]

$$$$
