
     RDKit          3D

 42 44  0  0  0  0  0  0  0  0999 V2000
   12.5306    4.4435   21.7281 C   0  0  0  0  0  0  0  0  0  0  0  0
   11.4916    3.4970   22.2142 C   0  0  0  0  0  0  0  0  0  0  0  0
   11.0458    3.4834   23.4353 N   0  0  0  0  0  0  0  0  0  0  0  0
    9.9430    2.6670   23.5605 C   0  0  0  0  0  0  0  0  0  0  0  0
    9.3032    2.4136   24.8947 C   0  0  0  0  0  0  0  0  0  0  0  0
    9.5409    1.4003   25.2401 H   0  0  0  0  0  0  0  0  0  0  0  0
    8.2097    2.4887   24.8417 H   0  0  0  0  0  0  0  0  0  0  0  0
    9.6530    3.1100   25.6554 H   0  0  0  0  0  0  0  0  0  0  0  0
    9.5296    2.0881   22.4036 C   0  0  0  0  0  0  0  0  0  0  0  0
    8.2657    1.3642   22.1208 C   0  0  0  0  0  0  0  0  0  0  0  0
    8.6155    0.0238   21.4638 N   0  0  0  0  0  4  0  0  0  0  0  0
    9.4872   -0.8309   22.4023 C   0  0  0  0  0  0  0  0  0  0  0  0
    8.6686   -1.4283   23.5488 C   0  0  0  0  0  0  0  0  0  0  0  0
    7.4748   -2.2421   23.0383 C   0  0  0  0  0  0  0  0  0  0  0  0
    6.6025   -1.3666   22.1207 C   0  0  0  0  0  0  0  0  0  0  0  0
    7.4101   -0.7937   20.9444 C   0  0  1  0  0  0  0  0  0  0  0  0
    6.6433    0.0115   19.9143 C   0  0  0  0  0  0  0  0  0  0  0  0
    5.4081    0.6469   20.1097 C   0  0  0  0  0  0  0  0  0  0  0  0
    4.8188    1.3169   19.0313 C   0  0  0  0  0  0  0  0  0  0  0  0
    5.4780    1.3380   17.7975 C   0  0  0  0  0  0  0  0  0  0  0  0
    6.6602    0.7385   17.5905 N   0  0  0  0  0  0  0  0  0  0  0  0
    7.2172    0.1144   18.6337 C   0  0  0  0  0  0  0  0  0  0  0  0
    8.1794   -0.3607   18.4400 H   0  0  0  0  0  0  0  0  0  0  0  0
    5.0427    1.8584   16.9436 H   0  0  0  0  0  0  0  0  0  0  0  0
    3.8734    1.8339   19.1349 H   0  0  0  0  0  0  0  0  0  0  0  0
    4.9146    0.6230   21.0840 H   0  0  0  0  0  0  0  0  0  0  0  0
    7.8548   -1.6436   20.4131 H   0  0  0  0  0  0  0  0  0  0  0  0
    5.7530   -1.9280   21.7280 H   0  0  0  0  0  0  0  0  0  0  0  0
    6.2067   -0.5329   22.7125 H   0  0  0  0  0  0  0  0  0  0  0  0
    6.8789   -2.6065   23.8829 H   0  0  0  0  0  0  0  0  0  0  0  0
    7.8377   -3.1231   22.4910 H   0  0  0  0  0  0  0  0  0  0  0  0
    8.2871   -0.6030   24.1651 H   0  0  0  0  0  0  0  0  0  0  0  0
    9.3347   -2.0233   24.1796 H   0  0  0  0  0  0  0  0  0  0  0  0
   10.2876   -0.1972   22.7957 H   0  0  0  0  0  0  0  0  0  0  0  0
    9.9492   -1.6205   21.8006 H   0  0  0  0  0  0  0  0  0  0  0  0
    9.1848    0.3020   20.6371 H   0  0  0  0  0  0  0  0  0  0  0  0
    7.6112    1.9412   21.4576 H   0  0  0  0  0  0  0  0  0  0  0  0
    7.7046    1.1783   23.0394 H   0  0  0  0  0  0  0  0  0  0  0  0
   10.6925    2.3730   21.1495 S   0  0  0  0  0  0  0  0  0  0  0  0
   13.5006    3.9549   21.5937 H   0  0  0  0  0  0  0  0  0  0  0  0
   12.2258    4.8841   20.7747 H   0  0  0  0  0  0  0  0  0  0  0  0
   12.6195    5.2244   22.4840 H   0  0  0  0  0  0  0  0  0  0  0  0
  1  2  1  0
  2  3  2  0
  3  4  1  0
  4  5  1  0
  5  6  1  0
  5  7  1  0
  5  8  1  0
  4  9  2  0
  9 10  1  0
 10 11  1  0
 11 12  1  0
 12 13  1  0
 13 14  1  0
 14 15  1  0
 15 16  1  0
 16 17  1  0
 17 18  2  0
 18 19  1  0
 19 20  2  0
 20 21  1  0
 21 22  2  0
 22 23  1  0
 20 24  1  0
 19 25  1  0
 18 26  1  0
 16 27  1  6
 15 28  1  0
 15 29  1  0
 14 30  1  0
 14 31  1  0
 13 32  1  0
 13 33  1  0
 12 34  1  0
 12 35  1  0
 11 36  1  0
 10 37  1  0
 10 38  1  0
  9 39  1  0
  1 40  1  0
  1 41  1  0
  1 42  1  0
 39  2  1  0
 16 11  1  0
 22 17  1  0
M  CHG  1  11   1
M  END
>  <plip>  (1) 
-0.10344827586206896

>  <filename>  (1) 
[H][c]1[n][c]([H])[c]([C@]2([H])[C]([H])([H])[C]([H])([H])[C]([H])([H])[C]([H])([H])[N+]2([H])[C]([H])([H])[c]2[s][c]([C]([H])([H])[H])[n][c]2[C]([H])([H])[H])[c]([H])[c]1[H]

$$$$
