
     RDKit          3D

 41 43  0  0  0  0  0  0  0  0999 V2000
    8.9935    2.2055   22.5659 C   0  0  0  0  0  0  0  0  0  0  0  0
    8.6166    1.2125   21.6389 O   0  0  0  0  0  0  0  0  0  0  0  0
    7.7992    0.1925   22.1783 C   0  0  0  0  0  0  0  0  0  0  0  0
    7.3713   -0.7644   21.0323 C   0  0  1  0  0  0  0  0  0  0  0  0
    6.5967   -1.9080   21.5202 N   0  0  0  0  0  0  0  0  0  0  0  0
    7.1475   -2.9406   22.2121 C   0  0  0  0  0  0  0  0  0  0  0  0
    8.3628   -3.0215   22.3788 O   0  0  0  0  0  0  0  0  0  0  0  0
    6.2254   -3.9769   22.7766 C   0  0  0  0  0  0  0  0  0  0  0  0
    6.5914   -4.9999   23.6058 C   0  0  0  0  0  0  0  0  0  0  0  0
    7.9938   -5.4138   23.9392 C   0  0  0  0  0  0  0  0  0  0  0  0
    8.5092   -4.6180   24.4822 H   0  0  0  0  0  0  0  0  0  0  0  0
    8.0470   -6.3360   24.5228 H   0  0  0  0  0  0  0  0  0  0  0  0
    8.5487   -5.5516   23.0067 H   0  0  0  0  0  0  0  0  0  0  0  0
    5.3635   -5.6440   23.9814 C   0  0  0  0  0  0  0  0  0  0  0  0
    5.0637   -6.7094   24.8511 C   0  0  0  0  0  0  0  0  0  0  0  0
    3.7706   -7.2045   24.8664 C   0  0  0  0  0  0  0  0  0  0  0  0
    2.7557   -6.6144   24.0846 C   0  0  0  0  0  0  0  0  0  0  0  0
    3.0120   -5.4943   23.2888 C   0  0  0  0  0  0  0  0  0  0  0  0
    1.7179   -4.8022   22.3555 Cl  0  0  0  0  0  0  0  0  0  0  0  0
    4.3354   -5.0147   23.2489 C   0  0  0  0  0  0  0  0  0  0  0  0
    4.8523   -3.9848   22.5334 O   0  0  0  0  0  0  0  0  0  0  0  0
    1.7495   -7.0161   24.1048 H   0  0  0  0  0  0  0  0  0  0  0  0
    3.5404   -8.0682   25.4807 H   0  0  0  0  0  0  0  0  0  0  0  0
    5.8284   -7.0983   25.5202 H   0  0  0  0  0  0  0  0  0  0  0  0
    5.5919   -1.8748   21.4628 H   0  0  0  0  0  0  0  0  0  0  0  0
    6.6020   -0.0652   19.9262 C   0  0  0  0  0  0  0  0  0  0  0  0
    5.3955    0.6165   20.1471 C   0  0  0  0  0  0  0  0  0  0  0  0
    4.7956    1.2909   19.0805 C   0  0  0  0  0  0  0  0  0  0  0  0
    5.4173    1.2711   17.8281 C   0  0  0  0  0  0  0  0  0  0  0  0
    6.5647    0.6191   17.5878 N   0  0  0  0  0  0  0  0  0  0  0  0
    7.1284   -0.0168   18.6245 C   0  0  0  0  0  0  0  0  0  0  0  0
    8.0743   -0.5134   18.4023 H   0  0  0  0  0  0  0  0  0  0  0  0
    4.9794    1.8049   16.9851 H   0  0  0  0  0  0  0  0  0  0  0  0
    3.8703    1.8408   19.2088 H   0  0  0  0  0  0  0  0  0  0  0  0
    4.9387    0.6435   21.1406 H   0  0  0  0  0  0  0  0  0  0  0  0
    8.3141   -1.1377   20.6157 H   0  0  0  0  0  0  0  0  0  0  0  0
    6.9041    0.6079   22.6734 H   0  0  0  0  0  0  0  0  0  0  0  0
    8.3470   -0.4036   22.9248 H   0  0  0  0  0  0  0  0  0  0  0  0
    9.5940    1.7987   23.3951 H   0  0  0  0  0  0  0  0  0  0  0  0
    9.6013    2.9381   22.0271 H   0  0  0  0  0  0  0  0  0  0  0  0
    8.1229    2.7254   22.9972 H   0  0  0  0  0  0  0  0  0  0  0  0
  1  2  1  0
  2  3  1  0
  3  4  1  0
  4  5  1  0
  5  6  1  0
  6  7  2  0
  6  8  1  0
  8  9  2  0
  9 10  1  0
 10 11  1  0
 10 12  1  0
 10 13  1  0
  9 14  1  0
 14 15  2  0
 15 16  1  0
 16 17  2  0
 17 18  1  0
 18 19  1  0
 18 20  2  0
 20 21  1  0
 17 22  1  0
 16 23  1  0
 15 24  1  0
  5 25  1  0
  4 26  1  0
 26 27  2  0
 27 28  1  0
 28 29  2  0
 29 30  1  0
 30 31  2  0
 31 32  1  0
 29 33  1  0
 28 34  1  0
 27 35  1  0
  4 36  1  6
  3 37  1  0
  3 38  1  0
  1 39  1  0
  1 40  1  0
  1 41  1  0
 21  8  1  0
 31 26  1  0
 20 14  1  0
M  END
>  <plip>  (1) 
-0.10344827586206896

>  <filename>  (1) 
[H][c]1[n][c]([H])[c]([C@]([H])([N]([H])[C](=[O])[c]2[o][c]3[c]([Cl])[c]([H])[c]([H])[c]([H])[c]3[c]2[C]([H])([H])[H])[C]([H])([H])[O][C]([H])([H])[H])[c]([H])[c]1[H]

$$$$
