
     RDKit          3D

 30 32  0  0  0  0  0  0  0  0999 V2000
    8.7666   -0.4804   21.0733 C   0  0  0  0  0  0  0  0  0  0  0  0
    7.4371   -0.5903   20.9057 C   0  0  0  0  0  0  0  0  0  0  0  0
    6.6947    0.0909   19.8105 C   0  0  0  0  0  0  0  0  0  0  0  0
    5.4481    0.7057   20.0401 C   0  0  0  0  0  0  0  0  0  0  0  0
    4.8008    1.3515   18.9862 C   0  0  0  0  0  0  0  0  0  0  0  0
    5.4092    1.3468   17.7252 C   0  0  0  0  0  0  0  0  0  0  0  0
    6.5756    0.7307   17.4625 N   0  0  0  0  0  0  0  0  0  0  0  0
    7.1903    0.1291   18.4889 C   0  0  0  0  0  0  0  0  0  0  0  0
    8.1184   -0.3920   18.2511 H   0  0  0  0  0  0  0  0  0  0  0  0
    4.9333    1.8453   16.8856 H   0  0  0  0  0  0  0  0  0  0  0  0
    3.8424    1.8476   19.1280 H   0  0  0  0  0  0  0  0  0  0  0  0
    4.9927    0.6692   21.0320 H   0  0  0  0  0  0  0  0  0  0  0  0
    6.6057   -1.3673   21.9315 C   0  0  0  0  0  0  0  0  0  0  0  0
    7.3169   -2.5253   22.4785 N   0  0  0  0  0  0  0  0  0  0  0  0
    6.6475   -3.5731   23.0358 C   0  0  0  0  0  0  0  0  0  0  0  0
    7.2567   -4.5672   23.6154 N   0  0  0  0  0  0  0  0  0  0  0  0
    6.3488   -5.4362   24.1627 C   0  0  0  0  0  0  0  0  0  0  0  0
    5.0391   -5.1654   23.9729 C   0  0  0  0  0  0  0  0  0  0  0  0
    4.8885   -3.7083   23.0428 S   0  0  0  0  0  0  0  0  0  0  0  0
    4.1840   -5.7063   24.3529 H   0  0  0  0  0  0  0  0  0  0  0  0
    6.6900   -6.2823   24.7478 H   0  0  0  0  0  0  0  0  0  0  0  0
    8.7798   -2.6187   22.3696 C   0  0  0  0  0  0  0  0  0  0  0  0
    9.4228   -1.2438   22.1964 C   0  0  0  0  0  0  0  0  0  0  0  0
   10.4950   -1.3670   22.0172 H   0  0  0  0  0  0  0  0  0  0  0  0
    9.3081   -0.6872   23.1380 H   0  0  0  0  0  0  0  0  0  0  0  0
    9.1823   -3.1043   23.2633 H   0  0  0  0  0  0  0  0  0  0  0  0
    9.0239   -3.2512   21.5079 H   0  0  0  0  0  0  0  0  0  0  0  0
    6.3267   -0.6803   22.7507 H   0  0  0  0  0  0  0  0  0  0  0  0
    5.6834   -1.6868   21.4290 H   0  0  0  0  0  0  0  0  0  0  0  0
    9.3603    0.1973   20.4607 H   0  0  0  0  0  0  0  0  0  0  0  0
  1  2  2  0
  2  3  1  0
  3  4  2  0
  4  5  1  0
  5  6  2  0
  6  7  1  0
  7  8  2  0
  8  9  1  0
  6 10  1  0
  5 11  1  0
  4 12  1  0
  2 13  1  0
 13 14  1  0
 14 15  1  0
 15 16  2  0
 16 17  1  0
 17 18  2  0
 18 19  1  0
 18 20  1  0
 17 21  1  0
 14 22  1  0
 22 23  1  0
 23 24  1  0
 23 25  1  0
 22 26  1  0
 22 27  1  0
 13 28  1  0
 13 29  1  0
  1 30  1  0
 23  1  1  0
  8  3  1  0
 19 15  1  0
M  END
>  <plip>  (1) 
-0.03571428571428571

>  <filename>  (1) 
[H][C]1=[C]([c]2[c]([H])[n][c]([H])[c]([H])[c]2[H])[C]([H])([H])[N]([c]2[n][c]([H])[c]([H])[s]2)[C]([H])([H])[C]1([H])[H]

$$$$
