
     RDKit          3D

 27 28  0  0  0  0  0  0  0  0999 V2000
    5.0886    1.7588   17.0048 H   0  0  0  0  0  0  0  0  0  0  0  0
    5.5012    1.2397   17.8697 C   0  0  0  0  0  0  0  0  0  0  0  0
    6.6469    0.5715   17.6710 N   0  0  0  0  0  0  0  0  0  0  0  0
    7.1695   -0.0772   18.7178 C   0  0  0  0  0  0  0  0  0  0  0  0
    8.1016   -0.6068   18.5344 H   0  0  0  0  0  0  0  0  0  0  0  0
    6.5980   -0.0938   19.9900 C   0  0  0  0  0  0  0  0  0  0  0  0
    7.3642   -0.7521   21.0881 C   0  0  2  0  0  0  0  0  0  0  0  0
    6.7252   -0.8107   21.9855 H   0  0  0  0  0  0  0  0  0  0  0  0
    8.6021   -0.0712   21.3706 N   0  0  0  0  0  0  0  0  0  0  0  0
    8.4897    0.9002   21.1144 H   0  0  0  0  0  0  0  0  0  0  0  0
    9.2555   -0.5075   20.7302 H   0  0  0  0  0  0  0  0  0  0  0  0
    7.8006   -2.0658   20.6873 N   0  0  0  0  0  0  0  0  0  0  0  0
    7.2800   -2.4647   19.9257 H   0  0  0  0  0  0  0  0  0  0  0  0
    8.0663   -3.0032   21.6524 C   0  0  0  0  0  0  0  0  0  0  0  0
    7.9224   -4.3628   21.3706 C   0  0  0  0  0  0  0  0  0  0  0  0
    7.5402   -4.6970   20.4132 H   0  0  0  0  0  0  0  0  0  0  0  0
    8.2759   -5.2710   22.3596 C   0  0  0  0  0  0  0  0  0  0  0  0
    8.1936   -6.3456   22.1850 H   0  0  0  0  0  0  0  0  0  0  0  0
    8.7095   -4.9247   23.5740 N   0  0  0  0  0  0  0  0  0  0  0  0
    8.7942   -3.6158   23.8382 C   0  0  0  0  0  0  0  0  0  0  0  0
    9.0738   -3.3500   24.8569 H   0  0  0  0  0  0  0  0  0  0  0  0
    8.4867   -2.6148   22.9285 C   0  0  0  0  0  0  0  0  0  0  0  0
    8.5305   -1.5657   23.1798 H   0  0  0  0  0  0  0  0  0  0  0  0
    5.4002    0.5991   20.1896 C   0  0  0  0  0  0  0  0  0  0  0  0
    4.9204    0.6290   21.1730 H   0  0  0  0  0  0  0  0  0  0  0  0
    4.8378    1.2732   19.1037 C   0  0  0  0  0  0  0  0  0  0  0  0
    3.9114    1.8311   19.1992 H   0  0  0  0  0  0  0  0  0  0  0  0
  1  2  1  0
  2  3  2  0
  3  4  1  0
  4  5  1  0
  4  6  2  0
  6  7  1  0
  7  8  1  1
  7  9  1  0
  9 10  1  0
  9 11  1  0
  7 12  1  0
 12 13  1  0
 12 14  1  0
 14 15  2  0
 15 16  1  0
 15 17  1  0
 17 18  1  0
 17 19  2  0
 19 20  1  0
 20 21  1  0
 20 22  2  0
 22 23  1  0
  6 24  1  0
 24 25  1  0
 24 26  2  0
 26 27  1  0
 26  2  1  0
 22 14  1  0
M  END
>  <plip>  (1) 
-0.1

>  <filename>  (1) 
[H][c]1[n][c]([H])[c]([C@]([H])([N]([H])[H])[N]([H])[c]2[c]([H])[c]([H])[n][c]([H])[c]2[H])[c]([H])[c]1[H]

$$$$
