
     RDKit          3D

 45 46  0  0  0  0  0  0  0  0999 V2000
    8.5349    2.2837   21.1295 C   0  0  0  0  0  0  0  0  0  0  0  0
    9.1015    0.8848   21.2994 C   0  0  0  0  0  0  0  0  0  0  0  0
    8.0177    0.0183   21.9251 N   0  0  0  0  0  4  0  0  0  0  0  0
    7.3284   -0.8600   20.9193 C   0  0  0  0  0  0  0  0  0  0  0  0
    6.6124   -0.0417   19.8746 C   0  0  0  0  0  0  0  0  0  0  0  0
    5.4141    0.6509   20.1199 C   0  0  0  0  0  0  0  0  0  0  0  0
    4.8216    1.3512   19.0672 C   0  0  0  0  0  0  0  0  0  0  0  0
    5.4524    1.3531   17.8162 C   0  0  0  0  0  0  0  0  0  0  0  0
    6.6094    0.7185   17.5709 N   0  0  0  0  0  0  0  0  0  0  0  0
    7.1623    0.0530   18.5883 C   0  0  0  0  0  0  0  0  0  0  0  0
    8.1113   -0.4485   18.3803 H   0  0  0  0  0  0  0  0  0  0  0  0
    5.0092    1.8772   16.9735 H   0  0  0  0  0  0  0  0  0  0  0  0
    3.8891    1.8960   19.1971 H   0  0  0  0  0  0  0  0  0  0  0  0
    4.9675    0.6531   21.1182 H   0  0  0  0  0  0  0  0  0  0  0  0
    8.0719   -1.5092   20.4381 H   0  0  0  0  0  0  0  0  0  0  0  0
    6.6173   -1.5083   21.4453 H   0  0  0  0  0  0  0  0  0  0  0  0
    8.4933   -0.7085   23.1467 C   0  0  0  0  0  0  0  0  0  0  0  0
    8.7087    0.2571   24.3240 C   0  0  0  0  0  0  0  0  0  0  0  0
    7.3691    0.6533   25.0027 C   0  0  0  0  0  0  0  0  0  0  0  0
    6.7675   -0.4866   25.8372 C   0  0  0  0  0  0  0  0  0  0  0  0
    7.7689   -1.0059   26.8773 C   0  0  0  0  0  0  0  0  0  0  0  0
    9.1329   -1.3716   26.2651 C   0  0  0  0  0  0  0  0  0  0  0  0
    9.7402   -0.2774   25.3481 C   0  0  0  0  0  0  0  0  0  0  0  0
   10.3454    0.8839   26.1357 C   0  0  0  0  0  0  0  0  0  0  0  0
   10.9524    0.4833   26.9485 H   0  0  0  0  0  0  0  0  0  0  0  0
   10.9983    1.5072   25.5146 H   0  0  0  0  0  0  0  0  0  0  0  0
    9.5771    1.5335   26.5708 H   0  0  0  0  0  0  0  0  0  0  0  0
   10.5830   -0.7319   24.8000 H   0  0  0  0  0  0  0  0  0  0  0  0
    9.8241   -1.5978   27.0898 H   0  0  0  0  0  0  0  0  0  0  0  0
    9.0431   -2.2970   25.6818 H   0  0  0  0  0  0  0  0  0  0  0  0
    7.9301   -0.2315   27.6405 H   0  0  0  0  0  0  0  0  0  0  0  0
    7.3487   -1.8738   27.4031 H   0  0  0  0  0  0  0  0  0  0  0  0
    5.8436   -0.1585   26.3294 H   0  0  0  0  0  0  0  0  0  0  0  0
    6.4656   -1.3001   25.1670 H   0  0  0  0  0  0  0  0  0  0  0  0
    6.6443    0.9986   24.2511 H   0  0  0  0  0  0  0  0  0  0  0  0
    7.5465    1.5142   25.6611 H   0  0  0  0  0  0  0  0  0  0  0  0
    9.1316    1.1726   23.8853 H   0  0  0  0  0  0  0  0  0  0  0  0
    7.7476   -1.4692   23.4006 H   0  0  0  0  0  0  0  0  0  0  0  0
    9.4183   -1.2513   22.8981 H   0  0  0  0  0  0  0  0  0  0  0  0
    7.2901    0.6991   22.2175 H   0  0  0  0  0  0  0  0  0  0  0  0
    9.9763    0.9062   21.9559 H   0  0  0  0  0  0  0  0  0  0  0  0
    9.4341    0.4288   20.3614 H   0  0  0  0  0  0  0  0  0  0  0  0
    7.6143    2.2564   20.5419 H   0  0  0  0  0  0  0  0  0  0  0  0
    9.2477    2.9616   20.6690 H   0  0  0  0  0  0  0  0  0  0  0  0
    8.2847    2.6761   22.1219 H   0  0  0  0  0  0  0  0  0  0  0  0
  1  2  1  0
  2  3  1  0
  3  4  1  0
  4  5  1  0
  5  6  2  0
  6  7  1  0
  7  8  2  0
  8  9  1  0
  9 10  2  0
 10 11  1  0
  8 12  1  0
  7 13  1  0
  6 14  1  0
  4 15  1  0
  4 16  1  0
  3 17  1  0
 17 18  1  0
 18 19  1  0
 19 20  1  0
 20 21  1  0
 21 22  1  0
 22 23  1  0
 23 24  1  0
 24 25  1  0
 24 26  1  0
 24 27  1  0
 23 28  1  0
 22 29  1  0
 22 30  1  0
 21 31  1  0
 21 32  1  0
 20 33  1  0
 20 34  1  0
 19 35  1  0
 19 36  1  0
 18 37  1  0
 17 38  1  0
 17 39  1  0
  3 40  1  0
  2 41  1  0
  2 42  1  0
  1 43  1  0
  1 44  1  0
  1 45  1  0
 10  5  1  0
 23 18  1  0
M  CHG  1   3   1
M  END
>  <plip>  (1) 
-0.034482758620689655

>  <filename>  (1) 
[H][c]1[n][c]([H])[c]([C]([H])([H])[N+]([H])([C]([H])([H])[C]([H])([H])[H])[C]([H])([H])[C]2([H])[C]([H])([H])[C]([H])([H])[C]([H])([H])[C]([H])([H])[C]2([H])[C]([H])([H])[H])[c]([H])[c]1[H]

$$$$
