
     RDKit          3D

 23 24  0  0  0  0  0  0  0  0999 V2000
    9.2448   -3.8659   24.7676 H   0  0  0  0  0  0  0  0  0  0  0  0
    9.0153   -2.8361   24.5248 C   0  0  0  0  0  0  0  0  0  0  0  0
    9.1981   -1.7186   25.2209 C   0  0  0  0  0  0  0  0  0  0  0  0
    9.6158   -1.5547   26.2059 H   0  0  0  0  0  0  0  0  0  0  0  0
    8.6931   -0.5637   24.4256 C   0  0  0  0  0  0  0  0  0  0  0  0
    8.7115    0.5937   24.7354 O   0  0  0  0  0  0  0  0  0  0  0  0
    8.1988   -1.1054   23.2205 N   0  0  0  0  0  0  0  0  0  0  0  0
    7.5389   -0.3795   22.2340 C   0  0  0  0  0  0  0  0  0  0  0  0
    7.0559    0.7744   22.6858 F   0  0  0  0  0  0  0  0  0  0  0  0
    7.4210   -0.7449   20.9527 C   0  0  0  0  0  0  0  0  0  0  0  0
    7.9516   -1.6479   20.6668 H   0  0  0  0  0  0  0  0  0  0  0  0
    6.6662   -0.0002   19.9079 C   0  0  0  0  0  0  0  0  0  0  0  0
    7.1628    0.0514   18.5863 C   0  0  0  0  0  0  0  0  0  0  0  0
    8.1138   -0.4300   18.3551 H   0  0  0  0  0  0  0  0  0  0  0  0
    6.5571    0.6752   17.5716 N   0  0  0  0  0  0  0  0  0  0  0  0
    5.3936    1.2940   17.8346 C   0  0  0  0  0  0  0  0  0  0  0  0
    4.9184    1.7915   16.9892 H   0  0  0  0  0  0  0  0  0  0  0  0
    4.8081    1.3098   19.1022 C   0  0  0  0  0  0  0  0  0  0  0  0
    3.8777    1.8410   19.2475 H   0  0  0  0  0  0  0  0  0  0  0  0
    5.4476    0.6567   20.1570 C   0  0  0  0  0  0  0  0  0  0  0  0
    5.0221    0.6384   21.1573 H   0  0  0  0  0  0  0  0  0  0  0  0
    8.3657   -2.4953   23.2247 C   0  0  0  0  0  0  0  0  0  0  0  0
    8.0267   -3.2495   22.3489 O   0  0  0  0  0  0  0  0  0  0  0  0
  1  2  1  0
  2  3  2  0
  3  4  1  0
  3  5  1  0
  5  6  2  0
  5  7  1  0
  7  8  1  0
  8  9  1  0
  8 10  2  3
 10 11  1  0
 10 12  1  0
 12 13  2  0
 13 14  1  0
 13 15  1  0
 15 16  2  0
 16 17  1  0
 16 18  1  0
 18 19  1  0
 18 20  2  0
 20 21  1  0
  7 22  1  0
 22 23  2  0
 22  2  1  0
 20 12  1  0
M  END
>  <plip>  (1) 
-0.034482758620689655

>  <filename>  (1) 
[H][C]1=[C]([H])[C](=[O])[N]([C]([F])=[C]([H])[c]2[c]([H])[n][c]([H])[c]([H])[c]2[H])[C]1=[O]

$$$$
