
     RDKit          3D

 49 51  0  0  0  0  0  0  0  0999 V2000
    6.7420   -2.9428   20.5781 C   0  0  0  0  0  0  0  0  0  0  0  0
    7.9080   -1.9922   20.9094 C   0  0  0  0  0  0  0  0  0  0  0  0
    8.7175   -2.5590   22.0833 C   0  0  0  0  0  0  0  0  0  0  0  0
    8.0900   -2.7663   22.9598 H   0  0  0  0  0  0  0  0  0  0  0  0
    9.1711   -3.5080   21.7822 H   0  0  0  0  0  0  0  0  0  0  0  0
    9.5217   -1.8830   22.3943 H   0  0  0  0  0  0  0  0  0  0  0  0
    7.3139   -0.5787   21.1448 C   0  0  0  0  0  0  0  0  0  0  0  0
    6.6328    0.0467   19.9409 C   0  0  0  0  0  0  0  0  0  0  0  0
    5.4157    0.7143   20.1480 C   0  0  0  0  0  0  0  0  0  0  0  0
    4.7902    1.3329   19.0671 C   0  0  0  0  0  0  0  0  0  0  0  0
    5.4163    1.2829   17.8175 C   0  0  0  0  0  0  0  0  0  0  0  0
    6.5749    0.6476   17.5930 N   0  0  0  0  0  0  0  0  0  0  0  0
    7.1627    0.0469   18.6424 C   0  0  0  0  0  0  0  0  0  0  0  0
    8.1034   -0.4631   18.4188 H   0  0  0  0  0  0  0  0  0  0  0  0
    4.9675    1.7823   16.9617 H   0  0  0  0  0  0  0  0  0  0  0  0
    3.8474    1.8554   19.1849 H   0  0  0  0  0  0  0  0  0  0  0  0
    4.9853    0.7395   21.1522 H   0  0  0  0  0  0  0  0  0  0  0  0
    8.2387    0.3931   21.7552 N   0  0  0  0  0  0  0  0  0  0  0  0
    9.4755    0.7733   21.0798 C   0  0  0  0  0  0  0  0  0  0  0  0
    9.5256    0.3145   20.0910 H   0  0  0  0  0  0  0  0  0  0  0  0
   10.3654    0.4636   21.6413 H   0  0  0  0  0  0  0  0  0  0  0  0
    9.5253    1.8610   20.9293 H   0  0  0  0  0  0  0  0  0  0  0  0
    7.8769    0.9013   22.9829 C   0  0  0  0  0  0  0  0  0  0  0  0
    6.7196    0.8649   23.3823 O   0  0  0  0  0  0  0  0  0  0  0  0
    9.0337    1.4547   23.8846 C   0  0  0  0  0  0  0  0  0  0  0  0
    9.9737    0.4168   24.1913 O   0  0  0  0  0  0  0  0  0  0  0  0
    9.4662   -0.5203   25.1430 C   0  0  0  0  0  0  0  0  0  0  0  0
    9.3159    0.1691   26.4950 C   0  0  0  0  0  0  0  0  0  0  0  0
    8.5775    1.4916   26.3748 C   0  0  0  0  0  0  0  0  0  0  0  0
    8.0081    2.0987   27.5020 C   0  0  0  0  0  0  0  0  0  0  0  0
    7.3789    3.3395   27.3859 C   0  0  0  0  0  0  0  0  0  0  0  0
    6.8707    3.9225   28.5021 O   0  0  0  0  0  0  0  0  0  0  0  0
    6.4309    4.7382   28.2331 H   0  0  0  0  0  0  0  0  0  0  0  0
    7.2815    3.9663   26.1363 C   0  0  0  0  0  0  0  0  0  0  0  0
    7.8327    3.3587   25.0094 C   0  0  0  0  0  0  0  0  0  0  0  0
    8.5018    2.1356   25.1289 C   0  0  0  0  0  0  0  0  0  0  0  0
    7.7205    3.8272   24.0322 H   0  0  0  0  0  0  0  0  0  0  0  0
    6.7677    4.9185   26.0721 H   0  0  0  0  0  0  0  0  0  0  0  0
    8.0706    1.6222   28.4757 H   0  0  0  0  0  0  0  0  0  0  0  0
    8.8104   -0.4882   27.2103 H   0  0  0  0  0  0  0  0  0  0  0  0
   10.3225    0.3519   26.8876 H   0  0  0  0  0  0  0  0  0  0  0  0
    8.4994   -0.9413   24.8120 H   0  0  0  0  0  0  0  0  0  0  0  0
   10.1960   -1.3362   25.1737 H   0  0  0  0  0  0  0  0  0  0  0  0
    9.5713    2.1940   23.2837 H   0  0  0  0  0  0  0  0  0  0  0  0
    6.5142   -0.7323   21.8804 H   0  0  0  0  0  0  0  0  0  0  0  0
    8.6066   -1.9002   20.0697 H   0  0  0  0  0  0  0  0  0  0  0  0
    6.2872   -2.7105   19.6109 H   0  0  0  0  0  0  0  0  0  0  0  0
    7.0221   -4.0016   20.5812 H   0  0  0  0  0  0  0  0  0  0  0  0
    5.9608   -2.8271   21.3349 H   0  0  0  0  0  0  0  0  0  0  0  0
  1  2  1  0
  2  3  1  0
  3  4  1  0
  3  5  1  0
  3  6  1  0
  2  7  1  0
  7  8  1  0
  8  9  2  0
  9 10  1  0
 10 11  2  0
 11 12  1  0
 12 13  2  0
 13 14  1  0
 11 15  1  0
 10 16  1  0
  9 17  1  0
  7 18  1  0
 18 19  1  0
 19 20  1  0
 19 21  1  0
 19 22  1  0
 18 23  1  0
 23 24  2  0
 23 25  1  0
 25 26  1  0
 26 27  1  0
 27 28  1  0
 28 29  1  0
 29 30  2  0
 30 31  1  0
 31 32  1  0
 32 33  1  0
 31 34  2  0
 34 35  1  0
 35 36  2  0
 35 37  1  0
 34 38  1  0
 30 39  1  0
 28 40  1  0
 28 41  1  0
 27 42  1  0
 27 43  1  0
 25 44  1  0
  7 45  1  0
  2 46  1  0
  1 47  1  0
  1 48  1  0
  1 49  1  0
 13  8  1  0
 36 25  1  0
 36 29  1  0
M  END
>  <plip>  (1) 
-0.10344827586206896

>  <filename>  (1) 
[H][O][c]1[c]([H])[c]([H])[c]2[c]([c]1[H])[C]([H])([H])[C]([H])([H])[O][C]2([H])[C](=[O])[N]([C]([H])([H])[H])[C]([H])([c]1[c]([H])[n][c]([H])[c]([H])[c]1[H])[C]([H])([C]([H])([H])[H])[C]([H])([H])[H]

$$$$
