
     RDKit          3D

 30 31  0  0  0  0  0  0  0  0999 V2000
    8.2454    7.4446   23.8666 H   0  0  0  0  0  0  0  0  0  0  0  0
    7.6041    6.7674   23.5784 O   0  0  0  0  0  0  0  0  0  0  0  0
    8.4387    5.7714   23.2770 C   0  0  0  0  0  0  0  0  0  0  0  0
    9.6317    5.9423   23.3853 O   0  0  0  0  0  0  0  0  0  0  0  0
    7.7489    4.4166   22.8223 C   0  0  0  0  0  0  0  0  0  0  0  0
    6.5293    4.2628   22.9156 O   0  0  0  0  0  0  0  0  0  0  0  0
    8.6180    3.3669   22.3451 C   0  0  0  0  0  0  0  0  0  0  0  0
    9.6523    3.6187   22.1434 H   0  0  0  0  0  0  0  0  0  0  0  0
    8.1993    2.0731   22.1942 C   0  0  0  0  0  0  0  0  0  0  0  0
    6.9604    1.7181   22.5499 O   0  0  0  0  0  0  0  0  0  0  0  0
    6.4901    2.5830   22.7090 H   0  0  0  0  0  0  0  0  0  0  0  0
    9.1162    1.0156   21.6876 C   0  0  0  0  0  0  0  0  0  0  0  0
   10.4281    1.1259   21.6302 N   0  0  0  0  0  0  0  0  0  0  0  0
   10.9314   -0.0507   21.1693 N   0  0  0  0  0  0  0  0  0  0  0  0
    9.9176   -0.8347   20.9182 C   0  0  0  0  0  0  0  0  0  0  0  0
    9.9754   -1.8539   20.5595 H   0  0  0  0  0  0  0  0  0  0  0  0
    8.7394   -0.2263   21.2243 N   0  0  0  0  0  0  0  0  0  0  0  0
    7.3798   -0.7182   21.0038 C   0  0  0  0  0  0  0  0  0  0  0  0
    6.8195   -0.6445   21.9401 H   0  0  0  0  0  0  0  0  0  0  0  0
    7.4474   -1.7819   20.7441 H   0  0  0  0  0  0  0  0  0  0  0  0
    6.6536    0.0329   19.9055 C   0  0  0  0  0  0  0  0  0  0  0  0
    7.1696    0.0663   18.5993 C   0  0  0  0  0  0  0  0  0  0  0  0
    8.1070   -0.4377   18.3687 H   0  0  0  0  0  0  0  0  0  0  0  0
    6.5759    0.6812   17.5693 N   0  0  0  0  0  0  0  0  0  0  0  0
    5.4163    1.3093   17.8134 C   0  0  0  0  0  0  0  0  0  0  0  0
    4.9490    1.8096   16.9667 H   0  0  0  0  0  0  0  0  0  0  0  0
    4.8071    1.3418   19.0709 C   0  0  0  0  0  0  0  0  0  0  0  0
    3.8683    1.8717   19.2068 H   0  0  0  0  0  0  0  0  0  0  0  0
    5.4411    0.6977   20.1370 C   0  0  0  0  0  0  0  0  0  0  0  0
    5.0113    0.7267   21.1412 H   0  0  0  0  0  0  0  0  0  0  0  0
  1  2  1  0
  2  3  1  0
  3  4  2  0
  3  5  1  0
  5  6  2  0
  5  7  1  0
  7  8  1  0
  7  9  2  3
  9 10  1  0
 10 11  1  0
  9 12  1  0
 12 13  2  0
 13 14  1  0
 14 15  2  0
 15 16  1  0
 15 17  1  0
 17 18  1  0
 18 19  1  0
 18 20  1  0
 18 21  1  0
 21 22  2  0
 22 23  1  0
 22 24  1  0
 24 25  2  0
 25 26  1  0
 25 27  1  0
 27 28  1  0
 27 29  2  0
 29 30  1  0
 17 12  1  0
 29 21  1  0
M  END
>  <plip>  (1) 
-0.07142857142857142

>  <filename>  (1) 
[H][O][C](=[O])[C](=[O])[C]([H])=[C]([O][H])[c]1[n][n][c]([H])[n]1[C]([H])([H])[c]1[c]([H])[n][c]([H])[c]([H])[c]1[H]

$$$$
