
     RDKit          3D

 34 36  0  0  0  0  0  0  0  0999 V2000
    9.7397   -2.4372   22.1380 H   0  0  0  0  0  0  0  0  0  0  0  0
    8.8308   -1.8771   21.9591 C   0  0  0  0  0  0  0  0  0  0  0  0
    8.5624   -1.2924   20.7352 N   0  0  0  0  0  0  0  0  0  0  0  0
    7.4134   -0.7124   20.9096 C   0  0  0  0  0  0  0  0  0  0  0  0
    6.6427    0.0216   19.9182 C   0  0  0  0  0  0  0  0  0  0  0  0
    7.1748    0.0521   18.6239 C   0  0  0  0  0  0  0  0  0  0  0  0
    8.1141   -0.4546   18.4180 H   0  0  0  0  0  0  0  0  0  0  0  0
    6.5925    0.6685   17.5935 N   0  0  0  0  0  0  0  0  0  0  0  0
    5.4308    1.2948   17.8342 C   0  0  0  0  0  0  0  0  0  0  0  0
    4.9730    1.7891   16.9796 H   0  0  0  0  0  0  0  0  0  0  0  0
    4.8130    1.3202   19.0913 C   0  0  0  0  0  0  0  0  0  0  0  0
    3.8725    1.8476   19.2076 H   0  0  0  0  0  0  0  0  0  0  0  0
    5.4256    0.6775   20.1653 C   0  0  0  0  0  0  0  0  0  0  0  0
    4.9716    0.6887   21.1610 H   0  0  0  0  0  0  0  0  0  0  0  0
    6.9096   -0.8590   22.1533 O   0  0  0  0  0  0  0  0  0  0  0  0
    7.8109   -1.6335   22.8190 C   0  0  0  0  0  0  0  0  0  0  0  0
    7.5613   -1.8751   24.2692 C   0  0  0  0  0  0  0  0  0  0  0  0
    6.4853   -2.0026   24.4225 H   0  0  0  0  0  0  0  0  0  0  0  0
    8.0707   -2.7930   24.5809 H   0  0  0  0  0  0  0  0  0  0  0  0
    8.0866   -0.6963   25.0752 C   0  0  0  0  0  0  0  0  0  0  0  0
    9.4083   -0.7124   25.5312 C   0  0  0  0  0  0  0  0  0  0  0  0
    9.9723   -1.6370   25.4850 H   0  0  0  0  0  0  0  0  0  0  0  0
   10.0280    0.4376   26.0378 C   0  0  0  0  0  0  0  0  0  0  0  0
   11.0654    0.4383   26.3514 H   0  0  0  0  0  0  0  0  0  0  0  0
    9.2922    1.6152   26.1216 C   0  0  0  0  0  0  0  0  0  0  0  0
    9.7336    2.5373   26.4771 H   0  0  0  0  0  0  0  0  0  0  0  0
    7.9498    1.6407   25.7534 C   0  0  0  0  0  0  0  0  0  0  0  0
    7.3840    2.5506   25.8911 H   0  0  0  0  0  0  0  0  0  0  0  0
    7.3406    0.4964   25.2172 C   0  0  0  0  0  0  0  0  0  0  0  0
    6.0430    0.4721   24.7969 O   0  0  0  0  0  0  0  0  0  0  0  0
    5.2767    1.6538   24.9053 C   0  0  0  0  0  0  0  0  0  0  0  0
    4.3155    1.4755   24.4182 H   0  0  0  0  0  0  0  0  0  0  0  0
    5.1082    1.9234   25.9551 H   0  0  0  0  0  0  0  0  0  0  0  0
    5.7847    2.4889   24.4102 H   0  0  0  0  0  0  0  0  0  0  0  0
  1  2  1  0
  2  3  1  0
  3  4  2  0
  4  5  1  0
  5  6  2  0
  6  7  1  0
  6  8  1  0
  8  9  2  0
  9 10  1  0
  9 11  1  0
 11 12  1  0
 11 13  2  0
 13 14  1  0
  4 15  1  0
 15 16  1  0
 16 17  1  0
 17 18  1  0
 17 19  1  0
 17 20  1  0
 20 21  2  0
 21 22  1  0
 21 23  1  0
 23 24  1  0
 23 25  2  0
 25 26  1  0
 25 27  1  0
 27 28  1  0
 27 29  2  0
 29 30  1  0
 30 31  1  0
 31 32  1  0
 31 33  1  0
 31 34  1  0
 16  2  2  0
 29 20  1  0
 13  5  1  0
M  END
>  <plip>  (1) 
-0.10344827586206896

>  <filename>  (1) 
[H][c]1[n][c](-[c]2[c]([H])[n][c]([H])[c]([H])[c]2[H])[o][c]1[C]([H])([H])[c]1[c]([H])[c]([H])[c]([H])[c]([H])[c]1[O][C]([H])([H])[H]

$$$$
