
     RDKit          3D

 40 41  0  0  0  0  0  0  0  0999 V2000
   11.4938    1.4142   21.2568 C   0  0  0  0  0  0  0  0  0  0  0  0
   11.8666   -0.2616   22.9214 C   0  0  0  0  0  0  0  0  0  0  0  0
   11.8604   -0.3142   23.1162 C   0  0  0  0  0  0  0  0  0  0  0  0
   11.6392   -0.0963   24.9650 S   0  0  0  0  0  0  0  0  0  0  0  0
   10.9590    1.6261   25.5036 C   0  0  0  0  0  0  0  0  0  0  0  0
    9.6463    2.1580   24.9474 C   0  0  0  0  0  0  0  0  0  0  0  0
    8.6853    1.0970   24.4298 C   0  0  0  0  0  0  0  0  0  0  0  0
    9.2440    0.4941   23.2012 N   0  0  0  0  0  4  0  0  0  0  0  0
    8.3055   -0.4526   22.5753 C   0  0  0  0  0  0  0  0  0  0  0  0
    7.6409    0.1389   21.3213 C   0  0  0  0  0  0  0  0  0  0  0  0
    6.7944   -0.8297   20.4840 C   0  0  0  0  0  0  0  0  0  0  0  0
    6.1669   -0.0936   19.3222 C   0  0  0  0  0  0  0  0  0  0  0  0
    4.9953    0.6601   19.4928 C   0  0  0  0  0  0  0  0  0  0  0  0
    4.5371    1.4557   18.4417 C   0  0  0  0  0  0  0  0  0  0  0  0
    5.2682    1.4784   17.2512 C   0  0  0  0  0  0  0  0  0  0  0  0
    6.3744    0.7475   17.0525 N   0  0  0  0  0  0  0  0  0  0  0  0
    6.7985   -0.0144   18.0696 C   0  0  0  0  0  0  0  0  0  0  0  0
    7.7032   -0.5928   17.8725 H   0  0  0  0  0  0  0  0  0  0  0  0
    4.9522    2.1057   16.4191 H   0  0  0  0  0  0  0  0  0  0  0  0
    3.6503    2.0726   18.5391 H   0  0  0  0  0  0  0  0  0  0  0  0
    4.4658    0.6367   20.4476 H   0  0  0  0  0  0  0  0  0  0  0  0
    6.0078   -1.2893   21.0984 H   0  0  0  0  0  0  0  0  0  0  0  0
    7.4229   -1.6510   20.1141 H   0  0  0  0  0  0  0  0  0  0  0  0
    7.0241    0.9988   21.6198 H   0  0  0  0  0  0  0  0  0  0  0  0
    8.4447    0.5434   20.6857 H   0  0  0  0  0  0  0  0  0  0  0  0
    7.5390   -0.7473   23.3082 H   0  0  0  0  0  0  0  0  0  0  0  0
    8.8361   -1.3823   22.3212 H   0  0  0  0  0  0  0  0  0  0  0  0
    9.3251    1.2741   22.5465 H   0  0  0  0  0  0  0  0  0  0  0  0
    8.5539    0.3152   25.1936 H   0  0  0  0  0  0  0  0  0  0  0  0
    7.6751    1.5543   24.2969 H   0  0  0  0  0  0  0  0  0  0  0  0
    9.1420    2.7661   25.7270 H   0  0  0  0  0  0  0  0  0  0  0  0
    9.8486    2.8702   24.1358 H   0  0  0  0  0  0  0  0  0  0  0  0
   11.7870    2.3290   25.3963 H   0  0  0  0  0  0  0  0  0  0  0  0
   10.8771    1.2502   26.5194 H   0  0  0  0  0  0  0  0  0  0  0  0
   13.1135   -0.3598   22.8385 H   0  0  0  0  0  0  0  0  0  0  0  0
   10.8620   -0.9088   22.5961 H   0  0  0  0  0  0  0  0  0  0  0  0
   11.6133    1.0480   22.6463 H   0  0  0  0  0  0  0  0  0  0  0  0
   11.4309    0.3713   20.9846 H   0  0  0  0  0  0  0  0  0  0  0  0
   12.3902    1.9071   20.9254 H   0  0  0  0  0  0  0  0  0  0  0  0
   10.5895    1.9795   21.0615 H   0  0  0  0  0  0  0  0  0  0  0  0
  1  2  1  0
  2  3  1  0
  3  4  1  0
  4  5  1  0
  5  6  1  0
  6  7  1  0
  7  8  1  0
  8  9  1  0
  9 10  1  0
 10 11  1  0
 11 12  1  0
 12 13  2  0
 13 14  1  0
 14 15  2  0
 15 16  1  0
 16 17  2  0
 17 18  1  0
 15 19  1  0
 14 20  1  0
 13 21  1  0
 11 22  1  0
 11 23  1  0
 10 24  1  0
 10 25  1  0
  9 26  1  0
  9 27  1  0
  8 28  1  0
  7 29  1  0
  7 30  1  0
  6 31  1  0
  6 32  1  0
  5 33  1  0
  5 34  1  0
  3 35  1  0
  3 36  1  0
  2 37  1  0
  1 38  1  0
  1 39  1  0
  1 40  1  0
  8  2  1  0
 17 12  1  0
M  CHG  1   8   1
M  END
>  <plip>  (1) 
-0.10714285714285714

>  <filename>  (1) 
[H][c]1[n][c]([H])[c]([C]([H])([H])[C]([H])([H])[C]([H])([H])[N+]2([H])[C]([H])([H])[C]([H])([H])[C]([H])([H])[S][C]([H])([H])[C]2([H])[C]([H])([H])[H])[c]([H])[c]1[H]

$$$$
