
     RDKit          3D

 24 25  0  0  0  0  0  0  0  0999 V2000
    7.4178    3.6527   21.5650 H   0  0  0  0  0  0  0  0  0  0  0  0
    8.3121    3.1608   21.6496 N   0  0  0  0  0  0  0  0  0  0  0  0
    8.0667    1.9281   21.5897 N   0  0  0  0  0  4  0  0  0  0  0  0
    8.9213    0.9978   21.5194 N   0  0  0  0  0  0  0  0  0  0  0  0
    8.5425   -0.2506   21.4244 N   0  0  0  0  0  0  0  0  0  0  0  0
    9.4541   -1.3145   21.4446 C   0  0  0  0  0  0  0  0  0  0  0  0
   10.6541   -1.2787   21.4723 O   0  0  0  0  0  0  0  0  0  0  0  0
    8.6922   -2.4467   21.4346 N   0  0  0  0  0  0  0  0  0  0  0  0
    9.2389   -3.2703   21.2531 H   0  0  0  0  0  0  0  0  0  0  0  0
    7.3022   -2.2395   21.0960 C   0  0  0  0  0  0  0  0  0  0  0  0
    7.0244   -2.5606   20.0791 H   0  0  0  0  0  0  0  0  0  0  0  0
    6.6313   -2.7680   21.7782 H   0  0  0  0  0  0  0  0  0  0  0  0
    7.1453   -0.7087   21.2224 C   0  0  2  0  0  0  0  0  0  0  0  0
    6.5795   -0.4396   22.1245 H   0  0  0  0  0  0  0  0  0  0  0  0
    6.5196   -0.0503   20.0200 C   0  0  0  0  0  0  0  0  0  0  0  0
    7.1784    0.0014   18.7812 C   0  0  0  0  0  0  0  0  0  0  0  0
    8.1548   -0.4628   18.6575 H   0  0  0  0  0  0  0  0  0  0  0  0
    6.7036    0.6422   17.7026 N   0  0  0  0  0  0  0  0  0  0  0  0
    5.5526    1.3152   17.8490 C   0  0  0  0  0  0  0  0  0  0  0  0
    5.1772    1.8146   16.9568 H   0  0  0  0  0  0  0  0  0  0  0  0
    4.8364    1.3769   19.0505 C   0  0  0  0  0  0  0  0  0  0  0  0
    3.9292    1.9736   19.1112 H   0  0  0  0  0  0  0  0  0  0  0  0
    5.3277    0.6740   20.1538 C   0  0  0  0  0  0  0  0  0  0  0  0
    4.8381    0.7453   21.1311 H   0  0  0  0  0  0  0  0  0  0  0  0
  1  2  1  0
  2  3  2  0
  3  4  2  0
  4  5  1  0
  5  6  1  0
  6  7  2  0
  6  8  1  0
  8  9  1  0
  8 10  1  0
 10 11  1  0
 10 12  1  0
 10 13  1  0
 13 14  1  1
 13 15  1  0
 15 16  2  0
 16 17  1  0
 16 18  1  0
 18 19  2  0
 19 20  1  0
 19 21  1  0
 21 22  1  0
 21 23  2  0
 23 24  1  0
 13  5  1  0
 23 15  1  0
M  CHG  1   3   1
M  END
>  <plip>  (1) 
-0.10344827586206896

>  <filename>  (1) 
[H][N]=[N+]=[N][N]1[C](=[O])[N]([H])[C]([H])([H])[C@]1([H])[c]1[c]([H])[n][c]([H])[c]([H])[c]1[H]

$$$$
