
     RDKit          3D

 41 42  0  0  0  0  0  0  0  0999 V2000
    4.9158    1.7858   17.0014 H   0  0  0  0  0  0  0  0  0  0  0  0
    5.3977    1.2897   17.8420 C   0  0  0  0  0  0  0  0  0  0  0  0
    6.5539    0.6659   17.5771 N   0  0  0  0  0  0  0  0  0  0  0  0
    7.1896    0.0575   18.5843 C   0  0  0  0  0  0  0  0  0  0  0  0
    8.1363   -0.4224   18.3557 H   0  0  0  0  0  0  0  0  0  0  0  0
    6.6882    0.0214   19.9003 C   0  0  0  0  0  0  0  0  0  0  0  0
    7.2995   -0.6801   20.9511 O   0  0  0  0  0  0  0  0  0  0  0  0
    8.6365   -0.7485   21.0744 C   0  0  0  0  0  0  0  0  0  0  0  0
    9.5697   -0.0690   20.4569 N   0  0  0  0  0  0  0  0  0  0  0  0
   10.7381   -0.5027   20.9931 N   0  0  0  0  0  0  0  0  0  0  0  0
   10.5425   -1.4042   21.8798 N   0  0  0  0  0  0  0  0  0  0  0  0
    9.2044   -1.6001   21.9435 N   0  0  0  0  0  0  0  0  0  0  0  0
    8.5938   -2.4907   22.9203 C   0  0  0  0  0  0  0  0  0  0  0  0
    9.3835   -3.1606   23.2701 H   0  0  0  0  0  0  0  0  0  0  0  0
    7.8452   -3.0948   22.4028 H   0  0  0  0  0  0  0  0  0  0  0  0
    7.9666   -1.7212   24.0790 C   0  0  0  0  0  0  0  0  0  0  0  0
    7.2056   -1.0424   23.6772 H   0  0  0  0  0  0  0  0  0  0  0  0
    7.4335   -2.4357   24.7183 H   0  0  0  0  0  0  0  0  0  0  0  0
    8.9967   -0.9558   24.9146 C   0  0  0  0  0  0  0  0  0  0  0  0
    9.7884   -1.6473   25.2357 H   0  0  0  0  0  0  0  0  0  0  0  0
    9.4960   -0.2076   24.2828 H   0  0  0  0  0  0  0  0  0  0  0  0
    8.3945   -0.2710   26.1425 C   0  0  0  0  0  0  0  0  0  0  0  0
    9.2068    0.0852   26.7911 H   0  0  0  0  0  0  0  0  0  0  0  0
    7.8359   -1.0088   26.7395 H   0  0  0  0  0  0  0  0  0  0  0  0
    7.4736    0.9022   25.8068 C   0  0  0  0  0  0  0  0  0  0  0  0
    6.6072    0.5478   25.2306 H   0  0  0  0  0  0  0  0  0  0  0  0
    8.0034    1.5973   25.1399 H   0  0  0  0  0  0  0  0  0  0  0  0
    6.9825    1.6389   27.0523 C   0  0  0  0  0  0  0  0  0  0  0  0
    6.5338    0.9116   27.7430 H   0  0  0  0  0  0  0  0  0  0  0  0
    7.8491    2.0617   27.5828 H   0  0  0  0  0  0  0  0  0  0  0  0
    5.9742    2.7543   26.7626 C   0  0  0  0  0  0  0  0  0  0  0  0
    5.1388    2.3399   26.1812 H   0  0  0  0  0  0  0  0  0  0  0  0
    5.5381    3.0995   27.7082 H   0  0  0  0  0  0  0  0  0  0  0  0
    6.5751    3.9473   26.0157 C   0  0  0  0  0  0  0  0  0  0  0  0
    5.8502    4.7622   25.9165 H   0  0  0  0  0  0  0  0  0  0  0  0
    6.9068    3.6739   25.0072 H   0  0  0  0  0  0  0  0  0  0  0  0
    7.4494    4.3404   26.5484 H   0  0  0  0  0  0  0  0  0  0  0  0
    5.4680    0.6418   20.1729 C   0  0  0  0  0  0  0  0  0  0  0  0
    5.0447    0.6056   21.1773 H   0  0  0  0  0  0  0  0  0  0  0  0
    4.8248    1.2992   19.1181 C   0  0  0  0  0  0  0  0  0  0  0  0
    3.8926    1.8264   19.2695 H   0  0  0  0  0  0  0  0  0  0  0  0
  1  2  1  0
  2  3  2  0
  3  4  1  0
  4  5  1  0
  4  6  2  0
  6  7  1  0
  7  8  1  0
  8  9  2  0
  9 10  1  0
 10 11  2  0
 11 12  1  0
 12 13  1  0
 13 14  1  0
 13 15  1  0
 13 16  1  0
 16 17  1  0
 16 18  1  0
 16 19  1  0
 19 20  1  0
 19 21  1  0
 19 22  1  0
 22 23  1  0
 22 24  1  0
 22 25  1  0
 25 26  1  0
 25 27  1  0
 25 28  1  0
 28 29  1  0
 28 30  1  0
 28 31  1  0
 31 32  1  0
 31 33  1  0
 31 34  1  0
 34 35  1  0
 34 36  1  0
 34 37  1  0
  6 38  1  0
 38 39  1  0
 38 40  2  0
 40 41  1  0
 40  2  1  0
 12  8  1  0
M  END
>  <plip>  (1) 
-0.07142857142857142

>  <filename>  (1) 
[H][c]1[n][c]([H])[c]([O][c]2[n][n][n][n]2[C]([H])([H])[C]([H])([H])[C]([H])([H])[C]([H])([H])[C]([H])([H])[C]([H])([H])[C]([H])([H])[C]([H])([H])[H])[c]([H])[c]1[H]

$$$$
