
     RDKit          3D

 35 36  0  0  0  0  0  0  0  0999 V2000
    9.6417    1.6482   24.1587 C   0  0  0  0  0  0  0  0  0  0  0  0
    9.3319    2.2553   22.8062 C   0  0  0  0  0  0  0  0  0  0  0  0
    8.1556    1.6031   22.2625 N   0  0  0  0  0  4  0  0  0  0  0  0
    8.5035    0.2961   21.5949 C   0  0  0  0  0  0  0  0  0  0  0  0
    7.4069   -0.6379   21.0117 C   0  0  0  0  0  0  0  0  0  0  0  0
    8.0554   -1.7252   20.5200 F   0  0  0  0  0  0  0  0  0  0  0  0
    6.5611   -1.0696   21.9825 F   0  0  0  0  0  0  0  0  0  0  0  0
    6.6384    0.0221   19.9020 C   0  0  0  0  0  0  0  0  0  0  0  0
    5.4205    0.6672   20.1363 C   0  0  0  0  0  0  0  0  0  0  0  0
    4.8184    1.3143   19.0626 C   0  0  0  0  0  0  0  0  0  0  0  0
    5.4271    1.2937   17.8042 C   0  0  0  0  0  0  0  0  0  0  0  0
    6.5805    0.6415   17.5771 N   0  0  0  0  0  0  0  0  0  0  0  0
    7.1658    0.0167   18.6067 C   0  0  0  0  0  0  0  0  0  0  0  0
    8.1022   -0.5006   18.4256 H   0  0  0  0  0  0  0  0  0  0  0  0
    4.9531    1.8204   16.9809 H   0  0  0  0  0  0  0  0  0  0  0  0
    3.8846    1.8496   19.1890 H   0  0  0  0  0  0  0  0  0  0  0  0
    4.9541    0.6765   21.1231 H   0  0  0  0  0  0  0  0  0  0  0  0
    9.0612   -0.3189   22.3094 H   0  0  0  0  0  0  0  0  0  0  0  0
    9.1795    0.5036   20.7571 H   0  0  0  0  0  0  0  0  0  0  0  0
    7.7262    2.2603   21.6070 H   0  0  0  0  0  0  0  0  0  0  0  0
    7.5023    1.4682   23.0422 H   0  0  0  0  0  0  0  0  0  0  0  0
    8.8843    3.6578   22.9659 C   0  0  0  0  0  0  0  0  0  0  0  0
    9.7389    4.7147   22.6643 C   0  0  0  0  0  0  0  0  0  0  0  0
    9.2157    6.0055   22.7544 C   0  0  0  0  0  0  0  0  0  0  0  0
    7.8971    6.1960   23.1896 C   0  0  0  0  0  0  0  0  0  0  0  0
    7.1537    7.9635   23.2025 Br  0  0  0  0  0  0  0  0  0  0  0  0
    7.1074    5.1711   23.5277 N   0  0  0  0  0  0  0  0  0  0  0  0
    7.5916    3.9295   23.4260 C   0  0  0  0  0  0  0  0  0  0  0  0
    6.7891    2.8991   23.7643 F   0  0  0  0  0  0  0  0  0  0  0  0
    9.8025    6.8724   22.4596 H   0  0  0  0  0  0  0  0  0  0  0  0
   10.7589    4.5275   22.3193 H   0  0  0  0  0  0  0  0  0  0  0  0
   10.2009    2.1810   22.1310 H   0  0  0  0  0  0  0  0  0  0  0  0
    8.7455    1.6501   24.7868 H   0  0  0  0  0  0  0  0  0  0  0  0
    9.9774    0.6187   24.0375 H   0  0  0  0  0  0  0  0  0  0  0  0
   10.4280    2.2195   24.6591 H   0  0  0  0  0  0  0  0  0  0  0  0
  1  2  1  0
  2  3  1  0
  3  4  1  0
  4  5  1  0
  5  6  1  0
  5  7  1  0
  5  8  1  0
  8  9  2  0
  9 10  1  0
 10 11  2  0
 11 12  1  0
 12 13  2  0
 13 14  1  0
 11 15  1  0
 10 16  1  0
  9 17  1  0
  4 18  1  0
  4 19  1  0
  3 20  1  0
  3 21  1  0
  2 22  1  0
 22 23  2  0
 23 24  1  0
 24 25  2  0
 25 26  1  0
 25 27  1  0
 27 28  2  0
 28 29  1  0
 24 30  1  0
 23 31  1  0
  2 32  1  0
  1 33  1  0
  1 34  1  0
  1 35  1  0
 13  8  1  0
 28 22  1  0
M  CHG  1   3   1
M  END
>  <plip>  (1) 
-0.034482758620689655

>  <filename>  (1) 
[H][c]1[n][c]([H])[c]([C]([F])([F])[C]([H])([H])[N+]([H])([H])[C]([H])([c]2[c]([F])[n][c]([Br])[c]([H])[c]2[H])[C]([H])([H])[H])[c]([H])[c]1[H]

$$$$
