
     RDKit          3D

 50 52  0  0  0  0  0  0  0  0999 V2000
    8.2837   -6.3087   28.2731 N   0  0  0  0  0  4  0  0  0  0  0  0
    8.2240   -6.1427   26.7739 C   0  0  2  0  0  0  0  0  0  0  0  0
    9.6009   -6.4549   26.1876 C   0  0  0  0  0  0  0  0  0  0  0  0
    9.7503   -5.5742   24.9639 C   0  0  2  0  0  0  0  0  0  0  0  0
   11.1210   -5.3053   24.7002 O   0  0  0  0  0  0  0  0  0  0  0  0
   11.5928   -6.1555   24.6891 H   0  0  0  0  0  0  0  0  0  0  0  0
    8.9952   -4.2740   25.3186 C   0  0  1  0  0  0  0  0  0  0  0  0
    8.3548   -3.5914   24.1444 N   0  0  0  0  0  4  0  0  0  0  0  0
    9.3296   -3.2757   23.0275 C   0  0  0  0  0  0  0  0  0  0  0  0
    8.6568   -2.4290   21.9341 C   0  0  0  0  0  0  0  0  0  0  0  0
    7.1171   -2.5464   21.9146 C   0  0  0  0  0  0  0  0  0  0  0  0
    6.4781   -1.7369   20.7674 C   0  0  0  0  0  0  0  0  0  0  0  0
    7.0288   -0.3092   20.5859 C   0  0  0  0  0  0  0  0  0  0  0  0
    6.3809    0.4608   19.4596 C   0  0  0  0  0  0  0  0  0  0  0  0
    5.1810    1.1666   19.6263 C   0  0  0  0  0  0  0  0  0  0  0  0
    4.6050    1.8061   18.5279 C   0  0  0  0  0  0  0  0  0  0  0  0
    5.2533    1.7382   17.2927 C   0  0  0  0  0  0  0  0  0  0  0  0
    6.4025    1.0758   17.1064 N   0  0  0  0  0  0  0  0  0  0  0  0
    6.9460    0.4770   18.1721 C   0  0  0  0  0  0  0  0  0  0  0  0
    7.9041   -0.0066   17.9877 H   0  0  0  0  0  0  0  0  0  0  0  0
    4.8426    2.2331   16.4142 H   0  0  0  0  0  0  0  0  0  0  0  0
    3.6848    2.3711   18.6197 H   0  0  0  0  0  0  0  0  0  0  0  0
    4.7138    1.2332   20.6103 H   0  0  0  0  0  0  0  0  0  0  0  0
    8.1076   -0.3708   20.3899 H   0  0  0  0  0  0  0  0  0  0  0  0
    6.9137    0.2554   21.5215 H   0  0  0  0  0  0  0  0  0  0  0  0
    5.3932   -1.6895   20.9229 H   0  0  0  0  0  0  0  0  0  0  0  0
    6.6230   -2.2769   19.8226 H   0  0  0  0  0  0  0  0  0  0  0  0
    6.5520   -2.1659   23.3168 C   0  0  0  0  0  0  0  0  0  0  0  0
    7.5782   -2.3332   24.4424 C   0  0  0  0  0  0  0  0  0  0  0  0
    8.2797   -1.4927   24.4632 H   0  0  0  0  0  0  0  0  0  0  0  0
    7.1241   -2.3833   25.4325 H   0  0  0  0  0  0  0  0  0  0  0  0
    6.2096   -1.1275   23.3258 H   0  0  0  0  0  0  0  0  0  0  0  0
    5.6781   -2.7919   23.5380 H   0  0  0  0  0  0  0  0  0  0  0  0
    6.8560   -3.6019   21.7383 H   0  0  0  0  0  0  0  0  0  0  0  0
    9.0908   -2.6533   20.9551 H   0  0  0  0  0  0  0  0  0  0  0  0
    8.8962   -1.3785   22.1498 H   0  0  0  0  0  0  0  0  0  0  0  0
    9.7365   -4.2123   22.6493 H   0  0  0  0  0  0  0  0  0  0  0  0
   10.1686   -2.7240   23.4694 H   0  0  0  0  0  0  0  0  0  0  0  0
    7.6543   -4.2552   23.7564 H   0  0  0  0  0  0  0  0  0  0  0  0
    7.9183   -4.6884   26.3549 C   0  0  0  0  0  0  0  0  0  0  0  0
    6.9265   -4.6473   25.8876 H   0  0  0  0  0  0  0  0  0  0  0  0
    7.8983   -3.9857   27.1983 H   0  0  0  0  0  0  0  0  0  0  0  0
    9.7443   -3.5976   25.7539 H   0  0  0  0  0  0  0  0  0  0  0  0
    9.2442   -6.0181   24.0834 H   0  0  0  0  0  0  0  0  0  0  0  0
    9.7730   -7.5181   25.9705 H   0  0  0  0  0  0  0  0  0  0  0  0
   10.3756   -6.1150   26.8879 H   0  0  0  0  0  0  0  0  0  0  0  0
    7.4672   -6.8160   26.3425 H   0  0  0  0  0  0  0  0  0  0  0  0
    8.7991   -7.1880   28.4754 H   0  0  0  0  0  0  0  0  0  0  0  0
    8.8339   -5.5214   28.6710 H   0  0  0  0  0  0  0  0  0  0  0  0
    7.3549   -6.3447   28.7239 H   0  0  0  0  0  0  0  0  0  0  0  0
  1  2  1  0
  2  3  1  0
  3  4  1  0
  4  5  1  0
  5  6  1  0
  4  7  1  0
  7  8  1  0
  8  9  1  0
  9 10  1  0
 10 11  1  0
 11 12  1  0
 12 13  1  0
 13 14  1  0
 14 15  2  0
 15 16  1  0
 16 17  2  0
 17 18  1  0
 18 19  2  0
 19 20  1  0
 17 21  1  0
 16 22  1  0
 15 23  1  0
 13 24  1  0
 13 25  1  0
 12 26  1  0
 12 27  1  0
 11 28  1  0
 28 29  1  0
 29 30  1  0
 29 31  1  0
 28 32  1  0
 28 33  1  0
 11 34  1  0
 10 35  1  0
 10 36  1  0
  9 37  1  0
  9 38  1  0
  8 39  1  0
  7 40  1  0
 40 41  1  0
 40 42  1  0
  7 43  1  1
  4 44  1  6
  3 45  1  0
  3 46  1  0
  2 47  1  6
  1 48  1  0
  1 49  1  0
  1 50  1  0
 40  2  1  0
 29  8  1  0
 19 14  1  0
M  CHG  2   1   1   8   1
M  END
>  <plip>  (1) 
-0.13793103448275862

>  <filename>  (1) 
[H][O][C@@]1([H])[C]([H])([H])[C@@]([H])([N+]([H])([H])[H])[C]([H])([H])[C@]1([H])[N+]1([H])[C]([H])([H])[C]([H])([H])[C]([H])([C]([H])([H])[C]([H])([H])[c]2[c]([H])[n][c]([H])[c]([H])[c]2[H])[C]([H])([H])[C]1([H])[H]

$$$$
