
     RDKit          3D

 37 39  0  0  0  0  0  0  0  0999 V2000
   11.0676   -0.6336   23.5128 C   0  0  0  0  0  0  0  0  0  0  0  0
   10.5836   -0.7550   22.4192 C   0  0  0  0  0  0  0  0  0  0  0  0
    9.8994   -0.5671   21.1294 C   0  0  0  0  0  0  0  0  0  0  0  0
    8.5837    0.0295   21.3572 N   0  0  0  0  0  0  0  0  0  0  0  0
    7.3723   -0.7044   21.0157 C   0  0  0  0  0  0  0  0  0  0  0  0
    6.6086   -0.0195   19.9005 C   0  0  0  0  0  0  0  0  0  0  0  0
    5.4004    0.6473   20.1363 C   0  0  0  0  0  0  0  0  0  0  0  0
    4.7745    1.3189   19.0813 C   0  0  0  0  0  0  0  0  0  0  0  0
    5.3870    1.3015   17.8254 C   0  0  0  0  0  0  0  0  0  0  0  0
    6.5507    0.6806   17.5814 N   0  0  0  0  0  0  0  0  0  0  0  0
    7.1447    0.0547   18.6047 C   0  0  0  0  0  0  0  0  0  0  0  0
    8.1037   -0.4105   18.3665 H   0  0  0  0  0  0  0  0  0  0  0  0
    4.9304    1.8089   16.9763 H   0  0  0  0  0  0  0  0  0  0  0  0
    3.8465    1.8662   19.2172 H   0  0  0  0  0  0  0  0  0  0  0  0
    4.9754    0.6498   21.1404 H   0  0  0  0  0  0  0  0  0  0  0  0
    7.6660   -1.7200   20.7121 H   0  0  0  0  0  0  0  0  0  0  0  0
    6.7426   -0.8023   21.9094 H   0  0  0  0  0  0  0  0  0  0  0  0
    8.5815    1.3698   21.7383 C   0  0  0  0  0  0  0  0  0  0  0  0
    9.5133    2.1047   21.4352 O   0  0  0  0  0  0  0  0  0  0  0  0
    7.4025    1.9413   22.5366 C   0  0  0  0  0  0  0  0  0  0  0  0
    7.0397    3.2721   22.4135 C   0  0  0  0  0  0  0  0  0  0  0  0
    5.9686    3.7618   23.2003 C   0  0  0  0  0  0  0  0  0  0  0  0
    5.4722    5.0969   23.1534 C   0  0  0  0  0  0  0  0  0  0  0  0
    4.4179    5.4721   23.9575 C   0  0  0  0  0  0  0  0  0  0  0  0
    3.8112    4.5406   24.8481 C   0  0  0  0  0  0  0  0  0  0  0  0
    4.2736    3.2493   24.9236 C   0  0  0  0  0  0  0  0  0  0  0  0
    5.3626    2.8354   24.0999 C   0  0  0  0  0  0  0  0  0  0  0  0
    5.7960    1.5322   24.1868 N   0  0  0  0  0  0  0  0  0  0  0  0
    6.7570    1.1058   23.4246 N   0  0  0  0  0  0  0  0  0  0  0  0
    3.8451    2.5039   25.5825 H   0  0  0  0  0  0  0  0  0  0  0  0
    2.9757    4.8685   25.4637 H   0  0  0  0  0  0  0  0  0  0  0  0
    4.0369    6.4870   23.9160 H   0  0  0  0  0  0  0  0  0  0  0  0
    5.9353    5.8045   22.4711 H   0  0  0  0  0  0  0  0  0  0  0  0
    7.5724    3.9316   21.7377 H   0  0  0  0  0  0  0  0  0  0  0  0
    9.7976   -1.4874   20.5449 H   0  0  0  0  0  0  0  0  0  0  0  0
   10.4817    0.1514   20.5636 H   0  0  0  0  0  0  0  0  0  0  0  0
   11.4839   -0.5750   24.4958 H   0  0  0  0  0  0  0  0  0  0  0  0
  1  2  3  0
  2  3  1  0
  3  4  1  0
  4  5  1  0
  5  6  1  0
  6  7  2  0
  7  8  1  0
  8  9  2  0
  9 10  1  0
 10 11  2  0
 11 12  1  0
  9 13  1  0
  8 14  1  0
  7 15  1  0
  5 16  1  0
  5 17  1  0
  4 18  1  0
 18 19  2  0
 18 20  1  0
 20 21  2  0
 21 22  1  0
 22 23  2  0
 23 24  1  0
 24 25  2  0
 25 26  1  0
 26 27  2  0
 27 28  1  0
 28 29  2  0
 26 30  1  0
 25 31  1  0
 24 32  1  0
 23 33  1  0
 21 34  1  0
  3 35  1  0
  3 36  1  0
  1 37  1  0
 11  6  1  0
 29 20  1  0
 27 22  1  0
M  END
>  <plip>  (1) 
-0.10714285714285714

>  <filename>  (1) 
[H][C]#[C][C]([H])([H])[N]([C](=[O])[c]1[n][n][c]2[c]([H])[c]([H])[c]([H])[c]([H])[c]2[c]1[H])[C]([H])([H])[c]1[c]([H])[n][c]([H])[c]([H])[c]1[H]

$$$$
