
     RDKit          3D

 38 39  0  0  0  0  0  0  0  0999 V2000
    9.5612    0.4031   21.4459 O   0  0  0  0  0  0  0  0  0  0  0  0
    8.3795    0.3306   21.7034 C   0  0  0  0  0  0  0  0  0  0  0  0
    7.4214   -0.6506   21.0354 C   0  0  0  0  0  0  0  0  0  0  0  0
    6.6453   -0.0023   19.8953 C   0  0  0  0  0  0  0  0  0  0  0  0
    5.4343    0.6535   20.1412 C   0  0  0  0  0  0  0  0  0  0  0  0
    4.7924    1.3170   19.0898 C   0  0  0  0  0  0  0  0  0  0  0  0
    5.3878    1.2998   17.8245 C   0  0  0  0  0  0  0  0  0  0  0  0
    6.5451    0.6743   17.5646 N   0  0  0  0  0  0  0  0  0  0  0  0
    7.1510    0.0524   18.5830 C   0  0  0  0  0  0  0  0  0  0  0  0
    8.1043   -0.4193   18.3516 H   0  0  0  0  0  0  0  0  0  0  0  0
    4.9199    1.8060   16.9804 H   0  0  0  0  0  0  0  0  0  0  0  0
    3.8627    1.8546   19.2365 H   0  0  0  0  0  0  0  0  0  0  0  0
    5.0136    0.6480   21.1491 H   0  0  0  0  0  0  0  0  0  0  0  0
    8.0325   -1.4817   20.6754 H   0  0  0  0  0  0  0  0  0  0  0  0
    6.7340   -1.0465   21.7904 H   0  0  0  0  0  0  0  0  0  0  0  0
    7.7518    1.1170   22.5972 O   0  0  0  0  0  0  0  0  0  0  0  0
    8.5628    2.1107   23.2581 C   0  0  0  0  0  0  0  0  0  0  0  0
    7.7057    2.8760   24.1585 C   0  0  0  0  0  0  0  0  0  0  0  0
    7.0444    3.5421   24.9184 C   0  0  0  0  0  0  0  0  0  0  0  0
    6.1684    4.3025   25.8294 C   0  0  0  0  0  0  0  0  0  0  0  0
    5.8110    3.4745   27.0921 C   0  0  0  0  0  0  0  0  0  0  0  0
    4.8594    4.2398   28.0288 C   0  0  0  0  0  0  0  0  0  0  0  0
    3.5919    4.7063   27.2925 C   0  0  0  0  0  0  0  0  0  0  0  0
    3.9381    5.5406   26.0474 C   0  0  0  0  0  0  0  0  0  0  0  0
    4.8851    4.7819   25.1011 C   0  0  0  0  0  0  0  0  0  0  0  0
    4.3691    3.9014   24.6876 H   0  0  0  0  0  0  0  0  0  0  0  0
    5.1567    5.4120   24.2441 H   0  0  0  0  0  0  0  0  0  0  0  0
    3.0239    5.8271   25.5131 H   0  0  0  0  0  0  0  0  0  0  0  0
    4.4147    6.4829   26.3614 H   0  0  0  0  0  0  0  0  0  0  0  0
    2.9424    5.2771   27.9690 H   0  0  0  0  0  0  0  0  0  0  0  0
    3.0095    3.8241   26.9839 H   0  0  0  0  0  0  0  0  0  0  0  0
    4.5924    3.6116   28.8876 H   0  0  0  0  0  0  0  0  0  0  0  0
    5.3825    5.1161   28.4435 H   0  0  0  0  0  0  0  0  0  0  0  0
    6.7284    3.1921   27.6245 H   0  0  0  0  0  0  0  0  0  0  0  0
    5.3366    2.5345   26.7699 H   0  0  0  0  0  0  0  0  0  0  0  0
    6.7217    5.1973   26.1593 H   0  0  0  0  0  0  0  0  0  0  0  0
    9.0340    2.7677   22.5141 H   0  0  0  0  0  0  0  0  0  0  0  0
    9.3725    1.6178   23.8123 H   0  0  0  0  0  0  0  0  0  0  0  0
  1  2  2  0
  2  3  1  0
  3  4  1  0
  4  5  2  0
  5  6  1  0
  6  7  2  0
  7  8  1  0
  8  9  2  0
  9 10  1  0
  7 11  1  0
  6 12  1  0
  5 13  1  0
  3 14  1  0
  3 15  1  0
  2 16  1  0
 16 17  1  0
 17 18  1  0
 18 19  3  0
 19 20  1  0
 20 21  1  0
 21 22  1  0
 22 23  1  0
 23 24  1  0
 24 25  1  0
 25 26  1  0
 25 27  1  0
 24 28  1  0
 24 29  1  0
 23 30  1  0
 23 31  1  0
 22 32  1  0
 22 33  1  0
 21 34  1  0
 21 35  1  0
 20 36  1  0
 17 37  1  0
 17 38  1  0
  9  4  1  0
 25 20  1  0
M  END
>  <plip>  (1) 
-0.03571428571428571

>  <filename>  (1) 
[H][c]1[n][c]([H])[c]([C]([H])([H])[C](=[O])[O][C]([H])([H])[C]#[C][C]2([H])[C]([H])([H])[C]([H])([H])[C]([H])([H])[C]([H])([H])[C]2([H])[H])[c]([H])[c]1[H]

$$$$
