
     RDKit          3D

 37 38  0  0  0  0  0  0  0  0999 V2000
    4.9142    1.7793   16.9975 H   0  0  0  0  0  0  0  0  0  0  0  0
    5.4008    1.2916   17.8453 C   0  0  0  0  0  0  0  0  0  0  0  0
    6.5686    0.6722   17.5962 N   0  0  0  0  0  0  0  0  0  0  0  0
    7.1817    0.0588   18.6167 C   0  0  0  0  0  0  0  0  0  0  0  0
    8.1246   -0.4361   18.3921 H   0  0  0  0  0  0  0  0  0  0  0  0
    6.6748    0.0136   19.9335 C   0  0  0  0  0  0  0  0  0  0  0  0
    7.3894   -0.7116   20.8601 O   0  0  0  0  0  0  0  0  0  0  0  0
    7.3317   -0.4310   22.2501 C   0  0  2  0  0  0  0  0  0  0  0  0
    6.2787   -0.4599   22.5833 H   0  0  0  0  0  0  0  0  0  0  0  0
    7.9061    0.8219   22.5173 O   0  0  0  0  0  0  0  0  0  0  0  0
    7.1019    1.7613   23.2216 C   0  0  0  0  0  0  0  0  0  0  0  0
    6.0736    1.6975   22.8361 H   0  0  0  0  0  0  0  0  0  0  0  0
    7.6475    3.1572   22.9264 C   0  0  0  0  0  0  0  0  0  0  0  0
    6.9297    3.8911   23.3156 H   0  0  0  0  0  0  0  0  0  0  0  0
    7.7126    3.3156   21.8457 H   0  0  0  0  0  0  0  0  0  0  0  0
    9.0166    3.3808   23.5931 C   0  0  0  0  0  0  0  0  0  0  0  0
    9.3404    4.4175   23.4379 H   0  0  0  0  0  0  0  0  0  0  0  0
    9.7593    2.7480   23.0970 H   0  0  0  0  0  0  0  0  0  0  0  0
    9.0273    3.0897   25.0330 N   0  0  0  0  0  0  0  0  0  0  0  0
    8.3773    4.1216   25.8276 C   0  0  0  0  0  0  0  0  0  0  0  0
    7.2985    4.2484   25.6259 H   0  0  0  0  0  0  0  0  0  0  0  0
    8.4883    3.8977   26.8933 H   0  0  0  0  0  0  0  0  0  0  0  0
    8.8607    5.0878   25.6514 H   0  0  0  0  0  0  0  0  0  0  0  0
    8.5219    1.7406   25.3215 C   0  0  0  0  0  0  0  0  0  0  0  0
    9.2324    1.0067   24.9230 H   0  0  0  0  0  0  0  0  0  0  0  0
    8.5036    1.5947   26.4079 H   0  0  0  0  0  0  0  0  0  0  0  0
    7.1251    1.4730   24.7302 C   0  0  0  0  0  0  0  0  0  0  0  0
    6.8160    0.4419   24.9284 H   0  0  0  0  0  0  0  0  0  0  0  0
    6.3867    2.1212   25.2138 H   0  0  0  0  0  0  0  0  0  0  0  0
    8.1111   -1.5267   22.9426 C   0  0  0  0  0  0  0  0  0  0  0  0
    7.6617   -2.4995   22.7320 H   0  0  0  0  0  0  0  0  0  0  0  0
    9.1480   -1.5267   22.6031 H   0  0  0  0  0  0  0  0  0  0  0  0
    8.0990   -1.3777   24.0260 H   0  0  0  0  0  0  0  0  0  0  0  0
    5.4541    0.6515   20.1802 C   0  0  0  0  0  0  0  0  0  0  0  0
    5.0102    0.6263   21.1805 H   0  0  0  0  0  0  0  0  0  0  0  0
    4.8126    1.3059   19.1117 C   0  0  0  0  0  0  0  0  0  0  0  0
    3.8787    1.8379   19.2630 H   0  0  0  0  0  0  0  0  0  0  0  0
  1  2  1  0
  2  3  2  0
  3  4  1  0
  4  5  1  0
  4  6  2  0
  6  7  1  0
  7  8  1  0
  8  9  1  1
  8 10  1  0
 10 11  1  0
 11 12  1  0
 11 13  1  0
 13 14  1  0
 13 15  1  0
 13 16  1  0
 16 17  1  0
 16 18  1  0
 16 19  1  0
 19 20  1  0
 20 21  1  0
 20 22  1  0
 20 23  1  0
 19 24  1  0
 24 25  1  0
 24 26  1  0
 24 27  1  0
 27 28  1  0
 27 29  1  0
  8 30  1  0
 30 31  1  0
 30 32  1  0
 30 33  1  0
  6 34  1  0
 34 35  1  0
 34 36  2  0
 36 37  1  0
 36  2  1  0
 27 11  1  0
M  END
>  <plip>  (1) 
-0.03571428571428571

>  <filename>  (1) 
[H][c]1[n][c]([H])[c]([O][C@]([H])([O][C]2([H])[C]([H])([H])[C]([H])([H])[N]([C]([H])([H])[H])[C]([H])([H])[C]2([H])[H])[C]([H])([H])[H])[c]([H])[c]1[H]

$$$$
