
     RDKit          3D

 33 35  0  0  0  0  0  0  0  0999 V2000
    5.0385    1.7385   16.8866 H   0  0  0  0  0  0  0  0  0  0  0  0
    5.4656    1.3059   17.7927 C   0  0  0  0  0  0  0  0  0  0  0  0
    6.6579    0.7067   17.6558 N   0  0  0  0  0  0  0  0  0  0  0  0
    7.2103    0.1685   18.7524 C   0  0  0  0  0  0  0  0  0  0  0  0
    8.1830   -0.3042   18.6141 H   0  0  0  0  0  0  0  0  0  0  0  0
    6.6210    0.1778   20.0204 C   0  0  0  0  0  0  0  0  0  0  0  0
    7.2978   -0.5062   21.1872 C   0  0  2  0  0  0  0  0  0  0  0  0
    6.7296   -0.2502   22.0871 H   0  0  0  0  0  0  0  0  0  0  0  0
    9.0013    0.1905   21.3868 S   0  0  0  0  0  0  0  0  0  0  0  0
    9.3545   -0.4487   23.0226 C   0  0  0  0  0  0  0  0  0  0  0  0
    9.8800   -1.6504   23.1242 N   0  0  0  0  0  0  0  0  0  0  0  0
    9.8460   -2.2547   24.3616 C   0  0  0  0  0  0  0  0  0  0  0  0
   10.3817   -3.5652   24.4749 C   0  0  0  0  0  0  0  0  0  0  0  0
   10.8570   -3.9651   23.5862 H   0  0  0  0  0  0  0  0  0  0  0  0
   10.2586   -4.2700   25.6570 C   0  0  0  0  0  0  0  0  0  0  0  0
   10.6641   -5.2746   25.7417 H   0  0  0  0  0  0  0  0  0  0  0  0
    9.5853   -3.6971   26.7767 C   0  0  0  0  0  0  0  0  0  0  0  0
    9.4842   -4.2644   27.7028 H   0  0  0  0  0  0  0  0  0  0  0  0
    9.0824   -2.4175   26.7055 C   0  0  0  0  0  0  0  0  0  0  0  0
    8.5444   -1.9820   27.5481 H   0  0  0  0  0  0  0  0  0  0  0  0
    9.2411   -1.6516   25.5078 C   0  0  0  0  0  0  0  0  0  0  0  0
    8.8162   -0.2924   25.3700 C   0  0  0  0  0  0  0  0  0  0  0  0
    8.4117    0.2352   26.2320 H   0  0  0  0  0  0  0  0  0  0  0  0
    8.9151    0.3251   24.1463 C   0  0  0  0  0  0  0  0  0  0  0  0
    8.6299    1.3627   23.9957 H   0  0  0  0  0  0  0  0  0  0  0  0
    7.3392   -2.0324   21.0617 C   0  0  0  0  0  0  0  0  0  0  0  0
    6.4195   -2.4324   20.6325 H   0  0  0  0  0  0  0  0  0  0  0  0
    7.4885   -2.4986   22.0376 H   0  0  0  0  0  0  0  0  0  0  0  0
    8.1800   -2.3389   20.4427 H   0  0  0  0  0  0  0  0  0  0  0  0
    5.3636    0.7962   20.1390 C   0  0  0  0  0  0  0  0  0  0  0  0
    4.8539    0.8352   21.1031 H   0  0  0  0  0  0  0  0  0  0  0  0
    4.7779    1.3693   19.0069 C   0  0  0  0  0  0  0  0  0  0  0  0
    3.8146    1.8691   19.0475 H   0  0  0  0  0  0  0  0  0  0  0  0
  1  2  1  0
  2  3  2  0
  3  4  1  0
  4  5  1  0
  4  6  2  0
  6  7  1  0
  7  8  1  1
  7  9  1  0
  9 10  1  0
 10 11  2  0
 11 12  1  0
 12 13  2  0
 13 14  1  0
 13 15  1  0
 15 16  1  0
 15 17  2  0
 17 18  1  0
 17 19  1  0
 19 20  1  0
 19 21  2  0
 21 22  1  0
 22 23  1  0
 22 24  2  0
 24 25  1  0
  7 26  1  0
 26 27  1  0
 26 28  1  0
 26 29  1  0
  6 30  1  0
 30 31  1  0
 30 32  2  0
 32 33  1  0
 32  2  1  0
 24 10  1  0
 21 12  1  0
M  END
>  <plip>  (1) 
-0.034482758620689655

>  <filename>  (1) 
[H][c]1[n][c]([H])[c]([C@]([H])([S][c]2[n][c]3[c]([H])[c]([H])[c]([H])[c]([H])[c]3[c]([H])[c]2[H])[C]([H])([H])[H])[c]([H])[c]1[H]

$$$$
