
     RDKit          3D

 26 26  0  0  0  0  0  0  0  0999 V2000
    4.9314    1.8142   16.9632 H   0  0  0  0  0  0  0  0  0  0  0  0
    5.3935    1.3066   17.8107 C   0  0  0  0  0  0  0  0  0  0  0  0
    6.5527    0.6772   17.5677 N   0  0  0  0  0  0  0  0  0  0  0  0
    7.1588    0.0518   18.5896 C   0  0  0  0  0  0  0  0  0  0  0  0
    8.1051   -0.4321   18.3487 H   0  0  0  0  0  0  0  0  0  0  0  0
    6.6448    0.0108   19.9167 C   0  0  0  0  0  0  0  0  0  0  0  0
    7.2478   -0.6756   20.9926 N   0  0  0  0  0  0  0  0  0  0  0  0
    7.7783   -2.0083   20.7959 C   0  0  0  0  0  0  0  0  0  0  0  0
    8.0558   -2.4336   21.7661 H   0  0  0  0  0  0  0  0  0  0  0  0
    7.0163   -2.6531   20.3372 H   0  0  0  0  0  0  0  0  0  0  0  0
    8.6740   -1.9865   20.1576 H   0  0  0  0  0  0  0  0  0  0  0  0
    7.4956   -0.0597   22.2707 C   0  0  0  0  0  0  0  0  0  0  0  0
    7.0046   -0.6421   23.0600 H   0  0  0  0  0  0  0  0  0  0  0  0
    7.0940    0.9656   22.2610 H   0  0  0  0  0  0  0  0  0  0  0  0
    8.8601   -0.0900   22.6218 O   0  0  0  0  0  0  0  0  0  0  0  0
    9.6861    0.8340   21.9466 C   0  0  0  0  0  0  0  0  0  0  0  0
    9.5965    0.7523   20.8566 H   0  0  0  0  0  0  0  0  0  0  0  0
    9.4639    1.8689   22.2393 H   0  0  0  0  0  0  0  0  0  0  0  0
   11.1621    0.6228   22.2672 C   0  0  0  0  0  0  0  0  0  0  0  0
   11.4397    0.7563   23.5701 F   0  0  0  0  0  0  0  0  0  0  0  0
   11.6303   -0.5685   21.8712 F   0  0  0  0  0  0  0  0  0  0  0  0
   11.8495    1.5741   21.5987 F   0  0  0  0  0  0  0  0  0  0  0  0
    5.4306    0.6846   20.1317 C   0  0  0  0  0  0  0  0  0  0  0  0
    5.0072    0.6492   21.1338 H   0  0  0  0  0  0  0  0  0  0  0  0
    4.7915    1.3337   19.0732 C   0  0  0  0  0  0  0  0  0  0  0  0
    3.8539    1.8608   19.2225 H   0  0  0  0  0  0  0  0  0  0  0  0
  1  2  1  0
  2  3  2  0
  3  4  1  0
  4  5  1  0
  4  6  2  0
  6  7  1  0
  7  8  1  0
  8  9  1  0
  8 10  1  0
  8 11  1  0
  7 12  1  0
 12 13  1  0
 12 14  1  0
 12 15  1  0
 15 16  1  0
 16 17  1  0
 16 18  1  0
 16 19  1  0
 19 20  1  0
 19 21  1  0
 19 22  1  0
  6 23  1  0
 23 24  1  0
 23 25  2  0
 25 26  1  0
 25  2  1  0
M  END
>  <plip>  (1) 
-0.03571428571428571

>  <filename>  (1) 
[H][c]1[n][c]([H])[c]([N]([C]([H])([H])[H])[C]([H])([H])[O][C]([H])([H])[C]([F])([F])[F])[c]([H])[c]1[H]

$$$$
