
     RDKit          3D

 38 40  0  0  0  0  0  0  0  0999 V2000
    4.9691    1.7758   16.9947 H   0  0  0  0  0  0  0  0  0  0  0  0
    5.4199    1.2830   17.8495 C   0  0  0  0  0  0  0  0  0  0  0  0
    6.5792    0.6524   17.6097 N   0  0  0  0  0  0  0  0  0  0  0  0
    7.1649    0.0407   18.6412 C   0  0  0  0  0  0  0  0  0  0  0  0
    8.1122   -0.4526   18.4172 H   0  0  0  0  0  0  0  0  0  0  0  0
    6.6227    0.0009   19.9300 C   0  0  0  0  0  0  0  0  0  0  0  0
    7.3217   -0.7435   20.9897 C   0  0  0  0  0  0  0  0  0  0  0  0
    6.5643   -1.2987   21.8992 N   0  0  0  0  0  0  0  0  0  0  0  0
    7.1659   -1.9720   22.9162 C   0  0  0  0  0  0  0  0  0  0  0  0
    6.6169   -2.5396   23.8387 O   0  0  0  0  0  0  0  0  0  0  0  0
    8.5596   -2.0364   22.9340 N   0  0  0  0  0  0  0  0  0  0  0  0
    8.7904   -2.5213   23.7862 H   0  0  0  0  0  0  0  0  0  0  0  0
    9.3851   -1.4385   22.0292 C   0  0  0  0  0  0  0  0  0  0  0  0
   10.8954   -1.4712   22.2727 C   0  0  0  0  0  0  0  0  0  0  0  0
   11.2138   -2.4850   22.5472 H   0  0  0  0  0  0  0  0  0  0  0  0
   11.3975   -1.2445   21.3255 H   0  0  0  0  0  0  0  0  0  0  0  0
   11.3949   -0.5339   23.3009 N   0  0  0  0  0  0  0  0  0  0  0  0
   10.9076   -0.7056   24.1808 H   0  0  0  0  0  0  0  0  0  0  0  0
   11.2027    0.8839   22.9677 C   0  0  0  0  0  0  0  0  0  0  0  0
   10.1587    1.1003   22.6665 H   0  0  0  0  0  0  0  0  0  0  0  0
   12.1337    1.3230   21.8320 C   0  0  0  0  0  0  0  0  0  0  0  0
   11.6714    1.1287   20.8554 H   0  0  0  0  0  0  0  0  0  0  0  0
   13.0407    0.7073   21.9023 H   0  0  0  0  0  0  0  0  0  0  0  0
   12.4358    2.8230   22.0683 C   0  0  0  0  0  0  0  0  0  0  0  0
   13.5071    3.0309   22.0010 H   0  0  0  0  0  0  0  0  0  0  0  0
   11.9453    3.4588   21.3207 H   0  0  0  0  0  0  0  0  0  0  0  0
   11.9448    3.1482   23.5023 C   0  0  0  0  0  0  0  0  0  0  0  0
   11.0793    3.8224   23.4748 H   0  0  0  0  0  0  0  0  0  0  0  0
   12.7257    3.6772   24.0548 H   0  0  0  0  0  0  0  0  0  0  0  0
   11.5750    1.7911   24.1400 C   0  0  0  0  0  0  0  0  0  0  0  0
   10.7536    1.8638   24.8652 H   0  0  0  0  0  0  0  0  0  0  0  0
   12.4296    1.3304   24.6557 H   0  0  0  0  0  0  0  0  0  0  0  0
    8.7495   -0.7925   20.9998 C   0  0  0  0  0  0  0  0  0  0  0  0
    9.3119   -0.2320   20.2650 H   0  0  0  0  0  0  0  0  0  0  0  0
    5.4072    0.6598   20.1684 C   0  0  0  0  0  0  0  0  0  0  0  0
    4.9566    0.6412   21.1653 H   0  0  0  0  0  0  0  0  0  0  0  0
    4.8008    1.3186   19.1054 C   0  0  0  0  0  0  0  0  0  0  0  0
    3.8669    1.8561   19.2330 H   0  0  0  0  0  0  0  0  0  0  0  0
  1  2  1  0
  2  3  2  0
  3  4  1  0
  4  5  1  0
  4  6  2  0
  6  7  1  0
  7  8  2  0
  8  9  1  0
  9 10  2  0
  9 11  1  0
 11 12  1  0
 11 13  1  0
 13 14  1  0
 14 15  1  0
 14 16  1  0
 14 17  1  0
 17 18  1  0
 17 19  1  0
 19 20  1  0
 19 21  1  0
 21 22  1  0
 21 23  1  0
 21 24  1  0
 24 25  1  0
 24 26  1  0
 24 27  1  0
 27 28  1  0
 27 29  1  0
 27 30  1  0
 30 31  1  0
 30 32  1  0
 13 33  2  0
 33 34  1  0
  6 35  1  0
 35 36  1  0
 35 37  2  0
 37 38  1  0
 37  2  1  0
 33  7  1  0
 30 19  1  0
M  END
>  <plip>  (1) 
-0.10344827586206896

>  <filename>  (1) 
[H][c]1[n][c]([H])[c](-[c]2[n][c](=[O])[n]([H])[c]([C]([H])([H])[N]([H])[C]3([H])[C]([H])([H])[C]([H])([H])[C]([H])([H])[C]3([H])[H])[c]2[H])[c]([H])[c]1[H]

$$$$
