
     RDKit          3D

 28 29  0  0  0  0  0  0  0  0999 V2000
   12.4849    1.8896   21.1803 H   0  0  0  0  0  0  0  0  0  0  0  0
   11.6521    1.4247   20.9774 O   0  0  0  0  0  0  0  0  0  0  0  0
   11.4713    0.4330   21.9517 N   0  0  0  0  0  0  0  0  0  0  0  0
   10.5003    0.4419   22.2487 H   0  0  0  0  0  0  0  0  0  0  0  0
   11.8579   -0.8944   21.7284 C   0  0  0  0  0  0  0  0  0  0  0  0
   12.6499   -1.3039   20.9132 O   0  0  0  0  0  0  0  0  0  0  0  0
   11.1876   -1.8388   22.7166 C   0  0  0  0  0  0  0  0  0  0  0  0
   10.9952   -1.3800   23.6930 H   0  0  0  0  0  0  0  0  0  0  0  0
   11.9252   -2.6331   22.8496 H   0  0  0  0  0  0  0  0  0  0  0  0
    9.9184   -2.5222   22.1616 C   0  0  0  0  0  0  0  0  0  0  0  0
   10.1364   -2.9135   21.1736 H   0  0  0  0  0  0  0  0  0  0  0  0
    9.6297   -3.3603   22.8048 H   0  0  0  0  0  0  0  0  0  0  0  0
    8.7266   -1.6634   21.9122 C   0  0  0  0  0  0  0  0  0  0  0  0
    8.3131   -1.2292   20.7755 N   0  0  0  0  0  0  0  0  0  0  0  0
    7.1501   -0.5186   21.0623 C   0  0  0  0  0  0  0  0  0  0  0  0
    6.4436    0.1091   19.9434 C   0  0  0  0  0  0  0  0  0  0  0  0
    7.0513    0.0532   18.6721 C   0  0  0  0  0  0  0  0  0  0  0  0
    7.9837   -0.4966   18.5545 H   0  0  0  0  0  0  0  0  0  0  0  0
    6.5616    0.6473   17.5830 N   0  0  0  0  0  0  0  0  0  0  0  0
    5.4128    1.3291   17.7215 C   0  0  0  0  0  0  0  0  0  0  0  0
    5.0415    1.8276   16.8296 H   0  0  0  0  0  0  0  0  0  0  0  0
    4.7049    1.4100   18.9249 C   0  0  0  0  0  0  0  0  0  0  0  0
    3.7802    1.9757   18.9578 H   0  0  0  0  0  0  0  0  0  0  0  0
    5.2187    0.7860   20.0594 C   0  0  0  0  0  0  0  0  0  0  0  0
    4.6856    0.8337   21.0091 H   0  0  0  0  0  0  0  0  0  0  0  0
    6.9404   -0.5747   22.3983 C   0  0  0  0  0  0  0  0  0  0  0  0
    6.1663   -0.2175   23.0596 H   0  0  0  0  0  0  0  0  0  0  0  0
    7.9597   -1.3002   22.9585 O   0  0  0  0  0  0  0  0  0  0  0  0
  1  2  1  0
  2  3  1  0
  3  4  1  0
  3  5  1  0
  5  6  2  0
  5  7  1  0
  7  8  1  0
  7  9  1  0
  7 10  1  0
 10 11  1  0
 10 12  1  0
 10 13  1  0
 13 14  2  0
 14 15  1  0
 15 16  1  0
 16 17  2  0
 17 18  1  0
 17 19  1  0
 19 20  2  0
 20 21  1  0
 20 22  1  0
 22 23  1  0
 22 24  2  0
 24 25  1  0
 15 26  2  0
 26 27  1  0
 26 28  1  0
 28 13  1  0
 24 16  1  0
M  END
>  <plip>  (1) 
-0.07142857142857142

>  <filename>  (1) 
[H][O][N]([H])[C](=[O])[C]([H])([H])[C]([H])([H])[c]1[n][c](-[c]2[c]([H])[n][c]([H])[c]([H])[c]2[H])[c]([H])[o]1

$$$$
