
     RDKit          3D

 46 47  0  0  0  0  0  0  0  0999 V2000
    7.4776   -5.5621   26.8071 C   0  0  0  0  0  0  0  0  0  0  0  0
    6.7490   -6.1103   27.7883 C   0  0  0  0  0  0  0  0  0  0  0  0
    6.2870   -5.4140   29.0163 C   0  0  0  0  0  0  0  0  0  0  0  0
    6.5293   -6.0014   30.2729 C   0  0  0  0  0  0  0  0  0  0  0  0
    6.1278   -5.3651   31.4494 C   0  0  0  0  0  0  0  0  0  0  0  0
    5.4617   -4.1338   31.3907 C   0  0  0  0  0  0  0  0  0  0  0  0
    5.2021   -3.5446   30.1482 C   0  0  0  0  0  0  0  0  0  0  0  0
    5.6066   -4.1853   28.9738 C   0  0  0  0  0  0  0  0  0  0  0  0
    5.4205   -3.7118   28.0112 H   0  0  0  0  0  0  0  0  0  0  0  0
    4.7182   -2.5722   30.0926 H   0  0  0  0  0  0  0  0  0  0  0  0
    5.1613   -3.6302   32.3074 H   0  0  0  0  0  0  0  0  0  0  0  0
    6.3183   -5.8337   32.4145 H   0  0  0  0  0  0  0  0  0  0  0  0
    7.0384   -6.9635   30.3196 H   0  0  0  0  0  0  0  0  0  0  0  0
    6.4722   -7.1685   27.7378 H   0  0  0  0  0  0  0  0  0  0  0  0
    8.0975   -4.1835   26.8300 C   0  0  0  0  0  0  0  0  0  0  0  0
    7.4403   -3.3145   25.8261 N   0  0  0  0  0  4  0  0  0  0  0  0
    7.8503   -3.6039   24.4296 C   0  0  0  0  0  0  0  0  0  0  0  0
    7.1558   -2.6656   23.4599 C   0  0  0  0  0  0  0  0  0  0  0  0
    7.5977   -2.9727   22.0161 C   0  0  0  0  0  0  0  0  0  0  0  0
    6.9153   -2.1388   21.0068 N   0  0  0  0  0  4  0  0  0  0  0  0
    7.3920   -0.7219   20.9836 C   0  0  0  0  0  0  0  0  0  0  0  0
    6.6380   -0.0205   19.9012 C   0  0  0  0  0  0  0  0  0  0  0  0
    5.4277    0.6433   20.1552 C   0  0  0  0  0  0  0  0  0  0  0  0
    4.8028    1.3103   19.1008 C   0  0  0  0  0  0  0  0  0  0  0  0
    5.3992    1.2902   17.8366 C   0  0  0  0  0  0  0  0  0  0  0  0
    6.5557    0.6624   17.5796 N   0  0  0  0  0  0  0  0  0  0  0  0
    7.1514    0.0365   18.5983 C   0  0  0  0  0  0  0  0  0  0  0  0
    8.1133   -0.4197   18.3667 H   0  0  0  0  0  0  0  0  0  0  0  0
    4.9263    1.7878   16.9913 H   0  0  0  0  0  0  0  0  0  0  0  0
    3.8754    1.8496   19.2500 H   0  0  0  0  0  0  0  0  0  0  0  0
    4.9974    0.6445   21.1629 H   0  0  0  0  0  0  0  0  0  0  0  0
    8.4741   -0.6978   20.8093 H   0  0  0  0  0  0  0  0  0  0  0  0
    7.2072   -0.2358   21.9478 H   0  0  0  0  0  0  0  0  0  0  0  0
    5.8891   -2.0777   21.2261 H   0  0  0  0  0  0  0  0  0  0  0  0
    7.0055   -2.4776   20.0186 H   0  0  0  0  0  0  0  0  0  0  0  0
    7.4462   -4.0344   21.7980 H   0  0  0  0  0  0  0  0  0  0  0  0
    8.6810   -2.7959   21.9498 H   0  0  0  0  0  0  0  0  0  0  0  0
    6.0640   -2.7772   23.5296 H   0  0  0  0  0  0  0  0  0  0  0  0
    7.3930   -1.6243   23.7331 H   0  0  0  0  0  0  0  0  0  0  0  0
    8.9428   -3.5197   24.3332 H   0  0  0  0  0  0  0  0  0  0  0  0
    7.6211   -4.6452   24.1783 H   0  0  0  0  0  0  0  0  0  0  0  0
    7.6206   -2.3009   26.0083 H   0  0  0  0  0  0  0  0  0  0  0  0
    6.4014   -3.4794   25.8939 H   0  0  0  0  0  0  0  0  0  0  0  0
    8.0214   -3.7469   27.8264 H   0  0  0  0  0  0  0  0  0  0  0  0
    9.1617   -4.2697   26.5752 H   0  0  0  0  0  0  0  0  0  0  0  0
    7.7175   -6.1723   25.9345 H   0  0  0  0  0  0  0  0  0  0  0  0
  1  2  2  3
  2  3  1  0
  3  4  2  0
  4  5  1  0
  5  6  2  0
  6  7  1  0
  7  8  2  0
  8  9  1  0
  7 10  1  0
  6 11  1  0
  5 12  1  0
  4 13  1  0
  2 14  1  0
  1 15  1  0
 15 16  1  0
 16 17  1  0
 17 18  1  0
 18 19  1  0
 19 20  1  0
 20 21  1  0
 21 22  1  0
 22 23  2  0
 23 24  1  0
 24 25  2  0
 25 26  1  0
 26 27  2  0
 27 28  1  0
 25 29  1  0
 24 30  1  0
 23 31  1  0
 21 32  1  0
 21 33  1  0
 20 34  1  0
 20 35  1  0
 19 36  1  0
 19 37  1  0
 18 38  1  0
 18 39  1  0
 17 40  1  0
 17 41  1  0
 16 42  1  0
 16 43  1  0
 15 44  1  0
 15 45  1  0
  1 46  1  0
  8  3  1  0
 27 22  1  0
M  CHG  2  16   1  20   1
M  END
>  <plip>  (1) 
-0.10714285714285714

>  <filename>  (1) 
[H][C](=[C]([H])[C]([H])([H])[N+]([H])([H])[C]([H])([H])[C]([H])([H])[C]([H])([H])[N+]([H])([H])[C]([H])([H])[c]1[c]([H])[n][c]([H])[c]([H])[c]1[H])[c]1[c]([H])[c]([H])[c]([H])[c]([H])[c]1[H]

$$$$
