
     RDKit          3D

 38 41  0  0  0  0  0  0  0  0999 V2000
    4.9670    1.8197   16.9896 H   0  0  0  0  0  0  0  0  0  0  0  0
    5.4268    1.2989   17.8271 C   0  0  0  0  0  0  0  0  0  0  0  0
    6.5797    0.6563   17.5749 N   0  0  0  0  0  0  0  0  0  0  0  0
    7.1704    0.0164   18.5961 C   0  0  0  0  0  0  0  0  0  0  0  0
    8.1026   -0.4905   18.3496 H   0  0  0  0  0  0  0  0  0  0  0  0
    6.6690   -0.0211   19.9316 C   0  0  0  0  0  0  0  0  0  0  0  0
    7.3099   -0.7006   20.9776 N   0  0  0  0  0  0  0  0  0  0  0  0
    8.0568   -1.9199   20.7673 C   0  0  0  0  0  0  0  0  0  0  0  0
    8.9404   -1.7444   20.1375 H   0  0  0  0  0  0  0  0  0  0  0  0
    7.4111   -2.6714   20.3031 H   0  0  0  0  0  0  0  0  0  0  0  0
    8.4263   -2.3378   22.1905 C   0  0  0  0  0  0  0  0  0  0  0  0
    9.4545   -2.6957   22.2814 H   0  0  0  0  0  0  0  0  0  0  0  0
    7.7467   -3.1218   22.5574 H   0  0  0  0  0  0  0  0  0  0  0  0
    8.3179   -1.1597   22.9623 O   0  0  0  0  0  0  0  0  0  0  0  0
    7.3736   -0.2835   22.3767 C   0  0  1  0  0  0  0  0  0  0  0  0
    6.3871   -0.4359   22.8637 H   0  0  0  0  0  0  0  0  0  0  0  0
    7.8977    1.1281   22.5407 C   0  0  1  0  0  0  0  0  0  0  0  0
    8.7832    1.2703   21.9184 H   0  0  0  0  0  0  0  0  0  0  0  0
    7.0283    2.3341   22.7602 C   0  0  0  0  0  0  0  0  0  0  0  0
    7.3252    3.2524   22.2486 H   0  0  0  0  0  0  0  0  0  0  0  0
    5.9507    2.1968   22.8171 H   0  0  0  0  0  0  0  0  0  0  0  0
    7.9098    1.8225   23.8836 C   0  0  2  0  0  0  0  0  0  0  0  0
    7.4228    1.3148   24.7194 H   0  0  0  0  0  0  0  0  0  0  0  0
    9.1435    2.6084   24.2515 C   0  0  0  0  0  0  0  0  0  0  0  0
   10.4276    2.0499   24.1497 C   0  0  0  0  0  0  0  0  0  0  0  0
   10.5216    0.9776   23.9875 H   0  0  0  0  0  0  0  0  0  0  0  0
   11.5652    2.8663   24.2154 C   0  0  0  0  0  0  0  0  0  0  0  0
   12.5559    2.4512   24.0535 H   0  0  0  0  0  0  0  0  0  0  0  0
   11.4282    4.2429   24.4381 C   0  0  0  0  0  0  0  0  0  0  0  0
   12.3055    4.8839   24.4461 H   0  0  0  0  0  0  0  0  0  0  0  0
   10.1598    4.7771   24.6897 C   0  0  0  0  0  0  0  0  0  0  0  0
   10.0497    5.8337   24.9129 H   0  0  0  0  0  0  0  0  0  0  0  0
    9.0285    3.9598   24.6084 C   0  0  0  0  0  0  0  0  0  0  0  0
    8.0391    4.3705   24.7936 H   0  0  0  0  0  0  0  0  0  0  0  0
    5.4545    0.6548   20.1559 C   0  0  0  0  0  0  0  0  0  0  0  0
    5.0226    0.6434   21.1554 H   0  0  0  0  0  0  0  0  0  0  0  0
    4.8295    1.3128   19.0914 C   0  0  0  0  0  0  0  0  0  0  0  0
    3.8923    1.8417   19.2345 H   0  0  0  0  0  0  0  0  0  0  0  0
  1  2  1  0
  2  3  2  0
  3  4  1  0
  4  5  1  0
  4  6  2  0
  6  7  1  0
  7  8  1  0
  8  9  1  0
  8 10  1  0
  8 11  1  0
 11 12  1  0
 11 13  1  0
 11 14  1  0
 14 15  1  0
 15 16  1  1
 15 17  1  0
 17 18  1  6
 17 19  1  0
 19 20  1  0
 19 21  1  0
 19 22  1  0
 22 23  1  1
 22 24  1  0
 24 25  2  0
 25 26  1  0
 25 27  1  0
 27 28  1  0
 27 29  2  0
 29 30  1  0
 29 31  1  0
 31 32  1  0
 31 33  2  0
 33 34  1  0
  6 35  1  0
 35 36  1  0
 35 37  2  0
 37 38  1  0
 37  2  1  0
 15  7  1  0
 22 17  1  0
 33 24  1  0
M  END
>  <plip>  (1) 
-0.07142857142857142

>  <filename>  (1) 
[H][c]1[n][c]([H])[c]([N]2[C]([H])([H])[C]([H])([H])[O][C@@]2([H])[C@@]2([H])[C]([H])([H])[C@]2([H])[c]2[c]([H])[c]([H])[c]([H])[c]([H])[c]2[H])[c]([H])[c]1[H]

$$$$
