
     RDKit          3D

 50 53  0  0  0  0  0  0  0  0999 V2000
    9.8231    6.5546   26.5404 C   0  0  0  0  0  0  0  0  0  0  0  0
    9.1476    5.9435   25.3308 C   0  0  0  0  0  0  0  0  0  0  0  0
    8.4975    6.6996   24.3416 C   0  0  0  0  0  0  0  0  0  0  0  0
    7.9959    6.0740   23.1898 C   0  0  0  0  0  0  0  0  0  0  0  0
    8.1421    4.6945   23.0050 C   0  0  0  0  0  0  0  0  0  0  0  0
    8.7574    3.9122   24.0017 C   0  0  0  0  0  0  0  0  0  0  0  0
    9.0411    2.4326   23.8717 C   0  0  1  0  0  0  0  0  0  0  0  0
    7.8560    1.4891   23.4900 C   0  0  0  0  0  0  0  0  0  0  0  0
    8.3887    1.4672   22.0443 C   0  0  2  0  0  0  0  0  0  0  0  0
    8.4597    0.1706   21.3582 N   0  0  0  0  0  4  0  0  0  0  0  0
    7.1654   -0.5403   21.1411 C   0  0  0  0  0  0  0  0  0  0  0  0
    6.4938    0.0905   19.9426 C   0  0  0  0  0  0  0  0  0  0  0  0
    5.2565    0.7336   20.0503 C   0  0  0  0  0  0  0  0  0  0  0  0
    4.7448    1.3947   18.9307 C   0  0  0  0  0  0  0  0  0  0  0  0
    5.4752    1.3610   17.7396 C   0  0  0  0  0  0  0  0  0  0  0  0
    6.6369    0.7051   17.6039 N   0  0  0  0  0  0  0  0  0  0  0  0
    7.1281    0.0930   18.6882 C   0  0  0  0  0  0  0  0  0  0  0  0
    8.0638   -0.4465   18.5249 H   0  0  0  0  0  0  0  0  0  0  0  0
    5.1087    1.8733   16.8515 H   0  0  0  0  0  0  0  0  0  0  0  0
    3.8124    1.9449   18.9737 H   0  0  0  0  0  0  0  0  0  0  0  0
    4.7140    0.7267   20.9995 H   0  0  0  0  0  0  0  0  0  0  0  0
    7.4943   -2.0111   20.9547 C   0  0  0  0  0  0  0  0  0  0  0  0
    7.8151   -2.8462   22.2263 C   0  0  0  0  0  0  0  0  0  0  0  0
    6.7236   -3.8710   21.8246 C   0  0  0  0  0  0  0  0  0  0  0  0
    6.3333   -2.9843   20.6172 C   0  0  0  0  0  0  0  0  0  0  0  0
    5.3462   -2.5196   20.6980 H   0  0  0  0  0  0  0  0  0  0  0  0
    6.3768   -3.4663   19.6361 H   0  0  0  0  0  0  0  0  0  0  0  0
    5.9251   -4.0116   22.5599 H   0  0  0  0  0  0  0  0  0  0  0  0
    7.1085   -4.8596   21.5514 H   0  0  0  0  0  0  0  0  0  0  0  0
    7.6210   -2.3141   23.1677 H   0  0  0  0  0  0  0  0  0  0  0  0
    8.8422   -3.2229   22.2596 H   0  0  0  0  0  0  0  0  0  0  0  0
    8.3199   -2.0466   20.2388 H   0  0  0  0  0  0  0  0  0  0  0  0
    6.5218   -0.4199   22.0200 H   0  0  0  0  0  0  0  0  0  0  0  0
    9.1207   -0.4445   21.8750 H   0  0  0  0  0  0  0  0  0  0  0  0
    8.8246    0.3406   20.3940 H   0  0  0  0  0  0  0  0  0  0  0  0
    9.7312    2.0093   22.5350 C   0  0  0  0  0  0  0  0  0  0  0  0
   10.4535    1.1941   22.6672 H   0  0  0  0  0  0  0  0  0  0  0  0
   10.1993    2.8086   21.9554 H   0  0  0  0  0  0  0  0  0  0  0  0
    7.8411    2.1940   21.4316 H   0  0  0  0  0  0  0  0  0  0  0  0
    6.8396    1.8605   23.6483 H   0  0  0  0  0  0  0  0  0  0  0  0
    7.9455    0.4946   23.9505 H   0  0  0  0  0  0  0  0  0  0  0  0
    9.5730    2.1139   24.7785 H   0  0  0  0  0  0  0  0  0  0  0  0
    9.2099    4.5570   25.1571 C   0  0  0  0  0  0  0  0  0  0  0  0
    9.6237    3.9546   25.9648 H   0  0  0  0  0  0  0  0  0  0  0  0
    7.7630    4.2523   22.0883 H   0  0  0  0  0  0  0  0  0  0  0  0
    7.4823    6.6603   22.4342 H   0  0  0  0  0  0  0  0  0  0  0  0
    8.3874    7.7744   24.4599 H   0  0  0  0  0  0  0  0  0  0  0  0
    9.6203    5.9361   27.4193 H   0  0  0  0  0  0  0  0  0  0  0  0
   10.9152    6.5974   26.4141 H   0  0  0  0  0  0  0  0  0  0  0  0
    9.4786    7.5663   26.7695 H   0  0  0  0  0  0  0  0  0  0  0  0
  1  2  1  0
  2  3  2  0
  3  4  1  0
  4  5  2  0
  5  6  1  0
  6  7  1  0
  7  8  1  0
  8  9  1  0
  9 10  1  0
 10 11  1  0
 11 12  1  0
 12 13  2  0
 13 14  1  0
 14 15  2  0
 15 16  1  0
 16 17  2  0
 17 18  1  0
 15 19  1  0
 14 20  1  0
 13 21  1  0
 11 22  1  0
 22 23  1  0
 23 24  1  0
 24 25  1  0
 25 26  1  0
 25 27  1  0
 24 28  1  0
 24 29  1  0
 23 30  1  0
 23 31  1  0
 22 32  1  0
 11 33  1  0
 10 34  1  0
 10 35  1  0
  9 36  1  0
 36 37  1  0
 36 38  1  0
  9 39  1  6
  8 40  1  0
  8 41  1  0
  7 42  1  1
  6 43  2  0
 43 44  1  0
  5 45  1  0
  4 46  1  0
  3 47  1  0
  1 48  1  0
  1 49  1  0
  1 50  1  0
 43  2  1  0
 36  7  1  0
 17 12  1  0
 25 22  1  0
M  CHG  1  10   1
M  END
>  <plip>  (1) 
-0.07142857142857142

>  <filename>  (1) 
[H][c]1[n][c]([H])[c]([C]([H])([C]2([H])[C]([H])([H])[C]([H])([H])[C]2([H])[H])[N+]([H])([H])[C@]2([H])[C]([H])([H])[C@@]([H])([c]3[c]([H])[c]([H])[c]([H])[c]([C]([H])([H])[H])[c]3[H])[C]2([H])[H])[c]([H])[c]1[H]

$$$$
