
     RDKit          3D

 39 42  0  0  0  0  0  0  0  0999 V2000
   10.7416   -1.3142   22.4703 C   0  0  0  0  0  0  0  0  0  0  0  0
    9.3092   -1.4560   22.2925 N   0  0  0  0  0  0  0  0  0  0  0  0
    8.4225   -2.0827   23.0826 C   0  0  0  0  0  0  0  0  0  0  0  0
    7.1735   -1.9430   22.4846 C   0  0  0  0  0  0  0  0  0  0  0  0
    5.8865   -2.6096   22.7961 C   0  0  0  0  0  0  0  0  0  0  0  0
    5.0982   -2.9014   21.9049 O   0  0  0  0  0  0  0  0  0  0  0  0
    5.6158   -2.8867   24.1220 N   0  0  0  0  0  0  0  0  0  0  0  0
    4.3897   -3.6259   24.5200 C   0  0  0  0  0  0  0  0  0  0  0  0
    4.1209   -3.0828   25.9433 C   0  0  1  0  0  0  0  0  0  0  0  0
    5.1549   -3.7176   26.8992 C   0  0  0  0  0  0  0  0  0  0  0  0
    6.4887   -3.0757   26.4068 C   0  0  0  0  0  0  0  0  0  0  0  0
    6.0164   -2.0966   25.3067 C   0  0  2  0  0  0  0  0  0  0  0  0
    4.6495   -1.6450   25.8383 C   0  0  0  0  0  0  0  0  0  0  0  0
    4.7246   -1.1294   26.8015 H   0  0  0  0  0  0  0  0  0  0  0  0
    4.0794   -1.0115   25.1533 H   0  0  0  0  0  0  0  0  0  0  0  0
    6.7342   -1.3091   25.0769 H   0  0  0  0  0  0  0  0  0  0  0  0
    7.1787   -3.8310   26.0106 H   0  0  0  0  0  0  0  0  0  0  0  0
    6.9791   -2.5244   27.2168 H   0  0  0  0  0  0  0  0  0  0  0  0
    5.1581   -4.8094   26.8356 H   0  0  0  0  0  0  0  0  0  0  0  0
    4.9388   -3.4568   27.9421 H   0  0  0  0  0  0  0  0  0  0  0  0
    3.0822   -3.2007   26.2632 H   0  0  0  0  0  0  0  0  0  0  0  0
    4.5627   -4.7094   24.5221 H   0  0  0  0  0  0  0  0  0  0  0  0
    3.5715   -3.4249   23.8230 H   0  0  0  0  0  0  0  0  0  0  0  0
    7.4234   -1.1590   21.3142 C   0  0  0  0  0  0  0  0  0  0  0  0
    6.5925   -0.5195   20.2752 C   0  0  0  0  0  0  0  0  0  0  0  0
    5.3677    0.1398   20.4660 C   0  0  0  0  0  0  0  0  0  0  0  0
    4.8581    0.9144   19.4160 C   0  0  0  0  0  0  0  0  0  0  0  0
    5.5635    0.9747   18.2110 C   0  0  0  0  0  0  0  0  0  0  0  0
    6.7061    0.3092   17.9900 N   0  0  0  0  0  0  0  0  0  0  0  0
    7.1966   -0.4025   19.0055 C   0  0  0  0  0  0  0  0  0  0  0  0
    8.1294   -0.9278   18.8064 H   0  0  0  0  0  0  0  0  0  0  0  0
    5.2100    1.5999   17.3906 H   0  0  0  0  0  0  0  0  0  0  0  0
    3.9517    1.5018   19.5282 H   0  0  0  0  0  0  0  0  0  0  0  0
    4.8236    0.0704   21.4083 H   0  0  0  0  0  0  0  0  0  0  0  0
    8.7284   -0.9148   21.2316 N   0  0  0  0  0  0  0  0  0  0  0  0
    8.7678   -2.5649   23.9923 H   0  0  0  0  0  0  0  0  0  0  0  0
   11.1562   -0.9854   21.5172 H   0  0  0  0  0  0  0  0  0  0  0  0
   10.9638   -0.5544   23.2227 H   0  0  0  0  0  0  0  0  0  0  0  0
   11.1865   -2.2700   22.7586 H   0  0  0  0  0  0  0  0  0  0  0  0
  1  2  1  0
  2  3  1  0
  3  4  2  0
  4  5  1  0
  5  6  2  0
  5  7  1  0
  7  8  1  0
  8  9  1  0
  9 10  1  0
 10 11  1  0
 11 12  1  0
 12 13  1  0
 13 14  1  0
 13 15  1  0
 12 16  1  6
 11 17  1  0
 11 18  1  0
 10 19  1  0
 10 20  1  0
  9 21  1  1
  8 22  1  0
  8 23  1  0
  4 24  1  0
 24 25  1  0
 25 26  2  0
 26 27  1  0
 27 28  2  0
 28 29  1  0
 29 30  2  0
 30 31  1  0
 28 32  1  0
 27 33  1  0
 26 34  1  0
 24 35  2  0
  3 36  1  0
  1 37  1  0
  1 38  1  0
  1 39  1  0
 35  2  1  0
 12  7  1  0
 30 25  1  0
 13  9  1  0
M  END
>  <plip>  (1) 
-0.03571428571428571

>  <filename>  (1) 
[H][c]1[n][c]([H])[c](-[c]2[n][n]([C]([H])([H])[H])[c]([H])[c]2[C](=[O])[N]2[C]([H])([H])[C@@]3([H])[C]([H])([H])[C]([H])([H])[C@]2([H])[C]3([H])[H])[c]([H])[c]1[H]

$$$$
