
     RDKit          3D

 30 31  0  0  0  0  0  0  0  0999 V2000
   10.2234   -0.8685   25.8425 H   0  0  0  0  0  0  0  0  0  0  0  0
   10.4433   -1.0540   24.9174 O   0  0  0  0  0  0  0  0  0  0  0  0
    9.5769   -2.1104   24.4684 C   0  0  0  0  0  0  0  0  0  0  0  0
    9.7613   -2.9971   25.1329 H   0  0  0  0  0  0  0  0  0  0  0  0
    8.5416   -1.7848   24.6795 H   0  0  0  0  0  0  0  0  0  0  0  0
    9.8407   -2.2435   22.9866 C   0  0  0  0  0  0  0  0  0  0  0  0
    8.5771   -1.1743   22.2753 C   0  0  0  0  0  0  0  0  0  0  0  0
    7.4126   -0.9050   22.9246 N   0  0  0  0  0  0  0  0  0  0  0  0
    6.5807   -0.2691   22.1450 N   0  0  0  0  0  0  0  0  0  0  0  0
    7.1966   -0.0901   20.9696 N   0  0  0  0  0  0  0  0  0  0  0  0
    6.5339    0.4712   19.8460 C   0  0  0  0  0  0  0  0  0  0  0  0
    7.0382    0.2721   18.5490 C   0  0  0  0  0  0  0  0  0  0  0  0
    7.9317   -0.3269   18.3816 H   0  0  0  0  0  0  0  0  0  0  0  0
    6.4676    0.7711   17.4512 N   0  0  0  0  0  0  0  0  0  0  0  0
    5.3505    1.5010   17.6035 C   0  0  0  0  0  0  0  0  0  0  0  0
    4.9202    1.9152   16.6959 H   0  0  0  0  0  0  0  0  0  0  0  0
    4.7580    1.7318   18.8511 C   0  0  0  0  0  0  0  0  0  0  0  0
    3.8482    2.3191   18.9186 H   0  0  0  0  0  0  0  0  0  0  0  0
    5.3555    1.2127   19.9985 C   0  0  0  0  0  0  0  0  0  0  0  0
    4.9386    1.3578   20.9960 H   0  0  0  0  0  0  0  0  0  0  0  0
    8.4609   -0.6027   21.0315 C   0  0  0  0  0  0  0  0  0  0  0  0
    9.1343   -0.4450   20.2032 H   0  0  0  0  0  0  0  0  0  0  0  0
   11.2028   -0.9609   22.0444 C   0  0  0  0  0  0  0  0  0  0  0  0
   10.8809    0.0297   22.3523 H   0  0  0  0  0  0  0  0  0  0  0  0
   11.1676   -1.0286   20.9560 H   0  0  0  0  0  0  0  0  0  0  0  0
   12.2338   -1.1039   22.3799 H   0  0  0  0  0  0  0  0  0  0  0  0
    9.7501   -2.5941   22.8286 C   0  0  0  0  0  0  0  0  0  0  0  0
   10.9396   -3.0095   23.0239 H   0  0  0  0  0  0  0  0  0  0  0  0
    9.5953   -3.3187   21.7162 H   0  0  0  0  0  0  0  0  0  0  0  0
    9.1001   -3.7007   22.7976 H   0  0  0  0  0  0  0  0  0  0  0  0
  1  2  1  0
  2  3  1  0
  3  4  1  0
  3  5  1  0
  3  6  1  0
  6  7  1  0
  7  8  1  0
  8  9  2  0
  9 10  1  0
 10 11  1  0
 11 12  2  0
 12 13  1  0
 12 14  1  0
 14 15  2  0
 15 16  1  0
 15 17  1  0
 17 18  1  0
 17 19  2  0
 19 20  1  0
 10 21  1  0
 21 22  1  0
  6 23  1  0
 23 24  1  0
 23 25  1  0
 23 26  1  0
  6 27  1  0
 27 28  1  0
 27 29  1  0
 27 30  1  0
 21  7  2  0
 19 11  1  0
M  END
>  <plip>  (1) 
-0.03571428571428571

>  <filename>  (1) 
[H][O][C]([H])([H])[C]([c]1[n][n][n](-[c]2[c]([H])[n][c]([H])[c]([H])[c]2[H])[c]1[H])([C]([H])([H])[H])[C]([H])([H])[H]

$$$$
