
     RDKit          3D

 50 52  0  0  0  0  0  0  0  0999 V2000
    7.0210   -4.6980   21.1191 C   0  0  0  0  0  0  0  0  0  0  0  0
    7.4687   -3.3337   21.0664 O   0  0  0  0  0  0  0  0  0  0  0  0
    6.5357   -2.3590   21.1599 C   0  0  0  0  0  0  0  0  0  0  0  0
    5.3628   -2.5900   21.3345 O   0  0  0  0  0  0  0  0  0  0  0  0
    7.2113   -0.9388   20.9589 C   0  0  0  0  0  0  0  0  0  0  0  0
    7.3414   -0.1077   22.1821 N   0  0  0  0  0  0  0  0  0  0  0  0
    8.1520    1.0140   22.1428 C   0  0  0  0  0  0  0  0  0  0  0  0
    9.0185    1.1515   21.3000 O   0  0  0  0  0  0  0  0  0  0  0  0
    7.8869    2.0485   23.2558 C   0  0  0  0  0  0  0  0  0  0  0  0
    6.4432    2.5911   23.2567 C   0  0  0  0  0  0  0  0  0  0  0  0
    6.1555    2.9714   22.2688 H   0  0  0  0  0  0  0  0  0  0  0  0
    6.3607    3.4161   23.9700 H   0  0  0  0  0  0  0  0  0  0  0  0
    5.7099    1.8230   23.5440 H   0  0  0  0  0  0  0  0  0  0  0  0
    8.3134    1.5074   24.6527 C   0  0  0  0  0  0  0  0  0  0  0  0
    8.1322    2.4671   25.7428 N   0  0  0  0  0  0  0  0  0  0  0  0
    8.9098    3.5625   25.7286 N   0  0  0  0  0  0  0  0  0  0  0  0
    8.5803    4.2446   26.8136 C   0  0  0  0  0  0  0  0  0  0  0  0
    7.5906    3.5924   27.5729 C   0  0  0  0  0  0  0  0  0  0  0  0
    7.3295    2.4468   26.8475 C   0  0  0  0  0  0  0  0  0  0  0  0
    6.2764    1.4317   27.1831 C   0  0  0  0  0  0  0  0  0  0  0  0
    5.7110    1.6666   28.6047 C   0  0  0  0  0  0  0  0  0  0  0  0
    5.5437    3.1568   28.9533 C   0  0  0  0  0  0  0  0  0  0  0  0
    6.8845    3.9106   28.8745 C   0  0  0  0  0  0  0  0  0  0  0  0
    7.5085    3.6136   29.7309 H   0  0  0  0  0  0  0  0  0  0  0  0
    6.7131    4.9868   28.9925 H   0  0  0  0  0  0  0  0  0  0  0  0
    4.8381    3.6188   28.2516 H   0  0  0  0  0  0  0  0  0  0  0  0
    5.1114    3.2642   29.9561 H   0  0  0  0  0  0  0  0  0  0  0  0
    4.7566    1.1406   28.7222 H   0  0  0  0  0  0  0  0  0  0  0  0
    6.4036    1.2236   29.3309 H   0  0  0  0  0  0  0  0  0  0  0  0
    6.6699    0.4085   27.1175 H   0  0  0  0  0  0  0  0  0  0  0  0
    5.4722    1.5000   26.4358 H   0  0  0  0  0  0  0  0  0  0  0  0
    9.1014    5.1700   27.0269 H   0  0  0  0  0  0  0  0  0  0  0  0
    7.7573    0.6064   24.9134 H   0  0  0  0  0  0  0  0  0  0  0  0
    9.3809    1.2731   24.6463 H   0  0  0  0  0  0  0  0  0  0  0  0
    8.5784    2.8621   23.0105 H   0  0  0  0  0  0  0  0  0  0  0  0
    6.5036    0.0553   22.7193 H   0  0  0  0  0  0  0  0  0  0  0  0
    6.5746   -0.1035   19.8395 C   0  0  0  0  0  0  0  0  0  0  0  0
    5.3434    0.5514   19.9934 C   0  0  0  0  0  0  0  0  0  0  0  0
    4.8429    1.3032   18.9272 C   0  0  0  0  0  0  0  0  0  0  0  0
    5.5766    1.3664   17.7380 C   0  0  0  0  0  0  0  0  0  0  0  0
    6.7570    0.7528   17.5670 N   0  0  0  0  0  0  0  0  0  0  0  0
    7.2392    0.0648   18.6124 C   0  0  0  0  0  0  0  0  0  0  0  0
    8.2130   -0.4032   18.4562 H   0  0  0  0  0  0  0  0  0  0  0  0
    5.2012    1.9377   16.8891 H   0  0  0  0  0  0  0  0  0  0  0  0
    3.9141    1.8591   19.0135 H   0  0  0  0  0  0  0  0  0  0  0  0
    4.7771    0.4804   20.9275 H   0  0  0  0  0  0  0  0  0  0  0  0
    8.2361   -1.1830   20.6696 H   0  0  0  0  0  0  0  0  0  0  0  0
    6.1998   -4.8758   20.4189 H   0  0  0  0  0  0  0  0  0  0  0  0
    7.8828   -5.3038   20.8393 H   0  0  0  0  0  0  0  0  0  0  0  0
    6.6905   -4.9561   22.1290 H   0  0  0  0  0  0  0  0  0  0  0  0
  1  2  1  0
  2  3  1  0
  3  4  2  0
  3  5  1  0
  5  6  1  0
  6  7  1  0
  7  8  2  0
  7  9  1  0
  9 10  1  0
 10 11  1  0
 10 12  1  0
 10 13  1  0
  9 14  1  0
 14 15  1  0
 15 16  1  0
 16 17  2  0
 17 18  1  0
 18 19  2  0
 19 20  1  0
 20 21  1  0
 21 22  1  0
 22 23  1  0
 23 24  1  0
 23 25  1  0
 22 26  1  0
 22 27  1  0
 21 28  1  0
 21 29  1  0
 20 30  1  0
 20 31  1  0
 17 32  1  0
 14 33  1  0
 14 34  1  0
  9 35  1  0
  6 36  1  0
  5 37  1  0
 37 38  2  0
 38 39  1  0
 39 40  2  0
 40 41  1  0
 41 42  2  0
 42 43  1  0
 40 44  1  0
 39 45  1  0
 38 46  1  0
  5 47  1  0
  1 48  1  0
  1 49  1  0
  1 50  1  0
 19 15  1  0
 42 37  1  0
 23 18  1  0
M  END
>  <plip>  (1) 
-0.14285714285714285

>  <filename>  (1) 
[H][c]1[n][c]([H])[c]([C]([H])([C](=[O])[O][C]([H])([H])[H])[N]([H])[C](=[O])[C]([H])([C]([H])([H])[H])[C]([H])([H])[n]2[n][c]([H])[c]3[c]2[C]([H])([H])[C]([H])([H])[C]([H])([H])[C]3([H])[H])[c]([H])[c]1[H]

$$$$
