
     RDKit          3D

 36 38  0  0  0  0  0  0  0  0999 V2000
    9.8377   -0.8782   22.1324 H   0  0  0  0  0  0  0  0  0  0  0  0
    9.2219   -0.3841   22.6835 O   0  0  0  0  0  0  0  0  0  0  0  0
    8.3487    0.2898   21.8013 C   0  0  2  0  0  0  0  0  0  0  0  0
    8.9422    0.8258   21.0396 H   0  0  0  0  0  0  0  0  0  0  0  0
    7.5825    1.3652   22.5489 C   0  0  0  0  0  0  0  0  0  0  0  0
    7.3430    2.5813   21.9186 C   0  0  0  0  0  0  0  0  0  0  0  0
    7.7162    2.7168   20.9076 H   0  0  0  0  0  0  0  0  0  0  0  0
    6.5793    3.6140   22.5054 C   0  0  0  0  0  0  0  0  0  0  0  0
    6.4105    4.5469   21.9625 H   0  0  0  0  0  0  0  0  0  0  0  0
    6.0501    3.4404   23.7644 C   0  0  0  0  0  0  0  0  0  0  0  0
    5.4677    4.2239   24.2468 H   0  0  0  0  0  0  0  0  0  0  0  0
    6.2711    2.2195   24.4611 C   0  0  0  0  0  0  0  0  0  0  0  0
    5.7429    1.9975   25.7701 C   0  0  0  0  0  0  0  0  0  0  0  0
    5.1629    2.7918   26.2436 H   0  0  0  0  0  0  0  0  0  0  0  0
    5.9876    0.8010   26.3912 C   0  0  0  0  0  0  0  0  0  0  0  0
    5.6157    0.5839   27.3864 H   0  0  0  0  0  0  0  0  0  0  0  0
    6.7477   -0.1817   25.7088 C   0  0  0  0  0  0  0  0  0  0  0  0
    6.9519   -1.1346   26.1944 H   0  0  0  0  0  0  0  0  0  0  0  0
    7.2412   -0.0337   24.5044 N   0  0  0  0  0  0  0  0  0  0  0  0
    7.0490    1.1597   23.8572 C   0  0  0  0  0  0  0  0  0  0  0  0
    7.4637   -0.7212   20.9716 C   0  0  2  0  0  0  0  0  0  0  0  0
    8.1875   -1.3841   20.4727 H   0  0  0  0  0  0  0  0  0  0  0  0
    6.6598   -0.0137   19.8907 C   0  0  0  0  0  0  0  0  0  0  0  0
    7.1589    0.0621   18.5773 C   0  0  0  0  0  0  0  0  0  0  0  0
    8.1052   -0.4216   18.3433 H   0  0  0  0  0  0  0  0  0  0  0  0
    6.5590    0.6854   17.5557 N   0  0  0  0  0  0  0  0  0  0  0  0
    5.3963    1.2975   17.8249 C   0  0  0  0  0  0  0  0  0  0  0  0
    4.9148    1.7944   16.9869 H   0  0  0  0  0  0  0  0  0  0  0  0
    4.8040    1.3009   19.0922 C   0  0  0  0  0  0  0  0  0  0  0  0
    3.8778    1.8373   19.2493 H   0  0  0  0  0  0  0  0  0  0  0  0
    5.4322    0.6258   20.1412 C   0  0  0  0  0  0  0  0  0  0  0  0
    5.0160    0.6454   21.1541 H   0  0  0  0  0  0  0  0  0  0  0  0
    6.5818   -1.6078   21.8493 C   0  0  0  0  0  0  0  0  0  0  0  0
    5.9469   -0.9604   22.4468 H   0  0  0  0  0  0  0  0  0  0  0  0
    5.9585   -2.2767   21.2429 H   0  0  0  0  0  0  0  0  0  0  0  0
    7.1769   -2.1881   22.5606 H   0  0  0  0  0  0  0  0  0  0  0  0
  1  2  1  0
  2  3  1  0
  3  4  1  6
  3  5  1  0
  5  6  2  0
  6  7  1  0
  6  8  1  0
  8  9  1  0
  8 10  2  0
 10 11  1  0
 10 12  1  0
 12 13  2  0
 13 14  1  0
 13 15  1  0
 15 16  1  0
 15 17  2  0
 17 18  1  0
 17 19  1  0
 19 20  2  0
  3 21  1  0
 21 22  1  6
 21 23  1  0
 23 24  2  0
 24 25  1  0
 24 26  1  0
 26 27  2  0
 27 28  1  0
 27 29  1  0
 29 30  1  0
 29 31  2  0
 31 32  1  0
 21 33  1  0
 33 34  1  0
 33 35  1  0
 33 36  1  0
 20  5  1  0
 31 23  1  0
 20 12  1  0
M  END
>  <plip>  (1) 
-0.03571428571428571

>  <filename>  (1) 
[H][O][C@]([H])([c]1[c]([H])[c]([H])[c]([H])[c]2[c]([H])[c]([H])[c]([H])[n][c]12)[C@]([H])([c]1[c]([H])[n][c]([H])[c]([H])[c]1[H])[C]([H])([H])[H]

$$$$
