
     RDKit          3D

 43 46  0  0  0  0  0  0  0  0999 V2000
    8.2210   -3.4342   21.4683 O   0  0  0  0  0  0  0  0  0  0  0  0
    7.1341   -3.0223   21.8377 C   0  0  0  0  0  0  0  0  0  0  0  0
    6.6456   -1.8161   21.3907 N   0  0  0  0  0  0  0  0  0  0  0  0
    7.4812   -0.7513   20.8830 C   0  0  0  0  0  0  0  0  0  0  0  0
    6.7030   -0.0377   19.8129 C   0  0  0  0  0  0  0  0  0  0  0  0
    5.5139    0.6516   20.0851 C   0  0  0  0  0  0  0  0  0  0  0  0
    4.8837    1.3062   19.0288 C   0  0  0  0  0  0  0  0  0  0  0  0
    5.4445    1.2621   17.7485 C   0  0  0  0  0  0  0  0  0  0  0  0
    6.5781    0.5904   17.4837 N   0  0  0  0  0  0  0  0  0  0  0  0
    7.1868   -0.0454   18.5000 C   0  0  0  0  0  0  0  0  0  0  0  0
    8.1081   -0.5815   18.2929 H   0  0  0  0  0  0  0  0  0  0  0  0
    4.9508    1.7843   16.9352 H   0  0  0  0  0  0  0  0  0  0  0  0
    3.9694    1.8661   19.1833 H   0  0  0  0  0  0  0  0  0  0  0  0
    5.0965    0.6913   21.0904 H   0  0  0  0  0  0  0  0  0  0  0  0
    7.7912    0.1815   22.0513 C   0  0  0  0  0  0  0  0  0  0  0  0
    9.0111    1.0981   22.0122 C   0  0  0  0  0  0  0  0  0  0  0  0
    8.9905   -0.1103   22.9490 C   0  0  0  0  0  0  0  0  0  0  0  0
    9.6143   -0.9734   22.6969 H   0  0  0  0  0  0  0  0  0  0  0  0
    8.8846    0.0793   24.0215 H   0  0  0  0  0  0  0  0  0  0  0  0
    9.6535    1.0564   21.1279 H   0  0  0  0  0  0  0  0  0  0  0  0
    8.9194    2.0900   22.4655 H   0  0  0  0  0  0  0  0  0  0  0  0
    6.8886    0.5674   22.5352 H   0  0  0  0  0  0  0  0  0  0  0  0
    8.4222   -1.1366   20.4707 H   0  0  0  0  0  0  0  0  0  0  0  0
    5.7713   -1.5336   21.8164 H   0  0  0  0  0  0  0  0  0  0  0  0
    6.2284   -3.8143   22.7751 C   0  0  0  0  0  0  0  0  0  0  0  0
    6.8404   -5.1633   23.1561 C   0  0  0  0  0  0  0  0  0  0  0  0
    8.0965   -4.9875   23.8236 O   0  0  0  0  0  0  0  0  0  0  0  0
    8.1166   -4.0769   24.8555 C   0  0  0  0  0  0  0  0  0  0  0  0
    7.1161   -3.0895   25.0032 C   0  0  0  0  0  0  0  0  0  0  0  0
    7.2105   -2.1392   26.0294 C   0  0  0  0  0  0  0  0  0  0  0  0
    8.2910   -2.1538   26.9041 C   0  0  0  0  0  0  0  0  0  0  0  0
    9.2385   -3.1680   26.7927 C   0  0  0  0  0  0  0  0  0  0  0  0
    9.1709   -4.1241   25.7830 C   0  0  0  0  0  0  0  0  0  0  0  0
   10.5519   -5.4582   25.7175 Br  0  0  0  0  0  0  0  0  0  0  0  0
   10.0598   -3.2173   27.4813 H   0  0  0  0  0  0  0  0  0  0  0  0
    8.4015   -1.3805   27.6611 H   0  0  0  0  0  0  0  0  0  0  0  0
    6.4493   -1.3696   26.1207 H   0  0  0  0  0  0  0  0  0  0  0  0
    5.9572   -3.0071   24.0544 C   0  0  0  0  0  0  0  0  0  0  0  0
    5.0440   -3.3636   24.5432 H   0  0  0  0  0  0  0  0  0  0  0  0
    5.8054   -1.9562   23.8085 H   0  0  0  0  0  0  0  0  0  0  0  0
    6.1714   -5.7046   23.8336 H   0  0  0  0  0  0  0  0  0  0  0  0
    6.9845   -5.7745   22.2579 H   0  0  0  0  0  0  0  0  0  0  0  0
    5.2877   -3.9747   22.2479 H   0  0  0  0  0  0  0  0  0  0  0  0
  1  2  2  0
  2  3  1  0
  3  4  1  0
  4  5  1  0
  5  6  2  0
  6  7  1  0
  7  8  2  0
  8  9  1  0
  9 10  2  0
 10 11  1  0
  8 12  1  0
  7 13  1  0
  6 14  1  0
  4 15  1  0
 15 16  1  0
 16 17  1  0
 17 18  1  0
 17 19  1  0
 16 20  1  0
 16 21  1  0
 15 22  1  0
  4 23  1  0
  3 24  1  0
  2 25  1  0
 25 26  1  0
 26 27  1  0
 27 28  1  0
 28 29  2  0
 29 30  1  0
 30 31  2  0
 31 32  1  0
 32 33  2  0
 33 34  1  0
 32 35  1  0
 31 36  1  0
 30 37  1  0
 29 38  1  0
 38 39  1  0
 38 40  1  0
 26 41  1  0
 26 42  1  0
 25 43  1  0
 10  5  1  0
 17 15  1  0
 38 25  1  0
 33 28  1  0
M  END
>  <plip>  (1) 
-0.0967741935483871

>  <filename>  (1) 
[H][c]1[n][c]([H])[c]([C]([H])([N]([H])[C](=[O])[C]2([H])[C]([H])([H])[O][c]3[c]([Br])[c]([H])[c]([H])[c]([H])[c]3[C]2([H])[H])[C]2([H])[C]([H])([H])[C]2([H])[H])[c]([H])[c]1[H]

$$$$
