
     RDKit          3D

 31 33  0  0  0  0  0  0  0  0999 V2000
    5.9043    1.7163   17.0236 H   0  0  0  0  0  0  0  0  0  0  0  0
    6.1362    1.1087   17.8964 C   0  0  0  0  0  0  0  0  0  0  0  0
    7.2435    0.3578   17.8074 N   0  0  0  0  0  0  0  0  0  0  0  0
    7.5731   -0.3745   18.8745 C   0  0  0  0  0  0  0  0  0  0  0  0
    8.4851   -0.9656   18.7948 H   0  0  0  0  0  0  0  0  0  0  0  0
    6.8226   -0.4127   20.0682 C   0  0  0  0  0  0  0  0  0  0  0  0
    7.3250   -1.2110   21.2074 C   0  0  0  0  0  0  0  0  0  0  0  0
    8.6861   -1.2454   21.2236 O   0  0  0  0  0  0  0  0  0  0  0  0
    9.3650   -1.7326   22.2956 C   0  0  0  0  0  0  0  0  0  0  0  0
   10.7207   -1.4622   22.1171 N   0  0  0  0  0  0  0  0  0  0  0  0
   11.7169   -2.3836   22.4029 C   0  0  0  0  0  0  0  0  0  0  0  0
   11.5692   -3.3058   23.1638 O   0  0  0  0  0  0  0  0  0  0  0  0
   12.9531   -2.0430   21.3105 C   0  0  0  0  0  0  0  0  0  0  0  0
   13.6505   -2.8385   21.9769 H   0  0  0  0  0  0  0  0  0  0  0  0
   13.8061   -0.7676   22.4839 H   0  0  0  0  0  0  0  0  0  0  0  0
   13.1351   -1.8574   21.4402 C   0  0  0  0  0  0  0  0  0  0  0  0
   13.7965   -1.9051   20.3996 H   0  0  0  0  0  0  0  0  0  0  0  0
   12.4797   -0.9891   20.9095 H   0  0  0  0  0  0  0  0  0  0  0  0
   11.2137   -0.2472   21.4695 C   0  0  0  0  0  0  0  0  0  0  0  0
   10.5334    0.1298   20.7157 H   0  0  0  0  0  0  0  0  0  0  0  0
   11.6092    0.5149   22.1404 H   0  0  0  0  0  0  0  0  0  0  0  0
    8.7297   -2.3407   23.3171 C   0  0  0  0  0  0  0  0  0  0  0  0
    9.2125   -2.7653   24.1840 H   0  0  0  0  0  0  0  0  0  0  0  0
    7.2871   -2.4992   23.2775 C   0  0  0  0  0  0  0  0  0  0  0  0
    6.6676   -3.1085   24.1360 O   0  0  0  0  0  0  0  0  0  0  0  0
    6.6153   -1.8755   22.1273 C   0  0  0  0  0  0  0  0  0  0  0  0
    5.5489   -1.9898   22.0577 H   0  0  0  0  0  0  0  0  0  0  0  0
    5.6526    0.3578   20.1330 C   0  0  0  0  0  0  0  0  0  0  0  0
    5.0387    0.3770   21.0376 H   0  0  0  0  0  0  0  0  0  0  0  0
    5.3138    1.1387   19.0264 C   0  0  0  0  0  0  0  0  0  0  0  0
    4.4401    1.7791   19.0282 H   0  0  0  0  0  0  0  0  0  0  0  0
  1  2  1  0
  2  3  2  0
  3  4  1  0
  4  5  1  0
  4  6  2  0
  6  7  1  0
  7  8  1  0
  8  9  1  0
  9 10  1  0
 10 11  1  0
 11 12  2  0
 11 13  1  0
 13 14  1  0
 13 15  1  0
 13 16  1  0
 16 17  1  0
 16 18  1  0
 16 19  1  0
 19 20  1  0
 19 21  1  0
  9 22  2  0
 22 23  1  0
 22 24  1  0
 24 25  2  0
 24 26  1  0
 26 27  1  0
  6 28  1  0
 28 29  1  0
 28 30  2  0
 30 31  1  0
 30  2  1  0
 26  7  2  0
 19 10  1  0
M  END
>  <plip>  (1) 
-0.03571428571428571

>  <filename>  (1) 
[H][c]1[n][c]([H])[c](-[c]2[o][c]([N]3[C](=[O])[C]([H])([H])[C]([H])([H])[C]3([H])[H])[c]([H])[c](=[O])[c]2[H])[c]([H])[c]1[H]

$$$$
