
     RDKit          3D

 34 36  0  0  0  0  0  0  0  0999 V2000
    5.7447   -1.9999   21.4939 O   0  0  0  0  0  0  0  0  0  0  0  0
    6.7746   -1.4294   21.8024 C   0  0  0  0  0  0  0  0  0  0  0  0
    7.4318   -0.6047   20.9125 N   0  0  0  0  0  0  0  0  0  0  0  0
    6.7531    0.0400   19.8222 C   0  0  0  0  0  0  0  0  0  0  0  0
    5.5048    0.6425   20.0415 C   0  0  0  0  0  0  0  0  0  0  0  0
    4.8707    1.3066   18.9863 C   0  0  0  0  0  0  0  0  0  0  0  0
    5.4974    1.3133   17.7354 C   0  0  0  0  0  0  0  0  0  0  0  0
    6.6793    0.7205   17.4972 N   0  0  0  0  0  0  0  0  0  0  0  0
    7.2964    0.1092   18.5196 C   0  0  0  0  0  0  0  0  0  0  0  0
    8.2513   -0.3713   18.2978 H   0  0  0  0  0  0  0  0  0  0  0  0
    5.0354    1.8264   16.8964 H   0  0  0  0  0  0  0  0  0  0  0  0
    3.9196    1.8126   19.1258 H   0  0  0  0  0  0  0  0  0  0  0  0
    5.0545    0.5765   21.0300 H   0  0  0  0  0  0  0  0  0  0  0  0
    8.2615   -0.1562   21.2624 H   0  0  0  0  0  0  0  0  0  0  0  0
    7.3338   -1.6263   23.2223 C   0  0  0  0  0  0  0  0  0  0  0  0
    7.8686   -3.0608   23.3925 C   0  0  0  0  0  0  0  0  0  0  0  0
    9.1337   -3.2618   22.5590 C   0  0  0  0  0  0  0  0  0  0  0  0
   10.0988   -2.0921   22.5413 C   0  0  0  0  0  0  0  0  0  0  0  0
   11.2626   -2.3251   21.9184 N   0  0  0  0  0  0  0  0  0  0  0  0
   12.1979   -1.3745   21.9312 C   0  0  0  0  0  0  0  0  0  0  0  0
   12.0361   -0.1438   22.5754 C   0  0  0  0  0  0  0  0  0  0  0  0
   10.8039    0.1219   23.1808 C   0  0  0  0  0  0  0  0  0  0  0  0
    9.7844   -0.8443   23.1221 C   0  0  0  0  0  0  0  0  0  0  0  0
    8.3991   -0.6179   23.7100 C   0  0  0  0  0  0  0  0  0  0  0  0
    8.0555    0.4115   23.5422 H   0  0  0  0  0  0  0  0  0  0  0  0
    8.4900   -0.7192   24.8013 H   0  0  0  0  0  0  0  0  0  0  0  0
   10.6265    1.0744   23.6855 H   0  0  0  0  0  0  0  0  0  0  0  0
   12.8600    0.5618   22.6231 H   0  0  0  0  0  0  0  0  0  0  0  0
   13.1252   -1.6218   21.4233 H   0  0  0  0  0  0  0  0  0  0  0  0
    9.6734   -4.1497   22.9040 H   0  0  0  0  0  0  0  0  0  0  0  0
    8.8582   -3.4478   21.5165 H   0  0  0  0  0  0  0  0  0  0  0  0
    7.1067   -3.7978   23.1093 H   0  0  0  0  0  0  0  0  0  0  0  0
    8.0828   -3.2324   24.4534 H   0  0  0  0  0  0  0  0  0  0  0  0
    6.4259   -1.5221   23.8315 H   0  0  0  0  0  0  0  0  0  0  0  0
  1  2  2  0
  2  3  1  0
  3  4  1  0
  4  5  2  0
  5  6  1  0
  6  7  2  0
  7  8  1  0
  8  9  2  0
  9 10  1  0
  7 11  1  0
  6 12  1  0
  5 13  1  0
  3 14  1  0
  2 15  1  0
 15 16  1  0
 16 17  1  0
 17 18  1  0
 18 19  2  0
 19 20  1  0
 20 21  2  0
 21 22  1  0
 22 23  2  0
 23 24  1  0
 24 25  1  0
 24 26  1  0
 22 27  1  0
 21 28  1  0
 20 29  1  0
 17 30  1  0
 17 31  1  0
 16 32  1  0
 16 33  1  0
 15 34  1  0
  9  4  1  0
 24 15  1  0
 23 18  1  0
M  END
>  <plip>  (1) 
-0.07142857142857142

>  <filename>  (1) 
[H][c]1[n][c]([H])[c]([N]([H])[C](=[O])[C]2([H])[C]([H])([H])[c]3[c]([n][c]([H])[c]([H])[c]3[H])[C]([H])([H])[C]2([H])[H])[c]([H])[c]1[H]

$$$$
