
     RDKit          3D

 39 40  0  0  0  0  0  0  0  0999 V2000
    2.9119   -4.6116   24.7896 C   0  0  0  0  0  0  0  0  0  0  0  0
    4.0296   -4.8403   23.7899 C   0  0  0  0  0  0  0  0  0  0  0  0
    4.1441   -6.0338   23.0523 C   0  0  0  0  0  0  0  0  0  0  0  0
    5.1719   -6.2180   22.1146 C   0  0  0  0  0  0  0  0  0  0  0  0
    6.0987   -5.1971   21.8902 C   0  0  0  0  0  0  0  0  0  0  0  0
    6.0285   -3.9833   22.5974 C   0  0  0  0  0  0  0  0  0  0  0  0
    7.0476   -2.8866   22.3784 C   0  0  0  0  0  0  0  0  0  0  0  0
    6.5920   -1.9613   21.3331 N   0  0  0  0  0  4  0  0  0  0  0  0
    7.4131   -0.6921   21.0607 C   0  0  0  0  0  0  0  0  0  0  0  0
    8.8476   -1.0930   20.6923 C   0  0  0  0  0  0  0  0  0  0  0  0
    9.3483   -1.5243   21.5640 H   0  0  0  0  0  0  0  0  0  0  0  0
    8.8456   -1.8484   19.9060 H   0  0  0  0  0  0  0  0  0  0  0  0
    9.4255   -0.2324   20.3504 H   0  0  0  0  0  0  0  0  0  0  0  0
    7.4441    0.1873   22.3191 C   0  0  0  0  0  0  0  0  0  0  0  0
    6.4540    0.2668   22.7812 H   0  0  0  0  0  0  0  0  0  0  0  0
    8.1250   -0.2275   23.0685 H   0  0  0  0  0  0  0  0  0  0  0  0
    7.7888    1.1874   22.0503 H   0  0  0  0  0  0  0  0  0  0  0  0
    6.6412   -0.0231   19.9312 C   0  0  0  0  0  0  0  0  0  0  0  0
    5.4143    0.6368   20.1506 C   0  0  0  0  0  0  0  0  0  0  0  0
    4.7883    1.2981   19.0904 C   0  0  0  0  0  0  0  0  0  0  0  0
    5.3975    1.2733   17.8325 C   0  0  0  0  0  0  0  0  0  0  0  0
    6.5444    0.6315   17.5883 N   0  0  0  0  0  0  0  0  0  0  0  0
    7.1410    0.0129   18.6179 C   0  0  0  0  0  0  0  0  0  0  0  0
    8.0926   -0.4552   18.3775 H   0  0  0  0  0  0  0  0  0  0  0  0
    4.9549    1.8018   16.9885 H   0  0  0  0  0  0  0  0  0  0  0  0
    3.8682    1.8545   19.2339 H   0  0  0  0  0  0  0  0  0  0  0  0
    4.9542    0.6823   21.1416 H   0  0  0  0  0  0  0  0  0  0  0  0
    6.5033   -2.4316   20.3983 H   0  0  0  0  0  0  0  0  0  0  0  0
    5.6337   -1.6100   21.5894 H   0  0  0  0  0  0  0  0  0  0  0  0
    8.0058   -3.3581   22.1203 H   0  0  0  0  0  0  0  0  0  0  0  0
    7.2168   -2.3608   23.3261 H   0  0  0  0  0  0  0  0  0  0  0  0
    5.0218   -3.8686   23.5706 C   0  0  0  0  0  0  0  0  0  0  0  0
    5.0393   -2.7838   24.3841 F   0  0  0  0  0  0  0  0  0  0  0  0
    6.9186   -5.3485   21.1843 H   0  0  0  0  0  0  0  0  0  0  0  0
    5.2674   -7.1584   21.5734 H   0  0  0  0  0  0  0  0  0  0  0  0
    3.4241   -6.8349   23.2395 H   0  0  0  0  0  0  0  0  0  0  0  0
    3.2975   -4.1801   25.7196 H   0  0  0  0  0  0  0  0  0  0  0  0
    2.1566   -3.9125   24.4076 H   0  0  0  0  0  0  0  0  0  0  0  0
    2.4008   -5.5473   25.0429 H   0  0  0  0  0  0  0  0  0  0  0  0
  1  2  1  0
  2  3  2  0
  3  4  1  0
  4  5  2  0
  5  6  1  0
  6  7  1  0
  7  8  1  0
  8  9  1  0
  9 10  1  0
 10 11  1  0
 10 12  1  0
 10 13  1  0
  9 14  1  0
 14 15  1  0
 14 16  1  0
 14 17  1  0
  9 18  1  0
 18 19  2  0
 19 20  1  0
 20 21  2  0
 21 22  1  0
 22 23  2  0
 23 24  1  0
 21 25  1  0
 20 26  1  0
 19 27  1  0
  8 28  1  0
  8 29  1  0
  7 30  1  0
  7 31  1  0
  6 32  2  0
 32 33  1  0
  5 34  1  0
  4 35  1  0
  3 36  1  0
  1 37  1  0
  1 38  1  0
  1 39  1  0
 32  2  1  0
 23 18  1  0
M  CHG  1   8   1
M  END
>  <plip>  (1) 
-0.034482758620689655

>  <filename>  (1) 
[H][c]1[n][c]([H])[c]([C]([C]([H])([H])[H])([C]([H])([H])[H])[N+]([H])([H])[C]([H])([H])[c]2[c]([H])[c]([H])[c]([H])[c]([C]([H])([H])[H])[c]2[F])[c]([H])[c]1[H]

$$$$
