
     RDKit          3D

 27 29  0  0  0  0  0  0  0  0999 V2000
    9.5364    0.0277   20.4236 O   0  0  0  0  0  0  0  0  0  0  0  0
    8.7799   -0.6263   21.1207 C   0  0  0  0  0  0  0  0  0  0  0  0
    7.4225   -0.6593   20.9391 N   0  0  0  0  0  0  0  0  0  0  0  0
    6.6909   -0.0118   19.9011 C   0  0  0  0  0  0  0  0  0  0  0  0
    5.4664    0.6126   20.1651 C   0  0  0  0  0  0  0  0  0  0  0  0
    4.8219    1.2849   19.1149 C   0  0  0  0  0  0  0  0  0  0  0  0
    5.3930    1.2896   17.8390 C   0  0  0  0  0  0  0  0  0  0  0  0
    6.5497    0.6674   17.5588 N   0  0  0  0  0  0  0  0  0  0  0  0
    7.1785    0.0555   18.5683 C   0  0  0  0  0  0  0  0  0  0  0  0
    8.1320   -0.4104   18.3407 H   0  0  0  0  0  0  0  0  0  0  0  0
    4.9221    1.8067   17.0044 H   0  0  0  0  0  0  0  0  0  0  0  0
    3.8948    1.8204   19.2755 H   0  0  0  0  0  0  0  0  0  0  0  0
    5.0506    0.6063   21.1728 H   0  0  0  0  0  0  0  0  0  0  0  0
    6.9325   -1.1964   21.6364 H   0  0  0  0  0  0  0  0  0  0  0  0
    9.2886   -1.4915   22.2150 C   0  0  0  0  0  0  0  0  0  0  0  0
   10.6330   -1.9008   22.0541 C   0  0  0  0  0  0  0  0  0  0  0  0
   11.2847   -2.6976   22.9014 N   0  0  0  0  0  0  0  0  0  0  0  0
   10.5730   -3.0539   23.9688 C   0  0  0  0  0  0  0  0  0  0  0  0
   10.9779   -3.8614   24.9875 N   0  0  0  0  0  0  0  0  0  0  0  0
    9.9519   -3.8744   25.9016 C   0  0  0  0  0  0  0  0  0  0  0  0
    8.9011   -3.1994   25.5391 N   0  0  0  0  0  0  0  0  0  0  0  0
    9.2578   -2.6666   24.3007 C   0  0  0  0  0  0  0  0  0  0  0  0
    8.5767   -1.8752   23.3772 C   0  0  0  0  0  0  0  0  0  0  0  0
    7.5543   -1.5783   23.6238 H   0  0  0  0  0  0  0  0  0  0  0  0
   10.0567   -4.3909   26.8500 H   0  0  0  0  0  0  0  0  0  0  0  0
   11.9431   -4.0980   25.1347 H   0  0  0  0  0  0  0  0  0  0  0  0
   11.2039   -1.5476   21.1936 H   0  0  0  0  0  0  0  0  0  0  0  0
  1  2  2  0
  2  3  1  0
  3  4  1  0
  4  5  2  0
  5  6  1  0
  6  7  2  0
  7  8  1  0
  8  9  2  0
  9 10  1  0
  7 11  1  0
  6 12  1  0
  5 13  1  0
  3 14  1  0
  2 15  1  0
 15 16  2  0
 16 17  1  0
 17 18  2  0
 18 19  1  0
 19 20  1  0
 20 21  2  0
 21 22  1  0
 22 23  2  0
 23 24  1  0
 20 25  1  0
 19 26  1  0
 16 27  1  0
  9  4  1  0
 23 15  1  0
 22 18  1  0
M  END
>  <plip>  (1) 
-0.10714285714285714

>  <filename>  (1) 
[H][c]1[n][c]([H])[c]([N]([H])[C](=[O])[c]2[c]([H])[n][c]3[c]([n][c]([H])[n]3[H])[c]2[H])[c]([H])[c]1[H]

$$$$
