
     RDKit          3D

 30 32  0  0  0  0  0  0  0  0999 V2000
    4.9170    1.7919   16.9896 H   0  0  0  0  0  0  0  0  0  0  0  0
    5.3933    1.2978   17.8317 C   0  0  0  0  0  0  0  0  0  0  0  0
    6.5560    0.6835   17.5621 N   0  0  0  0  0  0  0  0  0  0  0  0
    7.1535    0.0453   18.5743 C   0  0  0  0  0  0  0  0  0  0  0  0
    8.1162   -0.4208   18.3782 H   0  0  0  0  0  0  0  0  0  0  0  0
    6.6233   -0.0324   19.8760 C   0  0  0  0  0  0  0  0  0  0  0  0
    7.5715   -0.8489   21.1289 S   0  0  0  0  0  0  0  0  0  0  0  0
    8.8047    0.7142   21.7270 S   0  0  0  0  0  0  0  0  0  0  0  0
    7.6749    1.6112   22.7937 C   0  0  1  0  0  0  0  0  0  0  0  0
    7.1046    0.9470   23.4401 H   0  0  0  0  0  0  0  0  0  0  0  0
    8.1017    2.9493   23.2893 C   0  0  0  0  0  0  0  0  0  0  0  0
    9.0667    3.3284   22.9597 H   0  0  0  0  0  0  0  0  0  0  0  0
    7.8405    3.2025   24.3136 H   0  0  0  0  0  0  0  0  0  0  0  0
    6.9657    2.8469   22.2972 C   0  0  2  0  0  0  0  0  0  0  0  0
    7.1985    3.1119   21.2683 H   0  0  0  0  0  0  0  0  0  0  0  0
    5.5505    3.1190   22.6995 C   0  0  0  0  0  0  0  0  0  0  0  0
    4.6892    3.7557   21.7954 C   0  0  0  0  0  0  0  0  0  0  0  0
    5.0920    4.0138   20.8279 H   0  0  0  0  0  0  0  0  0  0  0  0
    3.3624    4.0511   22.1267 C   0  0  0  0  0  0  0  0  0  0  0  0
    2.7204    4.5518   21.4021 H   0  0  0  0  0  0  0  0  0  0  0  0
    2.8768    3.6996   23.3891 C   0  0  0  0  0  0  0  0  0  0  0  0
    1.8479    3.9223   23.6611 H   0  0  0  0  0  0  0  0  0  0  0  0
    3.7251    3.0643   24.3035 C   0  0  0  0  0  0  0  0  0  0  0  0
    3.3677    2.7914   25.2899 H   0  0  0  0  0  0  0  0  0  0  0  0
    5.0487    2.7773   23.9626 C   0  0  0  0  0  0  0  0  0  0  0  0
    5.7015    2.2950   24.6850 H   0  0  0  0  0  0  0  0  0  0  0  0
    5.4220    0.6250   20.1530 C   0  0  0  0  0  0  0  0  0  0  0  0
    5.0255    0.6326   21.1715 H   0  0  0  0  0  0  0  0  0  0  0  0
    4.8003    1.3058   19.1010 C   0  0  0  0  0  0  0  0  0  0  0  0
    3.8737    1.8482   19.2514 H   0  0  0  0  0  0  0  0  0  0  0  0
  1  2  1  0
  2  3  2  0
  3  4  1  0
  4  5  1  0
  4  6  2  0
  6  7  1  0
  7  8  1  0
  8  9  1  0
  9 10  1  1
  9 11  1  0
 11 12  1  0
 11 13  1  0
 11 14  1  0
 14 15  1  6
 14 16  1  0
 16 17  2  0
 17 18  1  0
 17 19  1  0
 19 20  1  0
 19 21  2  0
 21 22  1  0
 21 23  1  0
 23 24  1  0
 23 25  2  0
 25 26  1  0
  6 27  1  0
 27 28  1  0
 27 29  2  0
 29 30  1  0
 29  2  1  0
 14  9  1  0
 25 16  1  0
M  END
>  <plip>  (1) 
-0.03571428571428571

>  <filename>  (1) 
[H][c]1[n][c]([H])[c]([S][S][C@@]2([H])[C]([H])([H])[C@]2([H])[c]2[c]([H])[c]([H])[c]([H])[c]([H])[c]2[H])[c]([H])[c]1[H]

$$$$
