
     RDKit          3D

 43 45  0  0  0  0  0  0  0  0999 V2000
    5.0581    1.8059   16.8915 H   0  0  0  0  0  0  0  0  0  0  0  0
    5.4713    1.3291   17.7799 C   0  0  0  0  0  0  0  0  0  0  0  0
    6.6582    0.7279   17.6250 N   0  0  0  0  0  0  0  0  0  0  0  0
    7.1954    0.1340   18.6993 C   0  0  0  0  0  0  0  0  0  0  0  0
    8.1759   -0.3196   18.5556 H   0  0  0  0  0  0  0  0  0  0  0  0
    6.5786    0.0739   19.9577 C   0  0  0  0  0  0  0  0  0  0  0  0
    7.2022   -0.7324   21.0866 C   0  0  2  0  0  0  0  0  0  0  0  0
    6.8293   -0.2958   22.0265 H   0  0  0  0  0  0  0  0  0  0  0  0
    8.6822   -0.6683   21.1066 N   0  0  0  0  0  0  0  0  0  0  0  0
    9.1649    0.3346   21.9626 N   0  0  0  0  0  0  0  0  0  0  0  0
    9.0326    0.1863   23.4184 C   0  0  0  0  0  0  0  0  0  0  0  0
    8.5344   -0.7652   23.6549 H   0  0  0  0  0  0  0  0  0  0  0  0
   10.0351    0.1407   23.8800 H   0  0  0  0  0  0  0  0  0  0  0  0
    8.2048    1.3530   24.0150 C   0  0  0  0  0  0  0  0  0  0  0  0
    7.9062    1.1028   25.0381 H   0  0  0  0  0  0  0  0  0  0  0  0
    7.2857    1.4333   23.4168 H   0  0  0  0  0  0  0  0  0  0  0  0
    8.8321    2.6712   24.0348 N   0  0  0  0  0  0  0  0  0  0  0  0
    9.8420    2.7917   25.0726 C   0  0  0  0  0  0  0  0  0  0  0  0
    9.3512    2.9050   26.0518 H   0  0  0  0  0  0  0  0  0  0  0  0
   10.4524    3.6805   24.8866 H   0  0  0  0  0  0  0  0  0  0  0  0
   10.5318    1.9306   25.1588 H   0  0  0  0  0  0  0  0  0  0  0  0
    9.2271    3.1411   22.6994 C   0  0  0  0  0  0  0  0  0  0  0  0
    8.3693    2.9716   22.0369 H   0  0  0  0  0  0  0  0  0  0  0  0
    9.3511    4.2308   22.7425 H   0  0  0  0  0  0  0  0  0  0  0  0
   10.4926    2.4731   22.1331 C   0  0  0  0  0  0  0  0  0  0  0  0
   10.9751    3.1386   21.4128 H   0  0  0  0  0  0  0  0  0  0  0  0
   11.2084    2.3658   22.9595 H   0  0  0  0  0  0  0  0  0  0  0  0
   10.2853    1.1025   21.4530 C   0  0  0  0  0  0  0  0  0  0  0  0
   10.0914    1.2482   20.3876 H   0  0  0  0  0  0  0  0  0  0  0  0
   11.2230    0.5244   21.5266 H   0  0  0  0  0  0  0  0  0  0  0  0
    9.2588   -2.0198   21.2854 C   0  0  0  0  0  0  0  0  0  0  0  0
   10.0564   -2.0047   22.0409 H   0  0  0  0  0  0  0  0  0  0  0  0
    9.7385   -2.3454   20.3535 H   0  0  0  0  0  0  0  0  0  0  0  0
    8.0838   -2.9394   21.6668 C   0  0  0  0  0  0  0  0  0  0  0  0
    8.0158   -3.0178   22.7611 H   0  0  0  0  0  0  0  0  0  0  0  0
    8.2101   -3.9606   21.2885 H   0  0  0  0  0  0  0  0  0  0  0  0
    6.8482   -2.2336   21.0804 C   0  0  0  0  0  0  0  0  0  0  0  0
    6.6412   -2.5789   20.0634 H   0  0  0  0  0  0  0  0  0  0  0  0
    5.9375   -2.4093   21.6661 H   0  0  0  0  0  0  0  0  0  0  0  0
    5.3410    0.7305   20.1018 C   0  0  0  0  0  0  0  0  0  0  0  0
    4.8231    0.7554   21.0611 H   0  0  0  0  0  0  0  0  0  0  0  0
    4.7794    1.3674   18.9929 C   0  0  0  0  0  0  0  0  0  0  0  0
    3.8347    1.8994   19.0550 H   0  0  0  0  0  0  0  0  0  0  0  0
  1  2  1  0
  2  3  2  0
  3  4  1  0
  4  5  1  0
  4  6  2  0
  6  7  1  0
  7  8  1  1
  7  9  1  0
  9 10  1  0
 10 11  1  0
 11 12  1  0
 11 13  1  0
 11 14  1  0
 14 15  1  0
 14 16  1  0
 14 17  1  0
 17 18  1  0
 18 19  1  0
 18 20  1  0
 18 21  1  0
 17 22  1  0
 22 23  1  0
 22 24  1  0
 22 25  1  0
 25 26  1  0
 25 27  1  0
 25 28  1  0
 28 29  1  0
 28 30  1  0
  9 31  1  0
 31 32  1  0
 31 33  1  0
 31 34  1  0
 34 35  1  0
 34 36  1  0
 34 37  1  0
 37 38  1  0
 37 39  1  0
  6 40  1  0
 40 41  1  0
 40 42  2  0
 42 43  1  0
 42  2  1  0
 37  7  1  0
 28 10  1  0
M  END
>  <plip>  (1) 
-0.07142857142857142

>  <filename>  (1) 
[H][c]1[n][c]([H])[c]([C@]2([H])[N]([N]3[C]([H])([H])[C]([H])([H])[N]([C]([H])([H])[H])[C]([H])([H])[C]([H])([H])[C]3([H])[H])[C]([H])([H])[C]([H])([H])[C]2([H])[H])[c]([H])[c]1[H]

$$$$
