
     RDKit          3D

 35 37  0  0  0  0  0  0  0  0999 V2000
    7.1996   -1.9338   21.1543 C   0  0  0  0  0  0  0  0  0  0  0  0
    7.3434   -0.4257   21.1980 C   0  0  0  0  0  0  0  0  0  0  0  0
    8.7476   -0.0637   21.1288 N   0  0  0  0  0  0  0  0  0  0  0  0
    9.2286    1.1313   21.4939 C   0  0  0  0  0  0  0  0  0  0  0  0
   10.5138    1.3865   21.4293 N   0  0  0  0  0  0  0  0  0  0  0  0
   10.6955    2.6541   21.9151 C   0  0  0  0  0  0  0  0  0  0  0  0
   12.0614    3.2501   22.0499 C   0  0  0  0  0  0  0  0  0  0  0  0
   12.3203    4.6630   21.4667 C   0  0  0  0  0  0  0  0  0  0  0  0
   13.6043    5.0412   22.1963 C   0  0  0  0  0  0  0  0  0  0  0  0
   13.5343    4.4016   23.4680 O   0  0  0  0  0  0  0  0  0  0  0  0
   12.4133    3.5362   23.5248 C   0  0  0  0  0  0  0  0  0  0  0  0
   12.6819    2.6437   24.1025 H   0  0  0  0  0  0  0  0  0  0  0  0
   11.5593    4.0322   24.0278 H   0  0  0  0  0  0  0  0  0  0  0  0
   13.7500    6.1207   22.3387 H   0  0  0  0  0  0  0  0  0  0  0  0
   14.4749    4.6623   21.6430 H   0  0  0  0  0  0  0  0  0  0  0  0
   11.5092    5.3430   21.7638 H   0  0  0  0  0  0  0  0  0  0  0  0
   12.4282    4.6876   20.3794 H   0  0  0  0  0  0  0  0  0  0  0  0
   12.7670    2.5236   21.6295 H   0  0  0  0  0  0  0  0  0  0  0  0
    9.6786    3.3613   22.3569 N   0  0  0  0  0  0  0  0  0  0  0  0
    8.2979    2.4437   22.1273 S   0  0  0  0  0  0  0  0  0  0  0  0
    9.5017   -0.6963   20.9296 H   0  0  0  0  0  0  0  0  0  0  0  0
    6.6041    0.2213   20.0478 C   0  0  0  0  0  0  0  0  0  0  0  0
    5.3394    0.8019   20.1739 C   0  0  0  0  0  0  0  0  0  0  0  0
    4.7427    1.3614   19.0417 C   0  0  0  0  0  0  0  0  0  0  0  0
    5.4260    1.3056   17.8227 C   0  0  0  0  0  0  0  0  0  0  0  0
    6.6207    0.7182   17.6751 N   0  0  0  0  0  0  0  0  0  0  0  0
    7.1820    0.1908   18.7688 C   0  0  0  0  0  0  0  0  0  0  0  0
    8.1420   -0.3003   18.6103 H   0  0  0  0  0  0  0  0  0  0  0  0
    4.9904    1.7385   16.9240 H   0  0  0  0  0  0  0  0  0  0  0  0
    3.7730    1.8401   19.0903 H   0  0  0  0  0  0  0  0  0  0  0  0
    4.8304    0.8121   21.1409 H   0  0  0  0  0  0  0  0  0  0  0  0
    6.9222   -0.0580   22.1487 H   0  0  0  0  0  0  0  0  0  0  0  0
    7.8501   -2.4109   21.8922 H   0  0  0  0  0  0  0  0  0  0  0  0
    6.1647   -2.2102   21.3736 H   0  0  0  0  0  0  0  0  0  0  0  0
    7.4358   -2.3059   20.1579 H   0  0  0  0  0  0  0  0  0  0  0  0
  1  2  1  0
  2  3  1  0
  3  4  1  0
  4  5  2  0
  5  6  1  0
  6  7  1  0
  7  8  1  0
  8  9  1  0
  9 10  1  0
 10 11  1  0
 11 12  1  0
 11 13  1  0
  9 14  1  0
  9 15  1  0
  8 16  1  0
  8 17  1  0
  7 18  1  0
  6 19  2  0
 19 20  1  0
  3 21  1  0
  2 22  1  0
 22 23  2  0
 23 24  1  0
 24 25  2  0
 25 26  1  0
 26 27  2  0
 27 28  1  0
 25 29  1  0
 24 30  1  0
 23 31  1  0
  2 32  1  0
  1 33  1  0
  1 34  1  0
  1 35  1  0
 20  4  1  0
 27 22  1  0
 11  7  1  0
M  END
>  <plip>  (1) 
-0.03125

>  <filename>  (1) 
[H][c]1[n][c]([H])[c]([C]([H])([N]([H])[c]2[n][c]([C]3([H])[C]([H])([H])[O][C]([H])([H])[C]3([H])[H])[n][s]2)[C]([H])([H])[H])[c]([H])[c]1[H]

$$$$
