
     RDKit          3D

 36 38  0  0  0  0  0  0  0  0999 V2000
    7.0978   -1.9911   21.1655 C   0  0  0  0  0  0  0  0  0  0  0  0
    7.1553   -0.4807   21.2327 C   0  0  0  0  0  0  0  0  0  0  0  0
    8.5730   -0.1332   21.1219 N   0  0  0  0  0  0  0  0  0  0  0  0
    9.0370    1.0682   21.5753 C   0  0  0  0  0  0  0  0  0  0  0  0
    8.0919    1.9786   21.7816 N   0  0  0  0  0  0  0  0  0  0  0  0
    8.4708    3.1591   22.2823 C   0  0  0  0  0  0  0  0  0  0  0  0
    9.7981    3.4793   22.5189 C   0  0  0  0  0  0  0  0  0  0  0  0
   10.7999    2.5367   22.3109 C   0  0  0  0  0  0  0  0  0  0  0  0
   10.4035    1.2812   21.8447 C   0  0  0  0  0  0  0  0  0  0  0  0
   11.7092   -0.1108   21.6236 Br  0  0  0  0  0  0  0  0  0  0  0  0
   11.8416    2.7770   22.5263 H   0  0  0  0  0  0  0  0  0  0  0  0
    9.9538    4.8763   23.0211 C   0  0  0  0  0  0  0  0  0  0  0  0
    8.5298    5.4564   22.9336 C   0  0  0  0  0  0  0  0  0  0  0  0
    7.5593    4.2878   22.7013 C   0  0  0  0  0  0  0  0  0  0  0  0
    6.7977    4.0656   23.9124 O   0  0  0  0  0  0  0  0  0  0  0  0
    7.3821    3.9549   24.6825 H   0  0  0  0  0  0  0  0  0  0  0  0
    6.8683    4.4970   21.8814 H   0  0  0  0  0  0  0  0  0  0  0  0
    8.2681    5.9966   23.8504 H   0  0  0  0  0  0  0  0  0  0  0  0
    8.4619    6.1440   22.0835 H   0  0  0  0  0  0  0  0  0  0  0  0
   10.3168    4.8623   24.0547 H   0  0  0  0  0  0  0  0  0  0  0  0
   10.6460    5.4540   22.3954 H   0  0  0  0  0  0  0  0  0  0  0  0
    9.2507   -0.8736   20.9903 H   0  0  0  0  0  0  0  0  0  0  0  0
    6.4646    0.1622   20.0643 C   0  0  0  0  0  0  0  0  0  0  0  0
    5.2347    0.8253   20.1591 C   0  0  0  0  0  0  0  0  0  0  0  0
    4.7204    1.3978   18.9935 C   0  0  0  0  0  0  0  0  0  0  0  0
    5.4336    1.3044   17.7928 C   0  0  0  0  0  0  0  0  0  0  0  0
    6.6143    0.6696   17.7058 N   0  0  0  0  0  0  0  0  0  0  0  0
    7.1123    0.1197   18.8254 C   0  0  0  0  0  0  0  0  0  0  0  0
    8.0690   -0.3863   18.7722 H   0  0  0  0  0  0  0  0  0  0  0  0
    5.0171    1.7535   16.8963 H   0  0  0  0  0  0  0  0  0  0  0  0
    3.7782    1.9329   18.9988 H   0  0  0  0  0  0  0  0  0  0  0  0
    4.6962    0.9169   21.1025 H   0  0  0  0  0  0  0  0  0  0  0  0
    6.7221   -0.1380   22.1824 H   0  0  0  0  0  0  0  0  0  0  0  0
    6.0700   -2.3535   21.2678 H   0  0  0  0  0  0  0  0  0  0  0  0
    7.4873   -2.3055   20.2014 H   0  0  0  0  0  0  0  0  0  0  0  0
    7.7214   -2.4316   21.9533 H   0  0  0  0  0  0  0  0  0  0  0  0
  1  2  1  0
  2  3  1  0
  3  4  1  0
  4  5  2  0
  5  6  1  0
  6  7  2  0
  7  8  1  0
  8  9  2  0
  9 10  1  0
  8 11  1  0
  7 12  1  0
 12 13  1  0
 13 14  1  0
 14 15  1  0
 15 16  1  0
 14 17  1  0
 13 18  1  0
 13 19  1  0
 12 20  1  0
 12 21  1  0
  3 22  1  0
  2 23  1  0
 23 24  2  0
 24 25  1  0
 25 26  2  0
 26 27  1  0
 27 28  2  0
 28 29  1  0
 26 30  1  0
 25 31  1  0
 24 32  1  0
  2 33  1  0
  1 34  1  0
  1 35  1  0
  1 36  1  0
  9  4  1  0
 28 23  1  0
 14  6  1  0
M  END
>  <plip>  (1) 
-0.06896551724137931

>  <filename>  (1) 
[H][O][C]1([H])[c]2[n][c]([N]([H])[C]([H])([c]3[c]([H])[n][c]([H])[c]([H])[c]3[H])[C]([H])([H])[H])[c]([Br])[c]([H])[c]2[C]([H])([H])[C]1([H])[H]

$$$$
