
     RDKit          3D

 40 43  0  0  0  0  0  0  0  0999 V2000
    6.3482   -3.3548   20.5708 O   0  0  0  0  0  0  0  0  0  0  0  0
    6.0928   -2.8210   21.6376 C   0  0  0  0  0  0  0  0  0  0  0  0
    6.5888   -1.5956   21.9577 N   0  0  0  0  0  0  0  0  0  0  0  0
    7.3845   -0.8271   21.0180 C   0  0  0  0  0  0  0  0  0  0  0  0
    6.5602   -0.1568   19.9205 C   0  0  0  0  0  0  0  0  0  0  0  0
    5.3842    0.5774   20.1457 C   0  0  0  0  0  0  0  0  0  0  0  0
    4.8168    1.2837   19.0794 C   0  0  0  0  0  0  0  0  0  0  0  0
    5.4287    1.2339   17.8254 C   0  0  0  0  0  0  0  0  0  0  0  0
    6.5277    0.5058   17.5747 N   0  0  0  0  0  0  0  0  0  0  0  0
    7.0567   -0.1672   18.6060 C   0  0  0  0  0  0  0  0  0  0  0  0
    7.9536   -0.7433   18.3680 H   0  0  0  0  0  0  0  0  0  0  0  0
    5.0233    1.8003   16.9868 H   0  0  0  0  0  0  0  0  0  0  0  0
    3.9371    1.9023   19.2176 H   0  0  0  0  0  0  0  0  0  0  0  0
    4.9197    0.6162   21.1328 H   0  0  0  0  0  0  0  0  0  0  0  0
    8.2789    0.1052   21.8362 C   0  0  0  0  0  0  0  0  0  0  0  0
    8.7779    1.4380   21.3473 C   0  0  0  0  0  0  0  0  0  0  0  0
    7.8155    1.3714   22.5059 C   0  0  0  0  0  0  0  0  0  0  0  0
    8.2069    1.5793   23.4994 H   0  0  0  0  0  0  0  0  0  0  0  0
    6.7974    1.7240   22.3399 H   0  0  0  0  0  0  0  0  0  0  0  0
    8.3796    1.8149   20.4034 H   0  0  0  0  0  0  0  0  0  0  0  0
    9.8168    1.6926   21.5552 H   0  0  0  0  0  0  0  0  0  0  0  0
    9.0016   -0.4669   22.4206 H   0  0  0  0  0  0  0  0  0  0  0  0
    8.0511   -1.5309   20.5017 H   0  0  0  0  0  0  0  0  0  0  0  0
    6.3056   -1.1405   22.8103 H   0  0  0  0  0  0  0  0  0  0  0  0
    5.2871   -3.5458   22.7342 C   0  0  0  0  0  0  0  0  0  0  0  0
    5.9566   -4.8500   23.2346 C   0  0  0  0  0  0  0  0  0  0  0  0
    4.7728   -5.7903   23.2954 C   0  0  0  0  0  0  0  0  0  0  0  0
    3.7192   -5.1813   22.6199 C   0  0  0  0  0  0  0  0  0  0  0  0
    4.0044   -3.9244   22.2089 O   0  0  0  0  0  0  0  0  0  0  0  0
    2.5130   -5.8563   22.3951 C   0  0  0  0  0  0  0  0  0  0  0  0
    1.5194   -5.2971   21.6892 F   0  0  0  0  0  0  0  0  0  0  0  0
    2.3337   -7.1278   22.9249 C   0  0  0  0  0  0  0  0  0  0  0  0
    3.3581   -7.7191   23.6729 C   0  0  0  0  0  0  0  0  0  0  0  0
    4.5763   -7.0527   23.8572 C   0  0  0  0  0  0  0  0  0  0  0  0
    5.3486   -7.5176   24.4485 H   0  0  0  0  0  0  0  0  0  0  0  0
    3.2000   -8.6972   24.1202 H   0  0  0  0  0  0  0  0  0  0  0  0
    1.3878   -7.6305   22.7496 H   0  0  0  0  0  0  0  0  0  0  0  0
    6.7156   -5.1958   22.5225 H   0  0  0  0  0  0  0  0  0  0  0  0
    6.4558   -4.7093   24.1973 H   0  0  0  0  0  0  0  0  0  0  0  0
    5.1149   -2.8728   23.5786 H   0  0  0  0  0  0  0  0  0  0  0  0
  1  2  2  0
  2  3  1  0
  3  4  1  0
  4  5  1  0
  5  6  2  0
  6  7  1  0
  7  8  2  0
  8  9  1  0
  9 10  2  0
 10 11  1  0
  8 12  1  0
  7 13  1  0
  6 14  1  0
  4 15  1  0
 15 16  1  0
 16 17  1  0
 17 18  1  0
 17 19  1  0
 16 20  1  0
 16 21  1  0
 15 22  1  0
  4 23  1  0
  3 24  1  0
  2 25  1  0
 25 26  1  0
 26 27  1  0
 27 28  2  0
 28 29  1  0
 28 30  1  0
 30 31  1  0
 30 32  2  0
 32 33  1  0
 33 34  2  0
 34 35  1  0
 33 36  1  0
 32 37  1  0
 26 38  1  0
 26 39  1  0
 25 40  1  0
 10  5  1  0
 17 15  1  0
 29 25  1  0
 34 27  1  0
M  END
>  <plip>  (1) 
-0.17857142857142858

>  <filename>  (1) 
[H][c]1[n][c]([H])[c]([C]([H])([N]([H])[C](=[O])[C]2([H])[O][c]3[c]([F])[c]([H])[c]([H])[c]([H])[c]3[C]2([H])[H])[C]2([H])[C]([H])([H])[C]2([H])[H])[c]([H])[c]1[H]

$$$$
