
     RDKit          3D

 39 42  0  0  0  0  0  0  0  0999 V2000
    3.4658   -2.0112   26.7170 C   0  0  0  0  0  0  0  0  0  0  0  0
    4.7616   -1.5483   26.0974 C   0  0  0  0  0  0  0  0  0  0  0  0
    4.7637   -0.4048   25.2621 C   0  0  0  0  0  0  0  0  0  0  0  0
    5.8702   -0.0568   24.4950 C   0  0  0  0  0  0  0  0  0  0  0  0
    7.0408   -0.8171   24.6143 C   0  0  0  0  0  0  0  0  0  0  0  0
    8.3846   -0.7580   24.0515 C   0  0  0  0  0  0  0  0  0  0  0  0
    8.9032    0.1208   22.9959 C   0  0  0  0  0  0  0  0  0  0  0  0
    9.9524    0.9110   23.1080 N   0  0  0  0  0  0  0  0  0  0  0  0
   10.0654    1.4719   21.8775 C   0  0  0  0  0  0  0  0  0  0  0  0
   11.1704    2.4230   21.5766 C   0  0  0  0  0  0  0  0  0  0  0  0
   12.1139    1.8720   21.6234 H   0  0  0  0  0  0  0  0  0  0  0  0
   11.0787    2.8381   20.5771 H   0  0  0  0  0  0  0  0  0  0  0  0
   11.1925    3.2273   22.3176 H   0  0  0  0  0  0  0  0  0  0  0  0
    9.1854    1.0472   20.9971 N   0  0  0  0  0  0  0  0  0  0  0  0
    8.4042    0.2038   21.7220 N   0  0  0  0  0  0  0  0  0  0  0  0
    7.4447   -0.6631   21.0090 C   0  0  0  0  0  0  0  0  0  0  0  0
    6.6536    0.0269   19.9081 C   0  0  0  0  0  0  0  0  0  0  0  0
    5.4237    0.6555   20.1334 C   0  0  0  0  0  0  0  0  0  0  0  0
    4.7893    1.3104   19.0744 C   0  0  0  0  0  0  0  0  0  0  0  0
    5.3951    1.2984   17.8163 C   0  0  0  0  0  0  0  0  0  0  0  0
    6.5537    0.6726   17.5608 N   0  0  0  0  0  0  0  0  0  0  0  0
    7.1568    0.0655   18.5908 C   0  0  0  0  0  0  0  0  0  0  0  0
    8.1083   -0.4145   18.3587 H   0  0  0  0  0  0  0  0  0  0  0  0
    4.9332    1.8177   16.9786 H   0  0  0  0  0  0  0  0  0  0  0  0
    3.8564    1.8443   19.2153 H   0  0  0  0  0  0  0  0  0  0  0  0
    4.9577    0.6449   21.1215 H   0  0  0  0  0  0  0  0  0  0  0  0
    8.0248   -1.4879   20.5748 H   0  0  0  0  0  0  0  0  0  0  0  0
    6.7739   -1.0917   21.7593 H   0  0  0  0  0  0  0  0  0  0  0  0
    9.0795   -1.7167   24.7213 C   0  0  0  0  0  0  0  0  0  0  0  0
    8.3123   -2.4094   25.6003 O   0  0  0  0  0  0  0  0  0  0  0  0
    7.0644   -1.8675   25.5406 C   0  0  0  0  0  0  0  0  0  0  0  0
    5.9428   -2.2809   26.2692 C   0  0  0  0  0  0  0  0  0  0  0  0
    5.9963   -3.1458   26.9249 H   0  0  0  0  0  0  0  0  0  0  0  0
   10.1194   -2.0205   24.6884 H   0  0  0  0  0  0  0  0  0  0  0  0
    5.8223    0.7701   23.7908 H   0  0  0  0  0  0  0  0  0  0  0  0
    3.8646    0.2059   25.1978 H   0  0  0  0  0  0  0  0  0  0  0  0
    2.7443   -1.1924   26.8001 H   0  0  0  0  0  0  0  0  0  0  0  0
    3.0170   -2.7869   26.0826 H   0  0  0  0  0  0  0  0  0  0  0  0
    3.6044   -2.4351   27.7165 H   0  0  0  0  0  0  0  0  0  0  0  0
  1  2  1  0
  2  3  2  0
  3  4  1  0
  4  5  2  0
  5  6  1  0
  6  7  1  0
  7  8  2  0
  8  9  1  0
  9 10  1  0
 10 11  1  0
 10 12  1  0
 10 13  1  0
  9 14  2  0
 14 15  1  0
 15 16  1  0
 16 17  1  0
 17 18  2  0
 18 19  1  0
 19 20  2  0
 20 21  1  0
 21 22  2  0
 22 23  1  0
 20 24  1  0
 19 25  1  0
 18 26  1  0
 16 27  1  0
 16 28  1  0
  6 29  2  0
 29 30  1  0
 30 31  1  0
 31 32  2  0
 32 33  1  0
 29 34  1  0
  4 35  1  0
  3 36  1  0
  1 37  1  0
  1 38  1  0
  1 39  1  0
 32  2  1  0
 31  5  1  0
 15  7  1  0
 22 17  1  0
M  END
>  <plip>  (1) 
-0.07142857142857142

>  <filename>  (1) 
[H][c]1[n][c]([H])[c]([C]([H])([H])[n]2[n][c]([C]([H])([H])[H])[n][c]2-[c]2[c]([H])[o][c]3[c]([H])[c]([C]([H])([H])[H])[c]([H])[c]([H])[c]23)[c]([H])[c]1[H]

$$$$
