
     RDKit          3D

 28 28  0  0  0  0  0  0  0  0999 V2000
    4.9130    1.7822   16.9946 H   0  0  0  0  0  0  0  0  0  0  0  0
    5.4020    1.2946   17.8368 C   0  0  0  0  0  0  0  0  0  0  0  0
    6.5666    0.6822   17.5689 N   0  0  0  0  0  0  0  0  0  0  0  0
    7.1685    0.0534   18.5874 C   0  0  0  0  0  0  0  0  0  0  0  0
    8.1211   -0.4292   18.3669 H   0  0  0  0  0  0  0  0  0  0  0  0
    6.6396   -0.0204   19.8891 C   0  0  0  0  0  0  0  0  0  0  0  0
    7.5194   -0.8367   21.1984 S   0  0  0  0  0  0  0  0  0  0  0  0
    8.5076    0.6231   21.7024 C   0  0  0  0  0  0  0  0  0  0  0  0
    7.8093    1.4481   21.9226 H   0  0  0  0  0  0  0  0  0  0  0  0
    9.1310    0.9242   20.8528 H   0  0  0  0  0  0  0  0  0  0  0  0
    9.3093    0.3090   22.7908 O   0  0  0  0  0  0  0  0  0  0  0  0
    8.6314    0.4275   24.0328 C   0  0  0  0  0  0  0  0  0  0  0  0
    8.3739    1.4873   24.1939 H   0  0  0  0  0  0  0  0  0  0  0  0
    7.6865   -0.1372   24.0127 H   0  0  0  0  0  0  0  0  0  0  0  0
    9.5237   -0.0629   25.1630 C   0  0  0  0  0  0  0  0  0  0  0  0
    9.7927   -1.1025   24.9357 H   0  0  0  0  0  0  0  0  0  0  0  0
    8.7435   -0.0396   26.4784 C   0  0  0  0  0  0  0  0  0  0  0  0
    7.8409   -0.6569   26.4268 H   0  0  0  0  0  0  0  0  0  0  0  0
    8.4337    0.9798   26.7379 H   0  0  0  0  0  0  0  0  0  0  0  0
    9.3528   -0.4128   27.3066 H   0  0  0  0  0  0  0  0  0  0  0  0
   10.8068    0.7587   25.2720 C   0  0  0  0  0  0  0  0  0  0  0  0
   11.3931    0.7130   24.3516 H   0  0  0  0  0  0  0  0  0  0  0  0
   10.5779    1.8120   25.4707 H   0  0  0  0  0  0  0  0  0  0  0  0
   11.4254    0.3910   26.0942 H   0  0  0  0  0  0  0  0  0  0  0  0
    5.4328    0.6436   20.1578 C   0  0  0  0  0  0  0  0  0  0  0  0
    5.0072    0.6277   21.1671 H   0  0  0  0  0  0  0  0  0  0  0  0
    4.8037    1.3111   19.1035 C   0  0  0  0  0  0  0  0  0  0  0  0
    3.8714    1.8457   19.2615 H   0  0  0  0  0  0  0  0  0  0  0  0
  1  2  1  0
  2  3  2  0
  3  4  1  0
  4  5  1  0
  4  6  2  0
  6  7  1  0
  7  8  1  0
  8  9  1  0
  8 10  1  0
  8 11  1  0
 11 12  1  0
 12 13  1  0
 12 14  1  0
 12 15  1  0
 15 16  1  0
 15 17  1  0
 17 18  1  0
 17 19  1  0
 17 20  1  0
 15 21  1  0
 21 22  1  0
 21 23  1  0
 21 24  1  0
  6 25  1  0
 25 26  1  0
 25 27  2  0
 27 28  1  0
 27  2  1  0
M  END
>  <plip>  (1) 
-0.06896551724137931

>  <filename>  (1) 
[H][c]1[n][c]([H])[c]([S][C]([H])([H])[O][C]([H])([H])[C]([H])([C]([H])([H])[H])[C]([H])([H])[H])[c]([H])[c]1[H]

$$$$
