
     RDKit          3D

 37 39  0  0  0  0  0  0  0  0999 V2000
    4.5665    1.3438   17.4532 H   0  0  0  0  0  0  0  0  0  0  0  0
    4.9949    0.7288   18.2416 C   0  0  0  0  0  0  0  0  0  0  0  0
    5.9928   -0.0871   17.8636 N   0  0  0  0  0  0  0  0  0  0  0  0
    6.5614   -0.8452   18.8042 C   0  0  0  0  0  0  0  0  0  0  0  0
    7.4026   -1.4533   18.4905 H   0  0  0  0  0  0  0  0  0  0  0  0
    6.1773   -0.8542   20.1736 C   0  0  0  0  0  0  0  0  0  0  0  0
    6.9620   -1.5940   21.1366 N   0  0  0  0  0  0  0  0  0  0  0  0
    8.3347   -1.3425   21.1908 C   0  0  0  0  0  0  0  0  0  0  0  0
    8.9961   -0.8407   20.3062 O   0  0  0  0  0  0  0  0  0  0  0  0
    8.8620   -1.7387   22.5446 C   0  0  0  0  0  0  0  0  0  0  0  0
    9.8605   -2.1633   22.4273 H   0  0  0  0  0  0  0  0  0  0  0  0
    8.9681   -0.8185   23.1300 H   0  0  0  0  0  0  0  0  0  0  0  0
    7.7731   -2.6507   23.0871 C   0  0  0  0  0  0  0  0  0  0  0  0
    7.9264   -3.6875   22.7814 H   0  0  0  0  0  0  0  0  0  0  0  0
    7.6668   -2.6408   24.1727 H   0  0  0  0  0  0  0  0  0  0  0  0
    6.4993   -2.1280   22.4149 C   0  0  2  0  0  0  0  0  0  0  0  0
    6.0803   -1.3073   23.0212 H   0  0  0  0  0  0  0  0  0  0  0  0
    5.5069   -3.1819   22.1392 N   0  0  0  0  0  0  0  0  0  0  0  0
    4.6761   -2.7073   21.8149 H   0  0  0  0  0  0  0  0  0  0  0  0
    4.9669   -3.9502   23.5412 S   0  0  0  0  0  0  0  0  0  0  0  0
    6.0393   -4.8472   23.9216 O   0  0  0  0  0  0  0  0  0  0  0  0
    4.4874   -2.8953   24.4167 O   0  0  0  0  0  0  0  0  0  0  0  0
    3.5394   -4.9233   23.0943 C   0  0  0  0  0  0  0  0  0  0  0  0
    2.3012   -4.6481   23.7078 C   0  0  0  0  0  0  0  0  0  0  0  0
    2.1952   -3.7842   24.3670 H   0  0  0  0  0  0  0  0  0  0  0  0
    1.2128   -5.4849   23.4578 C   0  0  0  0  0  0  0  0  0  0  0  0
    0.2570   -5.2933   23.9346 H   0  0  0  0  0  0  0  0  0  0  0  0
    1.3539   -6.6011   22.6262 C   0  0  0  0  0  0  0  0  0  0  0  0
    0.5136   -7.2653   22.4522 H   0  0  0  0  0  0  0  0  0  0  0  0
    2.5944   -6.8851   22.0588 C   0  0  0  0  0  0  0  0  0  0  0  0
    2.7085   -7.7485   21.4150 H   0  0  0  0  0  0  0  0  0  0  0  0
    3.6988   -6.0664   22.2966 C   0  0  0  0  0  0  0  0  0  0  0  0
    4.6631   -6.3494   21.8833 H   0  0  0  0  0  0  0  0  0  0  0  0
    5.1155   -0.0185   20.5402 C   0  0  0  0  0  0  0  0  0  0  0  0
    4.7931    0.0458   21.5777 H   0  0  0  0  0  0  0  0  0  0  0  0
    4.5219    0.7904   19.5560 C   0  0  0  0  0  0  0  0  0  0  0  0
    3.7265    1.4885   19.7959 H   0  0  0  0  0  0  0  0  0  0  0  0
  1  2  1  0
  2  3  2  0
  3  4  1  0
  4  5  1  0
  4  6  2  0
  6  7  1  0
  7  8  1  0
  8  9  2  0
  8 10  1  0
 10 11  1  0
 10 12  1  0
 10 13  1  0
 13 14  1  0
 13 15  1  0
 13 16  1  0
 16 17  1  1
 16 18  1  0
 18 19  1  0
 18 20  1  0
 20 21  2  0
 20 22  2  0
 20 23  1  0
 23 24  2  0
 24 25  1  0
 24 26  1  0
 26 27  1  0
 26 28  2  0
 28 29  1  0
 28 30  1  0
 30 31  1  0
 30 32  2  0
 32 33  1  0
  6 34  1  0
 34 35  1  0
 34 36  2  0
 36 37  1  0
 36  2  1  0
 16  7  1  0
 32 23  1  0
M  END
>  <plip>  (1) 
-0.13793103448275862

>  <filename>  (1) 
[H][c]1[n][c]([H])[c]([N]2[C](=[O])[C]([H])([H])[C]([H])([H])[C@]2([H])[N]([H])[S](=[O])(=[O])[c]2[c]([H])[c]([H])[c]([H])[c]([H])[c]2[H])[c]([H])[c]1[H]

$$$$
