
     RDKit          3D

 53 56  0  0  0  0  0  0  0  0999 V2000
    7.9453    3.6474   26.2881 F   0  0  0  0  0  0  0  0  0  0  0  0
    7.8558    2.3498   26.6727 C   0  0  0  0  0  0  0  0  0  0  0  0
    7.4370    2.0987   27.9773 C   0  0  0  0  0  0  0  0  0  0  0  0
    7.3250    0.7828   28.4419 C   0  0  0  0  0  0  0  0  0  0  0  0
    7.6443   -0.2712   27.5851 C   0  0  0  0  0  0  0  0  0  0  0  0
    8.0910   -0.0001   26.2942 C   0  0  0  0  0  0  0  0  0  0  0  0
    8.1852    1.3068   25.7663 C   0  0  0  0  0  0  0  0  0  0  0  0
    8.5869    1.4960   24.4452 N   0  0  0  0  0  0  0  0  0  0  0  0
    8.1562    2.6507   23.6483 C   0  0  0  0  0  0  0  0  0  0  0  0
    8.1344    2.1598   22.1899 C   0  0  0  0  0  0  0  0  0  0  0  0
    8.9867    0.8875   22.1846 C   0  0  0  0  0  0  0  0  0  0  0  0
    8.6220   -0.0827   21.0891 N   0  0  0  0  0  4  0  0  0  0  0  0
    7.1747   -0.6406   21.0633 C   0  0  0  0  0  0  0  0  0  0  0  0
    6.5178    0.0607   19.8936 C   0  0  0  0  0  0  0  0  0  0  0  0
    5.2573    0.6638   20.0095 C   0  0  0  0  0  0  0  0  0  0  0  0
    4.7400    1.3623   18.9145 C   0  0  0  0  0  0  0  0  0  0  0  0
    5.4746    1.3982   17.7274 C   0  0  0  0  0  0  0  0  0  0  0  0
    6.6511    0.7707   17.5735 N   0  0  0  0  0  0  0  0  0  0  0  0
    7.1498    0.1260   18.6328 C   0  0  0  0  0  0  0  0  0  0  0  0
    8.0978   -0.3807   18.4458 H   0  0  0  0  0  0  0  0  0  0  0  0
    5.0986    1.9462   16.8639 H   0  0  0  0  0  0  0  0  0  0  0  0
    3.7887    1.8800   18.9773 H   0  0  0  0  0  0  0  0  0  0  0  0
    4.7060    0.6064   20.9495 H   0  0  0  0  0  0  0  0  0  0  0  0
    7.2064   -2.1850   20.9421 C   0  0  0  0  0  0  0  0  0  0  0  0
    5.9026   -2.8341   20.4140 C   0  0  0  0  0  0  0  0  0  0  0  0
    6.0540   -4.3535   20.2408 C   0  0  0  0  0  0  0  0  0  0  0  0
    6.4751   -4.9752   21.4425 O   0  0  0  0  0  0  0  0  0  0  0  0
    7.7129   -4.4559   21.8998 C   0  0  0  0  0  0  0  0  0  0  0  0
    7.6134   -2.9543   22.2216 C   0  0  0  0  0  0  0  0  0  0  0  0
    8.5672   -2.5962   22.6360 H   0  0  0  0  0  0  0  0  0  0  0  0
    6.8449   -2.8221   22.9966 H   0  0  0  0  0  0  0  0  0  0  0  0
    8.4675   -4.6069   21.1128 H   0  0  0  0  0  0  0  0  0  0  0  0
    8.0038   -5.0578   22.7658 H   0  0  0  0  0  0  0  0  0  0  0  0
    5.1186   -4.8405   19.9669 H   0  0  0  0  0  0  0  0  0  0  0  0
    6.7478   -4.6038   19.4274 H   0  0  0  0  0  0  0  0  0  0  0  0
    5.5828   -2.3600   19.4768 H   0  0  0  0  0  0  0  0  0  0  0  0
    5.1106   -2.6787   21.1606 H   0  0  0  0  0  0  0  0  0  0  0  0
    8.0153   -2.3234   20.2250 H   0  0  0  0  0  0  0  0  0  0  0  0
    6.6834   -0.3456   21.9975 H   0  0  0  0  0  0  0  0  0  0  0  0
    8.6879    0.4381   20.1929 H   0  0  0  0  0  0  0  0  0  0  0  0
    9.2871   -0.8801   21.0799 H   0  0  0  0  0  0  0  0  0  0  0  0
    8.8383    0.3364   23.6007 C   0  0  0  0  0  0  0  0  0  0  0  0
    7.9960   -0.3683   23.6343 H   0  0  0  0  0  0  0  0  0  0  0  0
    9.7329   -0.2126   23.9181 H   0  0  0  0  0  0  0  0  0  0  0  0
   10.0322    1.1765   22.0582 H   0  0  0  0  0  0  0  0  0  0  0  0
    8.5286    2.9149   21.5034 H   0  0  0  0  0  0  0  0  0  0  0  0
    7.1067    1.9421   21.8824 H   0  0  0  0  0  0  0  0  0  0  0  0
    8.8535    3.4853   23.7845 H   0  0  0  0  0  0  0  0  0  0  0  0
    7.1685    2.9968   23.9740 H   0  0  0  0  0  0  0  0  0  0  0  0
    8.3816   -0.8241   25.6565 H   0  0  0  0  0  0  0  0  0  0  0  0
    7.5341   -1.3073   27.8952 H   0  0  0  0  0  0  0  0  0  0  0  0
    7.0098    0.5788   29.4611 H   0  0  0  0  0  0  0  0  0  0  0  0
    7.1969    2.9602   28.5930 H   0  0  0  0  0  0  0  0  0  0  0  0
  1  2  1  0
  2  3  2  0
  3  4  1  0
  4  5  2  0
  5  6  1  0
  6  7  2  0
  7  8  1  0
  8  9  1  0
  9 10  1  0
 10 11  1  0
 11 12  1  0
 12 13  1  0
 13 14  1  0
 14 15  2  0
 15 16  1  0
 16 17  2  0
 17 18  1  0
 18 19  2  0
 19 20  1  0
 17 21  1  0
 16 22  1  0
 15 23  1  0
 13 24  1  0
 24 25  1  0
 25 26  1  0
 26 27  1  0
 27 28  1  0
 28 29  1  0
 29 30  1  0
 29 31  1  0
 28 32  1  0
 28 33  1  0
 26 34  1  0
 26 35  1  0
 25 36  1  0
 25 37  1  0
 24 38  1  0
 13 39  1  0
 12 40  1  0
 12 41  1  0
 11 42  1  0
 42 43  1  0
 42 44  1  0
 11 45  1  0
 10 46  1  0
 10 47  1  0
  9 48  1  0
  9 49  1  0
  6 50  1  0
  5 51  1  0
  4 52  1  0
  3 53  1  0
  7  2  1  0
 42  8  1  0
 19 14  1  0
 29 24  1  0
M  CHG  1  12   1
M  END
>  <plip>  (1) 
-0.06896551724137931

>  <filename>  (1) 
[H][c]1[n][c]([H])[c]([C]([H])([C]2([H])[C]([H])([H])[C]([H])([H])[O][C]([H])([H])[C]2([H])[H])[N+]([H])([H])[C]2([H])[C]([H])([H])[N]([c]3[c]([H])[c]([H])[c]([H])[c]([H])[c]3[F])[C]([H])([H])[C]2([H])[H])[c]([H])[c]1[H]

$$$$
