
     RDKit          3D

 33 36  0  0  0  0  0  0  0  0999 V2000
    4.9444    1.7839   17.0120 H   0  0  0  0  0  0  0  0  0  0  0  0
    5.4160    1.2733   17.8491 C   0  0  0  0  0  0  0  0  0  0  0  0
    6.5746    0.6507   17.5833 N   0  0  0  0  0  0  0  0  0  0  0  0
    7.1983    0.0490   18.6064 C   0  0  0  0  0  0  0  0  0  0  0  0
    8.1408   -0.4328   18.3510 H   0  0  0  0  0  0  0  0  0  0  0  0
    6.7239    0.0135   19.9572 C   0  0  0  0  0  0  0  0  0  0  0  0
    7.4421   -0.5519   21.0062 N   0  0  0  0  0  0  0  0  0  0  0  0
    8.6734   -1.3007   20.7915 C   0  0  0  0  0  0  0  0  0  0  0  0
    9.4882   -0.6535   20.4376 H   0  0  0  0  0  0  0  0  0  0  0  0
    8.5245   -2.0647   20.0388 H   0  0  0  0  0  0  0  0  0  0  0  0
    8.9846   -1.9569   22.1137 C   0  0  1  0  0  0  0  0  0  0  0  0
    9.4616   -2.9288   22.0802 H   0  0  0  0  0  0  0  0  0  0  0  0
    9.2987   -1.0267   23.2453 C   0  0  1  0  0  0  0  0  0  0  0  0
    9.8955   -1.4557   24.0513 H   0  0  0  0  0  0  0  0  0  0  0  0
    9.5697    0.3502   22.9760 N   0  0  0  0  0  0  0  0  0  0  0  0
    8.9504    0.6963   22.2480 H   0  0  0  0  0  0  0  0  0  0  0  0
    9.5549    1.1806   24.1405 C   0  0  0  0  0  0  0  0  0  0  0  0
    8.6551    1.1613   24.7650 H   0  0  0  0  0  0  0  0  0  0  0  0
   10.8582    1.3294   24.8778 C   0  0  0  0  0  0  0  0  0  0  0  0
   11.7047    0.7767   24.4798 H   0  0  0  0  0  0  0  0  0  0  0  0
   10.8324    1.3854   25.9628 H   0  0  0  0  0  0  0  0  0  0  0  0
   10.3102    2.4683   24.0610 C   0  0  0  0  0  0  0  0  0  0  0  0
   10.7921    2.6933   23.1152 H   0  0  0  0  0  0  0  0  0  0  0  0
    9.8900    3.3380   24.5579 H   0  0  0  0  0  0  0  0  0  0  0  0
    7.9009   -1.5871   23.0864 C   0  0  1  0  0  0  0  0  0  0  0  0
    7.5271   -2.2487   23.8590 H   0  0  0  0  0  0  0  0  0  0  0  0
    6.8853   -0.7431   22.3450 C   0  0  0  0  0  0  0  0  0  0  0  0
    5.9337   -1.2862   22.2977 H   0  0  0  0  0  0  0  0  0  0  0  0
    6.6979    0.2229   22.8403 H   0  0  0  0  0  0  0  0  0  0  0  0
    5.4718    0.6407   20.1789 C   0  0  0  0  0  0  0  0  0  0  0  0
    5.0263    0.6308   21.1718 H   0  0  0  0  0  0  0  0  0  0  0  0
    4.8270    1.2853   19.1164 C   0  0  0  0  0  0  0  0  0  0  0  0
    3.8881    1.8155   19.2733 H   0  0  0  0  0  0  0  0  0  0  0  0
  1  2  1  0
  2  3  2  0
  3  4  1  0
  4  5  1  0
  4  6  2  0
  6  7  1  0
  7  8  1  0
  8  9  1  0
  8 10  1  0
  8 11  1  0
 11 12  1  6
 11 13  1  0
 13 14  1  1
 13 15  1  0
 15 16  1  0
 15 17  1  0
 17 18  1  0
 17 19  1  0
 19 20  1  0
 19 21  1  0
 19 22  1  0
 22 23  1  0
 22 24  1  0
 13 25  1  0
 25 26  1  1
 25 27  1  0
 27 28  1  0
 27 29  1  0
  6 30  1  0
 30 31  1  0
 30 32  2  0
 32 33  1  0
 32  2  1  0
 27  7  1  0
 25 11  1  0
 22 17  1  0
M  END
>  <plip>  (1) 
-0.034482758620689655

>  <filename>  (1) 
[H][c]1[n][c]([H])[c]([N]2[C]([H])([H])[C@@]3([H])[C@@]([H])([N]([H])[C]4([H])[C]([H])([H])[C]4([H])[H])[C@@]3([H])[C]2([H])[H])[c]([H])[c]1[H]

$$$$
