
     RDKit          3D

 29 31  0  0  0  0  0  0  0  0999 V2000
    8.7339    0.9741   21.6334 H   0  0  0  0  0  0  0  0  0  0  0  0
    8.0058    0.2678   21.9817 C   0  0  0  0  0  0  0  0  0  0  0  0
    7.4731    0.3381   23.2195 C   0  0  0  0  0  0  0  0  0  0  0  0
    7.7287    1.3774   24.1425 N   0  0  0  0  0  0  0  0  0  0  0  0
    7.4486    1.2955   25.4740 N   0  0  0  0  0  0  0  0  0  0  0  0
    7.9918    2.3763   25.9980 C   0  0  0  0  0  0  0  0  0  0  0  0
    7.9485    2.5380   27.0667 H   0  0  0  0  0  0  0  0  0  0  0  0
    8.6229    3.1864   25.0230 C   0  0  0  0  0  0  0  0  0  0  0  0
    9.1696    4.1034   25.1758 H   0  0  0  0  0  0  0  0  0  0  0  0
    8.4243    2.5189   23.8473 C   0  0  0  0  0  0  0  0  0  0  0  0
    8.6716    2.7589   22.8234 H   0  0  0  0  0  0  0  0  0  0  0  0
    6.6333   -0.6743   23.6323 N   0  0  0  0  0  0  0  0  0  0  0  0
    6.2253   -0.6457   24.5520 H   0  0  0  0  0  0  0  0  0  0  0  0
    6.4052   -1.8166   22.9250 C   0  0  0  0  0  0  0  0  0  0  0  0
    5.6891   -3.1360   23.6186 S   0  0  0  0  0  0  0  0  0  0  0  0
    6.7815   -1.7847   21.6321 N   0  0  0  0  0  0  0  0  0  0  0  0
    6.3649   -2.5040   21.0713 H   0  0  0  0  0  0  0  0  0  0  0  0
    7.4953   -0.6862   20.9809 C   0  0  1  0  0  0  0  0  0  0  0  0
    8.3623   -1.1157   20.4502 H   0  0  0  0  0  0  0  0  0  0  0  0
    6.6563   -0.0069   19.8894 C   0  0  0  0  0  0  0  0  0  0  0  0
    7.1599    0.0409   18.5846 C   0  0  0  0  0  0  0  0  0  0  0  0
    8.1090   -0.4454   18.3507 H   0  0  0  0  0  0  0  0  0  0  0  0
    6.5651    0.6614   17.5602 N   0  0  0  0  0  0  0  0  0  0  0  0
    5.4068    1.2874   17.8208 C   0  0  0  0  0  0  0  0  0  0  0  0
    4.9405    1.8087   16.9857 H   0  0  0  0  0  0  0  0  0  0  0  0
    4.8086    1.2950   19.0843 C   0  0  0  0  0  0  0  0  0  0  0  0
    3.8771    1.8307   19.2255 H   0  0  0  0  0  0  0  0  0  0  0  0
    5.4381    0.6376   20.1432 C   0  0  0  0  0  0  0  0  0  0  0  0
    4.9968    0.6373   21.1408 H   0  0  0  0  0  0  0  0  0  0  0  0
  1  2  1  0
  2  3  2  0
  3  4  1  0
  4  5  1  0
  5  6  2  0
  6  7  1  0
  6  8  1  0
  8  9  1  0
  8 10  2  0
 10 11  1  0
  3 12  1  0
 12 13  1  0
 12 14  1  0
 14 15  2  0
 14 16  1  0
 16 17  1  0
 16 18  1  0
 18 19  1  6
 18 20  1  0
 20 21  2  0
 21 22  1  0
 21 23  1  0
 23 24  2  0
 24 25  1  0
 24 26  1  0
 26 27  1  0
 26 28  2  0
 28 29  1  0
 18  2  1  0
 28 20  1  0
 10  4  1  0
M  END
>  <plip>  (1) 
-0.03571428571428571

>  <filename>  (1) 
[H][C]1=[C]([n]2[n][c]([H])[c]([H])[c]2[H])[N]([H])[C](=[S])[N]([H])[C@@]1([H])[c]1[c]([H])[n][c]([H])[c]([H])[c]1[H]

$$$$
