
     RDKit          3D

 46 48  0  0  0  0  0  0  0  0999 V2000
    4.9745    1.8001   16.9138 H   0  0  0  0  0  0  0  0  0  0  0  0
    5.3936    1.3577   17.8152 C   0  0  0  0  0  0  0  0  0  0  0  0
    6.5800    0.7520   17.6689 N   0  0  0  0  0  0  0  0  0  0  0  0
    7.1205    0.2030   18.7640 C   0  0  0  0  0  0  0  0  0  0  0  0
    8.0706   -0.3166   18.6038 H   0  0  0  0  0  0  0  0  0  0  0  0
    6.5421    0.2245   20.0465 C   0  0  0  0  0  0  0  0  0  0  0  0
    7.2461   -0.4790   21.1991 C   0  0  1  0  0  0  0  0  0  0  0  0
    6.6953   -0.2803   22.1312 H   0  0  0  0  0  0  0  0  0  0  0  0
    7.1577   -2.0111   20.9485 C   0  0  0  0  0  0  0  0  0  0  0  0
    6.1400   -2.3530   21.1860 H   0  0  0  0  0  0  0  0  0  0  0  0
    7.2875   -2.1953   19.8814 H   0  0  0  0  0  0  0  0  0  0  0  0
    8.1529   -2.8750   21.7349 C   0  0  1  0  0  0  0  0  0  0  0  0
    8.0252   -3.9311   21.4732 H   0  0  0  0  0  0  0  0  0  0  0  0
    9.8586   -2.3764   21.3285 S   0  0  0  0  0  0  0  0  0  0  0  0
    9.5520   -0.8570   22.2942 C   0  0  2  0  0  0  0  0  0  0  0  0
   10.5236   -0.4033   22.5077 H   0  0  0  0  0  0  0  0  0  0  0  0
    8.8874   -1.3768   23.5919 C   0  0  0  0  0  0  0  0  0  0  0  0
    8.2670   -0.6033   24.0609 H   0  0  0  0  0  0  0  0  0  0  0  0
    9.6762   -1.6317   24.3075 H   0  0  0  0  0  0  0  0  0  0  0  0
    8.0737   -2.6575   23.2554 C   0  0  0  0  0  0  0  0  0  0  0  0
    8.5234   -3.5225   23.7547 H   0  0  0  0  0  0  0  0  0  0  0  0
    7.0304   -2.6014   23.5928 H   0  0  0  0  0  0  0  0  0  0  0  0
    8.6883    0.0985   21.4295 C   0  0  2  0  0  0  0  0  0  0  0  0
    9.2043    0.1538   20.4611 H   0  0  0  0  0  0  0  0  0  0  0  0
    8.5947    1.5425   21.9737 C   0  0  0  0  0  0  0  0  0  0  0  0
    7.9336    2.1018   21.2925 H   0  0  0  0  0  0  0  0  0  0  0  0
    8.0794    1.5288   22.9476 H   0  0  0  0  0  0  0  0  0  0  0  0
    9.9175    2.3089   22.1182 C   0  0  0  0  0  0  0  0  0  0  0  0
   10.3440    2.5413   21.1312 H   0  0  0  0  0  0  0  0  0  0  0  0
   10.6739    1.7051   22.6417 H   0  0  0  0  0  0  0  0  0  0  0  0
    9.7290    3.6273   22.8816 C   0  0  0  0  0  0  0  0  0  0  0  0
    9.2883    3.4245   23.8817 H   0  0  0  0  0  0  0  0  0  0  0  0
    8.9937    4.2426   22.3403 H   0  0  0  0  0  0  0  0  0  0  0  0
   10.9706    4.3633   22.9469 N   0  0  0  0  0  0  0  0  0  0  0  0
   11.9436    3.9309   23.9210 C   0  0  0  0  0  0  0  0  0  0  0  0
   12.9303    4.3381   23.6666 H   0  0  0  0  0  0  0  0  0  0  0  0
   12.0134    2.8356   23.9425 H   0  0  0  0  0  0  0  0  0  0  0  0
   11.7336    4.2809   24.9456 H   0  0  0  0  0  0  0  0  0  0  0  0
   10.9390    5.7897   22.7314 C   0  0  0  0  0  0  0  0  0  0  0  0
   11.8912    6.0697   22.2722 H   0  0  0  0  0  0  0  0  0  0  0  0
   10.8202    6.3944   23.6468 H   0  0  0  0  0  0  0  0  0  0  0  0
   10.1180    6.0616   22.0530 H   0  0  0  0  0  0  0  0  0  0  0  0
    5.2960    0.8584   20.1702 C   0  0  0  0  0  0  0  0  0  0  0  0
    4.7895    0.8975   21.1353 H   0  0  0  0  0  0  0  0  0  0  0  0
    4.7102    1.4308   19.0321 C   0  0  0  0  0  0  0  0  0  0  0  0
    3.7526    1.9354   19.0797 H   0  0  0  0  0  0  0  0  0  0  0  0
  1  2  1  0
  2  3  2  0
  3  4  1  0
  4  5  1  0
  4  6  2  0
  6  7  1  0
  7  8  1  1
  7  9  1  0
  9 10  1  0
  9 11  1  0
  9 12  1  0
 12 13  1  1
 12 14  1  0
 14 15  1  0
 15 16  1  1
 15 17  1  0
 17 18  1  0
 17 19  1  0
 17 20  1  0
 20 21  1  0
 20 22  1  0
 15 23  1  0
 23 24  1  6
 23 25  1  0
 25 26  1  0
 25 27  1  0
 25 28  1  0
 28 29  1  0
 28 30  1  0
 28 31  1  0
 31 32  1  0
 31 33  1  0
 31 34  1  0
 34 35  1  0
 35 36  1  0
 35 37  1  0
 35 38  1  0
 34 39  1  0
 39 40  1  0
 39 41  1  0
 39 42  1  0
  6 43  1  0
 43 44  1  0
 43 45  2  0
 45 46  1  0
 45  2  1  0
 23  7  1  0
 20 12  1  0
M  END
>  <plip>  (1) 
-0.03571428571428571

>  <filename>  (1) 
[H][c]1[n][c]([H])[c]([C@@]2([H])[C]([H])([H])[C@@]3([H])[S][C@]([H])([C]([H])([H])[C]3([H])[H])[C@]2([H])[C]([H])([H])[C]([H])([H])[C]([H])([H])[N]([C]([H])([H])[H])[C]([H])([H])[H])[c]([H])[c]1[H]

$$$$
