
     RDKit          3D

 35 37  0  0  0  0  0  0  0  0999 V2000
    4.9188    1.7948   16.9827 H   0  0  0  0  0  0  0  0  0  0  0  0
    5.3923    1.2989   17.8275 C   0  0  0  0  0  0  0  0  0  0  0  0
    6.5542    0.6835   17.5669 N   0  0  0  0  0  0  0  0  0  0  0  0
    7.1530    0.0600   18.5860 C   0  0  0  0  0  0  0  0  0  0  0  0
    8.1064   -0.4171   18.3612 H   0  0  0  0  0  0  0  0  0  0  0  0
    6.6359   -0.0068   19.8902 C   0  0  0  0  0  0  0  0  0  0  0  0
    7.4181   -0.6780   20.9958 C   0  0  0  0  0  0  0  0  0  0  0  0
    7.9075   -1.5967   20.6448 H   0  0  0  0  0  0  0  0  0  0  0  0
    6.7725   -0.9723   21.8320 H   0  0  0  0  0  0  0  0  0  0  0  0
    8.4565    0.1966   21.5229 N   0  0  0  0  0  0  0  0  0  0  0  0
    9.7318    0.3212   21.0453 C   0  0  0  0  0  0  0  0  0  0  0  0
   10.0921   -0.3055   20.2394 H   0  0  0  0  0  0  0  0  0  0  0  0
   10.4068    1.2712   21.6421 N   0  0  0  0  0  0  0  0  0  0  0  0
    9.5326    1.8130   22.5415 C   0  0  0  0  0  0  0  0  0  0  0  0
    9.8209    2.6043   23.2244 H   0  0  0  0  0  0  0  0  0  0  0  0
    8.3088    1.1876   22.4840 C   0  0  0  0  0  0  0  0  0  0  0  0
    6.8947    1.4668   23.4997 S   0  0  0  0  0  0  0  0  0  0  0  0
    7.4073    0.4226   24.9291 C   0  0  0  0  0  0  0  0  0  0  0  0
    6.7346    0.7100   25.7446 H   0  0  0  0  0  0  0  0  0  0  0  0
    8.4198    0.7290   25.1981 H   0  0  0  0  0  0  0  0  0  0  0  0
    7.3453   -1.0480   24.6080 C   0  0  0  0  0  0  0  0  0  0  0  0
    6.1027   -1.6939   24.5864 C   0  0  0  0  0  0  0  0  0  0  0  0
    5.2184   -1.1142   24.8465 H   0  0  0  0  0  0  0  0  0  0  0  0
    6.0012   -3.0337   24.2109 C   0  0  0  0  0  0  0  0  0  0  0  0
    5.0243   -3.5090   24.2073 H   0  0  0  0  0  0  0  0  0  0  0  0
    7.1524   -3.7507   23.8621 C   0  0  0  0  0  0  0  0  0  0  0  0
    7.0757   -4.8023   23.5971 H   0  0  0  0  0  0  0  0  0  0  0  0
    8.4001   -3.1145   23.8706 C   0  0  0  0  0  0  0  0  0  0  0  0
    9.3013   -3.6626   23.6014 H   0  0  0  0  0  0  0  0  0  0  0  0
    8.4942   -1.7675   24.2354 C   0  0  0  0  0  0  0  0  0  0  0  0
    9.4546   -1.2528   24.2064 H   0  0  0  0  0  0  0  0  0  0  0  0
    5.4245    0.6441   20.1450 C   0  0  0  0  0  0  0  0  0  0  0  0
    5.0059    0.6458   21.1579 H   0  0  0  0  0  0  0  0  0  0  0  0
    4.7970    1.3132   19.0919 C   0  0  0  0  0  0  0  0  0  0  0  0
    3.8705    1.8488   19.2442 H   0  0  0  0  0  0  0  0  0  0  0  0
  1  2  1  0
  2  3  2  0
  3  4  1  0
  4  5  1  0
  4  6  2  0
  6  7  1  0
  7  8  1  0
  7  9  1  0
  7 10  1  0
 10 11  1  0
 11 12  1  0
 11 13  2  0
 13 14  1  0
 14 15  1  0
 14 16  2  0
 16 17  1  0
 17 18  1  0
 18 19  1  0
 18 20  1  0
 18 21  1  0
 21 22  2  0
 22 23  1  0
 22 24  1  0
 24 25  1  0
 24 26  2  0
 26 27  1  0
 26 28  1  0
 28 29  1  0
 28 30  2  0
 30 31  1  0
  6 32  1  0
 32 33  1  0
 32 34  2  0
 34 35  1  0
 34  2  1  0
 16 10  1  0
 30 21  1  0
M  END
>  <plip>  (1) 
-0.03571428571428571

>  <filename>  (1) 
[H][c]1[n][c]([H])[c]([C]([H])([H])[n]2[c]([H])[n][c]([H])[c]2[S][C]([H])([H])[c]2[c]([H])[c]([H])[c]([H])[c]([H])[c]2[H])[c]([H])[c]1[H]

$$$$
