
     RDKit          3D

 46 49  0  0  0  0  0  0  0  0999 V2000
   13.5286    5.9422   22.8833 C   0  0  0  0  0  0  0  0  0  0  0  0
   12.6395    4.7333   22.7711 C   0  0  0  0  0  0  0  0  0  0  0  0
   13.1809    3.4922   22.5695 C   0  0  0  0  0  0  0  0  0  0  0  0
   12.3145    2.3675   22.3517 C   0  0  0  0  0  0  0  0  0  0  0  0
   12.5573    1.0969   22.0772 N   0  0  0  0  0  0  0  0  0  0  0  0
   11.3706    0.4918   21.8562 N   0  0  0  0  0  0  0  0  0  0  0  0
   10.4033    1.3812   22.0007 C   0  0  0  0  0  0  0  0  0  0  0  0
    8.9248    1.1946   21.7571 C   0  0  0  0  0  0  0  0  0  0  0  0
    8.0974    2.0832   21.9222 O   0  0  0  0  0  0  0  0  0  0  0  0
    8.5964   -0.0428   21.3418 N   0  0  0  0  0  0  0  0  0  0  0  0
    7.2164   -0.4903   21.2158 C   0  0  0  0  0  0  0  0  0  0  0  0
    7.2773   -2.0204   21.1140 C   0  0  0  0  0  0  0  0  0  0  0  0
    5.9173   -2.7231   21.0250 C   0  0  0  0  0  0  0  0  0  0  0  0
    6.0022   -4.2350   21.0362 C   0  0  0  0  0  0  0  0  0  0  0  0
    5.0101   -5.0741   21.7878 C   0  0  0  0  0  0  0  0  0  0  0  0
    6.4306   -4.9773   22.2744 C   0  0  0  0  0  0  0  0  0  0  0  0
    6.5924   -4.4071   23.1892 H   0  0  0  0  0  0  0  0  0  0  0  0
    7.0882   -5.8379   22.1705 H   0  0  0  0  0  0  0  0  0  0  0  0
    4.2562   -4.5699   22.3869 H   0  0  0  0  0  0  0  0  0  0  0  0
    4.6611   -6.0007   21.3405 H   0  0  0  0  0  0  0  0  0  0  0  0
    6.3568   -4.6738   20.1062 H   0  0  0  0  0  0  0  0  0  0  0  0
    5.3964   -2.3902   20.1173 H   0  0  0  0  0  0  0  0  0  0  0  0
    5.3164   -2.4104   21.8897 H   0  0  0  0  0  0  0  0  0  0  0  0
    7.8967   -2.2379   20.2418 H   0  0  0  0  0  0  0  0  0  0  0  0
    7.8328   -2.3890   21.9898 H   0  0  0  0  0  0  0  0  0  0  0  0
    6.5255    0.1863   20.0407 C   0  0  0  0  0  0  0  0  0  0  0  0
    5.2847    0.8368   20.1573 C   0  0  0  0  0  0  0  0  0  0  0  0
    4.7072    1.4043   19.0165 C   0  0  0  0  0  0  0  0  0  0  0  0
    5.3933    1.3054   17.8024 C   0  0  0  0  0  0  0  0  0  0  0  0
    6.5746    0.6851   17.6646 N   0  0  0  0  0  0  0  0  0  0  0  0
    7.1196    0.1572   18.7701 C   0  0  0  0  0  0  0  0  0  0  0  0
    8.0869   -0.3290   18.6302 H   0  0  0  0  0  0  0  0  0  0  0  0
    4.9795    1.7393   16.8950 H   0  0  0  0  0  0  0  0  0  0  0  0
    3.7601    1.9329   19.0566 H   0  0  0  0  0  0  0  0  0  0  0  0
    4.7922    0.9153   21.1307 H   0  0  0  0  0  0  0  0  0  0  0  0
    6.6686   -0.2108   22.1295 H   0  0  0  0  0  0  0  0  0  0  0  0
    9.3513   -0.7085   21.2502 H   0  0  0  0  0  0  0  0  0  0  0  0
   10.9472    2.5897   22.3499 N   0  0  0  0  0  0  0  0  0  0  0  0
   10.3783    3.8207   22.6271 C   0  0  0  0  0  0  0  0  0  0  0  0
   11.1979    4.8834   22.8401 C   0  0  0  0  0  0  0  0  0  0  0  0
   10.7698    5.8657   23.0186 H   0  0  0  0  0  0  0  0  0  0  0  0
    9.2990    3.8387   22.5826 H   0  0  0  0  0  0  0  0  0  0  0  0
   14.2526    3.3499   22.5033 H   0  0  0  0  0  0  0  0  0  0  0  0
   13.4739    6.5527   21.9737 H   0  0  0  0  0  0  0  0  0  0  0  0
   13.2310    6.5657   23.7338 H   0  0  0  0  0  0  0  0  0  0  0  0
   14.5717    5.6383   23.0077 H   0  0  0  0  0  0  0  0  0  0  0  0
  1  2  1  0
  2  3  2  0
  3  4  1  0
  4  5  2  0
  5  6  1  0
  6  7  2  0
  7  8  1  0
  8  9  2  0
  8 10  1  0
 10 11  1  0
 11 12  1  0
 12 13  1  0
 13 14  1  0
 14 15  1  0
 15 16  1  0
 16 17  1  0
 16 18  1  0
 15 19  1  0
 15 20  1  0
 14 21  1  0
 13 22  1  0
 13 23  1  0
 12 24  1  0
 12 25  1  0
 11 26  1  0
 26 27  2  0
 27 28  1  0
 28 29  2  0
 29 30  1  0
 30 31  2  0
 31 32  1  0
 29 33  1  0
 28 34  1  0
 27 35  1  0
 11 36  1  0
 10 37  1  0
  7 38  1  0
 38 39  1  0
 39 40  2  0
 40 41  1  0
 39 42  1  0
  3 43  1  0
  1 44  1  0
  1 45  1  0
  1 46  1  0
 40  2  1  0
 38  4  1  0
 16 14  1  0
 31 26  1  0
M  END
>  <plip>  (1) 
-0.03333333333333333

>  <filename>  (1) 
[H][c]1[n][c]([H])[c]([C]([H])([N]([H])[C](=[O])[c]2[n][n][c]3[c]([H])[c]([C]([H])([H])[H])[c]([H])[c]([H])[n]23)[C]([H])([H])[C]([H])([H])[C]2([H])[C]([H])([H])[C]2([H])[H])[c]([H])[c]1[H]

$$$$
