
     RDKit          3D

 47 49  0  0  0  0  0  0  0  0999 V2000
    5.4149    3.6990   30.4913 C   0  0  0  0  0  0  0  0  0  0  0  0
    6.1073    3.4739   29.1689 C   0  0  0  0  0  0  0  0  0  0  0  0
    6.5983    4.5475   28.4094 C   0  0  0  0  0  0  0  0  0  0  0  0
    7.2081    4.3311   27.1729 C   0  0  0  0  0  0  0  0  0  0  0  0
    7.3237    3.0205   26.6729 C   0  0  0  0  0  0  0  0  0  0  0  0
    7.9055    2.8107   25.3867 N   0  0  0  0  0  0  0  0  0  0  0  0
    8.8559    3.6201   24.9375 N   0  0  0  0  0  0  0  0  0  0  0  0
    9.1576    3.1639   23.7374 C   0  0  0  0  0  0  0  0  0  0  0  0
   10.0744    3.8729   22.8184 C   0  0  0  0  0  0  0  0  0  0  0  0
   10.8482    3.2135   22.4195 H   0  0  0  0  0  0  0  0  0  0  0  0
    9.4434    4.1863   21.9887 H   0  0  0  0  0  0  0  0  0  0  0  0
   10.5234    4.7465   23.2955 H   0  0  0  0  0  0  0  0  0  0  0  0
    8.3443    2.0470   23.4691 C   0  0  0  0  0  0  0  0  0  0  0  0
    8.3626    1.2362   22.2042 C   0  0  0  0  0  0  0  0  0  0  0  0
    9.0377    1.5560   21.2341 O   0  0  0  0  0  0  0  0  0  0  0  0
    7.6006    0.1014   22.2171 N   0  0  0  0  0  0  0  0  0  0  0  0
    7.4039   -0.7169   21.0132 C   0  0  0  0  0  0  0  0  0  0  0  0
    6.6837   -2.0465   21.3580 C   0  0  0  0  0  0  0  0  0  0  0  0
    6.5514   -2.9618   20.2831 O   0  0  0  0  0  0  0  0  0  0  0  0
    7.4272   -3.2353   19.9669 H   0  0  0  0  0  0  0  0  0  0  0  0
    5.6527   -1.8160   21.6513 H   0  0  0  0  0  0  0  0  0  0  0  0
    7.1906   -2.4990   22.2231 H   0  0  0  0  0  0  0  0  0  0  0  0
    6.6722    0.0487   19.9156 C   0  0  0  0  0  0  0  0  0  0  0  0
    5.4413    0.6779   20.1469 C   0  0  0  0  0  0  0  0  0  0  0  0
    4.7984    1.3181   19.0878 C   0  0  0  0  0  0  0  0  0  0  0  0
    5.3968    1.2939   17.8214 C   0  0  0  0  0  0  0  0  0  0  0  0
    6.5624    0.6809   17.5689 N   0  0  0  0  0  0  0  0  0  0  0  0
    7.1730    0.0889   18.6072 C   0  0  0  0  0  0  0  0  0  0  0  0
    8.1223   -0.3965   18.3719 H   0  0  0  0  0  0  0  0  0  0  0  0
    4.9276    1.7932   16.9744 H   0  0  0  0  0  0  0  0  0  0  0  0
    3.8583    1.8419   19.2309 H   0  0  0  0  0  0  0  0  0  0  0  0
    4.9928    0.6611   21.1433 H   0  0  0  0  0  0  0  0  0  0  0  0
    8.4022   -0.9636   20.6228 H   0  0  0  0  0  0  0  0  0  0  0  0
    7.0002    0.0057   23.0273 H   0  0  0  0  0  0  0  0  0  0  0  0
    7.5500    1.8539   24.5325 N   0  0  0  0  0  0  0  0  0  0  0  0
    6.8830    1.9131   27.4303 C   0  0  0  0  0  0  0  0  0  0  0  0
    7.0347    0.4843   26.9755 C   0  0  0  0  0  0  0  0  0  0  0  0
    6.8377   -0.2079   27.7991 H   0  0  0  0  0  0  0  0  0  0  0  0
    6.3404    0.2676   26.1584 H   0  0  0  0  0  0  0  0  0  0  0  0
    8.0358    0.2983   26.5717 H   0  0  0  0  0  0  0  0  0  0  0  0
    6.2688    2.1782   28.6603 C   0  0  0  0  0  0  0  0  0  0  0  0
    5.9034    1.3246   29.2273 H   0  0  0  0  0  0  0  0  0  0  0  0
    7.5937    5.1626   26.5837 H   0  0  0  0  0  0  0  0  0  0  0  0
    6.4998    5.5612   28.7956 H   0  0  0  0  0  0  0  0  0  0  0  0
    5.7862    4.6000   30.9891 H   0  0  0  0  0  0  0  0  0  0  0  0
    5.5677    2.8549   31.1726 H   0  0  0  0  0  0  0  0  0  0  0  0
    4.3323    3.8195   30.3619 H   0  0  0  0  0  0  0  0  0  0  0  0
  1  2  1  0
  2  3  2  0
  3  4  1  0
  4  5  2  0
  5  6  1  0
  6  7  1  0
  7  8  2  0
  8  9  1  0
  9 10  1  0
  9 11  1  0
  9 12  1  0
  8 13  1  0
 13 14  1  0
 14 15  2  0
 14 16  1  0
 16 17  1  0
 17 18  1  0
 18 19  1  0
 19 20  1  0
 18 21  1  0
 18 22  1  0
 17 23  1  0
 23 24  2  0
 24 25  1  0
 25 26  2  0
 26 27  1  0
 27 28  2  0
 28 29  1  0
 26 30  1  0
 25 31  1  0
 24 32  1  0
 17 33  1  0
 16 34  1  0
 13 35  2  0
  5 36  1  0
 36 37  1  0
 37 38  1  0
 37 39  1  0
 37 40  1  0
 36 41  2  0
 41 42  1  0
  4 43  1  0
  3 44  1  0
  1 45  1  0
  1 46  1  0
  1 47  1  0
 41  2  1  0
 35  6  1  0
 28 23  1  0
M  END
>  <plip>  (1) 
-0.14285714285714285

>  <filename>  (1) 
[H][O][C]([H])([H])[C]([H])([c]1[c]([H])[n][c]([H])[c]([H])[c]1[H])[N]([H])[C](=[O])[c]1[n][n](-[c]2[c]([H])[c]([H])[c]([C]([H])([H])[H])[c]([H])[c]2[C]([H])([H])[H])[n][c]1[C]([H])([H])[H]

$$$$
