
     RDKit          3D

 38 39  0  0  0  0  0  0  0  0999 V2000
    8.7169    2.4397   24.1862 C   0  0  0  0  0  0  0  0  0  0  0  0
    9.6220    1.5371   23.3645 C   0  0  0  0  0  0  0  0  0  0  0  0
   10.7948    0.9969   24.1847 C   0  0  0  0  0  0  0  0  0  0  0  0
   11.6845    0.1893   23.2846 C   0  0  0  0  0  0  0  0  0  0  0  0
   11.1424   -0.9945   22.9065 N   0  0  0  0  0  0  0  0  0  0  0  0
   11.8668   -1.8503   22.1731 C   0  0  0  0  0  0  0  0  0  0  0  0
   13.1159   -1.5178   21.6551 C   0  0  0  0  0  0  0  0  0  0  0  0
   13.6688   -0.2745   21.9750 C   0  0  0  0  0  0  0  0  0  0  0  0
   12.9364    0.5895   22.7894 C   0  0  0  0  0  0  0  0  0  0  0  0
   13.5637    2.1823   23.1265 Cl  0  0  0  0  0  0  0  0  0  0  0  0
   14.6292    0.0558   21.5821 H   0  0  0  0  0  0  0  0  0  0  0  0
   13.6099   -2.2267   20.9992 H   0  0  0  0  0  0  0  0  0  0  0  0
   11.4272   -2.8260   21.9800 H   0  0  0  0  0  0  0  0  0  0  0  0
   11.3437    1.8258   24.6317 H   0  0  0  0  0  0  0  0  0  0  0  0
   10.4297    0.3471   24.9959 H   0  0  0  0  0  0  0  0  0  0  0  0
    8.8836    0.3735   22.8273 N   0  0  0  0  0  4  0  0  0  0  0  0
    8.1048    0.6560   21.6057 C   0  0  0  0  0  0  0  0  0  0  0  0
    7.3152   -0.5108   20.9907 C   0  0  0  0  0  0  0  0  0  0  0  0
    8.1962   -1.4946   20.6213 F   0  0  0  0  0  0  0  0  0  0  0  0
    6.4950   -1.0681   21.9364 F   0  0  0  0  0  0  0  0  0  0  0  0
    6.5170   -0.0328   19.8070 C   0  0  0  0  0  0  0  0  0  0  0  0
    5.3034    0.6490   19.9889 C   0  0  0  0  0  0  0  0  0  0  0  0
    4.7740    1.3331   18.8956 C   0  0  0  0  0  0  0  0  0  0  0  0
    5.4519    1.2916   17.6736 C   0  0  0  0  0  0  0  0  0  0  0  0
    6.5689    0.5748   17.4746 N   0  0  0  0  0  0  0  0  0  0  0  0
    7.0697   -0.0884   18.5213 C   0  0  0  0  0  0  0  0  0  0  0  0
    7.9691   -0.6752   18.3362 H   0  0  0  0  0  0  0  0  0  0  0  0
    5.0782    1.8451   16.8125 H   0  0  0  0  0  0  0  0  0  0  0  0
    3.8689    1.9224   18.9863 H   0  0  0  0  0  0  0  0  0  0  0  0
    4.8019    0.6561   20.9592 H   0  0  0  0  0  0  0  0  0  0  0  0
    8.7466    1.0040   20.7899 H   0  0  0  0  0  0  0  0  0  0  0  0
    7.3584    1.4506   21.7546 H   0  0  0  0  0  0  0  0  0  0  0  0
    9.5909   -0.4367   22.7319 H   0  0  0  0  0  0  0  0  0  0  0  0
    8.2210    0.0549   23.5815 H   0  0  0  0  0  0  0  0  0  0  0  0
   10.0322    2.1157   22.5176 H   0  0  0  0  0  0  0  0  0  0  0  0
    9.2946    3.2588   24.6183 H   0  0  0  0  0  0  0  0  0  0  0  0
    7.9270    2.8692   23.5630 H   0  0  0  0  0  0  0  0  0  0  0  0
    8.2492    1.8657   24.9953 H   0  0  0  0  0  0  0  0  0  0  0  0
  1  2  1  0
  2  3  1  0
  3  4  1  0
  4  5  2  0
  5  6  1  0
  6  7  2  0
  7  8  1  0
  8  9  2  0
  9 10  1  0
  8 11  1  0
  7 12  1  0
  6 13  1  0
  3 14  1  0
  3 15  1  0
  2 16  1  0
 16 17  1  0
 17 18  1  0
 18 19  1  0
 18 20  1  0
 18 21  1  0
 21 22  2  0
 22 23  1  0
 23 24  2  0
 24 25  1  0
 25 26  2  0
 26 27  1  0
 24 28  1  0
 23 29  1  0
 22 30  1  0
 17 31  1  0
 17 32  1  0
 16 33  1  0
 16 34  1  0
  2 35  1  0
  1 36  1  0
  1 37  1  0
  1 38  1  0
  9  4  1  0
 26 21  1  0
M  CHG  1  16   1
M  END
>  <plip>  (1) 
-0.1

>  <filename>  (1) 
[H][c]1[n][c]([C]([H])([H])[C]([H])([C]([H])([H])[H])[N+]([H])([H])[C]([H])([H])[C]([F])([F])[c]2[c]([H])[n][c]([H])[c]([H])[c]2[H])[c]([Cl])[c]([H])[c]1[H]

$$$$
