
     RDKit          3D

 31 33  0  0  0  0  0  0  0  0999 V2000
    4.9741    1.7979   16.9667 H   0  0  0  0  0  0  0  0  0  0  0  0
    5.4063    1.3068   17.8346 C   0  0  0  0  0  0  0  0  0  0  0  0
    6.5682    0.6694   17.6246 N   0  0  0  0  0  0  0  0  0  0  0  0
    7.1355    0.0625   18.6704 C   0  0  0  0  0  0  0  0  0  0  0  0
    8.0747   -0.4537   18.4766 H   0  0  0  0  0  0  0  0  0  0  0  0
    6.5934    0.0611   19.9638 C   0  0  0  0  0  0  0  0  0  0  0  0
    7.3399   -0.6668   20.9916 C   0  0  0  0  0  0  0  0  0  0  0  0
    8.0605   -1.7281   20.7868 N   0  0  0  0  0  0  0  0  0  0  0  0
    8.5004   -2.0815   22.0313 N   0  0  0  0  0  0  0  0  0  0  0  0
    9.1233   -2.8575   22.2127 H   0  0  0  0  0  0  0  0  0  0  0  0
    8.1341   -1.2417   23.0082 C   0  0  0  0  0  0  0  0  0  0  0  0
    8.5953   -1.2861   24.5989 S   0  0  0  0  0  0  0  0  0  0  0  0
    7.3447   -0.3306   22.3319 N   0  0  0  0  0  0  0  0  0  0  0  0
    7.0919    0.9832   22.7586 C   0  0  0  0  0  0  0  0  0  0  0  0
    7.3563    1.9347   22.0642 O   0  0  0  0  0  0  0  0  0  0  0  0
    6.4868    0.9804   23.9642 N   0  0  0  0  0  0  0  0  0  0  0  0
    6.6414    0.1340   24.4819 H   0  0  0  0  0  0  0  0  0  0  0  0
    5.9071    2.0762   24.5658 C   0  0  0  0  0  0  0  0  0  0  0  0
    5.9163    2.1805   25.9491 C   0  0  0  0  0  0  0  0  0  0  0  0
    6.3943    1.4229   26.5552 H   0  0  0  0  0  0  0  0  0  0  0  0
    5.3501    3.3204   26.5114 C   0  0  0  0  0  0  0  0  0  0  0  0
    5.3745    3.4674   27.5891 H   0  0  0  0  0  0  0  0  0  0  0  0
    4.7620    4.2940   25.8041 N   0  0  0  0  0  0  0  0  0  0  0  0
    4.7432    4.1481   24.4692 C   0  0  0  0  0  0  0  0  0  0  0  0
    4.2682    4.9421   23.8961 H   0  0  0  0  0  0  0  0  0  0  0  0
    5.3029    3.0684   23.8011 C   0  0  0  0  0  0  0  0  0  0  0  0
    5.3248    3.0027   22.7238 H   0  0  0  0  0  0  0  0  0  0  0  0
    5.3606    0.7105   20.1610 C   0  0  0  0  0  0  0  0  0  0  0  0
    4.8689    0.7214   21.1372 H   0  0  0  0  0  0  0  0  0  0  0  0
    4.7629    1.3434   19.0752 C   0  0  0  0  0  0  0  0  0  0  0  0
    3.8210    1.8713   19.1740 H   0  0  0  0  0  0  0  0  0  0  0  0
  1  2  1  0
  2  3  2  0
  3  4  1  0
  4  5  1  0
  4  6  2  0
  6  7  1  0
  7  8  2  0
  8  9  1  0
  9 10  1  0
  9 11  1  0
 11 12  2  0
 11 13  1  0
 13 14  1  0
 14 15  2  0
 14 16  1  0
 16 17  1  0
 16 18  1  0
 18 19  2  0
 19 20  1  0
 19 21  1  0
 21 22  1  0
 21 23  2  0
 23 24  1  0
 24 25  1  0
 24 26  2  0
 26 27  1  0
  6 28  1  0
 28 29  1  0
 28 30  2  0
 30 31  1  0
 30  2  1  0
 13  7  1  0
 26 18  1  0
M  END
>  <plip>  (1) 
-0.0

>  <filename>  (1) 
[H][c]1[n][c]([H])[c](-[c]2[n][n]([H])[c](=[S])[n]2[C](=[O])[N]([H])[c]2[c]([H])[c]([H])[n][c]([H])[c]2[H])[c]([H])[c]1[H]

$$$$
