
     RDKit          3D

 33 35  0  0  0  0  0  0  0  0999 V2000
   11.6628   -5.2676   27.0936 H   0  0  0  0  0  0  0  0  0  0  0  0
   10.6987   -5.2463   27.1113 O   0  0  0  0  0  0  0  0  0  0  0  0
   10.2521   -4.4197   26.1048 C   0  0  0  0  0  0  0  0  0  0  0  0
   10.8925   -4.3286   24.8739 C   0  0  0  0  0  0  0  0  0  0  0  0
   11.7615   -4.9521   24.7002 H   0  0  0  0  0  0  0  0  0  0  0  0
   10.4000   -3.4821   23.8731 C   0  0  0  0  0  0  0  0  0  0  0  0
   10.9265   -3.4279   22.9249 H   0  0  0  0  0  0  0  0  0  0  0  0
    9.2308   -2.7358   24.0818 C   0  0  0  0  0  0  0  0  0  0  0  0
    8.6415   -1.9115   22.9923 C   0  0  0  0  0  0  0  0  0  0  0  0
    9.3131   -0.9963   22.2118 C   0  0  0  0  0  0  0  0  0  0  0  0
   10.3451   -0.7508   22.4359 H   0  0  0  0  0  0  0  0  0  0  0  0
    8.6489   -0.3821   21.1215 C   0  0  0  0  0  0  0  0  0  0  0  0
    9.1802    0.3612   20.5281 H   0  0  0  0  0  0  0  0  0  0  0  0
    7.3363   -0.6807   20.7947 C   0  0  0  0  0  0  0  0  0  0  0  0
    6.6227    0.0435   19.7155 C   0  0  0  0  0  0  0  0  0  0  0  0
    7.1583    0.1685   18.4131 C   0  0  0  0  0  0  0  0  0  0  0  0
    8.1086   -0.3118   18.1776 H   0  0  0  0  0  0  0  0  0  0  0  0
    6.5624    0.8187   17.4060 N   0  0  0  0  0  0  0  0  0  0  0  0
    5.3913    1.4197   17.6749 C   0  0  0  0  0  0  0  0  0  0  0  0
    4.9342    1.9575   16.8465 H   0  0  0  0  0  0  0  0  0  0  0  0
    4.7636    1.3638   18.9238 C   0  0  0  0  0  0  0  0  0  0  0  0
    3.8213    1.8801   19.0721 H   0  0  0  0  0  0  0  0  0  0  0  0
    5.3784    0.6514   19.9554 C   0  0  0  0  0  0  0  0  0  0  0  0
    4.9276    0.5731   20.9457 H   0  0  0  0  0  0  0  0  0  0  0  0
    6.6506   -1.7439   21.5603 C   0  0  0  0  0  0  0  0  0  0  0  0
    5.6173   -2.3387   21.2960 O   0  0  0  0  0  0  0  0  0  0  0  0
    7.3066   -2.1132   22.7261 N   0  0  0  0  0  0  0  0  0  0  0  0
    6.7712   -2.8552   23.1516 H   0  0  0  0  0  0  0  0  0  0  0  0
    8.5756   -2.8590   25.3303 C   0  0  0  0  0  0  0  0  0  0  0  0
    7.6611   -2.3111   25.5294 H   0  0  0  0  0  0  0  0  0  0  0  0
    9.0657   -3.6876   26.3364 C   0  0  0  0  0  0  0  0  0  0  0  0
    8.3632   -3.7895   27.5004 O   0  0  0  0  0  0  0  0  0  0  0  0
    8.8271   -4.4397   28.0549 H   0  0  0  0  0  0  0  0  0  0  0  0
  1  2  1  0
  2  3  1  0
  3  4  2  0
  4  5  1  0
  4  6  1  0
  6  7  1  0
  6  8  2  0
  8  9  1  0
  9 10  2  0
 10 11  1  0
 10 12  1  0
 12 13  1  0
 12 14  2  0
 14 15  1  0
 15 16  2  0
 16 17  1  0
 16 18  1  0
 18 19  2  0
 19 20  1  0
 19 21  1  0
 21 22  1  0
 21 23  2  0
 23 24  1  0
 14 25  1  0
 25 26  2  0
 25 27  1  0
 27 28  1  0
  8 29  1  0
 29 30  1  0
 29 31  2  0
 31 32  1  0
 32 33  1  0
 31  3  1  0
 27  9  1  0
 23 15  1  0
M  END
>  <plip>  (1) 
-0.10714285714285714

>  <filename>  (1) 
[H][O][c]1[c]([H])[c]([H])[c](-[c]2[c]([H])[c]([H])[c](-[c]3[c]([H])[n][c]([H])[c]([H])[c]3[H])[c](=[O])[n]2[H])[c]([H])[c]1[O][H]

$$$$
