
     RDKit          3D

 44 47  0  0  0  0  0  0  0  0999 V2000
    9.4716    1.1783   21.2041 O   0  0  0  0  0  0  0  0  0  0  0  0
    8.7109    1.0555   22.1553 C   0  0  0  0  0  0  0  0  0  0  0  0
    7.7015    0.1392   22.1423 N   0  0  0  0  0  0  0  0  0  0  0  0
    7.4172   -0.6944   20.9842 C   0  0  0  0  0  0  0  0  0  0  0  0
    6.6705   -1.9774   21.3744 C   0  0  0  0  0  0  0  0  0  0  0  0
    7.4469   -2.9591   22.2634 C   0  0  0  0  0  0  0  0  0  0  0  0
    6.7351   -4.3042   22.4973 C   0  0  0  0  0  0  0  0  0  0  0  0
    7.3138   -4.7936   23.8334 C   0  0  0  0  0  0  0  0  0  0  0  0
    7.8412   -3.6544   24.4945 O   0  0  0  0  0  0  0  0  0  0  0  0
    7.6759   -2.4896   23.7090 C   0  0  0  0  0  0  0  0  0  0  0  0
    6.8034   -1.9225   24.0789 H   0  0  0  0  0  0  0  0  0  0  0  0
    8.5650   -1.8616   23.8331 H   0  0  0  0  0  0  0  0  0  0  0  0
    6.5610   -5.2610   24.4829 H   0  0  0  0  0  0  0  0  0  0  0  0
    8.1241   -5.5208   23.6910 H   0  0  0  0  0  0  0  0  0  0  0  0
    5.6517   -4.1545   22.5868 H   0  0  0  0  0  0  0  0  0  0  0  0
    6.8950   -5.0191   21.6836 H   0  0  0  0  0  0  0  0  0  0  0  0
    8.4328   -3.1546   21.8143 H   0  0  0  0  0  0  0  0  0  0  0  0
    5.7325   -1.6885   21.8653 H   0  0  0  0  0  0  0  0  0  0  0  0
    6.3718   -2.4777   20.4446 H   0  0  0  0  0  0  0  0  0  0  0  0
    6.6669    0.0726   19.9016 C   0  0  0  0  0  0  0  0  0  0  0  0
    5.4339    0.7041   20.1255 C   0  0  0  0  0  0  0  0  0  0  0  0
    4.7897    1.3345   19.0577 C   0  0  0  0  0  0  0  0  0  0  0  0
    5.3956    1.3051   17.7976 C   0  0  0  0  0  0  0  0  0  0  0  0
    6.5554    0.6804   17.5509 N   0  0  0  0  0  0  0  0  0  0  0  0
    7.1653    0.0939   18.5913 C   0  0  0  0  0  0  0  0  0  0  0  0
    8.1108   -0.3986   18.3567 H   0  0  0  0  0  0  0  0  0  0  0  0
    4.9308    1.8056   16.9496 H   0  0  0  0  0  0  0  0  0  0  0  0
    3.8455    1.8531   19.1908 H   0  0  0  0  0  0  0  0  0  0  0  0
    4.9725    0.7077   21.1154 H   0  0  0  0  0  0  0  0  0  0  0  0
    8.3907   -0.9765   20.5667 H   0  0  0  0  0  0  0  0  0  0  0  0
    7.0255    0.2214   22.8836 H   0  0  0  0  0  0  0  0  0  0  0  0
    8.8590    1.9034   23.4360 C   0  0  0  0  0  0  0  0  0  0  0  0
    8.2181    1.6318   24.5470 N   0  0  0  0  0  0  0  0  0  0  0  0
    8.5978    2.7183   25.7658 S   0  0  0  0  0  0  0  0  0  0  0  0
    9.6293    3.6870   24.7637 C   0  0  0  0  0  0  0  0  0  0  0  0
    9.7165    3.0738   23.4960 C   0  0  0  0  0  0  0  0  0  0  0  0
   10.5372    3.6189   22.4903 C   0  0  0  0  0  0  0  0  0  0  0  0
   11.2022    4.8030   22.7512 C   0  0  0  0  0  0  0  0  0  0  0  0
   11.1167    5.4289   24.0116 C   0  0  0  0  0  0  0  0  0  0  0  0
   10.3233    4.8903   25.0159 C   0  0  0  0  0  0  0  0  0  0  0  0
   10.2358    5.7030   26.5466 Cl  0  0  0  0  0  0  0  0  0  0  0  0
   11.6825    6.3322   24.2111 H   0  0  0  0  0  0  0  0  0  0  0  0
   11.7727    5.2631   21.9519 H   0  0  0  0  0  0  0  0  0  0  0  0
   10.6199    3.0951   21.5412 H   0  0  0  0  0  0  0  0  0  0  0  0
  1  2  2  0
  2  3  1  0
  3  4  1  0
  4  5  1  0
  5  6  1  0
  6  7  1  0
  7  8  1  0
  8  9  1  0
  9 10  1  0
 10 11  1  0
 10 12  1  0
  8 13  1  0
  8 14  1  0
  7 15  1  0
  7 16  1  0
  6 17  1  0
  5 18  1  0
  5 19  1  0
  4 20  1  0
 20 21  2  0
 21 22  1  0
 22 23  2  0
 23 24  1  0
 24 25  2  0
 25 26  1  0
 23 27  1  0
 22 28  1  0
 21 29  1  0
  4 30  1  0
  3 31  1  0
  2 32  1  0
 32 33  2  0
 33 34  1  0
 34 35  1  0
 35 36  2  0
 36 37  1  0
 37 38  2  0
 38 39  1  0
 39 40  2  0
 40 41  1  0
 39 42  1  0
 38 43  1  0
 37 44  1  0
 10  6  1  0
 25 20  1  0
 36 32  1  0
 40 35  1  0
M  END
>  <plip>  (1) 
-0.14285714285714285

>  <filename>  (1) 
[H][c]1[n][c]([H])[c]([C]([H])([N]([H])[C](=[O])[c]2[n][s][c]3[c]([Cl])[c]([H])[c]([H])[c]([H])[c]23)[C]([H])([H])[C]2([H])[C]([H])([H])[O][C]([H])([H])[C]2([H])[H])[c]([H])[c]1[H]

$$$$
