
     RDKit          3D

 35 38  0  0  0  0  0  0  0  0999 V2000
    4.8990    1.9671   16.9188 H   0  0  0  0  0  0  0  0  0  0  0  0
    5.4466    1.4036   17.6722 C   0  0  0  0  0  0  0  0  0  0  0  0
    6.6110    0.8613   17.2767 N   0  0  0  0  0  0  0  0  0  0  0  0
    7.3262    0.1972   18.1975 C   0  0  0  0  0  0  0  0  0  0  0  0
    8.2722   -0.2210   17.8518 H   0  0  0  0  0  0  0  0  0  0  0  0
    6.9010    0.0053   19.5338 C   0  0  0  0  0  0  0  0  0  0  0  0
    7.6125   -0.8053   20.5443 C   0  0  0  0  0  0  0  0  0  0  0  0
    8.8851   -0.6647   20.9734 C   0  0  0  0  0  0  0  0  0  0  0  0
    9.5825    0.0925   20.6601 H   0  0  0  0  0  0  0  0  0  0  0  0
    9.1689   -1.4787   22.0652 N   0  0  0  0  0  0  0  0  0  0  0  0
   10.0052   -2.0655   22.0526 H   0  0  0  0  0  0  0  0  0  0  0  0
    7.9920   -2.2210   22.2916 N   0  0  0  0  0  0  0  0  0  0  0  0
    7.7408   -2.8722   23.5305 C   0  0  0  0  0  0  0  0  0  0  0  0
    6.9362   -3.9946   23.5109 C   0  0  0  0  0  0  0  0  0  0  0  0
    6.4186   -4.2418   22.5950 H   0  0  0  0  0  0  0  0  0  0  0  0
    6.7870   -4.8045   24.6629 C   0  0  0  0  0  0  0  0  0  0  0  0
    6.1588   -5.6877   24.6167 H   0  0  0  0  0  0  0  0  0  0  0  0
    7.4216   -4.4715   25.8313 C   0  0  0  0  0  0  0  0  0  0  0  0
    7.3455   -5.1053   26.7130 H   0  0  0  0  0  0  0  0  0  0  0  0
    8.1618   -3.2567   25.9224 C   0  0  0  0  0  0  0  0  0  0  0  0
    8.7255   -2.8614   27.1643 C   0  0  0  0  0  0  0  0  0  0  0  0
    8.6110   -3.5705   27.9796 H   0  0  0  0  0  0  0  0  0  0  0  0
    9.3484   -1.6458   27.3112 C   0  0  0  0  0  0  0  0  0  0  0  0
    9.7576   -1.3246   28.2683 H   0  0  0  0  0  0  0  0  0  0  0  0
    9.4593   -0.7743   26.1974 C   0  0  0  0  0  0  0  0  0  0  0  0
    9.9404    0.1910   26.3350 H   0  0  0  0  0  0  0  0  0  0  0  0
    8.9641   -1.1408   24.9635 C   0  0  0  0  0  0  0  0  0  0  0  0
    9.0488   -0.4731   24.1155 H   0  0  0  0  0  0  0  0  0  0  0  0
    8.3103   -2.4052   24.7781 C   0  0  0  0  0  0  0  0  0  0  0  0
    6.9856   -1.8643   21.3702 C   0  0  0  0  0  0  0  0  0  0  0  0
    5.8792   -2.3787   21.3053 O   0  0  0  0  0  0  0  0  0  0  0  0
    5.6777    0.5768   19.9114 C   0  0  0  0  0  0  0  0  0  0  0  0
    5.3340    0.4379   20.9382 H   0  0  0  0  0  0  0  0  0  0  0  0
    4.9414    1.2943   18.9724 C   0  0  0  0  0  0  0  0  0  0  0  0
    4.0075    1.7779   19.2404 H   0  0  0  0  0  0  0  0  0  0  0  0
  1  2  1  0
  2  3  2  0
  3  4  1  0
  4  5  1  0
  4  6  2  0
  6  7  1  0
  7  8  2  0
  8  9  1  0
  8 10  1  0
 10 11  1  0
 10 12  1  0
 12 13  1  0
 13 14  2  0
 14 15  1  0
 14 16  1  0
 16 17  1  0
 16 18  2  0
 18 19  1  0
 18 20  1  0
 20 21  2  0
 21 22  1  0
 21 23  1  0
 23 24  1  0
 23 25  2  0
 25 26  1  0
 25 27  1  0
 27 28  1  0
 27 29  2  0
 12 30  1  0
 30 31  2  0
  6 32  1  0
 32 33  1  0
 32 34  2  0
 34 35  1  0
 34  2  1  0
 30  7  1  0
 29 13  1  0
 29 20  1  0
M  END
>  <plip>  (1) 
-0.06666666666666667

>  <filename>  (1) 
[H][c]1[n][c]([H])[c](-[c]2[c]([H])[n]([H])[n](-[c]3[c]([H])[c]([H])[c]([H])[c]4[c]([H])[c]([H])[c]([H])[c]([H])[c]34)[c]2=[O])[c]([H])[c]1[H]

$$$$
