
     RDKit          3D

 56 58  0  0  0  0  0  0  0  0999 V2000
    7.3854    2.8412   24.3257 C   0  0  0  0  0  0  0  0  0  0  0  0
    8.5948    2.3948   23.5147 C   0  0  0  0  0  0  0  0  0  0  0  0
    9.3558    3.5591   22.8805 C   0  0  0  0  0  0  0  0  0  0  0  0
   10.2255    4.2257   23.9055 C   0  0  0  0  0  0  0  0  0  0  0  0
   11.3667    3.8476   24.0936 O   0  0  0  0  0  0  0  0  0  0  0  0
    9.5953    5.1931   24.6596 N   0  0  0  0  0  0  0  0  0  0  0  0
   10.0714    5.8378   25.8269 C   0  0  0  0  0  0  0  0  0  0  0  0
   11.4468    6.0158   26.0153 C   0  0  0  0  0  0  0  0  0  0  0  0
   11.8988    6.6765   27.1623 C   0  0  0  0  0  0  0  0  0  0  0  0
   10.9670    7.1196   28.1027 C   0  0  0  0  0  0  0  0  0  0  0  0
    9.6484    6.9406   27.9542 N   0  0  0  0  0  0  0  0  0  0  0  0
    9.2229    6.3451   26.8564 C   0  0  0  0  0  0  0  0  0  0  0  0
    7.4953    6.1941   26.6959 Cl  0  0  0  0  0  0  0  0  0  0  0  0
   11.2797    7.6386   29.0063 H   0  0  0  0  0  0  0  0  0  0  0  0
   12.9578    6.8294   27.3275 H   0  0  0  0  0  0  0  0  0  0  0  0
   12.1191    5.6118   25.2632 H   0  0  0  0  0  0  0  0  0  0  0  0
    8.6636    5.4166   24.3511 H   0  0  0  0  0  0  0  0  0  0  0  0
   10.0403    3.1606   22.1310 H   0  0  0  0  0  0  0  0  0  0  0  0
    8.6798    4.2811   22.4104 H   0  0  0  0  0  0  0  0  0  0  0  0
    8.1663    1.5384   22.3822 N   0  0  0  0  0  4  0  0  0  0  0  0
    7.4915    0.2357   22.6947 C   0  0  0  0  0  0  0  0  0  0  0  0
    7.5547   -0.7532   21.5160 C   0  0  0  0  0  0  0  0  0  0  0  0
    6.7003   -0.3308   20.3277 C   0  0  0  0  0  0  0  0  0  0  0  0
    5.4784    0.3523   20.4583 C   0  0  0  0  0  0  0  0  0  0  0  0
    4.9320    0.9847   19.3407 C   0  0  0  0  0  0  0  0  0  0  0  0
    5.5910    0.8664   18.1132 C   0  0  0  0  0  0  0  0  0  0  0  0
    6.6963    0.1260   17.9423 N   0  0  0  0  0  0  0  0  0  0  0  0
    7.2059   -0.4785   19.0219 C   0  0  0  0  0  0  0  0  0  0  0  0
    8.0757   -1.1189   18.8554 H   0  0  0  0  0  0  0  0  0  0  0  0
    5.2077    1.3696   17.2259 H   0  0  0  0  0  0  0  0  0  0  0  0
    4.0232    1.5720   19.4063 H   0  0  0  0  0  0  0  0  0  0  0  0
    4.9744    0.3960   21.4270 H   0  0  0  0  0  0  0  0  0  0  0  0
    7.2264   -2.2107   21.9936 N   0  0  0  0  0  4  0  0  0  0  0  0
    7.4398   -3.2283   20.8970 C   0  0  0  0  0  0  0  0  0  0  0  0
    6.9065   -4.6197   21.2243 C   0  0  0  0  0  0  0  0  0  0  0  0
    5.5243   -4.6005   21.5484 O   0  0  0  0  0  0  0  0  0  0  0  0
    5.2866   -3.7852   22.6823 C   0  0  0  0  0  0  0  0  0  0  0  0
    5.7922   -2.3542   22.4941 C   0  0  0  0  0  0  0  0  0  0  0  0
    5.7162   -1.8238   23.4475 H   0  0  0  0  0  0  0  0  0  0  0  0
    5.1501   -1.8633   21.7543 H   0  0  0  0  0  0  0  0  0  0  0  0
    4.1995   -3.7656   22.8237 H   0  0  0  0  0  0  0  0  0  0  0  0
    5.7581   -4.2099   23.5834 H   0  0  0  0  0  0  0  0  0  0  0  0
    6.9943   -5.2447   20.3326 H   0  0  0  0  0  0  0  0  0  0  0  0
    7.4913   -5.0584   22.0486 H   0  0  0  0  0  0  0  0  0  0  0  0
    8.5001   -3.2778   20.6365 H   0  0  0  0  0  0  0  0  0  0  0  0
    6.8891   -2.8897   20.0181 H   0  0  0  0  0  0  0  0  0  0  0  0
    7.8830   -2.4271   22.7794 H   0  0  0  0  0  0  0  0  0  0  0  0
    8.6034   -0.7706   21.1985 H   0  0  0  0  0  0  0  0  0  0  0  0
    7.9460   -0.2661   23.5581 H   0  0  0  0  0  0  0  0  0  0  0  0
    6.4403    0.4006   22.9487 H   0  0  0  0  0  0  0  0  0  0  0  0
    8.9976    1.3689   21.7737 H   0  0  0  0  0  0  0  0  0  0  0  0
    7.5163    2.1484   21.8067 H   0  0  0  0  0  0  0  0  0  0  0  0
    9.2804    1.8343   24.1668 H   0  0  0  0  0  0  0  0  0  0  0  0
    7.6790    3.4407   25.1873 H   0  0  0  0  0  0  0  0  0  0  0  0
    6.7045    3.4334   23.6995 H   0  0  0  0  0  0  0  0  0  0  0  0
    6.8319    1.9719   24.6949 H   0  0  0  0  0  0  0  0  0  0  0  0
  1  2  1  0
  2  3  1  0
  3  4  1  0
  4  5  2  0
  4  6  1  0
  6  7  1  0
  7  8  2  0
  8  9  1  0
  9 10  2  0
 10 11  1  0
 11 12  2  0
 12 13  1  0
 10 14  1  0
  9 15  1  0
  8 16  1  0
  6 17  1  0
  3 18  1  0
  3 19  1  0
  2 20  1  0
 20 21  1  0
 21 22  1  0
 22 23  1  0
 23 24  2  0
 24 25  1  0
 25 26  2  0
 26 27  1  0
 27 28  2  0
 28 29  1  0
 26 30  1  0
 25 31  1  0
 24 32  1  0
 22 33  1  0
 33 34  1  0
 34 35  1  0
 35 36  1  0
 36 37  1  0
 37 38  1  0
 38 39  1  0
 38 40  1  0
 37 41  1  0
 37 42  1  0
 35 43  1  0
 35 44  1  0
 34 45  1  0
 34 46  1  0
 33 47  1  0
 22 48  1  0
 21 49  1  0
 21 50  1  0
 20 51  1  0
 20 52  1  0
  2 53  1  0
  1 54  1  0
  1 55  1  0
  1 56  1  0
 12  7  1  0
 28 23  1  0
 38 33  1  0
M  CHG  2  20   1  33   1
M  END
>  <plip>  (1) 
-0.10714285714285714

>  <filename>  (1) 
[H][c]1[n][c]([Cl])[c]([N]([H])[C](=[O])[C]([H])([H])[C]([H])([C]([H])([H])[H])[N+]([H])([H])[C]([H])([H])[C]([H])([c]2[c]([H])[n][c]([H])[c]([H])[c]2[H])[N+]2([H])[C]([H])([H])[C]([H])([H])[O][C]([H])([H])[C]2([H])[H])[c]([H])[c]1[H]

$$$$
