
     RDKit          3D

 38 40  0  0  0  0  0  0  0  0999 V2000
    8.7519   -0.4026   21.2023 C   0  0  0  0  0  0  0  0  0  0  0  0
    7.3390   -0.7034   20.9762 N   0  0  0  0  0  0  0  0  0  0  0  0
    6.6404   -1.7468   21.6182 C   0  0  0  0  0  0  0  0  0  0  0  0
    5.5472   -2.0906   21.2282 O   0  0  0  0  0  0  0  0  0  0  0  0
    7.3300   -2.4077   22.8322 C   0  0  0  0  0  0  0  0  0  0  0  0
    6.5403   -3.4453   23.4503 N   0  0  0  0  0  0  0  0  0  0  0  0
    5.5510   -3.2808   24.3540 C   0  0  0  0  0  0  0  0  0  0  0  0
    4.9361   -4.5081   24.5413 C   0  0  0  0  0  0  0  0  0  0  0  0
    3.8312   -4.8408   25.4607 C   0  0  0  0  0  0  0  0  0  0  0  0
    3.4107   -3.9120   26.4309 C   0  0  0  0  0  0  0  0  0  0  0  0
    2.3628   -4.2087   27.3042 C   0  0  0  0  0  0  0  0  0  0  0  0
    1.7151   -5.4475   27.2269 C   0  0  0  0  0  0  0  0  0  0  0  0
    2.1239   -6.3846   26.2701 C   0  0  0  0  0  0  0  0  0  0  0  0
    3.1703   -6.0830   25.3970 C   0  0  0  0  0  0  0  0  0  0  0  0
    3.4799   -6.8125   24.6535 H   0  0  0  0  0  0  0  0  0  0  0  0
    1.6304   -7.3520   26.2043 H   0  0  0  0  0  0  0  0  0  0  0  0
    0.9012   -5.6806   27.9075 H   0  0  0  0  0  0  0  0  0  0  0  0
    2.0546   -3.4722   28.0438 H   0  0  0  0  0  0  0  0  0  0  0  0
    3.9148   -2.9512   26.5005 H   0  0  0  0  0  0  0  0  0  0  0  0
    5.6472   -5.3510   23.6420 C   0  0  0  0  0  0  0  0  0  0  0  0
    6.5899   -4.6973   22.9832 N   0  0  0  0  0  0  0  0  0  0  0  0
    5.5036   -6.4138   23.4770 H   0  0  0  0  0  0  0  0  0  0  0  0
    5.3442   -2.3004   24.7628 H   0  0  0  0  0  0  0  0  0  0  0  0
    8.2833   -2.8441   22.5315 H   0  0  0  0  0  0  0  0  0  0  0  0
    7.5219   -1.6513   23.5922 H   0  0  0  0  0  0  0  0  0  0  0  0
    6.6653    0.0037   19.9123 C   0  0  0  0  0  0  0  0  0  0  0  0
    5.4437    0.6454   20.1632 C   0  0  0  0  0  0  0  0  0  0  0  0
    4.8172    1.3129   19.1048 C   0  0  0  0  0  0  0  0  0  0  0  0
    5.4028    1.2965   17.8331 C   0  0  0  0  0  0  0  0  0  0  0  0
    6.5672    0.6795   17.5736 N   0  0  0  0  0  0  0  0  0  0  0  0
    7.1787    0.0715   18.5989 C   0  0  0  0  0  0  0  0  0  0  0  0
    8.1203   -0.4222   18.3730 H   0  0  0  0  0  0  0  0  0  0  0  0
    4.9171    1.7854   16.9906 H   0  0  0  0  0  0  0  0  0  0  0  0
    3.8810    1.8391   19.2588 H   0  0  0  0  0  0  0  0  0  0  0  0
    5.0086    0.6154   21.1631 H   0  0  0  0  0  0  0  0  0  0  0  0
    8.9633   -0.2008   22.2578 H   0  0  0  0  0  0  0  0  0  0  0  0
    9.0028    0.5099   20.6541 H   0  0  0  0  0  0  0  0  0  0  0  0
    9.4311   -1.1908   20.8465 H   0  0  0  0  0  0  0  0  0  0  0  0
  1  2  1  0
  2  3  1  0
  3  4  2  0
  3  5  1  0
  5  6  1  0
  6  7  1  0
  7  8  2  0
  8  9  1  0
  9 10  2  0
 10 11  1  0
 11 12  2  0
 12 13  1  0
 13 14  2  0
 14 15  1  0
 13 16  1  0
 12 17  1  0
 11 18  1  0
 10 19  1  0
  8 20  1  0
 20 21  2  0
 20 22  1  0
  7 23  1  0
  5 24  1  0
  5 25  1  0
  2 26  1  0
 26 27  2  0
 27 28  1  0
 28 29  2  0
 29 30  1  0
 30 31  2  0
 31 32  1  0
 29 33  1  0
 28 34  1  0
 27 35  1  0
  1 36  1  0
  1 37  1  0
  1 38  1  0
 21  6  1  0
 31 26  1  0
 14  9  1  0
M  END
>  <plip>  (1) 
-0.07142857142857142

>  <filename>  (1) 
[H][c]1[n][c]([H])[c]([N]([C](=[O])[C]([H])([H])[n]2[n][c]([H])[c](-[c]3[c]([H])[c]([H])[c]([H])[c]([H])[c]3[H])[c]2[H])[C]([H])([H])[H])[c]([H])[c]1[H]

$$$$
