
     RDKit          3D

 27 28  0  0  0  0  0  0  0  0999 V2000
    4.9237    1.8221   16.9678 H   0  0  0  0  0  0  0  0  0  0  0  0
    5.3768    1.2964   17.8094 C   0  0  0  0  0  0  0  0  0  0  0  0
    6.5305    0.6627   17.5574 N   0  0  0  0  0  0  0  0  0  0  0  0
    7.1369    0.0423   18.5800 C   0  0  0  0  0  0  0  0  0  0  0  0
    8.1024   -0.4079   18.3462 H   0  0  0  0  0  0  0  0  0  0  0  0
    6.6257   -0.0113   19.8936 C   0  0  0  0  0  0  0  0  0  0  0  0
    7.4007   -0.6333   21.0378 C   0  0  0  0  0  0  0  0  0  0  0  0
    6.7465   -0.9703   21.8481 H   0  0  0  0  0  0  0  0  0  0  0  0
    8.0150   -1.4792   20.7120 H   0  0  0  0  0  0  0  0  0  0  0  0
    8.6367    0.4993   21.8011 S   0  0  0  0  0  4  0  0  0  0  0  0
    9.5016    0.9902   20.7013 O   0  0  0  0  0  0  0  0  0  0  0  0
    7.6364    1.8159   22.0860 N   0  0  0  0  0  0  0  0  0  0  0  0
    7.6619    2.4462   21.2991 H   0  0  0  0  0  0  0  0  0  0  0  0
    7.3155    2.2361   23.3675 C   0  0  0  0  0  0  0  0  0  0  0  0
    7.7149    1.6305   24.3343 O   0  0  0  0  0  0  0  0  0  0  0  0
    6.4189    3.4508   23.4147 C   0  0  0  0  0  0  0  0  0  0  0  0
    6.0817    3.9130   24.6511 O   0  0  0  0  0  0  0  0  0  0  0  0
    5.2463    4.9539   24.5002 C   0  0  0  0  0  0  0  0  0  0  0  0
    4.8988    5.3999   25.4180 H   0  0  0  0  0  0  0  0  0  0  0  0
    5.0195    5.2032   23.1851 C   0  0  0  0  0  0  0  0  0  0  0  0
    4.3851    5.9872   22.7868 H   0  0  0  0  0  0  0  0  0  0  0  0
    5.7859    4.2272   22.4702 C   0  0  0  0  0  0  0  0  0  0  0  0
    5.8193    4.1407   21.3915 H   0  0  0  0  0  0  0  0  0  0  0  0
    5.4069    0.6401   20.1220 C   0  0  0  0  0  0  0  0  0  0  0  0
    4.9859    0.6534   21.1276 H   0  0  0  0  0  0  0  0  0  0  0  0
    4.7730    1.3103   19.0701 C   0  0  0  0  0  0  0  0  0  0  0  0
    3.8523    1.8645   19.2165 H   0  0  0  0  0  0  0  0  0  0  0  0
  1  2  1  0
  2  3  2  0
  3  4  1  0
  4  5  1  0
  4  6  2  0
  6  7  1  0
  7  8  1  0
  7  9  1  0
  7 10  1  0
 10 11  2  0
 10 12  1  6
 12 13  1  0
 12 14  1  0
 14 15  2  0
 14 16  1  0
 16 17  1  0
 17 18  1  0
 18 19  1  0
 18 20  2  0
 20 21  1  0
 20 22  1  0
 22 23  1  0
  6 24  1  0
 24 25  1  0
 24 26  2  0
 26 27  1  0
 26  2  1  0
 22 16  2  0
M  END
>  <plip>  (1) 
-0.03571428571428571

>  <filename>  (1) 
[H][c]1[n][c]([H])[c]([C]([H])([H])[S@@](=[O])[N]([H])[C](=[O])[c]2[o][c]([H])[c]([H])[c]2[H])[c]([H])[c]1[H]

$$$$
