
     RDKit          3D

 21 22  0  0  0  0  0  0  0  0999 V2000
    4.9364    1.7881   16.9914 H   0  0  0  0  0  0  0  0  0  0  0  0
    5.4068    1.2883   17.8351 C   0  0  0  0  0  0  0  0  0  0  0  0
    6.5687    0.6683   17.5763 N   0  0  0  0  0  0  0  0  0  0  0  0
    7.1775    0.0519   18.5920 C   0  0  0  0  0  0  0  0  0  0  0  0
    8.1267   -0.4262   18.3606 H   0  0  0  0  0  0  0  0  0  0  0  0
    6.6561    0.0025   19.8967 C   0  0  0  0  0  0  0  0  0  0  0  0
    7.3650   -0.6952   20.9632 C   0  0  0  0  0  0  0  0  0  0  0  0
    8.5525   -1.3721   20.7876 N   0  0  0  0  0  0  0  0  0  0  0  0
    8.9533   -1.8361   21.9148 N   0  0  0  0  0  0  0  0  0  0  0  0
    8.0470   -1.4752   22.8472 N   0  0  0  0  0  0  0  0  0  0  0  0
    8.1038   -2.0280   24.4528 S   0  0  0  0  0  0  0  0  0  0  0  0
    7.1772   -3.6398   24.2845 C   0  0  0  0  0  0  0  0  0  0  0  0
    7.7942   -4.4514   23.4316 F   0  0  0  0  0  0  0  0  0  0  0  0
    5.9313   -3.4369   23.8438 F   0  0  0  0  0  0  0  0  0  0  0  0
    7.1129   -4.2328   25.4750 F   0  0  0  0  0  0  0  0  0  0  0  0
    7.0262   -0.7784   22.2829 C   0  0  0  0  0  0  0  0  0  0  0  0
    6.1875   -0.4716   22.8897 H   0  0  0  0  0  0  0  0  0  0  0  0
    5.4388    0.6517   20.1522 C   0  0  0  0  0  0  0  0  0  0  0  0
    4.9878    0.6539   21.1483 H   0  0  0  0  0  0  0  0  0  0  0  0
    4.8111    1.3060   19.1001 C   0  0  0  0  0  0  0  0  0  0  0  0
    3.8814    1.8372   19.2476 H   0  0  0  0  0  0  0  0  0  0  0  0
  1  2  1  0
  2  3  2  0
  3  4  1  0
  4  5  1  0
  4  6  2  0
  6  7  1  0
  7  8  1  0
  8  9  2  0
  9 10  1  0
 10 11  1  0
 11 12  1  0
 12 13  1  0
 12 14  1  0
 12 15  1  0
 10 16  1  0
 16 17  1  0
  6 18  1  0
 18 19  1  0
 18 20  2  0
 20 21  1  0
 20  2  1  0
 16  7  2  0
M  END
>  <plip>  (1) 
-0.03333333333333333

>  <filename>  (1) 
[H][c]1[n][c]([H])[c](-[c]2[n][n][n]([S][C]([F])([F])[F])[c]2[H])[c]([H])[c]1[H]

$$$$
