
     RDKit          3D

 39 41  0  0  0  0  0  0  0  0999 V2000
   10.9495    2.4191   22.0504 C   0  0  0  0  0  0  0  0  0  0  0  0
    9.7278    1.6578   22.3482 N   0  0  0  0  0  0  0  0  0  0  0  0
    8.8939    1.9551   23.5191 C   0  0  0  0  0  0  0  0  0  0  0  0
    7.4966    2.5270   23.1710 C   0  0  0  0  0  0  0  0  0  0  0  0
    7.4753    3.9278   22.5295 C   0  0  0  0  0  0  0  0  0  0  0  0
    7.4911    4.9589   23.6623 C   0  0  0  0  0  0  0  0  0  0  0  0
    6.4364    4.5096   24.6786 C   0  0  0  0  0  0  0  0  0  0  0  0
    6.4865    2.6823   24.7020 S   0  0  0  0  0  0  0  0  0  0  0  0
    5.4331    4.8384   24.3844 H   0  0  0  0  0  0  0  0  0  0  0  0
    6.6382    4.8857   25.6857 H   0  0  0  0  0  0  0  0  0  0  0  0
    8.4809    4.9716   24.1399 H   0  0  0  0  0  0  0  0  0  0  0  0
    7.2863    5.9718   23.2936 H   0  0  0  0  0  0  0  0  0  0  0  0
    8.3082    4.0629   21.8248 H   0  0  0  0  0  0  0  0  0  0  0  0
    6.5470    4.0268   21.9485 H   0  0  0  0  0  0  0  0  0  0  0  0
    6.9879    1.8074   22.5183 H   0  0  0  0  0  0  0  0  0  0  0  0
    9.4308    2.6460   24.1798 H   0  0  0  0  0  0  0  0  0  0  0  0
    8.7345    1.0306   24.0863 H   0  0  0  0  0  0  0  0  0  0  0  0
    9.2922    0.7652   21.3868 C   0  0  0  0  0  0  0  0  0  0  0  0
    9.6134    0.8515   20.2158 O   0  0  0  0  0  0  0  0  0  0  0  0
    8.4200   -0.3578   21.8387 C   0  0  0  0  0  0  0  0  0  0  0  0
    8.5447   -1.3407   22.8063 C   0  0  0  0  0  0  0  0  0  0  0  0
    7.4939   -2.2311   22.5219 C   0  0  0  0  0  0  0  0  0  0  0  0
    6.7453   -1.8142   21.5127 N   0  0  0  0  0  0  0  0  0  0  0  0
    7.3109   -0.6701   21.0989 N   0  0  0  0  0  0  0  0  0  0  0  0
    6.6854    0.0454   20.0400 C   0  0  0  0  0  0  0  0  0  0  0  0
    5.4479    0.6671   20.2367 C   0  0  0  0  0  0  0  0  0  0  0  0
    4.8487    1.2918   19.1374 C   0  0  0  0  0  0  0  0  0  0  0  0
    5.4902    1.2491   17.8946 C   0  0  0  0  0  0  0  0  0  0  0  0
    6.6597    0.6229   17.6956 N   0  0  0  0  0  0  0  0  0  0  0  0
    7.2418    0.0326   18.7517 C   0  0  0  0  0  0  0  0  0  0  0  0
    8.1963   -0.4513   18.5807 H   0  0  0  0  0  0  0  0  0  0  0  0
    5.0455    1.7227   17.0240 H   0  0  0  0  0  0  0  0  0  0  0  0
    3.8965    1.7993   19.2330 H   0  0  0  0  0  0  0  0  0  0  0  0
    4.9597    0.6522   21.2132 H   0  0  0  0  0  0  0  0  0  0  0  0
    7.2611   -3.1716   22.9946 H   0  0  0  0  0  0  0  0  0  0  0  0
    9.2757   -1.4351   23.5982 H   0  0  0  0  0  0  0  0  0  0  0  0
   11.8329    1.7655   22.0636 H   0  0  0  0  0  0  0  0  0  0  0  0
   10.8869    2.8575   21.0484 H   0  0  0  0  0  0  0  0  0  0  0  0
   11.1020    3.2134   22.7878 H   0  0  0  0  0  0  0  0  0  0  0  0
  1  2  1  0
  2  3  1  0
  3  4  1  0
  4  5  1  0
  5  6  1  0
  6  7  1  0
  7  8  1  0
  7  9  1  0
  7 10  1  0
  6 11  1  0
  6 12  1  0
  5 13  1  0
  5 14  1  0
  4 15  1  0
  3 16  1  0
  3 17  1  0
  2 18  1  0
 18 19  2  0
 18 20  1  0
 20 21  2  0
 21 22  1  0
 22 23  2  0
 23 24  1  0
 24 25  1  0
 25 26  2  0
 26 27  1  0
 27 28  2  0
 28 29  1  0
 29 30  2  0
 30 31  1  0
 28 32  1  0
 27 33  1  0
 26 34  1  0
 22 35  1  0
 21 36  1  0
  1 37  1  0
  1 38  1  0
  1 39  1  0
  8  4  1  0
 24 20  1  0
 30 25  1  0
M  END
>  <plip>  (1) 
-0.03571428571428571

>  <filename>  (1) 
[H][c]1[n][c]([H])[c](-[n]2[n][c]([H])[c]([H])[c]2[C](=[O])[N]([C]([H])([H])[H])[C]([H])([H])[C]2([H])[S][C]([H])([H])[C]([H])([H])[C]2([H])[H])[c]([H])[c]1[H]

$$$$
