
     RDKit          3D

 47 47  0  0  0  0  0  0  0  0999 V2000
    4.2190    2.6664   26.7504 C   0  0  0  0  0  0  0  0  0  0  0  0
    5.6435    2.3369   26.3113 C   0  0  0  0  0  0  0  0  0  0  0  0
    5.7226    1.0634   25.4665 C   0  0  0  0  0  0  0  0  0  0  0  0
    7.1447    0.7644   25.0224 C   0  0  0  0  0  0  0  0  0  0  0  0
    7.2591   -0.5115   24.2348 N   0  0  0  0  0  4  0  0  0  0  0  0
    7.3412   -1.7064   25.1472 C   0  0  0  0  0  0  0  0  0  0  0  0
    6.8399   -2.9724   24.4668 C   0  0  0  0  0  0  0  0  0  0  0  0
    7.4121   -3.2102   23.5635 H   0  0  0  0  0  0  0  0  0  0  0  0
    5.7873   -2.8658   24.1809 H   0  0  0  0  0  0  0  0  0  0  0  0
    6.9224   -3.8290   25.1438 H   0  0  0  0  0  0  0  0  0  0  0  0
    8.3822   -1.8250   25.4761 H   0  0  0  0  0  0  0  0  0  0  0  0
    6.7564   -1.5072   26.0500 H   0  0  0  0  0  0  0  0  0  0  0  0
    8.4320   -0.4513   23.2931 C   0  0  0  0  0  0  0  0  0  0  0  0
    8.0880    0.2680   21.9802 C   0  0  0  0  0  0  0  0  0  0  0  0
    9.3259    0.8937   21.3183 C   0  0  0  0  0  0  0  0  0  0  0  0
    9.7370    2.1875   21.9925 N   0  0  0  0  0  4  0  0  0  0  0  0
    9.9555    2.0176   22.9891 H   0  0  0  0  0  0  0  0  0  0  0  0
    8.9554    2.8702   21.9519 H   0  0  0  0  0  0  0  0  0  0  0  0
   10.5600    2.6333   21.5520 H   0  0  0  0  0  0  0  0  0  0  0  0
    9.1292    1.0880   20.2629 H   0  0  0  0  0  0  0  0  0  0  0  0
   10.1453    0.1697   21.3477 H   0  0  0  0  0  0  0  0  0  0  0  0
    7.3822   -0.7127   21.0065 C   0  0  0  0  0  0  0  0  0  0  0  0
    6.6497   -0.0059   19.8921 C   0  0  0  0  0  0  0  0  0  0  0  0
    5.4371    0.6512   20.1432 C   0  0  0  0  0  0  0  0  0  0  0  0
    4.8020    1.3150   19.0943 C   0  0  0  0  0  0  0  0  0  0  0  0
    5.3948    1.3016   17.8264 C   0  0  0  0  0  0  0  0  0  0  0  0
    6.5573    0.6889   17.5614 N   0  0  0  0  0  0  0  0  0  0  0  0
    7.1601    0.0617   18.5809 C   0  0  0  0  0  0  0  0  0  0  0  0
    8.1115   -0.4185   18.3466 H   0  0  0  0  0  0  0  0  0  0  0  0
    4.9152    1.7968   16.9842 H   0  0  0  0  0  0  0  0  0  0  0  0
    3.8737    1.8473   19.2449 H   0  0  0  0  0  0  0  0  0  0  0  0
    5.0066    0.6360   21.1513 H   0  0  0  0  0  0  0  0  0  0  0  0
    6.6682   -1.3323   21.5770 H   0  0  0  0  0  0  0  0  0  0  0  0
    8.1285   -1.4099   20.5963 H   0  0  0  0  0  0  0  0  0  0  0  0
    7.3753    1.0687   22.2163 H   0  0  0  0  0  0  0  0  0  0  0  0
    8.7588   -1.4712   23.0613 H   0  0  0  0  0  0  0  0  0  0  0  0
    9.2691    0.0243   23.8248 H   0  0  0  0  0  0  0  0  0  0  0  0
    6.3793   -0.6161   23.6823 H   0  0  0  0  0  0  0  0  0  0  0  0
    7.8052    0.7045   25.9006 H   0  0  0  0  0  0  0  0  0  0  0  0
    7.5212    1.5954   24.4166 H   0  0  0  0  0  0  0  0  0  0  0  0
    5.0838    1.1585   24.5784 H   0  0  0  0  0  0  0  0  0  0  0  0
    5.3181    0.2145   26.0339 H   0  0  0  0  0  0  0  0  0  0  0  0
    6.0593    3.1807   25.7428 H   0  0  0  0  0  0  0  0  0  0  0  0
    6.2894    2.2316   27.1953 H   0  0  0  0  0  0  0  0  0  0  0  0
    3.7927    1.8528   27.3484 H   0  0  0  0  0  0  0  0  0  0  0  0
    3.5622    2.8071   25.8843 H   0  0  0  0  0  0  0  0  0  0  0  0
    4.1767    3.5799   27.3527 H   0  0  0  0  0  0  0  0  0  0  0  0
  1  2  1  0
  2  3  1  0
  3  4  1  0
  4  5  1  0
  5  6  1  0
  6  7  1  0
  7  8  1  0
  7  9  1  0
  7 10  1  0
  6 11  1  0
  6 12  1  0
  5 13  1  0
 13 14  1  0
 14 15  1  0
 15 16  1  0
 16 17  1  0
 16 18  1  0
 16 19  1  0
 15 20  1  0
 15 21  1  0
 14 22  1  0
 22 23  1  0
 23 24  2  0
 24 25  1  0
 25 26  2  0
 26 27  1  0
 27 28  2  0
 28 29  1  0
 26 30  1  0
 25 31  1  0
 24 32  1  0
 22 33  1  0
 22 34  1  0
 14 35  1  0
 13 36  1  0
 13 37  1  0
  5 38  1  0
  4 39  1  0
  4 40  1  0
  3 41  1  0
  3 42  1  0
  2 43  1  0
  2 44  1  0
  1 45  1  0
  1 46  1  0
  1 47  1  0
 28 23  1  0
M  CHG  2   5   1  16   1
M  END
>  <plip>  (1) 
-0.14285714285714285

>  <filename>  (1) 
[H][c]1[n][c]([H])[c]([C]([H])([H])[C]([H])([C]([H])([H])[N+]([H])([H])[H])[C]([H])([H])[N+]([H])([C]([H])([H])[C]([H])([H])[H])[C]([H])([H])[C]([H])([H])[C]([H])([H])[C]([H])([H])[H])[c]([H])[c]1[H]

$$$$
