
     RDKit          3D

 38 40  0  0  0  0  0  0  0  0999 V2000
    4.6736   -5.2609   21.5863 O   0  0  0  0  0  0  0  0  0  0  0  0
    5.5802   -4.3295   22.1822 C   0  0  0  0  0  0  0  0  0  0  0  0
    6.4287   -3.6299   21.1117 C   0  0  0  0  0  0  0  0  0  0  0  0
    7.2867   -2.5630   21.6990 N   0  0  0  0  0  4  0  0  0  0  0  0
    8.0944   -1.7779   20.7453 C   0  0  0  0  0  0  0  0  0  0  0  0
    7.4180   -0.4716   21.1214 C   0  0  0  0  0  0  0  0  0  0  0  0
    8.2442    0.4169   21.7265 F   0  0  0  0  0  0  0  0  0  0  0  0
    6.6604    0.1541   19.9836 C   0  0  0  0  0  0  0  0  0  0  0  0
    5.4243    0.7656   20.1836 C   0  0  0  0  0  0  0  0  0  0  0  0
    4.8050    1.3390   19.0784 C   0  0  0  0  0  0  0  0  0  0  0  0
    5.4220    1.2872   17.8251 C   0  0  0  0  0  0  0  0  0  0  0  0
    6.6083    0.6857   17.6341 N   0  0  0  0  0  0  0  0  0  0  0  0
    7.2135    0.1391   18.6966 C   0  0  0  0  0  0  0  0  0  0  0  0
    8.1646   -0.3654   18.5510 H   0  0  0  0  0  0  0  0  0  0  0  0
    4.9266    1.7369   16.9704 H   0  0  0  0  0  0  0  0  0  0  0  0
    3.8483    1.8339   19.1790 H   0  0  0  0  0  0  0  0  0  0  0  0
    4.9631    0.7984   21.1697 H   0  0  0  0  0  0  0  0  0  0  0  0
    6.5937   -1.3163   22.0888 C   0  0  0  0  0  0  0  0  0  0  0  0
    5.5308   -1.2984   21.8380 H   0  0  0  0  0  0  0  0  0  0  0  0
    6.7202   -1.0127   23.1342 H   0  0  0  0  0  0  0  0  0  0  0  0
    9.1772   -1.7759   20.9060 H   0  0  0  0  0  0  0  0  0  0  0  0
    7.8960   -1.9917   19.6975 H   0  0  0  0  0  0  0  0  0  0  0  0
    7.8582   -2.9288   22.4734 H   0  0  0  0  0  0  0  0  0  0  0  0
    7.0457   -4.3947   20.6249 H   0  0  0  0  0  0  0  0  0  0  0  0
    5.7683   -3.2112   20.3500 H   0  0  0  0  0  0  0  0  0  0  0  0
    6.5389   -5.0510   23.0930 C   0  0  0  0  0  0  0  0  0  0  0  0
    7.4224   -6.0047   22.5609 C   0  0  0  0  0  0  0  0  0  0  0  0
    8.4372   -6.5387   23.3467 C   0  0  0  0  0  0  0  0  0  0  0  0
    8.5918   -6.1221   24.6766 C   0  0  0  0  0  0  0  0  0  0  0  0
    7.6969   -5.1944   25.2178 C   0  0  0  0  0  0  0  0  0  0  0  0
    6.6588   -4.6615   24.4384 C   0  0  0  0  0  0  0  0  0  0  0  0
    5.5116   -3.3182   25.1905 Br  0  0  0  0  0  0  0  0  0  0  0  0
    7.8173   -4.8657   26.2437 H   0  0  0  0  0  0  0  0  0  0  0  0
    9.4179   -6.4935   25.2808 H   0  0  0  0  0  0  0  0  0  0  0  0
    9.1147   -7.2570   22.8972 H   0  0  0  0  0  0  0  0  0  0  0  0
    7.3586   -6.2991   21.5149 H   0  0  0  0  0  0  0  0  0  0  0  0
    5.0151   -3.5737   22.7382 H   0  0  0  0  0  0  0  0  0  0  0  0
    4.3016   -5.8427   22.2778 H   0  0  0  0  0  0  0  0  0  0  0  0
  1  2  1  0
  2  3  1  0
  3  4  1  0
  4  5  1  0
  5  6  1  0
  6  7  1  0
  6  8  1  0
  8  9  2  0
  9 10  1  0
 10 11  2  0
 11 12  1  0
 12 13  2  0
 13 14  1  0
 11 15  1  0
 10 16  1  0
  9 17  1  0
  6 18  1  0
 18 19  1  0
 18 20  1  0
  5 21  1  0
  5 22  1  0
  4 23  1  0
  3 24  1  0
  3 25  1  0
  2 26  1  0
 26 27  2  0
 27 28  1  0
 28 29  2  0
 29 30  1  0
 30 31  2  0
 31 32  1  0
 30 33  1  0
 29 34  1  0
 28 35  1  0
 27 36  1  0
  2 37  1  0
  1 38  1  0
 18  4  1  0
 31 26  1  0
 13  8  1  0
M  CHG  1   4   1
M  END
>  <plip>  (1) 
-0.1

>  <filename>  (1) 
[H][O][C]([H])([c]1[c]([H])[c]([H])[c]([H])[c]([H])[c]1[Br])[C]([H])([H])[N+]1([H])[C]([H])([H])[C]([F])([c]2[c]([H])[n][c]([H])[c]([H])[c]2[H])[C]1([H])[H]

$$$$
