
     RDKit          3D

 39 41  0  0  0  0  0  0  0  0999 V2000
    8.8280    4.8915   27.2231 N   0  0  0  0  0  0  0  0  0  0  0  0
    8.4983    4.5859   25.9104 C   0  0  0  0  0  0  0  0  0  0  0  0
    7.8947    5.5619   25.1081 C   0  0  0  0  0  0  0  0  0  0  0  0
    7.5833    5.2746   23.7855 C   0  0  0  0  0  0  0  0  0  0  0  0
    7.8635    4.0141   23.2352 C   0  0  0  0  0  0  0  0  0  0  0  0
    7.4906    3.7193   21.8016 C   0  0  0  0  0  0  0  0  0  0  0  0
    8.2909    2.5697   21.1993 C   0  0  0  0  0  0  0  0  0  0  0  0
    8.1946    1.3619   22.1359 N   0  0  0  0  0  4  0  0  0  0  0  0
    8.6005    0.0669   21.4825 C   0  0  0  0  0  0  0  0  0  0  0  0
    7.3846   -0.7256   20.9631 C   0  0  0  0  0  0  0  0  0  0  0  0
    6.6316   -0.0309   19.8485 C   0  0  0  0  0  0  0  0  0  0  0  0
    5.4366    0.6554   20.1019 C   0  0  0  0  0  0  0  0  0  0  0  0
    4.8063    1.3319   19.0560 C   0  0  0  0  0  0  0  0  0  0  0  0
    5.4034    1.3197   17.7928 C   0  0  0  0  0  0  0  0  0  0  0  0
    6.5496    0.6752   17.5251 N   0  0  0  0  0  0  0  0  0  0  0  0
    7.1371    0.0206   18.5357 C   0  0  0  0  0  0  0  0  0  0  0  0
    8.0722   -0.4902   18.2942 H   0  0  0  0  0  0  0  0  0  0  0  0
    4.9415    1.8506   16.9620 H   0  0  0  0  0  0  0  0  0  0  0  0
    3.8783    1.8695   19.2103 H   0  0  0  0  0  0  0  0  0  0  0  0
    5.0165    0.6623   21.1110 H   0  0  0  0  0  0  0  0  0  0  0  0
    6.7110   -0.8896   21.8134 H   0  0  0  0  0  0  0  0  0  0  0  0
    7.7302   -1.7088   20.6294 H   0  0  0  0  0  0  0  0  0  0  0  0
    9.1619   -0.5477   22.1959 H   0  0  0  0  0  0  0  0  0  0  0  0
    9.2819    0.2836   20.6491 H   0  0  0  0  0  0  0  0  0  0  0  0
    8.9185    1.7043   23.4392 C   0  0  0  0  0  0  0  0  0  0  0  0
    8.4883    3.0389   24.0338 C   0  0  0  0  0  0  0  0  0  0  0  0
    8.7873    3.3290   25.3730 C   0  0  0  0  0  0  0  0  0  0  0  0
    9.2472    2.5795   26.0156 H   0  0  0  0  0  0  0  0  0  0  0  0
    9.9966    1.7289   23.2309 H   0  0  0  0  0  0  0  0  0  0  0  0
    8.7456    0.9054   24.1647 H   0  0  0  0  0  0  0  0  0  0  0  0
    7.1821    1.2753   22.3879 H   0  0  0  0  0  0  0  0  0  0  0  0
    7.9178    2.2924   20.2111 H   0  0  0  0  0  0  0  0  0  0  0  0
    9.3469    2.8474   21.0998 H   0  0  0  0  0  0  0  0  0  0  0  0
    6.4203    3.4756   21.7197 H   0  0  0  0  0  0  0  0  0  0  0  0
    7.6516    4.6384   21.2304 H   0  0  0  0  0  0  0  0  0  0  0  0
    7.1157    6.0388   23.1629 H   0  0  0  0  0  0  0  0  0  0  0  0
    7.6762    6.5348   25.5363 H   0  0  0  0  0  0  0  0  0  0  0  0
    8.2624    5.6373   27.6024 H   0  0  0  0  0  0  0  0  0  0  0  0
    8.7991    4.0727   27.8230 H   0  0  0  0  0  0  0  0  0  0  0  0
  1  2  1  0
  2  3  2  0
  3  4  1  0
  4  5  2  0
  5  6  1  0
  6  7  1  0
  7  8  1  0
  8  9  1  0
  9 10  1  0
 10 11  1  0
 11 12  2  0
 12 13  1  0
 13 14  2  0
 14 15  1  0
 15 16  2  0
 16 17  1  0
 14 18  1  0
 13 19  1  0
 12 20  1  0
 10 21  1  0
 10 22  1  0
  9 23  1  0
  9 24  1  0
  8 25  1  0
 25 26  1  0
 26 27  2  0
 27 28  1  0
 25 29  1  0
 25 30  1  0
  8 31  1  0
  7 32  1  0
  7 33  1  0
  6 34  1  0
  6 35  1  0
  4 36  1  0
  3 37  1  0
  1 38  1  0
  1 39  1  0
 27  2  1  0
 26  5  1  0
 16 11  1  0
M  CHG  1   8   1
M  END
>  <plip>  (1) 
-0.10714285714285714

>  <filename>  (1) 
[H][c]1[n][c]([H])[c]([C]([H])([H])[C]([H])([H])[N+]2([H])[C]([H])([H])[c]3[c]([H])[c]([N]([H])[H])[c]([H])[c]([H])[c]3[C]([H])([H])[C]2([H])[H])[c]([H])[c]1[H]

$$$$
