
     RDKit          3D

 34 35  0  0  0  0  0  0  0  0999 V2000
    8.1298    2.3946   21.7352 C   0  0  0  0  0  0  0  0  0  0  0  0
    8.8214    1.1681   22.3331 C   0  0  0  0  0  0  0  0  0  0  0  0
    8.7729    0.1111   21.3035 N   0  0  0  0  0  0  0  0  0  0  0  0
    7.4009   -0.8106   21.2213 S   0  0  0  0  0  0  0  0  0  0  0  0
    7.9944   -2.0559   20.7796 O   0  0  0  0  0  0  0  0  0  0  0  0
    6.6148   -0.7005   22.4316 O   0  0  0  0  0  0  0  0  0  0  0  0
    6.5315   -0.0352   19.9670 C   0  0  0  0  0  0  0  0  0  0  0  0
    5.3515    0.6944   20.1451 C   0  0  0  0  0  0  0  0  0  0  0  0
    4.8891    1.3924   19.0299 C   0  0  0  0  0  0  0  0  0  0  0  0
    5.6026    1.3073   17.8270 C   0  0  0  0  0  0  0  0  0  0  0  0
    6.7153    0.5688   17.6826 N   0  0  0  0  0  0  0  0  0  0  0  0
    7.1807   -0.0829   18.7456 C   0  0  0  0  0  0  0  0  0  0  0  0
    8.0954   -0.6555   18.5984 H   0  0  0  0  0  0  0  0  0  0  0  0
    5.2561    1.8413   16.9416 H   0  0  0  0  0  0  0  0  0  0  0  0
    4.0065    2.0211   19.0891 H   0  0  0  0  0  0  0  0  0  0  0  0
    4.8329    0.7418   21.1089 H   0  0  0  0  0  0  0  0  0  0  0  0
    9.3695   -0.6954   21.4723 H   0  0  0  0  0  0  0  0  0  0  0  0
   10.2710    1.4057   22.7538 C   0  0  0  0  0  0  0  0  0  0  0  0
   11.0945    2.2551   21.9908 C   0  0  0  0  0  0  0  0  0  0  0  0
   12.4074    2.5441   22.3594 C   0  0  0  0  0  0  0  0  0  0  0  0
   12.9386    2.0053   23.5323 C   0  0  0  0  0  0  0  0  0  0  0  0
   12.1581    1.1691   24.3266 C   0  0  0  0  0  0  0  0  0  0  0  0
   10.8479    0.8694   23.9350 C   0  0  0  0  0  0  0  0  0  0  0  0
   10.0775   -0.0345   24.8307 N   0  0  0  0  0  4  0  0  0  0  0  0
   10.2172    0.0847   26.0337 O   0  0  0  0  0  0  0  0  0  0  0  0
    9.3375   -0.8571   24.3032 O   0  0  0  0  0  1  0  0  0  0  0  0
   12.5459    0.7513   25.2525 H   0  0  0  0  0  0  0  0  0  0  0  0
   13.9502    2.2366   23.8385 H   0  0  0  0  0  0  0  0  0  0  0  0
   13.0054    3.1964   21.7321 H   0  0  0  0  0  0  0  0  0  0  0  0
   10.6888    2.7082   21.0902 H   0  0  0  0  0  0  0  0  0  0  0  0
    8.2690    0.8401   23.2204 H   0  0  0  0  0  0  0  0  0  0  0  0
    8.4273    3.3204   22.2403 H   0  0  0  0  0  0  0  0  0  0  0  0
    8.3886    2.4732   20.6764 H   0  0  0  0  0  0  0  0  0  0  0  0
    7.0439    2.2893   21.8175 H   0  0  0  0  0  0  0  0  0  0  0  0
  1  2  1  0
  2  3  1  0
  3  4  1  0
  4  5  2  0
  4  6  2  0
  4  7  1  0
  7  8  2  0
  8  9  1  0
  9 10  2  0
 10 11  1  0
 11 12  2  0
 12 13  1  0
 10 14  1  0
  9 15  1  0
  8 16  1  0
  3 17  1  0
  2 18  1  0
 18 19  2  0
 19 20  1  0
 20 21  2  0
 21 22  1  0
 22 23  2  0
 23 24  1  0
 24 25  2  0
 24 26  1  0
 22 27  1  0
 21 28  1  0
 20 29  1  0
 19 30  1  0
  2 31  1  0
  1 32  1  0
  1 33  1  0
  1 34  1  0
 12  7  1  0
 23 18  1  0
M  CHG  2  24   1  26  -1
M  END
>  <plip>  (1) 
-0.06666666666666667

>  <filename>  (1) 
[H][c]1[n][c]([H])[c]([S](=[O])(=[O])[N]([H])[C]([H])([c]2[c]([H])[c]([H])[c]([H])[c]([H])[c]2[N+](=[O])[O-])[C]([H])([H])[H])[c]([H])[c]1[H]

$$$$
