
     RDKit          3D

 29 30  0  0  0  0  0  0  0  0999 V2000
    4.8737    2.0888   16.5059 H   0  0  0  0  0  0  0  0  0  0  0  0
    5.2535    1.6214   17.4135 C   0  0  0  0  0  0  0  0  0  0  0  0
    6.3249    0.8308   17.2561 N   0  0  0  0  0  0  0  0  0  0  0  0
    6.8124    0.2280   18.3461 C   0  0  0  0  0  0  0  0  0  0  0  0
    7.7066   -0.3694   18.1822 H   0  0  0  0  0  0  0  0  0  0  0  0
    6.2713    0.3509   19.6525 C   0  0  0  0  0  0  0  0  0  0  0  0
    6.8577   -0.3120   20.7418 N   0  0  0  0  0  0  0  0  0  0  0  0
    7.4635   -1.5757   20.6046 N   0  0  0  0  0  0  0  0  0  0  0  0
    7.1511   -2.0597   19.7509 H   0  0  0  0  0  0  0  0  0  0  0  0
    8.8647   -1.4018   20.5436 N   0  0  0  0  0  0  0  0  0  0  0  0
    9.0803   -0.4100   20.5454 H   0  0  0  0  0  0  0  0  0  0  0  0
    9.6408   -2.0616   21.5029 C   0  0  0  0  0  0  0  0  0  0  0  0
    9.1394   -2.9599   22.4481 C   0  0  0  0  0  0  0  0  0  0  0  0
    8.0880   -3.2217   22.4775 H   0  0  0  0  0  0  0  0  0  0  0  0
   10.0396   -3.4870   23.3691 C   0  0  0  0  0  0  0  0  0  0  0  0
    9.6937   -4.1587   24.1553 H   0  0  0  0  0  0  0  0  0  0  0  0
   11.3538   -3.2531   23.3482 N   0  0  0  0  0  0  0  0  0  0  0  0
   11.8171   -2.4237   22.3999 C   0  0  0  0  0  0  0  0  0  0  0  0
   12.8966   -2.2729   22.3674 H   0  0  0  0  0  0  0  0  0  0  0  0
   11.0095   -1.7728   21.4883 C   0  0  0  0  0  0  0  0  0  0  0  0
   11.4088   -1.0809   20.7525 H   0  0  0  0  0  0  0  0  0  0  0  0
    6.8046    0.1088   22.1251 C   0  0  0  0  0  0  0  0  0  0  0  0
    7.8183    0.0314   22.5434 H   0  0  0  0  0  0  0  0  0  0  0  0
    6.1256   -0.5394   22.6947 H   0  0  0  0  0  0  0  0  0  0  0  0
    6.4908    1.1538   22.2029 H   0  0  0  0  0  0  0  0  0  0  0  0
    5.1528    1.1976   19.7948 C   0  0  0  0  0  0  0  0  0  0  0  0
    4.7034    1.3478   20.7768 H   0  0  0  0  0  0  0  0  0  0  0  0
    4.6446    1.8307   18.6540 C   0  0  0  0  0  0  0  0  0  0  0  0
    3.8005    2.5070   18.7169 H   0  0  0  0  0  0  0  0  0  0  0  0
  1  2  1  0
  2  3  2  0
  3  4  1  0
  4  5  1  0
  4  6  2  0
  6  7  1  0
  7  8  1  0
  8  9  1  0
  8 10  1  0
 10 11  1  0
 10 12  1  0
 12 13  2  0
 13 14  1  0
 13 15  1  0
 15 16  1  0
 15 17  2  0
 17 18  1  0
 18 19  1  0
 18 20  2  0
 20 21  1  0
  7 22  1  0
 22 23  1  0
 22 24  1  0
 22 25  1  0
  6 26  1  0
 26 27  1  0
 26 28  2  0
 28 29  1  0
 28  2  1  0
 20 12  1  0
M  END
>  <plip>  (1) 
-0.06896551724137931

>  <filename>  (1) 
[H][c]1[n][c]([H])[c]([N]([N]([H])[N]([H])[c]2[c]([H])[c]([H])[n][c]([H])[c]2[H])[C]([H])([H])[H])[c]([H])[c]1[H]

$$$$
