
     RDKit          3D

 32 33  0  0  0  0  0  0  0  0999 V2000
    9.8551   -0.4389   20.9465 C   0  0  0  0  0  0  0  0  0  0  0  0
    8.5434   -0.0117   21.4352 N   0  0  0  0  0  0  0  0  0  0  0  0
    7.3380   -0.7321   20.9979 C   0  0  0  0  0  0  0  0  0  0  0  0
    6.6057   -0.0169   19.8825 C   0  0  0  0  0  0  0  0  0  0  0  0
    5.4030    0.6634   20.1142 C   0  0  0  0  0  0  0  0  0  0  0  0
    4.7872    1.3150   19.0452 C   0  0  0  0  0  0  0  0  0  0  0  0
    5.4089    1.2951   17.7938 C   0  0  0  0  0  0  0  0  0  0  0  0
    6.5687    0.6656   17.5534 N   0  0  0  0  0  0  0  0  0  0  0  0
    7.1470    0.0397   18.5875 C   0  0  0  0  0  0  0  0  0  0  0  0
    8.0930   -0.4552   18.3602 H   0  0  0  0  0  0  0  0  0  0  0  0
    4.9553    1.8089   16.9483 H   0  0  0  0  0  0  0  0  0  0  0  0
    3.8553    1.8516   19.1778 H   0  0  0  0  0  0  0  0  0  0  0  0
    4.9848    0.7126   21.1230 H   0  0  0  0  0  0  0  0  0  0  0  0
    6.6687   -0.8607   21.8583 H   0  0  0  0  0  0  0  0  0  0  0  0
    7.6379   -1.7376   20.6793 H   0  0  0  0  0  0  0  0  0  0  0  0
    8.3535    1.0932   22.2493 C   0  0  0  0  0  0  0  0  0  0  0  0
    7.2266    1.5303   22.4567 O   0  0  0  0  0  0  0  0  0  0  0  0
    9.5742    1.8102   22.8883 C   0  0  0  0  0  0  0  0  0  0  0  0
    9.4907    3.2086   23.1127 C   0  0  0  0  0  0  0  0  0  0  0  0
   10.6031    3.8740   23.6232 C   0  0  0  0  0  0  0  0  0  0  0  0
   10.6173    5.5548   24.1497 C   0  0  0  0  0  0  0  0  0  0  0  0
   11.6665    5.8375   24.7457 O   0  0  0  0  0  0  0  0  0  0  0  0
    9.6175    6.2304   23.9001 O   0  0  0  0  0  1  0  0  0  0  0  0
   11.7681    3.1367   23.8515 C   0  0  0  0  0  0  0  0  0  0  0  0
   11.7382    1.7465   23.7001 C   0  0  0  0  0  0  0  0  0  0  0  0
   10.6675    1.0936   23.2419 N   0  0  0  0  0  0  0  0  0  0  0  0
   12.6171    1.1542   23.9480 H   0  0  0  0  0  0  0  0  0  0  0  0
   12.6831    3.6267   24.1383 H   0  0  0  0  0  0  0  0  0  0  0  0
    8.5550    3.7131   22.8858 H   0  0  0  0  0  0  0  0  0  0  0  0
   10.3989   -1.0422   21.6834 H   0  0  0  0  0  0  0  0  0  0  0  0
    9.7378   -1.0009   20.0129 H   0  0  0  0  0  0  0  0  0  0  0  0
   10.4676    0.4478   20.7622 H   0  0  0  0  0  0  0  0  0  0  0  0
  1  2  1  0
  2  3  1  0
  3  4  1  0
  4  5  2  0
  5  6  1  0
  6  7  2  0
  7  8  1  0
  8  9  2  0
  9 10  1  0
  7 11  1  0
  6 12  1  0
  5 13  1  0
  3 14  1  0
  3 15  1  0
  2 16  1  0
 16 17  2  0
 16 18  1  0
 18 19  2  0
 19 20  1  0
 20 21  1  0
 21 22  2  0
 21 23  1  0
 20 24  2  0
 24 25  1  0
 25 26  2  0
 25 27  1  0
 24 28  1  0
 19 29  1  0
  1 30  1  0
  1 31  1  0
  1 32  1  0
  9  4  1  0
 26 18  1  0
M  CHG  1  23  -1
M  END
>  <plip>  (1) 
-0.034482758620689655

>  <filename>  (1) 
[H][c]1[n][c]([H])[c]([C]([H])([H])[N]([C](=[O])[c]2[n][c]([H])[c]([H])[c]([C](=[O])[O-])[c]2[H])[C]([H])([H])[H])[c]([H])[c]1[H]

$$$$
