
     RDKit          3D

 44 48  0  0  0  0  0  0  0  0999 V2000
    5.2869    1.8503   16.7911 H   0  0  0  0  0  0  0  0  0  0  0  0
    5.7749    1.3341   17.6153 C   0  0  0  0  0  0  0  0  0  0  0  0
    6.8006    0.5372   17.2900 N   0  0  0  0  0  0  0  0  0  0  0  0
    7.4379   -0.1140   18.2730 C   0  0  0  0  0  0  0  0  0  0  0  0
    8.2709   -0.7508   17.9738 H   0  0  0  0  0  0  0  0  0  0  0  0
    7.0979    0.0161   19.6279 C   0  0  0  0  0  0  0  0  0  0  0  0
    7.8521   -0.6460   20.6268 N   0  0  0  0  0  0  0  0  0  0  0  0
    9.2357   -0.6312   20.8425 C   0  0  0  0  0  0  0  0  0  0  0  0
    9.8749   -0.1063   20.1553 H   0  0  0  0  0  0  0  0  0  0  0  0
    9.5230   -1.3264   21.9752 C   0  0  0  0  0  0  0  0  0  0  0  0
   10.4332   -1.5704   22.4965 H   0  0  0  0  0  0  0  0  0  0  0  0
    8.3033   -1.7656   22.4599 N   0  0  0  0  0  0  0  0  0  0  0  0
    7.9016   -2.6244   23.4339 N   0  0  0  0  0  0  0  0  0  0  0  0
    6.5942   -2.7649   23.1910 C   0  0  0  0  0  0  0  0  0  0  0  0
    5.7595   -3.7610   23.9773 C   0  0  0  0  0  0  0  0  0  0  0  0
    4.8085   -3.2707   24.2264 H   0  0  0  0  0  0  0  0  0  0  0  0
    6.2865   -3.9609   24.9258 H   0  0  0  0  0  0  0  0  0  0  0  0
    5.4451   -4.9957   23.2241 N   0  0  0  0  0  0  0  0  0  0  0  0
    4.7330   -5.5393   23.7043 H   0  0  0  0  0  0  0  0  0  0  0  0
    6.5689   -5.8508   22.9450 C   0  0  1  0  0  0  0  0  0  0  0  0
    7.4376   -5.7232   23.6013 H   0  0  0  0  0  0  0  0  0  0  0  0
    6.2583   -7.2415   22.4915 C   0  0  0  0  0  0  0  0  0  0  0  0
    6.8393   -8.0982   22.7734 H   0  0  0  0  0  0  0  0  0  0  0  0
    5.1935   -7.4476   22.3938 H   0  0  0  0  0  0  0  0  0  0  0  0
    6.9273   -6.2694   21.5453 C   0  0  1  0  0  0  0  0  0  0  0  0
    8.0074   -6.3671   21.4678 H   0  0  0  0  0  0  0  0  0  0  0  0
    6.2940   -5.7903   20.2892 C   0  0  0  0  0  0  0  0  0  0  0  0
    6.3649   -4.2531   20.1819 C   0  0  0  0  0  0  0  0  0  0  0  0
    7.2267   -3.8440   20.6415 H   0  0  0  0  0  0  0  0  0  0  0  0
    5.9675   -3.9924   18.9924 C   0  0  0  0  0  0  0  0  0  0  0  0
    5.4030   -2.5570   19.1235 H   0  0  0  0  0  0  0  0  0  0  0  0
    5.7277   -3.5662   18.9486 C   0  0  0  0  0  0  0  0  0  0  0  0
    4.7685   -4.3065   18.7691 H   0  0  0  0  0  0  0  0  0  0  0  0
    6.2033   -6.4682   18.8899 C   0  0  0  0  0  0  0  0  0  0  0  0
    6.6690   -6.6255   17.9441 H   0  0  0  0  0  0  0  0  0  0  0  0
    5.2232   -6.5897   19.7065 C   0  0  0  0  0  0  0  0  0  0  0  0
    4.5913   -7.3846   20.0858 H   0  0  0  0  0  0  0  0  0  0  0  0
    6.1434   -1.9675   22.1138 C   0  0  0  0  0  0  0  0  0  0  0  0
    5.1459   -1.8921   21.7300 H   0  0  0  0  0  0  0  0  0  0  0  0
    7.3014   -1.3720   21.6550 C   0  0  0  0  0  0  0  0  0  0  0  0
    6.0039    0.8376   19.9627 C   0  0  0  0  0  0  0  0  0  0  0  0
    5.6917    0.9394   21.0040 H   0  0  0  0  0  0  0  0  0  0  0  0
    5.3394    1.5072   18.9336 C   0  0  0  0  0  0  0  0  0  0  0  0
    4.5022    2.1669   19.1392 H   0  0  0  0  0  0  0  0  0  0  0  0
  1  2  1  0
  2  3  2  0
  3  4  1  0
  4  5  1  0
  4  6  2  0
  6  7  1  0
  7  8  1  0
  8  9  1  0
  8 10  2  0
 10 11  1  0
 10 12  1  0
 12 13  1  0
 13 14  2  0
 14 15  1  0
 15 16  1  0
 15 17  1  0
 15 18  1  0
 18 19  1  0
 18 20  1  0
 20 21  1  1
 20 22  1  0
 22 23  1  0
 22 24  1  0
 22 25  1  0
 25 26  1  6
 25 27  1  0
 27 28  2  0
 28 29  1  0
 28 30  1  0
 30 31  1  0
 30 32  2  0
 32 33  1  0
 32 34  1  0
 34 35  1  0
 34 36  2  0
 36 37  1  0
 14 38  1  0
 38 39  1  0
 38 40  2  0
  6 41  1  0
 41 42  1  0
 41 43  2  0
 43 44  1  0
 43  2  1  0
 40  7  1  0
 40 12  1  0
 25 20  1  0
 36 27  1  0
M  END
>  <plip>  (1) 
-0.1

>  <filename>  (1) 
[H][c]1[n][c]([H])[c](-[n]2[c]([H])[c]([H])[n]3[n][c]([C]([H])([H])[N]([H])[C@@]4([H])[C]([H])([H])[C@@]4([H])[c]4[c]([H])[c]([H])[c]([H])[c]([H])[c]4[H])[c]([H])[c]23)[c]([H])[c]1[H]

$$$$
