
     RDKit          3D

 48 51  0  0  0  0  0  0  0  0999 V2000
    6.6221   -4.9901   29.3442 F   0  0  0  0  0  0  0  0  0  0  0  0
    6.7371   -5.2361   28.0281 C   0  0  0  0  0  0  0  0  0  0  0  0
    7.9943   -5.5326   27.5056 C   0  0  0  0  0  0  0  0  0  0  0  0
    8.1024   -5.8002   26.1375 C   0  0  0  0  0  0  0  0  0  0  0  0
    6.9742   -5.7645   25.3072 C   0  0  0  0  0  0  0  0  0  0  0  0
    7.1030   -5.9598   23.8094 C   0  0  0  0  0  0  0  0  0  0  0  0
    7.3086   -4.6779   23.0812 C   0  0  0  0  0  0  0  0  0  0  0  0
    6.4384   -3.9073   22.5059 N   0  0  0  0  0  0  0  0  0  0  0  0
    7.2599   -2.9537   21.9709 C   0  0  0  0  0  0  0  0  0  0  0  0
    6.6717   -1.9685   21.2599 N   0  0  0  0  0  0  0  0  0  0  0  0
    7.4107   -0.7562   20.9586 C   0  0  0  0  0  0  0  0  0  0  0  0
    7.8045    0.0534   22.2189 C   0  0  0  0  0  0  0  0  0  0  0  0
    8.8066    1.1744   21.9218 C   0  0  0  0  0  0  0  0  0  0  0  0
    9.4737    1.8350   23.1386 C   0  0  0  0  0  0  0  0  0  0  0  0
    9.8013    3.2143   22.5827 C   0  0  0  0  0  0  0  0  0  0  0  0
    8.6552    3.5576   21.8272 O   0  0  0  0  0  0  0  0  0  0  0  0
    8.1623    2.3857   21.2068 C   0  0  0  0  0  0  0  0  0  0  0  0
    8.3913    2.3669   20.1336 H   0  0  0  0  0  0  0  0  0  0  0  0
    7.0688    2.4072   21.3058 H   0  0  0  0  0  0  0  0  0  0  0  0
   10.7027    3.1832   21.9459 H   0  0  0  0  0  0  0  0  0  0  0  0
    9.9434    3.9862   23.3417 H   0  0  0  0  0  0  0  0  0  0  0  0
    8.7541    1.9399   23.9606 H   0  0  0  0  0  0  0  0  0  0  0  0
   10.3600    1.3050   23.5011 H   0  0  0  0  0  0  0  0  0  0  0  0
    9.6140    0.7733   21.2833 H   0  0  0  0  0  0  0  0  0  0  0  0
    6.9026    0.4707   22.6926 H   0  0  0  0  0  0  0  0  0  0  0  0
    8.2390   -0.6529   22.9353 H   0  0  0  0  0  0  0  0  0  0  0  0
    6.6269   -0.0115   19.9061 C   0  0  0  0  0  0  0  0  0  0  0  0
    5.4070    0.6409   20.1422 C   0  0  0  0  0  0  0  0  0  0  0  0
    4.7964    1.3115   19.0772 C   0  0  0  0  0  0  0  0  0  0  0  0
    5.4020    1.2879   17.8169 C   0  0  0  0  0  0  0  0  0  0  0  0
    6.5449    0.6311   17.5619 N   0  0  0  0  0  0  0  0  0  0  0  0
    7.1191    0.0029   18.5936 C   0  0  0  0  0  0  0  0  0  0  0  0
    8.0558   -0.5103   18.3702 H   0  0  0  0  0  0  0  0  0  0  0  0
    4.9534    1.8112   16.9747 H   0  0  0  0  0  0  0  0  0  0  0  0
    3.8664    1.8522   19.2129 H   0  0  0  0  0  0  0  0  0  0  0  0
    4.9538    0.6498   21.1375 H   0  0  0  0  0  0  0  0  0  0  0  0
    8.3534   -1.0773   20.4915 H   0  0  0  0  0  0  0  0  0  0  0  0
    5.7346   -1.8829   21.6165 H   0  0  0  0  0  0  0  0  0  0  0  0
    8.5391   -3.0996   22.1944 N   0  0  0  0  0  0  0  0  0  0  0  0
    8.5665   -4.2647   22.9663 O   0  0  0  0  0  0  0  0  0  0  0  0
    7.9373   -6.6247   23.5625 H   0  0  0  0  0  0  0  0  0  0  0  0
    6.1962   -6.4130   23.4037 H   0  0  0  0  0  0  0  0  0  0  0  0
    5.7234   -5.4668   25.8655 C   0  0  0  0  0  0  0  0  0  0  0  0
    5.5927   -5.2010   27.2318 C   0  0  0  0  0  0  0  0  0  0  0  0
    4.6327   -4.9739   27.6843 H   0  0  0  0  0  0  0  0  0  0  0  0
    4.8401   -5.4453   25.2267 H   0  0  0  0  0  0  0  0  0  0  0  0
    9.0774   -6.0311   25.7087 H   0  0  0  0  0  0  0  0  0  0  0  0
    8.8569   -5.5585   28.1631 H   0  0  0  0  0  0  0  0  0  0  0  0
  1  2  1  0
  2  3  2  0
  3  4  1  0
  4  5  2  0
  5  6  1  0
  6  7  1  0
  7  8  2  0
  8  9  1  0
  9 10  1  0
 10 11  1  0
 11 12  1  0
 12 13  1  0
 13 14  1  0
 14 15  1  0
 15 16  1  0
 16 17  1  0
 17 18  1  0
 17 19  1  0
 15 20  1  0
 15 21  1  0
 14 22  1  0
 14 23  1  0
 13 24  1  0
 12 25  1  0
 12 26  1  0
 11 27  1  0
 27 28  2  0
 28 29  1  0
 29 30  2  0
 30 31  1  0
 31 32  2  0
 32 33  1  0
 30 34  1  0
 29 35  1  0
 28 36  1  0
 11 37  1  0
 10 38  1  0
  9 39  2  0
 39 40  1  0
  6 41  1  0
  6 42  1  0
  5 43  1  0
 43 44  2  0
 44 45  1  0
 43 46  1  0
  4 47  1  0
  3 48  1  0
 44  2  1  0
 40  7  1  0
 17 13  1  0
 32 27  1  0
M  END
>  <plip>  (1) 
-0.13793103448275862

>  <filename>  (1) 
[H][c]1[n][c]([H])[c]([C]([H])([N]([H])[c]2[n][o][c]([C]([H])([H])[c]3[c]([H])[c]([H])[c]([F])[c]([H])[c]3[H])[n]2)[C]([H])([H])[C]2([H])[C]([H])([H])[O][C]([H])([H])[C]2([H])[H])[c]([H])[c]1[H]

$$$$
