
     RDKit          3D

 40 43  0  0  0  0  0  0  0  0999 V2000
    7.9350   -0.7374   23.5193 O   0  0  0  0  0  0  0  0  0  0  0  0
    8.0419   -1.1289   22.3687 C   0  0  0  0  0  0  0  0  0  0  0  0
    7.9845   -0.3235   21.2757 N   0  0  0  0  0  0  0  0  0  0  0  0
    7.5839    1.0864   21.3350 C   0  0  0  0  0  0  0  0  0  0  0  0
    6.9261    1.3667   19.9940 C   0  0  0  0  0  0  0  0  0  0  0  0
    5.6589    1.9524   19.8719 C   0  0  0  0  0  0  0  0  0  0  0  0
    5.0757    2.0437   18.6059 C   0  0  0  0  0  0  0  0  0  0  0  0
    5.7743    1.5646   17.4981 C   0  0  0  0  0  0  0  0  0  0  0  0
    7.0088    1.0415   17.5785 N   0  0  0  0  0  0  0  0  0  0  0  0
    7.5549    0.9624   18.7971 C   0  0  0  0  0  0  0  0  0  0  0  0
    8.5618    0.5395   18.8088 H   0  0  0  0  0  0  0  0  0  0  0  0
    5.3410    1.6136   16.5026 H   0  0  0  0  0  0  0  0  0  0  0  0
    4.1042    2.5064   18.4689 H   0  0  0  0  0  0  0  0  0  0  0  0
    5.1255    2.3305   20.7453 H   0  0  0  0  0  0  0  0  0  0  0  0
    8.7932    1.9709   21.6383 C   0  0  0  0  0  0  0  0  0  0  0  0
    9.5918    1.8028   22.9072 C   0  0  0  0  0  0  0  0  0  0  0  0
    8.8147    3.0658   22.6728 C   0  0  0  0  0  0  0  0  0  0  0  0
    7.9345    3.2288   23.2903 H   0  0  0  0  0  0  0  0  0  0  0  0
    9.3497    3.9831   22.4414 H   0  0  0  0  0  0  0  0  0  0  0  0
    9.2142    1.1191   23.6639 H   0  0  0  0  0  0  0  0  0  0  0  0
   10.6780    1.7922   22.8162 H   0  0  0  0  0  0  0  0  0  0  0  0
    9.3873    2.1807   20.7561 H   0  0  0  0  0  0  0  0  0  0  0  0
    6.8606    1.2280   22.1567 H   0  0  0  0  0  0  0  0  0  0  0  0
    7.6690   -0.8273   20.4595 H   0  0  0  0  0  0  0  0  0  0  0  0
    8.2781   -2.6152   21.9897 C   0  0  0  0  0  0  0  0  0  0  0  0
    8.2127   -3.5903   23.1757 C   0  0  0  0  0  0  0  0  0  0  0  0
    7.3532   -4.6897   22.6218 C   0  0  0  0  0  0  0  0  0  0  0  0
    6.8926   -4.3065   21.3633 C   0  0  0  0  0  0  0  0  0  0  0  0
    7.2973   -3.0592   21.0038 O   0  0  0  0  0  0  0  0  0  0  0  0
    6.0921   -5.1761   20.6137 C   0  0  0  0  0  0  0  0  0  0  0  0
    5.6779   -4.8459   19.3824 F   0  0  0  0  0  0  0  0  0  0  0  0
    5.7337   -6.4131   21.1393 C   0  0  0  0  0  0  0  0  0  0  0  0
    6.2123   -6.7722   22.4006 C   0  0  0  0  0  0  0  0  0  0  0  0
    5.9133   -7.9901   22.8717 F   0  0  0  0  0  0  0  0  0  0  0  0
    7.0025   -5.9191   23.1684 C   0  0  0  0  0  0  0  0  0  0  0  0
    7.3377   -6.2100   24.1539 H   0  0  0  0  0  0  0  0  0  0  0  0
    5.1023   -7.0873   20.5725 H   0  0  0  0  0  0  0  0  0  0  0  0
    9.2200   -3.9118   23.4569 H   0  0  0  0  0  0  0  0  0  0  0  0
    7.7588   -3.1374   24.0629 H   0  0  0  0  0  0  0  0  0  0  0  0
    9.2541   -2.6868   21.4925 H   0  0  0  0  0  0  0  0  0  0  0  0
  1  2  2  0
  2  3  1  0
  3  4  1  0
  4  5  1  0
  5  6  2  0
  6  7  1  0
  7  8  2  0
  8  9  1  0
  9 10  2  0
 10 11  1  0
  8 12  1  0
  7 13  1  0
  6 14  1  0
  4 15  1  0
 15 16  1  0
 16 17  1  0
 17 18  1  0
 17 19  1  0
 16 20  1  0
 16 21  1  0
 15 22  1  0
  4 23  1  0
  3 24  1  0
  2 25  1  0
 25 26  1  0
 26 27  1  0
 27 28  2  0
 28 29  1  0
 28 30  1  0
 30 31  1  0
 30 32  2  0
 32 33  1  0
 33 34  1  0
 33 35  2  0
 35 36  1  0
 32 37  1  0
 26 38  1  0
 26 39  1  0
 25 40  1  0
 10  5  1  0
 17 15  1  0
 29 25  1  0
 35 27  1  0
M  END
>  <plip>  (1) 
-0.06666666666666667

>  <filename>  (1) 
[H][c]1[n][c]([H])[c]([C]([H])([N]([H])[C](=[O])[C]2([H])[O][c]3[c]([F])[c]([H])[c]([F])[c]([H])[c]3[C]2([H])[H])[C]2([H])[C]([H])([H])[C]2([H])[H])[c]([H])[c]1[H]

$$$$
