
     RDKit          3D

 45 48  0  0  0  0  0  0  0  0999 V2000
    8.7696    1.5899   21.1840 O   0  0  0  0  0  0  0  0  0  0  0  0
    8.1018    1.1975   22.1309 C   0  0  0  0  0  0  0  0  0  0  0  0
    7.9066    2.0721   23.3576 C   0  0  0  0  0  0  0  0  0  0  0  0
    9.1231    2.0076   24.3079 C   0  0  0  0  0  0  0  0  0  0  0  0
    8.9183    2.8287   25.4934 N   0  0  0  0  0  0  0  0  0  0  0  0
    9.1117    4.1991   25.5569 C   0  0  0  0  0  0  0  0  0  0  0  0
    8.4883    4.7126   26.6537 C   0  0  0  0  0  0  0  0  0  0  0  0
    7.8788    3.6165   27.3591 C   0  0  0  0  0  0  0  0  0  0  0  0
    7.1704    3.5014   28.5814 C   0  0  0  0  0  0  0  0  0  0  0  0
    6.7975    2.2412   29.0234 C   0  0  0  0  0  0  0  0  0  0  0  0
    7.0993    1.0858   28.2629 C   0  0  0  0  0  0  0  0  0  0  0  0
    7.7765    1.1639   27.0476 C   0  0  0  0  0  0  0  0  0  0  0  0
    8.1815    2.4467   26.6089 C   0  0  0  0  0  0  0  0  0  0  0  0
    7.9618    0.2607   26.4638 H   0  0  0  0  0  0  0  0  0  0  0  0
    6.7989    0.1173   28.6515 H   0  0  0  0  0  0  0  0  0  0  0  0
    6.2426    2.1405   29.9538 H   0  0  0  0  0  0  0  0  0  0  0  0
    6.9249    4.3880   29.1662 H   0  0  0  0  0  0  0  0  0  0  0  0
    8.4617    5.7549   26.9387 H   0  0  0  0  0  0  0  0  0  0  0  0
    9.7242    4.7056   24.8129 H   0  0  0  0  0  0  0  0  0  0  0  0
    9.3169    0.9813   24.6450 H   0  0  0  0  0  0  0  0  0  0  0  0
   10.0303    2.3466   23.7916 H   0  0  0  0  0  0  0  0  0  0  0  0
    7.7888    3.0943   22.9875 H   0  0  0  0  0  0  0  0  0  0  0  0
    7.0032    1.8120   23.9218 H   0  0  0  0  0  0  0  0  0  0  0  0
    7.5343   -0.0462   22.1567 N   0  0  0  0  0  0  0  0  0  0  0  0
    6.9760   -0.7119   23.3280 C   0  0  0  0  0  0  0  0  0  0  0  0
    6.8221   -2.1666   22.8811 C   0  0  0  0  0  0  0  0  0  0  0  0
    6.6143   -2.0798   21.3622 C   0  0  0  0  0  0  0  0  0  0  0  0
    7.3684   -0.8085   20.9144 C   0  0  0  0  0  0  0  0  0  0  0  0
    6.6488   -0.0192   19.8324 C   0  0  0  0  0  0  0  0  0  0  0  0
    5.4369    0.6524   20.0591 C   0  0  0  0  0  0  0  0  0  0  0  0
    4.8286    1.3264   18.9982 C   0  0  0  0  0  0  0  0  0  0  0  0
    5.4537    1.3081   17.7448 C   0  0  0  0  0  0  0  0  0  0  0  0
    6.6175    0.6854   17.5083 N   0  0  0  0  0  0  0  0  0  0  0  0
    7.1946    0.0631   18.5463 C   0  0  0  0  0  0  0  0  0  0  0  0
    8.1585   -0.4038   18.3340 H   0  0  0  0  0  0  0  0  0  0  0  0
    5.0029    1.8154   16.8933 H   0  0  0  0  0  0  0  0  0  0  0  0
    3.8926    1.8608   19.1265 H   0  0  0  0  0  0  0  0  0  0  0  0
    4.9819    0.6662   21.0532 H   0  0  0  0  0  0  0  0  0  0  0  0
    8.3613   -1.0749   20.5249 H   0  0  0  0  0  0  0  0  0  0  0  0
    6.9845   -2.9653   20.8376 H   0  0  0  0  0  0  0  0  0  0  0  0
    5.5491   -1.9913   21.1184 H   0  0  0  0  0  0  0  0  0  0  0  0
    7.7358   -2.7244   23.1148 H   0  0  0  0  0  0  0  0  0  0  0  0
    5.9942   -2.6625   23.3989 H   0  0  0  0  0  0  0  0  0  0  0  0
    7.6389   -0.6156   24.1955 H   0  0  0  0  0  0  0  0  0  0  0  0
    6.0157   -0.2634   23.6163 H   0  0  0  0  0  0  0  0  0  0  0  0
  1  2  2  0
  2  3  1  0
  3  4  1  0
  4  5  1  0
  5  6  1  0
  6  7  2  0
  7  8  1  0
  8  9  2  0
  9 10  1  0
 10 11  2  0
 11 12  1  0
 12 13  2  0
 12 14  1  0
 11 15  1  0
 10 16  1  0
  9 17  1  0
  7 18  1  0
  6 19  1  0
  4 20  1  0
  4 21  1  0
  3 22  1  0
  3 23  1  0
  2 24  1  0
 24 25  1  0
 25 26  1  0
 26 27  1  0
 27 28  1  0
 28 29  1  0
 29 30  2  0
 30 31  1  0
 31 32  2  0
 32 33  1  0
 33 34  2  0
 34 35  1  0
 32 36  1  0
 31 37  1  0
 30 38  1  0
 28 39  1  0
 27 40  1  0
 27 41  1  0
 26 42  1  0
 26 43  1  0
 25 44  1  0
 25 45  1  0
 13  5  1  0
 28 24  1  0
 34 29  1  0
 13  8  1  0
M  END
>  <plip>  (1) 
-0.10714285714285714

>  <filename>  (1) 
[H][c]1[n][c]([H])[c]([C]2([H])[N]([C](=[O])[C]([H])([H])[C]([H])([H])[n]3[c]([H])[c]([H])[c]4[c]([H])[c]([H])[c]([H])[c]([H])[c]43)[C]([H])([H])[C]([H])([H])[C]2([H])[H])[c]([H])[c]1[H]

$$$$
