
     RDKit          3D

 38 41  0  0  0  0  0  0  0  0999 V2000
    7.0392   -2.9081   19.6291 H   0  0  0  0  0  0  0  0  0  0  0  0
    6.1649   -2.7144   19.9926 O   0  0  0  0  0  0  0  0  0  0  0  0
    6.4105   -2.0391   21.2199 C   0  0  1  0  0  0  0  0  0  0  0  0
    5.4129   -1.7183   21.5479 H   0  0  0  0  0  0  0  0  0  0  0  0
    6.9190   -3.0312   22.2730 C   0  0  0  0  0  0  0  0  0  0  0  0
    7.9678   -3.9467   21.9617 C   0  0  0  0  0  0  0  0  0  0  0  0
    8.4273   -3.9028   20.9791 H   0  0  0  0  0  0  0  0  0  0  0  0
    8.4319   -4.8930   22.8605 C   0  0  0  0  0  0  0  0  0  0  0  0
    9.1586   -5.6371   22.5787 H   0  0  0  0  0  0  0  0  0  0  0  0
    7.8707   -4.8904   24.1519 C   0  0  0  0  0  0  0  0  0  0  0  0
    6.7979   -4.0441   24.4777 C   0  0  0  0  0  0  0  0  0  0  0  0
    6.5410   -4.3186   25.8527 C   0  0  0  0  0  0  0  0  0  0  0  0
    5.7804   -3.8806   26.4833 H   0  0  0  0  0  0  0  0  0  0  0  0
    7.3819   -5.2071   26.3343 N   0  0  0  0  0  0  0  0  0  0  0  0
    8.1676   -5.5719   25.2938 N   0  0  0  0  0  0  0  0  0  0  0  0
    9.0020   -6.1077   25.4766 H   0  0  0  0  0  0  0  0  0  0  0  0
    6.3048   -3.1233   23.5214 C   0  0  0  0  0  0  0  0  0  0  0  0
    5.4537   -2.5079   23.7919 H   0  0  0  0  0  0  0  0  0  0  0  0
    7.2335   -0.6971   21.0261 C   0  0  0  0  0  0  0  0  0  0  0  0
    6.6111    0.1094   19.8864 C   0  0  0  0  0  0  0  0  0  0  0  0
    7.1420    0.1210   18.5823 C   0  0  0  0  0  0  0  0  0  0  0  0
    8.0892   -0.3802   18.3750 H   0  0  0  0  0  0  0  0  0  0  0  0
    6.5679    0.7185   17.5289 N   0  0  0  0  0  0  0  0  0  0  0  0
    5.4028    1.3477   17.7426 C   0  0  0  0  0  0  0  0  0  0  0  0
    4.9578    1.8354   16.8790 H   0  0  0  0  0  0  0  0  0  0  0  0
    4.7733    1.4034   18.9901 C   0  0  0  0  0  0  0  0  0  0  0  0
    3.8359    1.9372   19.1013 H   0  0  0  0  0  0  0  0  0  0  0  0
    5.3906    0.7776   20.0732 C   0  0  0  0  0  0  0  0  0  0  0  0
    4.9441    0.8090   21.0682 H   0  0  0  0  0  0  0  0  0  0  0  0
    7.3628    0.0966   22.3710 C   0  0  0  0  0  0  0  0  0  0  0  0
    6.8167   -0.3387   23.2157 H   0  0  0  0  0  0  0  0  0  0  0  0
    7.0665    1.1465   22.2838 H   0  0  0  0  0  0  0  0  0  0  0  0
    8.8915   -0.1315   22.3891 C   0  0  0  0  0  0  0  0  0  0  0  0
    9.5088    0.7719   22.4603 H   0  0  0  0  0  0  0  0  0  0  0  0
    9.2256   -0.8196   23.1709 H   0  0  0  0  0  0  0  0  0  0  0  0
    8.8043   -0.7627   20.9801 C   0  0  0  0  0  0  0  0  0  0  0  0
    9.2155   -0.0848   20.2270 H   0  0  0  0  0  0  0  0  0  0  0  0
    9.2809   -1.7374   20.8250 H   0  0  0  0  0  0  0  0  0  0  0  0
  1  2  1  0
  2  3  1  0
  3  4  1  1
  3  5  1  0
  5  6  2  0
  6  7  1  0
  6  8  1  0
  8  9  1  0
  8 10  2  0
 10 11  1  0
 11 12  1  0
 12 13  1  0
 12 14  2  0
 14 15  1  0
 15 16  1  0
 11 17  2  0
 17 18  1  0
  3 19  1  0
 19 20  1  0
 20 21  2  0
 21 22  1  0
 21 23  1  0
 23 24  2  0
 24 25  1  0
 24 26  1  0
 26 27  1  0
 26 28  2  0
 28 29  1  0
 19 30  1  0
 30 31  1  0
 30 32  1  0
 30 33  1  0
 33 34  1  0
 33 35  1  0
 33 36  1  0
 36 37  1  0
 36 38  1  0
 17  5  1  0
 36 19  1  0
 15 10  1  0
 28 20  1  0
M  END
>  <plip>  (1) 
-0.14285714285714285

>  <filename>  (1) 
[H][O][C@@]([H])([c]1[c]([H])[c]([H])[c]2[c]([c]([H])[n][n]2[H])[c]1[H])[C]1([c]2[c]([H])[n][c]([H])[c]([H])[c]2[H])[C]([H])([H])[C]([H])([H])[C]1([H])[H]

$$$$
