
     RDKit          3D

 43 45  0  0  0  0  0  0  0  0999 V2000
    4.9216    1.8192   16.9719 H   0  0  0  0  0  0  0  0  0  0  0  0
    5.3841    1.2909   17.8054 C   0  0  0  0  0  0  0  0  0  0  0  0
    6.5391    0.6628   17.5402 N   0  0  0  0  0  0  0  0  0  0  0  0
    7.1448    0.0289   18.5546 C   0  0  0  0  0  0  0  0  0  0  0  0
    8.1082   -0.4284   18.3179 H   0  0  0  0  0  0  0  0  0  0  0  0
    6.6406   -0.0404   19.8674 C   0  0  0  0  0  0  0  0  0  0  0  0
    7.3977   -0.7067   21.0058 C   0  0  0  0  0  0  0  0  0  0  0  0
    8.0784   -1.4727   20.6097 H   0  0  0  0  0  0  0  0  0  0  0  0
    6.6752   -1.2223   21.6490 H   0  0  0  0  0  0  0  0  0  0  0  0
    8.2363    0.2448   21.9072 C   0  0  1  0  0  0  0  0  0  0  0  0
    7.3659    1.2344   22.5201 N   0  0  0  0  0  0  0  0  0  0  0  0
    7.9831    1.9563   22.8689 H   0  0  0  0  0  0  0  0  0  0  0  0
    7.0123    0.7715   23.3538 H   0  0  0  0  0  0  0  0  0  0  0  0
    8.8927   -0.5040   22.9792 N   0  0  0  0  0  0  0  0  0  0  0  0
    9.8034    0.2287   23.8583 C   0  0  0  0  0  0  0  0  0  0  0  0
    9.4184    1.2191   24.1762 H   0  0  0  0  0  0  0  0  0  0  0  0
   10.7561    0.4291   23.3512 H   0  0  0  0  0  0  0  0  0  0  0  0
   10.0093   -0.6900   25.0689 C   0  0  0  0  0  0  0  0  0  0  0  0
   10.2352   -0.1252   25.9812 H   0  0  0  0  0  0  0  0  0  0  0  0
   10.8485   -1.3608   24.8593 H   0  0  0  0  0  0  0  0  0  0  0  0
    8.7041   -1.4927   25.1792 C   0  0  2  0  0  0  0  0  0  0  0  0
    7.9985   -0.9898   25.8552 H   0  0  0  0  0  0  0  0  0  0  0  0
    8.8525   -2.9742   25.5689 C   0  0  0  0  0  0  0  0  0  0  0  0
    7.9380   -3.3220   26.0873 H   0  0  0  0  0  0  0  0  0  0  0  0
    9.6914   -3.1476   26.2597 H   0  0  0  0  0  0  0  0  0  0  0  0
    9.0702   -3.6992   24.3150 N   0  0  0  0  0  0  0  0  0  0  0  0
    8.7740   -5.1170   24.3929 C   0  0  0  0  0  0  0  0  0  0  0  0
    7.7159   -5.3193   24.6591 H   0  0  0  0  0  0  0  0  0  0  0  0
    9.4117   -5.5902   25.1480 H   0  0  0  0  0  0  0  0  0  0  0  0
    8.9806   -5.5973   23.4302 H   0  0  0  0  0  0  0  0  0  0  0  0
    8.3314   -2.9885   23.2645 C   0  0  0  0  0  0  0  0  0  0  0  0
    8.8542   -3.0380   22.2979 H   0  0  0  0  0  0  0  0  0  0  0  0
    7.3282   -3.4315   23.1085 H   0  0  0  0  0  0  0  0  0  0  0  0
    8.1456   -1.5188   23.7402 C   0  0  2  0  0  0  0  0  0  0  0  0
    7.0609   -1.3137   23.7591 H   0  0  0  0  0  0  0  0  0  0  0  0
    9.2747    0.9604   21.0513 C   0  0  0  0  0  0  0  0  0  0  0  0
    8.7511    1.5837   20.3255 H   0  0  0  0  0  0  0  0  0  0  0  0
    9.9020    1.6131   21.6623 H   0  0  0  0  0  0  0  0  0  0  0  0
    9.9107    0.2254   20.5448 H   0  0  0  0  0  0  0  0  0  0  0  0
    5.4297    0.6292   20.1137 C   0  0  0  0  0  0  0  0  0  0  0  0
    5.0218    0.6485   21.1230 H   0  0  0  0  0  0  0  0  0  0  0  0
    4.7892    1.3008   19.0694 C   0  0  0  0  0  0  0  0  0  0  0  0
    3.8665    1.8512   19.2274 H   0  0  0  0  0  0  0  0  0  0  0  0
  1  2  1  0
  2  3  2  0
  3  4  1  0
  4  5  1  0
  4  6  2  0
  6  7  1  0
  7  8  1  0
  7  9  1  0
  7 10  1  0
 10 11  1  1
 11 12  1  0
 11 13  1  0
 10 14  1  0
 14 15  1  0
 15 16  1  0
 15 17  1  0
 15 18  1  0
 18 19  1  0
 18 20  1  0
 18 21  1  0
 21 22  1  1
 21 23  1  0
 23 24  1  0
 23 25  1  0
 23 26  1  0
 26 27  1  0
 27 28  1  0
 27 29  1  0
 27 30  1  0
 26 31  1  0
 31 32  1  0
 31 33  1  0
 31 34  1  0
 34 35  1  1
 10 36  1  0
 36 37  1  0
 36 38  1  0
 36 39  1  0
  6 40  1  0
 40 41  1  0
 40 42  2  0
 42 43  1  0
 42  2  1  0
 34 14  1  0
 34 21  1  0
M  END
>  <plip>  (1) 
-0.034482758620689655

>  <filename>  (1) 
[H][c]1[n][c]([H])[c]([C]([H])([H])[C@@]([N]([H])[H])([N]2[C]([H])([H])[C]([H])([H])[C@]3([H])[C]([H])([H])[N]([C]([H])([H])[H])[C]([H])([H])[C@]23[H])[C]([H])([H])[H])[c]([H])[c]1[H]

$$$$
