
     RDKit          3D

 36 37  0  0  0  0  0  0  0  0999 V2000
    5.0357    1.8194   16.9758 H   0  0  0  0  0  0  0  0  0  0  0  0
    5.4465    1.3085   17.8449 C   0  0  0  0  0  0  0  0  0  0  0  0
    6.6003    0.6509   17.6516 N   0  0  0  0  0  0  0  0  0  0  0  0
    7.1255    0.0182   18.7103 C   0  0  0  0  0  0  0  0  0  0  0  0
    8.0530   -0.5211   18.5134 H   0  0  0  0  0  0  0  0  0  0  0  0
    6.5463    0.0188   19.9840 C   0  0  0  0  0  0  0  0  0  0  0  0
    7.2933   -0.6634   21.0960 C   0  0  2  0  0  0  0  0  0  0  0  0
    6.6531   -0.7131   21.9964 H   0  0  0  0  0  0  0  0  0  0  0  0
    8.5103    0.0601   21.3589 N   0  0  0  0  0  0  0  0  0  0  0  0
    8.2770    1.0428   21.3840 H   0  0  0  0  0  0  0  0  0  0  0  0
    9.0044   -0.0859   20.4885 H   0  0  0  0  0  0  0  0  0  0  0  0
    7.6421   -2.0063   20.6751 N   0  0  0  0  0  0  0  0  0  0  0  0
    8.8191   -2.6268   21.3168 C   0  0  0  0  0  0  0  0  0  0  0  0
    9.0915   -3.5389   20.7852 H   0  0  0  0  0  0  0  0  0  0  0  0
    9.6735   -1.9600   21.1656 H   0  0  0  0  0  0  0  0  0  0  0  0
    8.7053   -2.9181   22.8245 C   0  0  0  0  0  0  0  0  0  0  0  0
    8.2082   -2.0325   23.2670 H   0  0  0  0  0  0  0  0  0  0  0  0
    9.7174   -2.9278   23.2510 H   0  0  0  0  0  0  0  0  0  0  0  0
    8.0577   -4.1890   23.1903 N   0  0  0  0  0  0  0  0  0  0  0  0
    7.7043   -4.2207   24.6016 C   0  0  0  0  0  0  0  0  0  0  0  0
    7.4564   -5.2470   24.8933 H   0  0  0  0  0  0  0  0  0  0  0  0
    8.5611   -3.9162   25.2133 H   0  0  0  0  0  0  0  0  0  0  0  0
    6.8503   -3.5698   24.8753 H   0  0  0  0  0  0  0  0  0  0  0  0
    6.9876   -4.6508   22.2992 C   0  0  0  0  0  0  0  0  0  0  0  0
    7.4591   -5.0828   21.4043 H   0  0  0  0  0  0  0  0  0  0  0  0
    6.4789   -5.4910   22.7879 H   0  0  0  0  0  0  0  0  0  0  0  0
    5.9738   -3.5896   21.8253 C   0  0  0  0  0  0  0  0  0  0  0  0
    5.7524   -2.8830   22.6402 H   0  0  0  0  0  0  0  0  0  0  0  0
    5.0238   -4.0788   21.5766 H   0  0  0  0  0  0  0  0  0  0  0  0
    6.4497   -2.8642   20.5526 C   0  0  0  0  0  0  0  0  0  0  0  0
    6.6159   -3.6315   19.7825 H   0  0  0  0  0  0  0  0  0  0  0  0
    5.6259   -2.2577   20.1558 H   0  0  0  0  0  0  0  0  0  0  0  0
    5.3404    0.6890   20.1677 C   0  0  0  0  0  0  0  0  0  0  0  0
    4.8658    0.7080   21.1500 H   0  0  0  0  0  0  0  0  0  0  0  0
    4.7737    1.3435   19.0707 C   0  0  0  0  0  0  0  0  0  0  0  0
    3.8321    1.8762   19.1544 H   0  0  0  0  0  0  0  0  0  0  0  0
  1  2  1  0
  2  3  2  0
  3  4  1  0
  4  5  1  0
  4  6  2  0
  6  7  1  0
  7  8  1  1
  7  9  1  0
  9 10  1  0
  9 11  1  0
  7 12  1  0
 12 13  1  0
 13 14  1  0
 13 15  1  0
 13 16  1  0
 16 17  1  0
 16 18  1  0
 16 19  1  0
 19 20  1  0
 20 21  1  0
 20 22  1  0
 20 23  1  0
 19 24  1  0
 24 25  1  0
 24 26  1  0
 24 27  1  0
 27 28  1  0
 27 29  1  0
 27 30  1  0
 30 31  1  0
 30 32  1  0
  6 33  1  0
 33 34  1  0
 33 35  2  0
 35 36  1  0
 35  2  1  0
 30 12  1  0
M  END
>  <plip>  (1) 
-0.06896551724137931

>  <filename>  (1) 
[H][c]1[n][c]([H])[c]([C@]([H])([N]([H])[H])[N]2[C]([H])([H])[C]([H])([H])[N]([C]([H])([H])[H])[C]([H])([H])[C]([H])([H])[C]2([H])[H])[c]([H])[c]1[H]

$$$$
