
     RDKit          3D

 34 36  0  0  0  0  0  0  0  0999 V2000
    4.9829    1.7830   16.9695 H   0  0  0  0  0  0  0  0  0  0  0  0
    5.4409    1.2772   17.8169 C   0  0  0  0  0  0  0  0  0  0  0  0
    6.5985    0.6463   17.5782 N   0  0  0  0  0  0  0  0  0  0  0  0
    7.1819    0.0257   18.6169 C   0  0  0  0  0  0  0  0  0  0  0  0
    8.1228   -0.4648   18.3775 H   0  0  0  0  0  0  0  0  0  0  0  0
    6.6712   -0.0092   19.9272 C   0  0  0  0  0  0  0  0  0  0  0  0
    7.3437   -0.7850   21.0888 C   0  0  0  0  0  0  0  0  0  0  0  0
    7.3176    0.0321   22.3840 C   0  0  0  0  0  0  0  0  0  0  0  0
    7.0019   -0.3692   23.6470 C   0  0  0  0  0  0  0  0  0  0  0  0
    6.4915   -1.2725   23.9533 H   0  0  0  0  0  0  0  0  0  0  0  0
    7.3174    0.6167   24.5631 N   0  0  0  0  0  0  0  0  0  0  0  0
    7.0149    0.6476   25.5204 H   0  0  0  0  0  0  0  0  0  0  0  0
    7.7641    1.7239   23.8877 C   0  0  0  0  0  0  0  0  0  0  0  0
    8.1317    2.9966   24.3632 C   0  0  0  0  0  0  0  0  0  0  0  0
    8.2193    3.2016   25.4257 H   0  0  0  0  0  0  0  0  0  0  0  0
    8.3962    3.9817   23.4244 C   0  0  0  0  0  0  0  0  0  0  0  0
    8.6293    5.0003   23.7366 H   0  0  0  0  0  0  0  0  0  0  0  0
    8.3671    3.6942   22.0400 C   0  0  0  0  0  0  0  0  0  0  0  0
    8.5105    4.5056   21.3299 H   0  0  0  0  0  0  0  0  0  0  0  0
    8.0879    2.4183   21.5781 C   0  0  0  0  0  0  0  0  0  0  0  0
    8.1034    2.1912   20.5148 H   0  0  0  0  0  0  0  0  0  0  0  0
    7.7586    1.4081   22.5119 C   0  0  0  0  0  0  0  0  0  0  0  0
    6.5626   -2.1122   21.2488 C   0  0  0  0  0  0  0  0  0  0  0  0
    6.5743   -2.6751   20.3088 H   0  0  0  0  0  0  0  0  0  0  0  0
    5.5143   -1.9306   21.5126 H   0  0  0  0  0  0  0  0  0  0  0  0
    7.0052   -2.7454   22.0239 H   0  0  0  0  0  0  0  0  0  0  0  0
    8.8195   -1.1149   20.7639 C   0  0  0  0  0  0  0  0  0  0  0  0
    9.2811   -1.6479   21.5997 H   0  0  0  0  0  0  0  0  0  0  0  0
    8.9056   -1.7473   19.8797 H   0  0  0  0  0  0  0  0  0  0  0  0
    9.3915   -0.1979   20.5839 H   0  0  0  0  0  0  0  0  0  0  0  0
    5.4523    0.6562   20.1430 C   0  0  0  0  0  0  0  0  0  0  0  0
    5.0197    0.6817   21.1479 H   0  0  0  0  0  0  0  0  0  0  0  0
    4.8265    1.3051   19.0763 C   0  0  0  0  0  0  0  0  0  0  0  0
    3.8876    1.8342   19.2047 H   0  0  0  0  0  0  0  0  0  0  0  0
  1  2  1  0
  2  3  2  0
  3  4  1  0
  4  5  1  0
  4  6  2  0
  6  7  1  0
  7  8  1  0
  8  9  2  0
  9 10  1  0
  9 11  1  0
 11 12  1  0
 11 13  1  0
 13 14  2  0
 14 15  1  0
 14 16  1  0
 16 17  1  0
 16 18  2  0
 18 19  1  0
 18 20  1  0
 20 21  1  0
 20 22  2  0
  7 23  1  0
 23 24  1  0
 23 25  1  0
 23 26  1  0
  7 27  1  0
 27 28  1  0
 27 29  1  0
 27 30  1  0
  6 31  1  0
 31 32  1  0
 31 33  2  0
 33 34  1  0
 33  2  1  0
 22  8  1  0
 22 13  1  0
M  END
>  <plip>  (1) 
-0.03571428571428571

>  <filename>  (1) 
[H][c]1[n][c]([H])[c]([C]([c]2[c]([H])[n]([H])[c]3[c]([H])[c]([H])[c]([H])[c]([H])[c]23)([C]([H])([H])[H])[C]([H])([H])[H])[c]([H])[c]1[H]

$$$$
