
     RDKit          3D

 31 32  0  0  0  0  0  0  0  0999 V2000
    5.0429    1.7490   16.9911 H   0  0  0  0  0  0  0  0  0  0  0  0
    5.4682    1.2546   17.8633 C   0  0  0  0  0  0  0  0  0  0  0  0
    6.6342    0.6266   17.6725 N   0  0  0  0  0  0  0  0  0  0  0  0
    7.1890    0.0291   18.7385 C   0  0  0  0  0  0  0  0  0  0  0  0
    8.1130   -0.5112   18.5385 H   0  0  0  0  0  0  0  0  0  0  0  0
    6.6524    0.0330   20.0393 C   0  0  0  0  0  0  0  0  0  0  0  0
    7.4114   -0.5436   21.2606 C   0  0  0  0  0  0  0  0  0  0  0  0
    6.5395   -1.5317   22.1001 C   0  0  0  0  0  0  0  0  0  0  0  0
    6.6595   -1.6272   23.5028 C   0  0  0  0  0  0  0  0  0  0  0  0
    7.3154   -0.9629   24.0499 H   0  0  0  0  0  0  0  0  0  0  0  0
    5.9463   -2.5700   24.2472 C   0  0  0  0  0  0  0  0  0  0  0  0
    6.0613   -2.6099   25.3256 H   0  0  0  0  0  0  0  0  0  0  0  0
    5.0930   -3.4735   23.6094 C   0  0  0  0  0  0  0  0  0  0  0  0
    4.5320   -4.1975   24.1912 H   0  0  0  0  0  0  0  0  0  0  0  0
    5.0135   -3.4641   22.2213 C   0  0  0  0  0  0  0  0  0  0  0  0
    4.4452   -4.2303   21.7034 H   0  0  0  0  0  0  0  0  0  0  0  0
    5.7422   -2.5250   21.4676 C   0  0  0  0  0  0  0  0  0  0  0  0
    5.6595   -2.6939   20.0290 C   0  0  0  0  0  0  0  0  0  0  0  0
    5.5199   -2.9748   18.9138 N   0  0  0  0  0  0  0  0  0  0  0  0
    8.6330   -1.3784   20.8346 C   0  0  0  0  0  0  0  0  0  0  0  0
    9.2038   -1.7142   21.7068 H   0  0  0  0  0  0  0  0  0  0  0  0
    9.3230   -0.8177   20.1981 H   0  0  0  0  0  0  0  0  0  0  0  0
    8.2957   -2.2631   20.3050 H   0  0  0  0  0  0  0  0  0  0  0  0
    7.9235    0.6630   22.0798 C   0  0  0  0  0  0  0  0  0  0  0  0
    8.5596    1.3071   21.4624 H   0  0  0  0  0  0  0  0  0  0  0  0
    8.5401    0.3329   22.9204 H   0  0  0  0  0  0  0  0  0  0  0  0
    7.1012    1.2759   22.4631 H   0  0  0  0  0  0  0  0  0  0  0  0
    5.4079    0.6583   20.1971 C   0  0  0  0  0  0  0  0  0  0  0  0
    4.9105    0.6561   21.1703 H   0  0  0  0  0  0  0  0  0  0  0  0
    4.8088    1.2816   19.0964 C   0  0  0  0  0  0  0  0  0  0  0  0
    3.8632    1.8019   19.1766 H   0  0  0  0  0  0  0  0  0  0  0  0
  1  2  1  0
  2  3  2  0
  3  4  1  0
  4  5  1  0
  4  6  2  0
  6  7  1  0
  7  8  1  0
  8  9  2  0
  9 10  1  0
  9 11  1  0
 11 12  1  0
 11 13  2  0
 13 14  1  0
 13 15  1  0
 15 16  1  0
 15 17  2  0
 17 18  1  0
 18 19  3  0
  7 20  1  0
 20 21  1  0
 20 22  1  0
 20 23  1  0
  7 24  1  0
 24 25  1  0
 24 26  1  0
 24 27  1  0
  6 28  1  0
 28 29  1  0
 28 30  2  0
 30 31  1  0
 30  2  1  0
 17  8  1  0
M  END
>  <plip>  (1) 
-0.10344827586206896

>  <filename>  (1) 
[H][c]1[n][c]([H])[c]([C]([c]2[c]([H])[c]([H])[c]([H])[c]([H])[c]2[C]#[N])([C]([H])([H])[H])[C]([H])([H])[H])[c]([H])[c]1[H]

$$$$
