
     RDKit          3D

 43 45  0  0  0  0  0  0  0  0999 V2000
    6.1686    2.3001   23.9242 C   0  0  0  0  0  0  0  0  0  0  0  0
    7.6411    2.2158   23.4617 C   0  0  0  0  0  0  0  0  0  0  0  0
    7.7545    1.5105   22.0625 C   0  0  0  0  0  0  0  0  0  0  0  0
    8.2127    2.0314   21.0588 O   0  0  0  0  0  0  0  0  0  0  0  0
    7.2554    0.2211   22.0815 N   0  0  0  0  0  0  0  0  0  0  0  0
    7.2921   -0.6901   20.9383 C   0  0  0  0  0  0  0  0  0  0  0  0
    8.7657   -1.0969   20.7294 C   0  0  0  0  0  0  0  0  0  0  0  0
    9.1285   -1.6061   21.6282 H   0  0  0  0  0  0  0  0  0  0  0  0
    9.3766   -0.2001   20.5826 H   0  0  0  0  0  0  0  0  0  0  0  0
    8.9005   -1.7601   19.8773 H   0  0  0  0  0  0  0  0  0  0  0  0
    6.3561   -2.2768   21.3998 C   0  0  0  0  0  0  0  0  0  0  0  0
    5.6418   -2.7537   20.5258 O   0  0  0  0  0  0  0  0  0  0  0  0
    6.6522   -2.6307   22.5410 O   0  0  0  0  0  1  0  0  0  0  0  0
    6.6217   -0.0161   19.7563 C   0  0  0  0  0  0  0  0  0  0  0  0
    5.3341    0.5365   19.8884 C   0  0  0  0  0  0  0  0  0  0  0  0
    4.7652    1.2024   18.7997 C   0  0  0  0  0  0  0  0  0  0  0  0
    5.5016    1.2897   17.6121 C   0  0  0  0  0  0  0  0  0  0  0  0
    6.7162    0.7475   17.4471 N   0  0  0  0  0  0  0  0  0  0  0  0
    7.2499    0.1306   18.5133 C   0  0  0  0  0  0  0  0  0  0  0  0
    8.2486   -0.2773   18.3648 H   0  0  0  0  0  0  0  0  0  0  0  0
    5.0812    1.7915   16.7439 H   0  0  0  0  0  0  0  0  0  0  0  0
    3.7882    1.6725   18.8668 H   0  0  0  0  0  0  0  0  0  0  0  0
    4.8112    0.4632   20.8439 H   0  0  0  0  0  0  0  0  0  0  0  0
    7.3648   -0.2438   22.9703 H   0  0  0  0  0  0  0  0  0  0  0  0
    8.3362    3.6057   23.4219 C   0  0  0  0  0  0  0  0  0  0  0  0
    9.8413    3.3057   23.5841 C   0  0  0  0  0  0  0  0  0  0  0  0
    9.8126    2.0928   24.4873 C   0  0  0  0  0  0  0  0  0  0  0  0
   10.8155    1.5724   25.3051 C   0  0  0  0  0  0  0  0  0  0  0  0
   10.5173    0.4801   26.1293 C   0  0  0  0  0  0  0  0  0  0  0  0
    9.2401   -0.0907   26.1272 C   0  0  0  0  0  0  0  0  0  0  0  0
    8.2437    0.4071   25.2819 C   0  0  0  0  0  0  0  0  0  0  0  0
    8.5416    1.5011   24.4682 C   0  0  0  0  0  0  0  0  0  0  0  0
    7.2597   -0.0553   25.2579 H   0  0  0  0  0  0  0  0  0  0  0  0
    9.0283   -0.9376   26.7715 H   0  0  0  0  0  0  0  0  0  0  0  0
   11.2701    0.0714   26.7884 H   0  0  0  0  0  0  0  0  0  0  0  0
   11.8048    2.0254   25.3130 H   0  0  0  0  0  0  0  0  0  0  0  0
   10.3898    4.1547   24.0103 H   0  0  0  0  0  0  0  0  0  0  0  0
   10.3118    3.0441   22.6280 H   0  0  0  0  0  0  0  0  0  0  0  0
    8.0118    4.1711   24.3052 H   0  0  0  0  0  0  0  0  0  0  0  0
    8.0729    4.1869   22.5314 H   0  0  0  0  0  0  0  0  0  0  0  0
    6.1109    2.7504   24.9215 H   0  0  0  0  0  0  0  0  0  0  0  0
    5.5708    2.9070   23.2339 H   0  0  0  0  0  0  0  0  0  0  0  0
    5.7109    1.3057   23.9709 H   0  0  0  0  0  0  0  0  0  0  0  0
  1  2  1  0
  2  3  1  0
  3  4  2  0
  3  5  1  0
  5  6  1  0
  6  7  1  0
  7  8  1  0
  7  9  1  0
  7 10  1  0
  6 11  1  0
 11 12  2  0
 11 13  1  0
  6 14  1  0
 14 15  2  0
 15 16  1  0
 16 17  2  0
 17 18  1  0
 18 19  2  0
 19 20  1  0
 17 21  1  0
 16 22  1  0
 15 23  1  0
  5 24  1  0
  2 25  1  0
 25 26  1  0
 26 27  1  0
 27 28  2  0
 28 29  1  0
 29 30  2  0
 30 31  1  0
 31 32  2  0
 31 33  1  0
 30 34  1  0
 29 35  1  0
 28 36  1  0
 26 37  1  0
 26 38  1  0
 25 39  1  0
 25 40  1  0
  1 41  1  0
  1 42  1  0
  1 43  1  0
 32  2  1  0
 19 14  1  0
 32 27  1  0
M  CHG  1  13  -1
M  END
>  <plip>  (1) 
-0.1

>  <filename>  (1) 
[H][c]1[n][c]([H])[c]([C]([C](=[O])[O-])([N]([H])[C](=[O])[C]2([C]([H])([H])[H])[c]3[c]([H])[c]([H])[c]([H])[c]([H])[c]3[C]([H])([H])[C]2([H])[H])[C]([H])([H])[H])[c]([H])[c]1[H]

$$$$
