
     RDKit          3D

 22 23  0  0  0  0  0  0  0  0999 V2000
    9.2442    0.1666   20.5218 H   0  0  0  0  0  0  0  0  0  0  0  0
    8.7206   -0.5940   21.0925 C   0  0  0  0  0  0  0  0  0  0  0  0
    9.3018   -1.1719   21.8040 H   0  0  0  0  0  0  0  0  0  0  0  0
    7.4060   -0.7965   20.9422 C   0  0  0  0  0  0  0  0  0  0  0  0
    6.6181   -0.0469   19.9107 C   0  0  0  0  0  0  0  0  0  0  0  0
    7.1554    0.0254   18.6111 C   0  0  0  0  0  0  0  0  0  0  0  0
    8.0951   -0.4841   18.4031 H   0  0  0  0  0  0  0  0  0  0  0  0
    6.5870    0.6684   17.5868 N   0  0  0  0  0  0  0  0  0  0  0  0
    5.4338    1.3040   17.8378 C   0  0  0  0  0  0  0  0  0  0  0  0
    4.9927    1.8381   16.9971 H   0  0  0  0  0  0  0  0  0  0  0  0
    4.8135    1.3073   19.0904 C   0  0  0  0  0  0  0  0  0  0  0  0
    3.8914    1.8600   19.2115 H   0  0  0  0  0  0  0  0  0  0  0  0
    5.4013    0.6134   20.1527 C   0  0  0  0  0  0  0  0  0  0  0  0
    4.9413    0.6039   21.1431 H   0  0  0  0  0  0  0  0  0  0  0  0
    6.7121   -1.7350   21.7865 N   0  0  0  0  0  0  0  0  0  0  0  0
    5.6976   -2.5116   21.3309 N   0  0  0  0  0  0  0  0  0  0  0  0
    5.2896   -3.2008   22.3827 C   0  0  0  0  0  0  0  0  0  0  0  0
    4.4471   -3.8809   22.2851 H   0  0  0  0  0  0  0  0  0  0  0  0
    6.0594   -2.9055   23.5343 C   0  0  0  0  0  0  0  0  0  0  0  0
    5.9396   -3.2993   24.5301 H   0  0  0  0  0  0  0  0  0  0  0  0
    6.9569   -1.9591   23.1115 C   0  0  0  0  0  0  0  0  0  0  0  0
    7.7266   -1.4165   23.6422 H   0  0  0  0  0  0  0  0  0  0  0  0
  1  2  1  0
  2  3  1  0
  2  4  2  3
  4  5  1  0
  5  6  2  0
  6  7  1  0
  6  8  1  0
  8  9  2  0
  9 10  1  0
  9 11  1  0
 11 12  1  0
 11 13  2  0
 13 14  1  0
  4 15  1  0
 15 16  1  0
 16 17  2  0
 17 18  1  0
 17 19  1  0
 19 20  1  0
 19 21  2  0
 21 22  1  0
 13  5  1  0
 21 15  1  0
M  END
>  <plip>  (1) 
-0.07142857142857142

>  <filename>  (1) 
[H][C]([H])=[C]([c]1[c]([H])[n][c]([H])[c]([H])[c]1[H])[n]1[n][c]([H])[c]([H])[c]1[H]

$$$$
