
     RDKit          3D

 29 30  0  0  0  0  0  0  0  0999 V2000
   11.4484    1.3616   22.6060 C   0  0  0  0  0  0  0  0  0  0  0  0
    9.9582    1.6795   22.5037 C   0  0  2  0  0  0  0  0  0  0  0  0
    9.1584    1.2943   23.6636 N   0  0  0  0  0  0  0  0  0  0  0  0
    8.1979    0.3780   23.3091 C   0  0  0  0  0  0  0  0  0  0  0  0
    7.5652   -0.3228   24.0611 O   0  0  0  0  0  0  0  0  0  0  0  0
    8.0998    0.3702   21.9319 N   0  0  0  0  0  0  0  0  0  0  0  0
    7.2641   -0.6038   21.2265 C   0  0  2  0  0  0  0  0  0  0  0  0
    8.0932   -1.8407   20.8790 C   0  0  0  0  0  0  0  0  0  0  0  0
    8.8806   -1.5885   20.1631 H   0  0  0  0  0  0  0  0  0  0  0  0
    7.4481   -2.6238   20.4675 H   0  0  0  0  0  0  0  0  0  0  0  0
    8.5877   -2.2036   21.7865 H   0  0  0  0  0  0  0  0  0  0  0  0
    6.5901    0.0703   20.0531 C   0  0  0  0  0  0  0  0  0  0  0  0
    5.3670    0.7375   20.2124 C   0  0  0  0  0  0  0  0  0  0  0  0
    4.7740    1.3368   19.0986 C   0  0  0  0  0  0  0  0  0  0  0  0
    5.4341    1.2620   17.8655 C   0  0  0  0  0  0  0  0  0  0  0  0
    6.6155    0.6527   17.6975 N   0  0  0  0  0  0  0  0  0  0  0  0
    7.1722    0.0865   18.7771 C   0  0  0  0  0  0  0  0  0  0  0  0
    8.1468   -0.3687   18.6228 H   0  0  0  0  0  0  0  0  0  0  0  0
    5.0082    1.7268   16.9787 H   0  0  0  0  0  0  0  0  0  0  0  0
    3.8323    1.8732   19.1713 H   0  0  0  0  0  0  0  0  0  0  0  0
    4.8967    0.8010   21.1983 H   0  0  0  0  0  0  0  0  0  0  0  0
    6.4798   -0.9066   21.9353 H   0  0  0  0  0  0  0  0  0  0  0  0
    9.2209    0.9391   21.3809 C   0  0  0  0  0  0  0  0  0  0  0  0
    9.5591    0.8200   20.2284 O   0  0  0  0  0  0  0  0  0  0  0  0
    9.5634    1.0577   24.5575 H   0  0  0  0  0  0  0  0  0  0  0  0
    9.8399    2.7548   22.3032 H   0  0  0  0  0  0  0  0  0  0  0  0
   11.6288    0.2851   22.6934 H   0  0  0  0  0  0  0  0  0  0  0  0
   11.9055    1.8657   23.4651 H   0  0  0  0  0  0  0  0  0  0  0  0
   11.9525    1.7268   21.7071 H   0  0  0  0  0  0  0  0  0  0  0  0
  1  2  1  0
  2  3  1  0
  3  4  1  0
  4  5  2  0
  4  6  1  0
  6  7  1  0
  7  8  1  0
  8  9  1  0
  8 10  1  0
  8 11  1  0
  7 12  1  0
 12 13  2  0
 13 14  1  0
 14 15  2  0
 15 16  1  0
 16 17  2  0
 17 18  1  0
 15 19  1  0
 14 20  1  0
 13 21  1  0
  7 22  1  1
  6 23  1  0
 23 24  2  0
  3 25  1  0
  2 26  1  6
  1 27  1  0
  1 28  1  0
  1 29  1  0
 23  2  1  0
 17 12  1  0
M  END
>  <plip>  (1) 
-0.03571428571428571

>  <filename>  (1) 
[H][c]1[n][c]([H])[c]([C@]([H])([N]2[C](=[O])[N]([H])[C@@]([H])([C]([H])([H])[H])[C]2=[O])[C]([H])([H])[H])[c]([H])[c]1[H]

$$$$
