
     RDKit          3D

 33 34  0  0  0  0  0  0  0  0999 V2000
    8.6754   -5.8367   24.9150 C   0  0  0  0  0  0  0  0  0  0  0  0
    8.7412   -4.4374   25.5229 C   0  0  0  0  0  0  0  0  0  0  0  0
    8.7214   -3.3814   24.4857 N   0  0  0  0  0  0  0  0  0  0  0  0
    7.5800   -3.0556   23.7884 C   0  0  0  0  0  0  0  0  0  0  0  0
    6.5044   -3.5854   24.0294 O   0  0  0  0  0  0  0  0  0  0  0  0
    7.7180   -2.0116   22.6904 C   0  0  0  0  0  0  0  0  0  0  0  0
    8.8708   -1.4244   22.3334 N   0  0  0  0  0  0  0  0  0  0  0  0
    8.5654   -0.6176   21.3134 N   0  0  0  0  0  0  0  0  0  0  0  0
    9.6347    0.1091   20.6671 C   0  0  0  0  0  0  0  0  0  0  0  0
   10.0485   -0.4912   19.8522 H   0  0  0  0  0  0  0  0  0  0  0  0
   10.4115    0.2848   21.4093 H   0  0  0  0  0  0  0  0  0  0  0  0
    9.2767    1.0686   20.2864 H   0  0  0  0  0  0  0  0  0  0  0  0
    7.2509   -0.6846   20.9645 C   0  0  0  0  0  0  0  0  0  0  0  0
    6.6153    0.0521   19.8524 C   0  0  0  0  0  0  0  0  0  0  0  0
    5.3958    0.7065   20.0733 C   0  0  0  0  0  0  0  0  0  0  0  0
    4.7794    1.3673   19.0088 C   0  0  0  0  0  0  0  0  0  0  0  0
    5.3946    1.3474   17.7509 C   0  0  0  0  0  0  0  0  0  0  0  0
    6.5538    0.7155   17.5062 N   0  0  0  0  0  0  0  0  0  0  0  0
    7.1353    0.0899   18.5408 C   0  0  0  0  0  0  0  0  0  0  0  0
    8.0666   -0.4271   18.3173 H   0  0  0  0  0  0  0  0  0  0  0  0
    4.9338    1.8536   16.9041 H   0  0  0  0  0  0  0  0  0  0  0  0
    3.8404    1.8910   19.1418 H   0  0  0  0  0  0  0  0  0  0  0  0
    4.9598    0.7028   21.0750 H   0  0  0  0  0  0  0  0  0  0  0  0
    6.6736   -1.5636   21.8526 C   0  0  0  0  0  0  0  0  0  0  0  0
    5.6375   -1.8642   21.8630 H   0  0  0  0  0  0  0  0  0  0  0  0
    9.5811   -3.0036   24.1166 H   0  0  0  0  0  0  0  0  0  0  0  0
   10.0498   -4.5801   26.6289 C   0  0  0  0  0  0  0  0  0  0  0  0
   11.1521   -4.7126   26.0875 O   0  0  0  0  0  0  0  0  0  0  0  0
    9.6754   -4.5904   27.8125 O   0  0  0  0  0  1  0  0  0  0  0  0
    7.8745   -4.2458   26.1486 H   0  0  0  0  0  0  0  0  0  0  0  0
    8.6075   -6.5764   25.7213 H   0  0  0  0  0  0  0  0  0  0  0  0
    9.5860   -6.0333   24.3377 H   0  0  0  0  0  0  0  0  0  0  0  0
    7.7988   -5.9050   24.2678 H   0  0  0  0  0  0  0  0  0  0  0  0
  1  2  1  0
  2  3  1  0
  3  4  1  0
  4  5  2  0
  4  6  1  0
  6  7  2  0
  7  8  1  0
  8  9  1  0
  9 10  1  0
  9 11  1  0
  9 12  1  0
  8 13  1  0
 13 14  1  0
 14 15  2  0
 15 16  1  0
 16 17  2  0
 17 18  1  0
 18 19  2  0
 19 20  1  0
 17 21  1  0
 16 22  1  0
 15 23  1  0
 13 24  2  0
 24 25  1  0
  3 26  1  0
  2 27  1  0
 27 28  2  0
 27 29  1  0
  2 30  1  0
  1 31  1  0
  1 32  1  0
  1 33  1  0
 24  6  1  0
 19 14  1  0
M  CHG  1  29  -1
M  END
>  <plip>  (1) 
-0.07142857142857142

>  <filename>  (1) 
[H][c]1[n][c]([H])[c](-[c]2[c]([H])[c]([C](=[O])[N]([H])[C]([H])([C](=[O])[O-])[C]([H])([H])[H])[n][n]2[C]([H])([H])[H])[c]([H])[c]1[H]

$$$$
