
     RDKit          3D

 29 31  0  0  0  0  0  0  0  0999 V2000
    4.9457    1.7561   16.9092 H   0  0  0  0  0  0  0  0  0  0  0  0
    5.3994    1.3498   17.8103 C   0  0  0  0  0  0  0  0  0  0  0  0
    6.5890    0.7497   17.6536 N   0  0  0  0  0  0  0  0  0  0  0  0
    7.1397    0.1946   18.7400 C   0  0  0  0  0  0  0  0  0  0  0  0
    8.0911   -0.3143   18.5805 H   0  0  0  0  0  0  0  0  0  0  0  0
    6.5721    0.2205   20.0280 C   0  0  0  0  0  0  0  0  0  0  0  0
    7.2411   -0.4917   21.1495 C   0  0  0  0  0  0  0  0  0  0  0  0
    7.5818    0.1260   22.3875 C   0  0  0  0  0  0  0  0  0  0  0  0
    7.3116    1.1553   22.5811 H   0  0  0  0  0  0  0  0  0  0  0  0
    8.2636   -0.5715   23.3369 C   0  0  0  0  0  0  0  0  0  0  0  0
    8.5660   -0.1626   24.3005 H   0  0  0  0  0  0  0  0  0  0  0  0
    8.6167   -1.8976   23.1167 N   0  0  0  0  0  0  0  0  0  0  0  0
    9.3069   -2.5898   24.0910 N   0  0  0  0  0  0  0  0  0  0  0  0
    8.8200   -2.8616   25.3487 C   0  0  0  0  0  0  0  0  0  0  0  0
    7.9249   -2.3595   25.6770 H   0  0  0  0  0  0  0  0  0  0  0  0
    9.6580   -3.7651   25.9431 C   0  0  0  0  0  0  0  0  0  0  0  0
    9.5460   -4.1840   26.9337 H   0  0  0  0  0  0  0  0  0  0  0  0
   10.6959   -4.0505   25.0023 C   0  0  0  0  0  0  0  0  0  0  0  0
   11.5070   -4.7538   25.1406 H   0  0  0  0  0  0  0  0  0  0  0  0
   10.4473   -3.3253   23.8732 C   0  0  0  0  0  0  0  0  0  0  0  0
   10.9277   -3.3193   22.9069 H   0  0  0  0  0  0  0  0  0  0  0  0
    8.1851   -2.6222   21.9550 C   0  0  0  0  0  0  0  0  0  0  0  0
    8.3636   -3.8187   21.8013 O   0  0  0  0  0  0  0  0  0  0  0  0
    7.5294   -1.8123   20.9758 C   0  0  0  0  0  0  0  0  0  0  0  0
    7.2230   -2.3371   20.0956 H   0  0  0  0  0  0  0  0  0  0  0  0
    5.3467    0.8825   20.1735 C   0  0  0  0  0  0  0  0  0  0  0  0
    4.8672    0.9293   21.1516 H   0  0  0  0  0  0  0  0  0  0  0  0
    4.7428    1.4325   19.0406 C   0  0  0  0  0  0  0  0  0  0  0  0
    3.7691    1.8991   19.0898 H   0  0  0  0  0  0  0  0  0  0  0  0
  1  2  1  0
  2  3  2  0
  3  4  1  0
  4  5  1  0
  4  6  2  0
  6  7  1  0
  7  8  1  0
  8  9  1  0
  8 10  2  0
 10 11  1  0
 10 12  1  0
 12 13  1  0
 13 14  1  0
 14 15  1  0
 14 16  2  0
 16 17  1  0
 16 18  1  0
 18 19  1  0
 18 20  2  0
 20 21  1  0
 12 22  1  0
 22 23  2  0
 22 24  1  0
 24 25  1  0
  6 26  1  0
 26 27  1  0
 26 28  2  0
 28 29  1  0
 28  2  1  0
 24  7  2  0
 20 13  1  0
M  END
>  <plip>  (1) 
-0.06896551724137931

>  <filename>  (1) 
[H][c]1[n][c]([H])[c](-[c]2[c]([H])[c]([H])[n](-[n]3[c]([H])[c]([H])[c]([H])[c]3[H])[c](=[O])[c]2[H])[c]([H])[c]1[H]

$$$$
