
     RDKit          3D

 25 26  0  0  0  0  0  0  0  0999 V2000
    4.7114   -3.1076   19.4091 H   0  0  0  0  0  0  0  0  0  0  0  0
    5.4610   -2.5110   19.4831 O   0  0  0  0  0  0  0  0  0  0  0  0
    5.8163   -2.8944   20.9347 P   0  0  0  0  0  0  0  0  0  0  0  0
    4.6370   -3.1593   21.7445 O   0  0  0  0  0  0  0  0  0  0  0  0
    5.9230   -4.3208   21.2143 O   0  0  0  0  0  0  0  0  0  0  0  0
    5.0824   -4.0494   21.7020 H   0  0  0  0  0  0  0  0  0  0  0  0
    7.0435   -1.9500   21.4740 C   0  0  0  0  0  0  0  0  0  0  0  0
    7.7294   -2.5393   22.5004 C   0  0  0  0  0  0  0  0  0  0  0  0
    7.4146   -3.4833   22.9418 H   0  0  0  0  0  0  0  0  0  0  0  0
    8.8161   -1.9635   22.9895 N   0  0  0  0  0  0  0  0  0  0  0  0
    9.2235   -0.8009   22.4575 C   0  0  0  0  0  0  0  0  0  0  0  0
   10.1081   -0.3239   22.8652 H   0  0  0  0  0  0  0  0  0  0  0  0
    8.5409   -0.1740   21.4142 C   0  0  0  0  0  0  0  0  0  0  0  0
    8.8847    0.7713   21.0150 H   0  0  0  0  0  0  0  0  0  0  0  0
    7.3989   -0.7520   20.9121 C   0  0  0  0  0  0  0  0  0  0  0  0
    6.6449   -0.0993   19.8583 C   0  0  0  0  0  0  0  0  0  0  0  0
    7.1810   -0.0210   18.5674 C   0  0  0  0  0  0  0  0  0  0  0  0
    8.1356   -0.4939   18.3569 H   0  0  0  0  0  0  0  0  0  0  0  0
    6.5795    0.6440   17.5610 N   0  0  0  0  0  0  0  0  0  0  0  0
    5.4211    1.2769   17.8217 C   0  0  0  0  0  0  0  0  0  0  0  0
    4.9308    1.8375   17.0294 H   0  0  0  0  0  0  0  0  0  0  0  0
    4.8266    1.2469   19.0874 C   0  0  0  0  0  0  0  0  0  0  0  0
    3.9109    1.8000   19.2562 H   0  0  0  0  0  0  0  0  0  0  0  0
    5.4354    0.5450   20.1277 C   0  0  0  0  0  0  0  0  0  0  0  0
    5.0068    0.5394   21.1299 H   0  0  0  0  0  0  0  0  0  0  0  0
  1  2  1  0
  2  3  1  0
  3  4  2  0
  3  5  1  0
  5  6  1  0
  3  7  1  0
  7  8  2  0
  8  9  1  0
  8 10  1  0
 10 11  2  0
 11 12  1  0
 11 13  1  0
 13 14  1  0
 13 15  2  0
 15 16  1  0
 16 17  2  0
 17 18  1  0
 17 19  1  0
 19 20  2  0
 20 21  1  0
 20 22  1  0
 22 23  1  0
 22 24  2  0
 24 25  1  0
 15  7  1  0
 24 16  1  0
M  END
>  <plip>  (1) 
-0.10344827586206896

>  <filename>  (1) 
[H][O][P](=[O])([O][H])[c]1[c]([H])[n][c]([H])[c]([H])[c]1-[c]1[c]([H])[n][c]([H])[c]([H])[c]1[H]

$$$$
