
     RDKit          3D

 27 28  0  0  0  0  0  0  0  0999 V2000
    5.0525    1.7648   16.9878 H   0  0  0  0  0  0  0  0  0  0  0  0
    5.4850    1.2689   17.8549 C   0  0  0  0  0  0  0  0  0  0  0  0
    6.6476    0.6377   17.6539 N   0  0  0  0  0  0  0  0  0  0  0  0
    7.2211    0.0508   18.7152 C   0  0  0  0  0  0  0  0  0  0  0  0
    8.1579   -0.4624   18.5083 H   0  0  0  0  0  0  0  0  0  0  0  0
    6.6855    0.0418   20.0152 C   0  0  0  0  0  0  0  0  0  0  0  0
    7.4027   -0.5850   21.2331 C   0  0  0  0  0  0  0  0  0  0  0  0
    6.4899   -1.6385   21.8692 C   0  0  0  0  0  0  0  0  0  0  0  0
    6.6330   -1.9357   23.1972 O   0  0  0  0  0  0  0  0  0  0  0  0
    5.8606   -3.0183   23.4560 C   0  0  0  0  0  0  0  0  0  0  0  0
    5.9201   -3.4018   24.4649 H   0  0  0  0  0  0  0  0  0  0  0  0
    5.2287   -3.4474   22.3340 C   0  0  0  0  0  0  0  0  0  0  0  0
    4.5363   -4.2789   22.2668 H   0  0  0  0  0  0  0  0  0  0  0  0
    5.6408   -2.5454   21.3051 C   0  0  0  0  0  0  0  0  0  0  0  0
    5.4044   -2.5869   20.2510 H   0  0  0  0  0  0  0  0  0  0  0  0
    7.7830    0.5380   22.2176 C   0  0  0  0  0  0  0  0  0  0  0  0
    6.9090    1.0919   22.5643 H   0  0  0  0  0  0  0  0  0  0  0  0
    8.4653    1.2396   21.7258 H   0  0  0  0  0  0  0  0  0  0  0  0
    8.3015    0.1117   23.0790 H   0  0  0  0  0  0  0  0  0  0  0  0
    8.7387   -1.2690   20.8503 C   0  0  0  0  0  0  0  0  0  0  0  0
    8.5608   -2.1275   20.2112 H   0  0  0  0  0  0  0  0  0  0  0  0
    9.4039   -0.5778   20.3289 H   0  0  0  0  0  0  0  0  0  0  0  0
    9.2892   -1.6014   21.7360 H   0  0  0  0  0  0  0  0  0  0  0  0
    5.4481    0.6867   20.1887 C   0  0  0  0  0  0  0  0  0  0  0  0
    4.9619    0.6822   21.1676 H   0  0  0  0  0  0  0  0  0  0  0  0
    4.8409    1.3089   19.0950 C   0  0  0  0  0  0  0  0  0  0  0  0
    3.8944    1.8296   19.1903 H   0  0  0  0  0  0  0  0  0  0  0  0
  1  2  1  0
  2  3  2  0
  3  4  1  0
  4  5  1  0
  4  6  2  0
  6  7  1  0
  7  8  1  0
  8  9  1  0
  9 10  1  0
 10 11  1  0
 10 12  2  0
 12 13  1  0
 12 14  1  0
 14 15  1  0
  7 16  1  0
 16 17  1  0
 16 18  1  0
 16 19  1  0
  7 20  1  0
 20 21  1  0
 20 22  1  0
 20 23  1  0
  6 24  1  0
 24 25  1  0
 24 26  2  0
 26 27  1  0
 26  2  1  0
 14  8  2  0
M  END
>  <plip>  (1) 
-0.034482758620689655

>  <filename>  (1) 
[H][c]1[n][c]([H])[c]([C]([c]2[o][c]([H])[c]([H])[c]2[H])([C]([H])([H])[H])[C]([H])([H])[H])[c]([H])[c]1[H]

$$$$
