
     RDKit          3D

 49 50  0  0  0  0  0  0  0  0999 V2000
    6.5995   -6.6265   28.2396 C   0  0  0  0  0  0  0  0  0  0  0  0
    7.8376   -6.3508   27.3937 C   0  0  0  0  0  0  0  0  0  0  0  0
    8.9002   -5.5005   28.0699 C   0  0  0  0  0  0  0  0  0  0  0  0
    9.8375   -5.5311   27.5013 H   0  0  0  0  0  0  0  0  0  0  0  0
    9.1182   -5.9747   29.0226 H   0  0  0  0  0  0  0  0  0  0  0  0
    8.5917   -4.4606   28.2153 H   0  0  0  0  0  0  0  0  0  0  0  0
    7.4325   -5.7913   26.0578 N   0  0  0  0  0  4  0  0  0  0  0  0
    8.5948   -5.8517   25.1016 C   0  0  0  0  0  0  0  0  0  0  0  0
    8.1635   -5.4049   23.7151 C   0  0  0  0  0  0  0  0  0  0  0  0
    7.6543   -3.9622   23.8252 C   0  0  0  0  0  0  0  0  0  0  0  0
    7.3734   -3.2913   22.5073 N   0  0  0  0  0  4  0  0  0  0  0  0
    8.3784   -3.5600   21.4208 C   0  0  0  0  0  0  0  0  0  0  0  0
    8.1678   -2.8950   20.5800 H   0  0  0  0  0  0  0  0  0  0  0  0
    9.3966   -3.3265   21.7699 H   0  0  0  0  0  0  0  0  0  0  0  0
    8.3432   -4.5955   21.0681 H   0  0  0  0  0  0  0  0  0  0  0  0
    7.2284   -1.7489   22.5833 C   0  0  0  0  0  0  0  0  0  0  0  0
    6.4927   -1.1955   21.3527 C   0  0  0  0  0  0  0  0  0  0  0  0
    5.4817   -1.7591   20.9791 O   0  0  0  0  0  0  0  0  0  0  0  0
    7.0858   -0.1505   20.6907 N   0  0  0  0  0  0  0  0  0  0  0  0
    6.5211    0.4735   19.5263 C   0  0  0  0  0  0  0  0  0  0  0  0
    5.2436    1.0372   19.5886 C   0  0  0  0  0  0  0  0  0  0  0  0
    4.7209    1.6479   18.4450 C   0  0  0  0  0  0  0  0  0  0  0  0
    5.4828    1.6530   17.2708 C   0  0  0  0  0  0  0  0  0  0  0  0
    6.7005    1.0903   17.1873 N   0  0  0  0  0  0  0  0  0  0  0  0
    7.2067    0.5293   18.2908 C   0  0  0  0  0  0  0  0  0  0  0  0
    8.1963    0.0823   18.2036 H   0  0  0  0  0  0  0  0  0  0  0  0
    5.1027    2.1229   16.3655 H   0  0  0  0  0  0  0  0  0  0  0  0
    3.7459    2.1245   18.4494 H   0  0  0  0  0  0  0  0  0  0  0  0
    4.6879    0.9918   20.5273 H   0  0  0  0  0  0  0  0  0  0  0  0
    7.8280    0.3283   21.1729 H   0  0  0  0  0  0  0  0  0  0  0  0
    6.6320   -1.4802   23.4581 H   0  0  0  0  0  0  0  0  0  0  0  0
    8.2136   -1.2874   22.6901 H   0  0  0  0  0  0  0  0  0  0  0  0
    6.4295   -3.6420   22.2055 H   0  0  0  0  0  0  0  0  0  0  0  0
    6.4040   -3.9681   24.7051 C   0  0  0  0  0  0  0  0  0  0  0  0
    6.7604   -4.4263   26.1107 C   0  0  0  0  0  0  0  0  0  0  0  0
    7.4454   -3.7090   26.5812 H   0  0  0  0  0  0  0  0  0  0  0  0
    5.8678   -4.4823   26.7402 H   0  0  0  0  0  0  0  0  0  0  0  0
    5.6541   -4.6438   24.2663 H   0  0  0  0  0  0  0  0  0  0  0  0
    5.9558   -2.9732   24.7508 H   0  0  0  0  0  0  0  0  0  0  0  0
    8.4477   -3.3805   24.3257 H   0  0  0  0  0  0  0  0  0  0  0  0
    9.0114   -5.4673   23.0303 H   0  0  0  0  0  0  0  0  0  0  0  0
    7.3777   -6.0799   23.3454 H   0  0  0  0  0  0  0  0  0  0  0  0
    9.0151   -6.8665   25.1041 H   0  0  0  0  0  0  0  0  0  0  0  0
    9.3902   -5.1913   25.4751 H   0  0  0  0  0  0  0  0  0  0  0  0
    6.7115   -6.4510   25.6866 H   0  0  0  0  0  0  0  0  0  0  0  0
    8.3550   -7.2908   27.1913 H   0  0  0  0  0  0  0  0  0  0  0  0
    5.8512   -7.1539   27.6275 H   0  0  0  0  0  0  0  0  0  0  0  0
    6.1390   -5.6974   28.5937 H   0  0  0  0  0  0  0  0  0  0  0  0
    6.8463   -7.2367   29.1193 H   0  0  0  0  0  0  0  0  0  0  0  0
  1  2  1  0
  2  3  1  0
  3  4  1  0
  3  5  1  0
  3  6  1  0
  2  7  1  0
  7  8  1  0
  8  9  1  0
  9 10  1  0
 10 11  1  0
 11 12  1  0
 12 13  1  0
 12 14  1  0
 12 15  1  0
 11 16  1  0
 16 17  1  0
 17 18  2  0
 17 19  1  0
 19 20  1  0
 20 21  2  0
 21 22  1  0
 22 23  2  0
 23 24  1  0
 24 25  2  0
 25 26  1  0
 23 27  1  0
 22 28  1  0
 21 29  1  0
 19 30  1  0
 16 31  1  0
 16 32  1  0
 11 33  1  0
 10 34  1  0
 34 35  1  0
 35 36  1  0
 35 37  1  0
 34 38  1  0
 34 39  1  0
 10 40  1  0
  9 41  1  0
  9 42  1  0
  8 43  1  0
  8 44  1  0
  7 45  1  0
  2 46  1  0
  1 47  1  0
  1 48  1  0
  1 49  1  0
 35  7  1  0
 25 20  1  0
M  CHG  2   7   1  11   1
M  END
>  <plip>  (1) 
-0.13793103448275862

>  <filename>  (1) 
[H][c]1[n][c]([H])[c]([N]([H])[C](=[O])[C]([H])([H])[N+]([H])([C]([H])([H])[H])[C]2([H])[C]([H])([H])[C]([H])([H])[N+]([H])([C]([H])([C]([H])([H])[H])[C]([H])([H])[H])[C]([H])([H])[C]2([H])[H])[c]([H])[c]1[H]

$$$$
