
     RDKit          3D

 24 24  0  0  0  0  0  0  0  0999 V2000
   10.8855   -5.3097   24.7566 H   0  0  0  0  0  0  0  0  0  0  0  0
   11.0029   -4.3424   24.8177 O   0  0  0  0  0  0  0  0  0  0  0  0
    9.9484   -3.9072   24.1197 C   0  0  0  0  0  0  0  0  0  0  0  0
    9.2101   -4.6922   23.5770 O   0  0  0  0  0  0  0  0  0  0  0  0
    9.7522   -2.3074   24.1060 C   0  0  0  0  0  0  0  0  0  0  0  0
   10.2415   -1.6154   24.9743 O   0  0  0  0  0  0  0  0  0  0  0  0
    8.9326   -1.6832   23.0861 C   0  0  0  0  0  0  0  0  0  0  0  0
    8.4440   -0.7710   23.3878 H   0  0  0  0  0  0  0  0  0  0  0  0
    9.1322   -1.9142   21.7737 C   0  0  0  0  0  0  0  0  0  0  0  0
    8.4478   -1.3801   20.7021 N   0  0  0  0  0  0  0  0  0  0  0  0
    7.3739   -0.7288   20.9386 C   0  0  0  0  0  0  0  0  0  0  0  0
    6.9414   -0.6778   21.9518 H   0  0  0  0  0  0  0  0  0  0  0  0
    6.6525   -0.0361   19.8943 C   0  0  0  0  0  0  0  0  0  0  0  0
    7.1861    0.0147   18.5962 C   0  0  0  0  0  0  0  0  0  0  0  0
    8.1385   -0.4723   18.3928 H   0  0  0  0  0  0  0  0  0  0  0  0
    6.5921    0.6542   17.5909 N   0  0  0  0  0  0  0  0  0  0  0  0
    5.4338    1.2803   17.8496 C   0  0  0  0  0  0  0  0  0  0  0  0
    4.9640    1.7900   17.0107 H   0  0  0  0  0  0  0  0  0  0  0  0
    4.8285    1.2927   19.1102 C   0  0  0  0  0  0  0  0  0  0  0  0
    3.8977    1.8250   19.2534 H   0  0  0  0  0  0  0  0  0  0  0  0
    5.4506    0.6276   20.1573 C   0  0  0  0  0  0  0  0  0  0  0  0
    5.0328    0.6314   21.1644 H   0  0  0  0  0  0  0  0  0  0  0  0
   10.1363   -2.6289   21.3096 O   0  0  0  0  0  0  0  0  0  0  0  0
    9.9709   -2.4598   20.3694 H   0  0  0  0  0  0  0  0  0  0  0  0
  1  2  1  0
  2  3  1  0
  3  4  2  0
  3  5  1  0
  5  6  2  0
  5  7  1  0
  7  8  1  0
  7  9  2  3
  9 10  1  0
 10 11  2  3
 11 12  1  0
 11 13  1  0
 13 14  2  0
 14 15  1  0
 14 16  1  0
 16 17  2  0
 17 18  1  0
 17 19  1  0
 19 20  1  0
 19 21  2  0
 21 22  1  0
  9 23  1  0
 23 24  1  0
 21 13  1  0
M  END
>  <plip>  (1) 
-0.06896551724137931

>  <filename>  (1) 
[H][O][C](=[O])[C](=[O])[C]([H])=[C]([N]=[C]([H])[c]1[c]([H])[n][c]([H])[c]([H])[c]1[H])[O][H]

$$$$
