
     RDKit          3D

 52 55  0  0  0  0  0  0  0  0999 V2000
    6.6244   -3.0466   20.7379 C   0  0  0  0  0  0  0  0  0  0  0  0
    6.6658   -1.8324   21.5934 N   0  0  0  0  0  4  0  0  0  0  0  0
    7.2019   -2.0780   22.9807 C   0  0  0  0  0  0  0  0  0  0  0  0
    7.9880   -0.8018   23.3549 C   0  0  0  0  0  0  0  0  0  0  0  0
    7.8275    0.1837   22.1795 C   0  0  1  0  0  0  0  0  0  0  0  0
    9.0476    1.0248   21.8359 C   0  0  0  0  0  0  0  0  0  0  0  0
    9.4040    1.9567   22.9244 N   0  0  0  0  0  4  0  0  0  0  0  0
   10.4655    2.9607   22.6007 C   0  0  0  0  0  0  0  0  0  0  0  0
   11.7663    2.2176   22.2428 C   0  0  0  0  0  0  0  0  0  0  0  0
   12.9675    3.1478   22.3151 C   0  0  0  0  0  0  0  0  0  0  0  0
   13.0085    3.7227   23.6341 N   0  0  0  0  0  0  0  0  0  0  0  0
   11.8943    4.2704   24.2212 C   0  0  0  0  0  0  0  0  0  0  0  0
   12.0739    5.1847   25.2715 C   0  0  0  0  0  0  0  0  0  0  0  0
   10.9706    5.8009   25.8601 C   0  0  0  0  0  0  0  0  0  0  0  0
    9.6828    5.5106   25.3747 C   0  0  0  0  0  0  0  0  0  0  0  0
    9.5101    4.5826   24.3393 C   0  0  0  0  0  0  0  0  0  0  0  0
   10.6058    3.9097   23.7722 C   0  0  0  0  0  0  0  0  0  0  0  0
    8.5115    4.4150   23.9290 H   0  0  0  0  0  0  0  0  0  0  0  0
    8.8136    6.0082   25.7977 H   0  0  0  0  0  0  0  0  0  0  0  0
   11.1129    6.4972   26.6884 H   0  0  0  0  0  0  0  0  0  0  0  0
   13.0930    5.3808   25.5947 H   0  0  0  0  0  0  0  0  0  0  0  0
   13.8863    4.0048   24.0295 H   0  0  0  0  0  0  0  0  0  0  0  0
   13.9068    2.6050   22.2060 H   0  0  0  0  0  0  0  0  0  0  0  0
   12.9074    3.9123   21.5175 H   0  0  0  0  0  0  0  0  0  0  0  0
   11.8911    1.4163   22.9823 H   0  0  0  0  0  0  0  0  0  0  0  0
   11.6574    1.7688   21.2524 H   0  0  0  0  0  0  0  0  0  0  0  0
   10.1424    3.5453   21.7274 H   0  0  0  0  0  0  0  0  0  0  0  0
    9.7756    1.4432   23.7730 H   0  0  0  0  0  0  0  0  0  0  0  0
    8.5653    2.4836   23.2644 H   0  0  0  0  0  0  0  0  0  0  0  0
    9.8796    0.3333   21.6254 H   0  0  0  0  0  0  0  0  0  0  0  0
    8.8619    1.5736   20.8973 H   0  0  0  0  0  0  0  0  0  0  0  0
    7.4599   -0.6938   20.9785 C   0  0  2  0  0  0  0  0  0  0  0  0
    6.6603   -0.0045   19.8992 C   0  0  0  0  0  0  0  0  0  0  0  0
    5.4327    0.6393   20.1415 C   0  0  0  0  0  0  0  0  0  0  0  0
    4.7986    1.3053   19.0940 C   0  0  0  0  0  0  0  0  0  0  0  0
    5.3982    1.2937   17.8282 C   0  0  0  0  0  0  0  0  0  0  0  0
    6.5563    0.6697   17.5725 N   0  0  0  0  0  0  0  0  0  0  0  0
    7.1596    0.0467   18.5885 C   0  0  0  0  0  0  0  0  0  0  0  0
    8.1093   -0.4331   18.3456 H   0  0  0  0  0  0  0  0  0  0  0  0
    4.9326    1.8109   16.9901 H   0  0  0  0  0  0  0  0  0  0  0  0
    3.8654    1.8467   19.2346 H   0  0  0  0  0  0  0  0  0  0  0  0
    4.9835    0.6451   21.1393 H   0  0  0  0  0  0  0  0  0  0  0  0
    8.3680   -1.1270   20.5342 H   0  0  0  0  0  0  0  0  0  0  0  0
    6.9949    0.8699   22.3924 H   0  0  0  0  0  0  0  0  0  0  0  0
    7.6374   -0.3624   24.2940 H   0  0  0  0  0  0  0  0  0  0  0  0
    9.0429   -1.0567   23.5156 H   0  0  0  0  0  0  0  0  0  0  0  0
    6.3821   -2.3160   23.6671 H   0  0  0  0  0  0  0  0  0  0  0  0
    7.8528   -2.9594   22.9602 H   0  0  0  0  0  0  0  0  0  0  0  0
    5.7125   -1.3949   21.6628 H   0  0  0  0  0  0  0  0  0  0  0  0
    7.6494   -3.4258   20.5890 H   0  0  0  0  0  0  0  0  0  0  0  0
    6.2101   -2.8123   19.7512 H   0  0  0  0  0  0  0  0  0  0  0  0
    6.0402   -3.8581   21.1885 H   0  0  0  0  0  0  0  0  0  0  0  0
  1  2  1  0
  2  3  1  0
  3  4  1  0
  4  5  1  0
  5  6  1  0
  6  7  1  0
  7  8  1  0
  8  9  1  0
  9 10  1  0
 10 11  1  0
 11 12  1  0
 12 13  2  0
 13 14  1  0
 14 15  2  0
 15 16  1  0
 16 17  2  0
 16 18  1  0
 15 19  1  0
 14 20  1  0
 13 21  1  0
 11 22  1  0
 10 23  1  0
 10 24  1  0
  9 25  1  0
  9 26  1  0
  8 27  1  0
  7 28  1  0
  7 29  1  0
  6 30  1  0
  6 31  1  0
  5 32  1  0
 32 33  1  0
 33 34  2  0
 34 35  1  0
 35 36  2  0
 36 37  1  0
 37 38  2  0
 38 39  1  0
 36 40  1  0
 35 41  1  0
 34 42  1  0
 32 43  1  6
  5 44  1  1
  4 45  1  0
  4 46  1  0
  3 47  1  0
  3 48  1  0
  2 49  1  0
  1 50  1  0
  1 51  1  0
  1 52  1  0
 32  2  1  0
 38 33  1  0
 17  8  1  0
 17 12  1  0
M  CHG  2   2   1   7   1
M  END
>  <plip>  (1) 
-0.06666666666666667

>  <filename>  (1) 
[H][c]1[n][c]([H])[c]([C@@]2([H])[C@]([H])([C]([H])([H])[N+]([H])([H])[C]3([H])[c]4[c]([H])[c]([H])[c]([H])[c]([H])[c]4[N]([H])[C]([H])([H])[C]3([H])[H])[C]([H])([H])[C]([H])([H])[N+]2([H])[C]([H])([H])[H])[c]([H])[c]1[H]

$$$$
