
     RDKit          3D

 44 45  0  0  0  0  0  0  0  0999 V2000
    8.8296    2.3994   20.8101 N   0  0  0  0  0  4  0  0  0  0  0  0
    9.2574    1.0424   21.3113 C   0  0  0  0  0  0  0  0  0  0  0  0
    8.0966    0.2736   21.9771 C   0  0  0  0  0  0  0  0  0  0  0  0
    7.3857   -0.7059   21.0102 C   0  0  0  0  0  0  0  0  0  0  0  0
    6.6606    0.0095   19.8940 C   0  0  0  0  0  0  0  0  0  0  0  0
    5.4448    0.6635   20.1491 C   0  0  0  0  0  0  0  0  0  0  0  0
    4.8055    1.3187   19.0944 C   0  0  0  0  0  0  0  0  0  0  0  0
    5.3983    1.3036   17.8254 C   0  0  0  0  0  0  0  0  0  0  0  0
    6.5643    0.6970   17.5636 N   0  0  0  0  0  0  0  0  0  0  0  0
    7.1667    0.0702   18.5830 C   0  0  0  0  0  0  0  0  0  0  0  0
    8.1133   -0.4181   18.3498 H   0  0  0  0  0  0  0  0  0  0  0  0
    4.9140    1.7948   16.9821 H   0  0  0  0  0  0  0  0  0  0  0  0
    3.8712    1.8462   19.2454 H   0  0  0  0  0  0  0  0  0  0  0  0
    5.0116    0.6361   21.1560 H   0  0  0  0  0  0  0  0  0  0  0  0
    8.1335   -1.3956   20.5945 H   0  0  0  0  0  0  0  0  0  0  0  0
    6.6816   -1.3321   21.5882 H   0  0  0  0  0  0  0  0  0  0  0  0
    8.5898   -0.4844   23.2120 C   0  0  0  0  0  0  0  0  0  0  0  0
    7.5159   -0.7983   24.1970 N   0  0  0  0  0  4  0  0  0  0  0  0
    7.1939    0.4063   25.0827 C   0  0  0  0  0  0  0  0  0  0  0  0
    6.1940    0.0515   26.1329 C   0  0  0  0  0  0  0  0  0  0  0  0
    5.9864   -1.1881   26.5833 C   0  0  0  0  0  0  0  0  0  0  0  0
    5.0197   -1.4538   27.7238 C   0  0  0  0  0  0  0  0  0  0  0  0
    5.4473   -0.9570   28.9867 O   0  0  0  0  0  0  0  0  0  0  0  0
    5.3290   -0.0003   28.9911 H   0  0  0  0  0  0  0  0  0  0  0  0
    4.8873   -2.5284   27.8639 H   0  0  0  0  0  0  0  0  0  0  0  0
    4.0348   -1.0391   27.4596 H   0  0  0  0  0  0  0  0  0  0  0  0
    6.6914   -2.3688   25.9423 C   0  0  0  0  0  0  0  0  0  0  0  0
    7.8761   -1.9844   25.0638 C   0  0  0  0  0  0  0  0  0  0  0  0
    8.1793   -2.8270   24.4287 H   0  0  0  0  0  0  0  0  0  0  0  0
    8.7428   -1.7061   25.6747 H   0  0  0  0  0  0  0  0  0  0  0  0
    7.0444   -3.0635   26.7112 H   0  0  0  0  0  0  0  0  0  0  0  0
    5.9662   -2.9288   25.3405 H   0  0  0  0  0  0  0  0  0  0  0  0
    5.6718    0.8944   26.5764 H   0  0  0  0  0  0  0  0  0  0  0  0
    6.8225    1.2393   24.4785 H   0  0  0  0  0  0  0  0  0  0  0  0
    8.1273    0.7528   25.5462 H   0  0  0  0  0  0  0  0  0  0  0  0
    6.6181   -1.0234   23.7053 H   0  0  0  0  0  0  0  0  0  0  0  0
    9.0741   -1.4156   22.8858 H   0  0  0  0  0  0  0  0  0  0  0  0
    9.3639    0.0962   23.7336 H   0  0  0  0  0  0  0  0  0  0  0  0
    7.3532    1.0060   22.3142 H   0  0  0  0  0  0  0  0  0  0  0  0
    9.6371    0.4448   20.4764 H   0  0  0  0  0  0  0  0  0  0  0  0
   10.0888    1.1608   22.0113 H   0  0  0  0  0  0  0  0  0  0  0  0
    8.4865    2.9874   21.5864 H   0  0  0  0  0  0  0  0  0  0  0  0
    8.0398    2.2897   20.1434 H   0  0  0  0  0  0  0  0  0  0  0  0
    9.5856    2.9601   20.3702 H   0  0  0  0  0  0  0  0  0  0  0  0
  1  2  1  0
  2  3  1  0
  3  4  1  0
  4  5  1  0
  5  6  2  0
  6  7  1  0
  7  8  2  0
  8  9  1  0
  9 10  2  0
 10 11  1  0
  8 12  1  0
  7 13  1  0
  6 14  1  0
  4 15  1  0
  4 16  1  0
  3 17  1  0
 17 18  1  0
 18 19  1  0
 19 20  1  0
 20 21  2  0
 21 22  1  0
 22 23  1  0
 23 24  1  0
 22 25  1  0
 22 26  1  0
 21 27  1  0
 27 28  1  0
 28 29  1  0
 28 30  1  0
 27 31  1  0
 27 32  1  0
 20 33  1  0
 19 34  1  0
 19 35  1  0
 18 36  1  0
 17 37  1  0
 17 38  1  0
  3 39  1  0
  2 40  1  0
  2 41  1  0
  1 42  1  0
  1 43  1  0
  1 44  1  0
 10  5  1  0
 28 18  1  0
M  CHG  2   1   1  18   1
M  END
>  <plip>  (1) 
-0.14285714285714285

>  <filename>  (1) 
[H][O][C]([H])([H])[C]1=[C]([H])[C]([H])([H])[N+]([H])([C]([H])([H])[C]([H])([C]([H])([H])[c]2[c]([H])[n][c]([H])[c]([H])[c]2[H])[C]([H])([H])[N+]([H])([H])[H])[C]([H])([H])[C]1([H])[H]

$$$$
