
     RDKit          3D

 33 36  0  0  0  0  0  0  0  0999 V2000
   10.0259    1.8650   23.9910 H   0  0  0  0  0  0  0  0  0  0  0  0
    9.2332    1.5193   23.5650 O   0  0  0  0  0  0  0  0  0  0  0  0
    8.1890    1.6962   24.4067 C   0  0  0  0  0  0  0  0  0  0  0  0
    8.3562    2.2936   25.6614 C   0  0  0  0  0  0  0  0  0  0  0  0
    9.3346    2.6426   25.9813 H   0  0  0  0  0  0  0  0  0  0  0  0
    7.2561    2.4227   26.5183 C   0  0  0  0  0  0  0  0  0  0  0  0
    7.4511    3.2354   28.0429 Cl  0  0  0  0  0  0  0  0  0  0  0  0
    6.0018    1.9178   26.1687 C   0  0  0  0  0  0  0  0  0  0  0  0
    5.1662    1.9982   26.8587 H   0  0  0  0  0  0  0  0  0  0  0  0
    5.8362    1.3137   24.9176 C   0  0  0  0  0  0  0  0  0  0  0  0
    4.8837    0.8876   24.6011 H   0  0  0  0  0  0  0  0  0  0  0  0
    6.9076    1.2247   24.0359 C   0  0  0  0  0  0  0  0  0  0  0  0
    6.6172    0.6888   22.7869 O   0  0  0  0  0  0  0  0  0  0  0  0
    7.2952   -0.3375   22.2554 C   0  0  0  0  0  0  0  0  0  0  0  0
    7.3786   -0.6848   20.9286 C   0  0  0  0  0  0  0  0  0  0  0  0
    6.6590   -0.0316   19.8389 C   0  0  0  0  0  0  0  0  0  0  0  0
    7.1957   -0.0615   18.5410 C   0  0  0  0  0  0  0  0  0  0  0  0
    8.1198   -0.6034   18.3480 H   0  0  0  0  0  0  0  0  0  0  0  0
    6.6385    0.5676   17.5026 N   0  0  0  0  0  0  0  0  0  0  0  0
    5.4961    1.2368   17.7186 C   0  0  0  0  0  0  0  0  0  0  0  0
    5.0603    1.7337   16.8560 H   0  0  0  0  0  0  0  0  0  0  0  0
    4.8650    1.3113   18.9658 C   0  0  0  0  0  0  0  0  0  0  0  0
    3.9460    1.8775   19.0802 H   0  0  0  0  0  0  0  0  0  0  0  0
    5.4580    0.6800   20.0508 C   0  0  0  0  0  0  0  0  0  0  0  0
    5.0224    0.7516   21.0476 H   0  0  0  0  0  0  0  0  0  0  0  0
    8.2945   -1.7157   20.7554 N   0  0  0  0  0  0  0  0  0  0  0  0
    8.6811   -1.9955   21.9709 C   0  0  0  0  0  0  0  0  0  0  0  0
    9.8245   -3.0719   22.7383 S   0  0  0  0  0  0  0  0  0  0  0  0
    9.3022   -2.5436   24.3221 C   0  0  0  0  0  0  0  0  0  0  0  0
    9.7251   -3.0021   25.2022 H   0  0  0  0  0  0  0  0  0  0  0  0
    8.3613   -1.5899   24.2613 C   0  0  0  0  0  0  0  0  0  0  0  0
    7.8170   -1.1325   25.0780 H   0  0  0  0  0  0  0  0  0  0  0  0
    8.0671   -1.2308   22.9466 N   0  0  0  0  0  0  0  0  0  0  0  0
  1  2  1  0
  2  3  1  0
  3  4  2  0
  4  5  1  0
  4  6  1  0
  6  7  1  0
  6  8  2  0
  8  9  1  0
  8 10  1  0
 10 11  1  0
 10 12  2  0
 12 13  1  0
 13 14  1  0
 14 15  2  0
 15 16  1  0
 16 17  2  0
 17 18  1  0
 17 19  1  0
 19 20  2  0
 20 21  1  0
 20 22  1  0
 22 23  1  0
 22 24  2  0
 24 25  1  0
 15 26  1  0
 26 27  2  0
 27 28  1  0
 28 29  1  0
 29 30  1  0
 29 31  2  0
 31 32  1  0
 31 33  1  0
 12  3  1  0
 33 14  1  0
 24 16  1  0
 33 27  1  0
M  END
>  <plip>  (1) 
-0.10344827586206896

>  <filename>  (1) 
[H][O][c]1[c]([H])[c]([Cl])[c]([H])[c]([H])[c]1[O][c]1[c](-[c]2[c]([H])[n][c]([H])[c]([H])[c]2[H])[n][c]2[s][c]([H])[c]([H])[n]12

$$$$
