
     RDKit          3D

 27 28  0  0  0  0  0  0  0  0999 V2000
    7.4179    2.4529   22.0498 O   0  0  0  0  0  0  0  0  0  0  0  0
    8.8065    2.1882   22.0932 C   0  0  0  0  0  0  0  0  0  0  0  0
    9.2219    1.0527   21.1540 C   0  0  0  0  0  0  0  0  0  0  0  0
    8.5907   -0.2696   21.5177 C   0  0  0  0  0  0  0  0  0  0  0  0
    9.1694   -1.0300   22.5287 C   0  0  0  0  0  0  0  0  0  0  0  0
    8.5234   -2.2006   22.9192 C   0  0  0  0  0  0  0  0  0  0  0  0
    9.0885   -2.9322   23.8801 F   0  0  0  0  0  0  0  0  0  0  0  0
    7.3972   -2.6649   22.4261 N   0  0  0  0  0  0  0  0  0  0  0  0
    6.8292   -1.9077   21.4784 C   0  0  0  0  0  0  0  0  0  0  0  0
    7.3684   -0.7228   20.9706 C   0  0  0  0  0  0  0  0  0  0  0  0
    6.6588    0.0148   19.8915 C   0  0  0  0  0  0  0  0  0  0  0  0
    5.4366    0.6453   20.1492 C   0  0  0  0  0  0  0  0  0  0  0  0
    4.8021    1.3132   19.0992 C   0  0  0  0  0  0  0  0  0  0  0  0
    5.3938    1.2974   17.8307 C   0  0  0  0  0  0  0  0  0  0  0  0
    6.5554    0.6819   17.5592 N   0  0  0  0  0  0  0  0  0  0  0  0
    7.1684    0.0705   18.5818 C   0  0  0  0  0  0  0  0  0  0  0  0
    8.1153   -0.4247   18.3633 H   0  0  0  0  0  0  0  0  0  0  0  0
    4.9092    1.7882   16.9907 H   0  0  0  0  0  0  0  0  0  0  0  0
    3.8722    1.8453   19.2540 H   0  0  0  0  0  0  0  0  0  0  0  0
    5.0262    0.6353   21.1647 H   0  0  0  0  0  0  0  0  0  0  0  0
    5.8986   -2.2831   21.0569 H   0  0  0  0  0  0  0  0  0  0  0  0
   10.0884   -0.7237   23.0160 H   0  0  0  0  0  0  0  0  0  0  0  0
   10.3135    0.9539   21.1690 H   0  0  0  0  0  0  0  0  0  0  0  0
    8.9277    1.3146   20.1399 H   0  0  0  0  0  0  0  0  0  0  0  0
    9.0283    1.9033   23.1268 H   0  0  0  0  0  0  0  0  0  0  0  0
    9.3881    3.0962   21.8678 H   0  0  0  0  0  0  0  0  0  0  0  0
    7.2234    2.8704   21.2015 H   0  0  0  0  0  0  0  0  0  0  0  0
  1  2  1  0
  2  3  1  0
  3  4  1  0
  4  5  2  0
  5  6  1  0
  6  7  1  0
  6  8  2  0
  8  9  1  0
  9 10  2  0
 10 11  1  0
 11 12  2  0
 12 13  1  0
 13 14  2  0
 14 15  1  0
 15 16  2  0
 16 17  1  0
 14 18  1  0
 13 19  1  0
 12 20  1  0
  9 21  1  0
  5 22  1  0
  3 23  1  0
  3 24  1  0
  2 25  1  0
  2 26  1  0
  1 27  1  0
 10  4  1  0
 16 11  1  0
M  END
>  <plip>  (1) 
-0.07142857142857142

>  <filename>  (1) 
[H][O][C]([H])([H])[C]([H])([H])[c]1[c]([H])[c]([F])[n][c]([H])[c]1-[c]1[c]([H])[n][c]([H])[c]([H])[c]1[H]

$$$$
