
     RDKit          3D

 28 30  0  0  0  0  0  0  0  0999 V2000
    4.9179    1.8153   16.9727 H   0  0  0  0  0  0  0  0  0  0  0  0
    5.3811    1.3086   17.8143 C   0  0  0  0  0  0  0  0  0  0  0  0
    6.5368    0.6808   17.5545 N   0  0  0  0  0  0  0  0  0  0  0  0
    7.1520    0.0812   18.5808 C   0  0  0  0  0  0  0  0  0  0  0  0
    8.0910   -0.4130   18.3392 H   0  0  0  0  0  0  0  0  0  0  0  0
    6.6646    0.0647   19.9039 C   0  0  0  0  0  0  0  0  0  0  0  0
    7.4044   -0.6771   20.9425 C   0  0  0  0  0  0  0  0  0  0  0  0
    7.7352   -1.9725   20.9802 C   0  0  0  0  0  0  0  0  0  0  0  0
    7.4422   -2.8008   20.3596 H   0  0  0  0  0  0  0  0  0  0  0  0
    8.4275   -2.2713   22.1226 O   0  0  0  0  0  0  0  0  0  0  0  0
    8.5068   -1.1357   22.8782 C   0  0  0  0  0  0  0  0  0  0  0  0
    8.9701   -1.0696   23.9885 O   0  0  0  0  0  0  0  0  0  0  0  0
    7.9177   -0.1253   22.1303 N   0  0  0  0  0  0  0  0  0  0  0  0
    7.5591    1.1706   22.7068 C   0  0  0  0  0  0  0  0  0  0  0  0
    7.4352    1.8912   21.8952 H   0  0  0  0  0  0  0  0  0  0  0  0
    8.3929    1.5307   23.3207 H   0  0  0  0  0  0  0  0  0  0  0  0
    6.2868    1.2089   23.5325 C   0  0  0  0  0  0  0  0  0  0  0  0
    5.3809    2.2384   23.4209 N   0  0  0  0  0  0  0  0  0  0  0  0
    4.4523    2.0054   24.3142 C   0  0  0  0  0  0  0  0  0  0  0  0
    3.5891    2.6337   24.5115 H   0  0  0  0  0  0  0  0  0  0  0  0
    4.7032    0.8567   24.9932 N   0  0  0  0  0  0  0  0  0  0  0  0
    4.1195    0.4710   25.7160 H   0  0  0  0  0  0  0  0  0  0  0  0
    5.8783    0.3353   24.4988 C   0  0  0  0  0  0  0  0  0  0  0  0
    6.3306   -0.5852   24.8412 H   0  0  0  0  0  0  0  0  0  0  0  0
    5.4382    0.7158   20.1410 C   0  0  0  0  0  0  0  0  0  0  0  0
    5.0133    0.7198   21.1458 H   0  0  0  0  0  0  0  0  0  0  0  0
    4.7832    1.3394   19.0776 C   0  0  0  0  0  0  0  0  0  0  0  0
    3.8411    1.8620   19.2113 H   0  0  0  0  0  0  0  0  0  0  0  0
  1  2  1  0
  2  3  2  0
  3  4  1  0
  4  5  1  0
  4  6  2  0
  6  7  1  0
  7  8  2  0
  8  9  1  0
  8 10  1  0
 10 11  1  0
 11 12  2  0
 11 13  1  0
 13 14  1  0
 14 15  1  0
 14 16  1  0
 14 17  1  0
 17 18  1  0
 18 19  2  0
 19 20  1  0
 19 21  1  0
 21 22  1  0
 21 23  1  0
 23 24  1  0
  6 25  1  0
 25 26  1  0
 25 27  2  0
 27 28  1  0
 27  2  1  0
 13  7  1  0
 23 17  2  0
M  END
>  <plip>  (1) 
-0.07142857142857142

>  <filename>  (1) 
[H][c]1[n][c]([H])[c](-[c]2[c]([H])[o][c](=[O])[n]2[C]([H])([H])[c]2[n][c]([H])[n]([H])[c]2[H])[c]([H])[c]1[H]

$$$$
