
     RDKit          3D

 30 31  0  0  0  0  0  0  0  0999 V2000
   10.2536    1.8508   24.5888 C   0  0  0  0  0  0  0  0  0  0  0  0
   10.4781    0.9061   23.4363 C   0  0  0  0  0  0  0  0  0  0  0  0
   10.9315   -0.3418   23.5803 C   0  0  0  0  0  0  0  0  0  0  0  0
   11.1386   -1.3151   22.4506 C   0  0  0  0  0  0  0  0  0  0  0  0
    9.9934   -2.3226   22.2494 C   0  0  0  0  0  0  0  0  0  0  0  0
    8.6871   -1.7285   22.0293 N   0  0  0  0  0  0  0  0  0  0  0  0
    8.3489   -1.2761   20.7764 N   0  0  0  0  0  0  0  0  0  0  0  0
    7.2667   -0.6045   20.9733 C   0  0  0  0  0  0  0  0  0  0  0  0
    6.5224    0.0874   19.9296 C   0  0  0  0  0  0  0  0  0  0  0  0
    5.2928    0.7532   20.0930 C   0  0  0  0  0  0  0  0  0  0  0  0
    4.7530    1.3860   18.9722 C   0  0  0  0  0  0  0  0  0  0  0  0
    5.4417    1.3169   17.7530 C   0  0  0  0  0  0  0  0  0  0  0  0
    6.5925    0.6495   17.5826 N   0  0  0  0  0  0  0  0  0  0  0  0
    7.1081    0.0503   18.6550 C   0  0  0  0  0  0  0  0  0  0  0  0
    8.0293   -0.5088   18.5066 H   0  0  0  0  0  0  0  0  0  0  0  0
    5.0489    1.8133   16.8689 H   0  0  0  0  0  0  0  0  0  0  0  0
    3.8187    1.9397   19.0250 H   0  0  0  0  0  0  0  0  0  0  0  0
    4.7703    0.7649   21.0532 H   0  0  0  0  0  0  0  0  0  0  0  0
    6.8821   -0.5466   22.2631 O   0  0  0  0  0  0  0  0  0  0  0  0
    7.8228   -1.2623   22.9838 C   0  0  0  0  0  0  0  0  0  0  0  0
    7.8341   -1.3975   24.1771 O   0  0  0  0  0  0  0  0  0  0  0  0
   10.1864   -2.9028   21.3475 H   0  0  0  0  0  0  0  0  0  0  0  0
    9.9124   -3.0065   23.0962 H   0  0  0  0  0  0  0  0  0  0  0  0
   11.2859   -0.7840   21.5025 H   0  0  0  0  0  0  0  0  0  0  0  0
   12.0360   -1.9216   22.6271 H   0  0  0  0  0  0  0  0  0  0  0  0
   11.1086   -0.7110   24.5928 H   0  0  0  0  0  0  0  0  0  0  0  0
   10.2986    1.3031   22.4331 H   0  0  0  0  0  0  0  0  0  0  0  0
    9.6471    2.7094   24.2924 H   0  0  0  0  0  0  0  0  0  0  0  0
    9.7480    1.3514   25.4240 H   0  0  0  0  0  0  0  0  0  0  0  0
   11.2046    2.2297   24.9846 H   0  0  0  0  0  0  0  0  0  0  0  0
  1  2  1  0
  2  3  2  3
  3  4  1  0
  4  5  1  0
  5  6  1  0
  6  7  1  0
  7  8  2  0
  8  9  1  0
  9 10  2  0
 10 11  1  0
 11 12  2  0
 12 13  1  0
 13 14  2  0
 14 15  1  0
 12 16  1  0
 11 17  1  0
 10 18  1  0
  8 19  1  0
 19 20  1  0
 20 21  2  0
  5 22  1  0
  5 23  1  0
  4 24  1  0
  4 25  1  0
  3 26  1  0
  2 27  1  0
  1 28  1  0
  1 29  1  0
  1 30  1  0
 20  6  1  0
 14  9  1  0
M  END
>  <plip>  (1) 
-0.07142857142857142

>  <filename>  (1) 
[H][C](=[C]([H])[C]([H])([H])[C]([H])([H])[n]1[n][c](-[c]2[c]([H])[n][c]([H])[c]([H])[c]2[H])[o][c]1=[O])[C]([H])([H])[H]

$$$$
