
     RDKit          3D

 47 50  0  0  0  0  0  0  0  0999 V2000
    5.2062   -2.3956   21.5898 O   0  0  0  0  0  0  0  0  0  0  0  0
    6.2242   -2.9782   21.2919 C   0  0  0  0  0  0  0  0  0  0  0  0
    6.3119   -4.3617   21.3284 N   0  0  0  0  0  0  0  0  0  0  0  0
    5.5576   -4.9771   22.4382 C   0  0  0  0  0  0  0  0  0  0  0  0
    6.1256   -4.5744   23.7865 C   0  0  0  0  0  0  0  0  0  0  0  0
    7.3629   -4.9163   24.2217 C   0  0  0  0  0  0  0  0  0  0  0  0
    8.4860   -6.0270   23.5643 Cl  0  0  0  0  0  0  0  0  0  0  0  0
    7.7538   -4.2751   25.3565 O   0  0  0  0  0  0  0  0  0  0  0  0
    6.7157   -3.4487   25.6894 C   0  0  0  0  0  0  0  0  0  0  0  0
    6.6856   -2.5545   26.7681 C   0  0  0  0  0  0  0  0  0  0  0  0
    5.5271   -1.7898   26.9139 C   0  0  0  0  0  0  0  0  0  0  0  0
    4.4319   -1.9460   26.0339 C   0  0  0  0  0  0  0  0  0  0  0  0
    4.4894   -2.8432   24.9663 C   0  0  0  0  0  0  0  0  0  0  0  0
    5.6649   -3.5953   24.7681 C   0  0  0  0  0  0  0  0  0  0  0  0
    3.6305   -2.9705   24.3131 H   0  0  0  0  0  0  0  0  0  0  0  0
    3.5445   -1.3306   26.1704 H   0  0  0  0  0  0  0  0  0  0  0  0
    5.4593   -1.0721   27.7319 H   0  0  0  0  0  0  0  0  0  0  0  0
    7.5300   -2.4744   27.4474 H   0  0  0  0  0  0  0  0  0  0  0  0
    4.5120   -4.6606   22.3458 H   0  0  0  0  0  0  0  0  0  0  0  0
    5.5907   -6.0684   22.3139 H   0  0  0  0  0  0  0  0  0  0  0  0
    7.2948   -4.5895   21.3527 H   0  0  0  0  0  0  0  0  0  0  0  0
    7.4341   -2.4162   20.9102 N   0  0  0  0  0  0  0  0  0  0  0  0
    7.6268   -0.9625   20.9678 C   0  0  0  0  0  0  0  0  0  0  0  0
    6.8510   -0.2696   19.8589 C   0  0  0  0  0  0  0  0  0  0  0  0
    5.6278    0.3895   20.0495 C   0  0  0  0  0  0  0  0  0  0  0  0
    5.0546    1.0769   18.9787 C   0  0  0  0  0  0  0  0  0  0  0  0
    5.6909    1.0405   17.7360 C   0  0  0  0  0  0  0  0  0  0  0  0
    6.8289    0.3657   17.5159 N   0  0  0  0  0  0  0  0  0  0  0  0
    7.3800   -0.2731   18.5557 C   0  0  0  0  0  0  0  0  0  0  0  0
    8.3120   -0.8006   18.3360 H   0  0  0  0  0  0  0  0  0  0  0  0
    5.2782    1.5776   16.8828 H   0  0  0  0  0  0  0  0  0  0  0  0
    4.1402    1.6440   19.1014 H   0  0  0  0  0  0  0  0  0  0  0  0
    5.1231    0.3536   21.0163 H   0  0  0  0  0  0  0  0  0  0  0  0
    7.3599   -0.3984   22.3888 C   0  0  0  0  0  0  0  0  0  0  0  0
    8.2306   -1.0632   23.4726 C   0  0  0  0  0  0  0  0  0  0  0  0
    9.5207   -0.2210   23.4673 C   0  0  0  0  0  0  0  0  0  0  0  0
    9.2303    0.9568   22.7291 O   0  0  0  0  0  0  0  0  0  0  0  0
    7.8304    1.0534   22.5487 C   0  0  0  0  0  0  0  0  0  0  0  0
    7.3512    1.5184   23.4272 H   0  0  0  0  0  0  0  0  0  0  0  0
    7.6570    1.7067   21.6877 H   0  0  0  0  0  0  0  0  0  0  0  0
   10.3440   -0.7412   22.9624 H   0  0  0  0  0  0  0  0  0  0  0  0
    9.8574    0.0346   24.4825 H   0  0  0  0  0  0  0  0  0  0  0  0
    7.7191   -0.9943   24.4402 H   0  0  0  0  0  0  0  0  0  0  0  0
    8.4313   -2.1174   23.2676 H   0  0  0  0  0  0  0  0  0  0  0  0
    6.2967   -0.5073   22.6060 H   0  0  0  0  0  0  0  0  0  0  0  0
    8.6989   -0.8081   20.7703 H   0  0  0  0  0  0  0  0  0  0  0  0
    7.6790   -2.8154   20.0224 H   0  0  0  0  0  0  0  0  0  0  0  0
  1  2  2  0
  2  3  1  0
  3  4  1  0
  4  5  1  0
  5  6  2  0
  6  7  1  0
  6  8  1  0
  8  9  1  0
  9 10  2  0
 10 11  1  0
 11 12  2  0
 12 13  1  0
 13 14  2  0
 13 15  1  0
 12 16  1  0
 11 17  1  0
 10 18  1  0
  4 19  1  0
  4 20  1  0
  3 21  1  0
  2 22  1  0
 22 23  1  0
 23 24  1  0
 24 25  2  0
 25 26  1  0
 26 27  2  0
 27 28  1  0
 28 29  2  0
 29 30  1  0
 27 31  1  0
 26 32  1  0
 25 33  1  0
 23 34  1  0
 34 35  1  0
 35 36  1  0
 36 37  1  0
 37 38  1  0
 38 39  1  0
 38 40  1  0
 36 41  1  0
 36 42  1  0
 35 43  1  0
 35 44  1  0
 34 45  1  0
 23 46  1  0
 22 47  1  0
 14  5  1  0
 29 24  1  0
 38 34  1  0
 14  9  1  0
M  END
>  <plip>  (1) 
-0.06451612903225806

>  <filename>  (1) 
[H][c]1[n][c]([H])[c]([C]([H])([N]([H])[C](=[O])[N]([H])[C]([H])([H])[c]2[c]([Cl])[o][c]3[c]([H])[c]([H])[c]([H])[c]([H])[c]23)[C]2([H])[C]([H])([H])[O][C]([H])([H])[C]2([H])[H])[c]([H])[c]1[H]

$$$$
