
     RDKit          3D

 26 27  0  0  0  0  0  0  0  0999 V2000
    4.9767    1.7892   16.9289 H   0  0  0  0  0  0  0  0  0  0  0  0
    5.4190    1.3265   17.8144 C   0  0  0  0  0  0  0  0  0  0  0  0
    6.5937    0.6965   17.6368 N   0  0  0  0  0  0  0  0  0  0  0  0
    7.1306    0.0867   18.7045 C   0  0  0  0  0  0  0  0  0  0  0  0
    8.0864   -0.4110   18.5333 H   0  0  0  0  0  0  0  0  0  0  0  0
    6.5605    0.0678   19.9945 C   0  0  0  0  0  0  0  0  0  0  0  0
    7.2120   -0.6833   21.0980 C   0  0  0  0  0  0  0  0  0  0  0  0
    7.6693   -1.9790   21.0970 C   0  0  0  0  0  0  0  0  0  0  0  0
    7.4291   -2.7013   20.3340 H   0  0  0  0  0  0  0  0  0  0  0  0
    8.3887   -2.2023   22.3030 C   0  0  0  0  0  0  0  0  0  0  0  0
    8.9442   -3.0945   22.5599 H   0  0  0  0  0  0  0  0  0  0  0  0
    8.3007   -1.0508   23.0405 C   0  0  0  0  0  0  0  0  0  0  0  0
    8.6547   -0.8013   24.0332 H   0  0  0  0  0  0  0  0  0  0  0  0
    7.5715   -0.1243   22.3233 N   0  0  0  0  0  0  0  0  0  0  0  0
    7.2592    1.4569   22.9031 S   0  0  0  0  0  0  0  0  0  0  0  0
    8.6984    2.3138   22.1897 C   0  0  0  0  0  0  0  0  0  0  0  0
    8.7475    1.9574   21.1547 H   0  0  0  0  0  0  0  0  0  0  0  0
    8.4463    3.3812   22.1701 H   0  0  0  0  0  0  0  0  0  0  0  0
   10.0127    2.0744   22.9323 C   0  0  0  0  0  0  0  0  0  0  0  0
   10.2728    1.0093   22.9108 H   0  0  0  0  0  0  0  0  0  0  0  0
   10.8231    2.6348   22.4469 H   0  0  0  0  0  0  0  0  0  0  0  0
    9.9415    2.3830   23.9827 H   0  0  0  0  0  0  0  0  0  0  0  0
    5.3497    0.7581   20.1617 C   0  0  0  0  0  0  0  0  0  0  0  0
    4.8881    0.8015   21.1487 H   0  0  0  0  0  0  0  0  0  0  0  0
    4.7683    1.3766   19.0522 C   0  0  0  0  0  0  0  0  0  0  0  0
    3.8150    1.8852   19.1280 H   0  0  0  0  0  0  0  0  0  0  0  0
  1  2  1  0
  2  3  2  0
  3  4  1  0
  4  5  1  0
  4  6  2  0
  6  7  1  0
  7  8  2  0
  8  9  1  0
  8 10  1  0
 10 11  1  0
 10 12  2  0
 12 13  1  0
 12 14  1  0
 14 15  1  0
 15 16  1  0
 16 17  1  0
 16 18  1  0
 16 19  1  0
 19 20  1  0
 19 21  1  0
 19 22  1  0
  6 23  1  0
 23 24  1  0
 23 25  2  0
 25 26  1  0
 25  2  1  0
 14  7  1  0
M  END
>  <plip>  (1) 
-0.03571428571428571

>  <filename>  (1) 
[H][c]1[n][c]([H])[c](-[c]2[c]([H])[c]([H])[c]([H])[n]2[S][C]([H])([H])[C]([H])([H])[H])[c]([H])[c]1[H]

$$$$
