
     RDKit          3D

 38 39  0  0  0  0  0  0  0  0999 V2000
    8.2296   -0.1941   23.0815 O   0  0  0  0  0  0  0  0  0  0  0  0
    8.3658   -0.1212   21.8799 C   0  0  0  0  0  0  0  0  0  0  0  0
    7.4945   -0.9034   20.8823 C   0  0  0  0  0  0  0  0  0  0  0  0
    6.7959   -0.1047   19.7857 C   0  0  0  0  0  0  0  0  0  0  0  0
    5.6795    0.6836   20.0946 C   0  0  0  0  0  0  0  0  0  0  0  0
    5.0361    1.3731   19.0627 C   0  0  0  0  0  0  0  0  0  0  0  0
    5.5242    1.2529   17.7586 C   0  0  0  0  0  0  0  0  0  0  0  0
    6.5947    0.5115   17.4381 N   0  0  0  0  0  0  0  0  0  0  0  0
    7.2064   -0.1368   18.4377 C   0  0  0  0  0  0  0  0  0  0  0  0
    8.0854   -0.7149   18.1542 H   0  0  0  0  0  0  0  0  0  0  0  0
    5.0330    1.7705   16.9360 H   0  0  0  0  0  0  0  0  0  0  0  0
    4.1744    2.0002   19.2568 H   0  0  0  0  0  0  0  0  0  0  0  0
    5.3307    0.7383   21.1286 H   0  0  0  0  0  0  0  0  0  0  0  0
    6.7591   -1.4240   21.5057 H   0  0  0  0  0  0  0  0  0  0  0  0
    8.1276   -1.6729   20.4233 H   0  0  0  0  0  0  0  0  0  0  0  0
    9.3667    0.6051   21.2482 N   0  0  0  0  0  0  0  0  0  0  0  0
   10.0640    1.6996   21.8032 N   0  0  0  0  0  0  0  0  0  0  0  0
    9.4257    2.9341   22.0538 C   0  0  0  0  0  0  0  0  0  0  0  0
    8.3011    3.2248   21.7108 O   0  0  0  0  0  0  0  0  0  0  0  0
   10.2848    3.7626   22.7633 N   0  0  0  0  0  0  0  0  0  0  0  0
    9.8600    5.1612   22.9584 C   0  0  2  0  0  0  0  0  0  0  0  0
   11.0610    6.0936   23.1889 C   0  0  0  0  0  0  0  0  0  0  0  0
   11.5792    6.1169   24.6143 C   0  0  0  0  0  0  0  0  0  0  0  0
   10.8821    5.6255   25.6433 C   0  0  0  0  0  0  0  0  0  0  0  0
    9.5411    4.9359   25.4812 C   0  0  0  0  0  0  0  0  0  0  0  0
    8.8772    5.2733   24.1360 C   0  0  0  0  0  0  0  0  0  0  0  0
    8.5090    6.3106   24.1677 H   0  0  0  0  0  0  0  0  0  0  0  0
    8.0204    4.6202   23.9399 H   0  0  0  0  0  0  0  0  0  0  0  0
    9.6735    3.8467   25.5491 H   0  0  0  0  0  0  0  0  0  0  0  0
    8.8719    5.2128   26.3050 H   0  0  0  0  0  0  0  0  0  0  0  0
   11.2838    5.7166   26.6529 H   0  0  0  0  0  0  0  0  0  0  0  0
   12.5583    6.5650   24.7847 H   0  0  0  0  0  0  0  0  0  0  0  0
   11.8721    5.8721   22.4786 H   0  0  0  0  0  0  0  0  0  0  0  0
   10.7041    7.1043   22.9484 H   0  0  0  0  0  0  0  0  0  0  0  0
    9.3233    5.5056   22.0638 H   0  0  0  0  0  0  0  0  0  0  0  0
   11.2423    3.6596   22.4596 H   0  0  0  0  0  0  0  0  0  0  0  0
   10.6153    1.4590   22.6165 H   0  0  0  0  0  0  0  0  0  0  0  0
    9.2032    0.7092   20.2582 H   0  0  0  0  0  0  0  0  0  0  0  0
  1  2  2  0
  2  3  1  0
  3  4  1  0
  4  5  2  0
  5  6  1  0
  6  7  2  0
  7  8  1  0
  8  9  2  0
  9 10  1  0
  7 11  1  0
  6 12  1  0
  5 13  1  0
  3 14  1  0
  3 15  1  0
  2 16  1  0
 16 17  1  0
 17 18  1  0
 18 19  2  0
 18 20  1  0
 20 21  1  0
 21 22  1  0
 22 23  1  0
 23 24  2  0
 24 25  1  0
 25 26  1  0
 26 27  1  0
 26 28  1  0
 25 29  1  0
 25 30  1  0
 24 31  1  0
 23 32  1  0
 22 33  1  0
 22 34  1  0
 21 35  1  6
 20 36  1  0
 17 37  1  0
 16 38  1  0
  9  4  1  0
 26 21  1  0
M  END
>  <plip>  (1) 
-0.1724137931034483

>  <filename>  (1) 
[H][C]1=[C]([H])[C]([H])([H])[C@@]([H])([N]([H])[C](=[O])[N]([H])[N]([H])[C](=[O])[C]([H])([H])[c]2[c]([H])[n][c]([H])[c]([H])[c]2[H])[C]([H])([H])[C]1([H])[H]

$$$$
