
     RDKit          3D

 33 34  0  0  0  0  0  0  0  0999 V2000
    7.3134    0.7502   22.5120 O   0  0  0  0  0  0  0  0  0  0  0  0
    7.9519    0.2612   21.5923 C   0  0  0  0  0  0  0  0  0  0  0  0
    7.3639   -0.7638   20.6282 C   0  0  0  0  0  0  0  0  0  0  0  0
    6.6499   -0.0835   19.4756 C   0  0  0  0  0  0  0  0  0  0  0  0
    5.6099    0.8092   19.7631 C   0  0  0  0  0  0  0  0  0  0  0  0
    4.9958    1.4862   18.7118 C   0  0  0  0  0  0  0  0  0  0  0  0
    5.4570    1.2568   17.4112 C   0  0  0  0  0  0  0  0  0  0  0  0
    6.4658    0.4267   17.1173 N   0  0  0  0  0  0  0  0  0  0  0  0
    7.0393   -0.2304   18.1337 C   0  0  0  0  0  0  0  0  0  0  0  0
    7.8663   -0.8960   17.8762 H   0  0  0  0  0  0  0  0  0  0  0  0
    4.9981    1.7631   16.5652 H   0  0  0  0  0  0  0  0  0  0  0  0
    4.1947    2.1960   18.8830 H   0  0  0  0  0  0  0  0  0  0  0  0
    5.3290    0.9772   20.8053 H   0  0  0  0  0  0  0  0  0  0  0  0
    6.6825   -1.3602   21.2413 H   0  0  0  0  0  0  0  0  0  0  0  0
    8.1526   -1.4329   20.2687 H   0  0  0  0  0  0  0  0  0  0  0  0
    9.2374    0.5893   21.3158 N   0  0  0  0  0  0  0  0  0  0  0  0
   10.0351    1.3570   22.2494 C   0  0  0  0  0  0  0  0  0  0  0  0
   10.0910    0.6354   23.6110 C   0  0  0  0  0  0  0  0  0  0  0  0
   10.8197    1.4661   24.6723 C   0  0  0  0  0  0  0  0  0  0  0  0
   12.1353    1.8938   24.1976 N   0  0  0  0  0  0  0  0  0  0  0  0
   13.1511    1.1098   23.7557 C   0  0  0  0  0  0  0  0  0  0  0  0
   13.9722    1.9773   23.0876 C   0  0  0  0  0  0  0  0  0  0  0  0
   13.4362    3.2265   23.1603 N   0  0  0  0  0  0  0  0  0  0  0  0
   12.3173    3.1608   23.8036 N   0  0  0  0  0  0  0  0  0  0  0  0
   14.9227    1.8025   22.6023 H   0  0  0  0  0  0  0  0  0  0  0  0
   13.1841    0.0468   23.9533 H   0  0  0  0  0  0  0  0  0  0  0  0
   10.9464    0.9148   25.6085 H   0  0  0  0  0  0  0  0  0  0  0  0
   10.2598    2.3792   24.8940 H   0  0  0  0  0  0  0  0  0  0  0  0
   10.6080   -0.3207   23.4692 H   0  0  0  0  0  0  0  0  0  0  0  0
    9.0771    0.3885   23.9413 H   0  0  0  0  0  0  0  0  0  0  0  0
   11.0410    1.4629   21.8244 H   0  0  0  0  0  0  0  0  0  0  0  0
    9.6001    2.3627   22.3781 H   0  0  0  0  0  0  0  0  0  0  0  0
    9.5829    0.3445   20.4051 H   0  0  0  0  0  0  0  0  0  0  0  0
  1  2  2  0
  2  3  1  0
  3  4  1  0
  4  5  2  0
  5  6  1  0
  6  7  2  0
  7  8  1  0
  8  9  2  0
  9 10  1  0
  7 11  1  0
  6 12  1  0
  5 13  1  0
  3 14  1  0
  3 15  1  0
  2 16  1  0
 16 17  1  0
 17 18  1  0
 18 19  1  0
 19 20  1  0
 20 21  1  0
 21 22  2  0
 22 23  1  0
 23 24  2  0
 22 25  1  0
 21 26  1  0
 19 27  1  0
 19 28  1  0
 18 29  1  0
 18 30  1  0
 17 31  1  0
 17 32  1  0
 16 33  1  0
  9  4  1  0
 24 20  1  0
M  END
>  <plip>  (1) 
-0.06451612903225806

>  <filename>  (1) 
[H][c]1[n][c]([H])[c]([C]([H])([H])[C](=[O])[N]([H])[C]([H])([H])[C]([H])([H])[C]([H])([H])[n]2[n][n][c]([H])[c]2[H])[c]([H])[c]1[H]

$$$$
