
     RDKit          3D

 34 35  0  0  0  0  0  0  0  0999 V2000
    4.9770    1.8033   16.9368 H   0  0  0  0  0  0  0  0  0  0  0  0
    5.4279    1.2915   17.7858 C   0  0  0  0  0  0  0  0  0  0  0  0
    6.5915    0.6588   17.5694 N   0  0  0  0  0  0  0  0  0  0  0  0
    7.1740    0.0407   18.6101 C   0  0  0  0  0  0  0  0  0  0  0  0
    8.1192   -0.4506   18.3866 H   0  0  0  0  0  0  0  0  0  0  0  0
    6.6400   -0.0065   19.9325 C   0  0  0  0  0  0  0  0  0  0  0  0
    7.2597   -0.5905   21.0745 N   0  0  0  0  0  0  0  0  0  0  0  0
    8.6985   -0.4230   21.2004 C   0  0  0  0  0  0  0  0  0  0  0  0
    9.0163   -0.6059   22.2329 H   0  0  0  0  0  0  0  0  0  0  0  0
    9.2913   -1.0632   20.5249 H   0  0  0  0  0  0  0  0  0  0  0  0
    8.9585    0.6168   20.9604 H   0  0  0  0  0  0  0  0  0  0  0  0
    6.5903   -1.7286   21.7500 C   0  0  2  0  0  0  0  0  0  0  0  0
    5.5188   -1.6022   21.5422 H   0  0  0  0  0  0  0  0  0  0  0  0
    6.7553   -1.7004   23.2735 C   0  0  0  0  0  0  0  0  0  0  0  0
    6.1613   -2.5057   23.7233 H   0  0  0  0  0  0  0  0  0  0  0  0
    6.4245   -0.7451   23.6935 H   0  0  0  0  0  0  0  0  0  0  0  0
    7.7937   -1.8507   23.5798 H   0  0  0  0  0  0  0  0  0  0  0  0
    6.9988   -3.0817   21.1147 C   0  0  1  0  0  0  0  0  0  0  0  0
    6.9191   -2.9048   20.0394 H   0  0  0  0  0  0  0  0  0  0  0  0
    8.4303   -3.5293   21.5004 C   0  0  0  0  0  0  0  0  0  0  0  0
    9.1529   -3.3057   20.7069 H   0  0  0  0  0  0  0  0  0  0  0  0
    8.8054   -3.0092   22.4025 H   0  0  0  0  0  0  0  0  0  0  0  0
    8.3181   -4.9661   21.7236 N   0  0  0  0  0  0  0  0  0  0  0  0
    9.0592   -5.2903   22.3425 H   0  0  0  0  0  0  0  0  0  0  0  0
    7.0022   -5.1946   22.3137 C   0  0  0  0  0  0  0  0  0  0  0  0
    6.7262   -6.2551   22.2720 H   0  0  0  0  0  0  0  0  0  0  0  0
    6.9318   -4.8656   23.3638 H   0  0  0  0  0  0  0  0  0  0  0  0
    6.1224   -4.3233   21.4243 C   0  0  0  0  0  0  0  0  0  0  0  0
    5.1371   -4.1011   21.8529 H   0  0  0  0  0  0  0  0  0  0  0  0
    5.9640   -4.8791   20.4952 H   0  0  0  0  0  0  0  0  0  0  0  0
    5.4066    0.6475   20.1070 C   0  0  0  0  0  0  0  0  0  0  0  0
    4.9752    0.6519   21.1074 H   0  0  0  0  0  0  0  0  0  0  0  0
    4.7977    1.3060   19.0379 C   0  0  0  0  0  0  0  0  0  0  0  0
    3.8585    1.8338   19.1663 H   0  0  0  0  0  0  0  0  0  0  0  0
  1  2  1  0
  2  3  2  0
  3  4  1  0
  4  5  1  0
  4  6  2  0
  6  7  1  0
  7  8  1  0
  8  9  1  0
  8 10  1  0
  8 11  1  0
  7 12  1  0
 12 13  1  1
 12 14  1  0
 14 15  1  0
 14 16  1  0
 14 17  1  0
 12 18  1  0
 18 19  1  6
 18 20  1  0
 20 21  1  0
 20 22  1  0
 20 23  1  0
 23 24  1  0
 23 25  1  0
 25 26  1  0
 25 27  1  0
 25 28  1  0
 28 29  1  0
 28 30  1  0
  6 31  1  0
 31 32  1  0
 31 33  2  0
 33 34  1  0
 33  2  1  0
 28 18  1  0
M  END
>  <plip>  (1) 
-0.034482758620689655

>  <filename>  (1) 
[H][c]1[n][c]([H])[c]([N]([C]([H])([H])[H])[C@]([H])([C]([H])([H])[H])[C@@]2([H])[C]([H])([H])[N]([H])[C]([H])([H])[C]2([H])[H])[c]([H])[c]1[H]

$$$$
