
     RDKit          3D

 33 35  0  0  0  0  0  0  0  0999 V2000
    5.1699    1.6828   17.0735 H   0  0  0  0  0  0  0  0  0  0  0  0
    5.5628    1.1413   17.9341 C   0  0  0  0  0  0  0  0  0  0  0  0
    6.7129    0.4786   17.7389 N   0  0  0  0  0  0  0  0  0  0  0  0
    7.2308   -0.1794   18.7844 C   0  0  0  0  0  0  0  0  0  0  0  0
    8.1570   -0.7224   18.5922 H   0  0  0  0  0  0  0  0  0  0  0  0
    6.6429   -0.2084   20.0591 C   0  0  0  0  0  0  0  0  0  0  0  0
    7.3509   -0.8740   21.2009 C   0  0  2  0  0  0  0  0  0  0  0  0
    6.8029   -0.6566   22.1225 H   0  0  0  0  0  0  0  0  0  0  0  0
    8.6507   -0.3117   21.3568 O   0  0  0  0  0  0  0  0  0  0  0  0
    9.6294   -1.2235   21.1579 C   0  0  0  0  0  0  0  0  0  0  0  0
   10.8034   -0.9922   21.1390 O   0  0  0  0  0  0  0  0  0  0  0  0
    9.0266   -2.4518   20.9999 N   0  0  0  0  0  0  0  0  0  0  0  0
    9.6667   -3.1703   20.6952 H   0  0  0  0  0  0  0  0  0  0  0  0
    7.5722   -2.3749   20.9589 C   0  0  1  0  0  0  0  0  0  0  0  0
    7.1242   -2.6928   20.0124 H   0  0  0  0  0  0  0  0  0  0  0  0
    6.4099   -3.3665   22.0481 S   0  0  0  0  0  0  0  0  0  0  0  0
    6.6296   -4.7750   21.7440 O   0  0  0  0  0  0  0  0  0  0  0  0
    5.0902   -2.7783   21.8614 O   0  0  0  0  0  0  0  0  0  0  0  0
    7.0625   -3.0169   23.6873 C   0  0  0  0  0  0  0  0  0  0  0  0
    8.1811   -3.7492   24.1148 C   0  0  0  0  0  0  0  0  0  0  0  0
    8.4896   -4.6626   23.6021 H   0  0  0  0  0  0  0  0  0  0  0  0
    8.8866   -3.3214   25.2439 C   0  0  0  0  0  0  0  0  0  0  0  0
    9.7693   -3.8716   25.5658 H   0  0  0  0  0  0  0  0  0  0  0  0
    8.4557   -2.2004   25.9667 C   0  0  0  0  0  0  0  0  0  0  0  0
    9.0064   -1.8727   26.8442 H   0  0  0  0  0  0  0  0  0  0  0  0
    7.3002   -1.5198   25.5738 C   0  0  0  0  0  0  0  0  0  0  0  0
    6.9344   -0.6687   26.1471 H   0  0  0  0  0  0  0  0  0  0  0  0
    6.5913   -1.9300   24.4409 C   0  0  0  0  0  0  0  0  0  0  0  0
    5.6855   -1.3921   24.1887 H   0  0  0  0  0  0  0  0  0  0  0  0
    5.4310    0.4648   20.2360 C   0  0  0  0  0  0  0  0  0  0  0  0
    4.9333    0.4404   21.2075 H   0  0  0  0  0  0  0  0  0  0  0  0
    4.8823    1.1596   19.1561 C   0  0  0  0  0  0  0  0  0  0  0  0
    3.9613    1.7251   19.2492 H   0  0  0  0  0  0  0  0  0  0  0  0
  1  2  1  0
  2  3  2  0
  3  4  1  0
  4  5  1  0
  4  6  2  0
  6  7  1  0
  7  8  1  1
  7  9  1  0
  9 10  1  0
 10 11  2  0
 10 12  1  0
 12 13  1  0
 12 14  1  0
 14 15  1  6
 14 16  1  0
 16 17  2  0
 16 18  2  0
 16 19  1  0
 19 20  2  0
 20 21  1  0
 20 22  1  0
 22 23  1  0
 22 24  2  0
 24 25  1  0
 24 26  1  0
 26 27  1  0
 26 28  2  0
 28 29  1  0
  6 30  1  0
 30 31  1  0
 30 32  2  0
 32 33  1  0
 32  2  1  0
 14  7  1  0
 28 19  1  0
M  END
>  <plip>  (1) 
-0.0

>  <filename>  (1) 
[H][c]1[n][c]([H])[c]([C@]2([H])[O][C](=[O])[N]([H])[C@@]2([H])[S](=[O])(=[O])[c]2[c]([H])[c]([H])[c]([H])[c]([H])[c]2[H])[c]([H])[c]1[H]

$$$$
