
     RDKit          3D

 33 35  0  0  0  0  0  0  0  0999 V2000
    4.9763    1.7819   16.9630 H   0  0  0  0  0  0  0  0  0  0  0  0
    5.4139    1.3189   17.8440 C   0  0  0  0  0  0  0  0  0  0  0  0
    6.5901    0.6989   17.6638 N   0  0  0  0  0  0  0  0  0  0  0  0
    7.1449    0.1112   18.7338 C   0  0  0  0  0  0  0  0  0  0  0  0
    8.1018   -0.3723   18.5467 H   0  0  0  0  0  0  0  0  0  0  0  0
    6.5839    0.1155   20.0334 C   0  0  0  0  0  0  0  0  0  0  0  0
    7.2301   -0.6384   21.1436 C   0  0  0  0  0  0  0  0  0  0  0  0
    7.5936   -1.9636   21.1306 C   0  0  0  0  0  0  0  0  0  0  0  0
    7.3010   -2.6493   20.3529 H   0  0  0  0  0  0  0  0  0  0  0  0
    8.3186   -2.2575   22.3173 C   0  0  0  0  0  0  0  0  0  0  0  0
    8.7443   -3.2227   22.5803 H   0  0  0  0  0  0  0  0  0  0  0  0
    8.3562   -1.0891   23.0412 C   0  0  0  0  0  0  0  0  0  0  0  0
    8.8158   -0.8282   23.9857 H   0  0  0  0  0  0  0  0  0  0  0  0
    7.6485   -0.1282   22.3659 N   0  0  0  0  0  0  0  0  0  0  0  0
    7.4813    1.2022   22.8122 N   0  0  0  0  0  0  0  0  0  0  0  0
    6.7521    1.5755   22.2078 H   0  0  0  0  0  0  0  0  0  0  0  0
    7.0867    1.3719   24.2245 C   0  0  0  0  0  0  0  0  0  0  0  0
    7.9521    1.1300   24.8522 H   0  0  0  0  0  0  0  0  0  0  0  0
    6.9311    2.4482   24.3407 H   0  0  0  0  0  0  0  0  0  0  0  0
    5.8685    0.6181   24.7384 C   0  0  0  0  0  0  0  0  0  0  0  0
    6.0200   -0.5554   25.4954 C   0  0  0  0  0  0  0  0  0  0  0  0
    7.0005   -1.0037   25.6245 H   0  0  0  0  0  0  0  0  0  0  0  0
    4.8971   -1.1454   26.0822 C   0  0  0  0  0  0  0  0  0  0  0  0
    5.0095   -2.0112   26.7329 H   0  0  0  0  0  0  0  0  0  0  0  0
    3.6525   -0.6715   25.9418 N   0  0  0  0  0  0  0  0  0  0  0  0
    3.4996    0.4284   25.1939 C   0  0  0  0  0  0  0  0  0  0  0  0
    2.4835    0.8050   25.0850 H   0  0  0  0  0  0  0  0  0  0  0  0
    4.5614    1.1005   24.5783 C   0  0  0  0  0  0  0  0  0  0  0  0
    4.3723    1.9987   23.9986 H   0  0  0  0  0  0  0  0  0  0  0  0
    5.3595    0.7871   20.1855 C   0  0  0  0  0  0  0  0  0  0  0  0
    4.8843    0.7995   21.1642 H   0  0  0  0  0  0  0  0  0  0  0  0
    4.7550    1.3844   19.0761 C   0  0  0  0  0  0  0  0  0  0  0  0
    3.8107    1.9117   19.1621 H   0  0  0  0  0  0  0  0  0  0  0  0
  1  2  1  0
  2  3  2  0
  3  4  1  0
  4  5  1  0
  4  6  2  0
  6  7  1  0
  7  8  2  0
  8  9  1  0
  8 10  1  0
 10 11  1  0
 10 12  2  0
 12 13  1  0
 12 14  1  0
 14 15  1  0
 15 16  1  0
 15 17  1  0
 17 18  1  0
 17 19  1  0
 17 20  1  0
 20 21  2  0
 21 22  1  0
 21 23  1  0
 23 24  1  0
 23 25  2  0
 25 26  1  0
 26 27  1  0
 26 28  2  0
 28 29  1  0
  6 30  1  0
 30 31  1  0
 30 32  2  0
 32 33  1  0
 32  2  1  0
 14  7  1  0
 28 20  1  0
M  END
>  <plip>  (1) 
-0.03571428571428571

>  <filename>  (1) 
[H][c]1[n][c]([H])[c](-[c]2[c]([H])[c]([H])[c]([H])[n]2[N]([H])[C]([H])([H])[c]2[c]([H])[c]([H])[n][c]([H])[c]2[H])[c]([H])[c]1[H]

$$$$
