
     RDKit          3D

 26 28  0  0  0  0  0  0  0  0999 V2000
    5.3439   -3.6554   26.0321 H   0  0  0  0  0  0  0  0  0  0  0  0
    6.3483   -3.4961   25.6519 C   0  0  0  0  0  0  0  0  0  0  0  0
    7.3552   -4.0049   26.3589 N   0  0  0  0  0  0  0  0  0  0  0  0
    8.5744   -3.7903   25.8601 C   0  0  0  0  0  0  0  0  0  0  0  0
    9.4122   -4.1964   26.4184 H   0  0  0  0  0  0  0  0  0  0  0  0
    8.8030   -3.0880   24.6902 C   0  0  0  0  0  0  0  0  0  0  0  0
    9.7974   -2.9201   24.2978 H   0  0  0  0  0  0  0  0  0  0  0  0
    7.6764   -2.5953   24.0271 C   0  0  0  0  0  0  0  0  0  0  0  0
    7.8179   -1.8227   22.7516 C   0  0  0  0  0  0  0  0  0  0  0  0
    9.0310   -1.5360   22.1375 N   0  0  0  0  0  0  0  0  0  0  0  0
    8.7271   -0.8557   21.0717 C   0  0  0  0  0  0  0  0  0  0  0  0
    9.4278   -0.4453   20.3481 H   0  0  0  0  0  0  0  0  0  0  0  0
    7.3675   -0.6708   20.9276 N   0  0  0  0  0  0  0  0  0  0  0  0
    6.6662    0.0126   19.8978 C   0  0  0  0  0  0  0  0  0  0  0  0
    7.1755    0.0631   18.5892 C   0  0  0  0  0  0  0  0  0  0  0  0
    8.1156   -0.4347   18.3663 H   0  0  0  0  0  0  0  0  0  0  0  0
    6.5624    0.6790   17.5768 N   0  0  0  0  0  0  0  0  0  0  0  0
    5.3983    1.2951   17.8376 C   0  0  0  0  0  0  0  0  0  0  0  0
    4.9106    1.7804   16.9964 H   0  0  0  0  0  0  0  0  0  0  0  0
    4.8090    1.3097   19.1072 C   0  0  0  0  0  0  0  0  0  0  0  0
    3.8755    1.8416   19.2651 H   0  0  0  0  0  0  0  0  0  0  0  0
    5.4445    0.6478   20.1611 C   0  0  0  0  0  0  0  0  0  0  0  0
    5.0155    0.6375   21.1653 H   0  0  0  0  0  0  0  0  0  0  0  0
    6.8009   -1.2978   22.0114 C   0  0  0  0  0  0  0  0  0  0  0  0
    5.7376   -1.3601   22.1714 H   0  0  0  0  0  0  0  0  0  0  0  0
    6.4402   -2.8095   24.5158 N   0  0  0  0  0  0  0  0  0  0  0  0
  1  2  1  0
  2  3  2  0
  3  4  1  0
  4  5  1  0
  4  6  2  0
  6  7  1  0
  6  8  1  0
  8  9  1  0
  9 10  1  0
 10 11  2  0
 11 12  1  0
 11 13  1  0
 13 14  1  0
 14 15  2  0
 15 16  1  0
 15 17  1  0
 17 18  2  0
 18 19  1  0
 18 20  1  0
 20 21  1  0
 20 22  2  0
 22 23  1  0
 13 24  1  0
 24 25  1  0
  8 26  2  0
 26  2  1  0
 24  9  2  0
 22 14  1  0
M  END
>  <plip>  (1) 
-0.03571428571428571

>  <filename>  (1) 
[H][c]1[n][c]([H])[c]([H])[c](-[c]2[n][c]([H])[n](-[c]3[c]([H])[n][c]([H])[c]([H])[c]3[H])[c]2[H])[n]1

$$$$
