
     RDKit          3D

 32 34  0  0  0  0  0  0  0  0999 V2000
    3.8322   -5.0633   23.0463 H   0  0  0  0  0  0  0  0  0  0  0  0
    4.8083   -4.8016   23.4445 C   0  0  0  0  0  0  0  0  0  0  0  0
    5.4524   -3.8375   22.8007 N   0  0  0  0  0  0  0  0  0  0  0  0
    6.6562   -3.4878   23.2854 C   0  0  0  0  0  0  0  0  0  0  0  0
    7.3168   -2.4252   22.5810 C   0  0  0  0  0  0  0  0  0  0  0  0
    6.7115   -1.7366   21.5787 C   0  0  0  0  0  0  0  0  0  0  0  0
    5.6904   -1.9332   21.2548 H   0  0  0  0  0  0  0  0  0  0  0  0
    7.3692   -0.7421   20.8883 N   0  0  0  0  0  0  0  0  0  0  0  0
    6.6737   -0.0599   19.8229 C   0  0  0  0  0  0  0  0  0  0  0  0
    7.1766   -0.0298   18.5094 C   0  0  0  0  0  0  0  0  0  0  0  0
    8.1092   -0.5425   18.2839 H   0  0  0  0  0  0  0  0  0  0  0  0
    6.5703    0.6145   17.5057 N   0  0  0  0  0  0  0  0  0  0  0  0
    5.4409    1.2843   17.7872 C   0  0  0  0  0  0  0  0  0  0  0  0
    4.9873    1.8218   16.9582 H   0  0  0  0  0  0  0  0  0  0  0  0
    4.8555    1.3072   19.0587 C   0  0  0  0  0  0  0  0  0  0  0  0
    3.9458    1.8727   19.2258 H   0  0  0  0  0  0  0  0  0  0  0  0
    5.4750    0.6041   20.0958 C   0  0  0  0  0  0  0  0  0  0  0  0
    5.0681    0.5761   21.1090 H   0  0  0  0  0  0  0  0  0  0  0  0
    8.6824   -0.3571   21.2497 C   0  0  0  0  0  0  0  0  0  0  0  0
    9.3499    0.4536   20.6489 O   0  0  0  0  0  0  0  0  0  0  0  0
    9.1612   -0.9753   22.3534 N   0  0  0  0  0  0  0  0  0  0  0  0
   10.1331   -0.8102   22.5172 H   0  0  0  0  0  0  0  0  0  0  0  0
    8.6764   -2.1156   22.9654 C   0  0  0  0  0  0  0  0  0  0  0  0
    9.4367   -2.6908   23.7029 O   0  0  0  0  0  0  0  0  0  0  0  0
    7.2412   -4.0601   24.3432 N   0  0  0  0  0  0  0  0  0  0  0  0
    6.5985   -5.0397   24.9715 C   0  0  0  0  0  0  0  0  0  0  0  0
    7.3124   -5.6819   26.2000 C   0  0  0  0  0  0  0  0  0  0  0  0
    7.4257   -4.8093   27.2136 F   0  0  0  0  0  0  0  0  0  0  0  0
    8.5470   -6.1128   25.9091 F   0  0  0  0  0  0  0  0  0  0  0  0
    6.6206   -6.7461   26.6546 F   0  0  0  0  0  0  0  0  0  0  0  0
    5.3316   -5.4545   24.5598 C   0  0  0  0  0  0  0  0  0  0  0  0
    4.7868   -6.2350   25.0706 H   0  0  0  0  0  0  0  0  0  0  0  0
  1  2  1  0
  2  3  2  0
  3  4  1  0
  4  5  1  0
  5  6  2  0
  6  7  1  0
  6  8  1  0
  8  9  1  0
  9 10  2  0
 10 11  1  0
 10 12  1  0
 12 13  2  0
 13 14  1  0
 13 15  1  0
 15 16  1  0
 15 17  2  0
 17 18  1  0
  8 19  1  0
 19 20  2  0
 19 21  1  0
 21 22  1  0
 21 23  1  0
 23 24  2  0
  4 25  2  0
 25 26  1  0
 26 27  1  0
 27 28  1  0
 27 29  1  0
 27 30  1  0
 26 31  2  0
 31 32  1  0
 31  2  1  0
 23  5  1  0
 17  9  1  0
M  END
>  <plip>  (1) 
-0.13793103448275862

>  <filename>  (1) 
[H][c]1[n][c](-[c]2[c]([H])[n](-[c]3[c]([H])[n][c]([H])[c]([H])[c]3[H])[c](=[O])[n]([H])[c]2=[O])[n][c]([C]([F])([F])[F])[c]1[H]

$$$$
