
     RDKit          3D

 30 31  0  0  0  0  0  0  0  0999 V2000
    6.4332   -0.7319   21.8344 H   0  0  0  0  0  0  0  0  0  0  0  0
    7.0887   -0.4813   21.0033 C   0  0  0  0  0  0  0  0  0  0  0  0
    8.4151   -0.5539   21.1729 C   0  0  0  0  0  0  0  0  0  0  0  0
    9.0770   -0.2093   20.3722 H   0  0  0  0  0  0  0  0  0  0  0  0
    9.0761   -0.9766   22.3214 N   0  0  0  0  0  0  0  0  0  0  0  0
   10.4843   -0.7822   22.3329 C   0  0  0  0  0  0  0  0  0  0  0  0
   11.3516   -1.8819   22.3167 C   0  0  0  0  0  0  0  0  0  0  0  0
   10.9235   -2.8780   22.3862 H   0  0  0  0  0  0  0  0  0  0  0  0
   12.7272   -1.6915   22.1462 C   0  0  0  0  0  0  0  0  0  0  0  0
   13.3696   -2.5630   22.0680 H   0  0  0  0  0  0  0  0  0  0  0  0
   13.2644   -0.4022   22.0689 C   0  0  0  0  0  0  0  0  0  0  0  0
   14.3341   -0.2437   21.9356 H   0  0  0  0  0  0  0  0  0  0  0  0
   12.4003    0.6980   22.1058 C   0  0  0  0  0  0  0  0  0  0  0  0
   12.7972    1.7030   21.9964 H   0  0  0  0  0  0  0  0  0  0  0  0
   11.0212    0.5145   22.2252 C   0  0  0  0  0  0  0  0  0  0  0  0
   10.3547    1.3732   22.2327 H   0  0  0  0  0  0  0  0  0  0  0  0
    8.4020   -1.8477   23.2685 C   0  0  0  0  0  0  0  0  0  0  0  0
    7.9561   -2.7238   22.7772 H   0  0  0  0  0  0  0  0  0  0  0  0
    9.0973   -2.1916   24.0399 H   0  0  0  0  0  0  0  0  0  0  0  0
    7.5827   -1.3208   23.7741 H   0  0  0  0  0  0  0  0  0  0  0  0
    6.4421    0.0660   19.7907 C   0  0  0  0  0  0  0  0  0  0  0  0
    7.0381    0.0705   18.5079 C   0  0  0  0  0  0  0  0  0  0  0  0
    7.9601   -0.4847   18.3346 H   0  0  0  0  0  0  0  0  0  0  0  0
    6.5334    0.7031   17.4402 N   0  0  0  0  0  0  0  0  0  0  0  0
    5.3776    1.3662   17.6125 C   0  0  0  0  0  0  0  0  0  0  0  0
    5.0081    1.9184   16.7528 H   0  0  0  0  0  0  0  0  0  0  0  0
    4.6560    1.3642   18.8104 C   0  0  0  0  0  0  0  0  0  0  0  0
    3.7220    1.9111   18.8810 H   0  0  0  0  0  0  0  0  0  0  0  0
    5.1867    0.6852   19.9065 C   0  0  0  0  0  0  0  0  0  0  0  0
    4.6550    0.6470   20.8568 H   0  0  0  0  0  0  0  0  0  0  0  0
  1  2  1  0
  2  3  2  3
  3  4  1  0
  3  5  1  0
  5  6  1  0
  6  7  2  0
  7  8  1  0
  7  9  1  0
  9 10  1  0
  9 11  2  0
 11 12  1  0
 11 13  1  0
 13 14  1  0
 13 15  2  0
 15 16  1  0
  5 17  1  0
 17 18  1  0
 17 19  1  0
 17 20  1  0
  2 21  1  0
 21 22  2  0
 22 23  1  0
 22 24  1  0
 24 25  2  0
 25 26  1  0
 25 27  1  0
 27 28  1  0
 27 29  2  0
 29 30  1  0
 15  6  1  0
 29 21  1  0
M  END
>  <plip>  (1) 
-0.07142857142857142

>  <filename>  (1) 
[H][C](=[C]([H])[N]([c]1[c]([H])[c]([H])[c]([H])[c]([H])[c]1[H])[C]([H])([H])[H])[c]1[c]([H])[n][c]([H])[c]([H])[c]1[H]

$$$$
