
     RDKit          3D

 40 43  0  0  0  0  0  0  0  0999 V2000
    4.9468    1.8106   17.0884 H   0  0  0  0  0  0  0  0  0  0  0  0
    5.4021    1.3325   17.9531 C   0  0  0  0  0  0  0  0  0  0  0  0
    6.6171    0.8017   17.7564 N   0  0  0  0  0  0  0  0  0  0  0  0
    7.2098    0.2324   18.8067 C   0  0  0  0  0  0  0  0  0  0  0  0
    8.1969   -0.1773   18.5999 H   0  0  0  0  0  0  0  0  0  0  0  0
    6.6395    0.0896   20.0926 C   0  0  0  0  0  0  0  0  0  0  0  0
    7.5202   -0.5881   21.1348 C   0  0  2  0  0  0  0  0  0  0  0  0
    8.6016    0.3503   21.4584 N   0  0  0  0  0  0  0  0  0  0  0  0
    9.4943   -0.1138   21.4719 H   0  0  0  0  0  0  0  0  0  0  0  0
    8.5841    1.3009   22.4717 C   0  0  0  0  0  0  0  0  0  0  0  0
    9.7346    1.3802   23.2769 C   0  0  0  0  0  0  0  0  0  0  0  0
   10.5470    0.6857   23.0751 H   0  0  0  0  0  0  0  0  0  0  0  0
    9.8295    2.3180   24.3073 C   0  0  0  0  0  0  0  0  0  0  0  0
   10.6994    2.3816   24.9552 H   0  0  0  0  0  0  0  0  0  0  0  0
    8.7598    3.1884   24.5108 C   0  0  0  0  0  0  0  0  0  0  0  0
    8.8357    4.0851   25.5127 F   0  0  0  0  0  0  0  0  0  0  0  0
    7.6144    3.1521   23.7150 C   0  0  0  0  0  0  0  0  0  0  0  0
    6.8147    3.8594   23.9167 H   0  0  0  0  0  0  0  0  0  0  0  0
    7.5318    2.2010   22.6846 C   0  0  0  0  0  0  0  0  0  0  0  0
    6.6736    2.1477   22.0216 H   0  0  0  0  0  0  0  0  0  0  0  0
    8.2214   -1.8455   20.5398 C   0  0  0  0  0  0  0  0  0  0  0  0
    9.2394   -1.6329   20.1980 H   0  0  0  0  0  0  0  0  0  0  0  0
    7.5790   -2.0671   19.6917 H   0  0  0  0  0  0  0  0  0  0  0  0
    8.1425   -2.9559   21.6022 C   0  0  2  0  0  0  0  0  0  0  0  0
    8.9539   -3.6844   21.5412 H   0  0  0  0  0  0  0  0  0  0  0  0
    6.7410   -3.5737   21.4757 C   0  0  0  0  0  0  0  0  0  0  0  0
    6.5156   -3.9357   20.4660 H   0  0  0  0  0  0  0  0  0  0  0  0
    6.6291   -4.4315   22.1431 H   0  0  0  0  0  0  0  0  0  0  0  0
    5.8362   -2.3956   21.9377 C   0  0  0  0  0  0  0  0  0  0  0  0
    5.1670   -2.0217   21.1615 H   0  0  0  0  0  0  0  0  0  0  0  0
    5.2257   -2.7237   22.7849 H   0  0  0  0  0  0  0  0  0  0  0  0
    6.8396   -1.2846   22.3737 C   0  0  1  0  0  0  0  0  0  0  0  0
    6.4119   -0.5540   23.0645 H   0  0  0  0  0  0  0  0  0  0  0  0
    7.9987   -2.1564   22.9152 C   0  0  0  0  0  0  0  0  0  0  0  0
    7.7109   -2.7668   23.7804 H   0  0  0  0  0  0  0  0  0  0  0  0
    8.9029   -1.5978   23.1884 H   0  0  0  0  0  0  0  0  0  0  0  0
    5.3672    0.6365   20.2701 C   0  0  0  0  0  0  0  0  0  0  0  0
    4.8614    0.5790   21.2364 H   0  0  0  0  0  0  0  0  0  0  0  0
    4.7449    1.2785   19.1859 C   0  0  0  0  0  0  0  0  0  0  0  0
    3.7791    1.7559   19.2845 H   0  0  0  0  0  0  0  0  0  0  0  0
  1  2  1  0
  2  3  2  0
  3  4  1  0
  4  5  1  0
  4  6  2  0
  6  7  1  0
  7  8  1  1
  8  9  1  0
  8 10  1  0
 10 11  2  0
 11 12  1  0
 11 13  1  0
 13 14  1  0
 13 15  2  0
 15 16  1  0
 15 17  1  0
 17 18  1  0
 17 19  2  0
 19 20  1  0
  7 21  1  0
 21 22  1  0
 21 23  1  0
 21 24  1  0
 24 25  1  1
 24 26  1  0
 26 27  1  0
 26 28  1  0
 26 29  1  0
 29 30  1  0
 29 31  1  0
 29 32  1  0
 32 33  1  1
 32 34  1  0
 34 35  1  0
 34 36  1  0
  6 37  1  0
 37 38  1  0
 37 39  2  0
 39 40  1  0
 39  2  1  0
 32  7  1  0
 19 10  1  0
 34 24  1  0
M  END
>  <plip>  (1) 
-0.06896551724137931

>  <filename>  (1) 
[H][c]1[n][c]([H])[c]([C@]2([N]([H])[c]3[c]([H])[c]([H])[c]([F])[c]([H])[c]3[H])[C]([H])([H])[C@]3([H])[C]([H])([H])[C]([H])([H])[C@@]2([H])[C]3([H])[H])[c]([H])[c]1[H]

$$$$
