
     RDKit          3D

 31 33  0  0  0  0  0  0  0  0999 V2000
    4.9778    1.8950   16.9125 H   0  0  0  0  0  0  0  0  0  0  0  0
    5.4355    1.3719   17.7463 C   0  0  0  0  0  0  0  0  0  0  0  0
    6.5966    0.7493   17.4789 N   0  0  0  0  0  0  0  0  0  0  0  0
    7.1959    0.1037   18.4852 C   0  0  0  0  0  0  0  0  0  0  0  0
    8.1325   -0.4147   18.2725 H   0  0  0  0  0  0  0  0  0  0  0  0
    6.6588    0.0390   19.7816 C   0  0  0  0  0  0  0  0  0  0  0  0
    7.3198   -0.6754   20.8315 N   0  0  0  0  0  0  0  0  0  0  0  0
    8.5757   -0.2624   21.2370 C   0  0  0  0  0  0  0  0  0  0  0  0
    8.9805    0.5873   20.6936 H   0  0  0  0  0  0  0  0  0  0  0  0
    9.2282   -0.9003   22.2454 C   0  0  0  0  0  0  0  0  0  0  0  0
   10.2019   -0.5611   22.5707 H   0  0  0  0  0  0  0  0  0  0  0  0
    8.5850   -1.9895   22.9064 C   0  0  0  0  0  0  0  0  0  0  0  0
    9.2503   -2.7382   23.9683 C   0  0  0  0  0  0  0  0  0  0  0  0
    8.6108   -2.9951   25.1826 C   0  0  0  0  0  0  0  0  0  0  0  0
    7.6271   -2.5531   25.3661 H   0  0  0  0  0  0  0  0  0  0  0  0
    9.1358   -3.7203   26.1563 N   0  0  0  0  0  0  0  0  0  0  0  0
   10.2984   -4.2776   25.8402 C   0  0  0  0  0  0  0  0  0  0  0  0
   10.7947   -5.1247   26.7403 N   0  0  0  0  0  0  0  0  0  0  0  0
   10.3962   -4.8924   27.6294 H   0  0  0  0  0  0  0  0  0  0  0  0
   11.7915   -5.1048   26.6300 H   0  0  0  0  0  0  0  0  0  0  0  0
   11.0484   -4.0966   24.7602 N   0  0  0  0  0  0  0  0  0  0  0  0
   10.5020   -3.3318   23.8293 C   0  0  0  0  0  0  0  0  0  0  0  0
   11.0765   -3.1966   22.9066 H   0  0  0  0  0  0  0  0  0  0  0  0
    7.3294   -2.3657   22.5543 C   0  0  0  0  0  0  0  0  0  0  0  0
    6.7833   -3.1539   23.0453 H   0  0  0  0  0  0  0  0  0  0  0  0
    6.6285   -1.7700   21.4611 C   0  0  0  0  0  0  0  0  0  0  0  0
    5.5399   -2.1610   21.0668 O   0  0  0  0  0  0  0  0  0  0  0  0
    5.4367    0.6636   20.0437 C   0  0  0  0  0  0  0  0  0  0  0  0
    5.0050    0.5839   21.0417 H   0  0  0  0  0  0  0  0  0  0  0  0
    4.8186    1.3572   19.0037 C   0  0  0  0  0  0  0  0  0  0  0  0
    3.8769    1.8741   19.1564 H   0  0  0  0  0  0  0  0  0  0  0  0
  1  2  1  0
  2  3  2  0
  3  4  1  0
  4  5  1  0
  4  6  2  0
  6  7  1  0
  7  8  1  0
  8  9  1  0
  8 10  2  0
 10 11  1  0
 10 12  1  0
 12 13  1  0
 13 14  2  0
 14 15  1  0
 14 16  1  0
 16 17  2  0
 17 18  1  0
 18 19  1  0
 18 20  1  0
 17 21  1  0
 21 22  2  0
 22 23  1  0
 12 24  2  0
 24 25  1  0
 24 26  1  0
 26 27  2  0
  6 28  1  0
 28 29  1  0
 28 30  2  0
 30 31  1  0
 30  2  1  0
 26  7  1  0
 22 13  1  0
M  END
>  <plip>  (1) 
-0.06896551724137931

>  <filename>  (1) 
[H][c]1[n][c]([H])[c](-[n]2[c]([H])[c]([H])[c](-[c]3[c]([H])[n][c]([N]([H])[H])[n][c]3[H])[c]([H])[c]2=[O])[c]([H])[c]1[H]

$$$$
