
     RDKit          3D

 33 35  0  0  0  0  0  0  0  0999 V2000
    8.7347    1.4519   25.9142 C   0  0  0  0  0  0  0  0  0  0  0  0
    9.7408    1.9512   25.0985 C   0  0  0  0  0  0  0  0  0  0  0  0
    9.5452    2.2731   23.8262 N   0  0  0  0  0  0  0  0  0  0  0  0
    8.3022    2.1251   23.3589 C   0  0  0  0  0  0  0  0  0  0  0  0
    8.0883    2.4261   21.6269 S   0  0  0  0  0  0  0  0  0  0  0  0
    9.1172    1.0160   21.0218 C   0  0  0  0  0  0  0  0  0  0  0  0
    8.5528   -0.3223   21.4596 C   0  0  0  0  0  0  0  0  0  0  0  0
    9.1832   -1.0441   22.4798 C   0  0  0  0  0  0  0  0  0  0  0  0
    8.6338   -2.2274   22.9795 C   0  0  0  0  0  0  0  0  0  0  0  0
    7.4177   -2.6982   22.4761 C   0  0  0  0  0  0  0  0  0  0  0  0
    6.7644   -1.9793   21.4741 C   0  0  0  0  0  0  0  0  0  0  0  0
    7.3283   -0.8075   20.9435 C   0  0  0  0  0  0  0  0  0  0  0  0
    6.6169   -0.0908   19.8492 C   0  0  0  0  0  0  0  0  0  0  0  0
    5.4071    0.5728   20.0911 C   0  0  0  0  0  0  0  0  0  0  0  0
    4.8097    1.2825   19.0479 C   0  0  0  0  0  0  0  0  0  0  0  0
    5.4359    1.2731   17.7941 C   0  0  0  0  0  0  0  0  0  0  0  0
    6.5761    0.6153   17.5271 N   0  0  0  0  0  0  0  0  0  0  0  0
    7.1480   -0.0391   18.5491 C   0  0  0  0  0  0  0  0  0  0  0  0
    8.0919   -0.5462   18.3335 H   0  0  0  0  0  0  0  0  0  0  0  0
    4.9930    1.8059   16.9589 H   0  0  0  0  0  0  0  0  0  0  0  0
    3.8898    1.8429   19.1965 H   0  0  0  0  0  0  0  0  0  0  0  0
    4.9870    0.5662   21.1003 H   0  0  0  0  0  0  0  0  0  0  0  0
    5.8082   -2.3144   21.0826 H   0  0  0  0  0  0  0  0  0  0  0  0
    6.9675   -3.6000   22.8856 H   0  0  0  0  0  0  0  0  0  0  0  0
    9.1537   -2.7752   23.7600 H   0  0  0  0  0  0  0  0  0  0  0  0
   10.1058   -0.6447   22.8952 H   0  0  0  0  0  0  0  0  0  0  0  0
    9.1303    1.0907   19.9342 H   0  0  0  0  0  0  0  0  0  0  0  0
   10.1427    1.1705   21.3766 H   0  0  0  0  0  0  0  0  0  0  0  0
    7.2401    1.7362   24.0633 N   0  0  0  0  0  0  0  0  0  0  0  0
    7.4809    1.3838   25.3271 C   0  0  0  0  0  0  0  0  0  0  0  0
    6.6073    1.0675   25.8935 H   0  0  0  0  0  0  0  0  0  0  0  0
   10.7550    2.1005   25.4662 H   0  0  0  0  0  0  0  0  0  0  0  0
    8.9313    1.0990   26.9195 H   0  0  0  0  0  0  0  0  0  0  0  0
  1  2  2  0
  2  3  1  0
  3  4  2  0
  4  5  1  0
  5  6  1  0
  6  7  1  0
  7  8  2  0
  8  9  1  0
  9 10  2  0
 10 11  1  0
 11 12  2  0
 12 13  1  0
 13 14  2  0
 14 15  1  0
 15 16  2  0
 16 17  1  0
 17 18  2  0
 18 19  1  0
 16 20  1  0
 15 21  1  0
 14 22  1  0
 11 23  1  0
 10 24  1  0
  9 25  1  0
  8 26  1  0
  6 27  1  0
  6 28  1  0
  4 29  1  0
 29 30  2  0
 30 31  1  0
  2 32  1  0
  1 33  1  0
 30  1  1  0
 12  7  1  0
 18 13  1  0
M  END
>  <plip>  (1) 
-0.07142857142857142

>  <filename>  (1) 
[H][c]1[n][c]([S][C]([H])([H])[c]2[c]([H])[c]([H])[c]([H])[c]([H])[c]2-[c]2[c]([H])[n][c]([H])[c]([H])[c]2[H])[n][c]([H])[c]1[H]

$$$$
