
     RDKit          3D

 23 25  0  0  0  0  0  0  0  0999 V2000
    4.9296    1.7747   17.0005 H   0  0  0  0  0  0  0  0  0  0  0  0
    5.4088    1.2855   17.8494 C   0  0  0  0  0  0  0  0  0  0  0  0
    6.5716    0.6638   17.6068 N   0  0  0  0  0  0  0  0  0  0  0  0
    7.1739    0.0524   18.6287 C   0  0  0  0  0  0  0  0  0  0  0  0
    8.1177   -0.4235   18.3713 H   0  0  0  0  0  0  0  0  0  0  0  0
    6.6570    0.0021   19.9340 C   0  0  0  0  0  0  0  0  0  0  0  0
    7.3601   -0.7028   21.0254 C   0  0  0  0  0  0  0  0  0  0  0  0
    6.8938   -0.7640   22.2455 N   0  0  0  0  0  0  0  0  0  0  0  0
    7.7611   -1.4846   23.0243 C   0  0  0  0  0  0  0  0  0  0  0  0
    7.5053   -1.7235   24.4522 C   0  0  0  0  0  0  0  0  0  0  0  0
    6.0818   -1.0967   25.2115 S   0  0  0  0  0  0  0  0  0  0  0  0
    6.5695   -1.7923   26.7209 C   0  0  0  0  0  0  0  0  0  0  0  0
    5.6186   -1.6214   28.1389 Cl  0  0  0  0  0  0  0  0  0  0  0  0
    7.7545   -2.4673   26.6520 C   0  0  0  0  0  0  0  0  0  0  0  0
    8.2148   -2.9705   27.5028 H   0  0  0  0  0  0  0  0  0  0  0  0
    8.2897   -2.4234   25.3389 C   0  0  0  0  0  0  0  0  0  0  0  0
    9.2284   -2.8957   25.0565 H   0  0  0  0  0  0  0  0  0  0  0  0
    8.8508   -1.9798   22.4820 N   0  0  0  0  0  0  0  0  0  0  0  0
    8.8710   -1.5456   20.8845 S   0  0  0  0  0  0  0  0  0  0  0  0
    5.4331    0.6519   20.1732 C   0  0  0  0  0  0  0  0  0  0  0  0
    4.9984    0.6355   21.1755 H   0  0  0  0  0  0  0  0  0  0  0  0
    4.8079    1.3063   19.1128 C   0  0  0  0  0  0  0  0  0  0  0  0
    3.8741    1.8429   19.2575 H   0  0  0  0  0  0  0  0  0  0  0  0
  1  2  1  0
  2  3  2  0
  3  4  1  0
  4  5  1  0
  4  6  2  0
  6  7  1  0
  7  8  2  0
  8  9  1  0
  9 10  1  0
 10 11  1  0
 11 12  1  0
 12 13  1  0
 12 14  2  0
 14 15  1  0
 14 16  1  0
 16 17  1  0
  9 18  2  0
 18 19  1  0
  6 20  1  0
 20 21  1  0
 20 22  2  0
 22 23  1  0
 22  2  1  0
 19  7  1  0
 16 10  2  0
M  END
>  <plip>  (1) 
-0.0

>  <filename>  (1) 
[H][c]1[n][c]([H])[c](-[c]2[n][c](-[c]3[s][c]([Cl])[c]([H])[c]3[H])[n][s]2)[c]([H])[c]1[H]

$$$$
