
     RDKit          3D

 28 29  0  0  0  0  0  0  0  0999 V2000
    5.7725   -1.5710   21.4804 H   0  0  0  0  0  0  0  0  0  0  0  0
    6.7828   -1.6177   21.6556 N   0  0  0  0  0  0  0  0  0  0  0  0
    7.3573   -0.7505   20.9213 C   0  0  0  0  0  0  0  0  0  0  0  0
    6.5993    0.0224   19.9072 C   0  0  0  0  0  0  0  0  0  0  0  0
    7.1247    0.0400   18.6119 C   0  0  0  0  0  0  0  0  0  0  0  0
    8.0668   -0.4709   18.4156 H   0  0  0  0  0  0  0  0  0  0  0  0
    6.5428    0.6371   17.5711 N   0  0  0  0  0  0  0  0  0  0  0  0
    5.3959    1.2913   17.8146 C   0  0  0  0  0  0  0  0  0  0  0  0
    4.9576    1.8216   16.9749 H   0  0  0  0  0  0  0  0  0  0  0  0
    4.7725    1.3305   19.0685 C   0  0  0  0  0  0  0  0  0  0  0  0
    3.8442    1.8829   19.1967 H   0  0  0  0  0  0  0  0  0  0  0  0
    5.3744    0.6713   20.1410 C   0  0  0  0  0  0  0  0  0  0  0  0
    4.9117    0.6910   21.1323 H   0  0  0  0  0  0  0  0  0  0  0  0
    8.9125   -0.6315   21.0249 C   0  0  1  0  0  0  0  0  0  0  0  0
    9.3021   -1.5123   20.4837 H   0  0  0  0  0  0  0  0  0  0  0  0
    9.4074    0.5668   20.4114 O   0  0  0  0  0  0  0  0  0  0  0  0
   10.3053    0.6956   20.7612 H   0  0  0  0  0  0  0  0  0  0  0  0
    9.3552   -0.7421   22.4781 C   0  0  0  0  0  0  0  0  0  0  0  0
    9.0447    0.2728   23.4014 C   0  0  0  0  0  0  0  0  0  0  0  0
    8.5740    1.1849   23.0413 H   0  0  0  0  0  0  0  0  0  0  0  0
    9.2956    0.0873   24.7630 C   0  0  0  0  0  0  0  0  0  0  0  0
    9.0384    0.8682   25.4739 H   0  0  0  0  0  0  0  0  0  0  0  0
    9.8564   -1.1074   25.2182 C   0  0  0  0  0  0  0  0  0  0  0  0
    9.9601   -1.2682   26.2911 H   0  0  0  0  0  0  0  0  0  0  0  0
   10.2333   -2.0976   24.3038 C   0  0  0  0  0  0  0  0  0  0  0  0
   10.7115   -3.0092   24.6532 H   0  0  0  0  0  0  0  0  0  0  0  0
    9.9756   -1.9119   22.9373 C   0  0  0  0  0  0  0  0  0  0  0  0
   10.2489   -2.6947   22.2292 H   0  0  0  0  0  0  0  0  0  0  0  0
  1  2  1  0
  2  3  2  3
  3  4  1  0
  4  5  2  0
  5  6  1  0
  5  7  1  0
  7  8  2  0
  8  9  1  0
  8 10  1  0
 10 11  1  0
 10 12  2  0
 12 13  1  0
  3 14  1  0
 14 15  1  6
 14 16  1  0
 16 17  1  0
 14 18  1  0
 18 19  2  0
 19 20  1  0
 19 21  1  0
 21 22  1  0
 21 23  2  0
 23 24  1  0
 23 25  1  0
 25 26  1  0
 25 27  2  0
 27 28  1  0
 12  4  1  0
 27 18  1  0
M  END
>  <plip>  (1) 
-0.06896551724137931

>  <filename>  (1) 
[H][N]=[C]([c]1[c]([H])[n][c]([H])[c]([H])[c]1[H])[C@@]([H])([O][H])[c]1[c]([H])[c]([H])[c]([H])[c]([H])[c]1[H]

$$$$
