
     RDKit          3D

 37 38  0  0  0  0  0  0  0  0999 V2000
    9.6374   -1.5837   20.9195 C   0  0  0  0  0  0  0  0  0  0  0  0
    8.7356   -0.4002   21.2638 C   0  0  0  0  0  0  0  0  0  0  0  0
    7.3075   -0.6742   21.0458 N   0  0  0  0  0  0  0  0  0  0  0  0
    6.6057   -1.6956   21.7176 C   0  0  0  0  0  0  0  0  0  0  0  0
    5.6191   -2.2386   21.2408 O   0  0  0  0  0  0  0  0  0  0  0  0
    7.0982   -2.0463   22.9466 N   0  0  0  0  0  0  0  0  0  0  0  0
    6.5733   -3.2165   23.6497 C   0  0  0  0  0  0  0  0  0  0  0  0
    6.8633   -3.1478   25.1272 C   0  0  0  0  0  0  0  0  0  0  0  0
    7.1630   -4.2219   25.8778 C   0  0  0  0  0  0  0  0  0  0  0  0
    7.3717   -5.6092   25.2992 C   0  0  0  0  0  0  0  0  0  0  0  0
    6.7552   -5.7453   23.8872 C   0  0  0  0  0  0  0  0  0  0  0  0
    7.1002   -4.5245   23.0243 C   0  0  0  0  0  0  0  0  0  0  0  0
    6.6851   -4.6144   22.0146 H   0  0  0  0  0  0  0  0  0  0  0  0
    8.1949   -4.4510   22.9276 H   0  0  0  0  0  0  0  0  0  0  0  0
    7.1243   -6.6365   23.3685 H   0  0  0  0  0  0  0  0  0  0  0  0
    5.6625   -5.8565   23.9740 H   0  0  0  0  0  0  0  0  0  0  0  0
    6.9704   -6.3657   25.9893 H   0  0  0  0  0  0  0  0  0  0  0  0
    8.4540   -5.8129   25.2660 H   0  0  0  0  0  0  0  0  0  0  0  0
    7.2841   -4.1172   26.9577 H   0  0  0  0  0  0  0  0  0  0  0  0
    6.7203   -2.1682   25.5795 H   0  0  0  0  0  0  0  0  0  0  0  0
    5.4776   -3.2053   23.5198 H   0  0  0  0  0  0  0  0  0  0  0  0
    7.8724   -1.5248   23.3148 H   0  0  0  0  0  0  0  0  0  0  0  0
    6.6542   -0.0184   19.9418 C   0  0  0  0  0  0  0  0  0  0  0  0
    5.4313    0.6304   20.1685 C   0  0  0  0  0  0  0  0  0  0  0  0
    4.8126    1.3006   19.1084 C   0  0  0  0  0  0  0  0  0  0  0  0
    5.4142    1.2842   17.8470 C   0  0  0  0  0  0  0  0  0  0  0  0
    6.5777    0.6606   17.5999 N   0  0  0  0  0  0  0  0  0  0  0  0
    7.1815    0.0474   18.6274 C   0  0  0  0  0  0  0  0  0  0  0  0
    8.1346   -0.4240   18.3843 H   0  0  0  0  0  0  0  0  0  0  0  0
    4.9481    1.7866   17.0007 H   0  0  0  0  0  0  0  0  0  0  0  0
    3.8814    1.8380   19.2520 H   0  0  0  0  0  0  0  0  0  0  0  0
    4.9991    0.6014   21.1666 H   0  0  0  0  0  0  0  0  0  0  0  0
    8.9814    0.4404   20.6053 H   0  0  0  0  0  0  0  0  0  0  0  0
    8.9357   -0.0298   22.2828 H   0  0  0  0  0  0  0  0  0  0  0  0
    9.4482   -1.8930   19.8892 H   0  0  0  0  0  0  0  0  0  0  0  0
    9.4666   -2.4499   21.5673 H   0  0  0  0  0  0  0  0  0  0  0  0
   10.6942   -1.3075   21.0057 H   0  0  0  0  0  0  0  0  0  0  0  0
  1  2  1  0
  2  3  1  0
  3  4  1  0
  4  5  2  0
  4  6  1  0
  6  7  1  0
  7  8  1  0
  8  9  2  0
  9 10  1  0
 10 11  1  0
 11 12  1  0
 12 13  1  0
 12 14  1  0
 11 15  1  0
 11 16  1  0
 10 17  1  0
 10 18  1  0
  9 19  1  0
  8 20  1  0
  7 21  1  0
  6 22  1  0
  3 23  1  0
 23 24  2  0
 24 25  1  0
 25 26  2  0
 26 27  1  0
 27 28  2  0
 28 29  1  0
 26 30  1  0
 25 31  1  0
 24 32  1  0
  2 33  1  0
  2 34  1  0
  1 35  1  0
  1 36  1  0
  1 37  1  0
 12  7  1  0
 28 23  1  0
M  END
>  <plip>  (1) 
-0.10714285714285714

>  <filename>  (1) 
[H][C]1=[C]([H])[C]([H])([N]([H])[C](=[O])[N]([c]2[c]([H])[n][c]([H])[c]([H])[c]2[H])[C]([H])([H])[C]([H])([H])[H])[C]([H])([H])[C]([H])([H])[C]1([H])[H]

$$$$
