
     RDKit          3D

 33 35  0  0  0  0  0  0  0  0999 V2000
    8.6833   -4.0725   27.4562 C   0  0  0  0  0  0  0  0  0  0  0  0
    8.2193   -4.2150   26.0933 N   0  0  0  0  0  0  0  0  0  0  0  0
    7.9970   -5.4193   25.4337 C   0  0  0  0  0  0  0  0  0  0  0  0
    8.1435   -6.5194   25.9188 O   0  0  0  0  0  0  0  0  0  0  0  0
    7.5405   -5.0900   24.0196 C   0  0  0  0  0  0  0  0  0  0  0  0
    7.5818   -3.6020   23.9983 C   0  0  0  0  0  0  0  0  0  0  0  0
    7.3255   -2.7359   22.9621 C   0  0  0  0  0  0  0  0  0  0  0  0
    7.4305   -1.3590   23.1961 C   0  0  0  0  0  0  0  0  0  0  0  0
    7.1454   -0.4545   22.1481 N   0  0  0  0  0  0  0  0  0  0  0  0
    7.4137   -0.6840   20.8252 C   0  0  0  0  0  0  0  0  0  0  0  0
    8.2150   -1.5195   20.4512 O   0  0  0  0  0  0  0  0  0  0  0  0
    6.6559    0.1450   19.8466 C   0  0  0  0  0  0  0  0  0  0  0  0
    5.4318    0.7904   20.0812 C   0  0  0  0  0  0  0  0  0  0  0  0
    4.8071    1.4229   19.0083 C   0  0  0  0  0  0  0  0  0  0  0  0
    5.4284    1.3950   17.7529 C   0  0  0  0  0  0  0  0  0  0  0  0
    6.5858    0.7608   17.5143 N   0  0  0  0  0  0  0  0  0  0  0  0
    7.1773    0.1540   18.5443 C   0  0  0  0  0  0  0  0  0  0  0  0
    8.1137   -0.3534   18.3183 H   0  0  0  0  0  0  0  0  0  0  0  0
    4.9702    1.8935   16.9012 H   0  0  0  0  0  0  0  0  0  0  0  0
    3.8669    1.9507   19.1356 H   0  0  0  0  0  0  0  0  0  0  0  0
    4.9528    0.7816   21.0657 H   0  0  0  0  0  0  0  0  0  0  0  0
    6.6398    0.3805   22.3720 H   0  0  0  0  0  0  0  0  0  0  0  0
    7.7921   -0.8683   24.4635 C   0  0  0  0  0  0  0  0  0  0  0  0
    8.0919   -1.7529   25.5119 C   0  0  0  0  0  0  0  0  0  0  0  0
    7.9861   -3.1273   25.2557 C   0  0  0  0  0  0  0  0  0  0  0  0
    8.4040   -1.3883   26.4893 H   0  0  0  0  0  0  0  0  0  0  0  0
    7.8701    0.2089   24.5963 H   0  0  0  0  0  0  0  0  0  0  0  0
    7.0659   -3.0945   21.9731 H   0  0  0  0  0  0  0  0  0  0  0  0
    6.5380   -5.4905   23.8567 H   0  0  0  0  0  0  0  0  0  0  0  0
    8.2145   -5.5609   23.3018 H   0  0  0  0  0  0  0  0  0  0  0  0
    9.7526   -3.8262   27.4871 H   0  0  0  0  0  0  0  0  0  0  0  0
    8.5164   -4.9982   28.0059 H   0  0  0  0  0  0  0  0  0  0  0  0
    8.1172   -3.2639   27.9310 H   0  0  0  0  0  0  0  0  0  0  0  0
  1  2  1  0
  2  3  1  0
  3  4  2  0
  3  5  1  0
  5  6  1  0
  6  7  2  0
  7  8  1  0
  8  9  1  0
  9 10  1  0
 10 11  2  0
 10 12  1  0
 12 13  2  0
 13 14  1  0
 14 15  2  0
 15 16  1  0
 16 17  2  0
 17 18  1  0
 15 19  1  0
 14 20  1  0
 13 21  1  0
  9 22  1  0
  8 23  2  0
 23 24  1  0
 24 25  2  0
 24 26  1  0
 23 27  1  0
  7 28  1  0
  5 29  1  0
  5 30  1  0
  1 31  1  0
  1 32  1  0
  1 33  1  0
 25  2  1  0
 25  6  1  0
 17 12  1  0
M  END
>  <plip>  (1) 
-0.07142857142857142

>  <filename>  (1) 
[H][c]1[n][c]([H])[c]([C](=[O])[N]([H])[c]2[c]([H])[c]([H])[c]3[c]([c]2[H])[C]([H])([H])[C](=[O])[N]3[C]([H])([H])[H])[c]([H])[c]1[H]

$$$$
