
     RDKit          3D

 35 37  0  0  0  0  0  0  0  0999 V2000
    8.3205    1.8081   24.8010 Cl  0  0  0  0  0  0  0  0  0  0  0  0
    7.8169    0.1375   24.9270 C   0  0  0  0  0  0  0  0  0  0  0  0
    7.0789   -0.1676   25.9497 N   0  0  0  0  0  0  0  0  0  0  0  0
    6.6714   -1.4718   26.0828 C   0  0  0  0  0  0  0  0  0  0  0  0
    5.8664   -1.8218   27.2022 C   0  0  0  0  0  0  0  0  0  0  0  0
    5.4264   -3.1202   27.3611 C   0  0  0  0  0  0  0  0  0  0  0  0
    5.7784   -4.1207   26.4059 C   0  0  0  0  0  0  0  0  0  0  0  0
    6.5580   -3.8104   25.3207 C   0  0  0  0  0  0  0  0  0  0  0  0
    7.0266   -2.4774   25.1337 C   0  0  0  0  0  0  0  0  0  0  0  0
    7.8419   -2.0754   24.0425 C   0  0  0  0  0  0  0  0  0  0  0  0
    8.2671   -0.7687   23.9097 C   0  0  0  0  0  0  0  0  0  0  0  0
    9.1511   -0.3466   22.7490 C   0  0  0  0  0  0  0  0  0  0  0  0
    8.3223    0.2636   21.6841 N   0  0  0  0  0  4  0  0  0  0  0  0
    7.3950   -0.7148   20.9914 C   0  0  0  0  0  0  0  0  0  0  0  0
    6.6688    0.0337   19.9197 C   0  0  0  0  0  0  0  0  0  0  0  0
    5.4408    0.6680   20.1578 C   0  0  0  0  0  0  0  0  0  0  0  0
    4.8049    1.3175   19.1002 C   0  0  0  0  0  0  0  0  0  0  0  0
    5.4024    1.3008   17.8380 C   0  0  0  0  0  0  0  0  0  0  0  0
    6.5711    0.6910   17.5903 N   0  0  0  0  0  0  0  0  0  0  0  0
    7.1796    0.0863   18.6151 C   0  0  0  0  0  0  0  0  0  0  0  0
    8.1178   -0.4149   18.3684 H   0  0  0  0  0  0  0  0  0  0  0  0
    4.9302    1.7914   16.9863 H   0  0  0  0  0  0  0  0  0  0  0  0
    3.8695    1.8444   19.2407 H   0  0  0  0  0  0  0  0  0  0  0  0
    4.9902    0.6451   21.1538 H   0  0  0  0  0  0  0  0  0  0  0  0
    7.9721   -1.5527   20.5797 H   0  0  0  0  0  0  0  0  0  0  0  0
    6.6947   -1.1289   21.7203 H   0  0  0  0  0  0  0  0  0  0  0  0
    8.8444    0.7262   20.9130 H   0  0  0  0  0  0  0  0  0  0  0  0
    7.6947    0.9720   22.1389 H   0  0  0  0  0  0  0  0  0  0  0  0
    9.6211   -1.2590   22.3684 H   0  0  0  0  0  0  0  0  0  0  0  0
    9.9481    0.3250   23.0721 H   0  0  0  0  0  0  0  0  0  0  0  0
    8.1180   -2.8210   23.2944 H   0  0  0  0  0  0  0  0  0  0  0  0
    6.8364   -4.5673   24.5884 H   0  0  0  0  0  0  0  0  0  0  0  0
    5.4234   -5.1390   26.5489 H   0  0  0  0  0  0  0  0  0  0  0  0
    4.8090   -3.3948   28.2119 H   0  0  0  0  0  0  0  0  0  0  0  0
    5.6322   -1.0184   27.8953 H   0  0  0  0  0  0  0  0  0  0  0  0
  1  2  1  0
  2  3  2  0
  3  4  1  0
  4  5  2  0
  5  6  1  0
  6  7  2  0
  7  8  1  0
  8  9  2  0
  9 10  1  0
 10 11  2  0
 11 12  1  0
 12 13  1  0
 13 14  1  0
 14 15  1  0
 15 16  2  0
 16 17  1  0
 17 18  2  0
 18 19  1  0
 19 20  2  0
 20 21  1  0
 18 22  1  0
 17 23  1  0
 16 24  1  0
 14 25  1  0
 14 26  1  0
 13 27  1  0
 13 28  1  0
 12 29  1  0
 12 30  1  0
 10 31  1  0
  8 32  1  0
  7 33  1  0
  6 34  1  0
  5 35  1  0
 11  2  1  0
 20 15  1  0
  9  4  1  0
M  CHG  1  13   1
M  END
>  <plip>  (1) 
-0.03571428571428571

>  <filename>  (1) 
[H][c]1[n][c]([H])[c]([C]([H])([H])[N+]([H])([H])[C]([H])([H])[c]2[c]([Cl])[n][c]3[c]([H])[c]([H])[c]([H])[c]([H])[c]3[c]2[H])[c]([H])[c]1[H]

$$$$
