
     RDKit          3D

 32 35  0  0  0  0  0  0  0  0999 V2000
    4.9815    2.1238   16.1637 H   0  0  0  0  0  0  0  0  0  0  0  0
    5.3449    1.5830   17.0320 C   0  0  0  0  0  0  0  0  0  0  0  0
    6.4442    0.8358   16.8447 N   0  0  0  0  0  0  0  0  0  0  0  0
    6.9334    0.1881   17.9037 C   0  0  0  0  0  0  0  0  0  0  0  0
    7.8407   -0.3884   17.7324 H   0  0  0  0  0  0  0  0  0  0  0  0
    6.3615    0.2507   19.1929 C   0  0  0  0  0  0  0  0  0  0  0  0
    6.9316   -0.4515   20.2850 N   0  0  0  0  0  0  0  0  0  0  0  0
    6.8993   -0.1556   21.6501 C   0  0  0  0  0  0  0  0  0  0  0  0
    6.2864    0.7751   22.1728 O   0  0  0  0  0  0  0  0  0  0  0  0
    7.7171   -1.1711   22.2766 C   0  0  0  0  0  0  0  0  0  0  0  0
    7.9632   -1.0819   23.6811 C   0  0  0  0  0  0  0  0  0  0  0  0
    8.6664   -1.9041   24.4193 N   0  0  0  0  0  0  0  0  0  0  0  0
    8.6564   -1.3208   25.6757 C   0  0  0  0  0  0  0  0  0  0  0  0
    9.2298   -1.7422   26.8885 C   0  0  0  0  0  0  0  0  0  0  0  0
    9.7262   -2.7033   26.9510 H   0  0  0  0  0  0  0  0  0  0  0  0
    9.1437   -0.8945   27.9897 C   0  0  0  0  0  0  0  0  0  0  0  0
    9.6494   -1.1485   28.9123 H   0  0  0  0  0  0  0  0  0  0  0  0
    8.4193    0.3196   27.9351 C   0  0  0  0  0  0  0  0  0  0  0  0
    8.3733    0.9617   28.8130 H   0  0  0  0  0  0  0  0  0  0  0  0
    7.7782    0.7197   26.7646 C   0  0  0  0  0  0  0  0  0  0  0  0
    7.1753    1.6192   26.6845 H   0  0  0  0  0  0  0  0  0  0  0  0
    7.9214   -0.1161   25.6566 C   0  0  0  0  0  0  0  0  0  0  0  0
    7.4863   -0.0084   24.3719 N   0  0  0  0  0  0  0  0  0  0  0  0
    6.8740    0.6548   23.9156 H   0  0  0  0  0  0  0  0  0  0  0  0
    8.1536   -2.0165   21.3013 C   0  0  0  0  0  0  0  0  0  0  0  0
    8.7017   -2.9493   21.3767 H   0  0  0  0  0  0  0  0  0  0  0  0
    7.7863   -1.5294   20.0792 N   0  0  0  0  0  0  0  0  0  0  0  0
    7.5705   -2.1300   19.2928 H   0  0  0  0  0  0  0  0  0  0  0  0
    5.2108    1.0368   19.3794 C   0  0  0  0  0  0  0  0  0  0  0  0
    4.7577    1.1319   20.3645 H   0  0  0  0  0  0  0  0  0  0  0  0
    4.6943    1.6986   18.2634 C   0  0  0  0  0  0  0  0  0  0  0  0
    3.8045    2.3179   18.3331 H   0  0  0  0  0  0  0  0  0  0  0  0
  1  2  1  0
  2  3  2  0
  3  4  1  0
  4  5  1  0
  4  6  2  0
  6  7  1  0
  7  8  1  0
  8  9  2  0
  8 10  1  0
 10 11  1  0
 11 12  2  0
 12 13  1  0
 13 14  2  0
 14 15  1  0
 14 16  1  0
 16 17  1  0
 16 18  2  0
 18 19  1  0
 18 20  1  0
 20 21  1  0
 20 22  2  0
 22 23  1  0
 23 24  1  0
 10 25  2  0
 25 26  1  0
 25 27  1  0
 27 28  1  0
  6 29  1  0
 29 30  1  0
 29 31  2  0
 31 32  1  0
 31  2  1  0
 27  7  1  0
 23 11  1  0
 22 13  1  0
M  END
>  <plip>  (1) 
-0.13793103448275862

>  <filename>  (1) 
[H][c]1[n][c]([H])[c](-[n]2[c](=[O])[c](-[c]3[n][c]4[c]([H])[c]([H])[c]([H])[c]([H])[c]4[n]3[H])[c]([H])[n]2[H])[c]([H])[c]1[H]

$$$$
