
     RDKit          3D

 38 40  0  0  0  0  0  0  0  0999 V2000
    1.2233   -1.5253   25.6041 H   0  0  0  0  0  0  0  0  0  0  0  0
    1.8034   -1.4070   24.8292 O   0  0  0  0  0  0  0  0  0  0  0  0
    3.0253   -0.9251   25.3190 N   0  0  0  0  0  0  0  0  0  0  0  0
    3.7818   -1.4976   24.9637 H   0  0  0  0  0  0  0  0  0  0  0  0
    3.3332    0.4401   25.2488 C   0  0  0  0  0  0  0  0  0  0  0  0
    2.5211    1.3282   25.1241 O   0  0  0  0  0  0  0  0  0  0  0  0
    4.8277    0.7005   25.4399 C   0  0  0  0  0  0  0  0  0  0  0  0
    4.8833    1.6398   26.0031 H   0  0  0  0  0  0  0  0  0  0  0  0
    5.2814   -0.0803   26.0665 H   0  0  0  0  0  0  0  0  0  0  0  0
    5.5845    0.8431   24.1021 C   0  0  0  0  0  0  0  0  0  0  0  0
    5.7235   -0.1449   23.6454 H   0  0  0  0  0  0  0  0  0  0  0  0
    4.9898    1.4656   23.4112 H   0  0  0  0  0  0  0  0  0  0  0  0
    6.9855    1.4426   24.2132 C   0  0  0  0  0  0  0  0  0  0  0  0
    7.5766    0.8850   24.9546 H   0  0  0  0  0  0  0  0  0  0  0  0
    6.9261    2.4781   24.5742 H   0  0  0  0  0  0  0  0  0  0  0  0
    7.7339    1.4320   22.8584 C   0  0  0  0  0  0  0  0  0  0  0  0
    8.7314    1.8623   23.0195 H   0  0  0  0  0  0  0  0  0  0  0  0
    7.2283    2.0869   22.1342 H   0  0  0  0  0  0  0  0  0  0  0  0
    7.8605    0.0726   22.2381 C   0  0  0  0  0  0  0  0  0  0  0  0
    7.3925   -0.5147   21.0609 C   0  0  0  0  0  0  0  0  0  0  0  0
    6.6408    0.1006   19.9667 C   0  0  0  0  0  0  0  0  0  0  0  0
    7.1269   -0.0134   18.6533 C   0  0  0  0  0  0  0  0  0  0  0  0
    8.0149   -0.6072   18.4393 H   0  0  0  0  0  0  0  0  0  0  0  0
    6.5632    0.5898   17.6030 N   0  0  0  0  0  0  0  0  0  0  0  0
    5.4306    1.2782   17.8130 C   0  0  0  0  0  0  0  0  0  0  0  0
    4.9904    1.7566   16.9409 H   0  0  0  0  0  0  0  0  0  0  0  0
    4.8122    1.3753   19.0632 C   0  0  0  0  0  0  0  0  0  0  0  0
    3.8667    1.8932   19.1599 H   0  0  0  0  0  0  0  0  0  0  0  0
    5.4322    0.7845   20.1613 C   0  0  0  0  0  0  0  0  0  0  0  0
    4.9791    0.8195   21.1558 H   0  0  0  0  0  0  0  0  0  0  0  0
    7.7258   -1.8452   20.9826 N   0  0  0  0  0  0  0  0  0  0  0  0
    8.3494   -2.0803   22.1036 C   0  0  0  0  0  0  0  0  0  0  0  0
    9.1484   -3.4559   22.8247 S   0  0  0  0  0  0  0  0  0  0  0  0
    9.6809   -2.4433   24.1566 C   0  0  0  0  0  0  0  0  0  0  0  0
   10.2649   -2.8783   24.9539 H   0  0  0  0  0  0  0  0  0  0  0  0
    9.2596   -1.1730   24.0365 C   0  0  0  0  0  0  0  0  0  0  0  0
    9.4678   -0.3292   24.6815 H   0  0  0  0  0  0  0  0  0  0  0  0
    8.4862   -0.9752   22.8997 N   0  0  0  0  0  0  0  0  0  0  0  0
  1  2  1  0
  2  3  1  0
  3  4  1  0
  3  5  1  0
  5  6  2  0
  5  7  1  0
  7  8  1  0
  7  9  1  0
  7 10  1  0
 10 11  1  0
 10 12  1  0
 10 13  1  0
 13 14  1  0
 13 15  1  0
 13 16  1  0
 16 17  1  0
 16 18  1  0
 16 19  1  0
 19 20  2  0
 20 21  1  0
 21 22  2  0
 22 23  1  0
 22 24  1  0
 24 25  2  0
 25 26  1  0
 25 27  1  0
 27 28  1  0
 27 29  2  0
 29 30  1  0
 20 31  1  0
 31 32  2  0
 32 33  1  0
 33 34  1  0
 34 35  1  0
 34 36  2  0
 36 37  1  0
 36 38  1  0
 38 19  1  0
 29 21  1  0
 38 32  1  0
M  END
>  <plip>  (1) 
-0.14285714285714285

>  <filename>  (1) 
[H][O][N]([H])[C](=[O])[C]([H])([H])[C]([H])([H])[C]([H])([H])[C]([H])([H])[c]1[c](-[c]2[c]([H])[n][c]([H])[c]([H])[c]2[H])[n][c]2[s][c]([H])[c]([H])[n]12

$$$$
