
     RDKit          3D

 47 48  0  0  0  0  0  0  0  0999 V2000
    5.2699   -4.3412   22.6676 C   0  0  0  0  0  0  0  0  0  0  0  0
    6.2984   -3.5283   23.4675 C   0  0  0  0  0  0  0  0  0  0  0  0
    7.1640   -2.7027   22.4733 N   0  0  0  0  0  4  0  0  0  0  0  0
    6.4709   -1.5758   21.8086 C   0  0  0  0  0  0  0  0  0  0  0  0
    7.4345   -0.7090   20.9864 C   0  0  0  0  0  0  0  0  0  0  0  0
    6.6620    0.0145   19.8786 C   0  0  0  0  0  0  0  0  0  0  0  0
    5.4356    0.6627   20.1095 C   0  0  0  0  0  0  0  0  0  0  0  0
    4.7907    1.3211   19.0581 C   0  0  0  0  0  0  0  0  0  0  0  0
    5.3864    1.3073   17.7950 C   0  0  0  0  0  0  0  0  0  0  0  0
    6.5422    0.6798   17.5363 N   0  0  0  0  0  0  0  0  0  0  0  0
    7.1557    0.0652   18.5584 C   0  0  0  0  0  0  0  0  0  0  0  0
    8.1068   -0.4106   18.3121 H   0  0  0  0  0  0  0  0  0  0  0  0
    4.9253    1.8316   16.9587 H   0  0  0  0  0  0  0  0  0  0  0  0
    3.8584    1.8554   19.2079 H   0  0  0  0  0  0  0  0  0  0  0  0
    4.9879    0.6727   21.1074 H   0  0  0  0  0  0  0  0  0  0  0  0
    8.3136    0.2193   21.8917 C   0  0  0  0  0  0  0  0  0  0  0  0
    9.4648    0.7825   21.0545 C   0  0  0  0  0  0  0  0  0  0  0  0
   10.1428    1.4121   21.6398 H   0  0  0  0  0  0  0  0  0  0  0  0
   10.0604   -0.0032   20.5750 H   0  0  0  0  0  0  0  0  0  0  0  0
    9.0198    1.4039   20.2726 H   0  0  0  0  0  0  0  0  0  0  0  0
    7.5389    1.3798   22.5376 C   0  0  0  0  0  0  0  0  0  0  0  0
    6.6865    1.0512   23.1446 H   0  0  0  0  0  0  0  0  0  0  0  0
    7.1549    2.0552   21.7620 H   0  0  0  0  0  0  0  0  0  0  0  0
    8.1951    1.9757   23.1842 H   0  0  0  0  0  0  0  0  0  0  0  0
    8.7115   -0.4136   22.7096 H   0  0  0  0  0  0  0  0  0  0  0  0
    8.1269   -1.4066   20.4879 H   0  0  0  0  0  0  0  0  0  0  0  0
    5.6825   -1.9304   21.1350 H   0  0  0  0  0  0  0  0  0  0  0  0
    5.9776   -0.9538   22.5710 H   0  0  0  0  0  0  0  0  0  0  0  0
    7.5327   -3.3928   21.7543 H   0  0  0  0  0  0  0  0  0  0  0  0
    8.0086   -2.3235   22.9742 H   0  0  0  0  0  0  0  0  0  0  0  0
    7.2572   -4.3921   24.3090 C   0  0  0  0  0  0  0  0  0  0  0  0
    7.8042   -5.4271   23.6544 N   0  0  0  0  0  0  0  0  0  0  0  0
    8.6485   -6.2376   24.2978 C   0  0  0  0  0  0  0  0  0  0  0  0
    8.9876   -6.0806   25.6378 C   0  0  0  0  0  0  0  0  0  0  0  0
    8.4868   -4.9746   26.3236 C   0  0  0  0  0  0  0  0  0  0  0  0
    7.6364   -4.0974   25.6421 C   0  0  0  0  0  0  0  0  0  0  0  0
    7.1749   -2.8143   26.2626 C   0  0  0  0  0  0  0  0  0  0  0  0
    5.8328   -2.8149   26.4327 F   0  0  0  0  0  0  0  0  0  0  0  0
    7.4657   -1.7419   25.4856 F   0  0  0  0  0  0  0  0  0  0  0  0
    7.7266   -2.5640   27.4563 F   0  0  0  0  0  0  0  0  0  0  0  0
    8.7669   -4.7898   27.3603 H   0  0  0  0  0  0  0  0  0  0  0  0
    9.6127   -6.8270   26.1078 H   0  0  0  0  0  0  0  0  0  0  0  0
    9.0740   -7.0224   23.6833 H   0  0  0  0  0  0  0  0  0  0  0  0
    5.7874   -2.8122   24.1151 H   0  0  0  0  0  0  0  0  0  0  0  0
    4.5509   -3.6764   22.1786 H   0  0  0  0  0  0  0  0  0  0  0  0
    5.7621   -4.9422   21.8936 H   0  0  0  0  0  0  0  0  0  0  0  0
    4.7130   -5.0275   23.3101 H   0  0  0  0  0  0  0  0  0  0  0  0
  1  2  1  0
  2  3  1  0
  3  4  1  0
  4  5  1  0
  5  6  1  0
  6  7  2  0
  7  8  1  0
  8  9  2  0
  9 10  1  0
 10 11  2  0
 11 12  1  0
  9 13  1  0
  8 14  1  0
  7 15  1  0
  5 16  1  0
 16 17  1  0
 17 18  1  0
 17 19  1  0
 17 20  1  0
 16 21  1  0
 21 22  1  0
 21 23  1  0
 21 24  1  0
 16 25  1  0
  5 26  1  0
  4 27  1  0
  4 28  1  0
  3 29  1  0
  3 30  1  0
  2 31  1  0
 31 32  2  0
 32 33  1  0
 33 34  2  0
 34 35  1  0
 35 36  2  0
 36 37  1  0
 37 38  1  0
 37 39  1  0
 37 40  1  0
 35 41  1  0
 34 42  1  0
 33 43  1  0
  2 44  1  0
  1 45  1  0
  1 46  1  0
  1 47  1  0
 11  6  1  0
 36 31  1  0
M  CHG  1   3   1
M  END
>  <plip>  (1) 
-0.06666666666666667

>  <filename>  (1) 
[H][c]1[n][c]([C]([H])([C]([H])([H])[H])[N+]([H])([H])[C]([H])([H])[C]([H])([c]2[c]([H])[n][c]([H])[c]([H])[c]2[H])[C]([H])([C]([H])([H])[H])[C]([H])([H])[H])[c]([C]([F])([F])[F])[c]([H])[c]1[H]

$$$$
