
     RDKit          3D

 53 56  0  0  0  0  0  0  0  0999 V2000
    6.5771   -3.0204   20.7473 C   0  0  0  0  0  0  0  0  0  0  0  0
    6.6865   -1.8166   21.5954 N   0  0  0  0  0  4  0  0  0  0  0  0
    7.2292   -2.0757   22.9727 C   0  0  0  0  0  0  0  0  0  0  0  0
    7.9820   -0.7924   23.3717 C   0  0  0  0  0  0  0  0  0  0  0  0
    7.8617    0.1764   22.1687 C   0  0  1  0  0  0  0  0  0  0  0  0
    9.0877    1.0573   21.8669 C   0  0  0  0  0  0  0  0  0  0  0  0
    9.3923    2.0033   22.9229 N   0  0  0  0  0  0  0  0  0  0  0  0
    8.5676    3.0471   23.2172 C   0  0  0  0  0  0  0  0  0  0  0  0
    7.6818    3.4270   22.4759 O   0  0  0  0  0  0  0  0  0  0  0  0
    8.8981    3.6456   24.5611 C   0  0  2  0  0  0  0  0  0  0  0  0
    8.7352    2.8617   25.8431 C   0  0  0  0  0  0  0  0  0  0  0  0
    7.7781    3.9695   25.5054 C   0  0  1  0  0  0  0  0  0  0  0  0
    7.7748    5.2285   26.3167 C   0  0  0  0  0  0  0  0  0  0  0  0
    7.6158    5.1722   27.7137 C   0  0  0  0  0  0  0  0  0  0  0  0
    7.5945    6.3304   28.4910 C   0  0  0  0  0  0  0  0  0  0  0  0
    7.7340    7.5878   27.8801 C   0  0  0  0  0  0  0  0  0  0  0  0
    7.8007    8.7250   28.6403 N   0  0  0  0  0  0  0  0  0  0  0  0
    7.5584    8.6734   29.6107 H   0  0  0  0  0  0  0  0  0  0  0  0
    7.7361    9.6191   28.1906 H   0  0  0  0  0  0  0  0  0  0  0  0
    7.8451    7.6611   26.4827 C   0  0  0  0  0  0  0  0  0  0  0  0
    7.8631    6.4940   25.7155 C   0  0  0  0  0  0  0  0  0  0  0  0
    7.9587    6.5457   24.6315 H   0  0  0  0  0  0  0  0  0  0  0  0
    7.9179    8.6374   26.0155 H   0  0  0  0  0  0  0  0  0  0  0  0
    7.4742    6.2900   29.5697 H   0  0  0  0  0  0  0  0  0  0  0  0
    7.5241    4.1962   28.1899 H   0  0  0  0  0  0  0  0  0  0  0  0
    6.7914    3.6620   25.1584 H   0  0  0  0  0  0  0  0  0  0  0  0
    9.4671    3.0815   26.6080 H   0  0  0  0  0  0  0  0  0  0  0  0
    8.3836    1.8306   25.8242 H   0  0  0  0  0  0  0  0  0  0  0  0
    9.7590    4.3107   24.5216 H   0  0  0  0  0  0  0  0  0  0  0  0
    9.9921    1.7388   23.6836 H   0  0  0  0  0  0  0  0  0  0  0  0
    9.9811    0.4423   21.7054 H   0  0  0  0  0  0  0  0  0  0  0  0
    8.9107    1.6227   20.9434 H   0  0  0  0  0  0  0  0  0  0  0  0
    7.4891   -0.6944   20.9664 C   0  0  2  0  0  0  0  0  0  0  0  0
    6.6800    0.0031   19.8923 C   0  0  0  0  0  0  0  0  0  0  0  0
    5.4495    0.6413   20.1350 C   0  0  0  0  0  0  0  0  0  0  0  0
    4.8137    1.2979   19.0781 C   0  0  0  0  0  0  0  0  0  0  0  0
    5.4133    1.2895   17.8135 C   0  0  0  0  0  0  0  0  0  0  0  0
    6.5610    0.6546   17.5538 N   0  0  0  0  0  0  0  0  0  0  0  0
    7.1668    0.0367   18.5767 C   0  0  0  0  0  0  0  0  0  0  0  0
    8.1043   -0.4609   18.3313 H   0  0  0  0  0  0  0  0  0  0  0  0
    4.9468    1.8156   16.9789 H   0  0  0  0  0  0  0  0  0  0  0  0
    3.8807    1.8316   19.2174 H   0  0  0  0  0  0  0  0  0  0  0  0
    4.9962    0.6624   21.1328 H   0  0  0  0  0  0  0  0  0  0  0  0
    8.3978   -1.1297   20.5266 H   0  0  0  0  0  0  0  0  0  0  0  0
    7.0217    0.8596   22.3614 H   0  0  0  0  0  0  0  0  0  0  0  0
    9.0265   -1.0454   23.5977 H   0  0  0  0  0  0  0  0  0  0  0  0
    7.5622   -0.3452   24.2829 H   0  0  0  0  0  0  0  0  0  0  0  0
    6.4064   -2.3363   23.6479 H   0  0  0  0  0  0  0  0  0  0  0  0
    7.9165   -2.9267   22.9351 H   0  0  0  0  0  0  0  0  0  0  0  0
    5.7451   -1.3755   21.7073 H   0  0  0  0  0  0  0  0  0  0  0  0
    5.9580   -3.7893   21.2196 H   0  0  0  0  0  0  0  0  0  0  0  0
    6.1686   -2.7606   19.7662 H   0  0  0  0  0  0  0  0  0  0  0  0
    7.5752   -3.4516   20.5890 H   0  0  0  0  0  0  0  0  0  0  0  0
  1  2  1  0
  2  3  1  0
  3  4  1  0
  4  5  1  0
  5  6  1  0
  6  7  1  0
  7  8  1  0
  8  9  2  0
  8 10  1  0
 10 11  1  0
 11 12  1  0
 12 13  1  0
 13 14  2  0
 14 15  1  0
 15 16  2  0
 16 17  1  0
 17 18  1  0
 17 19  1  0
 16 20  1  0
 20 21  2  0
 21 22  1  0
 20 23  1  0
 15 24  1  0
 14 25  1  0
 12 26  1  6
 11 27  1  0
 11 28  1  0
 10 29  1  6
  7 30  1  0
  6 31  1  0
  6 32  1  0
  5 33  1  0
 33 34  1  0
 34 35  2  0
 35 36  1  0
 36 37  2  0
 37 38  1  0
 38 39  2  0
 39 40  1  0
 37 41  1  0
 36 42  1  0
 35 43  1  0
 33 44  1  6
  5 45  1  1
  4 46  1  0
  4 47  1  0
  3 48  1  0
  3 49  1  0
  2 50  1  0
  1 51  1  0
  1 52  1  0
  1 53  1  0
 33  2  1  0
 39 34  1  0
 12 10  1  0
 21 13  1  0
M  CHG  1   2   1
M  END
>  <plip>  (1) 
-0.10714285714285714

>  <filename>  (1) 
[H][c]1[n][c]([H])[c]([C@@]2([H])[C@]([H])([C]([H])([H])[N]([H])[C](=[O])[C@]3([H])[C]([H])([H])[C@@]3([H])[c]3[c]([H])[c]([H])[c]([N]([H])[H])[c]([H])[c]3[H])[C]([H])([H])[C]([H])([H])[N+]2([H])[C]([H])([H])[H])[c]([H])[c]1[H]

$$$$
