
     RDKit          3D

 41 43  0  0  0  0  0  0  0  0999 V2000
    8.8168   -1.0860   20.7719 C   0  0  0  0  0  0  0  0  0  0  0  0
    7.3503   -0.6909   21.0619 C   0  0  0  0  0  0  0  0  0  0  0  0
    7.3329    0.1910   22.2467 N   0  0  0  0  0  0  0  0  0  0  0  0
    7.9349    1.4268   22.2774 C   0  0  0  0  0  0  0  0  0  0  0  0
    8.5080    1.8959   21.3088 O   0  0  0  0  0  0  0  0  0  0  0  0
    7.8018    2.1763   23.6137 C   0  0  0  0  0  0  0  0  0  0  0  0
    6.3458    2.6880   23.8274 C   0  0  0  0  0  0  0  0  0  0  0  0
    6.1503    3.2448   25.2178 C   0  0  0  0  0  0  0  0  0  0  0  0
    6.8054    2.7358   26.2694 C   0  0  0  0  0  0  0  0  0  0  0  0
    7.8258    1.6882   26.1145 C   0  0  0  0  0  0  0  0  0  0  0  0
    8.3315    0.9888   27.2294 C   0  0  0  0  0  0  0  0  0  0  0  0
    9.3324    0.0368   27.0755 C   0  0  0  0  0  0  0  0  0  0  0  0
    9.8752   -0.1927   25.8052 C   0  0  0  0  0  0  0  0  0  0  0  0
    9.3683    0.4740   24.6967 C   0  0  0  0  0  0  0  0  0  0  0  0
    8.3198    1.3972   24.8227 C   0  0  0  0  0  0  0  0  0  0  0  0
    9.8043    0.2904   23.7190 H   0  0  0  0  0  0  0  0  0  0  0  0
   10.7060   -0.8694   25.6678 H   0  0  0  0  0  0  0  0  0  0  0  0
    9.7241   -0.4832   27.9474 H   0  0  0  0  0  0  0  0  0  0  0  0
    7.9507    1.2220   28.2189 H   0  0  0  0  0  0  0  0  0  0  0  0
    6.5821    3.0661   27.2828 H   0  0  0  0  0  0  0  0  0  0  0  0
    5.4081    4.0229   25.3662 H   0  0  0  0  0  0  0  0  0  0  0  0
    6.0944    3.4444   23.0723 H   0  0  0  0  0  0  0  0  0  0  0  0
    5.6288    1.8592   23.6887 H   0  0  0  0  0  0  0  0  0  0  0  0
    8.4601    3.0446   23.4611 H   0  0  0  0  0  0  0  0  0  0  0  0
    7.0587   -0.1682   23.1484 H   0  0  0  0  0  0  0  0  0  0  0  0
    6.4389   -2.3362   21.3479 C   0  0  0  0  0  0  0  0  0  0  0  0
    5.8361   -2.7404   20.3611 O   0  0  0  0  0  0  0  0  0  0  0  0
    6.6371   -2.7707   22.4776 O   0  0  0  0  0  1  0  0  0  0  0  0
    6.6661    0.0335   19.9119 C   0  0  0  0  0  0  0  0  0  0  0  0
    5.4249    0.6584   20.1234 C   0  0  0  0  0  0  0  0  0  0  0  0
    4.7873    1.3072   19.0664 C   0  0  0  0  0  0  0  0  0  0  0  0
    5.4098    1.2957   17.8109 C   0  0  0  0  0  0  0  0  0  0  0  0
    6.5810    0.6911   17.5677 N   0  0  0  0  0  0  0  0  0  0  0  0
    7.1832    0.0887   18.6074 C   0  0  0  0  0  0  0  0  0  0  0  0
    8.1380   -0.3872   18.3816 H   0  0  0  0  0  0  0  0  0  0  0  0
    4.9417    1.7912   16.9639 H   0  0  0  0  0  0  0  0  0  0  0  0
    3.8436    1.8278   19.2066 H   0  0  0  0  0  0  0  0  0  0  0  0
    4.9839    0.6473   21.1229 H   0  0  0  0  0  0  0  0  0  0  0  0
    9.3935   -0.1991   20.4927 H   0  0  0  0  0  0  0  0  0  0  0  0
    8.8878   -1.8312   19.9784 H   0  0  0  0  0  0  0  0  0  0  0  0
    9.2698   -1.5064   21.6767 H   0  0  0  0  0  0  0  0  0  0  0  0
  1  2  1  0
  2  3  1  0
  3  4  1  0
  4  5  2  0
  4  6  1  0
  6  7  1  0
  7  8  1  0
  8  9  2  0
  9 10  1  0
 10 11  2  0
 11 12  1  0
 12 13  2  0
 13 14  1  0
 14 15  2  0
 14 16  1  0
 13 17  1  0
 12 18  1  0
 11 19  1  0
  9 20  1  0
  8 21  1  0
  7 22  1  0
  7 23  1  0
  6 24  1  0
  3 25  1  0
  2 26  1  0
 26 27  2  0
 26 28  1  0
  2 29  1  0
 29 30  2  0
 30 31  1  0
 31 32  2  0
 32 33  1  0
 33 34  2  0
 34 35  1  0
 32 36  1  0
 31 37  1  0
 30 38  1  0
  1 39  1  0
  1 40  1  0
  1 41  1  0
 15  6  1  0
 34 29  1  0
 15 10  1  0
M  CHG  1  28  -1
M  END
>  <plip>  (1) 
-0.10344827586206896

>  <filename>  (1) 
[H][C]1=[C]([H])[C]([H])([H])[C]([H])([C](=[O])[N]([H])[C]([C](=[O])[O-])([c]2[c]([H])[n][c]([H])[c]([H])[c]2[H])[C]([H])([H])[H])[c]2[c]([H])[c]([H])[c]([H])[c]([H])[c]21

$$$$
