
     RDKit          3D

 27 29  0  0  0  0  0  0  0  0999 V2000
    4.9204    1.7806   16.9976 H   0  0  0  0  0  0  0  0  0  0  0  0
    5.4048    1.2900   17.8424 C   0  0  0  0  0  0  0  0  0  0  0  0
    6.5675    0.6686   17.5824 N   0  0  0  0  0  0  0  0  0  0  0  0
    7.1839    0.0574   18.5957 C   0  0  0  0  0  0  0  0  0  0  0  0
    8.1294   -0.4308   18.3742 H   0  0  0  0  0  0  0  0  0  0  0  0
    6.6707    0.0098   19.9020 C   0  0  0  0  0  0  0  0  0  0  0  0
    7.3695   -0.6917   20.9272 N   0  0  0  0  0  0  0  0  0  0  0  0
    8.6760   -1.0189   20.8320 N   0  0  0  0  0  0  0  0  0  0  0  0
    9.0041   -1.6544   21.9071 N   0  0  0  0  0  0  0  0  0  0  0  0
    7.9199   -1.7362   22.7394 C   0  0  0  0  0  0  0  0  0  0  0  0
    7.9251   -2.4281   24.0401 C   0  0  0  0  0  0  0  0  0  0  0  0
    8.6270   -3.6384   24.1680 C   0  0  0  0  0  0  0  0  0  0  0  0
    9.1957   -3.9905   23.3145 H   0  0  0  0  0  0  0  0  0  0  0  0
    8.6107   -4.3593   25.3579 C   0  0  0  0  0  0  0  0  0  0  0  0
    9.1728   -5.2838   25.4346 H   0  0  0  0  0  0  0  0  0  0  0  0
    7.8839   -3.8947   26.4552 C   0  0  0  0  0  0  0  0  0  0  0  0
    7.8628   -4.4498   27.3871 H   0  0  0  0  0  0  0  0  0  0  0  0
    7.1768   -2.6941   26.3507 C   0  0  0  0  0  0  0  0  0  0  0  0
    6.2499   -2.1348   27.6976 Cl  0  0  0  0  0  0  0  0  0  0  0  0
    7.2059   -1.9517   25.1600 C   0  0  0  0  0  0  0  0  0  0  0  0
    6.3717   -0.4320   25.1216 Cl  0  0  0  0  0  0  0  0  0  0  0  0
    6.8740   -1.1329   22.1037 C   0  0  0  0  0  0  0  0  0  0  0  0
    5.8548   -1.0187   22.3995 H   0  0  0  0  0  0  0  0  0  0  0  0
    5.4495    0.6456   20.1705 C   0  0  0  0  0  0  0  0  0  0  0  0
    5.0080    0.6442   21.1715 H   0  0  0  0  0  0  0  0  0  0  0  0
    4.8164    1.3034   19.1118 C   0  0  0  0  0  0  0  0  0  0  0  0
    3.8820    1.8357   19.2664 H   0  0  0  0  0  0  0  0  0  0  0  0
  1  2  1  0
  2  3  2  0
  3  4  1  0
  4  5  1  0
  4  6  2  0
  6  7  1  0
  7  8  1  0
  8  9  2  0
  9 10  1  0
 10 11  1  0
 11 12  2  0
 12 13  1  0
 12 14  1  0
 14 15  1  0
 14 16  2  0
 16 17  1  0
 16 18  1  0
 18 19  1  0
 18 20  2  0
 20 21  1  0
 10 22  2  0
 22 23  1  0
  6 24  1  0
 24 25  1  0
 24 26  2  0
 26 27  1  0
 26  2  1  0
 22  7  1  0
 20 11  1  0
M  END
>  <plip>  (1) 
-0.03571428571428571

>  <filename>  (1) 
[H][c]1[n][c]([H])[c](-[n]2[n][n][c](-[c]3[c]([H])[c]([H])[c]([H])[c]([Cl])[c]3[Cl])[c]2[H])[c]([H])[c]1[H]

$$$$
