
     RDKit          3D

 30 31  0  0  0  0  0  0  0  0999 V2000
   12.3761   -1.5235   21.7870 C   0  0  0  0  0  0  0  0  0  0  0  0
   11.6879   -0.7169   22.8303 C   0  0  0  0  0  0  0  0  0  0  0  0
   12.2486    0.0937   23.6947 N   0  0  0  0  0  0  0  0  0  0  0  0
   11.2401    0.6111   24.4496 C   0  0  0  0  0  0  0  0  0  0  0  0
   10.0401    0.0890   24.0341 C   0  0  0  0  0  0  0  0  0  0  0  0
    8.7187    0.3612   24.5417 N   0  0  0  0  0  4  0  0  0  0  0  0
    7.7477   -0.1734   24.0144 O   0  0  0  0  0  0  0  0  0  0  0  0
    8.6497    1.1249   25.4885 O   0  0  0  0  0  1  0  0  0  0  0  0
   10.3313   -0.7891   23.0048 N   0  0  0  0  0  0  0  0  0  0  0  0
    9.3667   -1.4852   22.1703 C   0  0  0  0  0  0  0  0  0  0  0  0
    8.8469   -0.6376   21.0108 C   0  0  0  0  0  0  0  0  0  0  0  0
    9.5866   -0.1094   20.2015 O   0  0  0  0  0  0  0  0  0  0  0  0
    7.4732   -0.5977   20.9178 N   0  0  0  0  0  0  0  0  0  0  0  0
    6.7387   -0.0047   19.8641 C   0  0  0  0  0  0  0  0  0  0  0  0
    5.5075    0.5907   20.1595 C   0  0  0  0  0  0  0  0  0  0  0  0
    4.8324    1.2548   19.1316 C   0  0  0  0  0  0  0  0  0  0  0  0
    5.3920    1.2752   17.8476 C   0  0  0  0  0  0  0  0  0  0  0  0
    6.5401    0.6507   17.5365 N   0  0  0  0  0  0  0  0  0  0  0  0
    7.1914    0.0266   18.5238 C   0  0  0  0  0  0  0  0  0  0  0  0
    8.1183   -0.4702   18.2622 H   0  0  0  0  0  0  0  0  0  0  0  0
    4.9043    1.8249   17.0464 H   0  0  0  0  0  0  0  0  0  0  0  0
    3.9015    1.7776   19.3250 H   0  0  0  0  0  0  0  0  0  0  0  0
    5.1020    0.5426   21.1740 H   0  0  0  0  0  0  0  0  0  0  0  0
    6.9993   -0.6427   21.8050 H   0  0  0  0  0  0  0  0  0  0  0  0
    9.8499   -2.3609   21.7368 H   0  0  0  0  0  0  0  0  0  0  0  0
    8.5456   -1.8438   22.7817 H   0  0  0  0  0  0  0  0  0  0  0  0
   11.4387    1.3095   25.2570 H   0  0  0  0  0  0  0  0  0  0  0  0
   13.4415   -1.2887   21.7699 H   0  0  0  0  0  0  0  0  0  0  0  0
   11.9253   -1.3346   20.8060 H   0  0  0  0  0  0  0  0  0  0  0  0
   12.2547   -2.5844   22.0250 H   0  0  0  0  0  0  0  0  0  0  0  0
  1  2  1  0
  2  3  2  0
  3  4  1  0
  4  5  2  0
  5  6  1  0
  6  7  2  0
  6  8  1  0
  5  9  1  0
  9 10  1  0
 10 11  1  0
 11 12  2  0
 11 13  1  0
 13 14  1  0
 14 15  2  0
 15 16  1  0
 16 17  2  0
 17 18  1  0
 18 19  2  0
 19 20  1  0
 17 21  1  0
 16 22  1  0
 15 23  1  0
 13 24  1  0
 10 25  1  0
 10 26  1  0
  4 27  1  0
  1 28  1  0
  1 29  1  0
  1 30  1  0
  9  2  1  0
 19 14  1  0
M  CHG  2   6   1   8  -1
M  END
>  <plip>  (1) 
-0.14285714285714285

>  <filename>  (1) 
[H][c]1[n][c]([H])[c]([N]([H])[C](=[O])[C]([H])([H])[n]2[c]([C]([H])([H])[H])[n][c]([H])[c]2[N+](=[O])[O-])[c]([H])[c]1[H]

$$$$
