
     RDKit          3D

 50 53  0  0  0  0  0  0  0  0999 V2000
   12.0993   -0.4446   22.5083 C   0  0  0  0  0  0  0  0  0  0  0  0
   11.5101    0.9044   22.2870 C   0  0  0  0  0  0  0  0  0  0  0  0
   10.4323    1.3604   21.6020 C   0  0  0  0  0  0  0  0  0  0  0  0
    9.3561    0.6356   20.8601 C   0  0  0  0  0  0  0  0  0  0  0  0
    8.2740    0.0862   21.8022 N   0  0  0  0  0  4  0  0  0  0  0  0
    7.0445   -0.6373   21.2000 C   0  0  0  0  0  0  0  0  0  0  0  0
    6.4550    0.0638   20.0041 C   0  0  0  0  0  0  0  0  0  0  0  0
    5.2394    0.7521   20.1199 C   0  0  0  0  0  0  0  0  0  0  0  0
    4.7147    1.4054   19.0032 C   0  0  0  0  0  0  0  0  0  0  0  0
    5.4207    1.3415   17.7990 C   0  0  0  0  0  0  0  0  0  0  0  0
    6.5786    0.6792   17.6619 N   0  0  0  0  0  0  0  0  0  0  0  0
    7.0766    0.0659   18.7438 C   0  0  0  0  0  0  0  0  0  0  0  0
    8.0356   -0.4360   18.5913 H   0  0  0  0  0  0  0  0  0  0  0  0
    5.0396    1.8344   16.9058 H   0  0  0  0  0  0  0  0  0  0  0  0
    3.7839    1.9602   19.0544 H   0  0  0  0  0  0  0  0  0  0  0  0
    4.7281    0.7722   21.0839 H   0  0  0  0  0  0  0  0  0  0  0  0
    7.4453   -2.1117   20.9998 C   0  0  0  0  0  0  0  0  0  0  0  0
    6.3179   -3.1125   20.7867 C   0  0  0  0  0  0  0  0  0  0  0  0
    6.9245   -4.3927   21.3809 C   0  0  0  0  0  0  0  0  0  0  0  0
    7.6648   -3.8302   22.5975 C   0  0  0  0  0  0  0  0  0  0  0  0
    8.0814   -2.5166   22.2335 O   0  0  0  0  0  0  0  0  0  0  0  0
    6.9916   -3.7680   23.4660 H   0  0  0  0  0  0  0  0  0  0  0  0
    8.5474   -4.4054   22.8954 H   0  0  0  0  0  0  0  0  0  0  0  0
    6.1945   -5.1522   21.6738 H   0  0  0  0  0  0  0  0  0  0  0  0
    7.6164   -4.8778   20.6838 H   0  0  0  0  0  0  0  0  0  0  0  0
    6.0131   -3.1716   19.7385 H   0  0  0  0  0  0  0  0  0  0  0  0
    5.4430   -2.8208   21.3815 H   0  0  0  0  0  0  0  0  0  0  0  0
    8.1980   -2.1586   20.2049 H   0  0  0  0  0  0  0  0  0  0  0  0
    6.2892   -0.6572   21.9901 H   0  0  0  0  0  0  0  0  0  0  0  0
    7.9310    0.8794   22.3914 H   0  0  0  0  0  0  0  0  0  0  0  0
    8.6955   -0.6741   22.4059 H   0  0  0  0  0  0  0  0  0  0  0  0
    8.9040    1.3687   20.1877 H   0  0  0  0  0  0  0  0  0  0  0  0
    9.7805   -0.1718   20.2531 H   0  0  0  0  0  0  0  0  0  0  0  0
   10.3639    2.7367   21.7429 N   0  0  0  0  0  0  0  0  0  0  0  0
   11.3610    3.0600   22.5033 C   0  0  0  0  0  0  0  0  0  0  0  0
   11.6384    4.3913   23.0848 C   0  0  0  0  0  0  0  0  0  0  0  0
   12.8200    4.6929   23.7908 C   0  0  0  0  0  0  0  0  0  0  0  0
   12.9327    5.9123   24.4615 C   0  0  0  0  0  0  0  0  0  0  0  0
   11.9022    6.8523   24.4202 C   0  0  0  0  0  0  0  0  0  0  0  0
   10.7526    6.5855   23.6686 C   0  0  0  0  0  0  0  0  0  0  0  0
   10.6249    5.3695   23.0005 C   0  0  0  0  0  0  0  0  0  0  0  0
    9.7242    5.1784   22.4183 H   0  0  0  0  0  0  0  0  0  0  0  0
    9.9475    7.3124   23.5950 H   0  0  0  0  0  0  0  0  0  0  0  0
   12.0174    7.7863   24.9690 H   0  0  0  0  0  0  0  0  0  0  0  0
   13.8166    6.1209   25.0533 H   0  0  0  0  0  0  0  0  0  0  0  0
   13.6451    3.9819   23.8171 H   0  0  0  0  0  0  0  0  0  0  0  0
   12.1191    1.9900   22.8612 O   0  0  0  0  0  0  0  0  0  0  0  0
   11.3285   -1.1522   22.8400 H   0  0  0  0  0  0  0  0  0  0  0  0
   12.5232   -0.8546   21.5827 H   0  0  0  0  0  0  0  0  0  0  0  0
   12.8879   -0.4063   23.2618 H   0  0  0  0  0  0  0  0  0  0  0  0
  1  2  1  0
  2  3  2  0
  3  4  1  0
  4  5  1  0
  5  6  1  0
  6  7  1  0
  7  8  2  0
  8  9  1  0
  9 10  2  0
 10 11  1  0
 11 12  2  0
 12 13  1  0
 10 14  1  0
  9 15  1  0
  8 16  1  0
  6 17  1  0
 17 18  1  0
 18 19  1  0
 19 20  1  0
 20 21  1  0
 20 22  1  0
 20 23  1  0
 19 24  1  0
 19 25  1  0
 18 26  1  0
 18 27  1  0
 17 28  1  0
  6 29  1  0
  5 30  1  0
  5 31  1  0
  4 32  1  0
  4 33  1  0
  3 34  1  0
 34 35  2  0
 35 36  1  0
 36 37  2  0
 37 38  1  0
 38 39  2  0
 39 40  1  0
 40 41  2  0
 41 42  1  0
 40 43  1  0
 39 44  1  0
 38 45  1  0
 37 46  1  0
 35 47  1  0
  1 48  1  0
  1 49  1  0
  1 50  1  0
 47  2  1  0
 12  7  1  0
 21 17  1  0
 41 36  1  0
M  CHG  1   5   1
M  END
>  <plip>  (1) 
-0.10344827586206896

>  <filename>  (1) 
[H][c]1[n][c]([H])[c]([C]([H])([C]2([H])[O][C]([H])([H])[C]([H])([H])[C]2([H])[H])[N+]([H])([H])[C]([H])([H])[c]2[n][c](-[c]3[c]([H])[c]([H])[c]([H])[c]([H])[c]3[H])[o][c]2[C]([H])([H])[H])[c]([H])[c]1[H]

$$$$
