
     RDKit          3D

 54 57  0  0  0  0  0  0  0  0999 V2000
    9.3413    0.8663   20.8281 C   0  0  0  0  0  0  0  0  0  0  0  0
    8.4207    0.1895   21.8333 N   0  0  0  0  0  4  0  0  0  0  0  0
    9.1714   -0.8215   22.6695 C   0  0  0  0  0  0  0  0  0  0  0  0
    9.0288   -2.1521   21.9190 C   0  0  0  0  0  0  0  0  0  0  0  0
    7.8078   -1.9842   20.9878 C   0  0  1  0  0  0  0  0  0  0  0  0
    6.8091   -3.1350   20.9435 C   0  0  0  0  0  0  0  0  0  0  0  0
    6.0681   -3.2602   22.1969 N   0  0  0  0  0  0  0  0  0  0  0  0
    5.2771   -4.3576   22.4192 C   0  0  0  0  0  0  0  0  0  0  0  0
    4.9256   -5.0755   21.4976 O   0  0  0  0  0  0  0  0  0  0  0  0
    4.8812   -4.6090   23.8840 C   0  0  2  0  0  0  0  0  0  0  0  0
    3.7772   -3.7064   24.4362 C   0  0  0  0  0  0  0  0  0  0  0  0
    3.6014   -3.9029   25.5013 H   0  0  0  0  0  0  0  0  0  0  0  0
    3.9877   -2.6443   24.3151 H   0  0  0  0  0  0  0  0  0  0  0  0
    2.8245   -3.9264   23.9410 H   0  0  0  0  0  0  0  0  0  0  0  0
    5.9199   -5.1696   24.8399 C   0  0  0  0  0  0  0  0  0  0  0  0
    4.8368   -6.0710   24.3245 C   0  0  1  0  0  0  0  0  0  0  0  0
    3.7400   -6.5469   25.2315 C   0  0  0  0  0  0  0  0  0  0  0  0
    2.4346   -6.6158   24.7216 C   0  0  0  0  0  0  0  0  0  0  0  0
    1.3545   -6.9222   25.5544 C   0  0  0  0  0  0  0  0  0  0  0  0
    1.5797   -7.2195   26.9037 C   0  0  0  0  0  0  0  0  0  0  0  0
    2.8823   -7.1978   27.4133 C   0  0  0  0  0  0  0  0  0  0  0  0
    3.9566   -6.8581   26.5833 C   0  0  0  0  0  0  0  0  0  0  0  0
    4.9709   -6.8236   26.9757 H   0  0  0  0  0  0  0  0  0  0  0  0
    3.0695   -7.4391   28.4566 H   0  0  0  0  0  0  0  0  0  0  0  0
    0.7418   -7.4557   27.5546 H   0  0  0  0  0  0  0  0  0  0  0  0
    0.3483   -6.9156   25.1490 H   0  0  0  0  0  0  0  0  0  0  0  0
    2.2829   -6.3768   23.6706 H   0  0  0  0  0  0  0  0  0  0  0  0
    5.1186   -6.7935   23.5557 H   0  0  0  0  0  0  0  0  0  0  0  0
    5.8622   -4.8387   25.8798 H   0  0  0  0  0  0  0  0  0  0  0  0
    6.9319   -5.3485   24.4842 H   0  0  0  0  0  0  0  0  0  0  0  0
    6.4805   -2.8728   23.0306 H   0  0  0  0  0  0  0  0  0  0  0  0
    7.3383   -4.0758   20.7255 H   0  0  0  0  0  0  0  0  0  0  0  0
    6.0934   -3.0083   20.1216 H   0  0  0  0  0  0  0  0  0  0  0  0
    7.1855   -0.6154   21.2813 C   0  0  2  0  0  0  0  0  0  0  0  0
    6.5044    0.0332   20.1038 C   0  0  0  0  0  0  0  0  0  0  0  0
    5.2765    0.7067   20.2147 C   0  0  0  0  0  0  0  0  0  0  0  0
    4.7592    1.3504   19.0844 C   0  0  0  0  0  0  0  0  0  0  0  0
    5.4674    1.2809   17.8833 C   0  0  0  0  0  0  0  0  0  0  0  0
    6.6223    0.6174   17.7483 N   0  0  0  0  0  0  0  0  0  0  0  0
    7.1082    0.0061   18.8333 C   0  0  0  0  0  0  0  0  0  0  0  0
    8.0454   -0.5300   18.6726 H   0  0  0  0  0  0  0  0  0  0  0  0
    5.0975    1.7676   16.9826 H   0  0  0  0  0  0  0  0  0  0  0  0
    3.8284    1.9048   19.1182 H   0  0  0  0  0  0  0  0  0  0  0  0
    4.7326    0.7292   21.1612 H   0  0  0  0  0  0  0  0  0  0  0  0
    6.4869   -0.6605   22.1207 H   0  0  0  0  0  0  0  0  0  0  0  0
    8.2165   -1.8619   19.9887 H   0  0  0  0  0  0  0  0  0  0  0  0
    9.9274   -2.3578   21.3244 H   0  0  0  0  0  0  0  0  0  0  0  0
    8.9359   -2.9904   22.6129 H   0  0  0  0  0  0  0  0  0  0  0  0
   10.2127   -0.5169   22.7773 H   0  0  0  0  0  0  0  0  0  0  0  0
    8.7352   -0.8631   23.6699 H   0  0  0  0  0  0  0  0  0  0  0  0
    8.0117    0.9287   22.4262 H   0  0  0  0  0  0  0  0  0  0  0  0
   10.1983    1.3298   21.3323 H   0  0  0  0  0  0  0  0  0  0  0  0
    9.7433    0.1495   20.1051 H   0  0  0  0  0  0  0  0  0  0  0  0
    8.7959    1.6408   20.2873 H   0  0  0  0  0  0  0  0  0  0  0  0
  1  2  1  0
  2  3  1  0
  3  4  1  0
  4  5  1  0
  5  6  1  0
  6  7  1  0
  7  8  1  0
  8  9  2  0
  8 10  1  0
 10 11  1  1
 11 12  1  0
 11 13  1  0
 11 14  1  0
 10 15  1  0
 15 16  1  0
 16 17  1  0
 17 18  2  0
 18 19  1  0
 19 20  2  0
 20 21  1  0
 21 22  2  0
 22 23  1  0
 21 24  1  0
 20 25  1  0
 19 26  1  0
 18 27  1  0
 16 28  1  6
 15 29  1  0
 15 30  1  0
  7 31  1  0
  6 32  1  0
  6 33  1  0
  5 34  1  0
 34 35  1  0
 35 36  2  0
 36 37  1  0
 37 38  2  0
 38 39  1  0
 39 40  2  0
 40 41  1  0
 38 42  1  0
 37 43  1  0
 36 44  1  0
 34 45  1  1
  5 46  1  6
  4 47  1  0
  4 48  1  0
  3 49  1  0
  3 50  1  0
  2 51  1  0
  1 52  1  0
  1 53  1  0
  1 54  1  0
 34  2  1  0
 40 35  1  0
 16 10  1  0
 22 17  1  0
M  CHG  1   2   1
M  END
>  <plip>  (1) 
-0.06896551724137931

>  <filename>  (1) 
[H][c]1[n][c]([H])[c]([C@@]2([H])[C@]([H])([C]([H])([H])[N]([H])[C](=[O])[C@]3([C]([H])([H])[H])[C]([H])([H])[C@@]3([H])[c]3[c]([H])[c]([H])[c]([H])[c]([H])[c]3[H])[C]([H])([H])[C]([H])([H])[N+]2([H])[C]([H])([H])[H])[c]([H])[c]1[H]

$$$$
