
     RDKit          3D

 27 29  0  0  0  0  0  0  0  0999 V2000
    8.7242   -3.1155   22.2718 H   0  0  0  0  0  0  0  0  0  0  0  0
    8.3224   -2.1429   22.0127 C   0  0  0  0  0  0  0  0  0  0  0  0
    7.8716   -1.8095   20.7762 N   0  0  0  0  0  0  0  0  0  0  0  0
    7.4016   -0.5964   20.9373 C   0  0  0  0  0  0  0  0  0  0  0  0
    6.6274    0.0914   19.9117 C   0  0  0  0  0  0  0  0  0  0  0  0
    7.1453    0.0719   18.6108 C   0  0  0  0  0  0  0  0  0  0  0  0
    8.0832   -0.4467   18.4110 H   0  0  0  0  0  0  0  0  0  0  0  0
    6.5595    0.6735   17.5739 N   0  0  0  0  0  0  0  0  0  0  0  0
    5.3938    1.3022   17.8017 C   0  0  0  0  0  0  0  0  0  0  0  0
    4.9510    1.8097   16.9485 H   0  0  0  0  0  0  0  0  0  0  0  0
    4.7566    1.3182   19.0463 C   0  0  0  0  0  0  0  0  0  0  0  0
    3.8132    1.8355   19.1686 H   0  0  0  0  0  0  0  0  0  0  0  0
    5.3725    0.6882   20.1231 C   0  0  0  0  0  0  0  0  0  0  0  0
    4.9188    0.6883   21.1150 H   0  0  0  0  0  0  0  0  0  0  0  0
    7.6338   -0.1820   22.2173 N   0  0  0  0  0  0  0  0  0  0  0  0
    7.4040    1.0862   22.7618 C   0  0  0  0  0  0  0  0  0  0  0  0
    7.3208    2.0943   21.9123 N   0  0  0  0  0  0  0  0  0  0  0  0
    7.2105    3.2685   22.5028 C   0  0  0  0  0  0  0  0  0  0  0  0
    7.2459    4.3310   21.6961 N   0  0  0  0  0  0  0  0  0  0  0  0
    6.8499    4.0813   20.8148 H   0  0  0  0  0  0  0  0  0  0  0  0
    6.8229    5.0710   22.2149 H   0  0  0  0  0  0  0  0  0  0  0  0
    7.0333    3.5609   23.7794 N   0  0  0  0  0  0  0  0  0  0  0  0
    7.0848    2.5093   24.5926 C   0  0  0  0  0  0  0  0  0  0  0  0
    6.9712    2.7273   25.6551 H   0  0  0  0  0  0  0  0  0  0  0  0
    7.2786    1.2210   24.1450 C   0  0  0  0  0  0  0  0  0  0  0  0
    7.3520    0.3489   24.7693 H   0  0  0  0  0  0  0  0  0  0  0  0
    8.2075   -1.2123   22.9267 N   0  0  0  0  0  0  0  0  0  0  0  0
  1  2  1  0
  2  3  1  0
  3  4  2  0
  4  5  1  0
  5  6  2  0
  6  7  1  0
  6  8  1  0
  8  9  2  0
  9 10  1  0
  9 11  1  0
 11 12  1  0
 11 13  2  0
 13 14  1  0
  4 15  1  0
 15 16  1  0
 16 17  2  0
 17 18  1  0
 18 19  1  0
 19 20  1  0
 19 21  1  0
 18 22  2  0
 22 23  1  0
 23 24  1  0
 23 25  2  0
 25 26  1  0
 15 27  1  0
 27  2  2  0
 13  5  1  0
 25 16  1  0
M  END
>  <plip>  (1) 
-0.03571428571428571

>  <filename>  (1) 
[H][c]1[n][c](-[c]2[c]([H])[n][c]([H])[c]([H])[c]2[H])[n](-[c]2[n][c]([N]([H])[H])[n][c]([H])[c]2[H])[n]1

$$$$
