
     RDKit          3D

 40 42  0  0  0  0  0  0  0  0999 V2000
    8.7975    0.0397   21.2510 C   0  0  0  0  0  0  0  0  0  0  0  0
    7.4412   -0.6633   21.1137 C   0  0  0  0  0  0  0  0  0  0  0  0
    7.6017   -2.1120   21.0752 N   0  0  0  0  0  0  0  0  0  0  0  0
    8.0458   -2.7942   22.1698 C   0  0  0  0  0  0  0  0  0  0  0  0
    8.3777   -2.2364   23.1998 O   0  0  0  0  0  0  0  0  0  0  0  0
    8.1369   -4.3230   22.0116 C   0  0  0  0  0  0  0  0  0  0  0  0
    6.8533   -5.1069   22.1487 C   0  0  0  0  0  0  0  0  0  0  0  0
    6.4067   -5.6156   23.3310 C   0  0  0  0  0  0  0  0  0  0  0  0
    5.1369   -6.2947   23.4400 C   0  0  0  0  0  0  0  0  0  0  0  0
    4.5676   -6.6812   24.6805 C   0  0  0  0  0  0  0  0  0  0  0  0
    3.2755   -7.1702   24.7369 C   0  0  0  0  0  0  0  0  0  0  0  0
    2.5286   -7.3552   23.5521 C   0  0  0  0  0  0  0  0  0  0  0  0
    3.0869   -7.0430   22.3153 C   0  0  0  0  0  0  0  0  0  0  0  0
    4.3860   -6.5120   22.2560 C   0  0  0  0  0  0  0  0  0  0  0  0
    4.9832   -6.1580   21.0564 N   0  0  0  0  0  0  0  0  0  0  0  0
    6.0369   -5.3013   20.9242 C   0  0  0  0  0  0  0  0  0  0  0  0
    6.2173   -4.7686   19.8324 O   0  0  0  0  0  0  0  0  0  0  0  0
    4.5370   -6.2449   20.1624 H   0  0  0  0  0  0  0  0  0  0  0  0
    2.5236   -7.2165   21.4018 H   0  0  0  0  0  0  0  0  0  0  0  0
    1.5075   -7.7267   23.6176 H   0  0  0  0  0  0  0  0  0  0  0  0
    2.8421   -7.4328   25.6996 H   0  0  0  0  0  0  0  0  0  0  0  0
    5.1645   -6.5901   25.5869 H   0  0  0  0  0  0  0  0  0  0  0  0
    7.0158   -5.4988   24.2288 H   0  0  0  0  0  0  0  0  0  0  0  0
    8.8804   -4.6311   22.7576 H   0  0  0  0  0  0  0  0  0  0  0  0
    8.5230   -4.5098   21.0094 H   0  0  0  0  0  0  0  0  0  0  0  0
    7.1572   -2.6396   20.3382 H   0  0  0  0  0  0  0  0  0  0  0  0
    6.6640   -0.1485   19.9183 C   0  0  0  0  0  0  0  0  0  0  0  0
    5.4562    0.5407   20.1100 C   0  0  0  0  0  0  0  0  0  0  0  0
    4.8692    1.2156   19.0399 C   0  0  0  0  0  0  0  0  0  0  0  0
    5.5025    1.1673   17.7950 C   0  0  0  0  0  0  0  0  0  0  0  0
    6.6204    0.4636   17.5665 N   0  0  0  0  0  0  0  0  0  0  0  0
    7.1751   -0.1801   18.6074 C   0  0  0  0  0  0  0  0  0  0  0  0
    8.0906   -0.7227   18.3638 H   0  0  0  0  0  0  0  0  0  0  0  0
    5.0929    1.7125   16.9457 H   0  0  0  0  0  0  0  0  0  0  0  0
    3.9637    1.7987   19.1694 H   0  0  0  0  0  0  0  0  0  0  0  0
    4.9999    0.5572   21.1019 H   0  0  0  0  0  0  0  0  0  0  0  0
    6.8697   -0.4078   22.0198 H   0  0  0  0  0  0  0  0  0  0  0  0
    9.4202   -0.1210   20.3639 H   0  0  0  0  0  0  0  0  0  0  0  0
    9.3235   -0.3439   22.1280 H   0  0  0  0  0  0  0  0  0  0  0  0
    8.6317    1.1136   21.3784 H   0  0  0  0  0  0  0  0  0  0  0  0
  1  2  1  0
  2  3  1  0
  3  4  1  0
  4  5  2  0
  4  6  1  0
  6  7  1  0
  7  8  2  0
  8  9  1  0
  9 10  2  0
 10 11  1  0
 11 12  2  0
 12 13  1  0
 13 14  2  0
 14 15  1  0
 15 16  1  0
 16 17  2  0
 15 18  1  0
 13 19  1  0
 12 20  1  0
 11 21  1  0
 10 22  1  0
  8 23  1  0
  6 24  1  0
  6 25  1  0
  3 26  1  0
  2 27  1  0
 27 28  2  0
 28 29  1  0
 29 30  2  0
 30 31  1  0
 31 32  2  0
 32 33  1  0
 30 34  1  0
 29 35  1  0
 28 36  1  0
  2 37  1  0
  1 38  1  0
  1 39  1  0
  1 40  1  0
 16  7  1  0
 32 27  1  0
 14  9  1  0
M  END
>  <plip>  (1) 
-0.13793103448275862

>  <filename>  (1) 
[H][c]1[n][c]([H])[c]([C]([H])([N]([H])[C](=[O])[C]([H])([H])[c]2[c]([H])[c]3[c]([H])[c]([H])[c]([H])[c]([H])[c]3[n]([H])[c]2=[O])[C]([H])([H])[H])[c]([H])[c]1[H]

$$$$
