
     RDKit          3D

 39 41  0  0  0  0  0  0  0  0999 V2000
    8.2381    3.9991   26.0691 H   0  0  0  0  0  0  0  0  0  0  0  0
    9.2038    4.0386   26.1051 O   0  0  0  0  0  0  0  0  0  0  0  0
    9.6618    4.1978   24.7738 C   0  0  0  0  0  0  0  0  0  0  0  0
   10.7564    4.2392   24.8334 H   0  0  0  0  0  0  0  0  0  0  0  0
    9.3371    5.1676   24.3594 H   0  0  0  0  0  0  0  0  0  0  0  0
    9.2588    3.0613   23.8176 C   0  0  0  0  0  0  0  0  0  0  0  0
    9.5958    3.3949   22.8210 H   0  0  0  0  0  0  0  0  0  0  0  0
    9.9560    1.7223   24.1375 C   0  0  0  0  0  0  0  0  0  0  0  0
    9.6364    1.3782   25.1304 H   0  0  0  0  0  0  0  0  0  0  0  0
   11.0463    1.8501   24.1912 H   0  0  0  0  0  0  0  0  0  0  0  0
    9.5977    0.6593   23.0909 C   0  0  0  0  0  0  0  0  0  0  0  0
   10.0272    0.9290   22.1074 H   0  0  0  0  0  0  0  0  0  0  0  0
   10.0493   -0.2987   23.3725 H   0  0  0  0  0  0  0  0  0  0  0  0
    8.1443    0.4653   23.0173 N   0  0  0  0  0  0  0  0  0  0  0  0
    7.7129   -0.6822   22.2407 C   0  0  0  0  0  0  0  0  0  0  0  0
    7.8566   -0.7589   20.6790 C   0  0  0  0  0  0  0  0  0  0  0  0
    8.7323   -1.4418   20.1791 O   0  0  0  0  0  0  0  0  0  0  0  0
    6.8986   -0.0304   19.7716 C   0  0  0  0  0  0  0  0  0  0  0  0
    7.2809    0.0510   18.4186 C   0  0  0  0  0  0  0  0  0  0  0  0
    8.1970   -0.4310   18.0875 H   0  0  0  0  0  0  0  0  0  0  0  0
    6.5810    0.6969   17.4858 N   0  0  0  0  0  0  0  0  0  0  0  0
    5.4359    1.2821   17.8658 C   0  0  0  0  0  0  0  0  0  0  0  0
    4.9020    1.8241   17.0882 H   0  0  0  0  0  0  0  0  0  0  0  0
    4.9366    1.2220   19.1696 C   0  0  0  0  0  0  0  0  0  0  0  0
    4.0007    1.7160   19.4050 H   0  0  0  0  0  0  0  0  0  0  0  0
    5.6758    0.5504   20.1484 C   0  0  0  0  0  0  0  0  0  0  0  0
    5.2930    0.4934   21.1723 H   0  0  0  0  0  0  0  0  0  0  0  0
    7.9524   -1.9577   22.9970 C   0  0  0  0  0  0  0  0  0  0  0  0
    8.2507   -2.8291   22.4241 H   0  0  0  0  0  0  0  0  0  0  0  0
    8.4193   -1.8316   23.9719 H   0  0  0  0  0  0  0  0  0  0  0  0
    6.5557   -1.4376   22.8699 C   0  0  0  0  0  0  0  0  0  0  0  0
    5.8766   -1.9986   22.2280 H   0  0  0  0  0  0  0  0  0  0  0  0
    6.1368   -0.9900   23.7757 H   0  0  0  0  0  0  0  0  0  0  0  0
    7.3764    1.6783   22.7718 C   0  0  0  0  0  0  0  0  0  0  0  0
    7.4780    2.0284   21.7283 H   0  0  0  0  0  0  0  0  0  0  0  0
    6.3222    1.4322   22.9343 H   0  0  0  0  0  0  0  0  0  0  0  0
    7.7394    2.7995   23.7514 C   0  0  0  0  0  0  0  0  0  0  0  0
    7.3758    2.4976   24.7468 H   0  0  0  0  0  0  0  0  0  0  0  0
    7.1866    3.7059   23.4684 H   0  0  0  0  0  0  0  0  0  0  0  0
  1  2  1  0
  2  3  1  0
  3  4  1  0
  3  5  1  0
  3  6  1  0
  6  7  1  0
  6  8  1  0
  8  9  1  0
  8 10  1  0
  8 11  1  0
 11 12  1  0
 11 13  1  0
 11 14  1  0
 14 15  1  0
 15 16  1  0
 16 17  2  0
 16 18  1  0
 18 19  2  0
 19 20  1  0
 19 21  1  0
 21 22  2  0
 22 23  1  0
 22 24  1  0
 24 25  1  0
 24 26  2  0
 26 27  1  0
 15 28  1  0
 28 29  1  0
 28 30  1  0
 28 31  1  0
 31 32  1  0
 31 33  1  0
 14 34  1  0
 34 35  1  0
 34 36  1  0
 34 37  1  0
 37 38  1  0
 37 39  1  0
 37  6  1  0
 31 15  1  0
 26 18  1  0
M  END
>  <plip>  (1) 
-0.034482758620689655

>  <filename>  (1) 
[H][O][C]([H])([H])[C]1([H])[C]([H])([H])[C]([H])([H])[N]([C]2([C](=[O])[c]3[c]([H])[n][c]([H])[c]([H])[c]3[H])[C]([H])([H])[C]2([H])[H])[C]([H])([H])[C]1([H])[H]

$$$$
