
     RDKit          3D

 35 37  0  0  0  0  0  0  0  0999 V2000
   11.0419   -3.3358   22.9705 H   0  0  0  0  0  0  0  0  0  0  0  0
   10.8596   -2.9650   23.8427 O   0  0  0  0  0  0  0  0  0  0  0  0
    9.4471   -2.8816   24.0081 C   0  0  1  0  0  0  0  0  0  0  0  0
    9.0335   -3.8932   24.0848 H   0  0  0  0  0  0  0  0  0  0  0  0
    9.1509   -2.1469   25.3092 C   0  0  0  0  0  0  0  0  0  0  0  0
    9.8506   -0.9678   25.6028 C   0  0  0  0  0  0  0  0  0  0  0  0
   10.7189   -0.7038   25.0004 H   0  0  0  0  0  0  0  0  0  0  0  0
    9.4597   -0.1674   26.6704 C   0  0  0  0  0  0  0  0  0  0  0  0
    9.9717    0.7696   26.8177 H   0  0  0  0  0  0  0  0  0  0  0  0
    8.3954   -0.5413   27.4954 C   0  0  0  0  0  0  0  0  0  0  0  0
    8.1135    0.0710   28.3487 H   0  0  0  0  0  0  0  0  0  0  0  0
    7.6855   -1.7100   27.2127 C   0  0  0  0  0  0  0  0  0  0  0  0
    6.8170   -1.9650   27.8171 H   0  0  0  0  0  0  0  0  0  0  0  0
    8.0733   -2.5147   26.1337 C   0  0  0  0  0  0  0  0  0  0  0  0
    7.5221   -3.4311   25.9320 H   0  0  0  0  0  0  0  0  0  0  0  0
    8.6743   -2.1809   22.8641 C   0  0  0  0  0  0  0  0  0  0  0  0
    7.4439   -2.5523   22.4605 C   0  0  0  0  0  0  0  0  0  0  0  0
    6.9130   -3.4057   22.8460 H   0  0  0  0  0  0  0  0  0  0  0  0
    6.7051   -1.8401   21.4327 C   0  0  0  0  0  0  0  0  0  0  0  0
    5.6127   -2.2161   21.0578 O   0  0  0  0  0  0  0  0  0  0  0  0
    7.3301   -0.7080   20.8447 N   0  0  0  0  0  0  0  0  0  0  0  0
    6.6493    0.0257   19.7818 C   0  0  0  0  0  0  0  0  0  0  0  0
    7.1559    0.1050   18.4638 C   0  0  0  0  0  0  0  0  0  0  0  0
    8.1025   -0.3750   18.2215 H   0  0  0  0  0  0  0  0  0  0  0  0
    6.5304    0.7427   17.4651 N   0  0  0  0  0  0  0  0  0  0  0  0
    5.3723    1.3567   17.7545 C   0  0  0  0  0  0  0  0  0  0  0  0
    4.8852    1.8692   16.9291 H   0  0  0  0  0  0  0  0  0  0  0  0
    4.7984    1.3509   19.0275 C   0  0  0  0  0  0  0  0  0  0  0  0
    3.8678    1.8722   19.1982 H   0  0  0  0  0  0  0  0  0  0  0  0
    5.4427    0.6670   20.0640 C   0  0  0  0  0  0  0  0  0  0  0  0
    5.0291    0.6239   21.0709 H   0  0  0  0  0  0  0  0  0  0  0  0
    8.5584   -0.2522   21.3192 C   0  0  0  0  0  0  0  0  0  0  0  0
    9.1256    0.7340   20.9112 O   0  0  0  0  0  0  0  0  0  0  0  0
    9.1542   -1.0181   22.2982 N   0  0  0  0  0  0  0  0  0  0  0  0
   10.0180   -0.5814   22.5585 H   0  0  0  0  0  0  0  0  0  0  0  0
  1  2  1  0
  2  3  1  0
  3  4  1  1
  3  5  1  0
  5  6  2  0
  6  7  1  0
  6  8  1  0
  8  9  1  0
  8 10  2  0
 10 11  1  0
 10 12  1  0
 12 13  1  0
 12 14  2  0
 14 15  1  0
  3 16  1  0
 16 17  2  0
 17 18  1  0
 17 19  1  0
 19 20  2  0
 19 21  1  0
 21 22  1  0
 22 23  2  0
 23 24  1  0
 23 25  1  0
 25 26  2  0
 26 27  1  0
 26 28  1  0
 28 29  1  0
 28 30  2  0
 30 31  1  0
 21 32  1  0
 32 33  2  0
 32 34  1  0
 34 35  1  0
 14  5  1  0
 34 16  1  0
 30 22  1  0
M  END
>  <plip>  (1) 
-0.1

>  <filename>  (1) 
[H][O][C@@]([H])([c]1[c]([H])[c]([H])[c]([H])[c]([H])[c]1[H])[c]1[c]([H])[c](=[O])[n](-[c]2[c]([H])[n][c]([H])[c]([H])[c]2[H])[c](=[O])[n]1[H]

$$$$
