
     RDKit          3D

 28 28  0  0  0  0  0  0  0  0999 V2000
   11.1719   -5.0656   25.6248 H   0  0  0  0  0  0  0  0  0  0  0  0
   10.4792   -4.3783   25.7269 O   0  0  0  0  0  0  0  0  0  0  0  0
   10.7746   -3.6024   24.6757 C   0  0  0  0  0  0  0  0  0  0  0  0
   11.6661   -3.9427   23.9386 O   0  0  0  0  0  0  0  0  0  0  0  0
    9.9220   -2.2536   24.4982 C   0  0  0  0  0  0  0  0  0  0  0  0
    9.3518   -1.7759   25.4786 O   0  0  0  0  0  0  0  0  0  0  0  0
    9.8700   -1.6028   23.2080 C   0  0  0  0  0  0  0  0  0  0  0  0
   10.3511   -2.0661   22.3517 H   0  0  0  0  0  0  0  0  0  0  0  0
    9.1843   -0.4272   23.0409 C   0  0  0  0  0  0  0  0  0  0  0  0
    8.6149    0.1986   24.0458 O   0  0  0  0  0  0  0  0  0  0  0  0
    8.7959   -0.3736   24.8411 H   0  0  0  0  0  0  0  0  0  0  0  0
    8.8998    0.2905   21.4582 S   0  0  0  0  0  0  0  0  0  0  0  0
    7.2580   -0.5028   21.1862 C   0  0  1  0  0  0  0  0  0  0  0  0
    6.6537   -0.2787   22.0772 H   0  0  0  0  0  0  0  0  0  0  0  0
    6.5918    0.1567   20.0010 C   0  0  0  0  0  0  0  0  0  0  0  0
    7.1768    0.1332   18.7252 C   0  0  0  0  0  0  0  0  0  0  0  0
    8.1401   -0.3498   18.5661 H   0  0  0  0  0  0  0  0  0  0  0  0
    6.6271    0.6826   17.6342 N   0  0  0  0  0  0  0  0  0  0  0  0
    5.4451    1.2962   17.7829 C   0  0  0  0  0  0  0  0  0  0  0  0
    5.0221    1.7444   16.8866 H   0  0  0  0  0  0  0  0  0  0  0  0
    4.7679    1.3780   19.0027 C   0  0  0  0  0  0  0  0  0  0  0  0
    3.8170    1.8952   19.0618 H   0  0  0  0  0  0  0  0  0  0  0  0
    5.3507    0.7989   20.1299 C   0  0  0  0  0  0  0  0  0  0  0  0
    4.8583    0.8456   21.1027 H   0  0  0  0  0  0  0  0  0  0  0  0
    7.4281   -2.0276   21.0451 C   0  0  0  0  0  0  0  0  0  0  0  0
    8.3467   -2.2598   20.4962 H   0  0  0  0  0  0  0  0  0  0  0  0
    6.5803   -2.4750   20.5221 H   0  0  0  0  0  0  0  0  0  0  0  0
    7.5018   -2.5121   22.0267 H   0  0  0  0  0  0  0  0  0  0  0  0
  1  2  1  0
  2  3  1  0
  3  4  2  0
  3  5  1  0
  5  6  2  0
  5  7  1  0
  7  8  1  0
  7  9  2  3
  9 10  1  0
 10 11  1  0
  9 12  1  0
 12 13  1  0
 13 14  1  1
 13 15  1  0
 15 16  2  0
 16 17  1  0
 16 18  1  0
 18 19  2  0
 19 20  1  0
 19 21  1  0
 21 22  1  0
 21 23  2  0
 23 24  1  0
 13 25  1  0
 25 26  1  0
 25 27  1  0
 25 28  1  0
 23 15  1  0
M  END
>  <plip>  (1) 
-0.07142857142857142

>  <filename>  (1) 
[H][O][C](=[O])[C](=[O])[C]([H])=[C]([O][H])[S][C@@]([H])([c]1[c]([H])[n][c]([H])[c]([H])[c]1[H])[C]([H])([H])[H]

$$$$
