
     RDKit          3D

 20 21  0  0  0  0  0  0  0  0999 V2000
   11.7215    0.0958   21.4040 H   0  0  0  0  0  0  0  0  0  0  0  0
   10.8427   -0.5302   21.4461 C   0  0  0  0  0  0  0  0  0  0  0  0
   10.5711   -1.7128   21.9909 C   0  0  0  0  0  0  0  0  0  0  0  0
   11.1638   -2.4006   22.5813 H   0  0  0  0  0  0  0  0  0  0  0  0
    9.1371   -2.0357   21.7311 C   0  0  0  0  0  0  0  0  0  0  0  0
    8.5262   -2.9774   22.1517 O   0  0  0  0  0  0  0  0  0  0  0  0
    8.6512   -1.0096   20.8759 N   0  0  0  0  0  0  0  0  0  0  0  0
    7.3246   -0.6180   21.0264 O   0  0  0  0  0  0  0  0  0  0  0  0
    6.7469   -0.0212   19.9226 C   0  0  0  0  0  0  0  0  0  0  0  0
    7.2582    0.0017   18.6107 C   0  0  0  0  0  0  0  0  0  0  0  0
    8.2019   -0.4722   18.3489 H   0  0  0  0  0  0  0  0  0  0  0  0
    6.6196    0.6198   17.6059 N   0  0  0  0  0  0  0  0  0  0  0  0
    5.4628    1.2418   17.8781 C   0  0  0  0  0  0  0  0  0  0  0  0
    4.9852    1.7494   17.0485 H   0  0  0  0  0  0  0  0  0  0  0  0
    4.8706    1.2557   19.1475 C   0  0  0  0  0  0  0  0  0  0  0  0
    3.9295    1.7781   19.3086 H   0  0  0  0  0  0  0  0  0  0  0  0
    5.5262    0.6036   20.1906 C   0  0  0  0  0  0  0  0  0  0  0  0
    5.1352    0.5686   21.2073 H   0  0  0  0  0  0  0  0  0  0  0  0
    9.6009    0.0213   20.8551 C   0  0  0  0  0  0  0  0  0  0  0  0
    9.4202    1.1364   20.4601 O   0  0  0  0  0  0  0  0  0  0  0  0
  1  2  1  0
  2  3  2  0
  3  4  1  0
  3  5  1  0
  5  6  2  0
  5  7  1  0
  7  8  1  0
  8  9  1  0
  9 10  2  0
 10 11  1  0
 10 12  1  0
 12 13  2  0
 13 14  1  0
 13 15  1  0
 15 16  1  0
 15 17  2  0
 17 18  1  0
  7 19  1  0
 19 20  2  0
 19  2  1  0
 17  9  1  0
M  END
>  <plip>  (1) 
-0.06896551724137931

>  <filename>  (1) 
[H][C]1=[C]([H])[C](=[O])[N]([O][c]2[c]([H])[n][c]([H])[c]([H])[c]2[H])[C]1=[O]

$$$$
