
     RDKit          3D

 37 39  0  0  0  0  0  0  0  0999 V2000
    7.1852   -2.9795   19.5186 H   0  0  0  0  0  0  0  0  0  0  0  0
    6.3383   -2.8613   19.9680 O   0  0  0  0  0  0  0  0  0  0  0  0
    6.5731   -2.1566   21.1767 C   0  0  1  0  0  0  0  0  0  0  0  0
    5.5622   -1.8809   21.4952 H   0  0  0  0  0  0  0  0  0  0  0  0
    7.1195   -3.0953   22.2265 C   0  0  0  0  0  0  0  0  0  0  0  0
    8.2445   -3.8961   21.9823 C   0  0  0  0  0  0  0  0  0  0  0  0
    8.7447   -3.8560   21.0126 H   0  0  0  0  0  0  0  0  0  0  0  0
    8.7952   -4.7117   22.8868 N   0  0  0  0  0  0  0  0  0  0  0  0
    8.2330   -4.7846   24.1046 C   0  0  0  0  0  0  0  0  0  0  0  0
    8.8657   -5.6263   25.2249 C   0  0  0  0  0  0  0  0  0  0  0  0
    9.9255   -6.3405   24.8520 F   0  0  0  0  0  0  0  0  0  0  0  0
    9.2406   -4.8328   26.2533 F   0  0  0  0  0  0  0  0  0  0  0  0
    7.9546   -6.4810   25.7373 F   0  0  0  0  0  0  0  0  0  0  0  0
    7.0562   -4.0873   24.4248 C   0  0  0  0  0  0  0  0  0  0  0  0
    6.6127   -4.2006   25.4041 H   0  0  0  0  0  0  0  0  0  0  0  0
    6.4968   -3.2395   23.4795 C   0  0  0  0  0  0  0  0  0  0  0  0
    5.5824   -2.6912   23.7261 H   0  0  0  0  0  0  0  0  0  0  0  0
    7.3068   -0.7672   21.0175 C   0  0  0  0  0  0  0  0  0  0  0  0
    6.6396    0.0301   19.9003 C   0  0  0  0  0  0  0  0  0  0  0  0
    7.1478    0.0680   18.5883 C   0  0  0  0  0  0  0  0  0  0  0  0
    8.0953   -0.4220   18.3617 H   0  0  0  0  0  0  0  0  0  0  0  0
    6.5605    0.6851   17.5531 N   0  0  0  0  0  0  0  0  0  0  0  0
    5.4020    1.3157   17.7950 C   0  0  0  0  0  0  0  0  0  0  0  0
    4.9380    1.8156   16.9464 H   0  0  0  0  0  0  0  0  0  0  0  0
    4.7921    1.3386   19.0533 C   0  0  0  0  0  0  0  0  0  0  0  0
    3.8534    1.8607   19.1844 H   0  0  0  0  0  0  0  0  0  0  0  0
    5.4172    0.6876   20.1171 C   0  0  0  0  0  0  0  0  0  0  0  0
    4.9723    0.6998   21.1148 H   0  0  0  0  0  0  0  0  0  0  0  0
    7.3753   -0.0065   22.3919 C   0  0  0  0  0  0  0  0  0  0  0  0
    6.8777   -0.4970   23.2356 H   0  0  0  0  0  0  0  0  0  0  0  0
    7.0232    1.0265   22.3395 H   0  0  0  0  0  0  0  0  0  0  0  0
    8.9130   -0.1204   22.4142 C   0  0  0  0  0  0  0  0  0  0  0  0
    9.2994   -0.7994   23.1838 H   0  0  0  0  0  0  0  0  0  0  0  0
    9.4414    0.8385   22.4861 H   0  0  0  0  0  0  0  0  0  0  0  0
    8.8771   -0.7260   20.9934 C   0  0  0  0  0  0  0  0  0  0  0  0
    9.4150   -1.6698   20.8590 H   0  0  0  0  0  0  0  0  0  0  0  0
    9.2440   -0.0027   20.2596 H   0  0  0  0  0  0  0  0  0  0  0  0
  1  2  1  0
  2  3  1  0
  3  4  1  1
  3  5  1  0
  5  6  2  0
  6  7  1  0
  6  8  1  0
  8  9  2  0
  9 10  1  0
 10 11  1  0
 10 12  1  0
 10 13  1  0
  9 14  1  0
 14 15  1  0
 14 16  2  0
 16 17  1  0
  3 18  1  0
 18 19  1  0
 19 20  2  0
 20 21  1  0
 20 22  1  0
 22 23  2  0
 23 24  1  0
 23 25  1  0
 25 26  1  0
 25 27  2  0
 27 28  1  0
 18 29  1  0
 29 30  1  0
 29 31  1  0
 29 32  1  0
 32 33  1  0
 32 34  1  0
 32 35  1  0
 35 36  1  0
 35 37  1  0
 16  5  1  0
 35 18  1  0
 27 19  1  0
M  END
>  <plip>  (1) 
-0.1

>  <filename>  (1) 
[H][O][C@@]([H])([c]1[c]([H])[n][c]([C]([F])([F])[F])[c]([H])[c]1[H])[C]1([c]2[c]([H])[n][c]([H])[c]([H])[c]2[H])[C]([H])([H])[C]([H])([H])[C]1([H])[H]

$$$$
