
     RDKit          3D

 33 35  0  0  0  0  0  0  0  0999 V2000
    6.5208   -1.2843   21.7519 H   0  0  0  0  0  0  0  0  0  0  0  0
    7.1672   -0.6833   21.0973 C   0  0  0  0  0  0  0  0  0  0  0  0
    8.4516   -0.4542   21.4197 C   0  0  0  0  0  0  0  0  0  0  0  0
    9.2052   -1.1128   22.4858 C   0  0  0  0  0  0  0  0  0  0  0  0
    8.5432   -2.0505   23.2017 O   0  0  0  0  0  0  0  0  0  0  0  0
    9.1707   -2.8870   24.0988 C   0  0  0  0  0  0  0  0  0  0  0  0
   10.4465   -3.4262   23.9085 C   0  0  0  0  0  0  0  0  0  0  0  0
   11.0506   -3.1031   23.0669 H   0  0  0  0  0  0  0  0  0  0  0  0
   10.9034   -4.3574   24.8452 C   0  0  0  0  0  0  0  0  0  0  0  0
   11.8787   -4.8135   24.7146 H   0  0  0  0  0  0  0  0  0  0  0  0
   10.1328   -4.7044   25.9574 C   0  0  0  0  0  0  0  0  0  0  0  0
   10.5098   -5.4155   26.6817 H   0  0  0  0  0  0  0  0  0  0  0  0
    8.8693   -4.1256   26.1212 C   0  0  0  0  0  0  0  0  0  0  0  0
    7.8877   -4.5118   27.4984 Cl  0  0  0  0  0  0  0  0  0  0  0  0
    8.3670   -3.2302   25.1834 C   0  0  0  0  0  0  0  0  0  0  0  0
    7.3778   -2.7953   25.2749 H   0  0  0  0  0  0  0  0  0  0  0  0
   10.4056   -0.7284   22.6626 N   0  0  0  0  0  0  0  0  0  0  0  0
   10.6521    0.3932   21.7527 C   0  0  0  0  0  0  0  0  0  0  0  0
   10.8659    1.2895   22.3499 H   0  0  0  0  0  0  0  0  0  0  0  0
   11.5300    0.1599   21.1439 H   0  0  0  0  0  0  0  0  0  0  0  0
    9.4009    0.5870   20.8554 C   0  0  0  0  0  0  0  0  0  0  0  0
    9.6134    0.3783   19.8048 H   0  0  0  0  0  0  0  0  0  0  0  0
    9.0025    1.6073   20.8967 H   0  0  0  0  0  0  0  0  0  0  0  0
    6.5041   -0.0758   19.9304 C   0  0  0  0  0  0  0  0  0  0  0  0
    7.0847   -0.0428   18.6482 C   0  0  0  0  0  0  0  0  0  0  0  0
    7.9942   -0.6151   18.4759 H   0  0  0  0  0  0  0  0  0  0  0  0
    6.5882    0.6330   17.6039 N   0  0  0  0  0  0  0  0  0  0  0  0
    5.4475    1.3110   17.8099 C   0  0  0  0  0  0  0  0  0  0  0  0
    5.0735    1.8866   16.9663 H   0  0  0  0  0  0  0  0  0  0  0  0
    4.7446    1.2938   19.0219 C   0  0  0  0  0  0  0  0  0  0  0  0
    3.8206    1.8553   19.1210 H   0  0  0  0  0  0  0  0  0  0  0  0
    5.2725    0.5741   20.0935 C   0  0  0  0  0  0  0  0  0  0  0  0
    4.7698    0.5322   21.0603 H   0  0  0  0  0  0  0  0  0  0  0  0
  1  2  1  0
  2  3  2  3
  3  4  1  0
  4  5  1  0
  5  6  1  0
  6  7  2  0
  7  8  1  0
  7  9  1  0
  9 10  1  0
  9 11  2  0
 11 12  1  0
 11 13  1  0
 13 14  1  0
 13 15  2  0
 15 16  1  0
  4 17  2  0
 17 18  1  0
 18 19  1  0
 18 20  1  0
 18 21  1  0
 21 22  1  0
 21 23  1  0
  2 24  1  0
 24 25  2  0
 25 26  1  0
 25 27  1  0
 27 28  2  0
 28 29  1  0
 28 30  1  0
 30 31  1  0
 30 32  2  0
 32 33  1  0
 21  3  1  0
 32 24  1  0
 15  6  1  0
M  END
>  <plip>  (1) 
-0.03571428571428571

>  <filename>  (1) 
[H][C](=[C]1[C]([O][c]2[c]([H])[c]([H])[c]([H])[c]([Cl])[c]2[H])=[N][C]([H])([H])[C]1([H])[H])[c]1[c]([H])[n][c]([H])[c]([H])[c]1[H]

$$$$
