
     RDKit          3D

 39 40  0  0  0  0  0  0  0  0999 V2000
    6.9753    1.0656   22.3424 O   0  0  0  0  0  0  0  0  0  0  0  0
    7.3210   -0.0442   21.9946 C   0  0  0  0  0  0  0  0  0  0  0  0
    7.8443   -1.0650   22.9761 C   0  0  0  0  0  0  0  0  0  0  0  0
    6.6895   -1.9263   23.5082 C   0  0  0  0  0  0  0  0  0  0  0  0
    6.0838   -2.5790   22.3958 O   0  0  0  0  0  0  0  0  0  0  0  0
    5.4099   -1.9758   22.0569 H   0  0  0  0  0  0  0  0  0  0  0  0
    7.1356   -3.0089   24.4905 C   0  0  0  0  0  0  0  0  0  0  0  0
    7.5630   -2.3618   25.6816 O   0  0  0  0  0  0  0  0  0  0  0  0
    7.6431   -3.1600   26.8480 C   0  0  0  0  0  0  0  0  0  0  0  0
    6.3176   -3.3118   27.5795 C   0  0  0  0  0  0  0  0  0  0  0  0
    5.8829   -4.5557   28.0612 C   0  0  0  0  0  0  0  0  0  0  0  0
    4.7003   -4.6585   28.8036 C   0  0  0  0  0  0  0  0  0  0  0  0
    3.9240   -3.5236   29.0544 C   0  0  0  0  0  0  0  0  0  0  0  0
    4.3698   -2.2739   28.6077 C   0  0  0  0  0  0  0  0  0  0  0  0
    5.5656   -2.1643   27.8968 C   0  0  0  0  0  0  0  0  0  0  0  0
    5.9284   -1.1894   27.5782 H   0  0  0  0  0  0  0  0  0  0  0  0
    3.8065   -1.3742   28.8396 H   0  0  0  0  0  0  0  0  0  0  0  0
    2.9817   -3.6027   29.5947 H   0  0  0  0  0  0  0  0  0  0  0  0
    4.3878   -5.6232   29.1980 H   0  0  0  0  0  0  0  0  0  0  0  0
    6.4890   -5.4430   27.8787 H   0  0  0  0  0  0  0  0  0  0  0  0
    8.0883   -4.1469   26.6427 H   0  0  0  0  0  0  0  0  0  0  0  0
    8.3424   -2.6218   27.4983 H   0  0  0  0  0  0  0  0  0  0  0  0
    7.9589   -3.5899   24.0463 H   0  0  0  0  0  0  0  0  0  0  0  0
    6.2859   -3.6876   24.6635 H   0  0  0  0  0  0  0  0  0  0  0  0
    5.9736   -1.2926   24.0543 H   0  0  0  0  0  0  0  0  0  0  0  0
    8.5832   -1.7127   22.4919 H   0  0  0  0  0  0  0  0  0  0  0  0
    8.3163   -0.5314   23.8014 H   0  0  0  0  0  0  0  0  0  0  0  0
    7.2347   -0.4977   20.6992 N   0  0  0  0  0  0  0  0  0  0  0  0
    6.6244    0.1627   19.5984 C   0  0  0  0  0  0  0  0  0  0  0  0
    5.5033    0.9807   19.7927 C   0  0  0  0  0  0  0  0  0  0  0  0
    4.8866    1.5417   18.6690 C   0  0  0  0  0  0  0  0  0  0  0  0
    5.4332    1.3133   17.4022 C   0  0  0  0  0  0  0  0  0  0  0  0
    6.5329    0.5659   17.2046 N   0  0  0  0  0  0  0  0  0  0  0  0
    7.1072    0.0099   18.2778 C   0  0  0  0  0  0  0  0  0  0  0  0
    8.0134   -0.5679   18.0912 H   0  0  0  0  0  0  0  0  0  0  0  0
    4.9819    1.7450   16.5135 H   0  0  0  0  0  0  0  0  0  0  0  0
    4.0041    2.1660   18.7697 H   0  0  0  0  0  0  0  0  0  0  0  0
    5.1580    1.1743   20.8061 H   0  0  0  0  0  0  0  0  0  0  0  0
    7.5387   -1.4500   20.5672 H   0  0  0  0  0  0  0  0  0  0  0  0
  1  2  2  0
  2  3  1  0
  3  4  1  0
  4  5  1  0
  5  6  1  0
  4  7  1  0
  7  8  1  0
  8  9  1  0
  9 10  1  0
 10 11  2  0
 11 12  1  0
 12 13  2  0
 13 14  1  0
 14 15  2  0
 15 16  1  0
 14 17  1  0
 13 18  1  0
 12 19  1  0
 11 20  1  0
  9 21  1  0
  9 22  1  0
  7 23  1  0
  7 24  1  0
  4 25  1  0
  3 26  1  0
  3 27  1  0
  2 28  1  0
 28 29  1  0
 29 30  2  0
 30 31  1  0
 31 32  2  0
 32 33  1  0
 33 34  2  0
 34 35  1  0
 32 36  1  0
 31 37  1  0
 30 38  1  0
 28 39  1  0
 15 10  1  0
 34 29  1  0
M  END
>  <plip>  (1) 
-0.07142857142857142

>  <filename>  (1) 
[H][O][C]([H])([C]([H])([H])[O][C]([H])([H])[c]1[c]([H])[c]([H])[c]([H])[c]([H])[c]1[H])[C]([H])([H])[C](=[O])[N]([H])[c]1[c]([H])[n][c]([H])[c]([H])[c]1[H]

$$$$
