
     RDKit          3D

 34 35  0  0  0  0  0  0  0  0999 V2000
   10.6242   -0.6287   24.5128 C   0  0  0  0  0  0  0  0  0  0  0  0
   11.3318   -0.0661   23.2732 C   0  0  0  0  0  0  0  0  0  0  0  0
   11.1258    1.4326   23.1437 C   0  0  0  0  0  0  0  0  0  0  0  0
   11.8827    2.2987   23.9479 C   0  0  0  0  0  0  0  0  0  0  0  0
   11.6652    3.6774   23.8895 C   0  0  0  0  0  0  0  0  0  0  0  0
   10.6780    4.1497   23.0237 C   0  0  0  0  0  0  0  0  0  0  0  0
    9.9348    3.3412   22.2659 N   0  0  0  0  0  0  0  0  0  0  0  0
   10.1402    2.0158   22.3137 C   0  0  0  0  0  0  0  0  0  0  0  0
    9.2681    1.1727   21.3704 C   0  0  0  0  0  0  0  0  0  0  0  0
    8.2628    0.2940   22.0149 N   0  0  0  0  0  0  0  0  0  0  0  0
    7.5065   -0.8671   21.1361 S   0  0  0  0  0  0  0  0  0  0  0  0
    6.5298   -1.3734   22.0669 O   0  0  0  0  0  0  0  0  0  0  0  0
    8.5495   -1.6427   20.5059 O   0  0  0  0  0  0  0  0  0  0  0  0
    6.6395    0.0143   19.9332 C   0  0  0  0  0  0  0  0  0  0  0  0
    5.4238    0.6573   20.2042 C   0  0  0  0  0  0  0  0  0  0  0  0
    4.8212    1.3047   19.1348 C   0  0  0  0  0  0  0  0  0  0  0  0
    5.4394    1.2684   17.8795 C   0  0  0  0  0  0  0  0  0  0  0  0
    6.6046    0.6495   17.6463 N   0  0  0  0  0  0  0  0  0  0  0  0
    7.2024    0.0357   18.6663 C   0  0  0  0  0  0  0  0  0  0  0  0
    8.1423   -0.4616   18.4295 H   0  0  0  0  0  0  0  0  0  0  0  0
    4.9766    1.7523   17.0230 H   0  0  0  0  0  0  0  0  0  0  0  0
    3.8845    1.8334   19.2569 H   0  0  0  0  0  0  0  0  0  0  0  0
    4.9482    0.6402   21.1896 H   0  0  0  0  0  0  0  0  0  0  0  0
    7.4659    0.6670   22.5202 H   0  0  0  0  0  0  0  0  0  0  0  0
    9.9257    0.5147   20.7829 H   0  0  0  0  0  0  0  0  0  0  0  0
    8.7950    1.8787   20.6722 H   0  0  0  0  0  0  0  0  0  0  0  0
   10.4666    5.2129   22.9290 H   0  0  0  0  0  0  0  0  0  0  0  0
   12.2291    4.3772   24.4959 H   0  0  0  0  0  0  0  0  0  0  0  0
   12.6235    1.8701   24.6235 H   0  0  0  0  0  0  0  0  0  0  0  0
   10.9875   -0.5954   22.3737 H   0  0  0  0  0  0  0  0  0  0  0  0
   12.4122   -0.2533   23.3372 H   0  0  0  0  0  0  0  0  0  0  0  0
    9.5479   -0.4361   24.4601 H   0  0  0  0  0  0  0  0  0  0  0  0
   10.7591   -1.7098   24.5938 H   0  0  0  0  0  0  0  0  0  0  0  0
   11.0097   -0.1672   25.4303 H   0  0  0  0  0  0  0  0  0  0  0  0
  1  2  1  0
  2  3  1  0
  3  4  2  0
  4  5  1  0
  5  6  2  0
  6  7  1  0
  7  8  2  0
  8  9  1  0
  9 10  1  0
 10 11  1  0
 11 12  2  0
 11 13  2  0
 11 14  1  0
 14 15  2  0
 15 16  1  0
 16 17  2  0
 17 18  1  0
 18 19  2  0
 19 20  1  0
 17 21  1  0
 16 22  1  0
 15 23  1  0
 10 24  1  0
  9 25  1  0
  9 26  1  0
  6 27  1  0
  5 28  1  0
  4 29  1  0
  2 30  1  0
  2 31  1  0
  1 32  1  0
  1 33  1  0
  1 34  1  0
  8  3  1  0
 19 14  1  0
M  END
>  <plip>  (1) 
-0.0967741935483871

>  <filename>  (1) 
[H][c]1[n][c]([C]([H])([H])[N]([H])[S](=[O])(=[O])[c]2[c]([H])[n][c]([H])[c]([H])[c]2[H])[c]([C]([H])([H])[C]([H])([H])[H])[c]([H])[c]1[H]

$$$$
