
     RDKit          3D

 25 26  0  0  0  0  0  0  0  0999 V2000
    4.9415    1.7744   16.9972 H   0  0  0  0  0  0  0  0  0  0  0  0
    5.4090    1.2833   17.8539 C   0  0  0  0  0  0  0  0  0  0  0  0
    6.5765    0.6542   17.6244 N   0  0  0  0  0  0  0  0  0  0  0  0
    7.1745    0.0432   18.6537 C   0  0  0  0  0  0  0  0  0  0  0  0
    8.1186   -0.4413   18.4346 H   0  0  0  0  0  0  0  0  0  0  0  0
    6.6537   -0.0028   19.9597 C   0  0  0  0  0  0  0  0  0  0  0  0
    7.4198   -0.7180   20.9372 N   0  0  0  0  0  0  0  0  0  0  0  0
    6.9378   -0.7504   22.0925 N   0  0  0  0  0  0  0  0  0  0  0  0
    7.7179   -1.4734   23.0762 C   0  0  0  0  0  0  0  0  0  0  0  0
    7.1583   -1.4767   24.2932 N   0  0  0  0  0  0  0  0  0  0  0  0
    7.7833   -2.1189   25.2892 C   0  0  0  0  0  0  0  0  0  0  0  0
    7.1650   -2.1444   26.7251 C   0  0  0  0  0  0  0  0  0  0  0  0
    6.9645   -3.4131   27.1460 F   0  0  0  0  0  0  0  0  0  0  0  0
    8.0312   -1.6076   27.6106 F   0  0  0  0  0  0  0  0  0  0  0  0
    6.0074   -1.4954   26.8438 F   0  0  0  0  0  0  0  0  0  0  0  0
    9.0095   -2.7840   25.1049 C   0  0  0  0  0  0  0  0  0  0  0  0
    9.4931   -3.2930   25.9358 H   0  0  0  0  0  0  0  0  0  0  0  0
    9.5939   -2.7804   23.8318 C   0  0  0  0  0  0  0  0  0  0  0  0
   10.5454   -3.2880   23.6497 H   0  0  0  0  0  0  0  0  0  0  0  0
    8.9382   -2.1147   22.7984 C   0  0  0  0  0  0  0  0  0  0  0  0
    9.3039   -2.0502   21.7855 H   0  0  0  0  0  0  0  0  0  0  0  0
    5.4337    0.6483   20.1880 C   0  0  0  0  0  0  0  0  0  0  0  0
    5.0245    0.6179   21.1941 H   0  0  0  0  0  0  0  0  0  0  0  0
    4.8117    1.3021   19.1189 C   0  0  0  0  0  0  0  0  0  0  0  0
    3.8798    1.8376   19.2585 H   0  0  0  0  0  0  0  0  0  0  0  0
  1  2  1  0
  2  3  2  0
  3  4  1  0
  4  5  1  0
  4  6  2  0
  6  7  1  0
  7  8  2  3
  8  9  1  0
  9 10  2  0
 10 11  1  0
 11 12  1  0
 12 13  1  0
 12 14  1  0
 12 15  1  0
 11 16  2  0
 16 17  1  0
 16 18  1  0
 18 19  1  0
 18 20  2  0
 20 21  1  0
  6 22  1  0
 22 23  1  0
 22 24  2  0
 24 25  1  0
 24  2  1  0
 20  9  1  0
M  END
>  <plip>  (1) 
-0.0

>  <filename>  (1) 
[H][c]1[n][c]([H])[c]([N]=[N][c]2[n][c]([C]([F])([F])[F])[c]([H])[c]([H])[c]2[H])[c]([H])[c]1[H]

$$$$
