
     RDKit          3D

 39 41  0  0  0  0  0  0  0  0999 V2000
    9.8683   -7.3128   25.7746 N   0  0  0  0  0  0  0  0  0  0  0  0
    9.2283   -6.2966   25.3325 C   0  0  0  0  0  0  0  0  0  0  0  0
    8.3732   -6.6293   22.8604 C   0  0  0  0  0  0  0  0  0  0  0  0
    8.0678   -6.4557   23.1024 C   0  0  0  0  0  0  0  0  0  0  0  0
    8.0543   -4.9857   23.0664 C   0  0  0  0  0  0  0  0  0  0  0  0
    7.4622   -4.2399   21.9059 C   0  0  0  0  0  0  0  0  0  0  0  0
    7.6637   -2.7233   22.0596 C   0  0  0  0  0  0  0  0  0  0  0  0
    7.1352   -1.9814   20.8919 N   0  0  0  0  0  4  0  0  0  0  0  0
    7.4513   -0.5430   20.8624 C   0  0  0  0  0  0  0  0  0  0  0  0
    6.6596    0.0419   19.7400 C   0  0  0  0  0  0  0  0  0  0  0  0
    5.4907    0.7807   19.9616 C   0  0  0  0  0  0  0  0  0  0  0  0
    4.8379    1.3423   18.8638 C   0  0  0  0  0  0  0  0  0  0  0  0
    5.3793    1.1407   17.5906 C   0  0  0  0  0  0  0  0  0  0  0  0
    6.4751    0.4039   17.3573 N   0  0  0  0  0  0  0  0  0  0  0  0
    7.0885   -0.1328   18.4184 C   0  0  0  0  0  0  0  0  0  0  0  0
    7.9918   -0.7035   18.1965 H   0  0  0  0  0  0  0  0  0  0  0  0
    4.9137    1.5904   16.7164 H   0  0  0  0  0  0  0  0  0  0  0  0
    3.9466    1.9506   18.9823 H   0  0  0  0  0  0  0  0  0  0  0  0
    5.1063    0.9100   20.9763 H   0  0  0  0  0  0  0  0  0  0  0  0
    7.1770   -0.0713   21.8107 H   0  0  0  0  0  0  0  0  0  0  0  0
    8.5288   -0.3788   20.7301 H   0  0  0  0  0  0  0  0  0  0  0  0
    6.0864   -2.0668   20.8719 H   0  0  0  0  0  0  0  0  0  0  0  0
    7.4815   -2.3873   19.9884 H   0  0  0  0  0  0  0  0  0  0  0  0
    7.0125   -2.3075   23.3842 C   0  0  0  0  0  0  0  0  0  0  0  0
    7.8101   -2.9314   24.5308 C   0  0  0  0  0  0  0  0  0  0  0  0
    8.2281   -4.3604   24.2596 C   0  0  0  0  0  0  0  0  0  0  0  0
    8.8089   -5.0611   25.3781 C   0  0  0  0  0  0  0  0  0  0  0  0
    8.9751   -4.5596   26.3317 H   0  0  0  0  0  0  0  0  0  0  0  0
    8.7174   -2.3399   24.7314 H   0  0  0  0  0  0  0  0  0  0  0  0
    7.2323   -2.9063   25.4658 H   0  0  0  0  0  0  0  0  0  0  0  0
    5.9734   -2.6716   23.4084 H   0  0  0  0  0  0  0  0  0  0  0  0
    6.9714   -1.2158   23.4947 H   0  0  0  0  0  0  0  0  0  0  0  0
    8.7427   -2.5186   22.1423 H   0  0  0  0  0  0  0  0  0  0  0  0
    7.8883   -4.5188   20.9266 H   0  0  0  0  0  0  0  0  0  0  0  0
    6.3730   -4.4220   21.8439 H   0  0  0  0  0  0  0  0  0  0  0  0
    7.4094   -6.9934   22.2544 H   0  0  0  0  0  0  0  0  0  0  0  0
    9.3702   -6.9310   22.5269 H   0  0  0  0  0  0  0  0  0  0  0  0
   10.6262   -7.7492   25.2398 H   0  0  0  0  0  0  0  0  0  0  0  0
    9.8824   -7.5567   26.7676 H   0  0  0  0  0  0  0  0  0  0  0  0
  1  2  1  0
  2  3  2  0
  3  4  1  0
  4  5  2  0
  5  6  1  0
  6  7  1  0
  7  8  1  0
  8  9  1  0
  9 10  1  0
 10 11  2  0
 11 12  1  0
 12 13  2  0
 13 14  1  0
 14 15  2  0
 15 16  1  0
 13 17  1  0
 12 18  1  0
 11 19  1  0
  9 20  1  0
  9 21  1  0
  8 22  1  0
  8 23  1  0
  7 24  1  0
 24 25  1  0
 25 26  1  0
 26 27  2  0
 27 28  1  0
 25 29  1  0
 25 30  1  0
 24 31  1  0
 24 32  1  0
  7 33  1  0
  6 34  1  0
  6 35  1  0
  4 36  1  0
  3 37  1  0
  1 38  1  0
  1 39  1  0
 27  2  1  0
 26  5  1  0
 15 10  1  0
M  CHG  1   8   1
M  END
>  <plip>  (1) 
-0.16666666666666666

>  <filename>  (1) 
[H][c]1[n][c]([H])[c]([C]([H])([H])[N+]([H])([H])[C]2([H])[C]([H])([H])[c]3[c]([H])[c]([H])[c]([N]([H])[H])[c]([H])[c]3[C]([H])([H])[C]2([H])[H])[c]([H])[c]1[H]

$$$$
