
     RDKit          3D

 27 29  0  0  0  0  0  0  0  0999 V2000
    2.9902    2.8648   26.0974 H   0  0  0  0  0  0  0  0  0  0  0  0
    3.8999    2.8548   25.4998 C   0  0  0  0  0  0  0  0  0  0  0  0
    4.3028    1.6756   24.9075 N   0  0  0  0  0  0  0  0  0  0  0  0
    5.3911    1.8748   24.2363 C   0  0  0  0  0  0  0  0  0  0  0  0
    5.9460    0.8556   23.5336 N   0  0  0  0  0  0  0  0  0  0  0  0
    5.4949   -0.0191   23.7737 H   0  0  0  0  0  0  0  0  0  0  0  0
    7.2061    0.9512   22.8543 C   0  0  0  0  0  0  0  0  0  0  0  0
    8.0379    1.2015   23.5282 H   0  0  0  0  0  0  0  0  0  0  0  0
    7.1493    1.7264   22.0781 H   0  0  0  0  0  0  0  0  0  0  0  0
    7.5115   -0.3135   22.2362 N   0  0  0  0  0  0  0  0  0  0  0  0
    8.2551   -1.2407   22.8715 N   0  0  0  0  0  0  0  0  0  0  0  0
    8.5215   -2.1508   22.0059 N   0  0  0  0  0  0  0  0  0  0  0  0
    7.9921   -1.8465   20.8017 N   0  0  0  0  0  0  0  0  0  0  0  0
    7.3506   -0.7101   20.9573 C   0  0  0  0  0  0  0  0  0  0  0  0
    6.6329    0.0278   19.9185 C   0  0  0  0  0  0  0  0  0  0  0  0
    7.1562    0.0486   18.6155 C   0  0  0  0  0  0  0  0  0  0  0  0
    8.0970   -0.4503   18.3863 H   0  0  0  0  0  0  0  0  0  0  0  0
    6.5595    0.6693   17.5960 N   0  0  0  0  0  0  0  0  0  0  0  0
    5.3976    1.2982   17.8337 C   0  0  0  0  0  0  0  0  0  0  0  0
    4.9392    1.7993   16.9819 H   0  0  0  0  0  0  0  0  0  0  0  0
    4.7878    1.3254   19.0917 C   0  0  0  0  0  0  0  0  0  0  0  0
    3.8526    1.8554   19.2270 H   0  0  0  0  0  0  0  0  0  0  0  0
    5.4168    0.6839   20.1550 C   0  0  0  0  0  0  0  0  0  0  0  0
    4.9786    0.6840   21.1515 H   0  0  0  0  0  0  0  0  0  0  0  0
    6.0282    3.5066   24.2890 S   0  0  0  0  0  0  0  0  0  0  0  0
    4.6751    3.9416   25.2866 C   0  0  0  0  0  0  0  0  0  0  0  0
    4.5373    4.9551   25.6311 H   0  0  0  0  0  0  0  0  0  0  0  0
  1  2  1  0
  2  3  1  0
  3  4  2  0
  4  5  1  0
  5  6  1  0
  5  7  1  0
  7  8  1  0
  7  9  1  0
  7 10  1  0
 10 11  1  0
 11 12  2  0
 12 13  1  0
 13 14  2  0
 14 15  1  0
 15 16  2  0
 16 17  1  0
 16 18  1  0
 18 19  2  0
 19 20  1  0
 19 21  1  0
 21 22  1  0
 21 23  2  0
 23 24  1  0
  4 25  1  0
 25 26  1  0
 26 27  1  0
 26  2  2  0
 14 10  1  0
 23 15  1  0
M  END
>  <plip>  (1) 
-0.10344827586206896

>  <filename>  (1) 
[H][c]1[n][c]([N]([H])[C]([H])([H])[n]2[n][n][n][c]2-[c]2[c]([H])[n][c]([H])[c]([H])[c]2[H])[s][c]1[H]

$$$$
