
     RDKit          3D

 35 38  0  0  0  0  0  0  0  0999 V2000
    4.9822    1.8350   17.0703 H   0  0  0  0  0  0  0  0  0  0  0  0
    5.4592    1.2721   17.8707 C   0  0  0  0  0  0  0  0  0  0  0  0
    6.6126    0.6595   17.5610 N   0  0  0  0  0  0  0  0  0  0  0  0
    7.2154   -0.0346   18.5346 C   0  0  0  0  0  0  0  0  0  0  0  0
    8.1629   -0.5025   18.2740 H   0  0  0  0  0  0  0  0  0  0  0  0
    6.7025   -0.1873   19.8335 C   0  0  0  0  0  0  0  0  0  0  0  0
    7.4867   -0.9308   20.8371 C   0  0  0  0  0  0  0  0  0  0  0  0
    8.8025   -0.7691   21.0892 C   0  0  0  0  0  0  0  0  0  0  0  0
    9.5217   -0.2081   20.5009 H   0  0  0  0  0  0  0  0  0  0  0  0
    9.2852   -1.4940   22.6006 S   0  0  0  0  0  0  0  0  0  0  0  0
    7.6662   -2.0863   22.8492 C   0  0  0  0  0  0  0  0  0  0  0  0
    7.0036   -2.8078   23.7330 N   0  0  0  0  0  0  0  0  0  0  0  0
    5.7914   -2.8971   23.1195 C   0  0  0  0  0  0  0  0  0  0  0  0
    4.7332   -3.5025   23.6615 O   0  0  0  0  0  0  0  0  0  0  0  0
    4.7794   -3.9430   25.0235 C   0  0  0  0  0  0  0  0  0  0  0  0
    5.2701   -3.2073   25.6749 H   0  0  0  0  0  0  0  0  0  0  0  0
    5.3314   -4.8832   25.1074 H   0  0  0  0  0  0  0  0  0  0  0  0
    3.3616   -4.2393   25.4958 C   0  0  1  0  0  0  0  0  0  0  0  0
    2.8471   -4.7927   24.6933 H   0  0  0  0  0  0  0  0  0  0  0  0
    3.4909   -5.0772   26.6422 O   0  0  0  0  0  0  0  0  0  0  0  0
    2.4875   -4.7904   27.6051 C   0  0  0  0  0  0  0  0  0  0  0  0
    2.9810   -4.4522   28.5254 H   0  0  0  0  0  0  0  0  0  0  0  0
    1.9310   -5.7099   27.8333 H   0  0  0  0  0  0  0  0  0  0  0  0
    1.5939   -3.6967   27.0056 C   0  0  0  0  0  0  0  0  0  0  0  0
    0.7021   -4.1381   26.5465 H   0  0  0  0  0  0  0  0  0  0  0  0
    1.2646   -2.9880   27.7701 H   0  0  0  0  0  0  0  0  0  0  0  0
    2.4923   -3.0521   25.9401 C   0  0  0  0  0  0  0  0  0  0  0  0
    1.9276   -2.6231   25.1055 H   0  0  0  0  0  0  0  0  0  0  0  0
    3.1077   -2.2571   26.3830 H   0  0  0  0  0  0  0  0  0  0  0  0
    5.6645   -2.3364   21.9218 N   0  0  0  0  0  0  0  0  0  0  0  0
    6.8900   -1.7437   21.8033 N   0  0  0  0  0  0  0  0  0  0  0  0
    5.5041    0.4771   20.1436 C   0  0  0  0  0  0  0  0  0  0  0  0
    5.1058    0.4359   21.1586 H   0  0  0  0  0  0  0  0  0  0  0  0
    4.8764    1.2143   19.1411 C   0  0  0  0  0  0  0  0  0  0  0  0
    3.9674    1.7679   19.3393 H   0  0  0  0  0  0  0  0  0  0  0  0
  1  2  1  0
  2  3  2  0
  3  4  1  0
  4  5  1  0
  4  6  2  0
  6  7  1  0
  7  8  2  0
  8  9  1  0
  8 10  1  0
 10 11  1  0
 11 12  2  0
 12 13  1  0
 13 14  1  0
 14 15  1  0
 15 16  1  0
 15 17  1  0
 15 18  1  0
 18 19  1  6
 18 20  1  0
 20 21  1  0
 21 22  1  0
 21 23  1  0
 21 24  1  0
 24 25  1  0
 24 26  1  0
 24 27  1  0
 27 28  1  0
 27 29  1  0
 13 30  2  0
 30 31  1  0
  6 32  1  0
 32 33  1  0
 32 34  2  0
 34 35  1  0
 34  2  1  0
 31  7  1  0
 31 11  1  0
 27 18  1  0
M  END
>  <plip>  (1) 
-0.03571428571428571

>  <filename>  (1) 
[H][c]1[n][c]([H])[c](-[c]2[c]([H])[s][c]3[n][c]([O][C]([H])([H])[C@@]4([H])[O][C]([H])([H])[C]([H])([H])[C]4([H])[H])[n][n]23)[c]([H])[c]1[H]

$$$$
