
     RDKit          3D

 28 29  0  0  0  0  0  0  0  0999 V2000
    4.9379    1.7873   16.9935 H   0  0  0  0  0  0  0  0  0  0  0  0
    5.4007    1.2855   17.8435 C   0  0  0  0  0  0  0  0  0  0  0  0
    6.5644    0.6635   17.6016 N   0  0  0  0  0  0  0  0  0  0  0  0
    7.1747    0.0613   18.6280 C   0  0  0  0  0  0  0  0  0  0  0  0
    8.1270   -0.4112   18.3875 H   0  0  0  0  0  0  0  0  0  0  0  0
    6.6618    0.0380   19.9355 C   0  0  0  0  0  0  0  0  0  0  0  0
    7.3818   -0.6336   20.9665 N   0  0  0  0  0  0  0  0  0  0  0  0
    7.7023   -1.9634   20.9021 C   0  0  0  0  0  0  0  0  0  0  0  0
    7.3076   -2.5016   20.0606 H   0  0  0  0  0  0  0  0  0  0  0  0
    8.3420   -2.3401   22.0497 C   0  0  0  0  0  0  0  0  0  0  0  0
    8.7353   -3.3257   22.2738 H   0  0  0  0  0  0  0  0  0  0  0  0
    8.3903   -1.2045   22.8970 C   0  0  0  0  0  0  0  0  0  0  0  0
    8.7858   -1.1743   23.9109 H   0  0  0  0  0  0  0  0  0  0  0  0
    7.7983   -0.1760   22.1934 C   0  0  0  0  0  0  0  0  0  0  0  0
    7.5112    1.5016   22.6726 S   0  0  0  0  0  0  0  0  0  0  0  0
    6.2913    1.5606   23.4696 O   0  0  0  0  0  0  0  0  0  0  0  0
    7.7016    2.3493   21.5072 O   0  0  0  0  0  0  0  0  0  0  0  0
    8.8694    1.8531   23.7763 C   0  0  0  0  0  0  0  0  0  0  0  0
    8.5979    2.8498   24.1337 H   0  0  0  0  0  0  0  0  0  0  0  0
    8.7399    1.1591   24.6072 H   0  0  0  0  0  0  0  0  0  0  0  0
   10.2452    1.8057   23.1125 C   0  0  0  0  0  0  0  0  0  0  0  0
   10.4801    0.8031   22.7322 H   0  0  0  0  0  0  0  0  0  0  0  0
   11.0248    2.0788   23.8312 H   0  0  0  0  0  0  0  0  0  0  0  0
   10.2895    2.5099   22.2742 H   0  0  0  0  0  0  0  0  0  0  0  0
    5.4242    0.6452   20.1720 C   0  0  0  0  0  0  0  0  0  0  0  0
    4.9911    0.6462   21.1728 H   0  0  0  0  0  0  0  0  0  0  0  0
    4.8008    1.2969   19.1044 C   0  0  0  0  0  0  0  0  0  0  0  0
    3.8771    1.8373   19.2534 H   0  0  0  0  0  0  0  0  0  0  0  0
  1  2  1  0
  2  3  2  0
  3  4  1  0
  4  5  1  0
  4  6  2  0
  6  7  1  0
  7  8  1  0
  8  9  1  0
  8 10  2  0
 10 11  1  0
 10 12  1  0
 12 13  1  0
 12 14  2  0
 14 15  1  0
 15 16  2  0
 15 17  2  0
 15 18  1  0
 18 19  1  0
 18 20  1  0
 18 21  1  0
 21 22  1  0
 21 23  1  0
 21 24  1  0
  6 25  1  0
 25 26  1  0
 25 27  2  0
 27 28  1  0
 27  2  1  0
 14  7  1  0
M  END
>  <plip>  (1) 
-0.0

>  <filename>  (1) 
[H][c]1[n][c]([H])[c](-[n]2[c]([H])[c]([H])[c]([H])[c]2[S](=[O])(=[O])[C]([H])([H])[C]([H])([H])[H])[c]([H])[c]1[H]

$$$$
