
     RDKit          3D

 49 51  0  0  0  0  0  0  0  0999 V2000
    5.0558   -3.6254   24.8568 C   0  0  0  0  0  0  0  0  0  0  0  0
    6.1850   -2.8408   25.1906 O   0  0  0  0  0  0  0  0  0  0  0  0
    7.1818   -3.3990   25.9209 C   0  0  0  0  0  0  0  0  0  0  0  0
    7.2187   -4.7616   26.2820 C   0  0  0  0  0  0  0  0  0  0  0  0
    8.3115   -5.2912   26.9764 C   0  0  0  0  0  0  0  0  0  0  0  0
    9.3387   -4.4525   27.4012 C   0  0  0  0  0  0  0  0  0  0  0  0
    9.2757   -3.1034   27.0780 C   0  0  0  0  0  0  0  0  0  0  0  0
    8.2380   -2.5498   26.3196 C   0  0  0  0  0  0  0  0  0  0  0  0
    8.4022   -1.1370   25.9585 C   0  0  0  0  0  0  0  0  0  0  0  0
    9.4743   -0.4414   26.1910 N   0  0  0  0  0  0  0  0  0  0  0  0
    9.3200    0.7742   25.5531 N   0  0  0  0  0  0  0  0  0  0  0  0
    8.1676    0.7372   24.9925 C   0  0  0  0  0  0  0  0  0  0  0  0
    7.6145    1.6910   24.0175 C   0  0  0  0  0  0  0  0  0  0  0  0
    7.9639    1.1308   22.6550 C   0  0  0  0  0  0  0  0  0  0  0  0
    8.7769    1.6518   21.9195 O   0  0  0  0  0  0  0  0  0  0  0  0
    7.3052   -0.0177   22.3544 N   0  0  0  0  0  0  0  0  0  0  0  0
    7.5106   -0.6683   21.0828 C   0  0  0  0  0  0  0  0  0  0  0  0
    6.7598    0.0458   19.9623 C   0  0  0  0  0  0  0  0  0  0  0  0
    5.5337    0.6980   20.1526 C   0  0  0  0  0  0  0  0  0  0  0  0
    4.9165    1.3007   19.0567 C   0  0  0  0  0  0  0  0  0  0  0  0
    5.5348    1.2309   17.8053 C   0  0  0  0  0  0  0  0  0  0  0  0
    6.6992    0.6007   17.5948 N   0  0  0  0  0  0  0  0  0  0  0  0
    7.2877    0.0393   18.6589 C   0  0  0  0  0  0  0  0  0  0  0  0
    8.2458   -0.4424   18.4502 H   0  0  0  0  0  0  0  0  0  0  0  0
    5.0849    1.7063   16.9366 H   0  0  0  0  0  0  0  0  0  0  0  0
    3.9834    1.8382   19.1653 H   0  0  0  0  0  0  0  0  0  0  0  0
    5.0855    0.7342   21.1478 H   0  0  0  0  0  0  0  0  0  0  0  0
    7.2630   -2.1960   21.1014 C   0  0  0  0  0  0  0  0  0  0  0  0
    8.1025   -2.9358   22.1446 C   0  0  0  0  0  0  0  0  0  0  0  0
    8.0667   -4.0149   21.9564 H   0  0  0  0  0  0  0  0  0  0  0  0
    7.7327   -2.7745   23.1616 H   0  0  0  0  0  0  0  0  0  0  0  0
    9.1536   -2.6282   22.1089 H   0  0  0  0  0  0  0  0  0  0  0  0
    5.8310   -2.7289   21.0413 C   0  0  0  0  0  0  0  0  0  0  0  0
    5.8669   -3.7982   20.7962 H   0  0  0  0  0  0  0  0  0  0  0  0
    5.2976   -2.2359   20.2271 H   0  0  0  0  0  0  0  0  0  0  0  0
    5.2701   -2.6281   21.9790 H   0  0  0  0  0  0  0  0  0  0  0  0
    7.6688   -2.4320   20.1326 H   0  0  0  0  0  0  0  0  0  0  0  0
    8.5849   -0.5668   20.8455 H   0  0  0  0  0  0  0  0  0  0  0  0
    6.9073   -0.5276   23.1219 H   0  0  0  0  0  0  0  0  0  0  0  0
    6.5358    1.7857   24.1375 H   0  0  0  0  0  0  0  0  0  0  0  0
    8.0991    2.6602   24.1144 H   0  0  0  0  0  0  0  0  0  0  0  0
    7.5098   -0.4330   25.2064 O   0  0  0  0  0  0  0  0  0  0  0  0
   10.0320   -2.4132   27.4305 H   0  0  0  0  0  0  0  0  0  0  0  0
   10.1716   -4.8416   27.9801 H   0  0  0  0  0  0  0  0  0  0  0  0
    8.3553   -6.3542   27.2061 H   0  0  0  0  0  0  0  0  0  0  0  0
    6.3833   -5.4015   26.0254 H   0  0  0  0  0  0  0  0  0  0  0  0
    4.4987   -3.9270   25.7555 H   0  0  0  0  0  0  0  0  0  0  0  0
    4.4254   -2.9859   24.2378 H   0  0  0  0  0  0  0  0  0  0  0  0
    5.3433   -4.5276   24.2982 H   0  0  0  0  0  0  0  0  0  0  0  0
  1  2  1  0
  2  3  1  0
  3  4  2  0
  4  5  1  0
  5  6  2  0
  6  7  1  0
  7  8  2  0
  8  9  1  0
  9 10  2  0
 10 11  1  0
 11 12  2  0
 12 13  1  0
 13 14  1  0
 14 15  2  0
 14 16  1  0
 16 17  1  0
 17 18  1  0
 18 19  2  0
 19 20  1  0
 20 21  2  0
 21 22  1  0
 22 23  2  0
 23 24  1  0
 21 25  1  0
 20 26  1  0
 19 27  1  0
 17 28  1  0
 28 29  1  0
 29 30  1  0
 29 31  1  0
 29 32  1  0
 28 33  1  0
 33 34  1  0
 33 35  1  0
 33 36  1  0
 28 37  1  0
 17 38  1  0
 16 39  1  0
 13 40  1  0
 13 41  1  0
 12 42  1  0
  7 43  1  0
  6 44  1  0
  5 45  1  0
  4 46  1  0
  1 47  1  0
  1 48  1  0
  1 49  1  0
  8  3  1  0
 42  9  1  0
 23 18  1  0
M  END
>  <plip>  (1) 
-0.1

>  <filename>  (1) 
[H][c]1[n][c]([H])[c]([C]([H])([N]([H])[C](=[O])[C]([H])([H])[c]2[n][n][c](-[c]3[c]([H])[c]([H])[c]([H])[c]([H])[c]3[O][C]([H])([H])[H])[o]2)[C]([H])([C]([H])([H])[H])[C]([H])([H])[H])[c]([H])[c]1[H]

$$$$
