
     RDKit          3D

 43 45  0  0  0  0  0  0  0  0999 V2000
    5.1539    2.0123   17.0067 H   0  0  0  0  0  0  0  0  0  0  0  0
    5.5297    1.3603   17.7914 C   0  0  0  0  0  0  0  0  0  0  0  0
    6.6816    0.7167   17.5301 N   0  0  0  0  0  0  0  0  0  0  0  0
    7.1954   -0.0486   18.5017 C   0  0  0  0  0  0  0  0  0  0  0  0
    8.1308   -0.5627   18.2716 H   0  0  0  0  0  0  0  0  0  0  0  0
    6.5873   -0.2341   19.7636 C   0  0  0  0  0  0  0  0  0  0  0  0
    7.1970   -0.9708   20.8233 N   0  0  0  0  0  0  0  0  0  0  0  0
    6.5489   -2.0004   21.4822 C   0  0  0  0  0  0  0  0  0  0  0  0
    5.4529   -2.4494   21.2230 O   0  0  0  0  0  0  0  0  0  0  0  0
    7.4653   -2.5192   22.5681 C   0  0  0  0  0  0  0  0  0  0  0  0
    7.6075   -3.5862   22.3888 H   0  0  0  0  0  0  0  0  0  0  0  0
    6.9485   -2.4175   23.5271 H   0  0  0  0  0  0  0  0  0  0  0  0
    8.7511   -1.6924   22.4671 C   0  0  0  0  0  0  0  0  0  0  0  0
    8.9128   -1.1250   23.3920 H   0  0  0  0  0  0  0  0  0  0  0  0
    9.6433   -2.3104   22.3245 H   0  0  0  0  0  0  0  0  0  0  0  0
    8.5777   -0.7373   21.2563 C   0  0  2  0  0  0  0  0  0  0  0  0
    9.2517   -1.0488   20.4410 H   0  0  0  0  0  0  0  0  0  0  0  0
    8.8905    0.7369   21.5905 C   0  0  0  0  0  0  0  0  0  0  0  0
    8.1885    1.0897   22.3587 H   0  0  0  0  0  0  0  0  0  0  0  0
    8.7408    1.3639   20.7031 H   0  0  0  0  0  0  0  0  0  0  0  0
   10.3385    0.8701   22.0887 C   0  0  0  0  0  0  0  0  0  0  0  0
   10.4039    0.4322   23.1036 H   0  0  0  0  0  0  0  0  0  0  0  0
   10.9663    0.2390   21.4403 H   0  0  0  0  0  0  0  0  0  0  0  0
   10.8725    2.2217   22.0879 N   0  0  0  0  0  0  0  0  0  0  0  0
   10.5363    3.0655   23.2352 C   0  0  0  0  0  0  0  0  0  0  0  0
   10.5980    2.5020   24.1873 H   0  0  0  0  0  0  0  0  0  0  0  0
    9.5100    3.4490   23.1409 H   0  0  0  0  0  0  0  0  0  0  0  0
   11.6007    4.1905   23.2442 C   0  0  0  0  0  0  0  0  0  0  0  0
   11.1711    5.1946   23.1530 H   0  0  0  0  0  0  0  0  0  0  0  0
   12.1575    4.1651   24.1879 H   0  0  0  0  0  0  0  0  0  0  0  0
   12.5489    3.8525   22.0816 C   0  0  0  0  0  0  0  0  0  0  0  0
   13.5958    4.0587   22.3358 H   0  0  0  0  0  0  0  0  0  0  0  0
   12.3131    4.4246   21.1785 H   0  0  0  0  0  0  0  0  0  0  0  0
   12.3110    2.3591   21.8337 C   0  0  1  0  0  0  0  0  0  0  0  0
   12.4846    2.1104   20.7792 H   0  0  0  0  0  0  0  0  0  0  0  0
   13.2293    1.4688   22.6951 C   0  0  0  0  0  0  0  0  0  0  0  0
   13.1290    0.4162   22.4144 H   0  0  0  0  0  0  0  0  0  0  0  0
   13.0078    1.5675   23.7653 H   0  0  0  0  0  0  0  0  0  0  0  0
   14.2796    1.7530   22.5585 H   0  0  0  0  0  0  0  0  0  0  0  0
    5.3497    0.3836   19.9914 C   0  0  0  0  0  0  0  0  0  0  0  0
    4.8326    0.2091   20.9344 H   0  0  0  0  0  0  0  0  0  0  0  0
    4.8353    1.2196   18.9988 C   0  0  0  0  0  0  0  0  0  0  0  0
    3.9184    1.7754   19.1579 H   0  0  0  0  0  0  0  0  0  0  0  0
  1  2  1  0
  2  3  2  0
  3  4  1  0
  4  5  1  0
  4  6  2  0
  6  7  1  0
  7  8  1  0
  8  9  2  0
  8 10  1  0
 10 11  1  0
 10 12  1  0
 10 13  1  0
 13 14  1  0
 13 15  1  0
 13 16  1  0
 16 17  1  6
 16 18  1  0
 18 19  1  0
 18 20  1  0
 18 21  1  0
 21 22  1  0
 21 23  1  0
 21 24  1  0
 24 25  1  0
 25 26  1  0
 25 27  1  0
 25 28  1  0
 28 29  1  0
 28 30  1  0
 28 31  1  0
 31 32  1  0
 31 33  1  0
 31 34  1  0
 34 35  1  6
 34 36  1  0
 36 37  1  0
 36 38  1  0
 36 39  1  0
  6 40  1  0
 40 41  1  0
 40 42  2  0
 42 43  1  0
 42  2  1  0
 16  7  1  0
 34 24  1  0
M  END
>  <plip>  (1) 
-0.07142857142857142

>  <filename>  (1) 
[H][c]1[n][c]([H])[c]([N]2[C](=[O])[C]([H])([H])[C]([H])([H])[C@]2([H])[C]([H])([H])[C]([H])([H])[N]2[C]([H])([H])[C]([H])([H])[C]([H])([H])[C@@]2([H])[C]([H])([H])[H])[c]([H])[c]1[H]

$$$$
