
     RDKit          3D

 33 35  0  0  0  0  0  0  0  0999 V2000
    6.9737   -1.6299   23.2935 O   0  0  0  0  0  0  0  0  0  0  0  0
    6.8644   -2.0881   22.1675 C   0  0  0  0  0  0  0  0  0  0  0  0
    7.0084   -1.3203   21.0449 N   0  0  0  0  0  0  0  0  0  0  0  0
    7.2159    0.1189   21.0416 C   0  0  0  0  0  0  0  0  0  0  0  0
    8.8894    0.7958   21.2290 C   0  0  0  0  0  0  0  0  0  0  0  0
    9.7907    0.2164   20.6238 O   0  0  0  0  0  0  0  0  0  0  0  0
    8.8334    1.7970   21.9325 O   0  0  0  0  0  1  0  0  0  0  0  0
    6.5835    0.6428   19.7756 C   0  0  0  0  0  0  0  0  0  0  0  0
    5.3551    1.3137   19.8014 C   0  0  0  0  0  0  0  0  0  0  0  0
    4.7483    1.6380   18.5854 C   0  0  0  0  0  0  0  0  0  0  0  0
    5.3993    1.2932   17.3969 C   0  0  0  0  0  0  0  0  0  0  0  0
    6.5866    0.6687   17.3481 N   0  0  0  0  0  0  0  0  0  0  0  0
    7.1575    0.3604   18.5209 C   0  0  0  0  0  0  0  0  0  0  0  0
    8.1319   -0.1324   18.4776 H   0  0  0  0  0  0  0  0  0  0  0  0
    4.9502    1.5252   16.4364 H   0  0  0  0  0  0  0  0  0  0  0  0
    3.7955    2.1559   18.5513 H   0  0  0  0  0  0  0  0  0  0  0  0
    4.8876    1.5634   20.7563 H   0  0  0  0  0  0  0  0  0  0  0  0
    6.7695    0.5509   21.9404 H   0  0  0  0  0  0  0  0  0  0  0  0
    6.8330   -1.7870   20.1648 H   0  0  0  0  0  0  0  0  0  0  0  0
    6.6914   -3.5568   21.9034 C   0  0  0  0  0  0  0  0  0  0  0  0
    5.9450   -4.1539   20.9711 N   0  0  0  0  0  0  0  0  0  0  0  0
    6.1968   -5.4612   21.0829 N   0  0  0  0  0  0  0  0  0  0  0  0
    7.1847   -5.7626   22.0231 C   0  0  0  0  0  0  0  0  0  0  0  0
    8.4358   -6.9585   22.8180 C   0  0  0  0  0  0  0  0  0  0  0  0
    8.4776   -6.9556   22.7126 C   0  0  0  0  0  0  0  0  0  0  0  0
    8.9257   -5.8386   23.7643 C   0  0  0  0  0  0  0  0  0  0  0  0
    9.1817   -6.3552   25.0133 F   0  0  0  0  0  0  0  0  0  0  0  0
    8.4607   -4.5440   23.6831 C   0  0  0  0  0  0  0  0  0  0  0  0
    7.4679   -4.5070   22.6061 C   0  0  0  0  0  0  0  0  0  0  0  0
    8.7481   -3.7741   24.3836 H   0  0  0  0  0  0  0  0  0  0  0  0
    9.4976   -7.6178   23.2199 H   0  0  0  0  0  0  0  0  0  0  0  0
    7.4681   -7.7011   22.4144 H   0  0  0  0  0  0  0  0  0  0  0  0
    5.6779   -6.1065   20.5057 H   0  0  0  0  0  0  0  0  0  0  0  0
  1  2  2  0
  2  3  1  0
  3  4  1  0
  4  5  1  0
  5  6  2  0
  5  7  1  0
  4  8  1  0
  8  9  2  0
  9 10  1  0
 10 11  2  0
 11 12  1  0
 12 13  2  0
 13 14  1  0
 11 15  1  0
 10 16  1  0
  9 17  1  0
  4 18  1  0
  3 19  1  0
  2 20  1  0
 20 21  2  0
 21 22  1  0
 22 23  1  0
 23 24  2  0
 24 25  1  0
 25 26  2  0
 26 27  1  0
 26 28  1  0
 28 29  2  0
 28 30  1  0
 25 31  1  0
 24 32  1  0
 22 33  1  0
 13  8  1  0
 29 20  1  0
 29 23  1  0
M  CHG  1   7  -1
M  END
>  <plip>  (1) 
-0.13333333333333333

>  <filename>  (1) 
[H][c]1[n][c]([H])[c]([C]([H])([C](=[O])[O-])[N]([H])[C](=[O])[c]2[n][n]([H])[c]3[c]([H])[c]([H])[c]([F])[c]([H])[c]23)[c]([H])[c]1[H]

$$$$
