
     RDKit          3D

 51 53  0  0  0  0  0  0  0  0999 V2000
    6.4498   -3.0389   20.7473 C   0  0  0  0  0  0  0  0  0  0  0  0
    6.6237   -1.8465   21.5958 N   0  0  0  0  0  4  0  0  0  0  0  0
    7.2514   -2.1198   22.9278 C   0  0  0  0  0  0  0  0  0  0  0  0
    7.7969   -0.7591   23.3859 C   0  0  0  0  0  0  0  0  0  0  0  0
    7.8099    0.1472   22.1327 C   0  0  1  0  0  0  0  0  0  0  0  0
    9.0995    0.9204   21.8525 C   0  0  0  0  0  0  0  0  0  0  0  0
    9.3505    1.9587   22.8285 N   0  0  0  0  0  0  0  0  0  0  0  0
    8.6083    3.0984   22.9429 C   0  0  0  0  0  0  0  0  0  0  0  0
    7.6212    3.2903   22.2482 O   0  0  0  0  0  0  0  0  0  0  0  0
    9.0446    4.1278   24.0804 C   0  0  1  0  0  0  0  0  0  0  0  0
   10.5505    4.0205   24.3757 C   0  0  0  0  0  0  0  0  0  0  0  0
   10.8215    4.8015   25.0872 H   0  0  0  0  0  0  0  0  0  0  0  0
   11.1206    4.2064   23.4548 H   0  0  0  0  0  0  0  0  0  0  0  0
   10.8294    3.0466   24.7967 H   0  0  0  0  0  0  0  0  0  0  0  0
    8.9043    5.4853   23.6551 O   0  0  0  0  0  0  0  0  0  0  0  0
    8.0609    5.5787   23.1756 H   0  0  0  0  0  0  0  0  0  0  0  0
    8.1558    3.8662   25.3281 C   0  0  0  0  0  0  0  0  0  0  0  0
    7.7067    4.9429   26.1125 C   0  0  0  0  0  0  0  0  0  0  0  0
    6.9073    4.7349   27.2386 C   0  0  0  0  0  0  0  0  0  0  0  0
    6.5306    3.4400   27.6066 C   0  0  0  0  0  0  0  0  0  0  0  0
    6.9712    2.3576   26.8380 C   0  0  0  0  0  0  0  0  0  0  0  0
    7.7739    2.5671   25.7125 C   0  0  0  0  0  0  0  0  0  0  0  0
    8.0957    1.7076   25.1253 H   0  0  0  0  0  0  0  0  0  0  0  0
    6.6963    1.3466   27.1184 H   0  0  0  0  0  0  0  0  0  0  0  0
    5.9099    3.2743   28.4852 H   0  0  0  0  0  0  0  0  0  0  0  0
    6.5845    5.5860   27.8320 H   0  0  0  0  0  0  0  0  0  0  0  0
    7.9817    5.9508   25.8138 H   0  0  0  0  0  0  0  0  0  0  0  0
   10.1534    1.8661   23.4164 H   0  0  0  0  0  0  0  0  0  0  0  0
    9.9614    0.2409   21.8811 H   0  0  0  0  0  0  0  0  0  0  0  0
    9.0621    1.3731   20.8543 H   0  0  0  0  0  0  0  0  0  0  0  0
    7.4438   -0.7513   20.9504 C   0  0  2  0  0  0  0  0  0  0  0  0
    6.6751   -0.0477   19.8664 C   0  0  0  0  0  0  0  0  0  0  0  0
    5.4559    0.6071   20.1131 C   0  0  0  0  0  0  0  0  0  0  0  0
    4.8310    1.2820   19.0671 C   0  0  0  0  0  0  0  0  0  0  0  0
    5.4438    1.2769   17.8100 C   0  0  0  0  0  0  0  0  0  0  0  0
    6.5907    0.6366   17.5472 N   0  0  0  0  0  0  0  0  0  0  0  0
    7.1782   -0.0122   18.5604 C   0  0  0  0  0  0  0  0  0  0  0  0
    8.1066   -0.5326   18.3158 H   0  0  0  0  0  0  0  0  0  0  0  0
    4.9818    1.7936   16.9713 H   0  0  0  0  0  0  0  0  0  0  0  0
    3.8985    1.8179   19.2126 H   0  0  0  0  0  0  0  0  0  0  0  0
    5.0205    0.6072   21.1161 H   0  0  0  0  0  0  0  0  0  0  0  0
    8.3482   -1.2116   20.5282 H   0  0  0  0  0  0  0  0  0  0  0  0
    7.0144    0.8947   22.2501 H   0  0  0  0  0  0  0  0  0  0  0  0
    7.1388   -0.3298   24.1515 H   0  0  0  0  0  0  0  0  0  0  0  0
    8.7842   -0.8742   23.8500 H   0  0  0  0  0  0  0  0  0  0  0  0
    6.5188   -2.5376   23.6231 H   0  0  0  0  0  0  0  0  0  0  0  0
    8.0479   -2.8607   22.8025 H   0  0  0  0  0  0  0  0  0  0  0  0
    5.7020   -1.3808   21.7741 H   0  0  0  0  0  0  0  0  0  0  0  0
    7.4168   -3.5400   20.5899 H   0  0  0  0  0  0  0  0  0  0  0  0
    5.7735   -3.7694   21.2001 H   0  0  0  0  0  0  0  0  0  0  0  0
    6.0673   -2.7536   19.7650 H   0  0  0  0  0  0  0  0  0  0  0  0
  1  2  1  0
  2  3  1  0
  3  4  1  0
  4  5  1  0
  5  6  1  0
  6  7  1  0
  7  8  1  0
  8  9  2  0
  8 10  1  0
 10 11  1  0
 11 12  1  0
 11 13  1  0
 11 14  1  0
 10 15  1  6
 15 16  1  0
 10 17  1  0
 17 18  2  0
 18 19  1  0
 19 20  2  0
 20 21  1  0
 21 22  2  0
 22 23  1  0
 21 24  1  0
 20 25  1  0
 19 26  1  0
 18 27  1  0
  7 28  1  0
  6 29  1  0
  6 30  1  0
  5 31  1  0
 31 32  1  0
 32 33  2  0
 33 34  1  0
 34 35  2  0
 35 36  1  0
 36 37  2  0
 37 38  1  0
 35 39  1  0
 34 40  1  0
 33 41  1  0
 31 42  1  6
  5 43  1  1
  4 44  1  0
  4 45  1  0
  3 46  1  0
  3 47  1  0
  2 48  1  0
  1 49  1  0
  1 50  1  0
  1 51  1  0
 31  2  1  0
 37 32  1  0
 22 17  1  0
M  CHG  1   2   1
M  END
>  <plip>  (1) 
-0.10714285714285714

>  <filename>  (1) 
[H][O][C@]([C](=[O])[N]([H])[C]([H])([H])[C@]1([H])[C]([H])([H])[C]([H])([H])[N+]([H])([C]([H])([H])[H])[C@@]1([H])[c]1[c]([H])[n][c]([H])[c]([H])[c]1[H])([c]1[c]([H])[c]([H])[c]([H])[c]([H])[c]1[H])[C]([H])([H])[H]

$$$$
