
     RDKit          3D

 37 38  0  0  0  0  0  0  0  0999 V2000
    5.5204   -4.6285   29.4572 C   0  0  0  0  0  0  0  0  0  0  0  0
    6.4884   -5.8095   28.5648 S   0  0  0  0  0  0  0  0  0  0  0  0
    7.8381   -5.2643   28.4873 O   0  0  0  0  0  0  0  0  0  0  0  0
    6.2059   -7.0995   29.1807 O   0  0  0  0  0  0  0  0  0  0  0  0
    5.7931   -5.7897   26.9228 C   0  0  0  0  0  0  0  0  0  0  0  0
    4.6326   -6.5235   26.6356 C   0  0  0  0  0  0  0  0  0  0  0  0
    4.1210   -6.4648   25.3387 C   0  0  0  0  0  0  0  0  0  0  0  0
    4.7859   -5.7609   24.3273 C   0  0  0  0  0  0  0  0  0  0  0  0
    5.9567   -5.0427   24.6308 C   0  0  0  0  0  0  0  0  0  0  0  0
    6.7687   -4.3589   23.5564 C   0  0  0  0  0  0  0  0  0  0  0  0
    7.2588   -4.9355   22.6096 O   0  0  0  0  0  0  0  0  0  0  0  0
    6.9112   -3.0015   23.7990 N   0  0  0  0  0  0  0  0  0  0  0  0
    7.3493   -2.0422   22.8632 N   0  0  0  0  0  0  0  0  0  0  0  0
    6.5984   -1.7203   21.7012 C   0  0  0  0  0  0  0  0  0  0  0  0
    5.5077   -2.1447   21.4188 O   0  0  0  0  0  0  0  0  0  0  0  0
    7.3367   -0.8511   20.9076 N   0  0  0  0  0  0  0  0  0  0  0  0
    6.7446   -0.0758   19.8496 C   0  0  0  0  0  0  0  0  0  0  0  0
    5.5124    0.5666   20.0390 C   0  0  0  0  0  0  0  0  0  0  0  0
    4.9526    1.2936   18.9815 C   0  0  0  0  0  0  0  0  0  0  0  0
    5.6358    1.3384   17.7630 C   0  0  0  0  0  0  0  0  0  0  0  0
    6.8187    0.7326   17.5607 N   0  0  0  0  0  0  0  0  0  0  0  0
    7.3652    0.0638   18.5865 C   0  0  0  0  0  0  0  0  0  0  0  0
    8.3364   -0.4030   18.4122 H   0  0  0  0  0  0  0  0  0  0  0  0
    5.2135    1.8625   16.9084 H   0  0  0  0  0  0  0  0  0  0  0  0
    4.0179    1.8358   19.0985 H   0  0  0  0  0  0  0  0  0  0  0  0
    5.0121    0.4885   21.0014 H   0  0  0  0  0  0  0  0  0  0  0  0
    8.1419   -0.4582   21.3696 H   0  0  0  0  0  0  0  0  0  0  0  0
    8.3071   -2.1935   22.5762 H   0  0  0  0  0  0  0  0  0  0  0  0
    6.2931   -2.6560   24.5208 H   0  0  0  0  0  0  0  0  0  0  0  0
    6.4486   -5.0435   25.9399 C   0  0  0  0  0  0  0  0  0  0  0  0
    7.3597   -4.4990   26.1860 H   0  0  0  0  0  0  0  0  0  0  0  0
    4.3853   -5.7672   23.3155 H   0  0  0  0  0  0  0  0  0  0  0  0
    3.2099   -7.0064   25.1041 H   0  0  0  0  0  0  0  0  0  0  0  0
    4.1376   -7.1457   27.3862 H   0  0  0  0  0  0  0  0  0  0  0  0
    6.0777   -4.4814   30.3817 H   0  0  0  0  0  0  0  0  0  0  0  0
    5.4561   -3.6959   28.8981 H   0  0  0  0  0  0  0  0  0  0  0  0
    4.5444   -5.0702   29.6581 H   0  0  0  0  0  0  0  0  0  0  0  0
  1  2  1  0
  2  3  2  0
  2  4  2  0
  2  5  1  0
  5  6  2  0
  6  7  1  0
  7  8  2  0
  8  9  1  0
  9 10  1  0
 10 11  2  0
 10 12  1  0
 12 13  1  0
 13 14  1  0
 14 15  2  0
 14 16  1  0
 16 17  1  0
 17 18  2  0
 18 19  1  0
 19 20  2  0
 20 21  1  0
 21 22  2  0
 22 23  1  0
 20 24  1  0
 19 25  1  0
 18 26  1  0
 16 27  1  0
 13 28  1  0
 12 29  1  0
  9 30  2  0
 30 31  1  0
  8 32  1  0
  7 33  1  0
  6 34  1  0
  1 35  1  0
  1 36  1  0
  1 37  1  0
 30  5  1  0
 22 17  1  0
M  END
>  <plip>  (1) 
-0.10344827586206896

>  <filename>  (1) 
[H][c]1[n][c]([H])[c]([N]([H])[C](=[O])[N]([H])[N]([H])[C](=[O])[c]2[c]([H])[c]([H])[c]([H])[c]([S](=[O])(=[O])[C]([H])([H])[H])[c]2[H])[c]([H])[c]1[H]

$$$$
