
     RDKit          3D

 29 31  0  0  0  0  0  0  0  0999 V2000
    5.0489    1.8368   17.0316 H   0  0  0  0  0  0  0  0  0  0  0  0
    5.5045    1.2832   17.8481 C   0  0  0  0  0  0  0  0  0  0  0  0
    6.6644    0.6677   17.5691 N   0  0  0  0  0  0  0  0  0  0  0  0
    7.2564   -0.0256   18.5528 C   0  0  0  0  0  0  0  0  0  0  0  0
    8.2114   -0.4988   18.3245 H   0  0  0  0  0  0  0  0  0  0  0  0
    6.6952   -0.1718   19.8396 C   0  0  0  0  0  0  0  0  0  0  0  0
    7.3293   -0.9665   20.8477 N   0  0  0  0  0  0  0  0  0  0  0  0
    8.6024   -0.7518   21.4333 C   0  0  0  0  0  0  0  0  0  0  0  0
    9.8160    0.4507   21.0173 S   0  0  0  0  0  0  0  0  0  0  0  0
    9.2771    1.8768   21.9663 C   0  0  0  0  0  0  0  0  0  0  0  0
    9.9457    2.2615   23.1331 C   0  0  0  0  0  0  0  0  0  0  0  0
   10.7858    1.6737   23.4926 H   0  0  0  0  0  0  0  0  0  0  0  0
    9.5185    3.3981   23.8306 C   0  0  0  0  0  0  0  0  0  0  0  0
   10.0085    3.6798   24.7569 H   0  0  0  0  0  0  0  0  0  0  0  0
    8.4456    4.1576   23.3486 C   0  0  0  0  0  0  0  0  0  0  0  0
    8.1369    5.0541   23.8770 H   0  0  0  0  0  0  0  0  0  0  0  0
    7.7875    3.7777   22.1774 C   0  0  0  0  0  0  0  0  0  0  0  0
    6.9676    4.3762   21.7873 H   0  0  0  0  0  0  0  0  0  0  0  0
    8.2060    2.6377   21.4868 C   0  0  0  0  0  0  0  0  0  0  0  0
    7.7254    2.3181   20.5688 H   0  0  0  0  0  0  0  0  0  0  0  0
    8.7045   -1.6341   22.4318 C   0  0  0  0  0  0  0  0  0  0  0  0
    9.4817   -1.7836   23.1702 H   0  0  0  0  0  0  0  0  0  0  0  0
    7.5729   -2.4055   22.5099 O   0  0  0  0  0  0  0  0  0  0  0  0
    6.6783   -1.9910   21.5558 C   0  0  0  0  0  0  0  0  0  0  0  0
    5.5908   -2.4690   21.3920 O   0  0  0  0  0  0  0  0  0  0  0  0
    5.4834    0.4719   20.1163 C   0  0  0  0  0  0  0  0  0  0  0  0
    5.0390    0.3763   21.1088 H   0  0  0  0  0  0  0  0  0  0  0  0
    4.8851    1.2235   19.1012 C   0  0  0  0  0  0  0  0  0  0  0  0
    3.9613    1.7624   19.2734 H   0  0  0  0  0  0  0  0  0  0  0  0
  1  2  1  0
  2  3  2  0
  3  4  1  0
  4  5  1  0
  4  6  2  0
  6  7  1  0
  7  8  1  0
  8  9  1  0
  9 10  1  0
 10 11  2  0
 11 12  1  0
 11 13  1  0
 13 14  1  0
 13 15  2  0
 15 16  1  0
 15 17  1  0
 17 18  1  0
 17 19  2  0
 19 20  1  0
  8 21  2  0
 21 22  1  0
 21 23  1  0
 23 24  1  0
 24 25  2  0
  6 26  1  0
 26 27  1  0
 26 28  2  0
 28 29  1  0
 28  2  1  0
 24  7  1  0
 19 10  1  0
M  END
>  <plip>  (1) 
-0.07142857142857142

>  <filename>  (1) 
[H][c]1[n][c]([H])[c](-[n]2[c]([S][c]3[c]([H])[c]([H])[c]([H])[c]([H])[c]3[H])[c]([H])[o][c]2=[O])[c]([H])[c]1[H]

$$$$
