
     RDKit          3D

 29 31  0  0  0  0  0  0  0  0999 V2000
    9.1671   -3.0298   21.9752 H   0  0  0  0  0  0  0  0  0  0  0  0
    8.5570   -2.1375   21.9356 C   0  0  0  0  0  0  0  0  0  0  0  0
    8.2245   -1.3618   22.9134 N   0  0  0  0  0  0  0  0  0  0  0  0
    7.4800   -0.3873   22.3037 C   0  0  0  0  0  0  0  0  0  0  0  0
    6.9985    0.7020   22.9786 N   0  0  0  0  0  0  0  0  0  0  0  0
    6.8812    1.5225   22.4134 H   0  0  0  0  0  0  0  0  0  0  0  0
    6.8134    0.8554   24.3586 C   0  0  0  0  0  0  0  0  0  0  0  0
    6.9273    2.1259   24.9481 C   0  0  0  0  0  0  0  0  0  0  0  0
    7.1667    2.9944   24.3391 H   0  0  0  0  0  0  0  0  0  0  0  0
    6.7524    2.2714   26.3295 C   0  0  0  0  0  0  0  0  0  0  0  0
    6.8509    3.2496   26.7912 H   0  0  0  0  0  0  0  0  0  0  0  0
    6.4423    1.1637   27.1273 C   0  0  0  0  0  0  0  0  0  0  0  0
    6.3055    1.2701   28.2014 H   0  0  0  0  0  0  0  0  0  0  0  0
    6.3007   -0.0902   26.5275 C   0  0  0  0  0  0  0  0  0  0  0  0
    6.0592   -0.9608   27.1279 H   0  0  0  0  0  0  0  0  0  0  0  0
    6.4746   -0.2472   25.1538 C   0  0  0  0  0  0  0  0  0  0  0  0
    6.3649   -1.2140   24.6775 H   0  0  0  0  0  0  0  0  0  0  0  0
    7.3541   -0.6658   20.9569 C   0  0  0  0  0  0  0  0  0  0  0  0
    6.6498   -0.0036   19.8786 C   0  0  0  0  0  0  0  0  0  0  0  0
    7.1722    0.0485   18.5744 C   0  0  0  0  0  0  0  0  0  0  0  0
    8.1259   -0.4295   18.3618 H   0  0  0  0  0  0  0  0  0  0  0  0
    6.5691    0.6810   17.5663 N   0  0  0  0  0  0  0  0  0  0  0  0
    5.4031    1.2929   17.8383 C   0  0  0  0  0  0  0  0  0  0  0  0
    4.9163    1.7800   16.9990 H   0  0  0  0  0  0  0  0  0  0  0  0
    4.8037    1.3116   19.1038 C   0  0  0  0  0  0  0  0  0  0  0  0
    3.8705    1.8452   19.2599 H   0  0  0  0  0  0  0  0  0  0  0  0
    5.4399    0.6575   20.1524 C   0  0  0  0  0  0  0  0  0  0  0  0
    5.0086    0.6230   21.1581 H   0  0  0  0  0  0  0  0  0  0  0  0
    8.0902   -1.8008   20.7261 O   0  0  0  0  0  0  0  0  0  0  0  0
  1  2  1  0
  2  3  2  0
  3  4  1  0
  4  5  1  0
  5  6  1  0
  5  7  1  0
  7  8  2  0
  8  9  1  0
  8 10  1  0
 10 11  1  0
 10 12  2  0
 12 13  1  0
 12 14  1  0
 14 15  1  0
 14 16  2  0
 16 17  1  0
  4 18  2  0
 18 19  1  0
 19 20  2  0
 20 21  1  0
 20 22  1  0
 22 23  2  0
 23 24  1  0
 23 25  1  0
 25 26  1  0
 25 27  2  0
 27 28  1  0
 18 29  1  0
 29  2  1  0
 16  7  1  0
 27 19  1  0
M  END
>  <plip>  (1) 
-0.034482758620689655

>  <filename>  (1) 
[H][c]1[n][c]([N]([H])[c]2[c]([H])[c]([H])[c]([H])[c]([H])[c]2[H])[c](-[c]2[c]([H])[n][c]([H])[c]([H])[c]2[H])[o]1

$$$$
