
     RDKit          3D

 28 29  0  0  0  0  0  0  0  0999 V2000
   13.5864    2.1617   21.6615 H   0  0  0  0  0  0  0  0  0  0  0  0
   12.6420    1.9086   21.7125 O   0  0  0  0  0  0  0  0  0  0  0  0
   12.7469    0.6989   22.2690 C   0  0  0  0  0  0  0  0  0  0  0  0
   13.8355    0.2422   22.5287 O   0  0  0  0  0  0  0  0  0  0  0  0
   11.3532   -0.0131   22.5451 C   0  0  0  0  0  0  0  0  0  0  0  0
   10.3891    0.6639   22.8480 O   0  0  0  0  0  0  0  0  0  0  0  0
   11.3269   -1.4829   22.5253 C   0  0  0  0  0  0  0  0  0  0  0  0
   12.2786   -2.0080   22.5188 H   0  0  0  0  0  0  0  0  0  0  0  0
   10.1769   -2.1963   22.6367 C   0  0  0  0  0  0  0  0  0  0  0  0
   10.2501   -3.4121   23.2190 O   0  0  0  0  0  0  0  0  0  0  0  0
   11.1761   -3.5352   23.4857 H   0  0  0  0  0  0  0  0  0  0  0  0
    8.8503   -1.7424   22.1262 C   0  0  0  0  0  0  0  0  0  0  0  0
    7.6150   -2.1120   22.6484 N   0  0  0  0  0  0  0  0  0  0  0  0
    6.7338   -1.5016   21.9145 C   0  0  0  0  0  0  0  0  0  0  0  0
    5.6598   -1.5759   22.0140 H   0  0  0  0  0  0  0  0  0  0  0  0
    7.3013   -0.7486   20.9049 N   0  0  0  0  0  0  0  0  0  0  0  0
    6.6473   -0.0120   19.8757 C   0  0  0  0  0  0  0  0  0  0  0  0
    7.1740    0.0185   18.5694 C   0  0  0  0  0  0  0  0  0  0  0  0
    8.0894   -0.5203   18.3336 H   0  0  0  0  0  0  0  0  0  0  0  0
    6.5929    0.6580   17.5482 N   0  0  0  0  0  0  0  0  0  0  0  0
    5.4441    1.3097   17.7909 C   0  0  0  0  0  0  0  0  0  0  0  0
    4.9901    1.8240   16.9480 H   0  0  0  0  0  0  0  0  0  0  0  0
    4.8392    1.3436   19.0511 C   0  0  0  0  0  0  0  0  0  0  0  0
    3.9063    1.8805   19.1882 H   0  0  0  0  0  0  0  0  0  0  0  0
    5.4573    0.6887   20.1195 C   0  0  0  0  0  0  0  0  0  0  0  0
    5.0394    0.7367   21.1246 H   0  0  0  0  0  0  0  0  0  0  0  0
    8.6574   -0.9000   21.0556 C   0  0  0  0  0  0  0  0  0  0  0  0
    9.3738   -0.3624   20.4498 H   0  0  0  0  0  0  0  0  0  0  0  0
  1  2  1  0
  2  3  1  0
  3  4  2  0
  3  5  1  0
  5  6  2  0
  5  7  1  0
  7  8  1  0
  7  9  2  3
  9 10  1  0
 10 11  1  0
  9 12  1  0
 12 13  1  0
 13 14  2  0
 14 15  1  0
 14 16  1  0
 16 17  1  0
 17 18  2  0
 18 19  1  0
 18 20  1  0
 20 21  2  0
 21 22  1  0
 21 23  1  0
 23 24  1  0
 23 25  2  0
 25 26  1  0
 16 27  1  0
 27 28  1  0
 27 12  2  0
 25 17  1  0
M  END
>  <plip>  (1) 
-0.034482758620689655

>  <filename>  (1) 
[H][O][C](=[O])[C](=[O])[C]([H])=[C]([O][H])[c]1[n][c]([H])[n](-[c]2[c]([H])[n][c]([H])[c]([H])[c]2[H])[c]1[H]

$$$$
