
     RDKit          3D

 20 21  0  0  0  0  0  0  0  0999 V2000
    4.9385    1.7757   16.9983 H   0  0  0  0  0  0  0  0  0  0  0  0
    5.4113    1.2831   17.8472 C   0  0  0  0  0  0  0  0  0  0  0  0
    6.5747    0.6605   17.6058 N   0  0  0  0  0  0  0  0  0  0  0  0
    7.1816    0.0450   18.6307 C   0  0  0  0  0  0  0  0  0  0  0  0
    8.1285   -0.4324   18.3815 H   0  0  0  0  0  0  0  0  0  0  0  0
    6.6505    0.0047   19.9352 C   0  0  0  0  0  0  0  0  0  0  0  0
    7.3421   -0.6996   21.0282 C   0  0  0  0  0  0  0  0  0  0  0  0
    8.5127   -1.3486   20.8903 N   0  0  0  0  0  0  0  0  0  0  0  0
    8.8143   -1.8417   22.0614 N   0  0  0  0  0  0  0  0  0  0  0  0
    7.8379   -1.4858   22.8605 N   0  0  0  0  0  0  0  0  0  0  0  0
    7.9165   -1.8514   24.1661 O   0  0  0  0  0  0  0  0  0  0  0  0
    6.8118   -1.4359   24.9275 C   0  0  0  0  0  0  0  0  0  0  0  0
    5.8467   -1.7946   24.5368 H   0  0  0  0  0  0  0  0  0  0  0  0
    7.0593   -2.0103   26.1137 F   0  0  0  0  0  0  0  0  0  0  0  0
    6.8135   -0.1097   25.0905 F   0  0  0  0  0  0  0  0  0  0  0  0
    6.8787   -0.7763   22.2740 N   0  0  0  0  0  0  0  0  0  0  0  0
    5.4272    0.6569   20.1681 C   0  0  0  0  0  0  0  0  0  0  0  0
    4.9877    0.6471   21.1692 H   0  0  0  0  0  0  0  0  0  0  0  0
    4.8065    1.3086   19.1070 C   0  0  0  0  0  0  0  0  0  0  0  0
    3.8778    1.8416   19.2494 H   0  0  0  0  0  0  0  0  0  0  0  0
  1  2  1  0
  2  3  2  0
  3  4  1  0
  4  5  1  0
  4  6  2  0
  6  7  1  0
  7  8  1  0
  8  9  2  0
  9 10  1  0
 10 11  1  0
 11 12  1  0
 12 13  1  0
 12 14  1  0
 12 15  1  0
 10 16  1  0
  6 17  1  0
 17 18  1  0
 17 19  2  0
 19 20  1  0
 19  2  1  0
 16  7  2  0
M  END
>  <plip>  (1) 
-0.07142857142857142

>  <filename>  (1) 
[H][c]1[n][c]([H])[c](-[c]2[n][n][n]([O][C]([H])([F])[F])[n]2)[c]([H])[c]1[H]

$$$$
