
     RDKit          3D

 41 42  0  0  0  0  0  0  0  0999 V2000
   10.4319   -1.6908   21.2178 C   0  0  0  0  0  0  0  0  0  0  0  0
    9.5527   -0.9020   22.1684 C   0  0  0  0  0  0  0  0  0  0  0  0
    8.6109    0.0043   21.4235 N   0  0  0  0  0  4  0  0  0  0  0  0
    8.2371    1.2108   22.2630 C   0  0  0  0  0  0  0  0  0  0  0  0
    9.3009    2.3093   22.2289 C   0  0  0  0  0  0  0  0  0  0  0  0
    8.9151    3.4576   23.1298 C   0  0  0  0  0  0  0  0  0  0  0  0
    9.2613    3.4513   24.4888 C   0  0  0  0  0  0  0  0  0  0  0  0
    8.8319    4.5015   25.2939 C   0  0  0  0  0  0  0  0  0  0  0  0
    8.0555    5.5310   24.7346 C   0  0  0  0  0  0  0  0  0  0  0  0
    7.5864    6.6696   25.5946 C   0  0  0  0  0  0  0  0  0  0  0  0
    6.8618    6.3123   26.3308 H   0  0  0  0  0  0  0  0  0  0  0  0
    7.1175    7.4501   24.9950 H   0  0  0  0  0  0  0  0  0  0  0  0
    8.4188    7.1017   26.1549 H   0  0  0  0  0  0  0  0  0  0  0  0
    7.6956    5.5366   23.4491 N   0  0  0  0  0  0  0  0  0  0  0  0
    8.1210    4.5233   22.6792 C   0  0  0  0  0  0  0  0  0  0  0  0
    7.7975    4.5526   21.6385 H   0  0  0  0  0  0  0  0  0  0  0  0
    9.0841    4.5403   26.3442 H   0  0  0  0  0  0  0  0  0  0  0  0
    9.8521    2.6294   24.9009 H   0  0  0  0  0  0  0  0  0  0  0  0
    9.4280    2.6420   21.1915 H   0  0  0  0  0  0  0  0  0  0  0  0
   10.2666    1.8972   22.5489 H   0  0  0  0  0  0  0  0  0  0  0  0
    8.0659    0.8839   23.2966 H   0  0  0  0  0  0  0  0  0  0  0  0
    7.2902    1.6220   21.9114 H   0  0  0  0  0  0  0  0  0  0  0  0
    7.3793   -0.7475   20.9736 C   0  0  0  0  0  0  0  0  0  0  0  0
    6.6548    0.0130   19.9073 C   0  0  0  0  0  0  0  0  0  0  0  0
    5.4358    0.6558   20.1561 C   0  0  0  0  0  0  0  0  0  0  0  0
    4.8013    1.3140   19.1013 C   0  0  0  0  0  0  0  0  0  0  0  0
    5.4033    1.2947   17.8392 C   0  0  0  0  0  0  0  0  0  0  0  0
    6.5709    0.6860   17.5852 N   0  0  0  0  0  0  0  0  0  0  0  0
    7.1813    0.0774   18.6095 C   0  0  0  0  0  0  0  0  0  0  0  0
    8.1246   -0.4172   18.3746 H   0  0  0  0  0  0  0  0  0  0  0  0
    4.9227    1.7822   16.9930 H   0  0  0  0  0  0  0  0  0  0  0  0
    3.8721    1.8473   19.2503 H   0  0  0  0  0  0  0  0  0  0  0  0
    5.0024    0.6364   21.1624 H   0  0  0  0  0  0  0  0  0  0  0  0
    6.7279   -0.8966   21.8469 H   0  0  0  0  0  0  0  0  0  0  0  0
    7.6815   -1.7367   20.6107 H   0  0  0  0  0  0  0  0  0  0  0  0
    9.0721    0.3587   20.5568 H   0  0  0  0  0  0  0  0  0  0  0  0
    8.9602   -1.5750   22.8021 H   0  0  0  0  0  0  0  0  0  0  0  0
   10.1763   -0.3047   22.8388 H   0  0  0  0  0  0  0  0  0  0  0  0
   11.0420   -0.9980   20.6284 H   0  0  0  0  0  0  0  0  0  0  0  0
    9.8417   -2.3152   20.5364 H   0  0  0  0  0  0  0  0  0  0  0  0
   11.1067   -2.3459   21.7769 H   0  0  0  0  0  0  0  0  0  0  0  0
  1  2  1  0
  2  3  1  0
  3  4  1  0
  4  5  1  0
  5  6  1  0
  6  7  2  0
  7  8  1  0
  8  9  2  0
  9 10  1  0
 10 11  1  0
 10 12  1  0
 10 13  1  0
  9 14  1  0
 14 15  2  0
 15 16  1  0
  8 17  1  0
  7 18  1  0
  5 19  1  0
  5 20  1  0
  4 21  1  0
  4 22  1  0
  3 23  1  0
 23 24  1  0
 24 25  2  0
 25 26  1  0
 26 27  2  0
 27 28  1  0
 28 29  2  0
 29 30  1  0
 27 31  1  0
 26 32  1  0
 25 33  1  0
 23 34  1  0
 23 35  1  0
  3 36  1  0
  2 37  1  0
  2 38  1  0
  1 39  1  0
  1 40  1  0
  1 41  1  0
 15  6  1  0
 29 24  1  0
M  CHG  1   3   1
M  END
>  <plip>  (1) 
-0.10344827586206896

>  <filename>  (1) 
[H][c]1[n][c]([H])[c]([C]([H])([H])[N+]([H])([C]([H])([H])[C]([H])([H])[H])[C]([H])([H])[C]([H])([H])[c]2[c]([H])[n][c]([C]([H])([H])[H])[c]([H])[c]2[H])[c]([H])[c]1[H]

$$$$
