
     RDKit          3D

 50 54  0  0  0  0  0  0  0  0999 V2000
   10.5223    7.1217   24.4166 H   0  0  0  0  0  0  0  0  0  0  0  0
    9.4631    6.9101   24.2730 C   0  0  0  0  0  0  0  0  0  0  0  0
    9.1690    5.6617   23.9132 N   0  0  0  0  0  0  0  0  0  0  0  0
    7.8673    5.3669   23.7581 C   0  0  0  0  0  0  0  0  0  0  0  0
    7.5874    4.1008   23.3032 N   0  0  0  0  0  0  0  0  0  0  0  0
    6.3550    3.3745   23.6022 C   0  0  0  0  0  0  0  0  0  0  0  0
    5.8906    3.7423   24.5234 H   0  0  0  0  0  0  0  0  0  0  0  0
    5.6232    3.4863   22.7820 H   0  0  0  0  0  0  0  0  0  0  0  0
    6.6544    1.8765   23.7831 C   0  0  0  0  0  0  0  0  0  0  0  0
    5.7100    1.3517   23.9980 H   0  0  0  0  0  0  0  0  0  0  0  0
    7.3145    1.7458   24.6582 H   0  0  0  0  0  0  0  0  0  0  0  0
    7.2784    1.3199   22.5753 N   0  0  0  0  0  0  0  0  0  0  0  0
    7.4712   -0.0474   22.4423 C   0  0  0  0  0  0  0  0  0  0  0  0
    7.2456   -0.7018   21.2539 C   0  0  0  0  0  0  0  0  0  0  0  0
    6.5859   -0.0654   20.0876 C   0  0  0  0  0  0  0  0  0  0  0  0
    7.1730   -0.1295   18.8046 C   0  0  0  0  0  0  0  0  0  0  0  0
    8.0949   -0.6974   18.6691 H   0  0  0  0  0  0  0  0  0  0  0  0
    6.6945    0.4770   17.7134 N   0  0  0  0  0  0  0  0  0  0  0  0
    5.5658    1.1864   17.8605 C   0  0  0  0  0  0  0  0  0  0  0  0
    5.1871    1.6772   16.9666 H   0  0  0  0  0  0  0  0  0  0  0  0
    4.8788    1.3008   19.0741 C   0  0  0  0  0  0  0  0  0  0  0  0
    3.9774    1.8984   19.1259 H   0  0  0  0  0  0  0  0  0  0  0  0
    5.3882    0.6619   20.2047 C   0  0  0  0  0  0  0  0  0  0  0  0
    4.8794    0.7367   21.1687 H   0  0  0  0  0  0  0  0  0  0  0  0
    7.7512   -2.1128   21.0711 C   0  0  2  0  0  0  0  0  0  0  0  0
    7.2629   -2.5559   20.2009 H   0  0  0  0  0  0  0  0  0  0  0  0
    7.3668   -3.1481   22.5198 S   0  0  0  0  0  0  0  0  0  0  0  0
    8.5832   -2.1412   23.4208 C   0  0  2  0  0  0  0  0  0  0  0  0
    8.8092   -2.6251   24.3748 H   0  0  0  0  0  0  0  0  0  0  0  0
    7.9790   -0.7484   23.6841 C   0  0  0  0  0  0  0  0  0  0  0  0
    7.1580   -0.8194   24.4137 H   0  0  0  0  0  0  0  0  0  0  0  0
    8.7386   -0.1078   24.1552 H   0  0  0  0  0  0  0  0  0  0  0  0
    9.8104   -2.0981   22.4788 C   0  0  0  0  0  0  0  0  0  0  0  0
   10.3947   -1.1904   22.6658 H   0  0  0  0  0  0  0  0  0  0  0  0
   10.4580   -2.9545   22.6890 H   0  0  0  0  0  0  0  0  0  0  0  0
    9.2975   -2.1656   21.0165 C   0  0  0  0  0  0  0  0  0  0  0  0
    9.6033   -3.1021   20.5504 H   0  0  0  0  0  0  0  0  0  0  0  0
    9.6897   -1.3589   20.3868 H   0  0  0  0  0  0  0  0  0  0  0  0
    7.8844    2.2609   21.6103 C   0  0  0  0  0  0  0  0  0  0  0  0
    8.6848    1.7470   21.0648 H   0  0  0  0  0  0  0  0  0  0  0  0
    7.1437    2.5950   20.8642 H   0  0  0  0  0  0  0  0  0  0  0  0
    8.4938    3.4846   22.3203 C   0  0  0  0  0  0  0  0  0  0  0  0
    9.4328    3.1962   22.8126 H   0  0  0  0  0  0  0  0  0  0  0  0
    8.7287    4.2233   21.5486 H   0  0  0  0  0  0  0  0  0  0  0  0
    6.8263    6.2910   23.9965 C   0  0  0  0  0  0  0  0  0  0  0  0
    5.8031    5.9550   23.8761 H   0  0  0  0  0  0  0  0  0  0  0  0
    7.1643    7.6049   24.3014 C   0  0  0  0  0  0  0  0  0  0  0  0
    6.3918    8.3655   24.4247 H   0  0  0  0  0  0  0  0  0  0  0  0
    8.5226    7.9235   24.4360 C   0  0  0  0  0  0  0  0  0  0  0  0
    8.8550    8.9336   24.6303 H   0  0  0  0  0  0  0  0  0  0  0  0
  1  2  1  0
  2  3  2  0
  3  4  1  0
  4  5  1  0
  5  6  1  0
  6  7  1  0
  6  8  1  0
  6  9  1  0
  9 10  1  0
  9 11  1  0
  9 12  1  0
 12 13  1  0
 13 14  2  0
 14 15  1  0
 15 16  2  0
 16 17  1  0
 16 18  1  0
 18 19  2  0
 19 20  1  0
 19 21  1  0
 21 22  1  0
 21 23  2  0
 23 24  1  0
 14 25  1  0
 25 26  1  6
 25 27  1  0
 27 28  1  0
 28 29  1  1
 28 30  1  0
 30 31  1  0
 30 32  1  0
 28 33  1  0
 33 34  1  0
 33 35  1  0
 33 36  1  0
 36 37  1  0
 36 38  1  0
 12 39  1  0
 39 40  1  0
 39 41  1  0
 39 42  1  0
 42 43  1  0
 42 44  1  0
  4 45  2  0
 45 46  1  0
 45 47  1  0
 47 48  1  0
 47 49  2  0
 49 50  1  0
 49  2  1  0
 42  5  1  0
 30 13  1  0
 23 15  1  0
 36 25  1  0
M  END
>  <plip>  (1) 
-0.07142857142857142

>  <filename>  (1) 
[H][c]1[n][c]([N]2[C]([H])([H])[C]([H])([H])[N]([C]3=[C]([c]4[c]([H])[n][c]([H])[c]([H])[c]4[H])[C@]4([H])[S][C@]([H])([C]3([H])[H])[C]([H])([H])[C]4([H])[H])[C]([H])([H])[C]2([H])[H])[c]([H])[c]([H])[c]1[H]

$$$$
