
     RDKit          3D

 34 36  0  0  0  0  0  0  0  0999 V2000
    5.9042   -3.1404   25.7842 H   0  0  0  0  0  0  0  0  0  0  0  0
    6.4034   -2.4415   25.1143 C   0  0  0  0  0  0  0  0  0  0  0  0
    6.2709   -2.6102   23.7963 C   0  0  0  0  0  0  0  0  0  0  0  0
    5.3892   -3.0506   23.3361 H   0  0  0  0  0  0  0  0  0  0  0  0
    7.1933   -2.0789   22.8574 N   0  0  0  0  0  0  0  0  0  0  0  0
    6.5908   -1.4276   21.8144 N   0  0  0  0  0  0  0  0  0  0  0  0
    7.3403   -0.7850   20.9601 C   0  0  0  0  0  0  0  0  0  0  0  0
    6.6182   -0.0287   19.9002 C   0  0  0  0  0  0  0  0  0  0  0  0
    7.1541    0.0110   18.6100 C   0  0  0  0  0  0  0  0  0  0  0  0
    8.0814   -0.5180   18.3984 H   0  0  0  0  0  0  0  0  0  0  0  0
    6.5912    0.6525   17.5812 N   0  0  0  0  0  0  0  0  0  0  0  0
    5.4427    1.3020   17.8206 C   0  0  0  0  0  0  0  0  0  0  0  0
    5.0037    1.8198   16.9692 H   0  0  0  0  0  0  0  0  0  0  0  0
    4.8146    1.3169   19.0723 C   0  0  0  0  0  0  0  0  0  0  0  0
    3.8865    1.8629   19.1918 H   0  0  0  0  0  0  0  0  0  0  0  0
    5.4018    0.6321   20.1364 C   0  0  0  0  0  0  0  0  0  0  0  0
    4.9347    0.6107   21.1241 H   0  0  0  0  0  0  0  0  0  0  0  0
    8.7818   -0.7976   21.0562 C   0  0  0  0  0  0  0  0  0  0  0  0
    9.3759   -0.2607   20.3197 H   0  0  0  0  0  0  0  0  0  0  0  0
    9.3811   -1.4477   22.0935 C   0  0  0  0  0  0  0  0  0  0  0  0
   10.4552   -1.5066   22.2342 H   0  0  0  0  0  0  0  0  0  0  0  0
    8.6099   -2.1389   23.1155 C   0  0  0  0  0  0  0  0  0  0  0  0
    9.0873   -2.7162   24.0733 O   0  0  0  0  0  0  0  0  0  0  0  0
    7.1360   -1.3030   25.7223 C   0  0  0  0  0  0  0  0  0  0  0  0
    7.1676   -0.0669   25.0542 C   0  0  0  0  0  0  0  0  0  0  0  0
    6.7267    0.0258   24.0649 H   0  0  0  0  0  0  0  0  0  0  0  0
    7.7446    1.0461   25.6571 C   0  0  0  0  0  0  0  0  0  0  0  0
    7.7508    1.9977   25.1363 H   0  0  0  0  0  0  0  0  0  0  0  0
    8.3216    0.9343   26.9210 C   0  0  0  0  0  0  0  0  0  0  0  0
    8.7096    1.8258   27.3972 H   0  0  0  0  0  0  0  0  0  0  0  0
    8.3681   -0.3037   27.5671 C   0  0  0  0  0  0  0  0  0  0  0  0
    8.8771   -0.3762   28.5266 H   0  0  0  0  0  0  0  0  0  0  0  0
    7.7767   -1.4225   26.9683 C   0  0  0  0  0  0  0  0  0  0  0  0
    7.8268   -2.3928   27.4591 H   0  0  0  0  0  0  0  0  0  0  0  0
  1  2  1  0
  2  3  2  3
  3  4  1  0
  3  5  1  0
  5  6  1  0
  6  7  2  0
  7  8  1  0
  8  9  2  0
  9 10  1  0
  9 11  1  0
 11 12  2  0
 12 13  1  0
 12 14  1  0
 14 15  1  0
 14 16  2  0
 16 17  1  0
  7 18  1  0
 18 19  1  0
 18 20  2  0
 20 21  1  0
 20 22  1  0
 22 23  2  0
  2 24  1  0
 24 25  2  0
 25 26  1  0
 25 27  1  0
 27 28  1  0
 27 29  2  0
 29 30  1  0
 29 31  1  0
 31 32  1  0
 31 33  2  0
 33 34  1  0
 22  5  1  0
 33 24  1  0
 16  8  1  0
M  END
>  <plip>  (1) 
-0.03571428571428571

>  <filename>  (1) 
[H][C](=[C]([H])[n]1[n][c](-[c]2[c]([H])[n][c]([H])[c]([H])[c]2[H])[c]([H])[c]([H])[c]1=[O])[c]1[c]([H])[c]([H])[c]([H])[c]([H])[c]1[H]

$$$$
