
     RDKit          3D

 35 36  0  0  0  0  0  0  0  0999 V2000
    5.8870   -4.6517   21.0106 C   0  0  0  0  0  0  0  0  0  0  0  0
    6.9374   -4.1345   21.9714 C   0  0  0  0  0  0  0  0  0  0  0  0
    7.4021   -2.9373   21.9627 N   0  0  0  0  0  0  0  0  0  0  0  0
    6.8431   -2.1443   20.9568 O   0  0  0  0  0  0  0  0  0  0  0  0
    7.3582   -0.8076   20.9889 C   0  0  0  0  0  0  0  0  0  0  0  0
    6.6549   -0.0099   19.9134 C   0  0  0  0  0  0  0  0  0  0  0  0
    5.4434    0.6491   20.1621 C   0  0  0  0  0  0  0  0  0  0  0  0
    4.8081    1.3085   19.1050 C   0  0  0  0  0  0  0  0  0  0  0  0
    5.4026    1.2903   17.8388 C   0  0  0  0  0  0  0  0  0  0  0  0
    6.5656    0.6708   17.5818 N   0  0  0  0  0  0  0  0  0  0  0  0
    7.1645    0.0536   18.6084 C   0  0  0  0  0  0  0  0  0  0  0  0
    8.1133   -0.4241   18.3689 H   0  0  0  0  0  0  0  0  0  0  0  0
    4.9276    1.7841   16.9922 H   0  0  0  0  0  0  0  0  0  0  0  0
    3.8757    1.8417   19.2514 H   0  0  0  0  0  0  0  0  0  0  0  0
    5.0045    0.6340   21.1636 H   0  0  0  0  0  0  0  0  0  0  0  0
    7.1721   -0.3644   21.9764 H   0  0  0  0  0  0  0  0  0  0  0  0
    8.4432   -0.8235   20.8241 H   0  0  0  0  0  0  0  0  0  0  0  0
    7.4727   -5.0752   23.0283 C   0  0  0  0  0  0  0  0  0  0  0  0
    6.8278   -4.9030   24.4272 C   0  0  0  0  0  0  0  0  0  0  0  0
    5.3153   -4.9647   24.3913 C   0  0  0  0  0  0  0  0  0  0  0  0
    4.7527   -3.7960   24.6962 C   0  0  0  0  0  0  0  0  0  0  0  0
    5.7802   -2.7429   25.0448 C   0  0  0  0  0  0  0  0  0  0  0  0
    7.1143   -3.5218   25.0616 C   0  0  0  0  0  0  0  0  0  0  0  0
    7.8999   -2.9925   24.5171 H   0  0  0  0  0  0  0  0  0  0  0  0
    7.4926   -3.6399   26.0840 H   0  0  0  0  0  0  0  0  0  0  0  0
    5.5765   -2.2563   26.0052 H   0  0  0  0  0  0  0  0  0  0  0  0
    5.7901   -1.9285   24.3095 H   0  0  0  0  0  0  0  0  0  0  0  0
    3.6819   -3.5942   24.7053 H   0  0  0  0  0  0  0  0  0  0  0  0
    4.7765   -5.8602   24.0801 H   0  0  0  0  0  0  0  0  0  0  0  0
    7.2335   -5.7054   25.0573 H   0  0  0  0  0  0  0  0  0  0  0  0
    8.5606   -4.9624   23.0965 H   0  0  0  0  0  0  0  0  0  0  0  0
    7.2995   -6.1079   22.7116 H   0  0  0  0  0  0  0  0  0  0  0  0
    4.9924   -4.0344   21.0992 H   0  0  0  0  0  0  0  0  0  0  0  0
    6.2268   -4.5850   19.9742 H   0  0  0  0  0  0  0  0  0  0  0  0
    5.6165   -5.6893   21.2198 H   0  0  0  0  0  0  0  0  0  0  0  0
  1  2  1  0
  2  3  2  3
  3  4  1  0
  4  5  1  0
  5  6  1  0
  6  7  2  0
  7  8  1  0
  8  9  2  0
  9 10  1  0
 10 11  2  0
 11 12  1  0
  9 13  1  0
  8 14  1  0
  7 15  1  0
  5 16  1  0
  5 17  1  0
  2 18  1  0
 18 19  1  0
 19 20  1  0
 20 21  2  0
 21 22  1  0
 22 23  1  0
 23 24  1  0
 23 25  1  0
 22 26  1  0
 22 27  1  0
 21 28  1  0
 20 29  1  0
 19 30  1  0
 18 31  1  0
 18 32  1  0
  1 33  1  0
  1 34  1  0
  1 35  1  0
 11  6  1  0
 23 19  1  0
M  END
>  <plip>  (1) 
-0.06896551724137931

>  <filename>  (1) 
[H][C]1=[C]([H])[C]([H])([C]([H])([H])[C](=[N][O][C]([H])([H])[c]2[c]([H])[n][c]([H])[c]([H])[c]2[H])[C]([H])([H])[H])[C]([H])([H])[C]1([H])[H]

$$$$
