
     RDKit          3D

 41 43  0  0  0  0  0  0  0  0999 V2000
    8.7893   -1.1310   20.7759 C   0  0  0  0  0  0  0  0  0  0  0  0
    7.3504   -0.6617   21.0886 C   0  0  0  0  0  0  0  0  0  0  0  0
    7.4501    0.3005   22.2119 N   0  0  0  0  0  0  0  0  0  0  0  0
    8.0047    1.5452   22.0517 C   0  0  0  0  0  0  0  0  0  0  0  0
    8.7714    1.8098   21.1352 O   0  0  0  0  0  0  0  0  0  0  0  0
    7.6221    2.6314   23.1249 C   0  0  0  0  0  0  0  0  0  0  0  0
    7.5831    4.0299   22.4951 C   0  0  0  0  0  0  0  0  0  0  0  0
    6.3958    4.0718   21.5324 C   0  0  0  0  0  0  0  0  0  0  0  0
    5.1108    3.6740   22.2206 C   0  0  0  0  0  0  0  0  0  0  0  0
    3.8429    4.0393   21.7463 C   0  0  0  0  0  0  0  0  0  0  0  0
    2.6768    3.5993   22.3811 C   0  0  0  0  0  0  0  0  0  0  0  0
    2.8047    2.7775   23.4993 C   0  0  0  0  0  0  0  0  0  0  0  0
    1.6941    2.3487   24.1216 F   0  0  0  0  0  0  0  0  0  0  0  0
    4.0352    2.3665   23.9922 C   0  0  0  0  0  0  0  0  0  0  0  0
    5.1866    2.8103   23.3289 C   0  0  0  0  0  0  0  0  0  0  0  0
    6.3877    2.3624   23.8332 O   0  0  0  0  0  0  0  0  0  0  0  0
    4.1096    1.7361   24.8693 H   0  0  0  0  0  0  0  0  0  0  0  0
    1.6895    3.8997   22.0503 H   0  0  0  0  0  0  0  0  0  0  0  0
    3.7688    4.6730   20.8621 H   0  0  0  0  0  0  0  0  0  0  0  0
    6.5545    3.3173   20.7521 H   0  0  0  0  0  0  0  0  0  0  0  0
    6.3119    5.0483   21.0454 H   0  0  0  0  0  0  0  0  0  0  0  0
    7.4774    4.7867   23.2831 H   0  0  0  0  0  0  0  0  0  0  0  0
    8.5269    4.2170   21.9727 H   0  0  0  0  0  0  0  0  0  0  0  0
    8.3931    2.5754   23.9019 H   0  0  0  0  0  0  0  0  0  0  0  0
    6.8346    0.2099   23.0027 H   0  0  0  0  0  0  0  0  0  0  0  0
    6.3825   -2.2347   21.5512 C   0  0  0  0  0  0  0  0  0  0  0  0
    6.5416   -2.5415   22.7258 O   0  0  0  0  0  0  0  0  0  0  0  0
    5.7763   -2.7302   20.6069 O   0  0  0  0  0  1  0  0  0  0  0  0
    6.6360    0.0208   19.9257 C   0  0  0  0  0  0  0  0  0  0  0  0
    5.4064    0.6742   20.1286 C   0  0  0  0  0  0  0  0  0  0  0  0
    4.8030    1.3322   19.0567 C   0  0  0  0  0  0  0  0  0  0  0  0
    5.4476    1.3275   17.8138 C   0  0  0  0  0  0  0  0  0  0  0  0
    6.6226    0.7252   17.5930 N   0  0  0  0  0  0  0  0  0  0  0  0
    7.1918    0.1065   18.6394 C   0  0  0  0  0  0  0  0  0  0  0  0
    8.1651   -0.3451   18.4451 H   0  0  0  0  0  0  0  0  0  0  0  0
    4.9983    1.8169   16.9542 H   0  0  0  0  0  0  0  0  0  0  0  0
    3.8704    1.8718   19.1809 H   0  0  0  0  0  0  0  0  0  0  0  0
    4.9647    0.7198   21.1265 H   0  0  0  0  0  0  0  0  0  0  0  0
    9.2279   -1.5795   21.6730 H   0  0  0  0  0  0  0  0  0  0  0  0
    9.3868   -0.2547   20.5199 H   0  0  0  0  0  0  0  0  0  0  0  0
    8.8415   -1.8545   19.9611 H   0  0  0  0  0  0  0  0  0  0  0  0
  1  2  1  0
  2  3  1  0
  3  4  1  0
  4  5  2  0
  4  6  1  0
  6  7  1  0
  7  8  1  0
  8  9  1  0
  9 10  2  0
 10 11  1  0
 11 12  2  0
 12 13  1  0
 12 14  1  0
 14 15  2  0
 15 16  1  0
 14 17  1  0
 11 18  1  0
 10 19  1  0
  8 20  1  0
  8 21  1  0
  7 22  1  0
  7 23  1  0
  6 24  1  0
  3 25  1  0
  2 26  1  0
 26 27  2  0
 26 28  1  0
  2 29  1  0
 29 30  2  0
 30 31  1  0
 31 32  2  0
 32 33  1  0
 33 34  2  0
 34 35  1  0
 32 36  1  0
 31 37  1  0
 30 38  1  0
  1 39  1  0
  1 40  1  0
  1 41  1  0
 16  6  1  0
 34 29  1  0
 15  9  1  0
M  CHG  1  28  -1
M  END
>  <plip>  (1) 
-0.14285714285714285

>  <filename>  (1) 
[H][c]1[n][c]([H])[c]([C]([C](=[O])[O-])([N]([H])[C](=[O])[C]2([H])[O][c]3[c]([H])[c]([F])[c]([H])[c]([H])[c]3[C]([H])([H])[C]2([H])[H])[C]([H])([H])[H])[c]([H])[c]1[H]

$$$$
