
     RDKit          3D

 48 50  0  0  0  0  0  0  0  0999 V2000
    5.7838   -3.7951   20.0948 C   0  0  0  0  0  0  0  0  0  0  0  0
    6.7422   -2.7768   20.2336 O   0  0  0  0  0  0  0  0  0  0  0  0
    6.6775   -2.0341   21.4076 C   0  0  0  0  0  0  0  0  0  0  0  0
    7.2539   -2.7326   22.4942 O   0  0  0  0  0  0  0  0  0  0  0  0
    8.5868   -3.2006   22.3281 C   0  0  0  0  0  0  0  0  0  0  0  0
    8.6942   -3.8057   21.4209 H   0  0  0  0  0  0  0  0  0  0  0  0
    9.3155   -2.3782   22.2914 H   0  0  0  0  0  0  0  0  0  0  0  0
    8.8141   -3.8193   23.2000 H   0  0  0  0  0  0  0  0  0  0  0  0
    7.3627   -0.6888   21.0214 C   0  0  0  0  0  0  0  0  0  0  0  0
    7.5726    0.1659   22.1656 N   0  0  0  0  0  0  0  0  0  0  0  0
    8.4306    1.2202   22.1599 C   0  0  0  0  0  0  0  0  0  0  0  0
    9.0932    1.5311   21.1839 O   0  0  0  0  0  0  0  0  0  0  0  0
    8.4049    1.9869   23.4805 C   0  0  0  0  0  0  0  0  0  0  0  0
    8.2524    3.3550   23.4720 C   0  0  0  0  0  0  0  0  0  0  0  0
    8.1388    4.0921   24.6930 C   0  0  0  0  0  0  0  0  0  0  0  0
    8.0251    5.5868   24.6273 C   0  0  0  0  0  0  0  0  0  0  0  0
    7.0194    5.8587   24.2859 H   0  0  0  0  0  0  0  0  0  0  0  0
    8.7482    6.0125   23.9190 H   0  0  0  0  0  0  0  0  0  0  0  0
    8.1955    6.0132   25.6171 H   0  0  0  0  0  0  0  0  0  0  0  0
    8.1168    3.5120   25.8752 N   0  0  0  0  0  0  0  0  0  0  0  0
    8.2850    2.1453   25.9262 C   0  0  0  0  0  0  0  0  0  0  0  0
    8.2691    1.5215   27.2302 C   0  0  0  0  0  0  0  0  0  0  0  0
    7.9921    2.2264   28.3582 O   0  0  0  0  0  0  0  0  0  0  0  0
    8.0549    3.1699   28.1215 H   0  0  0  0  0  0  0  0  0  0  0  0
    8.5770    0.1827   27.3644 C   0  0  0  0  0  0  0  0  0  0  0  0
    8.8904   -0.5911   26.2244 C   0  0  0  0  0  0  0  0  0  0  0  0
    8.8167   -0.0623   24.9547 C   0  0  0  0  0  0  0  0  0  0  0  0
    8.4968    1.3254   24.7673 C   0  0  0  0  0  0  0  0  0  0  0  0
    9.0155   -0.7147   24.1080 H   0  0  0  0  0  0  0  0  0  0  0  0
    9.1895   -1.6261   26.3651 H   0  0  0  0  0  0  0  0  0  0  0  0
    8.6034   -0.2502   28.3585 H   0  0  0  0  0  0  0  0  0  0  0  0
    8.2059    3.8927   22.5280 H   0  0  0  0  0  0  0  0  0  0  0  0
    7.0869   -0.0124   23.0296 H   0  0  0  0  0  0  0  0  0  0  0  0
    6.6247    0.0635   19.9156 C   0  0  0  0  0  0  0  0  0  0  0  0
    5.4072    0.7248   20.1259 C   0  0  0  0  0  0  0  0  0  0  0  0
    4.7880    1.3454   19.0382 C   0  0  0  0  0  0  0  0  0  0  0  0
    5.4144    1.3073   17.7861 C   0  0  0  0  0  0  0  0  0  0  0  0
    6.5827    0.6886   17.5636 N   0  0  0  0  0  0  0  0  0  0  0  0
    7.1556    0.0910   18.6198 C   0  0  0  0  0  0  0  0  0  0  0  0
    8.0987   -0.4179   18.4193 H   0  0  0  0  0  0  0  0  0  0  0  0
    4.9606    1.7984   16.9256 H   0  0  0  0  0  0  0  0  0  0  0  0
    3.8456    1.8704   19.1483 H   0  0  0  0  0  0  0  0  0  0  0  0
    4.9533    0.7719   21.1207 H   0  0  0  0  0  0  0  0  0  0  0  0
    8.3345   -0.9964   20.6183 H   0  0  0  0  0  0  0  0  0  0  0  0
    5.6409   -1.8518   21.7385 H   0  0  0  0  0  0  0  0  0  0  0  0
    4.8062   -3.3343   19.9215 H   0  0  0  0  0  0  0  0  0  0  0  0
    6.0569   -4.3747   19.2107 H   0  0  0  0  0  0  0  0  0  0  0  0
    5.7594   -4.4649   20.9646 H   0  0  0  0  0  0  0  0  0  0  0  0
  1  2  1  0
  2  3  1  0
  3  4  1  0
  4  5  1  0
  5  6  1  0
  5  7  1  0
  5  8  1  0
  3  9  1  0
  9 10  1  0
 10 11  1  0
 11 12  2  0
 11 13  1  0
 13 14  2  0
 14 15  1  0
 15 16  1  0
 16 17  1  0
 16 18  1  0
 16 19  1  0
 15 20  2  0
 20 21  1  0
 21 22  2  0
 22 23  1  0
 23 24  1  0
 22 25  1  0
 25 26  2  0
 26 27  1  0
 27 28  2  0
 27 29  1  0
 26 30  1  0
 25 31  1  0
 14 32  1  0
 10 33  1  0
  9 34  1  0
 34 35  2  0
 35 36  1  0
 36 37  2  0
 37 38  1  0
 38 39  2  0
 39 40  1  0
 37 41  1  0
 36 42  1  0
 35 43  1  0
  9 44  1  0
  3 45  1  0
  1 46  1  0
  1 47  1  0
  1 48  1  0
 28 13  1  0
 39 34  1  0
 28 21  1  0
M  END
>  <plip>  (1) 
-0.17857142857142858

>  <filename>  (1) 
[H][O][c]1[c]([H])[c]([H])[c]([H])[c]2[c]([C](=[O])[N]([H])[C]([H])([c]3[c]([H])[n][c]([H])[c]([H])[c]3[H])[C]([H])([O][C]([H])([H])[H])[O][C]([H])([H])[H])[c]([H])[c]([C]([H])([H])[H])[n][c]12

$$$$
