
     RDKit          3D

 35 36  0  0  0  0  0  0  0  0999 V2000
    4.9265    1.8137   16.9776 H   0  0  0  0  0  0  0  0  0  0  0  0
    5.3857    1.3030   17.8229 C   0  0  0  0  0  0  0  0  0  0  0  0
    6.5503    0.6869   17.5718 N   0  0  0  0  0  0  0  0  0  0  0  0
    7.1556    0.0719   18.5940 C   0  0  0  0  0  0  0  0  0  0  0  0
    8.1082   -0.4000   18.3501 H   0  0  0  0  0  0  0  0  0  0  0  0
    6.6430    0.0029   19.9004 C   0  0  0  0  0  0  0  0  0  0  0  0
    7.4236   -0.6848   21.0068 C   0  0  0  0  0  0  0  0  0  0  0  0
    7.7242   -1.6995   20.7230 H   0  0  0  0  0  0  0  0  0  0  0  0
    6.8065   -0.7842   21.9060 H   0  0  0  0  0  0  0  0  0  0  0  0
    8.6525    0.0207   21.3610 N   0  0  0  0  0  0  0  0  0  0  0  0
    9.9167   -0.3147   20.9723 C   0  0  0  0  0  0  0  0  0  0  0  0
   10.1186   -1.2520   20.4667 H   0  0  0  0  0  0  0  0  0  0  0  0
   10.8062    0.5972   21.2730 N   0  0  0  0  0  0  0  0  0  0  0  0
   10.0888    1.5985   21.8752 C   0  0  0  0  0  0  0  0  0  0  0  0
   10.5689    2.5002   22.2376 H   0  0  0  0  0  0  0  0  0  0  0  0
    8.7500    1.2711   21.9496 C   0  0  0  0  0  0  0  0  0  0  0  0
    7.6196    1.9662   22.3869 N   0  0  0  0  0  0  0  0  0  0  0  0
    6.9889    1.5580   23.6463 C   0  0  0  0  0  0  0  0  0  0  0  0
    7.0849    0.4684   23.7259 H   0  0  0  0  0  0  0  0  0  0  0  0
    5.9091    1.7733   23.5956 H   0  0  0  0  0  0  0  0  0  0  0  0
    7.5950    2.2327   24.8804 C   0  0  0  0  0  0  0  0  0  0  0  0
    7.1445    1.8266   25.7900 H   0  0  0  0  0  0  0  0  0  0  0  0
    7.4197    3.3156   24.8806 H   0  0  0  0  0  0  0  0  0  0  0  0
    8.6779    2.0692   24.9241 H   0  0  0  0  0  0  0  0  0  0  0  0
    7.6032    3.3960   22.0717 C   0  0  0  0  0  0  0  0  0  0  0  0
    8.1412    3.9891   22.8347 H   0  0  0  0  0  0  0  0  0  0  0  0
    8.1902    3.4799   21.1574 H   0  0  0  0  0  0  0  0  0  0  0  0
    6.1817    3.9358   21.9152 C   0  0  0  0  0  0  0  0  0  0  0  0
    5.6817    4.0383   22.8845 H   0  0  0  0  0  0  0  0  0  0  0  0
    6.1860    4.9259   21.4471 H   0  0  0  0  0  0  0  0  0  0  0  0
    5.5667    3.2688   21.3045 H   0  0  0  0  0  0  0  0  0  0  0  0
    5.4227    0.6514   20.1371 C   0  0  0  0  0  0  0  0  0  0  0  0
    4.9962    0.6581   21.1415 H   0  0  0  0  0  0  0  0  0  0  0  0
    4.7836    1.3111   19.0825 C   0  0  0  0  0  0  0  0  0  0  0  0
    3.8574    1.8598   19.2245 H   0  0  0  0  0  0  0  0  0  0  0  0
  1  2  1  0
  2  3  2  0
  3  4  1  0
  4  5  1  0
  4  6  2  0
  6  7  1  0
  7  8  1  0
  7  9  1  0
  7 10  1  0
 10 11  1  0
 11 12  1  0
 11 13  2  0
 13 14  1  0
 14 15  1  0
 14 16  2  0
 16 17  1  0
 17 18  1  0
 18 19  1  0
 18 20  1  0
 18 21  1  0
 21 22  1  0
 21 23  1  0
 21 24  1  0
 17 25  1  0
 25 26  1  0
 25 27  1  0
 25 28  1  0
 28 29  1  0
 28 30  1  0
 28 31  1  0
  6 32  1  0
 32 33  1  0
 32 34  2  0
 34 35  1  0
 34  2  1  0
 16 10  1  0
M  END
>  <plip>  (1) 
-0.07142857142857142

>  <filename>  (1) 
[H][c]1[n][c]([H])[c]([C]([H])([H])[n]2[c]([H])[n][c]([H])[c]2[N]([C]([H])([H])[C]([H])([H])[H])[C]([H])([H])[C]([H])([H])[H])[c]([H])[c]1[H]

$$$$
