
     RDKit          3D

 36 37  0  0  0  0  0  0  0  0999 V2000
    9.3036    0.9750   21.2754 C   0  0  0  0  0  0  0  0  0  0  0  0
    8.1313    0.2713   21.9474 C   0  0  0  0  0  0  0  0  0  0  0  0
    7.3829   -0.7036   21.0125 C   0  0  0  0  0  0  0  0  0  0  0  0
    6.6534   -0.0483   19.8647 C   0  0  0  0  0  0  0  0  0  0  0  0
    5.4494    0.6272   20.1156 C   0  0  0  0  0  0  0  0  0  0  0  0
    4.8206    1.3030   19.0695 C   0  0  0  0  0  0  0  0  0  0  0  0
    5.4245    1.2886   17.8052 C   0  0  0  0  0  0  0  0  0  0  0  0
    6.5700    0.6452   17.5361 N   0  0  0  0  0  0  0  0  0  0  0  0
    7.1568   -0.0044   18.5530 C   0  0  0  0  0  0  0  0  0  0  0  0
    8.0887   -0.5171   18.3155 H   0  0  0  0  0  0  0  0  0  0  0  0
    4.9655    1.8191   16.9733 H   0  0  0  0  0  0  0  0  0  0  0  0
    3.8909    1.8451   19.2181 H   0  0  0  0  0  0  0  0  0  0  0  0
    5.0355    0.6210   21.1299 H   0  0  0  0  0  0  0  0  0  0  0  0
    8.1045   -1.4588   20.6661 H   0  0  0  0  0  0  0  0  0  0  0  0
    6.6464   -1.2304   21.6348 H   0  0  0  0  0  0  0  0  0  0  0  0
    8.5661   -0.4993   23.0925 N   0  0  0  0  0  0  0  0  0  0  0  0
    7.7654   -0.6138   24.1802 C   0  0  0  0  0  0  0  0  0  0  0  0
    6.7133    0.0002   24.3237 O   0  0  0  0  0  0  0  0  0  0  0  0
    8.3331   -1.5417   25.2017 C   0  0  0  0  0  0  0  0  0  0  0  0
    9.1719   -2.6739   25.1223 C   0  0  0  0  0  0  0  0  0  0  0  0
    9.8285   -3.3599   23.9369 C   0  0  0  0  0  0  0  0  0  0  0  0
   10.6001   -4.2912   24.1871 O   0  0  0  0  0  0  0  0  0  0  0  0
    9.5296   -2.9044   22.7952 O   0  0  0  0  0  1  0  0  0  0  0  0
    9.3059   -3.1010   26.4444 C   0  0  0  0  0  0  0  0  0  0  0  0
    8.6279   -2.3155   27.2668 N   0  0  0  0  0  0  0  0  0  0  0  0
    8.0524   -1.3863   26.5128 N   0  0  0  0  0  0  0  0  0  0  0  0
    7.2033   -0.3640   27.1070 C   0  0  0  0  0  0  0  0  0  0  0  0
    7.3741   -0.3747   28.1791 H   0  0  0  0  0  0  0  0  0  0  0  0
    7.4699    0.6032   26.6830 H   0  0  0  0  0  0  0  0  0  0  0  0
    6.1547   -0.5552   26.8777 H   0  0  0  0  0  0  0  0  0  0  0  0
    9.8835   -3.9315   26.8328 H   0  0  0  0  0  0  0  0  0  0  0  0
    9.0760   -1.3852   22.8927 H   0  0  0  0  0  0  0  0  0  0  0  0
    7.4263    1.0383   22.3046 H   0  0  0  0  0  0  0  0  0  0  0  0
    9.8137    1.6371   21.9803 H   0  0  0  0  0  0  0  0  0  0  0  0
    8.9303    1.5886   20.4471 H   0  0  0  0  0  0  0  0  0  0  0  0
   10.0346    0.2568   20.8792 H   0  0  0  0  0  0  0  0  0  0  0  0
  1  2  1  0
  2  3  1  0
  3  4  1  0
  4  5  2  0
  5  6  1  0
  6  7  2  0
  7  8  1  0
  8  9  2  0
  9 10  1  0
  7 11  1  0
  6 12  1  0
  5 13  1  0
  3 14  1  0
  3 15  1  0
  2 16  1  0
 16 17  1  0
 17 18  2  0
 17 19  1  0
 19 20  2  0
 20 21  1  0
 21 22  2  0
 21 23  1  0
 20 24  1  0
 24 25  2  0
 25 26  1  0
 26 27  1  0
 27 28  1  0
 27 29  1  0
 27 30  1  0
 24 31  1  0
 16 32  1  0
  2 33  1  0
  1 34  1  0
  1 35  1  0
  1 36  1  0
  9  4  1  0
 26 19  1  0
M  CHG  1  23  -1
M  END
>  <plip>  (1) 
-0.07142857142857142

>  <filename>  (1) 
[H][c]1[n][c]([H])[c]([C]([H])([H])[C]([H])([N]([H])[C](=[O])[c]2[c]([C](=[O])[O-])[c]([H])[n][n]2[C]([H])([H])[H])[C]([H])([H])[H])[c]([H])[c]1[H]

$$$$
