
     RDKit          3D

 35 36  0  0  0  0  0  0  0  0999 V2000
    3.5124    5.5401   23.0848 C   0  0  0  0  0  0  0  0  0  0  0  0
    4.6913    4.7864   22.8581 O   0  0  0  0  0  0  0  0  0  0  0  0
    5.8087    5.4361   22.4628 C   0  0  0  0  0  0  0  0  0  0  0  0
    5.7988    6.7721   22.0272 C   0  0  0  0  0  0  0  0  0  0  0  0
    6.9927    7.4203   21.7074 C   0  0  0  0  0  0  0  0  0  0  0  0
    8.1983    6.7244   21.7851 C   0  0  0  0  0  0  0  0  0  0  0  0
    8.2115    5.3697   22.1053 C   0  0  0  0  0  0  0  0  0  0  0  0
    7.0227    4.7028   22.4352 C   0  0  0  0  0  0  0  0  0  0  0  0
    7.0262    3.2492   22.7561 C   0  0  0  0  0  0  0  0  0  0  0  0
    6.3654    2.7852   23.6654 O   0  0  0  0  0  0  0  0  0  0  0  0
    7.9545    2.2578   21.9146 C   0  0  0  0  0  0  0  0  0  0  0  0
    8.6072    2.5649   20.9396 O   0  0  0  0  0  0  0  0  0  0  0  0
    7.8725    0.9784   22.4100 N   0  0  0  0  0  0  0  0  0  0  0  0
    8.3910   -0.0697   21.6902 O   0  0  0  0  0  0  0  0  0  0  0  0
    7.3511   -0.8078   21.0130 C   0  0  0  0  0  0  0  0  0  0  0  0
    6.6470   -0.0249   19.9330 C   0  0  0  0  0  0  0  0  0  0  0  0
    5.4258    0.6320   20.1481 C   0  0  0  0  0  0  0  0  0  0  0  0
    4.8278    1.3130   19.0840 C   0  0  0  0  0  0  0  0  0  0  0  0
    5.4789    1.3175   17.8459 C   0  0  0  0  0  0  0  0  0  0  0  0
    6.6558    0.7117   17.6215 N   0  0  0  0  0  0  0  0  0  0  0  0
    7.2194    0.0782   18.6582 C   0  0  0  0  0  0  0  0  0  0  0  0
    8.1759   -0.4068   18.4586 H   0  0  0  0  0  0  0  0  0  0  0  0
    5.0299    1.8189   16.9902 H   0  0  0  0  0  0  0  0  0  0  0  0
    3.8822    1.8327   19.2012 H   0  0  0  0  0  0  0  0  0  0  0  0
    4.9661    0.6085   21.1384 H   0  0  0  0  0  0  0  0  0  0  0  0
    7.8952   -1.6569   20.5848 H   0  0  0  0  0  0  0  0  0  0  0  0
    6.6270   -1.1771   21.7532 H   0  0  0  0  0  0  0  0  0  0  0  0
    7.7147    0.7955   23.3916 H   0  0  0  0  0  0  0  0  0  0  0  0
    9.1555    4.8297   22.1006 H   0  0  0  0  0  0  0  0  0  0  0  0
    9.1328    7.2290   21.6111 H   0  0  0  0  0  0  0  0  0  0  0  0
    6.9646    8.4669   21.4076 H   0  0  0  0  0  0  0  0  0  0  0  0
    4.8482    7.2846   21.9384 H   0  0  0  0  0  0  0  0  0  0  0  0
    3.0928    5.9467   22.1549 H   0  0  0  0  0  0  0  0  0  0  0  0
    2.7872    4.8607   23.5290 H   0  0  0  0  0  0  0  0  0  0  0  0
    3.6958    6.3740   23.7752 H   0  0  0  0  0  0  0  0  0  0  0  0
  1  2  1  0
  2  3  1  0
  3  4  2  0
  4  5  1  0
  5  6  2  0
  6  7  1  0
  7  8  2  0
  8  9  1  0
  9 10  2  0
  9 11  1  0
 11 12  2  0
 11 13  1  0
 13 14  1  0
 14 15  1  0
 15 16  1  0
 16 17  2  0
 17 18  1  0
 18 19  2  0
 19 20  1  0
 20 21  2  0
 21 22  1  0
 19 23  1  0
 18 24  1  0
 17 25  1  0
 15 26  1  0
 15 27  1  0
 13 28  1  0
  7 29  1  0
  6 30  1  0
  5 31  1  0
  4 32  1  0
  1 33  1  0
  1 34  1  0
  1 35  1  0
  8  3  1  0
 21 16  1  0
M  END
>  <plip>  (1) 
-0.10714285714285714

>  <filename>  (1) 
[H][c]1[n][c]([H])[c]([C]([H])([H])[O][N]([H])[C](=[O])[C](=[O])[c]2[c]([H])[c]([H])[c]([H])[c]([H])[c]2[O][C]([H])([H])[H])[c]([H])[c]1[H]

$$$$
