
     RDKit          3D

 31 32  0  0  0  0  0  0  0  0999 V2000
    4.9206    1.8105   16.9771 H   0  0  0  0  0  0  0  0  0  0  0  0
    5.3841    1.3035   17.8226 C   0  0  0  0  0  0  0  0  0  0  0  0
    6.5432    0.6764   17.5639 N   0  0  0  0  0  0  0  0  0  0  0  0
    7.1450    0.0566   18.5857 C   0  0  0  0  0  0  0  0  0  0  0  0
    8.1003   -0.4180   18.3588 H   0  0  0  0  0  0  0  0  0  0  0  0
    6.6399   -0.0005   19.8986 C   0  0  0  0  0  0  0  0  0  0  0  0
    7.4320   -0.6721   21.0136 C   0  0  0  0  0  0  0  0  0  0  0  0
    6.7738   -0.8925   21.8614 H   0  0  0  0  0  0  0  0  0  0  0  0
    7.8293   -1.6371   20.6832 H   0  0  0  0  0  0  0  0  0  0  0  0
    8.6030    0.1886   21.4849 C   0  0  0  0  0  0  0  0  0  0  0  0
   10.1295   -0.3110   21.2109 S   0  0  0  0  0  0  0  0  0  0  0  0
    8.2895    1.5074   22.1230 C   0  0  0  0  0  0  0  0  0  0  0  0
    9.1013    2.6308   21.8658 C   0  0  0  0  0  0  0  0  0  0  0  0
    9.9573    2.5326   21.2033 H   0  0  0  0  0  0  0  0  0  0  0  0
    8.8484    3.8628   22.4589 C   0  0  0  0  0  0  0  0  0  0  0  0
    9.5356    4.6869   22.2767 H   0  0  0  0  0  0  0  0  0  0  0  0
    7.7501    4.0044   23.3257 C   0  0  0  0  0  0  0  0  0  0  0  0
    7.4472    5.5532   24.1012 S   0  0  0  0  0  0  0  0  0  0  0  0
    8.6475    6.3685   24.0450 O   0  0  0  0  0  0  0  0  0  0  0  0
    6.6711    5.4312   25.3128 O   0  0  0  0  0  0  0  0  0  0  0  0
    6.4576    6.3515   23.0535 N   0  0  0  0  0  0  0  0  0  0  0  0
    7.1348    6.5352   22.3236 H   0  0  0  0  0  0  0  0  0  0  0  0
    6.4506    7.1799   23.6472 H   0  0  0  0  0  0  0  0  0  0  0  0
    6.9252    2.9075   23.5989 C   0  0  0  0  0  0  0  0  0  0  0  0
    6.0904    2.9883   24.2947 H   0  0  0  0  0  0  0  0  0  0  0  0
    7.1950    1.6783   22.9975 C   0  0  0  0  0  0  0  0  0  0  0  0
    6.5516    0.8398   23.2494 H   0  0  0  0  0  0  0  0  0  0  0  0
    5.4253    0.6555   20.1380 C   0  0  0  0  0  0  0  0  0  0  0  0
    4.9958    0.6521   21.1410 H   0  0  0  0  0  0  0  0  0  0  0  0
    4.7851    1.3205   19.0852 C   0  0  0  0  0  0  0  0  0  0  0  0
    3.8542    1.8604   19.2297 H   0  0  0  0  0  0  0  0  0  0  0  0
  1  2  1  0
  2  3  2  0
  3  4  1  0
  4  5  1  0
  4  6  2  0
  6  7  1  0
  7  8  1  0
  7  9  1  0
  7 10  1  0
 10 11  2  0
 10 12  1  0
 12 13  2  0
 13 14  1  0
 13 15  1  0
 15 16  1  0
 15 17  2  0
 17 18  1  0
 18 19  2  0
 18 20  2  0
 18 21  1  0
 21 22  1  0
 21 23  1  0
 17 24  1  0
 24 25  1  0
 24 26  2  0
 26 27  1  0
  6 28  1  0
 28 29  1  0
 28 30  2  0
 30 31  1  0
 30  2  1  0
 26 12  1  0
M  END
>  <plip>  (1) 
-0.03571428571428571

>  <filename>  (1) 
[H][c]1[n][c]([H])[c]([C]([H])([H])[C](=[S])[c]2[c]([H])[c]([H])[c]([S](=[O])(=[O])[N]([H])[H])[c]([H])[c]2[H])[c]([H])[c]1[H]

$$$$
