
     RDKit          3D

 33 34  0  0  0  0  0  0  0  0999 V2000
    7.7953   -3.9686   21.7368 H   0  0  0  0  0  0  0  0  0  0  0  0
    8.3429   -3.1358   21.5249 N   0  0  0  0  0  0  0  0  0  0  0  0
    7.5027   -2.2118   21.3333 C   0  0  0  0  0  0  0  0  0  0  0  0
    8.1640   -0.6075   20.8583 S   0  0  0  0  0  0  0  0  0  0  0  0
    7.0225    0.0419   19.6435 C   0  0  0  0  0  0  0  0  0  0  0  0
    7.3449    0.0237   18.2716 C   0  0  0  0  0  0  0  0  0  0  0  0
    8.2409   -0.4899   17.9253 H   0  0  0  0  0  0  0  0  0  0  0  0
    6.6019    0.6106   17.3263 N   0  0  0  0  0  0  0  0  0  0  0  0
    5.4881    1.2532   17.7129 C   0  0  0  0  0  0  0  0  0  0  0  0
    4.9258    1.7602   16.9331 H   0  0  0  0  0  0  0  0  0  0  0  0
    5.0495    1.2846   19.0403 C   0  0  0  0  0  0  0  0  0  0  0  0
    4.1287    1.7900   19.2990 H   0  0  0  0  0  0  0  0  0  0  0  0
    5.8361    0.6804   20.0224 C   0  0  0  0  0  0  0  0  0  0  0  0
    5.5482    0.7168   21.0732 H   0  0  0  0  0  0  0  0  0  0  0  0
    6.0117   -2.3631   21.5261 C   0  0  0  0  0  0  0  0  0  0  0  0
    5.5709   -1.3819   21.6580 H   0  0  0  0  0  0  0  0  0  0  0  0
    5.6078   -2.7894   20.5988 H   0  0  0  0  0  0  0  0  0  0  0  0
    5.6543   -3.3048   22.6829 C   0  0  0  0  0  0  0  0  0  0  0  0
    4.5856   -3.1913   22.9402 H   0  0  0  0  0  0  0  0  0  0  0  0
    6.2099   -3.0430   23.5938 H   0  0  0  0  0  0  0  0  0  0  0  0
    5.9529   -4.6673   22.2644 N   0  0  0  0  0  0  0  0  0  0  0  0
    6.2716   -5.6871   23.2690 C   0  0  0  0  0  0  0  0  0  0  0  0
    7.2220   -5.4797   23.7697 H   0  0  0  0  0  0  0  0  0  0  0  0
    5.4960   -5.7786   24.0559 H   0  0  0  0  0  0  0  0  0  0  0  0
    6.3055   -6.9384   22.3912 C   0  0  0  0  0  0  0  0  0  0  0  0
    7.1830   -6.8912   21.7353 H   0  0  0  0  0  0  0  0  0  0  0  0
    6.3233   -7.8996   22.9038 H   0  0  0  0  0  0  0  0  0  0  0  0
    5.0272   -6.7528   21.5799 C   0  0  0  0  0  0  0  0  0  0  0  0
    4.1513   -7.0973   22.1407 H   0  0  0  0  0  0  0  0  0  0  0  0
    5.0218   -7.2950   20.6362 H   0  0  0  0  0  0  0  0  0  0  0  0
    4.9384   -5.2428   21.3814 C   0  0  0  0  0  0  0  0  0  0  0  0
    3.9332   -4.8891   21.6633 H   0  0  0  0  0  0  0  0  0  0  0  0
    5.1374   -4.9600   20.3400 H   0  0  0  0  0  0  0  0  0  0  0  0
  1  2  1  0
  2  3  2  3
  3  4  1  0
  4  5  1  0
  5  6  2  0
  6  7  1  0
  6  8  1  0
  8  9  2  0
  9 10  1  0
  9 11  1  0
 11 12  1  0
 11 13  2  0
 13 14  1  0
  3 15  1  0
 15 16  1  0
 15 17  1  0
 15 18  1  0
 18 19  1  0
 18 20  1  0
 18 21  1  0
 21 22  1  0
 22 23  1  0
 22 24  1  0
 22 25  1  0
 25 26  1  0
 25 27  1  0
 25 28  1  0
 28 29  1  0
 28 30  1  0
 28 31  1  0
 31 32  1  0
 31 33  1  0
 13  5  1  0
 31 21  1  0
M  END
>  <plip>  (1) 
-0.12903225806451613

>  <filename>  (1) 
[H][N]=[C]([S][c]1[c]([H])[n][c]([H])[c]([H])[c]1[H])[C]([H])([H])[C]([H])([H])[N]1[C]([H])([H])[C]([H])([H])[C]([H])([H])[C]1([H])[H]

$$$$
