
     RDKit          3D

 45 46  0  0  0  0  0  0  0  0999 V2000
    6.0125    3.9984   21.9312 C   0  0  0  0  0  0  0  0  0  0  0  0
    7.4717    3.8041   22.2205 N   0  0  0  0  0  4  0  0  0  0  0  0
    8.1943    5.0516   21.8433 C   0  0  0  0  0  0  0  0  0  0  0  0
    8.0837    5.2316   20.7678 H   0  0  0  0  0  0  0  0  0  0  0  0
    9.2623    4.9786   22.0626 H   0  0  0  0  0  0  0  0  0  0  0  0
    7.7767    5.9074   22.3783 H   0  0  0  0  0  0  0  0  0  0  0  0
    8.0014    2.5630   21.5404 C   0  0  0  0  0  0  0  0  0  0  0  0
    7.7016    1.2961   22.3518 C   0  0  0  0  0  0  0  0  0  0  0  0
    8.0032    0.0805   21.6052 N   0  0  0  0  0  0  0  0  0  0  0  0
    6.8663   -0.6541   21.0467 C   0  0  0  0  0  0  0  0  0  0  0  0
    6.2569    0.0777   19.8714 C   0  0  0  0  0  0  0  0  0  0  0  0
    5.0440    0.7781   19.9485 C   0  0  0  0  0  0  0  0  0  0  0  0
    4.6091    1.4931   18.8275 C   0  0  0  0  0  0  0  0  0  0  0  0
    5.3930    1.4720   17.6712 C   0  0  0  0  0  0  0  0  0  0  0  0
    6.5492    0.8007   17.5737 N   0  0  0  0  0  0  0  0  0  0  0  0
    6.9642    0.1272   18.6551 C   0  0  0  0  0  0  0  0  0  0  0  0
    7.9131   -0.3955   18.5557 H   0  0  0  0  0  0  0  0  0  0  0  0
    5.0833    2.0200   16.7842 H   0  0  0  0  0  0  0  0  0  0  0  0
    3.6851    2.0596   18.8319 H   0  0  0  0  0  0  0  0  0  0  0  0
    4.4510    0.7610   20.8669 H   0  0  0  0  0  0  0  0  0  0  0  0
    6.1227   -0.7755   21.8494 H   0  0  0  0  0  0  0  0  0  0  0  0
    7.2095   -1.6611   20.7784 H   0  0  0  0  0  0  0  0  0  0  0  0
    9.2705   -0.1750   21.1240 C   0  0  0  0  0  0  0  0  0  0  0  0
    9.4688   -0.7643   20.0754 O   0  0  0  0  0  0  0  0  0  0  0  0
   10.4014    0.3213   21.9649 C   0  0  0  0  0  0  0  0  0  0  0  0
   11.3920    1.2072   21.5129 C   0  0  0  0  0  0  0  0  0  0  0  0
   12.4669    1.5320   22.3358 C   0  0  0  0  0  0  0  0  0  0  0  0
   12.5539    0.9536   23.6020 C   0  0  0  0  0  0  0  0  0  0  0  0
   13.6513    1.2293   24.3294 O   0  0  0  0  0  0  0  0  0  0  0  0
   13.6377    0.6545   25.1018 H   0  0  0  0  0  0  0  0  0  0  0  0
   11.5469    0.1346   24.0964 C   0  0  0  0  0  0  0  0  0  0  0  0
   10.4708   -0.1634   23.2737 C   0  0  0  0  0  0  0  0  0  0  0  0
    9.4585   -0.9282   23.7413 O   0  0  0  0  0  0  0  0  0  0  0  0
    9.6924   -1.1574   24.6467 H   0  0  0  0  0  0  0  0  0  0  0  0
   11.5703   -0.2308   25.1179 H   0  0  0  0  0  0  0  0  0  0  0  0
   13.2545    2.2189   22.0589 H   0  0  0  0  0  0  0  0  0  0  0  0
   11.3158    1.6585   20.5252 H   0  0  0  0  0  0  0  0  0  0  0  0
    6.6408    1.2663   22.6291 H   0  0  0  0  0  0  0  0  0  0  0  0
    8.2531    1.3199   23.2952 H   0  0  0  0  0  0  0  0  0  0  0  0
    9.0778    2.6638   21.3885 H   0  0  0  0  0  0  0  0  0  0  0  0
    7.5606    2.4666   20.5483 H   0  0  0  0  0  0  0  0  0  0  0  0
    7.6183    3.6239   23.2339 H   0  0  0  0  0  0  0  0  0  0  0  0
    5.8816    4.1724   20.8569 H   0  0  0  0  0  0  0  0  0  0  0  0
    5.4258    3.1194   22.2064 H   0  0  0  0  0  0  0  0  0  0  0  0
    5.6299    4.8660   22.4736 H   0  0  0  0  0  0  0  0  0  0  0  0
  1  2  1  0
  2  3  1  0
  3  4  1  0
  3  5  1  0
  3  6  1  0
  2  7  1  0
  7  8  1  0
  8  9  1  0
  9 10  1  0
 10 11  1  0
 11 12  2  0
 12 13  1  0
 13 14  2  0
 14 15  1  0
 15 16  2  0
 16 17  1  0
 14 18  1  0
 13 19  1  0
 12 20  1  0
 10 21  1  0
 10 22  1  0
  9 23  1  0
 23 24  2  0
 23 25  1  0
 25 26  2  0
 26 27  1  0
 27 28  2  0
 28 29  1  0
 29 30  1  0
 28 31  1  0
 31 32  2  0
 32 33  1  0
 33 34  1  0
 31 35  1  0
 27 36  1  0
 26 37  1  0
  8 38  1  0
  8 39  1  0
  7 40  1  0
  7 41  1  0
  2 42  1  0
  1 43  1  0
  1 44  1  0
  1 45  1  0
 16 11  1  0
 32 25  1  0
M  CHG  1   2   1
M  END
>  <plip>  (1) 
-0.10714285714285714

>  <filename>  (1) 
[H][O][c]1[c]([H])[c]([H])[c]([C](=[O])[N]([C]([H])([H])[c]2[c]([H])[n][c]([H])[c]([H])[c]2[H])[C]([H])([H])[C]([H])([H])[N+]([H])([C]([H])([H])[H])[C]([H])([H])[H])[c]([O][H])[c]1[H]

$$$$
