
     RDKit          3D

 41 43  0  0  0  0  0  0  0  0999 V2000
    4.9686    6.6950   26.9498 C   0  0  0  0  0  0  0  0  0  0  0  0
    6.0683    6.6164   25.8803 C   0  0  0  0  0  0  0  0  0  0  0  0
    6.2460    5.2099   25.3632 C   0  0  0  0  0  0  0  0  0  0  0  0
    5.4806    4.7431   24.2812 C   0  0  0  0  0  0  0  0  0  0  0  0
    5.6023    3.4310   23.8369 C   0  0  0  0  0  0  0  0  0  0  0  0
    6.4913    2.5417   24.4659 C   0  0  0  0  0  0  0  0  0  0  0  0
    6.6643    1.1288   23.9605 C   0  0  0  0  0  0  0  0  0  0  0  0
    5.3736    0.6016   23.7266 O   0  0  0  0  0  0  0  0  0  0  0  0
    5.4494   -0.3604   23.6550 H   0  0  0  0  0  0  0  0  0  0  0  0
    7.5351    1.1034   22.6877 C   0  0  0  0  0  0  0  0  0  0  0  0
    7.7248   -0.2379   22.1481 N   0  0  0  0  0  0  0  0  0  0  0  0
    8.4077   -1.2444   22.8044 C   0  0  0  0  0  0  0  0  0  0  0  0
    8.4549   -2.2882   21.9290 C   0  0  0  0  0  0  0  0  0  0  0  0
    7.8472   -1.9565   20.7480 N   0  0  0  0  0  0  0  0  0  0  0  0
    7.4046   -0.7331   20.9062 C   0  0  0  0  0  0  0  0  0  0  0  0
    6.6461    0.0173   19.9014 C   0  0  0  0  0  0  0  0  0  0  0  0
    5.4270    0.6643   20.1629 C   0  0  0  0  0  0  0  0  0  0  0  0
    4.7956    1.3141   19.1017 C   0  0  0  0  0  0  0  0  0  0  0  0
    5.3990    1.2951   17.8395 C   0  0  0  0  0  0  0  0  0  0  0  0
    6.5620    0.6778   17.5830 N   0  0  0  0  0  0  0  0  0  0  0  0
    7.1596    0.0500   18.5976 C   0  0  0  0  0  0  0  0  0  0  0  0
    8.1058   -0.4363   18.3756 H   0  0  0  0  0  0  0  0  0  0  0  0
    4.9278    1.7847   16.9925 H   0  0  0  0  0  0  0  0  0  0  0  0
    3.8663    1.8470   19.2488 H   0  0  0  0  0  0  0  0  0  0  0  0
    4.9911    0.6412   21.1703 H   0  0  0  0  0  0  0  0  0  0  0  0
    8.9214   -3.2580   22.0601 H   0  0  0  0  0  0  0  0  0  0  0  0
    8.8052   -1.1073   23.8009 H   0  0  0  0  0  0  0  0  0  0  0  0
    7.0739    1.7420   21.9341 H   0  0  0  0  0  0  0  0  0  0  0  0
    8.5120    1.5324   22.9268 H   0  0  0  0  0  0  0  0  0  0  0  0
    7.1842    0.5417   24.7358 H   0  0  0  0  0  0  0  0  0  0  0  0
    7.2468    3.0006   25.5518 C   0  0  0  0  0  0  0  0  0  0  0  0
    7.1234    4.3171   25.9964 C   0  0  0  0  0  0  0  0  0  0  0  0
    7.7037    4.6564   26.8508 H   0  0  0  0  0  0  0  0  0  0  0  0
    7.9393    2.3265   26.0527 H   0  0  0  0  0  0  0  0  0  0  0  0
    5.0044    3.0872   22.9950 H   0  0  0  0  0  0  0  0  0  0  0  0
    4.7814    5.4160   23.7897 H   0  0  0  0  0  0  0  0  0  0  0  0
    7.0160    6.9812   26.2949 H   0  0  0  0  0  0  0  0  0  0  0  0
    5.8250    7.2894   25.0488 H   0  0  0  0  0  0  0  0  0  0  0  0
    4.0085    6.3557   26.5440 H   0  0  0  0  0  0  0  0  0  0  0  0
    4.8396    7.7155   27.3274 H   0  0  0  0  0  0  0  0  0  0  0  0
    5.2060    6.0426   27.7980 H   0  0  0  0  0  0  0  0  0  0  0  0
  1  2  1  0
  2  3  1  0
  3  4  2  0
  4  5  1  0
  5  6  2  0
  6  7  1  0
  7  8  1  0
  8  9  1  0
  7 10  1  0
 10 11  1  0
 11 12  1  0
 12 13  2  0
 13 14  1  0
 14 15  2  0
 15 16  1  0
 16 17  2  0
 17 18  1  0
 18 19  2  0
 19 20  1  0
 20 21  2  0
 21 22  1  0
 19 23  1  0
 18 24  1  0
 17 25  1  0
 13 26  1  0
 12 27  1  0
 10 28  1  0
 10 29  1  0
  7 30  1  0
  6 31  1  0
 31 32  2  0
 32 33  1  0
 31 34  1  0
  5 35  1  0
  4 36  1  0
  2 37  1  0
  2 38  1  0
  1 39  1  0
  1 40  1  0
  1 41  1  0
 32  3  1  0
 15 11  1  0
 21 16  1  0
M  END
>  <plip>  (1) 
-0.06896551724137931

>  <filename>  (1) 
[H][O][C]([H])([c]1[c]([H])[c]([H])[c]([C]([H])([H])[C]([H])([H])[H])[c]([H])[c]1[H])[C]([H])([H])[n]1[c](-[c]2[c]([H])[n][c]([H])[c]([H])[c]2[H])[n][c]([H])[c]1[H]

$$$$
