
     RDKit          3D

 43 45  0  0  0  0  0  0  0  0999 V2000
    1.7697   -8.5050   22.9758 C   0  0  0  0  0  0  0  0  0  0  0  0
    2.4866   -7.1716   23.0168 C   0  0  0  0  0  0  0  0  0  0  0  0
    3.3920   -6.8342   22.0568 C   0  0  0  0  0  0  0  0  0  0  0  0
    4.0937   -5.6466   22.1133 N   0  0  0  0  0  0  0  0  0  0  0  0
    5.0122   -5.1050   21.2596 C   0  0  0  0  0  0  0  0  0  0  0  0
    5.2361   -3.8243   21.7261 C   0  0  0  0  0  0  0  0  0  0  0  0
    6.0312   -2.8016   20.9592 C   0  0  0  0  0  0  0  0  0  0  0  0
    6.2521   -2.9484   19.7660 O   0  0  0  0  0  0  0  0  0  0  0  0
    6.5050   -1.7405   21.6703 N   0  0  0  0  0  0  0  0  0  0  0  0
    7.3507   -0.7334   21.0339 C   0  0  0  0  0  0  0  0  0  0  0  0
    6.5941   -0.0202   19.9172 C   0  0  0  0  0  0  0  0  0  0  0  0
    5.3806    0.6482   20.1323 C   0  0  0  0  0  0  0  0  0  0  0  0
    4.7805    1.3155   19.0638 C   0  0  0  0  0  0  0  0  0  0  0  0
    5.4137    1.2937   17.8164 C   0  0  0  0  0  0  0  0  0  0  0  0
    6.5664    0.6512   17.5802 N   0  0  0  0  0  0  0  0  0  0  0  0
    7.1256    0.0119   18.6200 C   0  0  0  0  0  0  0  0  0  0  0  0
    8.0715   -0.4946   18.4114 H   0  0  0  0  0  0  0  0  0  0  0  0
    4.9787    1.8213   16.9722 H   0  0  0  0  0  0  0  0  0  0  0  0
    3.8594    1.8705   19.1920 H   0  0  0  0  0  0  0  0  0  0  0  0
    4.9215    0.6668   21.1245 H   0  0  0  0  0  0  0  0  0  0  0  0
    7.9511    0.2410   22.0862 C   0  0  0  0  0  0  0  0  0  0  0  0
    8.7422   -0.4848   23.1878 C   0  0  0  0  0  0  0  0  0  0  0  0
    8.1230   -1.2119   23.7240 H   0  0  0  0  0  0  0  0  0  0  0  0
    9.6074   -1.0189   22.7726 H   0  0  0  0  0  0  0  0  0  0  0  0
    9.1232    0.2329   23.9258 H   0  0  0  0  0  0  0  0  0  0  0  0
    8.8301    1.3182   21.4323 C   0  0  0  0  0  0  0  0  0  0  0  0
    9.6888    0.8684   20.9180 H   0  0  0  0  0  0  0  0  0  0  0  0
    8.2727    1.9129   20.7023 H   0  0  0  0  0  0  0  0  0  0  0  0
    9.2241    2.0051   22.1878 H   0  0  0  0  0  0  0  0  0  0  0  0
    7.1003    0.7461   22.5681 H   0  0  0  0  0  0  0  0  0  0  0  0
    8.1892   -1.2777   20.5703 H   0  0  0  0  0  0  0  0  0  0  0  0
    5.9693   -1.5175   22.4962 H   0  0  0  0  0  0  0  0  0  0  0  0
    4.5700   -3.6018   22.9069 N   0  0  0  0  0  0  0  0  0  0  0  0
    3.8630   -4.6987   23.1180 C   0  0  0  0  0  0  0  0  0  0  0  0
    2.9050   -5.0273   24.1316 C   0  0  0  0  0  0  0  0  0  0  0  0
    2.2488   -6.2298   24.0781 C   0  0  0  0  0  0  0  0  0  0  0  0
    1.5221   -6.4892   24.8452 H   0  0  0  0  0  0  0  0  0  0  0  0
    2.7065   -4.2957   24.9059 H   0  0  0  0  0  0  0  0  0  0  0  0
    5.4013   -5.6469   20.4032 H   0  0  0  0  0  0  0  0  0  0  0  0
    3.5863   -7.4464   21.1941 H   0  0  0  0  0  0  0  0  0  0  0  0
    2.3177   -9.2681   23.5437 H   0  0  0  0  0  0  0  0  0  0  0  0
    0.7649   -8.4420   23.4074 H   0  0  0  0  0  0  0  0  0  0  0  0
    1.6574   -8.8810   21.9506 H   0  0  0  0  0  0  0  0  0  0  0  0
  1  2  1  0
  2  3  2  0
  3  4  1  0
  4  5  1  0
  5  6  2  0
  6  7  1  0
  7  8  2  0
  7  9  1  0
  9 10  1  0
 10 11  1  0
 11 12  2  0
 12 13  1  0
 13 14  2  0
 14 15  1  0
 15 16  2  0
 16 17  1  0
 14 18  1  0
 13 19  1  0
 12 20  1  0
 10 21  1  0
 21 22  1  0
 22 23  1  0
 22 24  1  0
 22 25  1  0
 21 26  1  0
 26 27  1  0
 26 28  1  0
 26 29  1  0
 21 30  1  0
 10 31  1  0
  9 32  1  0
  6 33  1  0
 33 34  2  0
 34 35  1  0
 35 36  2  0
 36 37  1  0
 35 38  1  0
  5 39  1  0
  3 40  1  0
  1 41  1  0
  1 42  1  0
  1 43  1  0
 36  2  1  0
 34  4  1  0
 16 11  1  0
M  END
>  <plip>  (1) 
-0.1724137931034483

>  <filename>  (1) 
[H][c]1[n][c]([H])[c]([C]([H])([N]([H])[C](=[O])[c]2[n][c]3[c]([H])[c]([H])[c]([C]([H])([H])[H])[c]([H])[n]3[c]2[H])[C]([H])([C]([H])([H])[H])[C]([H])([H])[H])[c]([H])[c]1[H]

$$$$
