
     RDKit          3D

 34 36  0  0  0  0  0  0  0  0999 V2000
    4.9207    1.8024   16.9713 H   0  0  0  0  0  0  0  0  0  0  0  0
    5.3871    1.3032   17.8175 C   0  0  0  0  0  0  0  0  0  0  0  0
    6.5518    0.6851   17.5606 N   0  0  0  0  0  0  0  0  0  0  0  0
    7.1569    0.0680   18.5793 C   0  0  0  0  0  0  0  0  0  0  0  0
    8.1034   -0.4210   18.3462 H   0  0  0  0  0  0  0  0  0  0  0  0
    6.6566    0.0069   19.8915 C   0  0  0  0  0  0  0  0  0  0  0  0
    7.3998   -0.7006   20.9448 C   0  0  0  0  0  0  0  0  0  0  0  0
    8.7929   -1.0160   20.9992 C   0  0  0  0  0  0  0  0  0  0  0  0
    9.5228   -0.7346   20.2524 H   0  0  0  0  0  0  0  0  0  0  0  0
    9.0368   -1.6417   22.1945 C   0  0  0  0  0  0  0  0  0  0  0  0
    9.9503   -2.0442   22.6210 H   0  0  0  0  0  0  0  0  0  0  0  0
    7.8499   -1.7305   22.8962 N   0  0  0  0  0  0  0  0  0  0  0  0
    7.6263   -2.4321   24.1481 C   0  0  0  0  0  0  0  0  0  0  0  0
    6.8040   -1.9360   24.6817 H   0  0  0  0  0  0  0  0  0  0  0  0
    8.5393   -2.3314   24.7489 H   0  0  0  0  0  0  0  0  0  0  0  0
    7.3017   -3.8445   24.0535 N   0  0  0  0  0  0  0  0  0  0  0  0
    8.3309   -4.6788   23.4310 C   0  0  0  0  0  0  0  0  0  0  0  0
    8.4355   -5.6150   23.9997 H   0  0  0  0  0  0  0  0  0  0  0  0
    9.3136   -4.1886   23.4722 H   0  0  0  0  0  0  0  0  0  0  0  0
    7.8658   -4.9516   21.9799 C   0  0  0  0  0  0  0  0  0  0  0  0
    8.4001   -4.2947   21.2859 H   0  0  0  0  0  0  0  0  0  0  0  0
    8.0864   -5.9840   21.6940 H   0  0  0  0  0  0  0  0  0  0  0  0
    6.3492   -4.6315   21.9691 C   0  0  0  0  0  0  0  0  0  0  0  0
    6.1259   -3.8304   21.2550 H   0  0  0  0  0  0  0  0  0  0  0  0
    5.7325   -5.4906   21.6891 H   0  0  0  0  0  0  0  0  0  0  0  0
    6.0235   -4.1688   23.4112 C   0  0  0  0  0  0  0  0  0  0  0  0
    5.3415   -3.3075   23.4318 H   0  0  0  0  0  0  0  0  0  0  0  0
    5.5194   -4.9657   23.9785 H   0  0  0  0  0  0  0  0  0  0  0  0
    6.8753   -1.1673   22.1187 C   0  0  0  0  0  0  0  0  0  0  0  0
    5.8539   -1.1809   22.4438 H   0  0  0  0  0  0  0  0  0  0  0  0
    5.4311    0.6576   20.1367 C   0  0  0  0  0  0  0  0  0  0  0  0
    4.9971    0.6635   21.1382 H   0  0  0  0  0  0  0  0  0  0  0  0
    4.7978    1.3165   19.0853 C   0  0  0  0  0  0  0  0  0  0  0  0
    3.8673    1.8486   19.2346 H   0  0  0  0  0  0  0  0  0  0  0  0
  1  2  1  0
  2  3  2  0
  3  4  1  0
  4  5  1  0
  4  6  2  0
  6  7  1  0
  7  8  1  0
  8  9  1  0
  8 10  2  0
 10 11  1  0
 10 12  1  0
 12 13  1  0
 13 14  1  0
 13 15  1  0
 13 16  1  0
 16 17  1  0
 17 18  1  0
 17 19  1  0
 17 20  1  0
 20 21  1  0
 20 22  1  0
 20 23  1  0
 23 24  1  0
 23 25  1  0
 23 26  1  0
 26 27  1  0
 26 28  1  0
 12 29  1  0
 29 30  1  0
  6 31  1  0
 31 32  1  0
 31 33  2  0
 33 34  1  0
 33  2  1  0
 29  7  2  0
 26 16  1  0
M  END
>  <plip>  (1) 
-0.03571428571428571

>  <filename>  (1) 
[H][c]1[n][c]([H])[c](-[c]2[c]([H])[c]([H])[n]([C]([H])([H])[N]3[C]([H])([H])[C]([H])([H])[C]([H])([H])[C]3([H])[H])[c]2[H])[c]([H])[c]1[H]

$$$$
