
     RDKit          3D

 44 46  0  0  0  0  0  0  0  0999 V2000
    4.8948    1.8640   16.9730 H   0  0  0  0  0  0  0  0  0  0  0  0
    5.3845    1.3448   17.7929 C   0  0  0  0  0  0  0  0  0  0  0  0
    6.5476    0.7343   17.5046 N   0  0  0  0  0  0  0  0  0  0  0  0
    7.1769    0.0924   18.4974 C   0  0  0  0  0  0  0  0  0  0  0  0
    8.1235   -0.3829   18.2314 H   0  0  0  0  0  0  0  0  0  0  0  0
    6.6893   -0.0182   19.8288 C   0  0  0  0  0  0  0  0  0  0  0  0
    7.3935   -0.7428   20.8288 N   0  0  0  0  0  0  0  0  0  0  0  0
    6.7013   -1.6600   21.7358 C   0  0  0  0  0  0  0  0  0  0  0  0
    7.2397   -2.6219   21.7414 H   0  0  0  0  0  0  0  0  0  0  0  0
    5.7078   -1.8712   21.3218 H   0  0  0  0  0  0  0  0  0  0  0  0
    6.5668   -1.2305   23.2100 C   0  0  0  0  0  0  0  0  0  0  0  0
    5.9708   -1.9835   23.7369 H   0  0  0  0  0  0  0  0  0  0  0  0
    6.0282   -0.2706   23.2830 H   0  0  0  0  0  0  0  0  0  0  0  0
    7.8825   -1.1505   23.8546 N   0  0  0  0  0  0  0  0  0  0  0  0
    7.7937   -1.5787   25.1940 O   0  0  0  0  0  0  0  0  0  0  0  0
    8.6032   -2.7517   25.3802 C   0  0  0  0  0  0  0  0  0  0  0  0
    9.5476   -2.6017   24.8364 H   0  0  0  0  0  0  0  0  0  0  0  0
    8.9087   -2.8716   26.8702 C   0  0  0  0  0  0  0  0  0  0  0  0
    9.4677   -1.9936   27.2154 H   0  0  0  0  0  0  0  0  0  0  0  0
    7.9661   -2.9005   27.4295 H   0  0  0  0  0  0  0  0  0  0  0  0
    9.6966   -4.1685   27.1086 C   0  0  0  0  0  0  0  0  0  0  0  0
   10.0130   -4.3097   28.1472 H   0  0  0  0  0  0  0  0  0  0  0  0
   10.6263   -4.1259   26.5273 H   0  0  0  0  0  0  0  0  0  0  0  0
    8.9823   -5.3552   26.6405 N   0  0  0  0  0  0  0  0  0  0  0  0
    8.0889   -5.4071   27.1261 H   0  0  0  0  0  0  0  0  0  0  0  0
    8.7110   -5.2674   25.2062 C   0  0  0  0  0  0  0  0  0  0  0  0
    9.6842   -5.2445   24.6968 H   0  0  0  0  0  0  0  0  0  0  0  0
    8.2223   -6.1909   24.8751 H   0  0  0  0  0  0  0  0  0  0  0  0
    7.9031   -4.0134   24.8418 C   0  0  0  0  0  0  0  0  0  0  0  0
    7.7594   -3.9248   23.7584 H   0  0  0  0  0  0  0  0  0  0  0  0
    6.9072   -4.0882   25.3007 H   0  0  0  0  0  0  0  0  0  0  0  0
    8.4672    0.1948   23.8524 C   0  0  0  0  0  0  0  0  0  0  0  0
    9.4401    0.0944   24.3440 H   0  0  0  0  0  0  0  0  0  0  0  0
    7.8817    0.8841   24.4855 H   0  0  0  0  0  0  0  0  0  0  0  0
    8.6322    0.7793   22.4296 C   0  0  0  0  0  0  0  0  0  0  0  0
    7.8042    1.4672   22.2131 H   0  0  0  0  0  0  0  0  0  0  0  0
    9.5476    1.3827   22.4192 H   0  0  0  0  0  0  0  0  0  0  0  0
    8.6993   -0.2507   21.2805 C   0  0  0  0  0  0  0  0  0  0  0  0
    9.3090   -1.1094   21.5902 H   0  0  0  0  0  0  0  0  0  0  0  0
    9.2062    0.1940   20.4175 H   0  0  0  0  0  0  0  0  0  0  0  0
    5.4611    0.6226   20.0915 C   0  0  0  0  0  0  0  0  0  0  0  0
    5.0583    0.5897   21.1008 H   0  0  0  0  0  0  0  0  0  0  0  0
    4.8069    1.3178   19.0659 C   0  0  0  0  0  0  0  0  0  0  0  0
    3.8690    1.8343   19.2419 H   0  0  0  0  0  0  0  0  0  0  0  0
  1  2  1  0
  2  3  2  0
  3  4  1  0
  4  5  1  0
  4  6  2  0
  6  7  1  0
  7  8  1  0
  8  9  1  0
  8 10  1  0
  8 11  1  0
 11 12  1  0
 11 13  1  0
 11 14  1  0
 14 15  1  0
 15 16  1  0
 16 17  1  0
 16 18  1  0
 18 19  1  0
 18 20  1  0
 18 21  1  0
 21 22  1  0
 21 23  1  0
 21 24  1  0
 24 25  1  0
 24 26  1  0
 26 27  1  0
 26 28  1  0
 26 29  1  0
 29 30  1  0
 29 31  1  0
 14 32  1  0
 32 33  1  0
 32 34  1  0
 32 35  1  0
 35 36  1  0
 35 37  1  0
 35 38  1  0
 38 39  1  0
 38 40  1  0
  6 41  1  0
 41 42  1  0
 41 43  2  0
 43 44  1  0
 43  2  1  0
 38  7  1  0
 29 16  1  0
M  END
>  <plip>  (1) 
-0.07142857142857142

>  <filename>  (1) 
[H][c]1[n][c]([H])[c]([N]2[C]([H])([H])[C]([H])([H])[N]([O][C]3([H])[C]([H])([H])[C]([H])([H])[N]([H])[C]([H])([H])[C]3([H])[H])[C]([H])([H])[C]([H])([H])[C]2([H])[H])[c]([H])[c]1[H]

$$$$
