
     RDKit          3D

 45 45  0  0  0  0  0  0  0  0999 V2000
    8.0244    8.0508   24.5285 C   0  0  0  0  0  0  0  0  0  0  0  0
    8.9209    6.8378   24.7308 C   0  0  0  0  0  0  0  0  0  0  0  0
    8.5363    5.8571   23.7842 O   0  0  0  0  0  0  0  0  0  0  0  0
    9.1996    4.6103   23.8967 C   0  0  0  0  0  0  0  0  0  0  0  0
    8.6180    3.5855   22.9045 C   0  0  0  0  0  0  0  0  0  0  0  0
    7.1274    3.3080   23.1081 C   0  0  0  0  0  0  0  0  0  0  0  0
    6.5407    4.2307   23.0555 H   0  0  0  0  0  0  0  0  0  0  0  0
    6.9374    2.8329   24.0787 H   0  0  0  0  0  0  0  0  0  0  0  0
    6.7742    2.6295   22.3245 H   0  0  0  0  0  0  0  0  0  0  0  0
    9.4363    2.2795   22.9776 C   0  0  0  0  0  0  0  0  0  0  0  0
    9.1009    1.0716   21.7160 S   0  0  0  0  0  0  0  0  0  0  0  0
   10.2476    0.1786   21.7085 O   0  0  0  0  0  0  0  0  0  0  0  0
    8.7158    1.7903   20.5219 O   0  0  0  0  0  0  0  0  0  0  0  0
    7.7373    0.1801   22.1512 N   0  0  0  0  0  0  0  0  0  0  0  0
    7.6630   -0.4032   23.4921 C   0  0  0  0  0  0  0  0  0  0  0  0
    8.6980   -1.5085   23.7796 C   0  0  0  0  0  0  0  0  0  0  0  0
    9.8756   -0.9837   24.4652 C   0  0  0  0  0  0  0  0  0  0  0  0
   10.7885   -0.5059   24.9901 N   0  0  0  0  0  0  0  0  0  0  0  0
    9.0384   -1.9663   22.8467 H   0  0  0  0  0  0  0  0  0  0  0  0
    8.2552   -2.3031   24.3896 H   0  0  0  0  0  0  0  0  0  0  0  0
    7.6841    0.3902   24.2499 H   0  0  0  0  0  0  0  0  0  0  0  0
    6.6563   -0.8261   23.5817 H   0  0  0  0  0  0  0  0  0  0  0  0
    7.3749   -0.6978   21.0157 C   0  0  0  0  0  0  0  0  0  0  0  0
    6.6648    0.0420   19.9195 C   0  0  0  0  0  0  0  0  0  0  0  0
    5.4534    0.6995   20.1518 C   0  0  0  0  0  0  0  0  0  0  0  0
    4.8126    1.3283   19.0833 C   0  0  0  0  0  0  0  0  0  0  0  0
    5.4189    1.2964   17.8239 C   0  0  0  0  0  0  0  0  0  0  0  0
    6.5820    0.6734   17.5834 N   0  0  0  0  0  0  0  0  0  0  0  0
    7.1858    0.0756   18.6196 C   0  0  0  0  0  0  0  0  0  0  0  0
    8.1565   -0.3755   18.3988 H   0  0  0  0  0  0  0  0  0  0  0  0
    4.9511    1.7881   16.9720 H   0  0  0  0  0  0  0  0  0  0  0  0
    3.8663    1.8385   19.2133 H   0  0  0  0  0  0  0  0  0  0  0  0
    5.0351    0.7293   21.1600 H   0  0  0  0  0  0  0  0  0  0  0  0
    6.7112   -1.4797   21.4091 H   0  0  0  0  0  0  0  0  0  0  0  0
    8.2637   -1.2114   20.6220 H   0  0  0  0  0  0  0  0  0  0  0  0
    9.3757    1.7387   23.9245 H   0  0  0  0  0  0  0  0  0  0  0  0
   10.4964    2.4602   22.7665 H   0  0  0  0  0  0  0  0  0  0  0  0
    8.7585    4.0014   21.8958 H   0  0  0  0  0  0  0  0  0  0  0  0
    9.1152    4.2160   24.9278 H   0  0  0  0  0  0  0  0  0  0  0  0
   10.2755    4.7425   23.6806 H   0  0  0  0  0  0  0  0  0  0  0  0
    8.8151    6.4370   25.7529 H   0  0  0  0  0  0  0  0  0  0  0  0
    9.9820    7.1170   24.6037 H   0  0  0  0  0  0  0  0  0  0  0  0
    8.0097    8.3397   23.4722 H   0  0  0  0  0  0  0  0  0  0  0  0
    8.3935    8.9033   25.1092 H   0  0  0  0  0  0  0  0  0  0  0  0
    6.9952    7.8372   24.8377 H   0  0  0  0  0  0  0  0  0  0  0  0
  1  2  1  0
  2  3  1  0
  3  4  1  0
  4  5  1  0
  5  6  1  0
  6  7  1  0
  6  8  1  0
  6  9  1  0
  5 10  1  0
 10 11  1  0
 11 12  2  0
 11 13  2  0
 11 14  1  0
 14 15  1  0
 15 16  1  0
 16 17  1  0
 17 18  3  0
 16 19  1  0
 16 20  1  0
 15 21  1  0
 15 22  1  0
 14 23  1  0
 23 24  1  0
 24 25  2  0
 25 26  1  0
 26 27  2  0
 27 28  1  0
 28 29  2  0
 29 30  1  0
 27 31  1  0
 26 32  1  0
 25 33  1  0
 23 34  1  0
 23 35  1  0
 10 36  1  0
 10 37  1  0
  5 38  1  0
  4 39  1  0
  4 40  1  0
  2 41  1  0
  2 42  1  0
  1 43  1  0
  1 44  1  0
  1 45  1  0
 29 24  1  0
M  END
>  <plip>  (1) 
-0.10714285714285714

>  <filename>  (1) 
[H][c]1[n][c]([H])[c]([C]([H])([H])[N]([C]([H])([H])[C]([H])([H])[C]#[N])[S](=[O])(=[O])[C]([H])([H])[C]([H])([C]([H])([H])[H])[C]([H])([H])[O][C]([H])([H])[C]([H])([H])[H])[c]([H])[c]1[H]

$$$$
