
     RDKit          3D

 33 36  0  0  0  0  0  0  0  0999 V2000
    5.0455    1.8253   16.7929 H   0  0  0  0  0  0  0  0  0  0  0  0
    5.4043    1.3776   17.7177 C   0  0  0  0  0  0  0  0  0  0  0  0
    6.5410    0.6722   17.6120 N   0  0  0  0  0  0  0  0  0  0  0  0
    7.0066    0.1072   18.7276 C   0  0  0  0  0  0  0  0  0  0  0  0
    7.9287   -0.4662   18.6248 H   0  0  0  0  0  0  0  0  0  0  0  0
    6.4091    0.2154   20.0011 C   0  0  0  0  0  0  0  0  0  0  0  0
    7.0721   -0.4373   21.1491 C   0  0  0  0  0  0  0  0  0  0  0  0
    7.3465    0.0967   22.3638 C   0  0  0  0  0  0  0  0  0  0  0  0
    7.2981    1.5426   22.7131 C   0  0  0  0  0  0  0  0  0  0  0  0
    6.3923    1.8527   23.2398 H   0  0  0  0  0  0  0  0  0  0  0  0
    7.9656    2.5313   21.7943 C   0  0  0  0  0  0  0  0  0  0  0  0
    8.4590    2.1127   20.9185 H   0  0  0  0  0  0  0  0  0  0  0  0
    7.5101    3.5022   21.6228 H   0  0  0  0  0  0  0  0  0  0  0  0
    8.5669    2.2320   23.1404 C   0  0  0  0  0  0  0  0  0  0  0  0
    9.4782    1.6388   23.1764 H   0  0  0  0  0  0  0  0  0  0  0  0
    8.5182    3.0051   23.9040 H   0  0  0  0  0  0  0  0  0  0  0  0
    7.9162   -0.9402   23.3127 C   0  0  0  0  0  0  0  0  0  0  0  0
    8.8109   -0.5296   23.8077 H   0  0  0  0  0  0  0  0  0  0  0  0
    7.2036   -1.1732   24.1111 H   0  0  0  0  0  0  0  0  0  0  0  0
    8.2308   -2.1529   22.4137 C   0  0  0  0  0  0  0  0  0  0  0  0
    7.6822   -1.8102   21.0182 C   0  0  0  0  0  0  0  0  0  0  0  0
    6.9355   -2.5338   20.6694 H   0  0  0  0  0  0  0  0  0  0  0  0
    8.4820   -1.7906   20.2623 H   0  0  0  0  0  0  0  0  0  0  0  0
    9.5483   -2.8755   22.5248 C   0  0  0  0  0  0  0  0  0  0  0  0
   10.1900   -2.6895   23.3803 H   0  0  0  0  0  0  0  0  0  0  0  0
   10.1068   -3.0121   21.6105 H   0  0  0  0  0  0  0  0  0  0  0  0
    8.2725   -3.6177   22.7914 C   0  0  0  0  0  0  0  0  0  0  0  0
    8.0643   -3.9111   23.8170 H   0  0  0  0  0  0  0  0  0  0  0  0
    7.9141   -4.3167   22.0382 H   0  0  0  0  0  0  0  0  0  0  0  0
    5.2098    0.9489   20.0847 C   0  0  0  0  0  0  0  0  0  0  0  0
    4.6813    1.0478   21.0357 H   0  0  0  0  0  0  0  0  0  0  0  0
    4.7020    1.5292   18.9173 C   0  0  0  0  0  0  0  0  0  0  0  0
    3.7779    2.0954   18.9159 H   0  0  0  0  0  0  0  0  0  0  0  0
  1  2  1  0
  2  3  2  0
  3  4  1  0
  4  5  1  0
  4  6  2  0
  6  7  1  0
  7  8  2  0
  8  9  1  0
  9 10  1  0
  9 11  1  0
 11 12  1  0
 11 13  1  0
 11 14  1  0
 14 15  1  0
 14 16  1  0
  8 17  1  0
 17 18  1  0
 17 19  1  0
 17 20  1  0
 20 21  1  0
 21 22  1  0
 21 23  1  0
 20 24  1  0
 24 25  1  0
 24 26  1  0
 24 27  1  0
 27 28  1  0
 27 29  1  0
  6 30  1  0
 30 31  1  0
 30 32  2  0
 32 33  1  0
 32  2  1  0
 21  7  1  0
 14  9  1  0
 27 20  1  0
M  END
>  <plip>  (1) 
-0.0

>  <filename>  (1) 
[H][c]1[n][c]([H])[c]([C]2=[C]([C]3([H])[C]([H])([H])[C]3([H])[H])[C]([H])([H])[C]3([C]2([H])[H])[C]([H])([H])[C]3([H])[H])[c]([H])[c]1[H]

$$$$
