
     RDKit          3D

 22 23  0  0  0  0  0  0  0  0999 V2000
    4.9389    1.8070   16.9855 H   0  0  0  0  0  0  0  0  0  0  0  0
    5.4081    1.3006   17.8269 C   0  0  0  0  0  0  0  0  0  0  0  0
    6.5739    0.6805   17.5778 N   0  0  0  0  0  0  0  0  0  0  0  0
    7.1883    0.0733   18.6029 C   0  0  0  0  0  0  0  0  0  0  0  0
    8.1212   -0.4402   18.3691 H   0  0  0  0  0  0  0  0  0  0  0  0
    6.6740    0.0435   19.9126 C   0  0  0  0  0  0  0  0  0  0  0  0
    7.5564   -0.8255   21.2029 S   0  0  0  0  0  0  0  0  0  0  0  0
    8.6305    0.4291   21.8303 N   0  0  0  0  0  0  0  0  0  0  0  0
    9.1102    0.8521   21.0426 H   0  0  0  0  0  0  0  0  0  0  0  0
    8.0621    1.5003   22.5911 N   0  0  0  0  0  0  0  0  0  0  0  0
    6.9606    1.3545   23.3970 C   0  0  0  0  0  0  0  0  0  0  0  0
    6.3481    0.4631   23.3399 H   0  0  0  0  0  0  0  0  0  0  0  0
    6.8680    2.4649   24.1932 C   0  0  0  0  0  0  0  0  0  0  0  0
    6.1343    2.6487   24.9683 H   0  0  0  0  0  0  0  0  0  0  0  0
    7.9663    3.3151   23.8648 C   0  0  0  0  0  0  0  0  0  0  0  0
    8.2233    4.2562   24.3323 H   0  0  0  0  0  0  0  0  0  0  0  0
    8.6873    2.6961   22.8768 C   0  0  0  0  0  0  0  0  0  0  0  0
    9.5835    3.0056   22.3499 H   0  0  0  0  0  0  0  0  0  0  0  0
    5.4399    0.6649   20.1455 C   0  0  0  0  0  0  0  0  0  0  0  0
    4.9931    0.6300   21.1413 H   0  0  0  0  0  0  0  0  0  0  0  0
    4.8033    1.3171   19.0880 C   0  0  0  0  0  0  0  0  0  0  0  0
    3.8646    1.8404   19.2328 H   0  0  0  0  0  0  0  0  0  0  0  0
  1  2  1  0
  2  3  2  0
  3  4  1  0
  4  5  1  0
  4  6  2  0
  6  7  1  0
  7  8  1  0
  8  9  1  0
  8 10  1  0
 10 11  1  0
 11 12  1  0
 11 13  2  0
 13 14  1  0
 13 15  1  0
 15 16  1  0
 15 17  2  0
 17 18  1  0
  6 19  1  0
 19 20  1  0
 19 21  2  0
 21 22  1  0
 21  2  1  0
 17 10  1  0
M  END
>  <plip>  (1) 
-0.07142857142857142

>  <filename>  (1) 
[H][c]1[n][c]([H])[c]([S][N]([H])[n]2[c]([H])[c]([H])[c]([H])[c]2[H])[c]([H])[c]1[H]

$$$$
