
     RDKit          3D

 27 29  0  0  0  0  0  0  0  0999 V2000
    4.9162    1.7802   16.9986 H   0  0  0  0  0  0  0  0  0  0  0  0
    5.4040    1.2907   17.8416 C   0  0  0  0  0  0  0  0  0  0  0  0
    6.5643    0.6704   17.5855 N   0  0  0  0  0  0  0  0  0  0  0  0
    7.1871    0.0547   18.6001 C   0  0  0  0  0  0  0  0  0  0  0  0
    8.1273   -0.4368   18.3657 H   0  0  0  0  0  0  0  0  0  0  0  0
    6.6853    0.0161   19.9131 C   0  0  0  0  0  0  0  0  0  0  0  0
    7.2752   -0.6843   20.9443 O   0  0  0  0  0  0  0  0  0  0  0  0
    8.6441   -0.7669   21.0960 C   0  0  0  0  0  0  0  0  0  0  0  0
    9.6656    0.0774   20.6282 C   0  0  0  0  0  0  0  0  0  0  0  0
    9.5668    0.9417   19.9928 H   0  0  0  0  0  0  0  0  0  0  0  0
   10.8503   -0.3111   21.0749 N   0  0  0  0  0  0  0  0  0  0  0  0
   10.5986   -1.3918   21.8221 N   0  0  0  0  0  0  0  0  0  0  0  0
   11.3820   -1.8547   22.2477 H   0  0  0  0  0  0  0  0  0  0  0  0
    9.2789   -1.7151   21.8844 C   0  0  0  0  0  0  0  0  0  0  0  0
    8.7743   -2.7942   22.6252 N   0  0  0  0  0  0  0  0  0  0  0  0
    9.4402   -3.5334   23.5896 C   0  0  0  0  0  0  0  0  0  0  0  0
   10.4706   -3.3276   23.8660 H   0  0  0  0  0  0  0  0  0  0  0  0
    8.5768   -4.4762   24.0726 C   0  0  0  0  0  0  0  0  0  0  0  0
    8.8040   -5.2090   24.8377 H   0  0  0  0  0  0  0  0  0  0  0  0
    7.3337   -4.3159   23.3894 C   0  0  0  0  0  0  0  0  0  0  0  0
    6.4347   -4.9045   23.5397 H   0  0  0  0  0  0  0  0  0  0  0  0
    7.4780   -3.2831   22.5139 C   0  0  0  0  0  0  0  0  0  0  0  0
    6.7829   -2.8283   21.8134 H   0  0  0  0  0  0  0  0  0  0  0  0
    5.4595    0.6443   20.1707 C   0  0  0  0  0  0  0  0  0  0  0  0
    5.0290    0.6143   21.1726 H   0  0  0  0  0  0  0  0  0  0  0  0
    4.8195    1.3025   19.1138 C   0  0  0  0  0  0  0  0  0  0  0  0
    3.8852    1.8329   19.2669 H   0  0  0  0  0  0  0  0  0  0  0  0
  1  2  1  0
  2  3  2  0
  3  4  1  0
  4  5  1  0
  4  6  2  0
  6  7  1  0
  7  8  1  0
  8  9  1  0
  9 10  1  0
  9 11  2  0
 11 12  1  0
 12 13  1  0
 12 14  1  0
 14 15  1  0
 15 16  1  0
 16 17  1  0
 16 18  2  0
 18 19  1  0
 18 20  1  0
 20 21  1  0
 20 22  2  0
 22 23  1  0
  6 24  1  0
 24 25  1  0
 24 26  2  0
 26 27  1  0
 26  2  1  0
 14  8  2  0
 22 15  1  0
M  END
>  <plip>  (1) 
-0.06896551724137931

>  <filename>  (1) 
[H][c]1[n][c]([H])[c]([O][c]2[c]([H])[n][n]([H])[c]2-[n]2[c]([H])[c]([H])[c]([H])[c]2[H])[c]([H])[c]1[H]

$$$$
