
     RDKit          3D

 30 32  0  0  0  0  0  0  0  0999 V2000
   11.7887   -5.3405   25.7146 H   0  0  0  0  0  0  0  0  0  0  0  0
   11.2395   -4.7088   25.2166 O   0  0  0  0  0  0  0  0  0  0  0  0
   10.3676   -4.4217   26.1956 C   0  0  0  0  0  0  0  0  0  0  0  0
   10.5283   -4.9645   27.2677 O   0  0  0  0  0  0  0  0  0  0  0  0
    9.2810   -3.4625   25.8316 C   0  0  0  0  0  0  0  0  0  0  0  0
    8.3318   -3.1097   26.8120 C   0  0  0  0  0  0  0  0  0  0  0  0
    8.3934   -3.5789   27.7892 H   0  0  0  0  0  0  0  0  0  0  0  0
    7.3439   -2.1625   26.5254 C   0  0  0  0  0  0  0  0  0  0  0  0
    6.6775   -1.8022   27.3062 H   0  0  0  0  0  0  0  0  0  0  0  0
    7.2199   -1.6520   25.2305 C   0  0  0  0  0  0  0  0  0  0  0  0
    6.4355   -0.9235   25.0181 H   0  0  0  0  0  0  0  0  0  0  0  0
    8.1507   -2.0148   24.2342 C   0  0  0  0  0  0  0  0  0  0  0  0
    7.9771   -1.5028   22.8618 C   0  0  0  0  0  0  0  0  0  0  0  0
    8.8789   -1.8481   21.9215 O   0  0  0  0  0  0  0  0  0  0  0  0
    8.5034   -1.3322   20.7011 N   0  0  0  0  0  0  0  0  0  0  0  0
    7.3833   -0.6792   20.9143 C   0  0  0  0  0  0  0  0  0  0  0  0
    6.6544    0.0090   19.8342 C   0  0  0  0  0  0  0  0  0  0  0  0
    7.1763    0.0471   18.5322 C   0  0  0  0  0  0  0  0  0  0  0  0
    8.1173   -0.4470   18.3045 H   0  0  0  0  0  0  0  0  0  0  0  0
    6.5834    0.6788   17.5133 N   0  0  0  0  0  0  0  0  0  0  0  0
    5.4270    1.3102   17.7626 C   0  0  0  0  0  0  0  0  0  0  0  0
    4.9700    1.8295   16.9222 H   0  0  0  0  0  0  0  0  0  0  0  0
    4.8144    1.3216   19.0209 C   0  0  0  0  0  0  0  0  0  0  0  0
    3.8805    1.8519   19.1633 H   0  0  0  0  0  0  0  0  0  0  0  0
    5.4367    0.6639   20.0765 C   0  0  0  0  0  0  0  0  0  0  0  0
    4.9930    0.6740   21.0751 H   0  0  0  0  0  0  0  0  0  0  0  0
    7.0090   -0.7492   22.2828 C   0  0  0  0  0  0  0  0  0  0  0  0
    6.1471   -0.3206   22.7647 H   0  0  0  0  0  0  0  0  0  0  0  0
    9.2029   -2.8922   24.5510 C   0  0  0  0  0  0  0  0  0  0  0  0
    9.9689   -3.1112   23.8069 H   0  0  0  0  0  0  0  0  0  0  0  0
  1  2  1  0
  2  3  1  0
  3  4  2  0
  3  5  1  0
  5  6  2  0
  6  7  1  0
  6  8  1  0
  8  9  1  0
  8 10  2  0
 10 11  1  0
 10 12  1  0
 12 13  1  0
 13 14  1  0
 14 15  1  0
 15 16  2  0
 16 17  1  0
 17 18  2  0
 18 19  1  0
 18 20  1  0
 20 21  2  0
 21 22  1  0
 21 23  1  0
 23 24  1  0
 23 25  2  0
 25 26  1  0
 16 27  1  0
 27 28  1  0
 12 29  2  0
 29 30  1  0
 29  5  1  0
 27 13  2  0
 25 17  1  0
M  END
>  <plip>  (1) 
-0.07142857142857142

>  <filename>  (1) 
[H][O][C](=[O])[c]1[c]([H])[c]([H])[c]([H])[c](-[c]2[o][n][c](-[c]3[c]([H])[n][c]([H])[c]([H])[c]3[H])[c]2[H])[c]1[H]

$$$$
