
     RDKit          3D

 25 25  0  0  0  0  0  0  0  0999 V2000
    6.5604    0.1287   22.5875 H   0  0  0  0  0  0  0  0  0  0  0  0
    7.2545   -0.5933   22.1241 C   0  0  0  0  0  0  0  0  0  0  0  0
    7.4089   -0.7209   20.8688 N   0  0  0  0  0  0  0  0  0  0  0  0
    6.6678    0.0091   19.9191 C   0  0  0  0  0  0  0  0  0  0  0  0
    7.1742    0.0637   18.5969 C   0  0  0  0  0  0  0  0  0  0  0  0
    8.1216   -0.4357   18.3964 H   0  0  0  0  0  0  0  0  0  0  0  0
    6.5690    0.6783   17.5785 N   0  0  0  0  0  0  0  0  0  0  0  0
    5.3981    1.2937   17.8421 C   0  0  0  0  0  0  0  0  0  0  0  0
    4.9111    1.7786   16.9992 H   0  0  0  0  0  0  0  0  0  0  0  0
    4.8086    1.3086   19.1094 C   0  0  0  0  0  0  0  0  0  0  0  0
    3.8750    1.8417   19.2650 H   0  0  0  0  0  0  0  0  0  0  0  0
    5.4476    0.6519   20.1698 C   0  0  0  0  0  0  0  0  0  0  0  0
    5.0047    0.6263   21.1683 H   0  0  0  0  0  0  0  0  0  0  0  0
    8.0818   -1.4300   23.0622 C   0  0  0  0  0  0  0  0  0  0  0  0
    7.8977   -2.4877   22.8370 H   0  0  0  0  0  0  0  0  0  0  0  0
    9.1403   -1.2538   22.8340 H   0  0  0  0  0  0  0  0  0  0  0  0
    7.8145   -1.1572   24.5395 C   0  0  0  0  0  0  0  0  0  0  0  0
    8.0039   -0.0978   24.7576 H   0  0  0  0  0  0  0  0  0  0  0  0
    6.7530   -1.3335   24.7586 H   0  0  0  0  0  0  0  0  0  0  0  0
    8.6607   -2.0126   25.4723 C   0  0  0  0  0  0  0  0  0  0  0  0
    9.7249   -1.8433   25.2626 H   0  0  0  0  0  0  0  0  0  0  0  0
    8.4796   -3.0754   25.2644 H   0  0  0  0  0  0  0  0  0  0  0  0
    8.4131   -1.7616   26.8870 N   0  0  0  0  0  0  0  0  0  0  0  0
    8.5693   -0.7701   27.0614 H   0  0  0  0  0  0  0  0  0  0  0  0
    7.4196   -1.9020   27.0596 H   0  0  0  0  0  0  0  0  0  0  0  0
  1  2  1  0
  2  3  2  3
  3  4  1  0
  4  5  2  0
  5  6  1  0
  5  7  1  0
  7  8  2  0
  8  9  1  0
  8 10  1  0
 10 11  1  0
 10 12  2  0
 12 13  1  0
  2 14  1  0
 14 15  1  0
 14 16  1  0
 14 17  1  0
 17 18  1  0
 17 19  1  0
 17 20  1  0
 20 21  1  0
 20 22  1  0
 20 23  1  0
 23 24  1  0
 23 25  1  0
 12  4  1  0
M  END
>  <plip>  (1) 
-0.03571428571428571

>  <filename>  (1) 
[H][C](=[N][c]1[c]([H])[n][c]([H])[c]([H])[c]1[H])[C]([H])([H])[C]([H])([H])[C]([H])([H])[N]([H])[H]

$$$$
