
     RDKit          3D

 37 39  0  0  0  0  0  0  0  0999 V2000
   12.1925    4.9497   23.3065 F   0  0  0  0  0  0  0  0  0  0  0  0
   11.5628    3.8714   22.8504 C   0  0  0  0  0  0  0  0  0  0  0  0
   12.0517    2.9469   21.9938 C   0  0  0  0  0  0  0  0  0  0  0  0
   11.0600    1.9544   21.6983 C   0  0  0  0  0  0  0  0  0  0  0  0
    9.8734    2.1513   22.3360 C   0  0  0  0  0  0  0  0  0  0  0  0
    8.5707    1.4307   22.2127 C   0  0  0  0  0  0  0  0  0  0  0  0
    8.6948    0.0243   21.6426 N   0  0  0  0  0  4  0  0  0  0  0  0
    9.4751   -0.9221   22.5556 C   0  0  0  0  0  0  0  0  0  0  0  0
    9.4649   -2.3645   22.0261 C   0  0  0  0  0  0  0  0  0  0  0  0
    8.0255   -2.8867   21.9879 N   0  0  0  0  0  4  0  0  0  0  0  0
    7.2742   -2.0235   20.9707 C   0  0  0  0  0  0  0  0  0  0  0  0
    7.2906   -0.5150   21.3030 C   0  0  0  0  0  0  0  0  0  0  0  0
    6.7365    0.2753   20.1502 C   0  0  0  0  0  0  0  0  0  0  0  0
    5.4590    0.8438   20.2159 C   0  0  0  0  0  0  0  0  0  0  0  0
    4.9297    1.4417   19.0708 C   0  0  0  0  0  0  0  0  0  0  0  0
    5.6955    1.4417   17.9007 C   0  0  0  0  0  0  0  0  0  0  0  0
    6.9363    0.9397   17.8319 N   0  0  0  0  0  0  0  0  0  0  0  0
    7.4490    0.4094   18.9471 C   0  0  0  0  0  0  0  0  0  0  0  0
    8.4709    0.0368   18.8593 H   0  0  0  0  0  0  0  0  0  0  0  0
    5.2945    1.8634   16.9796 H   0  0  0  0  0  0  0  0  0  0  0  0
    3.9502    1.9073   19.0734 H   0  0  0  0  0  0  0  0  0  0  0  0
    4.8993    0.8279   21.1554 H   0  0  0  0  0  0  0  0  0  0  0  0
    6.6715   -0.3614   22.1978 H   0  0  0  0  0  0  0  0  0  0  0  0
    6.2384   -2.3340   20.8771 H   0  0  0  0  0  0  0  0  0  0  0  0
    7.7523   -2.1185   19.9929 H   0  0  0  0  0  0  0  0  0  0  0  0
    7.9669   -3.8963   21.7481 H   0  0  0  0  0  0  0  0  0  0  0  0
    7.5906   -2.7605   22.9473 H   0  0  0  0  0  0  0  0  0  0  0  0
   10.0916   -3.0154   22.6327 H   0  0  0  0  0  0  0  0  0  0  0  0
    9.8638   -2.3678   21.0055 H   0  0  0  0  0  0  0  0  0  0  0  0
    8.9956   -0.9319   23.5432 H   0  0  0  0  0  0  0  0  0  0  0  0
   10.4943   -0.5644   22.6981 H   0  0  0  0  0  0  0  0  0  0  0  0
    9.1806    0.1311   20.7263 H   0  0  0  0  0  0  0  0  0  0  0  0
    8.0583    1.4088   23.1845 H   0  0  0  0  0  0  0  0  0  0  0  0
    7.9127    2.0025   21.5509 H   0  0  0  0  0  0  0  0  0  0  0  0
    9.9323    3.5664   23.3583 S   0  0  0  0  0  0  0  0  0  0  0  0
   11.1998    1.1333   21.0035 H   0  0  0  0  0  0  0  0  0  0  0  0
   13.0580    3.0152   21.5988 H   0  0  0  0  0  0  0  0  0  0  0  0
  1  2  1  0
  2  3  2  0
  3  4  1  0
  4  5  2  0
  5  6  1  0
  6  7  1  0
  7  8  1  0
  8  9  1  0
  9 10  1  0
 10 11  1  0
 11 12  1  0
 12 13  1  0
 13 14  2  0
 14 15  1  0
 15 16  2  0
 16 17  1  0
 17 18  2  0
 18 19  1  0
 16 20  1  0
 15 21  1  0
 14 22  1  0
 12 23  1  0
 11 24  1  0
 11 25  1  0
 10 26  1  0
 10 27  1  0
  9 28  1  0
  9 29  1  0
  8 30  1  0
  8 31  1  0
  7 32  1  0
  6 33  1  0
  6 34  1  0
  5 35  1  0
  4 36  1  0
  3 37  1  0
 35  2  1  0
 12  7  1  0
 18 13  1  0
M  CHG  2   7   1  10   1
M  END
>  <plip>  (1) 
-0.06666666666666667

>  <filename>  (1) 
[H][c]1[n][c]([H])[c]([C]2([H])[C]([H])([H])[N+]([H])([H])[C]([H])([H])[C]([H])([H])[N+]2([H])[C]([H])([H])[c]2[s][c]([F])[c]([H])[c]2[H])[c]([H])[c]1[H]

$$$$
