
     RDKit          3D

 38 39  0  0  0  0  0  0  0  0999 V2000
    5.0281    1.7223   16.9680 H   0  0  0  0  0  0  0  0  0  0  0  0
    5.4551    1.2921   17.8732 C   0  0  0  0  0  0  0  0  0  0  0  0
    6.6366    0.6785   17.7260 N   0  0  0  0  0  0  0  0  0  0  0  0
    7.1894    0.1378   18.8232 C   0  0  0  0  0  0  0  0  0  0  0  0
    8.1285   -0.3913   18.6485 H   0  0  0  0  0  0  0  0  0  0  0  0
    6.6346    0.1746   20.1178 C   0  0  0  0  0  0  0  0  0  0  0  0
    7.3024   -0.5781   21.2780 C   0  0  1  0  0  0  0  0  0  0  0  0
    6.6889   -0.4532   22.1786 H   0  0  0  0  0  0  0  0  0  0  0  0
    7.3823   -2.0644   20.9039 C   0  0  0  0  0  0  0  0  0  0  0  0
    7.9781   -2.0369   19.9956 H   0  0  0  0  0  0  0  0  0  0  0  0
    6.3991   -2.4498   20.6282 H   0  0  0  0  0  0  0  0  0  0  0  0
    8.1020   -2.9684   21.9063 C   0  0  0  0  0  0  0  0  0  0  0  0
    8.1002   -4.0030   21.5411 H   0  0  0  0  0  0  0  0  0  0  0  0
    7.5652   -2.9767   22.8651 H   0  0  0  0  0  0  0  0  0  0  0  0
    9.5358   -2.4735   22.1206 C   0  0  0  0  0  0  0  0  0  0  0  0
   10.0943   -2.5531   21.1730 H   0  0  0  0  0  0  0  0  0  0  0  0
   10.0604   -3.1079   22.8482 H   0  0  0  0  0  0  0  0  0  0  0  0
    9.5373   -1.0105   22.5911 C   0  0  0  0  0  0  0  0  0  0  0  0
   10.5797   -0.6675   22.6617 H   0  0  0  0  0  0  0  0  0  0  0  0
    9.1024   -0.9644   23.6030 H   0  0  0  0  0  0  0  0  0  0  0  0
    8.7506   -0.0995   21.5987 C   0  0  2  0  0  0  0  0  0  0  0  0
    9.3345   -0.0538   20.6727 H   0  0  0  0  0  0  0  0  0  0  0  0
    8.6611    1.6497   22.0355 S   0  0  0  0  0  0  0  0  0  0  0  0
    7.6556    1.8272   23.0739 O   0  0  0  0  0  0  0  0  0  0  0  0
    8.6160    2.3770   20.7814 O   0  0  0  0  0  0  0  0  0  0  0  0
   10.1700    1.9330   22.7136 N   0  0  0  0  0  0  0  0  0  0  0  0
   10.2011    1.9472   24.1728 C   0  0  0  0  0  0  0  0  0  0  0  0
    9.8307    1.0021   24.5763 H   0  0  0  0  0  0  0  0  0  0  0  0
    9.6082    2.7607   24.6100 H   0  0  0  0  0  0  0  0  0  0  0  0
   11.2413    2.0616   24.4884 H   0  0  0  0  0  0  0  0  0  0  0  0
   11.0327    2.9057   22.0432 C   0  0  0  0  0  0  0  0  0  0  0  0
   11.0050    2.7151   20.9683 H   0  0  0  0  0  0  0  0  0  0  0  0
   12.0632    2.7694   22.3904 H   0  0  0  0  0  0  0  0  0  0  0  0
   10.7408    3.9451   22.2350 H   0  0  0  0  0  0  0  0  0  0  0  0
    5.3871    0.8167   20.2316 C   0  0  0  0  0  0  0  0  0  0  0  0
    4.8825    0.8778   21.1973 H   0  0  0  0  0  0  0  0  0  0  0  0
    4.7862    1.3778   19.0964 C   0  0  0  0  0  0  0  0  0  0  0  0
    3.8253    1.8806   19.1395 H   0  0  0  0  0  0  0  0  0  0  0  0
  1  2  1  0
  2  3  2  0
  3  4  1  0
  4  5  1  0
  4  6  2  0
  6  7  1  0
  7  8  1  1
  7  9  1  0
  9 10  1  0
  9 11  1  0
  9 12  1  0
 12 13  1  0
 12 14  1  0
 12 15  1  0
 15 16  1  0
 15 17  1  0
 15 18  1  0
 18 19  1  0
 18 20  1  0
 18 21  1  0
 21 22  1  6
 21 23  1  0
 23 24  2  0
 23 25  2  0
 23 26  1  0
 26 27  1  0
 27 28  1  0
 27 29  1  0
 27 30  1  0
 26 31  1  0
 31 32  1  0
 31 33  1  0
 31 34  1  0
  6 35  1  0
 35 36  1  0
 35 37  2  0
 37 38  1  0
 37  2  1  0
 21  7  1  0
M  END
>  <plip>  (1) 
-0.07142857142857142

>  <filename>  (1) 
[H][c]1[n][c]([H])[c]([C@@]2([H])[C]([H])([H])[C]([H])([H])[C]([H])([H])[C]([H])([H])[C@]2([H])[S](=[O])(=[O])[N]([C]([H])([H])[H])[C]([H])([H])[H])[c]([H])[c]1[H]

$$$$
