
     RDKit          3D

 51 53  0  0  0  0  0  0  0  0999 V2000
    6.7468   -2.9892   23.6622 C   0  0  0  0  0  0  0  0  0  0  0  0
    7.4273   -2.6287   22.4735 O   0  0  0  0  0  0  0  0  0  0  0  0
    6.6730   -1.9458   21.4973 C   0  0  0  0  0  0  0  0  0  0  0  0
    6.5003   -2.7310   20.3603 O   0  0  0  0  0  0  0  0  0  0  0  0
    5.7046   -3.8845   20.5057 C   0  0  0  0  0  0  0  0  0  0  0  0
    5.4149   -4.1756   19.4908 H   0  0  0  0  0  0  0  0  0  0  0  0
    6.2622   -4.7039   20.9753 H   0  0  0  0  0  0  0  0  0  0  0  0
    4.8003   -3.6776   21.1007 H   0  0  0  0  0  0  0  0  0  0  0  0
    7.3965   -0.6651   20.9966 C   0  0  0  0  0  0  0  0  0  0  0  0
    7.6767    0.2537   22.0894 N   0  0  0  0  0  0  0  0  0  0  0  0
    8.6641    1.1810   22.0283 C   0  0  0  0  0  0  0  0  0  0  0  0
    9.4429    1.2576   21.0890 O   0  0  0  0  0  0  0  0  0  0  0  0
    8.7321    2.1150   23.2364 C   0  0  0  0  0  0  0  0  0  0  0  0
    7.9100    1.9940   24.2579 N   0  0  0  0  0  0  0  0  0  0  0  0
    8.2313    3.0033   25.1310 O   0  0  0  0  0  0  0  0  0  0  0  0
    9.2328    3.7450   24.6170 C   0  0  0  0  0  0  0  0  0  0  0  0
    9.7681    4.8932   25.3541 C   0  0  0  0  0  0  0  0  0  0  0  0
   11.0814    5.2598   25.0092 C   0  0  0  0  0  0  0  0  0  0  0  0
   11.7985    6.2135   25.7220 C   0  0  0  0  0  0  0  0  0  0  0  0
   13.2279    6.4959   25.3495 C   0  0  0  0  0  0  0  0  0  0  0  0
   13.3083    7.3606   24.6806 H   0  0  0  0  0  0  0  0  0  0  0  0
   13.6734    5.6397   24.8302 H   0  0  0  0  0  0  0  0  0  0  0  0
   13.8290    6.6979   26.2397 H   0  0  0  0  0  0  0  0  0  0  0  0
   11.1492    6.8678   26.7769 C   0  0  0  0  0  0  0  0  0  0  0  0
    9.8212    6.5616   27.0912 C   0  0  0  0  0  0  0  0  0  0  0  0
    9.0951    5.5818   26.3998 C   0  0  0  0  0  0  0  0  0  0  0  0
    7.6658    5.3069   26.8161 C   0  0  0  0  0  0  0  0  0  0  0  0
    7.5781    4.3460   27.3340 H   0  0  0  0  0  0  0  0  0  0  0  0
    6.9841    5.2605   25.9593 H   0  0  0  0  0  0  0  0  0  0  0  0
    7.3105    6.0894   27.4972 H   0  0  0  0  0  0  0  0  0  0  0  0
    9.3226    7.0991   27.8965 H   0  0  0  0  0  0  0  0  0  0  0  0
   11.6805    7.6268   27.3467 H   0  0  0  0  0  0  0  0  0  0  0  0
   11.5784    4.7371   24.1953 H   0  0  0  0  0  0  0  0  0  0  0  0
    9.6135    3.2065   23.4216 C   0  0  0  0  0  0  0  0  0  0  0  0
   10.3704    3.5377   22.7244 H   0  0  0  0  0  0  0  0  0  0  0  0
    7.0720    0.2970   22.8944 H   0  0  0  0  0  0  0  0  0  0  0  0
    6.6599    0.0773   19.8859 C   0  0  0  0  0  0  0  0  0  0  0  0
    5.4408    0.7351   20.0893 C   0  0  0  0  0  0  0  0  0  0  0  0
    4.8129    1.3493   19.0040 C   0  0  0  0  0  0  0  0  0  0  0  0
    5.4457    1.3163   17.7547 C   0  0  0  0  0  0  0  0  0  0  0  0
    6.6191    0.7083   17.5398 N   0  0  0  0  0  0  0  0  0  0  0  0
    7.1982    0.1108   18.5936 C   0  0  0  0  0  0  0  0  0  0  0  0
    8.1512   -0.3811   18.3950 H   0  0  0  0  0  0  0  0  0  0  0  0
    4.9880    1.8000   16.8932 H   0  0  0  0  0  0  0  0  0  0  0  0
    3.8657    1.8641   19.1138 H   0  0  0  0  0  0  0  0  0  0  0  0
    4.9908    0.7816   21.0842 H   0  0  0  0  0  0  0  0  0  0  0  0
    8.3465   -1.0380   20.5996 H   0  0  0  0  0  0  0  0  0  0  0  0
    5.6907   -1.6540   21.9149 H   0  0  0  0  0  0  0  0  0  0  0  0
    5.8285   -3.5716   23.4799 H   0  0  0  0  0  0  0  0  0  0  0  0
    6.4814   -2.1191   24.2841 H   0  0  0  0  0  0  0  0  0  0  0  0
    7.4455   -3.6041   24.2320 H   0  0  0  0  0  0  0  0  0  0  0  0
  1  2  1  0
  2  3  1  0
  3  4  1  0
  4  5  1  0
  5  6  1  0
  5  7  1  0
  5  8  1  0
  3  9  1  0
  9 10  1  0
 10 11  1  0
 11 12  2  0
 11 13  1  0
 13 14  2  0
 14 15  1  0
 15 16  1  0
 16 17  1  0
 17 18  2  0
 18 19  1  0
 19 20  1  0
 20 21  1  0
 20 22  1  0
 20 23  1  0
 19 24  2  0
 24 25  1  0
 25 26  2  0
 26 27  1  0
 27 28  1  0
 27 29  1  0
 27 30  1  0
 25 31  1  0
 24 32  1  0
 18 33  1  0
 16 34  2  0
 34 35  1  0
 10 36  1  0
  9 37  1  0
 37 38  2  0
 38 39  1  0
 39 40  2  0
 40 41  1  0
 41 42  2  0
 42 43  1  0
 40 44  1  0
 39 45  1  0
 38 46  1  0
  9 47  1  0
  3 48  1  0
  1 49  1  0
  1 50  1  0
  1 51  1  0
 34 13  1  0
 42 37  1  0
 26 17  1  0
M  END
>  <plip>  (1) 
-0.17857142857142858

>  <filename>  (1) 
[H][c]1[n][c]([H])[c]([C]([H])([N]([H])[C](=[O])[c]2[n][o][c](-[c]3[c]([H])[c]([C]([H])([H])[H])[c]([H])[c]([H])[c]3[C]([H])([H])[H])[c]2[H])[C]([H])([O][C]([H])([H])[H])[O][C]([H])([H])[H])[c]([H])[c]1[H]

$$$$
