
     RDKit          3D

 34 36  0  0  0  0  0  0  0  0999 V2000
    7.9911   -5.1796   25.7938 H   0  0  0  0  0  0  0  0  0  0  0  0
    7.6973   -4.9415   26.6807 O   0  0  0  0  0  0  0  0  0  0  0  0
    7.3488   -3.5711   26.6542 C   0  0  0  0  0  0  0  0  0  0  0  0
    7.0381   -3.3475   27.6780 H   0  0  0  0  0  0  0  0  0  0  0  0
    6.1734   -3.3053   25.7176 C   0  0  0  0  0  0  0  0  0  0  0  0
    5.7631   -2.3138   25.9348 H   0  0  0  0  0  0  0  0  0  0  0  0
    5.3811   -4.0293   25.9290 H   0  0  0  0  0  0  0  0  0  0  0  0
    6.5704   -3.3690   24.2449 C   0  0  0  0  0  0  0  0  0  0  0  0
    6.7669   -4.4134   23.9519 H   0  0  0  0  0  0  0  0  0  0  0  0
    5.7174   -3.0525   23.6397 H   0  0  0  0  0  0  0  0  0  0  0  0
    7.7176   -2.5062   23.9809 N   0  0  0  0  0  0  0  0  0  0  0  0
    7.8241   -1.8287   22.7785 C   0  0  0  0  0  0  0  0  0  0  0  0
    9.0305   -1.5280   22.1917 N   0  0  0  0  0  0  0  0  0  0  0  0
    8.7264   -0.8570   21.1093 C   0  0  0  0  0  0  0  0  0  0  0  0
    9.4170   -0.4321   20.3843 H   0  0  0  0  0  0  0  0  0  0  0  0
    7.3736   -0.6828   20.9407 N   0  0  0  0  0  0  0  0  0  0  0  0
    6.6720    0.0068   19.9064 C   0  0  0  0  0  0  0  0  0  0  0  0
    7.1758    0.0613   18.5926 C   0  0  0  0  0  0  0  0  0  0  0  0
    8.1138   -0.4337   18.3604 H   0  0  0  0  0  0  0  0  0  0  0  0
    6.5619    0.6765   17.5782 N   0  0  0  0  0  0  0  0  0  0  0  0
    5.3991    1.2948   17.8368 C   0  0  0  0  0  0  0  0  0  0  0  0
    4.9127    1.7826   16.9941 H   0  0  0  0  0  0  0  0  0  0  0  0
    4.8114    1.3079   19.1077 C   0  0  0  0  0  0  0  0  0  0  0  0
    3.8773    1.8401   19.2639 H   0  0  0  0  0  0  0  0  0  0  0  0
    5.4477    0.6460   20.1633 C   0  0  0  0  0  0  0  0  0  0  0  0
    5.0147    0.6378   21.1676 H   0  0  0  0  0  0  0  0  0  0  0  0
    6.7985   -1.3254   22.0246 C   0  0  0  0  0  0  0  0  0  0  0  0
    5.7439   -1.3582   22.1844 H   0  0  0  0  0  0  0  0  0  0  0  0
    8.8967   -2.7533   24.7997 C   0  0  0  0  0  0  0  0  0  0  0  0
    9.6509   -1.9981   24.5709 H   0  0  0  0  0  0  0  0  0  0  0  0
    9.3580   -3.7244   24.5576 H   0  0  0  0  0  0  0  0  0  0  0  0
    8.5403   -2.6901   26.2853 C   0  0  0  0  0  0  0  0  0  0  0  0
    8.3080   -1.6532   26.5491 H   0  0  0  0  0  0  0  0  0  0  0  0
    9.4024   -2.9843   26.8902 H   0  0  0  0  0  0  0  0  0  0  0  0
  1  2  1  0
  2  3  1  0
  3  4  1  0
  3  5  1  0
  5  6  1  0
  5  7  1  0
  5  8  1  0
  8  9  1  0
  8 10  1  0
  8 11  1  0
 11 12  1  0
 12 13  1  0
 13 14  2  0
 14 15  1  0
 14 16  1  0
 16 17  1  0
 17 18  2  0
 18 19  1  0
 18 20  1  0
 20 21  2  0
 21 22  1  0
 21 23  1  0
 23 24  1  0
 23 25  2  0
 25 26  1  0
 16 27  1  0
 27 28  1  0
 11 29  1  0
 29 30  1  0
 29 31  1  0
 29 32  1  0
 32 33  1  0
 32 34  1  0
 32  3  1  0
 27 12  2  0
 25 17  1  0
M  END
>  <plip>  (1) 
-0.03571428571428571

>  <filename>  (1) 
[H][O][C]1([H])[C]([H])([H])[C]([H])([H])[N]([c]2[n][c]([H])[n](-[c]3[c]([H])[n][c]([H])[c]([H])[c]3[H])[c]2[H])[C]([H])([H])[C]1([H])[H]

$$$$
