
     RDKit          3D

 40 42  0  0  0  0  0  0  0  0999 V2000
    4.9151    1.7967   16.9814 H   0  0  0  0  0  0  0  0  0  0  0  0
    5.3940    1.3016   17.8204 C   0  0  0  0  0  0  0  0  0  0  0  0
    6.5531    0.6828   17.5538 N   0  0  0  0  0  0  0  0  0  0  0  0
    7.1536    0.0605   18.5715 C   0  0  0  0  0  0  0  0  0  0  0  0
    8.1064   -0.4199   18.3573 H   0  0  0  0  0  0  0  0  0  0  0  0
    6.6566    0.0189   19.8903 C   0  0  0  0  0  0  0  0  0  0  0  0
    7.3801   -0.6846   20.9512 C   0  0  0  0  0  0  0  0  0  0  0  0
    7.5437   -0.2303   22.2122 C   0  0  0  0  0  0  0  0  0  0  0  0
    7.1533    1.0525   22.6146 N   0  0  0  0  0  0  0  0  0  0  0  0
    6.5519    1.2397   23.9238 C   0  0  0  0  0  0  0  0  0  0  0  0
    7.3047    1.3551   24.7262 H   0  0  0  0  0  0  0  0  0  0  0  0
    5.9727    0.3418   24.1578 H   0  0  0  0  0  0  0  0  0  0  0  0
    5.6278    2.4565   23.8976 C   0  0  0  0  0  0  0  0  0  0  0  0
    4.7844    2.2411   23.2257 H   0  0  0  0  0  0  0  0  0  0  0  0
    5.2025    2.6222   24.8927 H   0  0  0  0  0  0  0  0  0  0  0  0
    6.3519    3.7164   23.4041 C   0  0  0  0  0  0  0  0  0  0  0  0
    7.1653    3.9350   24.1161 H   0  0  0  0  0  0  0  0  0  0  0  0
    5.4187    4.9259   23.3542 C   0  0  0  0  0  0  0  0  0  0  0  0
    5.9472    5.8270   23.0210 H   0  0  0  0  0  0  0  0  0  0  0  0
    4.5936    4.7526   22.6514 H   0  0  0  0  0  0  0  0  0  0  0  0
    4.9770    5.1329   24.3359 H   0  0  0  0  0  0  0  0  0  0  0  0
    6.9897    3.4336   22.0367 C   0  0  0  0  0  0  0  0  0  0  0  0
    7.5582    4.3080   21.6975 H   0  0  0  0  0  0  0  0  0  0  0  0
    6.2036    3.2630   21.2882 H   0  0  0  0  0  0  0  0  0  0  0  0
    7.8902    2.2038   22.0790 C   0  0  0  0  0  0  0  0  0  0  0  0
    8.2372    1.9630   21.0713 H   0  0  0  0  0  0  0  0  0  0  0  0
    8.7938    2.4284   22.6769 H   0  0  0  0  0  0  0  0  0  0  0  0
    8.2545   -1.2217   23.0977 C   0  0  0  0  0  0  0  0  0  0  0  0
    9.2197   -0.8074   23.4248 H   0  0  0  0  0  0  0  0  0  0  0  0
    7.6920   -1.4316   24.0164 H   0  0  0  0  0  0  0  0  0  0  0  0
    8.4258   -2.4842   22.1995 C   0  0  0  0  0  0  0  0  0  0  0  0
    7.8034   -3.3154   22.5532 H   0  0  0  0  0  0  0  0  0  0  0  0
    9.4568   -2.8550   22.1948 H   0  0  0  0  0  0  0  0  0  0  0  0
    7.9867   -2.0479   20.7814 C   0  0  0  0  0  0  0  0  0  0  0  0
    8.8373   -1.9849   20.0906 H   0  0  0  0  0  0  0  0  0  0  0  0
    7.2534   -2.7378   20.3444 H   0  0  0  0  0  0  0  0  0  0  0  0
    5.4370    0.6756   20.1448 C   0  0  0  0  0  0  0  0  0  0  0  0
    5.0080    0.6466   21.1489 H   0  0  0  0  0  0  0  0  0  0  0  0
    4.7991    1.3198   19.0893 C   0  0  0  0  0  0  0  0  0  0  0  0
    3.8662    1.8437   19.2427 H   0  0  0  0  0  0  0  0  0  0  0  0
  1  2  1  0
  2  3  2  0
  3  4  1  0
  4  5  1  0
  4  6  2  0
  6  7  1  0
  7  8  2  0
  8  9  1  0
  9 10  1  0
 10 11  1  0
 10 12  1  0
 10 13  1  0
 13 14  1  0
 13 15  1  0
 13 16  1  0
 16 17  1  0
 16 18  1  0
 18 19  1  0
 18 20  1  0
 18 21  1  0
 16 22  1  0
 22 23  1  0
 22 24  1  0
 22 25  1  0
 25 26  1  0
 25 27  1  0
  8 28  1  0
 28 29  1  0
 28 30  1  0
 28 31  1  0
 31 32  1  0
 31 33  1  0
 31 34  1  0
 34 35  1  0
 34 36  1  0
  6 37  1  0
 37 38  1  0
 37 39  2  0
 39 40  1  0
 39  2  1  0
 34  7  1  0
 25  9  1  0
M  END
>  <plip>  (1) 
-0.0

>  <filename>  (1) 
[H][c]1[n][c]([H])[c]([C]2=[C]([N]3[C]([H])([H])[C]([H])([H])[C]([H])([C]([H])([H])[H])[C]([H])([H])[C]3([H])[H])[C]([H])([H])[C]([H])([H])[C]2([H])[H])[c]([H])[c]1[H]

$$$$
