
     RDKit          3D

 45 47  0  0  0  0  0  0  0  0999 V2000
    9.1091    0.2012   23.5990 H   0  0  0  0  0  0  0  0  0  0  0  0
    8.6265   -0.3837   22.8373 C   0  0  0  0  0  0  0  0  0  0  0  0
    8.9822   -1.6587   22.5969 C   0  0  0  0  0  0  0  0  0  0  0  0
    9.9164   -2.4098   23.1978 O   0  0  0  0  0  0  0  0  0  0  0  0
   10.3498   -2.0559   24.5158 C   0  0  0  0  0  0  0  0  0  0  0  0
   11.1036   -2.8205   24.7332 H   0  0  0  0  0  0  0  0  0  0  0  0
   10.8662   -1.0846   24.5025 H   0  0  0  0  0  0  0  0  0  0  0  0
    9.2390   -2.1063   25.5743 C   0  0  0  0  0  0  0  0  0  0  0  0
    8.2896   -1.7548   25.1536 H   0  0  0  0  0  0  0  0  0  0  0  0
    9.5052   -1.4309   26.3923 H   0  0  0  0  0  0  0  0  0  0  0  0
    9.0941   -3.5177   26.1326 C   0  0  0  0  0  0  0  0  0  0  0  0
    8.9080   -4.2391   25.3146 H   0  0  0  0  0  0  0  0  0  0  0  0
   10.0721   -3.7805   26.5623 H   0  0  0  0  0  0  0  0  0  0  0  0
    8.1052   -3.6314   27.2138 N   0  0  0  0  0  0  0  0  0  0  0  0
    8.2957   -4.9042   27.9223 C   0  0  0  0  0  0  0  0  0  0  0  0
    9.3256   -4.9768   28.2935 H   0  0  0  0  0  0  0  0  0  0  0  0
    7.6444   -4.9120   28.8060 H   0  0  0  0  0  0  0  0  0  0  0  0
    7.9946   -6.1416   27.0409 C   0  0  0  0  0  0  0  0  0  0  0  0
    8.8893   -6.4227   26.4756 H   0  0  0  0  0  0  0  0  0  0  0  0
    7.7200   -6.9751   27.6991 H   0  0  0  0  0  0  0  0  0  0  0  0
    6.9898   -5.9332   26.0450 O   0  0  0  0  0  0  0  0  0  0  0  0
    6.0428   -4.9301   26.3726 C   0  0  0  0  0  0  0  0  0  0  0  0
    5.4143   -4.8116   25.4859 H   0  0  0  0  0  0  0  0  0  0  0  0
    5.3943   -5.2789   27.1926 H   0  0  0  0  0  0  0  0  0  0  0  0
    6.6932   -3.5631   26.7688 C   0  0  0  0  0  0  0  0  0  0  0  0
    6.6079   -2.8541   25.9387 H   0  0  0  0  0  0  0  0  0  0  0  0
    6.1000   -3.1420   27.5917 H   0  0  0  0  0  0  0  0  0  0  0  0
    8.3289   -2.4156   21.6539 N   0  0  0  0  0  0  0  0  0  0  0  0
    8.4019   -3.4124   21.7071 H   0  0  0  0  0  0  0  0  0  0  0  0
    7.1919   -2.0002   20.9946 C   0  0  0  0  0  0  0  0  0  0  0  0
    6.4617   -2.7993   20.4536 O   0  0  0  0  0  0  0  0  0  0  0  0
    7.0361   -0.6083   20.9913 N   0  0  0  0  0  0  0  0  0  0  0  0
    6.4349    0.0622   19.8739 C   0  0  0  0  0  0  0  0  0  0  0  0
    7.0534    0.0848   18.6036 C   0  0  0  0  0  0  0  0  0  0  0  0
    8.0056   -0.4249   18.4753 H   0  0  0  0  0  0  0  0  0  0  0  0
    6.5528    0.7191   17.5329 N   0  0  0  0  0  0  0  0  0  0  0  0
    5.3887    1.3710   17.6889 C   0  0  0  0  0  0  0  0  0  0  0  0
    5.0008    1.8737   16.8031 H   0  0  0  0  0  0  0  0  0  0  0  0
    4.6939    1.4238   18.9027 C   0  0  0  0  0  0  0  0  0  0  0  0
    3.7691    1.9914   18.9655 H   0  0  0  0  0  0  0  0  0  0  0  0
    5.2335    0.7683   20.0196 C   0  0  0  0  0  0  0  0  0  0  0  0
    4.7463    0.7997   20.9951 H   0  0  0  0  0  0  0  0  0  0  0  0
    7.3746    0.1546   22.2069 C   0  0  0  0  0  0  0  0  0  0  0  0
    7.5017    1.2151   21.9299 H   0  0  0  0  0  0  0  0  0  0  0  0
    6.5372    0.1259   22.9424 H   0  0  0  0  0  0  0  0  0  0  0  0
  1  2  1  0
  2  3  2  0
  3  4  1  0
  4  5  1  0
  5  6  1  0
  5  7  1  0
  5  8  1  0
  8  9  1  0
  8 10  1  0
  8 11  1  0
 11 12  1  0
 11 13  1  0
 11 14  1  0
 14 15  1  0
 15 16  1  0
 15 17  1  0
 15 18  1  0
 18 19  1  0
 18 20  1  0
 18 21  1  0
 21 22  1  0
 22 23  1  0
 22 24  1  0
 22 25  1  0
 25 26  1  0
 25 27  1  0
  3 28  1  0
 28 29  1  0
 28 30  1  0
 30 31  2  0
 30 32  1  0
 32 33  1  0
 33 34  2  0
 34 35  1  0
 34 36  1  0
 36 37  2  0
 37 38  1  0
 37 39  1  0
 39 40  1  0
 39 41  2  0
 41 42  1  0
 32 43  1  0
 43 44  1  0
 43 45  1  0
 43  2  1  0
 25 14  1  0
 41 33  1  0
M  END
>  <plip>  (1) 
-0.06896551724137931

>  <filename>  (1) 
[H][C]1=[C]([O][C]([H])([H])[C]([H])([H])[C]([H])([H])[N]2[C]([H])([H])[C]([H])([H])[O][C]([H])([H])[C]2([H])[H])[N]([H])[C](=[O])[N]([c]2[c]([H])[n][c]([H])[c]([H])[c]2[H])[C]1([H])[H]

$$$$
