
     RDKit          3D

 22 23  0  0  0  0  0  0  0  0999 V2000
    5.8962   -2.7454   19.1698 H   0  0  0  0  0  0  0  0  0  0  0  0
    5.7057   -3.6541   20.1474 S   0  0  0  0  0  0  0  0  0  0  0  0
    5.6945   -2.4438   21.5260 C   0  0  0  0  0  0  0  0  0  0  0  0
    5.4289   -2.9867   22.4335 H   0  0  0  0  0  0  0  0  0  0  0  0
    4.9419   -1.6795   21.3635 H   0  0  0  0  0  0  0  0  0  0  0  0
    6.9816   -1.7357   21.7338 C   0  0  0  0  0  0  0  0  0  0  0  0
    7.9056   -2.0906   22.5853 N   0  0  0  0  0  0  0  0  0  0  0  0
    8.9744   -1.2738   22.3209 C   0  0  0  0  0  0  0  0  0  0  0  0
    9.8941   -1.3882   22.8762 H   0  0  0  0  0  0  0  0  0  0  0  0
    8.6864   -0.4005   21.3129 C   0  0  0  0  0  0  0  0  0  0  0  0
    9.2358    0.4038   20.8478 H   0  0  0  0  0  0  0  0  0  0  0  0
    7.3835   -0.6739   20.9371 N   0  0  0  0  0  0  0  0  0  0  0  0
    6.6586    0.0064   19.9084 C   0  0  0  0  0  0  0  0  0  0  0  0
    7.1763    0.0683   18.5973 C   0  0  0  0  0  0  0  0  0  0  0  0
    8.1177   -0.4270   18.3693 H   0  0  0  0  0  0  0  0  0  0  0  0
    6.5614    0.6752   17.5755 N   0  0  0  0  0  0  0  0  0  0  0  0
    5.3980    1.2948   17.8308 C   0  0  0  0  0  0  0  0  0  0  0  0
    4.9196    1.7881   16.9851 H   0  0  0  0  0  0  0  0  0  0  0  0
    4.8071    1.3115   19.0998 C   0  0  0  0  0  0  0  0  0  0  0  0
    3.8760    1.8421   19.2551 H   0  0  0  0  0  0  0  0  0  0  0  0
    5.4334    0.6478   20.1626 C   0  0  0  0  0  0  0  0  0  0  0  0
    5.0134    0.6420   21.1719 H   0  0  0  0  0  0  0  0  0  0  0  0
  1  2  1  0
  2  3  1  0
  3  4  1  0
  3  5  1  0
  3  6  1  0
  6  7  2  0
  7  8  1  0
  8  9  1  0
  8 10  2  0
 10 11  1  0
 10 12  1  0
 12 13  1  0
 13 14  2  0
 14 15  1  0
 14 16  1  0
 16 17  2  0
 17 18  1  0
 17 19  1  0
 19 20  1  0
 19 21  2  0
 21 22  1  0
 12  6  1  0
 21 13  1  0
M  END
>  <plip>  (1) 
-0.03571428571428571

>  <filename>  (1) 
[H][S][C]([H])([H])[c]1[n][c]([H])[c]([H])[n]1-[c]1[c]([H])[n][c]([H])[c]([H])[c]1[H]

$$$$
