
     RDKit          3D

 31 33  0  0  0  0  0  0  0  0999 V2000
    4.9661    1.8158   16.9812 H   0  0  0  0  0  0  0  0  0  0  0  0
    5.4104    1.2892   17.8237 C   0  0  0  0  0  0  0  0  0  0  0  0
    6.5641    0.6480   17.5838 N   0  0  0  0  0  0  0  0  0  0  0  0
    7.1284    0.0039   18.6166 C   0  0  0  0  0  0  0  0  0  0  0  0
    8.0776   -0.4906   18.4100 H   0  0  0  0  0  0  0  0  0  0  0  0
    6.5715   -0.0668   19.9137 C   0  0  0  0  0  0  0  0  0  0  0  0
    7.2122   -0.8146   21.0064 C   0  0  0  0  0  0  0  0  0  0  0  0
    8.3059   -0.4183   21.7098 C   0  0  0  0  0  0  0  0  0  0  0  0
    9.2205    0.6787   21.4338 C   0  0  0  0  0  0  0  0  0  0  0  0
    9.4900    0.8800   20.2571 O   0  0  0  0  0  0  0  0  0  0  0  0
    9.8793    1.5518   22.4822 C   0  0  0  0  0  0  0  0  0  0  0  0
    9.4289    1.7217   23.8062 C   0  0  0  0  0  0  0  0  0  0  0  0
    8.5492    1.2024   24.1791 H   0  0  0  0  0  0  0  0  0  0  0  0
   10.1290    2.5709   24.6762 C   0  0  0  0  0  0  0  0  0  0  0  0
    9.7933    2.6996   25.7063 H   0  0  0  0  0  0  0  0  0  0  0  0
   11.2662    3.2545   24.2316 C   0  0  0  0  0  0  0  0  0  0  0  0
   11.8115    3.9379   24.8745 H   0  0  0  0  0  0  0  0  0  0  0  0
   11.7157    3.0956   22.9209 C   0  0  0  0  0  0  0  0  0  0  0  0
   12.6073    3.6042   22.5583 H   0  0  0  0  0  0  0  0  0  0  0  0
   11.0156    2.2653   22.0594 C   0  0  0  0  0  0  0  0  0  0  0  0
   11.3336    2.1573   21.0309 H   0  0  0  0  0  0  0  0  0  0  0  0
    8.6530   -1.4425   22.6797 C   0  0  0  0  0  0  0  0  0  0  0  0
    9.5772   -1.4864   23.4436 O   0  0  0  0  0  0  0  0  0  0  0  0
    7.7241   -2.4345   22.5737 O   0  0  0  0  0  0  0  0  0  0  0  0
    6.7625   -2.1233   21.5785 C   0  0  0  0  0  0  0  0  0  0  0  0
    5.7658   -2.0925   22.0425 H   0  0  0  0  0  0  0  0  0  0  0  0
    6.7630   -2.9223   20.8234 H   0  0  0  0  0  0  0  0  0  0  0  0
    5.3605    0.6068   20.1296 C   0  0  0  0  0  0  0  0  0  0  0  0
    4.9014    0.6076   21.1217 H   0  0  0  0  0  0  0  0  0  0  0  0
    4.7770    1.3008   19.0708 C   0  0  0  0  0  0  0  0  0  0  0  0
    3.8560    1.8583   19.2025 H   0  0  0  0  0  0  0  0  0  0  0  0
  1  2  1  0
  2  3  2  0
  3  4  1  0
  4  5  1  0
  4  6  2  0
  6  7  1  0
  7  8  2  0
  8  9  1  0
  9 10  2  0
  9 11  1  0
 11 12  2  0
 12 13  1  0
 12 14  1  0
 14 15  1  0
 14 16  2  0
 16 17  1  0
 16 18  1  0
 18 19  1  0
 18 20  2  0
 20 21  1  0
  8 22  1  0
 22 23  2  0
 22 24  1  0
 24 25  1  0
 25 26  1  0
 25 27  1  0
  6 28  1  0
 28 29  1  0
 28 30  2  0
 30 31  1  0
 30  2  1  0
 25  7  1  0
 20 11  1  0
M  END
>  <plip>  (1) 
-0.07142857142857142

>  <filename>  (1) 
[H][c]1[n][c]([H])[c]([C]2=[C]([C](=[O])[c]3[c]([H])[c]([H])[c]([H])[c]([H])[c]3[H])[C](=[O])[O][C]2([H])[H])[c]([H])[c]1[H]

$$$$
