
     RDKit          3D

 42 45  0  0  0  0  0  0  0  0999 V2000
    4.9413   -5.5404   26.3918 C   0  0  0  0  0  0  0  0  0  0  0  0
    3.9815   -5.4941   25.2388 C   0  0  0  0  0  0  0  0  0  0  0  0
    2.7489   -6.1433   25.2420 C   0  0  0  0  0  0  0  0  0  0  0  0
    1.8571   -6.0846   24.1369 C   0  0  0  0  0  0  0  0  0  0  0  0
    2.2193   -5.3717   23.0113 C   0  0  0  0  0  0  0  0  0  0  0  0
    1.3860   -5.2849   21.9585 F   0  0  0  0  0  0  0  0  0  0  0  0
    3.4551   -4.6983   22.9879 C   0  0  0  0  0  0  0  0  0  0  0  0
    4.3269   -4.7212   24.0945 C   0  0  0  0  0  0  0  0  0  0  0  0
    5.4308   -3.8720   23.7624 C   0  0  0  0  0  0  0  0  0  0  0  0
    5.2081   -3.3675   22.4931 C   0  0  0  0  0  0  0  0  0  0  0  0
    5.9166   -2.4544   21.5232 C   0  0  0  0  0  0  0  0  0  0  0  0
    5.7206   -2.6029   20.3193 O   0  0  0  0  0  0  0  0  0  0  0  0
    6.7230   -1.4472   21.9700 N   0  0  0  0  0  0  0  0  0  0  0  0
    6.9914   -1.0443   23.3512 C   0  0  0  0  0  0  0  0  0  0  0  0
    7.4622    0.3997   23.1848 C   0  0  0  0  0  0  0  0  0  0  0  0
    8.2755    0.3249   21.8859 C   0  0  0  0  0  0  0  0  0  0  0  0
    7.4792   -0.6503   20.9936 C   0  0  0  0  0  0  0  0  0  0  0  0
    6.6279    0.0203   19.9211 C   0  0  0  0  0  0  0  0  0  0  0  0
    5.4160    0.6917   20.1382 C   0  0  0  0  0  0  0  0  0  0  0  0
    4.8106    1.3504   19.0598 C   0  0  0  0  0  0  0  0  0  0  0  0
    5.4342    1.3128   17.8074 C   0  0  0  0  0  0  0  0  0  0  0  0
    6.5788    0.6548   17.5714 N   0  0  0  0  0  0  0  0  0  0  0  0
    7.1341    0.0250   18.6140 C   0  0  0  0  0  0  0  0  0  0  0  0
    8.0560   -0.5179   18.3963 H   0  0  0  0  0  0  0  0  0  0  0  0
    4.9961    1.8249   16.9519 H   0  0  0  0  0  0  0  0  0  0  0  0
    3.8791    1.8979   19.1728 H   0  0  0  0  0  0  0  0  0  0  0  0
    4.9401    0.7089   21.1204 H   0  0  0  0  0  0  0  0  0  0  0  0
    8.1673   -1.3159   20.4490 H   0  0  0  0  0  0  0  0  0  0  0  0
    9.2566   -0.1276   22.0950 H   0  0  0  0  0  0  0  0  0  0  0  0
    8.4341    1.2939   21.3963 H   0  0  0  0  0  0  0  0  0  0  0  0
    8.0702    0.7376   24.0273 H   0  0  0  0  0  0  0  0  0  0  0  0
    6.6017    1.0773   23.0689 H   0  0  0  0  0  0  0  0  0  0  0  0
    7.7949   -1.6631   23.7807 H   0  0  0  0  0  0  0  0  0  0  0  0
    6.1081   -1.1498   23.9861 H   0  0  0  0  0  0  0  0  0  0  0  0
    4.0247   -3.9094   22.0412 N   0  0  0  0  0  0  0  0  0  0  0  0
    3.5626   -3.6242   21.1900 H   0  0  0  0  0  0  0  0  0  0  0  0
    6.2675   -3.7045   24.4296 H   0  0  0  0  0  0  0  0  0  0  0  0
    0.8834   -6.5669   24.1512 H   0  0  0  0  0  0  0  0  0  0  0  0
    2.4424   -6.7055   26.1238 H   0  0  0  0  0  0  0  0  0  0  0  0
    5.9044   -5.9758   26.0977 H   0  0  0  0  0  0  0  0  0  0  0  0
    4.5523   -6.1084   27.2422 H   0  0  0  0  0  0  0  0  0  0  0  0
    5.1522   -4.5182   26.7246 H   0  0  0  0  0  0  0  0  0  0  0  0
  1  2  1  0
  2  3  2  0
  3  4  1  0
  4  5  2  0
  5  6  1  0
  5  7  1  0
  7  8  2  0
  8  9  1  0
  9 10  2  0
 10 11  1  0
 11 12  2  0
 11 13  1  0
 13 14  1  0
 14 15  1  0
 15 16  1  0
 16 17  1  0
 17 18  1  0
 18 19  2  0
 19 20  1  0
 20 21  2  0
 21 22  1  0
 22 23  2  0
 23 24  1  0
 21 25  1  0
 20 26  1  0
 19 27  1  0
 17 28  1  0
 16 29  1  0
 16 30  1  0
 15 31  1  0
 15 32  1  0
 14 33  1  0
 14 34  1  0
 10 35  1  0
 35 36  1  0
  9 37  1  0
  4 38  1  0
  3 39  1  0
  1 40  1  0
  1 41  1  0
  1 42  1  0
  8  2  1  0
 17 13  1  0
 23 18  1  0
 35  7  1  0
M  END
>  <plip>  (1) 
-0.10714285714285714

>  <filename>  (1) 
[H][c]1[n][c]([H])[c]([C]2([H])[N]([C](=[O])[c]3[c]([H])[c]4[c]([C]([H])([H])[H])[c]([H])[c]([H])[c]([F])[c]4[n]3[H])[C]([H])([H])[C]([H])([H])[C]2([H])[H])[c]([H])[c]1[H]

$$$$
