
     RDKit          3D

 34 37  0  0  0  0  0  0  0  0999 V2000
    4.9162    1.7826   16.9938 H   0  0  0  0  0  0  0  0  0  0  0  0
    5.3983    1.2943   17.8385 C   0  0  0  0  0  0  0  0  0  0  0  0
    6.5643    0.6795   17.5719 N   0  0  0  0  0  0  0  0  0  0  0  0
    7.1734    0.0633   18.5933 C   0  0  0  0  0  0  0  0  0  0  0  0
    8.1213   -0.4244   18.3641 H   0  0  0  0  0  0  0  0  0  0  0  0
    6.6640    0.0064   19.9103 C   0  0  0  0  0  0  0  0  0  0  0  0
    7.3562   -0.6953   20.9574 C   0  0  0  0  0  0  0  0  0  0  0  0
    7.9167   -1.2991   21.8390 C   0  0  0  0  0  0  0  0  0  0  0  0
    8.6495   -1.9842   22.8820 C   0  0  0  0  0  0  0  0  0  0  0  0
    7.8784   -3.0607   23.6027 C   0  0  0  0  0  0  0  0  0  0  0  0
    7.9209   -4.3199   23.2914 N   0  0  0  0  0  0  0  0  0  0  0  0
    7.1380   -5.1022   24.0962 N   0  0  0  0  0  0  0  0  0  0  0  0
    6.5162   -4.4296   25.0217 C   0  0  0  0  0  0  0  0  0  0  0  0
    5.6021   -5.0160   26.0253 C   0  0  0  0  0  0  0  0  0  0  0  0
    5.3421   -6.4001   26.0236 C   0  0  0  0  0  0  0  0  0  0  0  0
    5.8026   -7.0361   25.2827 H   0  0  0  0  0  0  0  0  0  0  0  0
    4.5272   -7.0120   26.8859 N   0  0  0  0  0  0  0  0  0  0  0  0
    3.9311   -6.2536   27.8129 C   0  0  0  0  0  0  0  0  0  0  0  0
    3.2765   -6.7739   28.5047 H   0  0  0  0  0  0  0  0  0  0  0  0
    4.1137   -4.8712   27.9069 C   0  0  0  0  0  0  0  0  0  0  0  0
    3.6010   -4.3088   28.6763 H   0  0  0  0  0  0  0  0  0  0  0  0
    4.9610   -4.2350   27.0022 C   0  0  0  0  0  0  0  0  0  0  0  0
    5.1174   -3.1581   27.0587 H   0  0  0  0  0  0  0  0  0  0  0  0
    6.8614   -2.7226   24.9674 S   0  0  0  0  0  0  0  0  0  0  0  0
    9.6783   -1.1546   23.6596 C   0  0  0  0  0  0  0  0  0  0  0  0
    9.7804   -1.3746   24.7163 H   0  0  0  0  0  0  0  0  0  0  0  0
    9.7636   -0.1009   23.4043 H   0  0  0  0  0  0  0  0  0  0  0  0
   10.1537   -2.1597   22.6803 C   0  0  0  0  0  0  0  0  0  0  0  0
   10.5700   -3.0865   23.0578 H   0  0  0  0  0  0  0  0  0  0  0  0
   10.5723   -1.8166   21.7374 H   0  0  0  0  0  0  0  0  0  0  0  0
    5.4394    0.6538   20.1576 C   0  0  0  0  0  0  0  0  0  0  0  0
    5.0073    0.6336   21.1612 H   0  0  0  0  0  0  0  0  0  0  0  0
    4.8028    1.3123   19.1047 C   0  0  0  0  0  0  0  0  0  0  0  0
    3.8706    1.8456   19.2547 H   0  0  0  0  0  0  0  0  0  0  0  0
  1  2  1  0
  2  3  2  0
  3  4  1  0
  4  5  1  0
  4  6  2  0
  6  7  1  0
  7  8  3  0
  8  9  1  0
  9 10  1  0
 10 11  2  0
 11 12  1  0
 12 13  2  0
 13 14  1  0
 14 15  2  0
 15 16  1  0
 15 17  1  0
 17 18  2  0
 18 19  1  0
 18 20  1  0
 20 21  1  0
 20 22  2  0
 22 23  1  0
 13 24  1  0
  9 25  1  0
 25 26  1  0
 25 27  1  0
 25 28  1  0
 28 29  1  0
 28 30  1  0
  6 31  1  0
 31 32  1  0
 31 33  2  0
 33 34  1  0
 33  2  1  0
 28  9  1  0
 24 10  1  0
 22 14  1  0
M  END
>  <plip>  (1) 
-0.034482758620689655

>  <filename>  (1) 
[H][c]1[n][c]([H])[c]([C]#[C][C]2([c]3[n][n][c](-[c]4[c]([H])[n][c]([H])[c]([H])[c]4[H])[s]3)[C]([H])([H])[C]2([H])[H])[c]([H])[c]1[H]

$$$$
