
     RDKit          3D

 32 35  0  0  0  0  0  0  0  0999 V2000
    6.3678   -0.6893   23.8730 H   0  0  0  0  0  0  0  0  0  0  0  0
    6.5230   -0.6309   22.8018 C   0  0  0  0  0  0  0  0  0  0  0  0
    5.7100    0.1653   22.0063 N   0  0  0  0  0  0  0  0  0  0  0  0
    6.1377   -0.0472   20.8066 C   0  0  0  0  0  0  0  0  0  0  0  0
    5.7335    0.5717   19.5630 C   0  0  0  0  0  0  0  0  0  0  0  0
    6.5480    0.3969   18.4377 C   0  0  0  0  0  0  0  0  0  0  0  0
    7.4335   -0.2293   18.4989 H   0  0  0  0  0  0  0  0  0  0  0  0
    6.3015    0.9531   17.2504 N   0  0  0  0  0  0  0  0  0  0  0  0
    5.2086    1.7239   17.1553 C   0  0  0  0  0  0  0  0  0  0  0  0
    5.0298    2.1916   16.1902 H   0  0  0  0  0  0  0  0  0  0  0  0
    4.3220    1.9401   18.2142 C   0  0  0  0  0  0  0  0  0  0  0  0
    3.4491    2.5599   18.0573 H   0  0  0  0  0  0  0  0  0  0  0  0
    4.5856    1.3641   19.4507 C   0  0  0  0  0  0  0  0  0  0  0  0
    3.9264    1.5244   20.3036 H   0  0  0  0  0  0  0  0  0  0  0  0
    7.1653   -0.9113   20.7350 O   0  0  0  0  0  0  0  0  0  0  0  0
    7.4532   -1.2685   22.0316 C   0  0  0  0  0  0  0  0  0  0  0  0
    8.7836   -1.8713   22.2125 C   0  0  0  0  0  0  0  0  0  0  0  0
    9.8232   -1.3096   21.4708 C   0  0  0  0  0  0  0  0  0  0  0  0
    9.6011   -0.5444   20.7317 H   0  0  0  0  0  0  0  0  0  0  0  0
   11.1686   -1.6912   21.6480 C   0  0  0  0  0  0  0  0  0  0  0  0
   11.9501   -1.2412   21.0356 H   0  0  0  0  0  0  0  0  0  0  0  0
   11.4785   -2.6442   22.5820 C   0  0  0  0  0  0  0  0  0  0  0  0
   12.4922   -2.9828   22.7347 H   0  0  0  0  0  0  0  0  0  0  0  0
   10.4728   -3.2507   23.3781 C   0  0  0  0  0  0  0  0  0  0  0  0
   10.9056   -4.1516   24.3149 N   0  0  0  0  0  0  0  0  0  0  0  0
   10.0015   -4.8079   24.9980 C   0  0  0  0  0  0  0  0  0  0  0  0
   10.3759   -5.5297   25.7253 H   0  0  0  0  0  0  0  0  0  0  0  0
    8.6020   -4.6404   24.8159 C   0  0  0  0  0  0  0  0  0  0  0  0
    7.9340   -5.2667   25.4011 H   0  0  0  0  0  0  0  0  0  0  0  0
    8.1451   -3.6968   23.9170 C   0  0  0  0  0  0  0  0  0  0  0  0
    7.0782   -3.5271   23.7654 H   0  0  0  0  0  0  0  0  0  0  0  0
    9.0878   -2.9188   23.1661 C   0  0  0  0  0  0  0  0  0  0  0  0
  1  2  1  0
  2  3  1  0
  3  4  2  0
  4  5  1  0
  5  6  2  0
  6  7  1  0
  6  8  1  0
  8  9  2  0
  9 10  1  0
  9 11  1  0
 11 12  1  0
 11 13  2  0
 13 14  1  0
  4 15  1  0
 15 16  1  0
 16 17  1  0
 17 18  2  0
 18 19  1  0
 18 20  1  0
 20 21  1  0
 20 22  2  0
 22 23  1  0
 22 24  1  0
 24 25  2  0
 25 26  1  0
 26 27  1  0
 26 28  2  0
 28 29  1  0
 28 30  1  0
 30 31  1  0
 30 32  2  0
 16  2  2  0
 32 17  1  0
 13  5  1  0
 32 24  1  0
M  END
>  <plip>  (1) 
-0.03571428571428571

>  <filename>  (1) 
[H][c]1[n][c](-[c]2[c]([H])[n][c]([H])[c]([H])[c]2[H])[o][c]1-[c]1[c]([H])[c]([H])[c]([H])[c]2[n][c]([H])[c]([H])[c]([H])[c]12

$$$$
