
     RDKit          3D

 38 41  0  0  0  0  0  0  0  0999 V2000
    5.5152    1.7148   16.5311 H   0  0  0  0  0  0  0  0  0  0  0  0
    5.6549    1.2887   17.5220 C   0  0  0  0  0  0  0  0  0  0  0  0
    6.7398    0.5155   17.6847 N   0  0  0  0  0  0  0  0  0  0  0  0
    6.9574    0.0129   18.9057 C   0  0  0  0  0  0  0  0  0  0  0  0
    7.8503   -0.5979   19.0301 H   0  0  0  0  0  0  0  0  0  0  0  0
    6.1205    0.2491   20.0093 C   0  0  0  0  0  0  0  0  0  0  0  0
    6.4552   -0.2841   21.3268 C   0  0  0  0  0  0  0  0  0  0  0  0
    6.2742    0.2718   22.5411 C   0  0  0  0  0  0  0  0  0  0  0  0
    5.8564    1.2311   22.7614 H   0  0  0  0  0  0  0  0  0  0  0  0
    6.7330   -0.6559   23.5487 C   0  0  0  0  0  0  0  0  0  0  0  0
    6.8009   -0.5544   24.7619 O   0  0  0  0  0  0  0  0  0  0  0  0
    7.1429   -1.8013   22.8139 N   0  0  0  0  0  0  0  0  0  0  0  0
    8.3317   -2.5304   23.2466 C   0  0  0  0  0  0  0  0  0  0  0  0
    8.4001   -3.4327   22.6277 H   0  0  0  0  0  0  0  0  0  0  0  0
    8.1492   -2.8421   24.2783 H   0  0  0  0  0  0  0  0  0  0  0  0
    9.6126   -1.7196   23.1196 C   0  0  0  0  0  0  0  0  0  0  0  0
    9.8760   -0.6356   24.0125 C   0  0  0  0  0  0  0  0  0  0  0  0
    9.1386   -0.3897   24.7743 H   0  0  0  0  0  0  0  0  0  0  0  0
   11.0419    0.0817   23.9170 C   0  0  0  0  0  0  0  0  0  0  0  0
   11.2151    0.9353   24.5682 H   0  0  0  0  0  0  0  0  0  0  0  0
   12.0459   -0.2772   22.9656 C   0  0  0  0  0  0  0  0  0  0  0  0
   13.3059    0.3901   22.8999 C   0  0  0  0  0  0  0  0  0  0  0  0
   13.4864    1.2355   23.5585 H   0  0  0  0  0  0  0  0  0  0  0  0
   14.2701   -0.0161   22.0127 C   0  0  0  0  0  0  0  0  0  0  0  0
   15.1916    0.5582   21.9455 H   0  0  0  0  0  0  0  0  0  0  0  0
   14.0234   -1.1143   21.1344 C   0  0  0  0  0  0  0  0  0  0  0  0
   14.7815   -1.4270   20.4264 H   0  0  0  0  0  0  0  0  0  0  0  0
   12.7882   -1.7180   21.1078 C   0  0  0  0  0  0  0  0  0  0  0  0
   12.5904   -2.4822   20.3641 H   0  0  0  0  0  0  0  0  0  0  0  0
   11.7775   -1.3406   22.0428 C   0  0  0  0  0  0  0  0  0  0  0  0
   10.5134   -2.0014   22.1151 C   0  0  0  0  0  0  0  0  0  0  0  0
   10.2534   -2.7427   21.3650 H   0  0  0  0  0  0  0  0  0  0  0  0
    7.1135   -1.5030   21.4275 N   0  0  0  0  0  0  0  0  0  0  0  0
    6.6710   -2.2390   20.8788 H   0  0  0  0  0  0  0  0  0  0  0  0
    4.9826    1.0431   19.8163 C   0  0  0  0  0  0  0  0  0  0  0  0
    4.3031    1.2386   20.6482 H   0  0  0  0  0  0  0  0  0  0  0  0
    4.7436    1.5671   18.5480 C   0  0  0  0  0  0  0  0  0  0  0  0
    3.8939    2.2089   18.3494 H   0  0  0  0  0  0  0  0  0  0  0  0
  1  2  1  0
  2  3  2  0
  3  4  1  0
  4  5  1  0
  4  6  2  0
  6  7  1  0
  7  8  2  0
  8  9  1  0
  8 10  1  0
 10 11  2  0
 10 12  1  0
 12 13  1  0
 13 14  1  0
 13 15  1  0
 13 16  1  0
 16 17  2  0
 17 18  1  0
 17 19  1  0
 19 20  1  0
 19 21  2  0
 21 22  1  0
 22 23  1  0
 22 24  2  0
 24 25  1  0
 24 26  1  0
 26 27  1  0
 26 28  2  0
 28 29  1  0
 28 30  1  0
 30 31  2  0
 31 32  1  0
 12 33  1  0
 33 34  1  0
  6 35  1  0
 35 36  1  0
 35 37  2  0
 37 38  1  0
 37  2  1  0
 33  7  1  0
 31 16  1  0
 30 21  1  0
M  END
>  <plip>  (1) 
-0.10714285714285714

>  <filename>  (1) 
[H][c]1[n][c]([H])[c](-[c]2[c]([H])[c](=[O])[n]([C]([H])([H])[c]3[c]([H])[c]([H])[c]4[c]([H])[c]([H])[c]([H])[c]([H])[c]4[c]3[H])[n]2[H])[c]([H])[c]1[H]

$$$$
