
     RDKit          3D

 33 35  0  0  0  0  0  0  0  0999 V2000
    4.8990    1.7868   16.9857 H   0  0  0  0  0  0  0  0  0  0  0  0
    5.3849    1.3116   17.8185 C   0  0  0  0  0  0  0  0  0  0  0  0
    6.5509    0.7106   17.5227 N   0  0  0  0  0  0  0  0  0  0  0  0
    7.1708    0.1164   18.5447 C   0  0  0  0  0  0  0  0  0  0  0  0
    8.1155   -0.4071   18.3527 H   0  0  0  0  0  0  0  0  0  0  0  0
    6.6239    0.1452   19.8517 C   0  0  0  0  0  0  0  0  0  0  0  0
    7.3200   -0.6928   20.8958 N   0  0  0  0  0  0  0  0  0  0  0  0
    7.5448   -0.2953   22.2153 C   0  0  0  0  0  0  0  0  0  0  0  0
    7.1830    0.9885   22.7460 N   0  0  0  0  0  0  0  0  0  0  0  0
    6.4777    1.1495   23.9967 C   0  0  0  0  0  0  0  0  0  0  0  0
    6.6990    2.1767   24.9424 C   0  0  0  0  0  0  0  0  0  0  0  0
    7.4697    2.9058   24.7205 H   0  0  0  0  0  0  0  0  0  0  0  0
    5.9681    2.1907   26.1381 C   0  0  0  0  0  0  0  0  0  0  0  0
    6.1658    2.9833   26.8422 H   0  0  0  0  0  0  0  0  0  0  0  0
    4.9882    1.2241   26.4131 C   0  0  0  0  0  0  0  0  0  0  0  0
    4.4391    1.2570   27.3620 H   0  0  0  0  0  0  0  0  0  0  0  0
    4.7723    0.1918   25.4856 C   0  0  0  0  0  0  0  0  0  0  0  0
    4.0225   -0.5872   25.7192 H   0  0  0  0  0  0  0  0  0  0  0  0
    5.6143    0.1158   24.3582 C   0  0  0  0  0  0  0  0  0  0  0  0
    5.7530   -0.7804   23.7654 H   0  0  0  0  0  0  0  0  0  0  0  0
    7.7553    2.2077   22.1570 C   0  0  0  0  0  0  0  0  0  0  0  0
    8.0058    2.0305   21.1090 H   0  0  0  0  0  0  0  0  0  0  0  0
    7.0266    3.0233   22.1890 H   0  0  0  0  0  0  0  0  0  0  0  0
    8.6709    2.5240   22.6756 H   0  0  0  0  0  0  0  0  0  0  0  0
    8.2455   -1.3231   22.9402 C   0  0  0  0  0  0  0  0  0  0  0  0
    8.4838   -1.2472   24.0216 H   0  0  0  0  0  0  0  0  0  0  0  0
    8.5991   -2.4205   22.4103 O   0  0  0  0  0  0  0  0  0  0  0  0
    7.6769   -2.0858   20.7030 C   0  0  0  0  0  0  0  0  0  0  0  0
    7.6769   -2.0857   20.7030 O   0  0  0  0  0  0  0  0  0  0  0  0
    5.4098    0.6934   20.1482 C   0  0  0  0  0  0  0  0  0  0  0  0
    4.9967    0.6361   21.1702 H   0  0  0  0  0  0  0  0  0  0  0  0
    4.7747    1.3335   19.0858 C   0  0  0  0  0  0  0  0  0  0  0  0
    3.8450    1.8598   19.2539 H   0  0  0  0  0  0  0  0  0  0  0  0
  1  2  1  0
  2  3  2  0
  3  4  1  0
  4  5  1  0
  4  6  2  0
  6  7  1  0
  7  8  1  0
  8  9  1  0
  9 10  1  0
 10 11  2  0
 11 12  1  0
 11 13  1  0
 13 14  1  0
 13 15  2  0
 15 16  1  0
 15 17  1  0
 17 18  1  0
 17 19  2  0
 19 20  1  0
  9 21  1  0
 21 22  1  0
 21 23  1  0
 21 24  1  0
  8 25  2  0
 25 26  1  0
 25 27  1  0
 27 28  1  0
 28 29  2  0
  6 30  1  0
 30 31  1  0
 30 32  2  0
 32 33  1  0
 32  2  1  0
 28  7  1  0
 19 10  1  0
M  END
>  <plip>  (1) 
-0.0

>  <filename>  (1) 
[H][c]1[n][c]([H])[c](-[n]2[c]([N]([c]3[c]([H])[c]([H])[c]([H])[c]([H])[c]3[H])[C]([H])([H])[H])[c]([H])[o][c]2=[O])[c]([H])[c]1[H]

$$$$
