
     RDKit          3D

 37 38  0  0  0  0  0  0  0  0999 V2000
    7.3456    5.0489   23.3285 H   0  0  0  0  0  0  0  0  0  0  0  0
    7.1273    4.2618   22.8173 O   0  0  0  0  0  0  0  0  0  0  0  0
    7.9813    3.1985   23.2353 C   0  0  2  0  0  0  0  0  0  0  0  0
    9.0383    3.4989   23.1583 H   0  0  0  0  0  0  0  0  0  0  0  0
    7.7348    2.0249   22.2796 C   0  0  0  0  0  0  0  0  0  0  0  0
    7.9826    2.3414   21.2633 H   0  0  0  0  0  0  0  0  0  0  0  0
    6.6527    1.8260   22.2848 H   0  0  0  0  0  0  0  0  0  0  0  0
    8.5133    0.8395   22.6586 N   0  0  0  0  0  0  0  0  0  0  0  0
    8.6343   -0.2161   21.6444 C   0  0  2  0  0  0  0  0  0  0  0  0
    9.0959   -1.0643   22.1670 H   0  0  0  0  0  0  0  0  0  0  0  0
    9.6380    0.2349   20.5871 C   0  0  0  0  0  0  0  0  0  0  0  0
   10.5339    0.6474   21.0600 H   0  0  0  0  0  0  0  0  0  0  0  0
    9.9349   -0.6053   19.9502 H   0  0  0  0  0  0  0  0  0  0  0  0
    9.2044    1.0157   19.9603 H   0  0  0  0  0  0  0  0  0  0  0  0
    7.3057   -0.8340   21.0348 C   0  0  2  0  0  0  0  0  0  0  0  0
    6.6132   -0.9452   21.8807 H   0  0  0  0  0  0  0  0  0  0  0  0
    7.5734   -2.1635   20.5963 O   0  0  0  0  0  0  0  0  0  0  0  0
    8.0241   -2.0934   19.7445 H   0  0  0  0  0  0  0  0  0  0  0  0
    6.6121   -0.0557   19.9201 C   0  0  0  0  0  0  0  0  0  0  0  0
    7.1240   -0.0401   18.6068 C   0  0  0  0  0  0  0  0  0  0  0  0
    8.0695   -0.5387   18.3643 H   0  0  0  0  0  0  0  0  0  0  0  0
    6.5560    0.6034   17.5794 N   0  0  0  0  0  0  0  0  0  0  0  0
    5.4184    1.2733   17.8181 C   0  0  0  0  0  0  0  0  0  0  0  0
    4.9795    1.8051   16.9794 H   0  0  0  0  0  0  0  0  0  0  0  0
    4.8029    1.3041   19.0696 C   0  0  0  0  0  0  0  0  0  0  0  0
    3.8808    1.8555   19.2017 H   0  0  0  0  0  0  0  0  0  0  0  0
    5.4153    0.6433   20.1347 C   0  0  0  0  0  0  0  0  0  0  0  0
    4.9639    0.6793   21.1297 H   0  0  0  0  0  0  0  0  0  0  0  0
    8.1697    0.3623   23.9960 C   0  0  0  0  0  0  0  0  0  0  0  0
    7.1192    0.0061   24.0570 H   0  0  0  0  0  0  0  0  0  0  0  0
    8.8107   -0.4946   24.2369 H   0  0  0  0  0  0  0  0  0  0  0  0
    8.4235    1.4589   25.0283 C   0  0  0  0  0  0  0  0  0  0  0  0
    8.1508    1.0877   26.0239 H   0  0  0  0  0  0  0  0  0  0  0  0
    9.5009    1.6602   25.0508 H   0  0  0  0  0  0  0  0  0  0  0  0
    7.6703    2.7470   24.6724 C   0  0  0  0  0  0  0  0  0  0  0  0
    7.9088    3.5430   25.3843 H   0  0  0  0  0  0  0  0  0  0  0  0
    6.5877    2.5746   24.7375 H   0  0  0  0  0  0  0  0  0  0  0  0
  1  2  1  0
  2  3  1  0
  3  4  1  1
  3  5  1  0
  5  6  1  0
  5  7  1  0
  5  8  1  0
  8  9  1  0
  9 10  1  1
  9 11  1  0
 11 12  1  0
 11 13  1  0
 11 14  1  0
  9 15  1  0
 15 16  1  1
 15 17  1  0
 17 18  1  0
 15 19  1  0
 19 20  2  0
 20 21  1  0
 20 22  1  0
 22 23  2  0
 23 24  1  0
 23 25  1  0
 25 26  1  0
 25 27  2  0
 27 28  1  0
  8 29  1  0
 29 30  1  0
 29 31  1  0
 29 32  1  0
 32 33  1  0
 32 34  1  0
 32 35  1  0
 35 36  1  0
 35 37  1  0
 35  3  1  0
 27 19  1  0
M  END
>  <plip>  (1) 
-0.034482758620689655

>  <filename>  (1) 
[H][O][C@]1([H])[C]([H])([H])[N]([C@]([H])([C]([H])([H])[H])[C@]([H])([O][H])[c]2[c]([H])[n][c]([H])[c]([H])[c]2[H])[C]([H])([H])[C]([H])([H])[C]1([H])[H]

$$$$
