
     RDKit          3D

 16 16  0  0  0  0  0  0  0  0999 V2000
    6.9108    1.9593   24.1537 H   0  0  0  0  0  0  0  0  0  0  0  0
    7.1947    1.0410   24.0167 O   0  0  0  0  0  0  0  0  0  0  0  0
    7.0449    0.8856   22.6380 N   0  0  0  0  0  0  0  0  0  0  0  0
    7.3770   -0.2722   22.2381 C   0  0  0  0  0  0  0  0  0  0  0  0
    7.7468   -1.0739   22.8725 H   0  0  0  0  0  0  0  0  0  0  0  0
    7.3503   -0.6574   20.9321 O   0  0  0  0  0  0  0  0  0  0  0  0
    6.6655    0.0309   19.9331 C   0  0  0  0  0  0  0  0  0  0  0  0
    7.1857    0.0525   18.6225 C   0  0  0  0  0  0  0  0  0  0  0  0
    8.1304   -0.4413   18.3907 H   0  0  0  0  0  0  0  0  0  0  0  0
    6.5720    0.6677   17.6013 N   0  0  0  0  0  0  0  0  0  0  0  0
    5.4034    1.2879   17.8438 C   0  0  0  0  0  0  0  0  0  0  0  0
    4.9173    1.7782   16.9981 H   0  0  0  0  0  0  0  0  0  0  0  0
    4.8089    1.2989   19.1059 C   0  0  0  0  0  0  0  0  0  0  0  0
    3.8800    1.8366   19.2595 H   0  0  0  0  0  0  0  0  0  0  0  0
    5.4371    0.6482   20.1725 C   0  0  0  0  0  0  0  0  0  0  0  0
    5.0107    0.6305   21.1736 H   0  0  0  0  0  0  0  0  0  0  0  0
  1  2  1  0
  2  3  1  0
  3  4  2  3
  4  5  1  0
  4  6  1  0
  6  7  1  0
  7  8  2  0
  8  9  1  0
  8 10  1  0
 10 11  2  0
 11 12  1  0
 11 13  1  0
 13 14  1  0
 13 15  2  0
 15 16  1  0
 15  7  1  0
M  END
>  <plip>  (1) 
-0.0

>  <filename>  (1) 
[H][O][N]=[C]([H])[O][c]1[c]([H])[n][c]([H])[c]([H])[c]1[H]

$$$$
