
     RDKit          3D

 25 26  0  0  0  0  0  0  0  0999 V2000
    4.9414    1.8177   16.9820 H   0  0  0  0  0  0  0  0  0  0  0  0
    5.4026    1.2972   17.8185 C   0  0  0  0  0  0  0  0  0  0  0  0
    6.5601    0.6699   17.5567 N   0  0  0  0  0  0  0  0  0  0  0  0
    7.1738    0.0534   18.5736 C   0  0  0  0  0  0  0  0  0  0  0  0
    8.1175   -0.4357   18.3333 H   0  0  0  0  0  0  0  0  0  0  0  0
    6.6698    0.0171   19.8948 C   0  0  0  0  0  0  0  0  0  0  0  0
    7.3930   -0.6619   20.9383 C   0  0  0  0  0  0  0  0  0  0  0  0
    8.0117   -1.2584   21.7915 C   0  0  0  0  0  0  0  0  0  0  0  0
    8.6439   -2.0537   23.1823 S   0  0  0  0  0  0  0  0  0  0  0  0
    7.3985   -3.1182   23.6012 N   0  0  0  0  0  0  0  0  0  0  0  0
    6.6450   -2.6632   24.0994 H   0  0  0  0  0  0  0  0  0  0  0  0
    7.0284   -4.3027   22.9118 C   0  0  0  0  0  0  0  0  0  0  0  0
    7.7821   -4.9326   21.8894 C   0  0  0  0  0  0  0  0  0  0  0  0
    8.6468   -4.4240   21.4613 H   0  0  0  0  0  0  0  0  0  0  0  0
    7.4911   -6.1539   21.4148 N   0  0  0  0  0  0  0  0  0  0  0  0
    6.4123   -6.7921   21.8934 C   0  0  0  0  0  0  0  0  0  0  0  0
    6.2837   -7.8191   21.5685 H   0  0  0  0  0  0  0  0  0  0  0  0
    5.5207   -6.1997   22.7882 C   0  0  0  0  0  0  0  0  0  0  0  0
    4.6085   -6.7151   23.0760 H   0  0  0  0  0  0  0  0  0  0  0  0
    5.8457   -4.9456   23.3083 C   0  0  0  0  0  0  0  0  0  0  0  0
    5.2176   -4.4479   24.0435 H   0  0  0  0  0  0  0  0  0  0  0  0
    5.4388    0.6587   20.1349 C   0  0  0  0  0  0  0  0  0  0  0  0
    4.9982    0.6577   21.1313 H   0  0  0  0  0  0  0  0  0  0  0  0
    4.7991    1.3088   19.0793 C   0  0  0  0  0  0  0  0  0  0  0  0
    3.8650    1.8430   19.2182 H   0  0  0  0  0  0  0  0  0  0  0  0
  1  2  1  0
  2  3  2  0
  3  4  1  0
  4  5  1  0
  4  6  2  0
  6  7  1  0
  7  8  3  0
  8  9  1  0
  9 10  1  0
 10 11  1  0
 10 12  1  0
 12 13  2  0
 13 14  1  0
 13 15  1  0
 15 16  2  0
 16 17  1  0
 16 18  1  0
 18 19  1  0
 18 20  2  0
 20 21  1  0
  6 22  1  0
 22 23  1  0
 22 24  2  0
 24 25  1  0
 24  2  1  0
 20 12  1  0
M  END
>  <plip>  (1) 
-0.06896551724137931

>  <filename>  (1) 
[H][c]1[n][c]([H])[c]([C]#[C][S][N]([H])[c]2[c]([H])[n][c]([H])[c]([H])[c]2[H])[c]([H])[c]1[H]

$$$$
