
     RDKit          3D

 30 32  0  0  0  0  0  0  0  0999 V2000
    4.9216    1.7923   16.9886 H   0  0  0  0  0  0  0  0  0  0  0  0
    5.3997    1.2965   17.8303 C   0  0  0  0  0  0  0  0  0  0  0  0
    6.5608    0.6767   17.5704 N   0  0  0  0  0  0  0  0  0  0  0  0
    7.1561    0.0497   18.5876 C   0  0  0  0  0  0  0  0  0  0  0  0
    8.1137   -0.4241   18.3700 H   0  0  0  0  0  0  0  0  0  0  0  0
    6.6478    0.0041   19.9012 C   0  0  0  0  0  0  0  0  0  0  0  0
    7.3514   -0.7083   20.9677 C   0  0  0  0  0  0  0  0  0  0  0  0
    7.5987   -0.2433   22.2232 C   0  0  0  0  0  0  0  0  0  0  0  0
    7.3148    1.1111   22.7189 C   0  0  0  0  0  0  0  0  0  0  0  0
    7.6426    2.2815   21.9870 C   0  0  0  0  0  0  0  0  0  0  0  0
    8.1184    2.1993   21.0122 H   0  0  0  0  0  0  0  0  0  0  0  0
    7.4143    3.5216   22.4288 N   0  0  0  0  0  0  0  0  0  0  0  0
    6.8251    3.6539   23.6224 C   0  0  0  0  0  0  0  0  0  0  0  0
    6.6366    4.6617   23.9831 H   0  0  0  0  0  0  0  0  0  0  0  0
    6.4600    2.5521   24.4087 C   0  0  0  0  0  0  0  0  0  0  0  0
    5.8837    2.7558   25.6001 F   0  0  0  0  0  0  0  0  0  0  0  0
    6.7054    1.2616   23.9749 C   0  0  0  0  0  0  0  0  0  0  0  0
    6.4400    0.3959   24.5857 H   0  0  0  0  0  0  0  0  0  0  0  0
    8.2303   -1.3186   23.0452 C   0  0  0  0  0  0  0  0  0  0  0  0
    8.5862   -1.2650   24.2006 O   0  0  0  0  0  0  0  0  0  0  0  0
    8.3877   -2.5491   22.1548 C   0  0  0  0  0  0  0  0  0  0  0  0
    9.4431   -2.8405   22.1346 H   0  0  0  0  0  0  0  0  0  0  0  0
    7.8358   -3.3824   22.5988 H   0  0  0  0  0  0  0  0  0  0  0  0
    7.8597   -2.1091   20.7835 C   0  0  0  0  0  0  0  0  0  0  0  0
    7.0642   -2.7617   20.3896 H   0  0  0  0  0  0  0  0  0  0  0  0
    8.6817   -2.0469   20.0630 H   0  0  0  0  0  0  0  0  0  0  0  0
    5.4288    0.6575   20.1518 C   0  0  0  0  0  0  0  0  0  0  0  0
    5.0122    0.6474   21.1622 H   0  0  0  0  0  0  0  0  0  0  0  0
    4.8026    1.3118   19.0955 C   0  0  0  0  0  0  0  0  0  0  0  0
    3.8743    1.8445   19.2466 H   0  0  0  0  0  0  0  0  0  0  0  0
  1  2  1  0
  2  3  2  0
  3  4  1  0
  4  5  1  0
  4  6  2  0
  6  7  1  0
  7  8  2  0
  8  9  1  0
  9 10  2  0
 10 11  1  0
 10 12  1  0
 12 13  2  0
 13 14  1  0
 13 15  1  0
 15 16  1  0
 15 17  2  0
 17 18  1  0
  8 19  1  0
 19 20  2  0
 19 21  1  0
 21 22  1  0
 21 23  1  0
 21 24  1  0
 24 25  1  0
 24 26  1  0
  6 27  1  0
 27 28  1  0
 27 29  2  0
 29 30  1  0
 29  2  1  0
 24  7  1  0
 17  9  1  0
M  END
>  <plip>  (1) 
-0.03571428571428571

>  <filename>  (1) 
[H][c]1[n][c]([H])[c]([C]2=[C]([c]3[c]([H])[n][c]([H])[c]([F])[c]3[H])[C](=[O])[C]([H])([H])[C]2([H])[H])[c]([H])[c]1[H]

$$$$
