
     RDKit          3D

 39 41  0  0  0  0  0  0  0  0999 V2000
    4.9192    1.7909   16.9834 H   0  0  0  0  0  0  0  0  0  0  0  0
    5.3938    1.3015   17.8300 C   0  0  0  0  0  0  0  0  0  0  0  0
    6.5577    0.6858   17.5724 N   0  0  0  0  0  0  0  0  0  0  0  0
    7.1549    0.0689   18.5995 C   0  0  0  0  0  0  0  0  0  0  0  0
    8.1010   -0.4157   18.3693 H   0  0  0  0  0  0  0  0  0  0  0  0
    6.6290    0.0015   19.9024 C   0  0  0  0  0  0  0  0  0  0  0  0
    7.3829   -0.7158   21.0031 C   0  0  0  0  0  0  0  0  0  0  0  0
    7.6120   -1.7401   20.6754 H   0  0  0  0  0  0  0  0  0  0  0  0
    6.7565   -0.7996   21.9009 H   0  0  0  0  0  0  0  0  0  0  0  0
    8.6907   -0.0552   21.3193 C   0  0  0  0  0  0  0  0  0  0  0  0
    9.9486   -0.4784   20.9843 C   0  0  0  0  0  0  0  0  0  0  0  0
   10.1311   -1.4018   20.4476 H   0  0  0  0  0  0  0  0  0  0  0  0
   10.8815    0.4914   21.4400 C   0  0  0  0  0  0  0  0  0  0  0  0
   11.9564    0.4413   21.3443 H   0  0  0  0  0  0  0  0  0  0  0  0
   10.1546    1.4930   22.0299 C   0  0  0  0  0  0  0  0  0  0  0  0
   10.4735    2.3963   22.5381 H   0  0  0  0  0  0  0  0  0  0  0  0
    8.8079    1.1745   21.9413 N   0  0  0  0  0  0  0  0  0  0  0  0
    7.7138    1.9925   22.4441 C   0  0  0  0  0  0  0  0  0  0  0  0
    8.1797    2.8488   22.9488 H   0  0  0  0  0  0  0  0  0  0  0  0
    7.1015    2.3513   21.6155 H   0  0  0  0  0  0  0  0  0  0  0  0
    6.8566    1.3293   23.3310 O   0  0  0  0  0  0  0  0  0  0  0  0
    7.4445    1.1148   24.6233 C   0  0  0  0  0  0  0  0  0  0  0  0
    7.4614    2.0685   25.1752 H   0  0  0  0  0  0  0  0  0  0  0  0
    8.4874    0.7774   24.5111 H   0  0  0  0  0  0  0  0  0  0  0  0
    6.6343    0.0768   25.3620 C   0  0  0  0  0  0  0  0  0  0  0  0
    5.6390    0.4617   26.2711 C   0  0  0  0  0  0  0  0  0  0  0  0
    5.4604    1.5222   26.4478 H   0  0  0  0  0  0  0  0  0  0  0  0
    4.8749   -0.5001   26.9416 C   0  0  0  0  0  0  0  0  0  0  0  0
    4.1063   -0.1834   27.6442 H   0  0  0  0  0  0  0  0  0  0  0  0
    5.1046   -1.8603   26.7061 C   0  0  0  0  0  0  0  0  0  0  0  0
    4.5140   -2.6089   27.2288 H   0  0  0  0  0  0  0  0  0  0  0  0
    6.0933   -2.2587   25.7980 C   0  0  0  0  0  0  0  0  0  0  0  0
    6.2741   -3.3149   25.6068 H   0  0  0  0  0  0  0  0  0  0  0  0
    6.8521   -1.2912   25.1308 C   0  0  0  0  0  0  0  0  0  0  0  0
    7.6185   -1.5960   24.4175 H   0  0  0  0  0  0  0  0  0  0  0  0
    5.4211    0.6554   20.1498 C   0  0  0  0  0  0  0  0  0  0  0  0
    5.0158    0.6521   21.1689 H   0  0  0  0  0  0  0  0  0  0  0  0
    4.7915    1.3216   19.0932 C   0  0  0  0  0  0  0  0  0  0  0  0
    3.8621    1.8529   19.2448 H   0  0  0  0  0  0  0  0  0  0  0  0
  1  2  1  0
  2  3  2  0
  3  4  1  0
  4  5  1  0
  4  6  2  0
  6  7  1  0
  7  8  1  0
  7  9  1  0
  7 10  1  0
 10 11  2  0
 11 12  1  0
 11 13  1  0
 13 14  1  0
 13 15  2  0
 15 16  1  0
 15 17  1  0
 17 18  1  0
 18 19  1  0
 18 20  1  0
 18 21  1  0
 21 22  1  0
 22 23  1  0
 22 24  1  0
 22 25  1  0
 25 26  2  0
 26 27  1  0
 26 28  1  0
 28 29  1  0
 28 30  2  0
 30 31  1  0
 30 32  1  0
 32 33  1  0
 32 34  2  0
 34 35  1  0
  6 36  1  0
 36 37  1  0
 36 38  2  0
 38 39  1  0
 38  2  1  0
 17 10  1  0
 34 25  1  0
M  END
>  <plip>  (1) 
-0.07142857142857142

>  <filename>  (1) 
[H][c]1[n][c]([H])[c]([C]([H])([H])[c]2[c]([H])[c]([H])[c]([H])[n]2[C]([H])([H])[O][C]([H])([H])[c]2[c]([H])[c]([H])[c]([H])[c]([H])[c]2[H])[c]([H])[c]1[H]

$$$$
