
     RDKit          3D

 33 35  0  0  0  0  0  0  0  0999 V2000
    7.6297   -1.4373   24.5958 C   0  0  0  0  0  0  0  0  0  0  0  0
    6.8378   -0.3798   23.8432 C   0  0  1  0  0  0  0  0  0  0  0  0
    6.5177    0.8907   24.6594 C   0  0  0  0  0  0  0  0  0  0  0  0
    7.1701    2.0217   23.8967 C   0  0  0  0  0  0  0  0  0  0  0  0
    7.2679    3.3803   24.2095 C   0  0  0  0  0  0  0  0  0  0  0  0
    7.8296    4.2553   23.2738 C   0  0  0  0  0  0  0  0  0  0  0  0
    8.2708    3.7629   22.0367 C   0  0  0  0  0  0  0  0  0  0  0  0
    8.2720    2.3898   21.7594 C   0  0  0  0  0  0  0  0  0  0  0  0
    7.7036    1.5329   22.7011 C   0  0  0  0  0  0  0  0  0  0  0  0
    7.5231    0.1406   22.6492 N   0  0  0  0  0  0  0  0  0  0  0  0
    7.5899   -0.7501   21.2752 S   0  0  0  0  0  0  0  0  0  0  0  0
    6.9104   -2.0056   21.5485 O   0  0  0  0  0  0  0  0  0  0  0  0
    8.9643   -0.7191   20.8052 O   0  0  0  0  0  0  0  0  0  0  0  0
    6.6121    0.1131   20.0965 C   0  0  0  0  0  0  0  0  0  0  0  0
    5.3740    0.7410   20.2766 C   0  0  0  0  0  0  0  0  0  0  0  0
    4.8018    1.3222   19.1430 C   0  0  0  0  0  0  0  0  0  0  0  0
    5.4701    1.2447   17.9172 C   0  0  0  0  0  0  0  0  0  0  0  0
    6.6367    0.6032   17.7607 N   0  0  0  0  0  0  0  0  0  0  0  0
    7.1871    0.0469   18.8351 C   0  0  0  0  0  0  0  0  0  0  0  0
    8.1281   -0.4777   18.6850 H   0  0  0  0  0  0  0  0  0  0  0  0
    5.0549    1.7072   17.0209 H   0  0  0  0  0  0  0  0  0  0  0  0
    3.8518    1.8422   19.1879 H   0  0  0  0  0  0  0  0  0  0  0  0
    4.8514    0.7986   21.2351 H   0  0  0  0  0  0  0  0  0  0  0  0
    8.7076    1.9829   20.8543 H   0  0  0  0  0  0  0  0  0  0  0  0
    8.5593    4.4663   21.2683 H   0  0  0  0  0  0  0  0  0  0  0  0
    7.9328    5.3164   23.5007 H   0  0  0  0  0  0  0  0  0  0  0  0
    6.8878    3.7569   25.1577 H   0  0  0  0  0  0  0  0  0  0  0  0
    6.8873    0.8305   25.6872 H   0  0  0  0  0  0  0  0  0  0  0  0
    5.4342    1.0327   24.7384 H   0  0  0  0  0  0  0  0  0  0  0  0
    5.9355   -0.8666   23.4933 H   0  0  0  0  0  0  0  0  0  0  0  0
    7.7269   -2.3204   23.9634 H   0  0  0  0  0  0  0  0  0  0  0  0
    7.0565   -1.7221   25.4867 H   0  0  0  0  0  0  0  0  0  0  0  0
    8.6201   -1.0775   24.8923 H   0  0  0  0  0  0  0  0  0  0  0  0
  1  2  1  0
  2  3  1  0
  3  4  1  0
  4  5  2  0
  5  6  1  0
  6  7  2  0
  7  8  1  0
  8  9  2  0
  9 10  1  0
 10 11  1  0
 11 12  2  0
 11 13  2  0
 11 14  1  0
 14 15  2  0
 15 16  1  0
 16 17  2  0
 17 18  1  0
 18 19  2  0
 19 20  1  0
 17 21  1  0
 16 22  1  0
 15 23  1  0
  8 24  1  0
  7 25  1  0
  6 26  1  0
  5 27  1  0
  3 28  1  0
  3 29  1  0
  2 30  1  6
  1 31  1  0
  1 32  1  0
  1 33  1  0
 10  2  1  0
 19 14  1  0
  9  4  1  0
M  END
>  <plip>  (1) 
-0.07142857142857142

>  <filename>  (1) 
[H][c]1[n][c]([H])[c]([S](=[O])(=[O])[N]2[c]3[c]([H])[c]([H])[c]([H])[c]([H])[c]3[C]([H])([H])[C@]2([H])[C]([H])([H])[H])[c]([H])[c]1[H]

$$$$
