
     RDKit          3D

 33 34  0  0  0  0  0  0  0  0999 V2000
    6.5066   -3.2074   20.7365 C   0  0  0  0  0  0  0  0  0  0  0  0
    6.5235   -2.1754   21.7700 N   0  0  0  0  0  0  0  0  0  0  0  0
    6.8590   -2.6885   23.1012 C   0  0  0  0  0  0  0  0  0  0  0  0
    8.3183   -3.1649   23.2110 C   0  0  0  0  0  0  0  0  0  0  0  0
    8.5769   -3.8261   24.5278 C   0  0  0  0  0  0  0  0  0  0  0  0
    8.7986   -3.0755   25.7085 C   0  0  0  0  0  0  0  0  0  0  0  0
    8.9166   -3.6515   26.9190 N   0  0  0  0  0  0  0  0  0  0  0  0
    8.8338   -4.9959   26.9374 C   0  0  0  0  0  0  0  0  0  0  0  0
    8.6430   -5.7542   25.7686 C   0  0  0  0  0  0  0  0  0  0  0  0
    8.5003   -5.1733   24.5614 N   0  0  0  0  0  0  0  0  0  0  0  0
    8.5940   -6.8426   25.8112 H   0  0  0  0  0  0  0  0  0  0  0  0
    8.9047   -5.4793   27.9063 H   0  0  0  0  0  0  0  0  0  0  0  0
    8.8613   -1.9883   25.6618 H   0  0  0  0  0  0  0  0  0  0  0  0
    8.5144   -3.9058   22.4282 H   0  0  0  0  0  0  0  0  0  0  0  0
    8.9902   -2.3129   23.0451 H   0  0  0  0  0  0  0  0  0  0  0  0
    6.1608   -3.5131   23.3076 H   0  0  0  0  0  0  0  0  0  0  0  0
    6.6530   -1.8994   23.8323 H   0  0  0  0  0  0  0  0  0  0  0  0
    7.4421   -0.8130   21.4084 S   0  0  0  0  0  0  0  0  0  0  0  0
    8.7135   -1.2561   20.8548 O   0  0  0  0  0  0  0  0  0  0  0  0
    7.4024    0.0559   22.5665 O   0  0  0  0  0  0  0  0  0  0  0  0
    6.5245   -0.0874   20.1346 C   0  0  0  0  0  0  0  0  0  0  0  0
    5.3186    0.6016   20.3152 C   0  0  0  0  0  0  0  0  0  0  0  0
    4.8143    1.2335   19.1815 C   0  0  0  0  0  0  0  0  0  0  0  0
    5.5081    1.1416   17.9703 C   0  0  0  0  0  0  0  0  0  0  0  0
    6.6432    0.4442   17.8254 N   0  0  0  0  0  0  0  0  0  0  0  0
    7.1387   -0.1661   18.8950 C   0  0  0  0  0  0  0  0  0  0  0  0
    8.0601   -0.7260   18.7481 H   0  0  0  0  0  0  0  0  0  0  0  0
    5.1389    1.6429   17.0782 H   0  0  0  0  0  0  0  0  0  0  0  0
    3.8972    1.8097   19.2113 H   0  0  0  0  0  0  0  0  0  0  0  0
    4.7801    0.6627   21.2657 H   0  0  0  0  0  0  0  0  0  0  0  0
    7.4574   -3.7459   20.6209 H   0  0  0  0  0  0  0  0  0  0  0  0
    5.7546   -3.9539   21.0012 H   0  0  0  0  0  0  0  0  0  0  0  0
    6.2034   -2.7789   19.7832 H   0  0  0  0  0  0  0  0  0  0  0  0
  1  2  1  0
  2  3  1  0
  3  4  1  0
  4  5  1  0
  5  6  2  0
  6  7  1  0
  7  8  2  0
  8  9  1  0
  9 10  2  0
  9 11  1  0
  8 12  1  0
  6 13  1  0
  4 14  1  0
  4 15  1  0
  3 16  1  0
  3 17  1  0
  2 18  1  0
 18 19  2  0
 18 20  2  0
 18 21  1  0
 21 22  2  0
 22 23  1  0
 23 24  2  0
 24 25  1  0
 25 26  2  0
 26 27  1  0
 24 28  1  0
 23 29  1  0
 22 30  1  0
  1 31  1  0
  1 32  1  0
  1 33  1  0
 10  5  1  0
 26 21  1  0
M  END
>  <plip>  (1) 
-0.0

>  <filename>  (1) 
[H][c]1[n][c]([H])[c]([C]([H])([H])[C]([H])([H])[N]([C]([H])([H])[H])[S](=[O])(=[O])[c]2[c]([H])[n][c]([H])[c]([H])[c]2[H])[n][c]1[H]

$$$$
