
     RDKit          3D

 42 45  0  0  0  0  0  0  0  0999 V2000
    8.2549    0.7182   24.4334 C   0  0  0  0  0  0  0  0  0  0  0  0
    7.4392    0.3864   23.1743 C   0  0  0  0  0  0  0  0  0  0  0  0
    8.2529    0.3054   21.8819 C   0  0  0  0  0  0  0  0  0  0  0  0
    7.4728   -0.6515   20.9747 C   0  0  0  0  0  0  0  0  0  0  0  0
    6.6670    0.0451   19.9003 C   0  0  0  0  0  0  0  0  0  0  0  0
    5.4504    0.6914   20.1447 C   0  0  0  0  0  0  0  0  0  0  0  0
    4.8245    1.3224   19.0693 C   0  0  0  0  0  0  0  0  0  0  0  0
    5.4161    1.3056   17.8035 C   0  0  0  0  0  0  0  0  0  0  0  0
    6.5752    0.6713   17.5641 N   0  0  0  0  0  0  0  0  0  0  0  0
    7.1773    0.0531   18.5938 C   0  0  0  0  0  0  0  0  0  0  0  0
    8.1170   -0.4544   18.3944 H   0  0  0  0  0  0  0  0  0  0  0  0
    4.9194    1.8148   16.9834 H   0  0  0  0  0  0  0  0  0  0  0  0
    3.8873    1.8450   19.2017 H   0  0  0  0  0  0  0  0  0  0  0  0
    5.0144    0.7078   21.1426 H   0  0  0  0  0  0  0  0  0  0  0  0
    6.6377   -1.4009   21.9025 N   0  0  0  0  0  0  0  0  0  0  0  0
    5.8893   -2.4931   21.4671 C   0  0  0  0  0  0  0  0  0  0  0  0
    5.7588   -2.6801   20.2596 O   0  0  0  0  0  0  0  0  0  0  0  0
    5.3276   -3.5199   22.3635 C   0  0  0  0  0  0  0  0  0  0  0  0
    6.0552   -4.2533   23.2716 C   0  0  0  0  0  0  0  0  0  0  0  0
    7.9383   -4.0661   23.5584 Br  0  0  0  0  0  0  0  0  0  0  0  0
    5.1514   -5.2026   23.9104 C   0  0  0  0  0  0  0  0  0  0  0  0
    5.3276   -6.1548   24.9177 C   0  0  0  0  0  0  0  0  0  0  0  0
    4.2247   -6.9030   25.3547 C   0  0  0  0  0  0  0  0  0  0  0  0
    2.9601   -6.7007   24.7853 C   0  0  0  0  0  0  0  0  0  0  0  0
    2.7936   -5.7561   23.7660 C   0  0  0  0  0  0  0  0  0  0  0  0
    3.8990   -5.0206   23.3374 C   0  0  0  0  0  0  0  0  0  0  0  0
    4.0242   -4.0336   22.3771 N   0  0  0  0  0  0  0  0  0  0  0  0
    3.2462   -3.7057   21.8041 H   0  0  0  0  0  0  0  0  0  0  0  0
    1.8195   -5.5850   23.3227 H   0  0  0  0  0  0  0  0  0  0  0  0
    2.1073   -7.2684   25.1440 H   0  0  0  0  0  0  0  0  0  0  0  0
    4.3431   -7.6291   26.1509 H   0  0  0  0  0  0  0  0  0  0  0  0
    6.3052   -6.2993   25.3643 H   0  0  0  0  0  0  0  0  0  0  0  0
    6.8554   -1.0207   23.2945 C   0  0  0  0  0  0  0  0  0  0  0  0
    7.5849   -1.6946   23.7516 H   0  0  0  0  0  0  0  0  0  0  0  0
    5.9645   -1.0317   23.9299 H   0  0  0  0  0  0  0  0  0  0  0  0
    8.1935   -1.3209   20.4927 H   0  0  0  0  0  0  0  0  0  0  0  0
    9.2343   -0.1224   22.1088 H   0  0  0  0  0  0  0  0  0  0  0  0
    8.4039    1.2807   21.4091 H   0  0  0  0  0  0  0  0  0  0  0  0
    6.6400    1.1240   23.0354 H   0  0  0  0  0  0  0  0  0  0  0  0
    7.5873    0.7761   25.2988 H   0  0  0  0  0  0  0  0  0  0  0  0
    8.7877    1.6702   24.3601 H   0  0  0  0  0  0  0  0  0  0  0  0
    8.9883   -0.0736   24.6088 H   0  0  0  0  0  0  0  0  0  0  0  0
  1  2  1  0
  2  3  1  0
  3  4  1  0
  4  5  1  0
  5  6  2  0
  6  7  1  0
  7  8  2  0
  8  9  1  0
  9 10  2  0
 10 11  1  0
  8 12  1  0
  7 13  1  0
  6 14  1  0
  4 15  1  0
 15 16  1  0
 16 17  2  0
 16 18  1  0
 18 19  2  0
 19 20  1  0
 19 21  1  0
 21 22  2  0
 22 23  1  0
 23 24  2  0
 24 25  1  0
 25 26  2  0
 26 27  1  0
 27 28  1  0
 25 29  1  0
 24 30  1  0
 23 31  1  0
 22 32  1  0
 15 33  1  0
 33 34  1  0
 33 35  1  0
  4 36  1  0
  3 37  1  0
  3 38  1  0
  2 39  1  0
  1 40  1  0
  1 41  1  0
  1 42  1  0
 33  2  1  0
 10  5  1  0
 27 18  1  0
 26 21  1  0
M  END
>  <plip>  (1) 
-0.14285714285714285

>  <filename>  (1) 
[H][c]1[n][c]([H])[c]([C]2([H])[N]([C](=[O])[c]3[c]([Br])[c]4[c]([H])[c]([H])[c]([H])[c]([H])[c]4[n]3[H])[C]([H])([H])[C]([H])([C]([H])([H])[H])[C]2([H])[H])[c]([H])[c]1[H]

$$$$
