
     RDKit          3D

 21 22  0  0  0  0  0  0  0  0999 V2000
    4.6656   -3.9120   24.3102 H   0  0  0  0  0  0  0  0  0  0  0  0
    4.6121   -3.5969   23.3308 N   0  0  0  0  0  0  0  0  0  0  0  0
    5.6740   -2.9586   23.1121 N   0  0  0  0  0  4  0  0  0  0  0  0
    5.8939   -2.2535   22.0762 N   0  0  0  0  0  0  0  0  0  0  0  0
    7.0697   -1.6274   21.9227 N   0  0  0  0  0  0  0  0  0  0  0  0
    7.4850   -0.8272   20.8521 C   0  0  0  0  0  0  0  0  0  0  0  0
    6.6409   -0.1248   19.8867 C   0  0  0  0  0  0  0  0  0  0  0  0
    7.1883    0.0171   18.5991 C   0  0  0  0  0  0  0  0  0  0  0  0
    8.1607   -0.4213   18.3782 H   0  0  0  0  0  0  0  0  0  0  0  0
    6.5924    0.6711   17.6032 N   0  0  0  0  0  0  0  0  0  0  0  0
    5.4268    1.2757   17.8779 C   0  0  0  0  0  0  0  0  0  0  0  0
    4.9590    1.8115   17.0530 H   0  0  0  0  0  0  0  0  0  0  0  0
    4.8227    1.2467   19.1380 C   0  0  0  0  0  0  0  0  0  0  0  0
    3.9084    1.8074   19.2966 H   0  0  0  0  0  0  0  0  0  0  0  0
    5.4342    0.5334   20.1734 C   0  0  0  0  0  0  0  0  0  0  0  0
    4.9997    0.5319   21.1767 H   0  0  0  0  0  0  0  0  0  0  0  0
    8.7772   -0.6990   20.8266 N   0  0  0  0  0  0  0  0  0  0  0  0
    9.2203   -1.3656   21.9268 N   0  0  0  0  0  0  0  0  0  0  0  0
   10.1828   -1.3989   22.2158 H   0  0  0  0  0  0  0  0  0  0  0  0
    8.2481   -1.9275   22.6828 C   0  0  0  0  0  0  0  0  0  0  0  0
    8.3648   -2.5252   23.7208 O   0  0  0  0  0  0  0  0  0  0  0  0
  1  2  1  0
  2  3  2  0
  3  4  2  0
  4  5  1  0
  5  6  1  0
  6  7  1  0
  7  8  2  0
  8  9  1  0
  8 10  1  0
 10 11  2  0
 11 12  1  0
 11 13  1  0
 13 14  1  0
 13 15  2  0
 15 16  1  0
  6 17  2  0
 17 18  1  0
 18 19  1  0
 18 20  1  0
 20 21  2  0
 20  5  1  0
 15  7  1  0
M  CHG  1   3   1
M  END
>  <plip>  (1) 
-0.07142857142857142

>  <filename>  (1) 
[H][N]=[N+]=[N][n]1[c](-[c]2[c]([H])[n][c]([H])[c]([H])[c]2[H])[n][n]([H])[c]1=[O]

$$$$
