
     RDKit          3D

 25 26  0  0  0  0  0  0  0  0999 V2000
    5.0014    1.7665   16.9787 H   0  0  0  0  0  0  0  0  0  0  0  0
    5.4321    1.2573   17.8397 C   0  0  0  0  0  0  0  0  0  0  0  0
    6.5864    0.6085   17.6272 N   0  0  0  0  0  0  0  0  0  0  0  0
    7.1580   -0.0010   18.6618 C   0  0  0  0  0  0  0  0  0  0  0  0
    8.1077   -0.4992   18.4779 H   0  0  0  0  0  0  0  0  0  0  0  0
    6.5877    0.0193   19.9255 C   0  0  0  0  0  0  0  0  0  0  0  0
    7.5438   -0.7104   21.1859 S   0  0  0  0  0  0  0  0  0  0  0  0
    8.9086   -0.8564   20.6854 O   0  0  0  0  0  0  0  0  0  0  0  0
    7.2826    0.0014   22.4228 O   0  0  0  0  0  0  0  0  0  0  0  0
    6.6914   -2.6281   21.3341 S   0  0  0  0  0  0  0  0  0  0  0  0
    7.7351   -3.0558   22.7030 C   0  0  0  0  0  0  0  0  0  0  0  0
    9.1130   -3.2149   22.4890 C   0  0  0  0  0  0  0  0  0  0  0  0
    9.5164   -2.9876   21.5068 H   0  0  0  0  0  0  0  0  0  0  0  0
    9.9385   -3.5758   23.5575 C   0  0  0  0  0  0  0  0  0  0  0  0
   11.0102   -3.6835   23.4072 H   0  0  0  0  0  0  0  0  0  0  0  0
    9.3847   -3.7546   24.8306 C   0  0  0  0  0  0  0  0  0  0  0  0
   10.0252   -4.0740   25.6463 H   0  0  0  0  0  0  0  0  0  0  0  0
    8.0189   -3.5482   25.0448 C   0  0  0  0  0  0  0  0  0  0  0  0
    7.5986   -3.6641   26.0372 H   0  0  0  0  0  0  0  0  0  0  0  0
    7.1886   -3.1867   23.9829 C   0  0  0  0  0  0  0  0  0  0  0  0
    6.1349   -2.9699   24.1372 H   0  0  0  0  0  0  0  0  0  0  0  0
    5.3709    0.6603   20.1725 C   0  0  0  0  0  0  0  0  0  0  0  0
    4.9125    0.6967   21.1642 H   0  0  0  0  0  0  0  0  0  0  0  0
    4.7881    1.2972   19.0809 C   0  0  0  0  0  0  0  0  0  0  0  0
    3.8645    1.8541   19.1832 H   0  0  0  0  0  0  0  0  0  0  0  0
  1  2  1  0
  2  3  2  0
  3  4  1  0
  4  5  1  0
  4  6  2  0
  6  7  1  0
  7  8  2  0
  7  9  2  0
  7 10  1  0
 10 11  1  0
 11 12  2  0
 12 13  1  0
 12 14  1  0
 14 15  1  0
 14 16  2  0
 16 17  1  0
 16 18  1  0
 18 19  1  0
 18 20  2  0
 20 21  1  0
  6 22  1  0
 22 23  1  0
 22 24  2  0
 24 25  1  0
 24  2  1  0
 20 11  1  0
M  END
>  <plip>  (1) 
-0.0

>  <filename>  (1) 
[H][c]1[n][c]([H])[c]([S](=[O])(=[O])[S][c]2[c]([H])[c]([H])[c]([H])[c]([H])[c]2[H])[c]([H])[c]1[H]

$$$$
