
     RDKit          3D

 40 43  0  0  0  0  0  0  0  0999 V2000
    5.0811    1.6927   17.1579 H   0  0  0  0  0  0  0  0  0  0  0  0
    5.5492    1.1358   17.9728 C   0  0  0  0  0  0  0  0  0  0  0  0
    6.7370    0.5721   17.7129 N   0  0  0  0  0  0  0  0  0  0  0  0
    7.3615   -0.0674   18.7141 C   0  0  0  0  0  0  0  0  0  0  0  0
    8.3142   -0.5145   18.4316 H   0  0  0  0  0  0  0  0  0  0  0  0
    6.8609   -0.1824   20.0279 C   0  0  0  0  0  0  0  0  0  0  0  0
    7.6333   -0.7685   21.2455 C   0  0  0  0  0  0  0  0  0  0  0  0
    6.8432   -1.9593   21.8250 C   0  0  0  0  0  0  0  0  0  0  0  0
    6.3190   -2.0618   23.0174 N   0  0  0  0  0  0  0  0  0  0  0  0
    5.5693   -3.2213   23.0076 C   0  0  0  0  0  0  0  0  0  0  0  0
    4.7543   -3.7592   24.0191 C   0  0  0  0  0  0  0  0  0  0  0  0
    4.6246   -3.2093   24.9431 H   0  0  0  0  0  0  0  0  0  0  0  0
    4.1306   -4.9813   23.7885 C   0  0  0  0  0  0  0  0  0  0  0  0
    3.5329   -5.4385   24.5736 H   0  0  0  0  0  0  0  0  0  0  0  0
    4.2644   -5.6324   22.5361 C   0  0  0  0  0  0  0  0  0  0  0  0
    3.7609   -6.5843   22.3816 H   0  0  0  0  0  0  0  0  0  0  0  0
    5.0355   -5.0879   21.5088 C   0  0  0  0  0  0  0  0  0  0  0  0
    5.1120   -5.5911   20.5485 H   0  0  0  0  0  0  0  0  0  0  0  0
    5.6906   -3.8694   21.7663 C   0  0  0  0  0  0  0  0  0  0  0  0
    6.5382   -3.0469   21.0430 N   0  0  0  0  0  0  0  0  0  0  0  0
    6.7894   -3.1289   20.0750 H   0  0  0  0  0  0  0  0  0  0  0  0
    9.0686   -1.1851   20.8216 C   0  0  0  0  0  0  0  0  0  0  0  0
    9.0219   -1.9035   20.0032 H   0  0  0  0  0  0  0  0  0  0  0  0
    9.5591   -0.2839   20.4187 H   0  0  0  0  0  0  0  0  0  0  0  0
    9.9035   -1.7432   21.9736 C   0  0  0  0  0  0  0  0  0  0  0  0
   10.9006   -2.0119   21.5988 H   0  0  0  0  0  0  0  0  0  0  0  0
    9.4346   -2.6671   22.3510 H   0  0  0  0  0  0  0  0  0  0  0  0
   10.0448   -0.7003   23.0901 C   0  0  0  0  0  0  0  0  0  0  0  0
   10.5218   -1.1600   23.9650 H   0  0  0  0  0  0  0  0  0  0  0  0
   10.7227    0.0953   22.7411 H   0  0  0  0  0  0  0  0  0  0  0  0
    8.7017   -0.0891   23.5162 C   0  0  0  0  0  0  0  0  0  0  0  0
    8.8860    0.7824   24.1530 H   0  0  0  0  0  0  0  0  0  0  0  0
    8.1497   -0.8076   24.1309 H   0  0  0  0  0  0  0  0  0  0  0  0
    7.7972    0.3356   22.3439 C   0  0  0  0  0  0  0  0  0  0  0  0
    6.8111    0.6097   22.7417 H   0  0  0  0  0  0  0  0  0  0  0  0
    8.1914    1.2394   21.8560 H   0  0  0  0  0  0  0  0  0  0  0  0
    5.5691    0.3222   20.2379 C   0  0  0  0  0  0  0  0  0  0  0  0
    5.0885    0.1602   21.2056 H   0  0  0  0  0  0  0  0  0  0  0  0
    4.9178    1.0156   19.2145 C   0  0  0  0  0  0  0  0  0  0  0  0
    3.9502    1.4787   19.3727 H   0  0  0  0  0  0  0  0  0  0  0  0
  1  2  1  0
  2  3  2  0
  3  4  1  0
  4  5  1  0
  4  6  2  0
  6  7  1  0
  7  8  1  0
  8  9  2  0
  9 10  1  0
 10 11  2  0
 11 12  1  0
 11 13  1  0
 13 14  1  0
 13 15  2  0
 15 16  1  0
 15 17  1  0
 17 18  1  0
 17 19  2  0
 19 20  1  0
 20 21  1  0
  7 22  1  0
 22 23  1  0
 22 24  1  0
 22 25  1  0
 25 26  1  0
 25 27  1  0
 25 28  1  0
 28 29  1  0
 28 30  1  0
 28 31  1  0
 31 32  1  0
 31 33  1  0
 31 34  1  0
 34 35  1  0
 34 36  1  0
  6 37  1  0
 37 38  1  0
 37 39  2  0
 39 40  1  0
 39  2  1  0
 34  7  1  0
 20  8  1  0
 19 10  1  0
M  END
>  <plip>  (1) 
-0.034482758620689655

>  <filename>  (1) 
[H][c]1[n][c]([H])[c]([C]2([c]3[n][c]4[c]([H])[c]([H])[c]([H])[c]([H])[c]4[n]3[H])[C]([H])([H])[C]([H])([H])[C]([H])([H])[C]([H])([H])[C]2([H])[H])[c]([H])[c]1[H]

$$$$
