
     RDKit          3D

 30 31  0  0  0  0  0  0  0  0999 V2000
    4.9016    1.8750   16.9631 H   0  0  0  0  0  0  0  0  0  0  0  0
    5.3601    1.3031   17.7681 C   0  0  0  0  0  0  0  0  0  0  0  0
    6.4990    0.6603   17.4609 N   0  0  0  0  0  0  0  0  0  0  0  0
    7.1226    0.0069   18.4504 C   0  0  0  0  0  0  0  0  0  0  0  0
    8.0602   -0.4884   18.2033 H   0  0  0  0  0  0  0  0  0  0  0  0
    6.6481   -0.0386   19.7753 C   0  0  0  0  0  0  0  0  0  0  0  0
    7.6512   -0.7860   21.0601 S   0  0  0  0  0  0  0  0  0  0  0  0
    8.6756    0.8650   21.8896 S   0  0  0  0  0  0  0  0  0  0  0  0
    7.7448    1.5186   23.1380 N   0  0  0  0  0  0  0  0  0  0  0  0
    6.9641    2.0889   22.8483 H   0  0  0  0  0  0  0  0  0  0  0  0
    7.6498    0.9346   24.3876 C   0  0  0  0  0  0  0  0  0  0  0  0
    8.4040    0.0907   24.8031 O   0  0  0  0  0  0  0  0  0  0  0  0
    6.4786    1.5307   25.1755 C   0  0  0  0  0  0  0  0  0  0  0  0
    5.5650    1.4759   24.5645 H   0  0  0  0  0  0  0  0  0  0  0  0
    6.3328    0.8874   26.0475 H   0  0  0  0  0  0  0  0  0  0  0  0
    6.7518    2.9689   25.5971 C   0  0  0  0  0  0  0  0  0  0  0  0
    7.5814    3.2214   26.6993 C   0  0  0  0  0  0  0  0  0  0  0  0
    8.0409    2.3848   27.2274 H   0  0  0  0  0  0  0  0  0  0  0  0
    7.8401    4.5385   27.0956 C   0  0  0  0  0  0  0  0  0  0  0  0
    8.4067    4.7370   27.9931 H   0  0  0  0  0  0  0  0  0  0  0  0
    7.3467    5.6127   26.3472 C   0  0  0  0  0  0  0  0  0  0  0  0
    7.6021    6.6315   26.6224 H   0  0  0  0  0  0  0  0  0  0  0  0
    6.5366    5.3736   25.2353 C   0  0  0  0  0  0  0  0  0  0  0  0
    6.1543    6.2020   24.6431 H   0  0  0  0  0  0  0  0  0  0  0  0
    6.2290    4.0560   24.8783 C   0  0  0  0  0  0  0  0  0  0  0  0
    5.5764    3.8723   24.0273 H   0  0  0  0  0  0  0  0  0  0  0  0
    5.4231    0.5690   20.0656 C   0  0  0  0  0  0  0  0  0  0  0  0
    5.0039    0.5044   21.0701 H   0  0  0  0  0  0  0  0  0  0  0  0
    4.7809    1.2686   19.0402 C   0  0  0  0  0  0  0  0  0  0  0  0
    3.8626    1.8103   19.2211 H   0  0  0  0  0  0  0  0  0  0  0  0
  1  2  1  0
  2  3  2  0
  3  4  1  0
  4  5  1  0
  4  6  2  0
  6  7  1  0
  7  8  1  0
  8  9  1  0
  9 10  1  0
  9 11  1  0
 11 12  2  0
 11 13  1  0
 13 14  1  0
 13 15  1  0
 13 16  1  0
 16 17  2  0
 17 18  1  0
 17 19  1  0
 19 20  1  0
 19 21  2  0
 21 22  1  0
 21 23  1  0
 23 24  1  0
 23 25  2  0
 25 26  1  0
  6 27  1  0
 27 28  1  0
 27 29  2  0
 29 30  1  0
 29  2  1  0
 25 16  1  0
M  END
>  <plip>  (1) 
-0.07142857142857142

>  <filename>  (1) 
[H][c]1[n][c]([H])[c]([S][S][N]([H])[C](=[O])[C]([H])([H])[c]2[c]([H])[c]([H])[c]([H])[c]([H])[c]2[H])[c]([H])[c]1[H]

$$$$
