
     RDKit          3D

 38 40  0  0  0  0  0  0  0  0999 V2000
    8.8762   -2.0734   22.9134 O   0  0  0  0  0  0  0  0  0  0  0  0
    7.7079   -1.7544   22.8942 C   0  0  0  0  0  0  0  0  0  0  0  0
    7.0085   -1.0100   21.8346 C   0  0  0  0  0  0  0  0  0  0  0  0
    7.5525   -0.6076   20.6792 C   0  0  0  0  0  0  0  0  0  0  0  0
    6.7753    0.0946   19.6397 C   0  0  0  0  0  0  0  0  0  0  0  0
    5.5360    0.7013   19.9129 C   0  0  0  0  0  0  0  0  0  0  0  0
    4.8520    1.3536   18.8925 C   0  0  0  0  0  0  0  0  0  0  0  0
    5.4138    1.3791   17.6153 C   0  0  0  0  0  0  0  0  0  0  0  0
    6.5852    0.7914   17.3199 N   0  0  0  0  0  0  0  0  0  0  0  0
    7.2410    0.1800   18.3113 C   0  0  0  0  0  0  0  0  0  0  0  0
    8.1870   -0.2794   18.0210 H   0  0  0  0  0  0  0  0  0  0  0  0
    4.9054    1.8924   16.8004 H   0  0  0  0  0  0  0  0  0  0  0  0
    3.9055    1.8437   19.0835 H   0  0  0  0  0  0  0  0  0  0  0  0
    5.1242    0.6867   20.9206 H   0  0  0  0  0  0  0  0  0  0  0  0
    8.6122   -0.8010   20.4799 H   0  0  0  0  0  0  0  0  0  0  0  0
    5.9592   -0.8613   22.0575 H   0  0  0  0  0  0  0  0  0  0  0  0
    6.8130   -2.0711   23.8592 O   0  0  0  0  0  0  0  0  0  0  0  0
    7.2291   -2.9807   24.8788 C   0  0  0  0  0  0  0  0  0  0  0  0
    7.4239   -4.3892   24.3032 C   0  0  0  0  0  0  0  0  0  0  0  0
    8.0424   -5.2522   25.2774 N   0  0  0  0  0  0  0  0  0  0  0  0
    9.3579   -5.1123   25.6819 C   0  0  0  0  0  0  0  0  0  0  0  0
    9.5225   -5.6773   26.9148 C   0  0  0  0  0  0  0  0  0  0  0  0
    8.2370   -6.1889   27.3221 C   0  0  0  0  0  0  0  0  0  0  0  0
    7.7407   -6.8363   28.4745 C   0  0  0  0  0  0  0  0  0  0  0  0
    6.3706   -6.9380   28.6534 C   0  0  0  0  0  0  0  0  0  0  0  0
    5.7465   -7.4777   30.1871 Cl  0  0  0  0  0  0  0  0  0  0  0  0
    5.4686   -6.5580   27.6374 C   0  0  0  0  0  0  0  0  0  0  0  0
    5.9467   -6.0783   26.4246 C   0  0  0  0  0  0  0  0  0  0  0  0
    7.3296   -5.8607   26.2918 C   0  0  0  0  0  0  0  0  0  0  0  0
    5.2610   -5.8436   25.6176 H   0  0  0  0  0  0  0  0  0  0  0  0
    4.4033   -6.6592   27.8172 H   0  0  0  0  0  0  0  0  0  0  0  0
    8.4205   -7.3148   29.1596 H   0  0  0  0  0  0  0  0  0  0  0  0
   10.4072   -5.6531   27.5391 H   0  0  0  0  0  0  0  0  0  0  0  0
   10.0637   -4.5608   25.0624 H   0  0  0  0  0  0  0  0  0  0  0  0
    8.0471   -4.3571   23.4088 H   0  0  0  0  0  0  0  0  0  0  0  0
    6.4585   -4.8114   24.0203 H   0  0  0  0  0  0  0  0  0  0  0  0
    6.4376   -2.9893   25.6355 H   0  0  0  0  0  0  0  0  0  0  0  0
    8.1565   -2.6337   25.3483 H   0  0  0  0  0  0  0  0  0  0  0  0
  1  2  2  0
  2  3  1  0
  3  4  2  3
  4  5  1  0
  5  6  2  0
  6  7  1  0
  7  8  2  0
  8  9  1  0
  9 10  2  0
 10 11  1  0
  8 12  1  0
  7 13  1  0
  6 14  1  0
  4 15  1  0
  3 16  1  0
  2 17  1  0
 17 18  1  0
 18 19  1  0
 19 20  1  0
 20 21  1  0
 21 22  2  0
 22 23  1  0
 23 24  2  0
 24 25  1  0
 25 26  1  0
 25 27  2  0
 27 28  1  0
 28 29  2  0
 28 30  1  0
 27 31  1  0
 24 32  1  0
 22 33  1  0
 21 34  1  0
 19 35  1  0
 19 36  1  0
 18 37  1  0
 18 38  1  0
 10  5  1  0
 29 20  1  0
 29 23  1  0
M  END
>  <plip>  (1) 
-0.03571428571428571

>  <filename>  (1) 
[H][C]([C](=[O])[O][C]([H])([H])[C]([H])([H])[n]1[c]([H])[c]([H])[c]2[c]([H])[c]([Cl])[c]([H])[c]([H])[c]21)=[C]([H])[c]1[c]([H])[n][c]([H])[c]([H])[c]1[H]

$$$$
