
     RDKit          3D

 37 39  0  0  0  0  0  0  0  0999 V2000
    4.9328    1.8038   16.9854 H   0  0  0  0  0  0  0  0  0  0  0  0
    5.4005    1.2960   17.8287 C   0  0  0  0  0  0  0  0  0  0  0  0
    6.5601    0.6661   17.5754 N   0  0  0  0  0  0  0  0  0  0  0  0
    7.1744    0.0538   18.5928 C   0  0  0  0  0  0  0  0  0  0  0  0
    8.1219   -0.4250   18.3480 H   0  0  0  0  0  0  0  0  0  0  0  0
    6.6770    0.0242   19.9178 C   0  0  0  0  0  0  0  0  0  0  0  0
    7.4041   -0.6523   21.0257 C   0  0  0  0  0  0  0  0  0  0  0  0
    7.7797   -2.3375   20.8585 S   0  0  0  0  0  0  0  0  0  0  0  0
    8.8295   -2.4684   22.6153 S   0  0  0  0  0  0  0  0  0  0  0  0
    8.5150   -0.8614   23.1949 C   0  0  0  0  0  0  0  0  0  0  0  0
    9.1613   -0.4440   24.6519 S   0  0  0  0  0  0  0  0  0  0  0  0
    7.7357   -0.0760   22.2396 C   0  0  0  0  0  0  0  0  0  0  0  0
    7.4094    1.2484   22.5090 N   0  0  0  0  0  0  0  0  0  0  0  0
    8.0395    2.3016   21.7214 C   0  0  0  0  0  0  0  0  0  0  0  0
    7.2961    2.8282   21.1018 H   0  0  0  0  0  0  0  0  0  0  0  0
    8.7367    1.8022   21.0388 H   0  0  0  0  0  0  0  0  0  0  0  0
    8.7904    3.3223   22.5988 C   0  0  0  0  0  0  0  0  0  0  0  0
    9.5958    3.7605   22.0041 H   0  0  0  0  0  0  0  0  0  0  0  0
    9.2716    2.7735   23.4350 H   0  0  0  0  0  0  0  0  0  0  0  0
    7.9368    4.4091   23.0896 N   0  0  0  0  0  0  0  0  0  0  0  0
    8.7054    5.5678   23.5132 C   0  0  0  0  0  0  0  0  0  0  0  0
    9.3220    5.9308   22.6825 H   0  0  0  0  0  0  0  0  0  0  0  0
    8.0269    6.3811   23.7941 H   0  0  0  0  0  0  0  0  0  0  0  0
    9.3707    5.3660   24.3739 H   0  0  0  0  0  0  0  0  0  0  0  0
    6.9858    3.9718   24.1105 C   0  0  0  0  0  0  0  0  0  0  0  0
    7.5148    3.5400   24.9900 H   0  0  0  0  0  0  0  0  0  0  0  0
    6.4599    4.8673   24.4705 H   0  0  0  0  0  0  0  0  0  0  0  0
    5.9457    2.9636   23.6048 C   0  0  0  0  0  0  0  0  0  0  0  0
    5.5808    3.2840   22.6178 H   0  0  0  0  0  0  0  0  0  0  0  0
    5.0895    2.9843   24.2907 H   0  0  0  0  0  0  0  0  0  0  0  0
    6.4361    1.5143   23.5487 C   0  0  0  0  0  0  0  0  0  0  0  0
    5.5711    0.8420   23.3979 H   0  0  0  0  0  0  0  0  0  0  0  0
    6.8744    1.2095   24.5148 H   0  0  0  0  0  0  0  0  0  0  0  0
    5.4444    0.6673   20.1460 C   0  0  0  0  0  0  0  0  0  0  0  0
    4.9822    0.6455   21.1323 H   0  0  0  0  0  0  0  0  0  0  0  0
    4.8022    1.3140   19.0892 C   0  0  0  0  0  0  0  0  0  0  0  0
    3.8640    1.8406   19.2359 H   0  0  0  0  0  0  0  0  0  0  0  0
  1  2  1  0
  2  3  2  0
  3  4  1  0
  4  5  1  0
  4  6  2  0
  6  7  1  0
  7  8  1  0
  8  9  1  0
  9 10  1  0
 10 11  2  0
 10 12  1  0
 12 13  1  0
 13 14  1  0
 14 15  1  0
 14 16  1  0
 14 17  1  0
 17 18  1  0
 17 19  1  0
 17 20  1  0
 20 21  1  0
 21 22  1  0
 21 23  1  0
 21 24  1  0
 20 25  1  0
 25 26  1  0
 25 27  1  0
 25 28  1  0
 28 29  1  0
 28 30  1  0
 28 31  1  0
 31 32  1  0
 31 33  1  0
  6 34  1  0
 34 35  1  0
 34 36  2  0
 36 37  1  0
 36  2  1  0
 12  7  2  0
 31 13  1  0
M  END
>  <plip>  (1) 
-0.03571428571428571

>  <filename>  (1) 
[H][c]1[n][c]([H])[c](-[c]2[s][s][c](=[S])[c]2[N]2[C]([H])([H])[C]([H])([H])[N]([C]([H])([H])[H])[C]([H])([H])[C]([H])([H])[C]2([H])[H])[c]([H])[c]1[H]

$$$$
