
     RDKit          3D

 24 25  0  0  0  0  0  0  0  0999 V2000
    5.6997   -1.3359   21.6770 H   0  0  0  0  0  0  0  0  0  0  0  0
    6.7029   -1.4857   21.8114 N   0  0  0  0  0  0  0  0  0  0  0  0
    7.3328   -0.7363   20.9985 C   0  0  0  0  0  0  0  0  0  0  0  0
    6.6085    0.0240   19.9381 C   0  0  0  0  0  0  0  0  0  0  0  0
    7.1413    0.0300   18.6498 C   0  0  0  0  0  0  0  0  0  0  0  0
    8.0683   -0.4993   18.4432 H   0  0  0  0  0  0  0  0  0  0  0  0
    6.5764    0.6404   17.6023 N   0  0  0  0  0  0  0  0  0  0  0  0
    5.4252    1.2956   17.8072 C   0  0  0  0  0  0  0  0  0  0  0  0
    4.9850    1.8096   16.9499 H   0  0  0  0  0  0  0  0  0  0  0  0
    4.8001    1.3480   19.0577 C   0  0  0  0  0  0  0  0  0  0  0  0
    3.8611    1.8771   19.1667 H   0  0  0  0  0  0  0  0  0  0  0  0
    5.3918    0.6975   20.1407 C   0  0  0  0  0  0  0  0  0  0  0  0
    4.9219    0.7398   21.1261 H   0  0  0  0  0  0  0  0  0  0  0  0
    8.8356   -0.6561   21.1093 C   0  0  0  0  0  0  0  0  0  0  0  0
    9.5950   -1.8213   21.3369 C   0  0  0  0  0  0  0  0  0  0  0  0
    9.1067   -2.7893   21.3446 H   0  0  0  0  0  0  0  0  0  0  0  0
   10.9623   -1.7506   21.5979 C   0  0  0  0  0  0  0  0  0  0  0  0
   11.4928   -2.6584   21.8679 H   0  0  0  0  0  0  0  0  0  0  0  0
   11.6257   -0.5238   21.5646 C   0  0  0  0  0  0  0  0  0  0  0  0
   12.6951   -0.4470   21.7373 H   0  0  0  0  0  0  0  0  0  0  0  0
   10.9061    0.6415   21.3055 C   0  0  0  0  0  0  0  0  0  0  0  0
   11.7777    2.1374   21.2257 Cl  0  0  0  0  0  0  0  0  0  0  0  0
    9.5096    0.5841   21.1346 C   0  0  0  0  0  0  0  0  0  0  0  0
    8.6205    2.0613   21.0565 Cl  0  0  0  0  0  0  0  0  0  0  0  0
  1  2  1  0
  2  3  2  3
  3  4  1  0
  4  5  2  0
  5  6  1  0
  5  7  1  0
  7  8  2  0
  8  9  1  0
  8 10  1  0
 10 11  1  0
 10 12  2  0
 12 13  1  0
  3 14  1  0
 14 15  2  0
 15 16  1  0
 15 17  1  0
 17 18  1  0
 17 19  2  0
 19 20  1  0
 19 21  1  0
 21 22  1  0
 21 23  2  0
 23 24  1  0
 12  4  1  0
 23 14  1  0
M  END
>  <plip>  (1) 
-0.10714285714285714

>  <filename>  (1) 
[H][N]=[C]([c]1[c]([H])[n][c]([H])[c]([H])[c]1[H])[c]1[c]([H])[c]([H])[c]([H])[c]([Cl])[c]1[Cl]

$$$$
