
     RDKit          3D

 39 41  0  0  0  0  0  0  0  0999 V2000
    7.6961    5.9260   28.1323 C   0  0  0  0  0  0  0  0  0  0  0  0
    7.4966    4.5356   28.6629 C   0  0  0  0  0  0  0  0  0  0  0  0
    7.3454    4.2353   29.9980 C   0  0  0  0  0  0  0  0  0  0  0  0
    7.4474    2.8821   30.4925 C   0  0  0  0  0  0  0  0  0  0  0  0
    7.6733    1.8611   29.6150 C   0  0  0  0  0  0  0  0  0  0  0  0
    7.7770    2.1429   28.2701 N   0  0  0  0  0  0  0  0  0  0  0  0
    8.0750    1.3244   27.2051 C   0  0  0  0  0  0  0  0  0  0  0  0
    8.0850    2.1327   26.1015 C   0  0  0  0  0  0  0  0  0  0  0  0
    8.3227    1.7025   24.6959 C   0  0  0  0  0  0  0  0  0  0  0  0
    7.0068    1.4630   23.9413 C   0  0  0  0  0  0  0  0  0  0  0  0
    7.2002    0.9744   22.5880 N   0  0  0  0  0  0  0  0  0  0  0  0
    7.4619   -0.2986   22.2649 C   0  0  0  0  0  0  0  0  0  0  0  0
    7.8635   -1.5184   23.3289 S   0  0  0  0  0  0  0  0  0  0  0  0
    7.4087   -0.5967   20.9275 N   0  0  0  0  0  0  0  0  0  0  0  0
    6.7125    0.0699   19.8682 C   0  0  0  0  0  0  0  0  0  0  0  0
    5.4855    0.7039   20.0938 C   0  0  0  0  0  0  0  0  0  0  0  0
    4.8300    1.3119   19.0170 C   0  0  0  0  0  0  0  0  0  0  0  0
    5.4366    1.2862   17.7585 C   0  0  0  0  0  0  0  0  0  0  0  0
    6.6151    0.6823   17.5231 N   0  0  0  0  0  0  0  0  0  0  0  0
    7.2246    0.0810   18.5518 C   0  0  0  0  0  0  0  0  0  0  0  0
    8.1711   -0.4221   18.3476 H   0  0  0  0  0  0  0  0  0  0  0  0
    4.9639    1.7583   16.9018 H   0  0  0  0  0  0  0  0  0  0  0  0
    3.8844    1.8232   19.1605 H   0  0  0  0  0  0  0  0  0  0  0  0
    5.0840    0.7026   21.1049 H   0  0  0  0  0  0  0  0  0  0  0  0
    7.5690   -1.5930   20.8643 H   0  0  0  0  0  0  0  0  0  0  0  0
    7.2079    1.6134   21.8081 H   0  0  0  0  0  0  0  0  0  0  0  0
    6.4034    0.7185   24.4734 H   0  0  0  0  0  0  0  0  0  0  0  0
    6.4350    2.3959   23.8753 H   0  0  0  0  0  0  0  0  0  0  0  0
    8.9275    0.7871   24.6867 H   0  0  0  0  0  0  0  0  0  0  0  0
    8.9041    2.4712   24.1816 H   0  0  0  0  0  0  0  0  0  0  0  0
    7.8072    3.4280   26.4301 N   0  0  0  0  0  0  0  0  0  0  0  0
    7.6487    3.4314   27.7466 C   0  0  0  0  0  0  0  0  0  0  0  0
    8.2661    0.2707   27.3163 H   0  0  0  0  0  0  0  0  0  0  0  0
    7.8206    0.8147   29.8695 H   0  0  0  0  0  0  0  0  0  0  0  0
    7.3977    2.6796   31.5611 H   0  0  0  0  0  0  0  0  0  0  0  0
    7.1295    5.0459   30.6954 H   0  0  0  0  0  0  0  0  0  0  0  0
    7.4166    6.6836   28.8719 H   0  0  0  0  0  0  0  0  0  0  0  0
    8.7561    6.0749   27.8840 H   0  0  0  0  0  0  0  0  0  0  0  0
    7.1378    6.0736   27.2008 H   0  0  0  0  0  0  0  0  0  0  0  0
  1  2  1  0
  2  3  2  0
  3  4  1  0
  4  5  2  0
  5  6  1  0
  6  7  1  0
  7  8  2  0
  8  9  1  0
  9 10  1  0
 10 11  1  0
 11 12  1  0
 12 13  2  0
 12 14  1  0
 14 15  1  0
 15 16  2  0
 16 17  1  0
 17 18  2  0
 18 19  1  0
 19 20  2  0
 20 21  1  0
 18 22  1  0
 17 23  1  0
 16 24  1  0
 14 25  1  0
 11 26  1  0
 10 27  1  0
 10 28  1  0
  9 29  1  0
  9 30  1  0
  8 31  1  0
 31 32  2  0
  7 33  1  0
  5 34  1  0
  4 35  1  0
  3 36  1  0
  1 37  1  0
  1 38  1  0
  1 39  1  0
 32  2  1  0
 32  6  1  0
 20 15  1  0
M  END
>  <plip>  (1) 
-0.03571428571428571

>  <filename>  (1) 
[H][c]1[n][c]([H])[c]([N]([H])[C](=[S])[N]([H])[C]([H])([H])[C]([H])([H])[c]2[n][c]3[c]([C]([H])([H])[H])[c]([H])[c]([H])[c]([H])[n]3[c]2[H])[c]([H])[c]1[H]

$$$$
