
     RDKit          3D

 44 45  0  0  0  0  0  0  0  0999 V2000
    5.6985   -2.4373   21.6552 C   0  0  0  0  0  0  0  0  0  0  0  0
    7.0344   -2.1956   20.9950 N   0  0  0  0  0  4  0  0  0  0  0  0
    8.0240   -3.1457   21.5902 C   0  0  0  0  0  0  0  0  0  0  0  0
    9.0224   -3.0081   21.1630 H   0  0  0  0  0  0  0  0  0  0  0  0
    8.1052   -3.0118   22.6793 H   0  0  0  0  0  0  0  0  0  0  0  0
    7.7150   -4.1854   21.4168 H   0  0  0  0  0  0  0  0  0  0  0  0
    7.4879   -0.6896   20.9494 C   0  0  0  0  0  0  0  0  0  0  0  0
    7.4599   -0.0513   22.3502 C   0  0  0  0  0  0  0  0  0  0  0  0
    8.0990    1.2932   22.4512 N   0  0  0  0  0  4  0  0  0  0  0  0
    8.0098    1.9910   23.7681 C   0  0  0  0  0  0  0  0  0  0  0  0
    8.6517    3.3314   23.5248 C   0  0  0  0  0  0  0  0  0  0  0  0
    7.8863    4.3960   23.0154 C   0  0  0  0  0  0  0  0  0  0  0  0
    8.4751    5.6461   22.8676 C   0  0  0  0  0  0  0  0  0  0  0  0
    9.8274    5.7459   23.2097 C   0  0  0  0  0  0  0  0  0  0  0  0
   10.3879    6.9507   23.1405 F   0  0  0  0  0  0  0  0  0  0  0  0
   10.5903    4.7572   23.6160 N   0  0  0  0  0  0  0  0  0  0  0  0
   10.0330    3.5391   23.7421 C   0  0  0  0  0  0  0  0  0  0  0  0
   10.9027    2.3194   24.1574 C   0  0  0  0  0  0  0  0  0  0  0  0
   12.2097    2.5373   24.2012 F   0  0  0  0  0  0  0  0  0  0  0  0
   10.5187    1.8242   25.3571 F   0  0  0  0  0  0  0  0  0  0  0  0
   10.6917    1.2961   23.2678 F   0  0  0  0  0  0  0  0  0  0  0  0
    7.9511    6.5259   22.5227 H   0  0  0  0  0  0  0  0  0  0  0  0
    6.8314    4.2565   22.7530 H   0  0  0  0  0  0  0  0  0  0  0  0
    6.9706    2.1100   24.0930 H   0  0  0  0  0  0  0  0  0  0  0  0
    8.5271    1.4271   24.5456 H   0  0  0  0  0  0  0  0  0  0  0  0
    9.1141    1.2645   22.2179 H   0  0  0  0  0  0  0  0  0  0  0  0
    7.6639    1.9698   21.7652 H   0  0  0  0  0  0  0  0  0  0  0  0
    7.9459   -0.7656   23.0284 H   0  0  0  0  0  0  0  0  0  0  0  0
    6.4110   -0.0134   22.6691 H   0  0  0  0  0  0  0  0  0  0  0  0
    6.6517   -0.0079   19.8778 C   0  0  0  0  0  0  0  0  0  0  0  0
    5.4378    0.6606   20.1159 C   0  0  0  0  0  0  0  0  0  0  0  0
    4.8090    1.3199   19.0560 C   0  0  0  0  0  0  0  0  0  0  0  0
    5.4009    1.2867   17.7916 C   0  0  0  0  0  0  0  0  0  0  0  0
    6.5338    0.6185   17.5323 N   0  0  0  0  0  0  0  0  0  0  0  0
    7.1252   -0.0134   18.5518 C   0  0  0  0  0  0  0  0  0  0  0  0
    8.0549   -0.5267   18.3047 H   0  0  0  0  0  0  0  0  0  0  0  0
    4.9501    1.8242   16.9563 H   0  0  0  0  0  0  0  0  0  0  0  0
    3.8848    1.8693   19.1977 H   0  0  0  0  0  0  0  0  0  0  0  0
    4.9922    0.6834   21.1133 H   0  0  0  0  0  0  0  0  0  0  0  0
    8.5337   -0.7193   20.6146 H   0  0  0  0  0  0  0  0  0  0  0  0
    6.9173   -2.3947   19.9725 H   0  0  0  0  0  0  0  0  0  0  0  0
    4.9479   -1.7410   21.2793 H   0  0  0  0  0  0  0  0  0  0  0  0
    5.3538   -3.4627   21.4764 H   0  0  0  0  0  0  0  0  0  0  0  0
    5.7622   -2.2935   22.7409 H   0  0  0  0  0  0  0  0  0  0  0  0
  1  2  1  0
  2  3  1  0
  3  4  1  0
  3  5  1  0
  3  6  1  0
  2  7  1  0
  7  8  1  0
  8  9  1  0
  9 10  1  0
 10 11  1  0
 11 12  2  0
 12 13  1  0
 13 14  2  0
 14 15  1  0
 14 16  1  0
 16 17  2  0
 17 18  1  0
 18 19  1  0
 18 20  1  0
 18 21  1  0
 13 22  1  0
 12 23  1  0
 10 24  1  0
 10 25  1  0
  9 26  1  0
  9 27  1  0
  8 28  1  0
  8 29  1  0
  7 30  1  0
 30 31  2  0
 31 32  1  0
 32 33  2  0
 33 34  1  0
 34 35  2  0
 35 36  1  0
 33 37  1  0
 32 38  1  0
 31 39  1  0
  7 40  1  0
  2 41  1  0
  1 42  1  0
  1 43  1  0
  1 44  1  0
 17 11  1  0
 35 30  1  0
M  CHG  2   2   1   9   1
M  END
>  <plip>  (1) 
-0.07142857142857142

>  <filename>  (1) 
[H][c]1[n][c]([H])[c]([C]([H])([C]([H])([H])[N+]([H])([H])[C]([H])([H])[c]2[c]([C]([F])([F])[F])[n][c]([F])[c]([H])[c]2[H])[N+]([H])([C]([H])([H])[H])[C]([H])([H])[H])[c]([H])[c]1[H]

$$$$
