
     RDKit          3D

 30 31  0  0  0  0  0  0  0  0999 V2000
    8.7295    2.5919   21.2814 C   0  0  0  0  0  0  0  0  0  0  0  0
    7.7321    2.2394   22.2878 N   0  0  0  0  0  0  0  0  0  0  0  0
    7.5544    0.9252   22.7241 C   0  0  0  0  0  0  0  0  0  0  0  0
    6.8288    0.6734   23.6665 O   0  0  0  0  0  0  0  0  0  0  0  0
    8.2431   -0.2229   21.9871 C   0  0  0  0  0  0  0  0  0  0  0  0
    7.2423   -0.9720   21.0702 C   0  0  0  0  0  0  0  0  0  0  0  0
    6.6202   -0.1082   19.9959 C   0  0  0  0  0  0  0  0  0  0  0  0
    5.4540    0.6423   20.2231 C   0  0  0  0  0  0  0  0  0  0  0  0
    4.8931    1.3570   19.1632 C   0  0  0  0  0  0  0  0  0  0  0  0
    5.5225    1.3182   17.9137 C   0  0  0  0  0  0  0  0  0  0  0  0
    6.6532    0.6363   17.6784 N   0  0  0  0  0  0  0  0  0  0  0  0
    7.1799   -0.0415   18.7055 C   0  0  0  0  0  0  0  0  0  0  0  0
    8.1019   -0.5834   18.4865 H   0  0  0  0  0  0  0  0  0  0  0  0
    5.0995    1.8507   17.0652 H   0  0  0  0  0  0  0  0  0  0  0  0
    3.9846    1.9371   19.2828 H   0  0  0  0  0  0  0  0  0  0  0  0
    4.9995    0.6633   21.2192 H   0  0  0  0  0  0  0  0  0  0  0  0
    6.4562   -1.3952   21.7091 H   0  0  0  0  0  0  0  0  0  0  0  0
    7.7481   -1.8305   20.6104 H   0  0  0  0  0  0  0  0  0  0  0  0
    9.1304    0.0974   21.4342 H   0  0  0  0  0  0  0  0  0  0  0  0
    8.5726   -0.9110   22.7718 H   0  0  0  0  0  0  0  0  0  0  0  0
    6.6785    3.1421   22.4923 C   0  0  0  0  0  0  0  0  0  0  0  0
    6.8168    4.4092   22.1803 N   0  0  0  0  0  0  0  0  0  0  0  0
    5.5747    4.9712   22.3666 O   0  0  0  0  0  0  0  0  0  0  0  0
    4.7242    4.0319   22.7906 C   0  0  0  0  0  0  0  0  0  0  0  0
    5.3534    2.8411   22.9349 C   0  0  0  0  0  0  0  0  0  0  0  0
    5.0449    1.8973   23.3429 H   0  0  0  0  0  0  0  0  0  0  0  0
    3.7049    4.3820   22.9074 H   0  0  0  0  0  0  0  0  0  0  0  0
    8.7597    3.6748   21.2204 H   0  0  0  0  0  0  0  0  0  0  0  0
    9.7231    2.2332   21.5607 H   0  0  0  0  0  0  0  0  0  0  0  0
    8.4416    2.2091   20.2937 H   0  0  0  0  0  0  0  0  0  0  0  0
  1  2  1  0
  2  3  1  0
  3  4  2  0
  3  5  1  0
  5  6  1  0
  6  7  1  0
  7  8  2  0
  8  9  1  0
  9 10  2  0
 10 11  1  0
 11 12  2  0
 12 13  1  0
 10 14  1  0
  9 15  1  0
  8 16  1  0
  6 17  1  0
  6 18  1  0
  5 19  1  0
  5 20  1  0
  2 21  1  0
 21 22  2  0
 22 23  1  0
 23 24  1  0
 24 25  2  0
 25 26  1  0
 24 27  1  0
  1 28  1  0
  1 29  1  0
  1 30  1  0
 12  7  1  0
 25 21  1  0
M  END
>  <plip>  (1) 
-0.07142857142857142

>  <filename>  (1) 
[H][c]1[n][c]([H])[c]([C]([H])([H])[C]([H])([H])[C](=[O])[N]([c]2[n][o][c]([H])[c]2[H])[C]([H])([H])[H])[c]([H])[c]1[H]

$$$$
