
     RDKit          3D

 32 34  0  0  0  0  0  0  0  0999 V2000
    5.6120   -6.5984   18.9097 H   0  0  0  0  0  0  0  0  0  0  0  0
    5.7019   -5.9780   19.7982 C   0  0  0  0  0  0  0  0  0  0  0  0
    6.0196   -4.7010   19.5847 N   0  0  0  0  0  0  0  0  0  0  0  0
    6.1860   -3.9546   20.6809 C   0  0  0  0  0  0  0  0  0  0  0  0
    6.6105   -2.6970   20.3782 N   0  0  0  0  0  0  0  0  0  0  0  0
    6.6728   -2.6778   19.3656 H   0  0  0  0  0  0  0  0  0  0  0  0
    7.3938   -1.8255   21.1679 C   0  0  0  0  0  0  0  0  0  0  0  0
    7.3319   -0.4770   21.0636 C   0  0  0  0  0  0  0  0  0  0  0  0
    6.6648    0.1990   19.9361 C   0  0  0  0  0  0  0  0  0  0  0  0
    7.1650    0.1413   18.6170 C   0  0  0  0  0  0  0  0  0  0  0  0
    8.1018   -0.3800   18.4193 H   0  0  0  0  0  0  0  0  0  0  0  0
    6.5674    0.6956   17.5529 N   0  0  0  0  0  0  0  0  0  0  0  0
    5.4017    1.3269   17.7680 C   0  0  0  0  0  0  0  0  0  0  0  0
    4.9331    1.7756   16.8936 H   0  0  0  0  0  0  0  0  0  0  0  0
    4.7890    1.4132   19.0242 C   0  0  0  0  0  0  0  0  0  0  0  0
    3.8306    1.9105   19.1260 H   0  0  0  0  0  0  0  0  0  0  0  0
    5.4375    0.8512   20.1242 C   0  0  0  0  0  0  0  0  0  0  0  0
    5.0033    0.8660   21.1267 H   0  0  0  0  0  0  0  0  0  0  0  0
    7.9229    0.2149   22.2791 C   0  0  0  0  0  0  0  0  0  0  0  0
    8.6242    1.0146   22.0006 H   0  0  0  0  0  0  0  0  0  0  0  0
    7.1286    0.7222   22.8493 H   0  0  0  0  0  0  0  0  0  0  0  0
    8.5927   -0.9226   23.0863 C   0  0  0  0  0  0  0  0  0  0  0  0
    8.1687   -1.0624   24.0890 H   0  0  0  0  0  0  0  0  0  0  0  0
    9.6768   -0.8173   23.2015 H   0  0  0  0  0  0  0  0  0  0  0  0
    8.3124   -2.2033   22.2922 C   0  0  0  0  0  0  0  0  0  0  0  0
    8.7575   -3.2980   22.5647 O   0  0  0  0  0  0  0  0  0  0  0  0
    5.8836   -4.3612   21.9918 C   0  0  0  0  0  0  0  0  0  0  0  0
    5.9237   -3.6206   22.7800 H   0  0  0  0  0  0  0  0  0  0  0  0
    5.5384   -5.6881   22.1841 C   0  0  0  0  0  0  0  0  0  0  0  0
    5.3231   -6.0884   23.1722 H   0  0  0  0  0  0  0  0  0  0  0  0
    5.4955   -6.5158   21.0648 C   0  0  0  0  0  0  0  0  0  0  0  0
    5.3403   -7.5668   21.1537 H   0  0  0  0  0  0  0  0  0  0  0  0
  1  2  1  0
  2  3  2  0
  3  4  1  0
  4  5  1  0
  5  6  1  0
  5  7  1  0
  7  8  2  0
  8  9  1  0
  9 10  2  0
 10 11  1  0
 10 12  1  0
 12 13  2  0
 13 14  1  0
 13 15  1  0
 15 16  1  0
 15 17  2  0
 17 18  1  0
  8 19  1  0
 19 20  1  0
 19 21  1  0
 19 22  1  0
 22 23  1  0
 22 24  1  0
 22 25  1  0
 25 26  2  0
  4 27  2  0
 27 28  1  0
 27 29  1  0
 29 30  1  0
 29 31  2  0
 31 32  1  0
 31  2  1  0
 25  7  1  0
 17  9  1  0
M  END
>  <plip>  (1) 
-0.10344827586206896

>  <filename>  (1) 
[H][c]1[n][c]([N]([H])[C]2=[C]([c]3[c]([H])[n][c]([H])[c]([H])[c]3[H])[C]([H])([H])[C]([H])([H])[C]2=[O])[c]([H])[c]([H])[c]1[H]

$$$$
