
     RDKit          3D

 32 34  0  0  0  0  0  0  0  0999 V2000
    4.9136    1.7770   17.0001 H   0  0  0  0  0  0  0  0  0  0  0  0
    5.4022    1.2930   17.8437 C   0  0  0  0  0  0  0  0  0  0  0  0
    6.5648    0.6730   17.5837 N   0  0  0  0  0  0  0  0  0  0  0  0
    7.1728    0.0510   18.6005 C   0  0  0  0  0  0  0  0  0  0  0  0
    8.1244   -0.4266   18.3824 H   0  0  0  0  0  0  0  0  0  0  0  0
    6.6438   -0.0146   19.9034 C   0  0  0  0  0  0  0  0  0  0  0  0
    7.3319   -0.7168   20.9459 N   0  0  0  0  0  0  0  0  0  0  0  0
    6.5748   -1.6206   21.6551 N   0  0  0  0  0  0  0  0  0  0  0  0
    7.1478   -2.2978   22.6175 C   0  0  0  0  0  0  0  0  0  0  0  0
    6.2833   -3.3033   23.3543 C   0  0  1  0  0  0  0  0  0  0  0  0
    5.2673   -3.1682   22.9840 H   0  0  0  0  0  0  0  0  0  0  0  0
    6.7559   -4.7545   23.1182 C   0  0  0  0  0  0  0  0  0  0  0  0
    5.8807   -5.4173   23.0465 H   0  0  0  0  0  0  0  0  0  0  0  0
    7.3228   -4.8684   22.1859 H   0  0  0  0  0  0  0  0  0  0  0  0
    7.5771   -5.1319   24.2599 N   0  0  0  0  0  0  0  0  0  0  0  0
    8.5609   -5.0247   24.0533 H   0  0  0  0  0  0  0  0  0  0  0  0
    7.2017   -4.3187   25.4167 C   0  0  0  0  0  0  0  0  0  0  0  0
    8.0996   -3.9547   25.9317 H   0  0  0  0  0  0  0  0  0  0  0  0
    6.6337   -4.9133   26.1465 H   0  0  0  0  0  0  0  0  0  0  0  0
    6.3360   -3.1509   24.8946 C   0  0  0  0  0  0  0  0  0  0  0  0
    5.3262   -3.2148   25.3084 H   0  0  0  0  0  0  0  0  0  0  0  0
    6.7434   -2.1808   25.2004 H   0  0  0  0  0  0  0  0  0  0  0  0
    8.5307   -2.1099   22.9604 C   0  0  0  0  0  0  0  0  0  0  0  0
    8.9773   -2.6835   23.7705 H   0  0  0  0  0  0  0  0  0  0  0  0
    9.2793   -1.1997   22.2787 C   0  0  0  0  0  0  0  0  0  0  0  0
   10.3210   -0.9906   22.4825 H   0  0  0  0  0  0  0  0  0  0  0  0
    8.7144   -0.4004   21.2086 C   0  0  0  0  0  0  0  0  0  0  0  0
    9.3261    0.4434   20.5698 O   0  0  0  0  0  0  0  0  0  0  0  0
    5.4374    0.6427   20.1660 C   0  0  0  0  0  0  0  0  0  0  0  0
    5.0156    0.6117   21.1703 H   0  0  0  0  0  0  0  0  0  0  0  0
    4.8092    1.3151   19.1125 C   0  0  0  0  0  0  0  0  0  0  0  0
    3.8737    1.8457   19.2650 H   0  0  0  0  0  0  0  0  0  0  0  0
  1  2  1  0
  2  3  2  0
  3  4  1  0
  4  5  1  0
  4  6  2  0
  6  7  1  0
  7  8  1  0
  8  9  2  0
  9 10  1  0
 10 11  1  6
 10 12  1  0
 12 13  1  0
 12 14  1  0
 12 15  1  0
 15 16  1  0
 15 17  1  0
 17 18  1  0
 17 19  1  0
 17 20  1  0
 20 21  1  0
 20 22  1  0
  9 23  1  0
 23 24  1  0
 23 25  2  0
 25 26  1  0
 25 27  1  0
 27 28  2  0
  6 29  1  0
 29 30  1  0
 29 31  2  0
 31 32  1  0
 31  2  1  0
 27  7  1  0
 20 10  1  0
M  END
>  <plip>  (1) 
-0.07142857142857142

>  <filename>  (1) 
[H][c]1[n][c]([H])[c](-[n]2[n][c]([C@@]3([H])[C]([H])([H])[N]([H])[C]([H])([H])[C]3([H])[H])[c]([H])[c]([H])[c]2=[O])[c]([H])[c]1[H]

$$$$
