
     RDKit          3D

 30 32  0  0  0  0  0  0  0  0999 V2000
   10.3851   -5.6451   27.8573 H   0  0  0  0  0  0  0  0  0  0  0  0
   10.6032   -5.7610   26.9263 O   0  0  0  0  0  0  0  0  0  0  0  0
    9.9444   -4.8094   26.2284 C   0  0  0  0  0  0  0  0  0  0  0  0
    9.1362   -3.8584   26.8538 C   0  0  0  0  0  0  0  0  0  0  0  0
    8.9695   -3.9430   27.9203 H   0  0  0  0  0  0  0  0  0  0  0  0
    8.5311   -2.8509   26.0949 C   0  0  0  0  0  0  0  0  0  0  0  0
    7.8904   -2.1000   26.5592 H   0  0  0  0  0  0  0  0  0  0  0  0
    8.7276   -2.8168   24.7086 C   0  0  0  0  0  0  0  0  0  0  0  0
    8.1101   -1.7141   24.1105 O   0  0  0  0  0  0  0  0  0  0  0  0
    8.1423   -1.6191   22.7331 N   0  0  0  0  0  0  0  0  0  0  0  0
    9.2999   -1.4484   22.0880 N   0  0  0  0  0  0  0  0  0  0  0  0
    8.9258   -0.9466   20.9189 C   0  0  0  0  0  0  0  0  0  0  0  0
    9.6861   -0.7020   20.1934 H   0  0  0  0  0  0  0  0  0  0  0  0
    7.5214   -0.7256   20.8286 C   0  0  0  0  0  0  0  0  0  0  0  0
    6.7585   -0.0520   19.7523 C   0  0  0  0  0  0  0  0  0  0  0  0
    7.2119   -0.0025   18.4133 C   0  0  0  0  0  0  0  0  0  0  0  0
    8.1287   -0.5185   18.1309 H   0  0  0  0  0  0  0  0  0  0  0  0
    6.5878    0.6459   17.4206 N   0  0  0  0  0  0  0  0  0  0  0  0
    5.4545    1.2965   17.7264 C   0  0  0  0  0  0  0  0  0  0  0  0
    4.9736    1.8362   16.9114 H   0  0  0  0  0  0  0  0  0  0  0  0
    4.8976    1.3011   19.0095 C   0  0  0  0  0  0  0  0  0  0  0  0
    3.9831    1.8518   19.1948 H   0  0  0  0  0  0  0  0  0  0  0  0
    5.5528    0.6118   20.0317 C   0  0  0  0  0  0  0  0  0  0  0  0
    5.1484    0.6045   21.0443 H   0  0  0  0  0  0  0  0  0  0  0  0
    7.0536   -1.1686   22.0537 C   0  0  0  0  0  0  0  0  0  0  0  0
    6.0716   -1.2391   22.5020 H   0  0  0  0  0  0  0  0  0  0  0  0
    9.4648   -3.8133   24.0604 C   0  0  0  0  0  0  0  0  0  0  0  0
    9.5606   -3.8226   22.9786 H   0  0  0  0  0  0  0  0  0  0  0  0
   10.0818   -4.7998   24.8426 C   0  0  0  0  0  0  0  0  0  0  0  0
   10.6944   -5.5809   24.4246 H   0  0  0  0  0  0  0  0  0  0  0  0
  1  2  1  0
  2  3  1  0
  3  4  2  0
  4  5  1  0
  4  6  1  0
  6  7  1  0
  6  8  2  0
  8  9  1  0
  9 10  1  0
 10 11  1  0
 11 12  2  0
 12 13  1  0
 12 14  1  0
 14 15  1  0
 15 16  2  0
 16 17  1  0
 16 18  1  0
 18 19  2  0
 19 20  1  0
 19 21  1  0
 21 22  1  0
 21 23  2  0
 23 24  1  0
 14 25  2  0
 25 26  1  0
  8 27  1  0
 27 28  1  0
 27 29  2  0
 29 30  1  0
 29  3  1  0
 25 10  1  0
 23 15  1  0
M  END
>  <plip>  (1) 
-0.06896551724137931

>  <filename>  (1) 
[H][O][c]1[c]([H])[c]([H])[c]([O][n]2[n][c]([H])[c](-[c]3[c]([H])[n][c]([H])[c]([H])[c]3[H])[c]2[H])[c]([H])[c]1[H]

$$$$
