
     RDKit          3D

 41 42  0  0  0  0  0  0  0  0999 V2000
    8.4638   -4.6431   23.0570 C   0  0  0  0  0  0  0  0  0  0  0  0
    7.9734   -3.7374   22.0590 O   0  0  0  0  0  0  0  0  0  0  0  0
    7.1180   -2.7673   22.4680 C   0  0  0  0  0  0  0  0  0  0  0  0
    6.7754   -2.6052   23.6101 O   0  0  0  0  0  0  0  0  0  0  0  0
    6.6233   -1.9986   21.2897 C   0  0  0  0  0  0  0  0  0  0  0  0
    7.4613   -0.7474   21.0227 C   0  0  0  0  0  0  0  0  0  0  0  0
    8.9165   -1.0903   20.6822 C   0  0  0  0  0  0  0  0  0  0  0  0
    9.4092   -1.4690   21.5798 H   0  0  0  0  0  0  0  0  0  0  0  0
    9.0038   -1.8580   19.9156 H   0  0  0  0  0  0  0  0  0  0  0  0
    9.4563   -0.2028   20.3457 H   0  0  0  0  0  0  0  0  0  0  0  0
    7.5428   -0.0165   22.2877 N   0  0  0  0  0  0  0  0  0  0  0  0
    8.1382    1.5405   22.2250 S   0  0  0  0  0  0  0  0  0  0  0  0
    8.4620    1.9453   20.8822 O   0  0  0  0  0  0  0  0  0  0  0  0
    7.1289    2.1990   23.0349 O   0  0  0  0  0  0  0  0  0  0  0  0
    9.6452    1.3456   23.1218 C   0  0  0  0  0  0  0  0  0  0  0  0
   10.2894    2.6894   23.2422 C   0  0  0  0  0  0  0  0  0  0  0  0
   10.5756    3.2170   22.0208 F   0  0  0  0  0  0  0  0  0  0  0  0
   11.2954    2.9528   24.2965 C   0  0  0  0  0  0  0  0  0  0  0  0
    9.9432    3.6459   24.3220 C   0  0  0  0  0  0  0  0  0  0  0  0
    9.9463    4.6999   24.0523 H   0  0  0  0  0  0  0  0  0  0  0  0
    9.1913    3.3451   25.0504 H   0  0  0  0  0  0  0  0  0  0  0  0
   11.5161    2.1664   25.0146 H   0  0  0  0  0  0  0  0  0  0  0  0
   12.1350    3.5713   23.9853 H   0  0  0  0  0  0  0  0  0  0  0  0
    9.3809    0.8844   24.0744 H   0  0  0  0  0  0  0  0  0  0  0  0
   10.2600    0.6558   22.5412 H   0  0  0  0  0  0  0  0  0  0  0  0
    6.6348    0.2591   22.6452 H   0  0  0  0  0  0  0  0  0  0  0  0
    6.6934    0.0245   19.9587 C   0  0  0  0  0  0  0  0  0  0  0  0
    5.4493    0.6498   20.1772 C   0  0  0  0  0  0  0  0  0  0  0  0
    4.8187    1.2985   19.1138 C   0  0  0  0  0  0  0  0  0  0  0  0
    5.4261    1.2689   17.8550 C   0  0  0  0  0  0  0  0  0  0  0  0
    6.5806    0.6415   17.6143 N   0  0  0  0  0  0  0  0  0  0  0  0
    7.1866    0.0510   18.6551 C   0  0  0  0  0  0  0  0  0  0  0  0
    8.1335   -0.4386   18.4224 H   0  0  0  0  0  0  0  0  0  0  0  0
    4.9653    1.7692   17.0057 H   0  0  0  0  0  0  0  0  0  0  0  0
    3.8816    1.8241   19.2451 H   0  0  0  0  0  0  0  0  0  0  0  0
    4.9676    0.6425   21.1579 H   0  0  0  0  0  0  0  0  0  0  0  0
    5.5932   -1.7133   21.5055 H   0  0  0  0  0  0  0  0  0  0  0  0
    6.6403   -2.6332   20.4060 H   0  0  0  0  0  0  0  0  0  0  0  0
    9.0555   -5.3913   22.5320 H   0  0  0  0  0  0  0  0  0  0  0  0
    9.0861   -4.1084   23.7797 H   0  0  0  0  0  0  0  0  0  0  0  0
    7.6408   -5.1405   23.5796 H   0  0  0  0  0  0  0  0  0  0  0  0
  1  2  1  0
  2  3  1  0
  3  4  2  0
  3  5  1  0
  5  6  1  0
  6  7  1  0
  7  8  1  0
  7  9  1  0
  7 10  1  0
  6 11  1  0
 11 12  1  0
 12 13  2  0
 12 14  2  0
 12 15  1  0
 15 16  1  0
 16 17  1  0
 16 18  1  0
 18 19  1  0
 19 20  1  0
 19 21  1  0
 18 22  1  0
 18 23  1  0
 15 24  1  0
 15 25  1  0
 11 26  1  0
  6 27  1  0
 27 28  2  0
 28 29  1  0
 29 30  2  0
 30 31  1  0
 31 32  2  0
 32 33  1  0
 30 34  1  0
 29 35  1  0
 28 36  1  0
  5 37  1  0
  5 38  1  0
  1 39  1  0
  1 40  1  0
  1 41  1  0
 19 16  1  0
 32 27  1  0
M  END
>  <plip>  (1) 
-0.14285714285714285

>  <filename>  (1) 
[H][c]1[n][c]([H])[c]([C]([N]([H])[S](=[O])(=[O])[C]([H])([H])[C]2([F])[C]([H])([H])[C]2([H])[H])([C]([H])([H])[H])[C]([H])([H])[C](=[O])[O][C]([H])([H])[H])[c]([H])[c]1[H]

$$$$
