
     RDKit          3D

 38 39  0  0  0  0  0  0  0  0999 V2000
    6.7117   -1.4037   21.6256 H   0  0  0  0  0  0  0  0  0  0  0  0
    7.3220   -0.7194   21.0305 C   0  0  0  0  0  0  0  0  0  0  0  0
    8.5992   -0.4939   21.3870 C   0  0  0  0  0  0  0  0  0  0  0  0
    9.3796   -1.1231   22.4557 C   0  0  0  0  0  0  0  0  0  0  0  0
    8.8760   -2.3664   23.2228 C   0  0  0  0  0  0  0  0  0  0  0  0
    7.9514   -3.0600   22.8118 O   0  0  0  0  0  0  0  0  0  0  0  0
    9.5197   -2.6457   24.3873 N   0  0  0  0  0  0  0  0  0  0  0  0
   10.2753   -2.0280   24.6436 H   0  0  0  0  0  0  0  0  0  0  0  0
    9.1365   -3.7698   25.2316 C   0  0  0  0  0  0  0  0  0  0  0  0
    9.0199   -4.6590   24.5949 H   0  0  0  0  0  0  0  0  0  0  0  0
    9.9613   -3.9637   25.9302 H   0  0  0  0  0  0  0  0  0  0  0  0
    7.8172   -3.5182   25.9803 C   0  0  0  0  0  0  0  0  0  0  0  0
    7.0670   -3.2040   25.2435 H   0  0  0  0  0  0  0  0  0  0  0  0
    7.9576   -2.6680   26.6668 H   0  0  0  0  0  0  0  0  0  0  0  0
    7.2960   -4.7414   26.7547 C   0  0  0  0  0  0  0  0  0  0  0  0
    6.2790   -4.5174   27.1059 H   0  0  0  0  0  0  0  0  0  0  0  0
    7.2027   -5.6016   26.0749 H   0  0  0  0  0  0  0  0  0  0  0  0
    8.1586   -5.0888   27.9646 C   0  0  0  0  0  0  0  0  0  0  0  0
    7.7135   -5.8706   28.5883 H   0  0  0  0  0  0  0  0  0  0  0  0
    9.1699   -5.4134   27.6958 H   0  0  0  0  0  0  0  0  0  0  0  0
    8.2463   -4.1824   28.5611 H   0  0  0  0  0  0  0  0  0  0  0  0
   10.5131   -0.5432   22.6921 N   0  0  0  0  0  0  0  0  0  0  0  0
   10.6965    0.5700   21.7586 C   0  0  0  0  0  0  0  0  0  0  0  0
   10.7436    1.5059   22.3270 H   0  0  0  0  0  0  0  0  0  0  0  0
   11.6558    0.4536   21.2459 H   0  0  0  0  0  0  0  0  0  0  0  0
    9.4878    0.5665   20.7929 C   0  0  0  0  0  0  0  0  0  0  0  0
    8.9694    1.5244   20.7233 H   0  0  0  0  0  0  0  0  0  0  0  0
    9.7151    0.2665   19.7693 H   0  0  0  0  0  0  0  0  0  0  0  0
    6.6438   -0.0225   19.9132 C   0  0  0  0  0  0  0  0  0  0  0  0
    7.1602    0.0525   18.6011 C   0  0  0  0  0  0  0  0  0  0  0  0
    8.1024   -0.4355   18.3608 H   0  0  0  0  0  0  0  0  0  0  0  0
    6.5613    0.6809   17.5810 N   0  0  0  0  0  0  0  0  0  0  0  0
    5.3988    1.3007   17.8325 C   0  0  0  0  0  0  0  0  0  0  0  0
    4.9288    1.8036   16.9867 H   0  0  0  0  0  0  0  0  0  0  0  0
    4.7956    1.3058   19.0955 C   0  0  0  0  0  0  0  0  0  0  0  0
    3.8676    1.8480   19.2403 H   0  0  0  0  0  0  0  0  0  0  0  0
    5.4201    0.6274   20.1426 C   0  0  0  0  0  0  0  0  0  0  0  0
    4.9943    0.6177   21.1442 H   0  0  0  0  0  0  0  0  0  0  0  0
  1  2  1  0
  2  3  2  3
  3  4  1  0
  4  5  1  0
  5  6  2  0
  5  7  1  0
  7  8  1  0
  7  9  1  0
  9 10  1  0
  9 11  1  0
  9 12  1  0
 12 13  1  0
 12 14  1  0
 12 15  1  0
 15 16  1  0
 15 17  1  0
 15 18  1  0
 18 19  1  0
 18 20  1  0
 18 21  1  0
  4 22  2  0
 22 23  1  0
 23 24  1  0
 23 25  1  0
 23 26  1  0
 26 27  1  0
 26 28  1  0
  2 29  1  0
 29 30  2  0
 30 31  1  0
 30 32  1  0
 32 33  2  0
 33 34  1  0
 33 35  1  0
 35 36  1  0
 35 37  2  0
 37 38  1  0
 26  3  1  0
 37 29  1  0
M  END
>  <plip>  (1) 
-0.0

>  <filename>  (1) 
[H][C](=[C]1[C]([C](=[O])[N]([H])[C]([H])([H])[C]([H])([H])[C]([H])([H])[C]([H])([H])[H])=[N][C]([H])([H])[C]1([H])[H])[c]1[c]([H])[n][c]([H])[c]([H])[c]1[H]

$$$$
