
     RDKit          3D

 48 50  0  0  0  0  0  0  0  0999 V2000
    5.9539   -6.7210   28.6560 C   0  0  0  0  0  0  0  0  0  0  0  0
    5.1706   -6.2194   27.4431 C   0  0  0  0  0  0  0  0  0  0  0  0
    3.7970   -6.5323   27.6194 O   0  0  0  0  0  0  0  0  0  0  0  0
    3.6280   -6.5376   28.5686 H   0  0  0  0  0  0  0  0  0  0  0  0
    5.6813   -6.8375   26.1502 C   0  0  0  0  0  0  0  0  0  0  0  0
    6.8987   -6.0157   25.7587 C   0  0  0  0  0  0  0  0  0  0  0  0
    6.5909   -4.6000   26.2269 N   0  0  0  0  0  4  0  0  0  0  0  0
    6.4927   -3.5718   25.1261 C   0  0  0  0  0  0  0  0  0  0  0  0
    7.8858   -3.2870   24.5554 C   0  0  0  0  0  0  0  0  0  0  0  0
    7.7628   -2.2853   23.4097 C   0  0  0  0  0  0  0  0  0  0  0  0
    6.8607   -2.8044   22.3629 N   0  0  0  0  0  0  0  0  0  0  0  0
    6.6710   -2.1949   21.1420 C   0  0  0  0  0  0  0  0  0  0  0  0
    6.0271   -2.7276   20.2508 O   0  0  0  0  0  0  0  0  0  0  0  0
    7.3183   -0.8107   20.9351 C   0  0  0  0  0  0  0  0  0  0  0  0
    6.6788    0.0173   19.8382 C   0  0  0  0  0  0  0  0  0  0  0  0
    5.4668    0.6764   20.0840 C   0  0  0  0  0  0  0  0  0  0  0  0
    4.8393    1.3572   19.0376 C   0  0  0  0  0  0  0  0  0  0  0  0
    5.4616    1.3622   17.7865 C   0  0  0  0  0  0  0  0  0  0  0  0
    6.6240    0.7438   17.5239 N   0  0  0  0  0  0  0  0  0  0  0  0
    7.2084    0.0938   18.5409 C   0  0  0  0  0  0  0  0  0  0  0  0
    8.1549   -0.4037   18.3182 H   0  0  0  0  0  0  0  0  0  0  0  0
    5.0026    1.8776   16.9456 H   0  0  0  0  0  0  0  0  0  0  0  0
    3.8978    1.8802   19.1811 H   0  0  0  0  0  0  0  0  0  0  0  0
    5.0372    0.6408   21.0861 H   0  0  0  0  0  0  0  0  0  0  0  0
    7.2730   -0.2554   21.8788 H   0  0  0  0  0  0  0  0  0  0  0  0
    8.3809   -0.9754   20.7131 H   0  0  0  0  0  0  0  0  0  0  0  0
    6.1148   -4.0435   22.6395 C   0  0  0  0  0  0  0  0  0  0  0  0
    5.4811   -3.9712   24.0246 C   0  0  0  0  0  0  0  0  0  0  0  0
    4.6840   -3.2235   24.0030 H   0  0  0  0  0  0  0  0  0  0  0  0
    5.0195   -4.9399   24.2453 H   0  0  0  0  0  0  0  0  0  0  0  0
    6.7894   -4.9069   22.5530 H   0  0  0  0  0  0  0  0  0  0  0  0
    5.3550   -4.1719   21.8701 H   0  0  0  0  0  0  0  0  0  0  0  0
    8.7561   -2.0660   22.9957 H   0  0  0  0  0  0  0  0  0  0  0  0
    7.3768   -1.3357   23.8134 H   0  0  0  0  0  0  0  0  0  0  0  0
    8.5428   -2.9142   25.3488 H   0  0  0  0  0  0  0  0  0  0  0  0
    8.3274   -4.2131   24.1708 H   0  0  0  0  0  0  0  0  0  0  0  0
    6.1380   -2.6390   25.5841 H   0  0  0  0  0  0  0  0  0  0  0  0
    5.3626   -4.7192   27.1248 C   0  0  0  0  0  0  0  0  0  0  0  0
    4.4710   -4.3947   26.5825 H   0  0  0  0  0  0  0  0  0  0  0  0
    5.4471   -4.0968   28.0192 H   0  0  0  0  0  0  0  0  0  0  0  0
    7.3792   -4.2836   26.8260 H   0  0  0  0  0  0  0  0  0  0  0  0
    7.7980   -6.3741   26.2667 H   0  0  0  0  0  0  0  0  0  0  0  0
    7.0995   -6.0328   24.6869 H   0  0  0  0  0  0  0  0  0  0  0  0
    4.8915   -6.7927   25.3978 H   0  0  0  0  0  0  0  0  0  0  0  0
    5.9515   -7.8729   26.2852 H   0  0  0  0  0  0  0  0  0  0  0  0
    7.0283   -6.5270   28.5667 H   0  0  0  0  0  0  0  0  0  0  0  0
    5.8108   -7.8062   28.7575 H   0  0  0  0  0  0  0  0  0  0  0  0
    5.6074   -6.2464   29.5810 H   0  0  0  0  0  0  0  0  0  0  0  0
  1  2  1  0
  2  3  1  0
  3  4  1  0
  2  5  1  0
  5  6  1  0
  6  7  1  0
  7  8  1  0
  8  9  1  0
  9 10  1  0
 10 11  1  0
 11 12  1  0
 12 13  2  0
 12 14  1  0
 14 15  1  0
 15 16  2  0
 16 17  1  0
 17 18  2  0
 18 19  1  0
 19 20  2  0
 20 21  1  0
 18 22  1  0
 17 23  1  0
 16 24  1  0
 14 25  1  0
 14 26  1  0
 11 27  1  0
 27 28  1  0
 28 29  1  0
 28 30  1  0
 27 31  1  0
 27 32  1  0
 10 33  1  0
 10 34  1  0
  9 35  1  0
  9 36  1  0
  8 37  1  0
  7 38  1  0
 38 39  1  0
 38 40  1  0
  7 41  1  0
  6 42  1  0
  6 43  1  0
  5 44  1  0
  5 45  1  0
  1 46  1  0
  1 47  1  0
  1 48  1  0
 38  2  1  0
 28  8  1  0
 20 15  1  0
M  CHG  1   7   1
M  END
>  <plip>  (1) 
-0.10714285714285714

>  <filename>  (1) 
[H][O][C]1([C]([H])([H])[H])[C]([H])([H])[C]([H])([H])[N+]([H])([C]2([H])[C]([H])([H])[C]([H])([H])[N]([C](=[O])[C]([H])([H])[c]3[c]([H])[n][c]([H])[c]([H])[c]3[H])[C]([H])([H])[C]2([H])[H])[C]1([H])[H]

$$$$
