
     RDKit          3D

 31 33  0  0  0  0  0  0  0  0999 V2000
    8.6470   -2.9339   26.8641 C   0  0  0  0  0  0  0  0  0  0  0  0
    8.4088   -2.3891   25.5406 N   0  0  0  0  0  0  0  0  0  0  0  0
    7.2761   -1.6826   25.1931 C   0  0  0  0  0  0  0  0  0  0  0  0
    6.3122   -1.4539   25.8728 O   0  0  0  0  0  0  0  0  0  0  0  0
    7.4310   -1.2633   23.8818 O   0  0  0  0  0  0  0  0  0  0  0  0
    8.6722   -1.6589   23.4567 C   0  0  0  0  0  0  0  0  0  0  0  0
    9.3013   -1.4049   22.2415 C   0  0  0  0  0  0  0  0  0  0  0  0
    8.7401   -0.5763   21.1304 C   0  0  0  0  0  0  0  0  0  0  0  0
    9.4603    0.0800   20.3950 O   0  0  0  0  0  0  0  0  0  0  0  0
    7.3860   -0.6740   20.9411 N   0  0  0  0  0  0  0  0  0  0  0  0
    6.6737   -0.0351   19.8891 C   0  0  0  0  0  0  0  0  0  0  0  0
    5.4573    0.6039   20.1556 C   0  0  0  0  0  0  0  0  0  0  0  0
    4.8077    1.2849   19.1135 C   0  0  0  0  0  0  0  0  0  0  0  0
    5.3896    1.2881   17.8402 C   0  0  0  0  0  0  0  0  0  0  0  0
    6.5465    0.6632   17.5598 N   0  0  0  0  0  0  0  0  0  0  0  0
    7.1706    0.0368   18.5625 C   0  0  0  0  0  0  0  0  0  0  0  0
    8.1272   -0.4146   18.3268 H   0  0  0  0  0  0  0  0  0  0  0  0
    4.9202    1.8174   17.0119 H   0  0  0  0  0  0  0  0  0  0  0  0
    3.8789    1.8286   19.2784 H   0  0  0  0  0  0  0  0  0  0  0  0
    5.0537    0.5965   21.1689 H   0  0  0  0  0  0  0  0  0  0  0  0
    6.8731   -1.0483   21.7269 H   0  0  0  0  0  0  0  0  0  0  0  0
   10.5847   -1.9528   22.0792 C   0  0  0  0  0  0  0  0  0  0  0  0
   11.1728   -2.7531   23.0548 C   0  0  0  0  0  0  0  0  0  0  0  0
   10.5487   -2.9669   24.2913 C   0  0  0  0  0  0  0  0  0  0  0  0
    9.2943   -2.3933   24.4734 C   0  0  0  0  0  0  0  0  0  0  0  0
   11.0458   -3.5251   25.0791 H   0  0  0  0  0  0  0  0  0  0  0  0
   12.1543   -3.1707   22.8625 H   0  0  0  0  0  0  0  0  0  0  0  0
   11.1439   -1.7280   21.1790 H   0  0  0  0  0  0  0  0  0  0  0  0
    9.1083   -3.9251   26.7729 H   0  0  0  0  0  0  0  0  0  0  0  0
    9.3157   -2.2774   27.4353 H   0  0  0  0  0  0  0  0  0  0  0  0
    7.6929   -3.0314   27.3948 H   0  0  0  0  0  0  0  0  0  0  0  0
  1  2  1  0
  2  3  1  0
  3  4  2  0
  3  5  1  0
  5  6  1  0
  6  7  2  0
  7  8  1  0
  8  9  2  0
  8 10  1  0
 10 11  1  0
 11 12  2  0
 12 13  1  0
 13 14  2  0
 14 15  1  0
 15 16  2  0
 16 17  1  0
 14 18  1  0
 13 19  1  0
 12 20  1  0
 10 21  1  0
  7 22  1  0
 22 23  2  0
 23 24  1  0
 24 25  2  0
 24 26  1  0
 23 27  1  0
 22 28  1  0
  1 29  1  0
  1 30  1  0
  1 31  1  0
 25  2  1  0
 25  6  1  0
 16 11  1  0
M  END
>  <plip>  (1) 
-0.10714285714285714

>  <filename>  (1) 
[H][c]1[n][c]([H])[c]([N]([H])[C](=[O])[c]2[c]([H])[c]([H])[c]([H])[c]3[c]2[o][c](=[O])[n]3[C]([H])([H])[H])[c]([H])[c]1[H]

$$$$
