
     RDKit          3D

 52 55  0  0  0  0  0  0  0  0999 V2000
    6.9848   -2.6807   21.6707 C   0  0  0  0  0  0  0  0  0  0  0  0
    7.1273   -2.8120   21.3816 C   0  0  0  0  0  0  0  0  0  0  0  0
    5.5112   -2.7900   21.7529 C   0  0  0  0  0  0  0  0  0  0  0  0
    4.9320   -1.8560   21.4899 H   0  0  0  0  0  0  0  0  0  0  0  0
    5.1209   -2.8837   22.8180 H   0  0  0  0  0  0  0  0  0  0  0  0
    4.8596   -3.5807   21.2642 H   0  0  0  0  0  0  0  0  0  0  0  0
    7.3380   -1.1410   21.7168 C   0  0  0  0  0  0  0  0  0  0  0  0
    6.9479   -0.2936   20.4719 C   0  0  0  0  0  0  0  0  0  0  0  0
    5.7558    0.4456   20.4291 C   0  0  0  0  0  0  0  0  0  0  0  0
    5.3927    1.1075   19.2506 C   0  0  0  0  0  0  0  0  0  0  0  0
    6.2453    1.0136   18.1481 C   0  0  0  0  0  0  0  0  0  0  0  0
    7.4076    0.3499   18.1760 N   0  0  0  0  0  0  0  0  0  0  0  0
    7.7453   -0.2764   19.3190 C   0  0  0  0  0  0  0  0  0  0  0  0
    8.7105   -0.7865   19.2917 H   0  0  0  0  0  0  0  0  0  0  0  0
    5.9901    1.5079   17.2108 H   0  0  0  0  0  0  0  0  0  0  0  0
    4.4745    1.6817   19.1797 H   0  0  0  0  0  0  0  0  0  0  0  0
    5.1372    0.5387   21.3260 H   0  0  0  0  0  0  0  0  0  0  0  0
    8.7446   -0.7636   22.1605 N   0  0  0  0  0  0  0  0  0  0  0  0
    9.7132   -1.7935   22.5884 C   0  0  0  0  0  0  0  0  0  0  0  0
    9.3531   -2.3476   23.4598 H   0  0  0  0  0  0  0  0  0  0  0  0
   10.6651   -1.3243   22.8606 H   0  0  0  0  0  0  0  0  0  0  0  0
    9.9338   -2.4886   21.7665 H   0  0  0  0  0  0  0  0  0  0  0  0
    9.2256    0.5441   22.1701 C   0  0  0  0  0  0  0  0  0  0  0  0
   10.4233    0.7367   21.9855 O   0  0  0  0  0  0  0  0  0  0  0  0
    8.3511    1.8027   22.4161 C   0  0  0  0  0  0  0  0  0  0  0  0
    8.8499    3.0103   22.0043 C   0  0  0  0  0  0  0  0  0  0  0  0
    7.7759    4.2760   22.3741 S   0  0  0  0  0  0  0  0  0  0  0  0
    6.7056    3.1278   23.1370 C   0  0  0  0  0  0  0  0  0  0  0  0
    5.4582    3.5725   23.8023 C   0  0  0  0  0  0  0  0  0  0  0  0
    4.6798    2.6579   24.5435 C   0  0  0  0  0  0  0  0  0  0  0  0
    3.5418    3.0907   25.2287 C   0  0  0  0  0  0  0  0  0  0  0  0
    3.1626    4.4335   25.1985 C   0  0  0  0  0  0  0  0  0  0  0  0
    2.0513    4.8330   25.8954 O   0  0  0  0  0  0  0  0  0  0  0  0
    2.0034    6.2398   26.1683 C   0  0  0  0  0  0  0  0  0  0  0  0
    2.3101    7.0304   24.9010 C   0  0  0  0  0  0  0  0  0  0  0  0
    3.6111    6.6920   24.4092 O   0  0  0  0  0  0  0  0  0  0  0  0
    3.9225    5.3576   24.4396 C   0  0  0  0  0  0  0  0  0  0  0  0
    5.0465    4.9249   23.7486 C   0  0  0  0  0  0  0  0  0  0  0  0
    5.5752    5.6862   23.1810 H   0  0  0  0  0  0  0  0  0  0  0  0
    2.3351    8.1043   25.0994 H   0  0  0  0  0  0  0  0  0  0  0  0
    1.5547    6.8170   24.1324 H   0  0  0  0  0  0  0  0  0  0  0  0
    2.7353    6.4943   26.9478 H   0  0  0  0  0  0  0  0  0  0  0  0
    0.9968    6.4467   26.5380 H   0  0  0  0  0  0  0  0  0  0  0  0
    2.9316    2.4123   25.8160 H   0  0  0  0  0  0  0  0  0  0  0  0
    4.9747    1.6116   24.5911 H   0  0  0  0  0  0  0  0  0  0  0  0
    7.1392    1.8939   23.0855 N   0  0  0  0  0  0  0  0  0  0  0  0
    9.8212    3.1913   21.5716 H   0  0  0  0  0  0  0  0  0  0  0  0
    6.7058   -0.6906   22.5329 H   0  0  0  0  0  0  0  0  0  0  0  0
    7.5753   -3.1696   22.5131 H   0  0  0  0  0  0  0  0  0  0  0  0
    7.0931   -2.7920   20.1708 H   0  0  0  0  0  0  0  0  0  0  0  0
    7.1814   -4.3902   21.0175 H   0  0  0  0  0  0  0  0  0  0  0  0
    8.5456   -2.9530   20.8287 H   0  0  0  0  0  0  0  0  0  0  0  0
  1  2  1  0
  2  3  1  0
  3  4  1  0
  3  5  1  0
  3  6  1  0
  2  7  1  0
  7  8  1  0
  8  9  2  0
  9 10  1  0
 10 11  2  0
 11 12  1  0
 12 13  2  0
 13 14  1  0
 11 15  1  0
 10 16  1  0
  9 17  1  0
  7 18  1  0
 18 19  1  0
 19 20  1  0
 19 21  1  0
 19 22  1  0
 18 23  1  0
 23 24  2  0
 23 25  1  0
 25 26  2  0
 26 27  1  0
 27 28  1  0
 28 29  1  0
 29 30  2  0
 30 31  1  0
 31 32  2  0
 32 33  1  0
 33 34  1  0
 34 35  1  0
 35 36  1  0
 36 37  1  0
 37 38  2  0
 38 39  1  0
 35 40  1  0
 35 41  1  0
 34 42  1  0
 34 43  1  0
 31 44  1  0
 30 45  1  0
 28 46  2  0
 26 47  1  0
  7 48  1  0
  2 49  1  0
  1 50  1  0
  1 51  1  0
  1 52  1  0
 13  8  1  0
 46 25  1  0
 38 29  1  0
 37 32  1  0
M  END
>  <plip>  (1) 
-0.06896551724137931

>  <filename>  (1) 
[H][c]1[n][c]([H])[c]([C]([H])([N]([C](=[O])[c]2[n][c](-[c]3[c]([H])[c]([H])[c]4[c]([c]3[H])[O][C]([H])([H])[C]([H])([H])[O]4)[s][c]2[H])[C]([H])([H])[H])[C]([H])([C]([H])([H])[H])[C]([H])([H])[H])[c]([H])[c]1[H]

$$$$
