
     RDKit          3D

 27 29  0  0  0  0  0  0  0  0999 V2000
    9.4227   -0.2195   20.0726 O   0  0  0  0  0  0  0  0  0  0  0  0
    8.6496   -0.8956   20.7298 C   0  0  0  0  0  0  0  0  0  0  0  0
    7.2870   -0.7673   20.6019 N   0  0  0  0  0  0  0  0  0  0  0  0
    6.6017    0.0020   19.6318 C   0  0  0  0  0  0  0  0  0  0  0  0
    5.3982    0.6147   19.9923 C   0  0  0  0  0  0  0  0  0  0  0  0
    4.7165    1.3451   19.0125 C   0  0  0  0  0  0  0  0  0  0  0  0
    5.2476    1.4414   17.7225 C   0  0  0  0  0  0  0  0  0  0  0  0
    6.4004    0.8559   17.3589 N   0  0  0  0  0  0  0  0  0  0  0  0
    7.0594    0.1693   18.2987 C   0  0  0  0  0  0  0  0  0  0  0  0
    8.0027   -0.2817   18.0072 H   0  0  0  0  0  0  0  0  0  0  0  0
    4.7454    2.0131   16.9468 H   0  0  0  0  0  0  0  0  0  0  0  0
    3.7891    1.8511   19.2432 H   0  0  0  0  0  0  0  0  0  0  0  0
    5.0309    0.5490   21.0185 H   0  0  0  0  0  0  0  0  0  0  0  0
    6.7348   -1.1251   21.3626 H   0  0  0  0  0  0  0  0  0  0  0  0
    9.1223   -1.9424   21.7202 C   0  0  0  0  0  0  0  0  0  0  0  0
   10.5307   -2.0537   21.8648 C   0  0  0  0  0  0  0  0  0  0  0  0
   11.1109   -2.8906   22.8060 C   0  0  0  0  0  0  0  0  0  0  0  0
   10.2683   -3.6711   23.6107 C   0  0  0  0  0  0  0  0  0  0  0  0
   10.6554   -4.8036   24.8705 S   0  0  0  0  0  0  0  0  0  0  0  0
    8.9445   -5.1533   25.0138 C   0  0  0  0  0  0  0  0  0  0  0  0
    8.1424   -4.5107   24.2443 N   0  0  0  0  0  0  0  0  0  0  0  0
    8.8676   -3.6545   23.4175 C   0  0  0  0  0  0  0  0  0  0  0  0
    8.2915   -2.7836   22.4846 C   0  0  0  0  0  0  0  0  0  0  0  0
    7.2022   -2.8399   22.4153 H   0  0  0  0  0  0  0  0  0  0  0  0
    8.6078   -5.8939   25.7313 H   0  0  0  0  0  0  0  0  0  0  0  0
   12.1916   -2.9524   22.8821 H   0  0  0  0  0  0  0  0  0  0  0  0
   11.1650   -1.4695   21.2025 H   0  0  0  0  0  0  0  0  0  0  0  0
  1  2  2  0
  2  3  1  0
  3  4  1  0
  4  5  2  0
  5  6  1  0
  6  7  2  0
  7  8  1  0
  8  9  2  0
  9 10  1  0
  7 11  1  0
  6 12  1  0
  5 13  1  0
  3 14  1  0
  2 15  1  0
 15 16  2  0
 16 17  1  0
 17 18  2  0
 18 19  1  0
 19 20  1  0
 20 21  2  0
 21 22  1  0
 22 23  2  0
 23 24  1  0
 20 25  1  0
 17 26  1  0
 16 27  1  0
  9  4  1  0
 23 15  1  0
 22 18  1  0
M  END
>  <plip>  (1) 
-0.10344827586206896

>  <filename>  (1) 
[H][c]1[n][c]2[c]([H])[c]([C](=[O])[N]([H])[c]3[c]([H])[n][c]([H])[c]([H])[c]3[H])[c]([H])[c]([H])[c]2[s]1

$$$$
