
     RDKit          3D

 35 37  0  0  0  0  0  0  0  0999 V2000
    5.3069   -3.9484   21.9790 C   0  0  0  0  0  0  0  0  0  0  0  0
    5.4298   -3.5840   23.4288 C   0  0  0  0  0  0  0  0  0  0  0  0
    4.5735   -4.2033   24.3502 C   0  0  0  0  0  0  0  0  0  0  0  0
    4.6578   -3.9059   25.7138 C   0  0  0  0  0  0  0  0  0  0  0  0
    3.2747   -4.9068   27.1738 I   0  0  0  0  0  0  0  0  0  0  0  0
    5.6044   -2.9834   26.1673 C   0  0  0  0  0  0  0  0  0  0  0  0
    6.4614   -2.3586   25.2544 C   0  0  0  0  0  0  0  0  0  0  0  0
    6.3845   -2.6395   23.8767 C   0  0  0  0  0  0  0  0  0  0  0  0
    7.2375   -1.9668   22.9832 N   0  0  0  0  0  0  0  0  0  0  0  0
    6.6507   -1.2631   21.9424 N   0  0  0  0  0  0  0  0  0  0  0  0
    7.3603   -0.7187   20.9712 C   0  0  0  0  0  0  0  0  0  0  0  0
    6.6622    0.0085   19.9084 C   0  0  0  0  0  0  0  0  0  0  0  0
    5.4420    0.6471   20.1609 C   0  0  0  0  0  0  0  0  0  0  0  0
    4.8157    1.3075   19.1065 C   0  0  0  0  0  0  0  0  0  0  0  0
    5.4045    1.2919   17.8356 C   0  0  0  0  0  0  0  0  0  0  0  0
    6.5745    0.6746   17.5908 N   0  0  0  0  0  0  0  0  0  0  0  0
    7.1924    0.0589   18.6122 C   0  0  0  0  0  0  0  0  0  0  0  0
    8.1325   -0.4400   18.3976 H   0  0  0  0  0  0  0  0  0  0  0  0
    4.8923    1.7846   17.0144 H   0  0  0  0  0  0  0  0  0  0  0  0
    3.8785    1.8368   19.2643 H   0  0  0  0  0  0  0  0  0  0  0  0
    5.0012    0.6340   21.1575 H   0  0  0  0  0  0  0  0  0  0  0  0
    8.8644   -0.9018   20.9173 C   0  0  0  0  0  0  0  0  0  0  0  0
    9.4669   -1.0095   22.3279 C   0  0  0  0  0  0  0  0  0  0  0  0
    8.6213   -1.9415   23.1985 C   0  0  0  0  0  0  0  0  0  0  0  0
    9.1842   -2.6302   24.0465 O   0  0  0  0  0  0  0  0  0  0  0  0
   10.4973   -1.3671   22.2683 H   0  0  0  0  0  0  0  0  0  0  0  0
    9.4798   -0.0250   22.7994 H   0  0  0  0  0  0  0  0  0  0  0  0
    9.3371   -0.0717   20.3794 H   0  0  0  0  0  0  0  0  0  0  0  0
    9.0721   -1.8193   20.3617 H   0  0  0  0  0  0  0  0  0  0  0  0
    7.1694   -1.6298   25.6313 H   0  0  0  0  0  0  0  0  0  0  0  0
    5.6530   -2.7614   27.2323 H   0  0  0  0  0  0  0  0  0  0  0  0
    3.8257   -4.9253   24.0277 H   0  0  0  0  0  0  0  0  0  0  0  0
    6.2962   -4.0176   21.5258 H   0  0  0  0  0  0  0  0  0  0  0  0
    4.7317   -3.1821   21.4615 H   0  0  0  0  0  0  0  0  0  0  0  0
    4.8017   -4.9121   21.8517 H   0  0  0  0  0  0  0  0  0  0  0  0
  1  2  1  0
  2  3  2  0
  3  4  1  0
  4  5  1  0
  4  6  2  0
  6  7  1  0
  7  8  2  0
  8  9  1  0
  9 10  1  0
 10 11  2  0
 11 12  1  0
 12 13  2  0
 13 14  1  0
 14 15  2  0
 15 16  1  0
 16 17  2  0
 17 18  1  0
 15 19  1  0
 14 20  1  0
 13 21  1  0
 11 22  1  0
 22 23  1  0
 23 24  1  0
 24 25  2  0
 23 26  1  0
 23 27  1  0
 22 28  1  0
 22 29  1  0
  7 30  1  0
  6 31  1  0
  3 32  1  0
  1 33  1  0
  1 34  1  0
  1 35  1  0
  8  2  1  0
 24  9  1  0
 17 12  1  0
M  END
>  <plip>  (1) 
-0.034482758620689655

>  <filename>  (1) 
[H][c]1[n][c]([H])[c]([C]2=[N][N]([c]3[c]([H])[c]([H])[c]([I])[c]([H])[c]3[C]([H])([H])[H])[C](=[O])[C]([H])([H])[C]2([H])[H])[c]([H])[c]1[H]

$$$$
