
     RDKit          3D

 30 32  0  0  0  0  0  0  0  0999 V2000
    4.9191    1.7536   16.9185 H   0  0  0  0  0  0  0  0  0  0  0  0
    5.4166    1.2825   17.7617 C   0  0  0  0  0  0  0  0  0  0  0  0
    6.5805    0.6674   17.4874 N   0  0  0  0  0  0  0  0  0  0  0  0
    7.2197    0.0817   18.5059 C   0  0  0  0  0  0  0  0  0  0  0  0
    8.1550   -0.4204   18.2513 H   0  0  0  0  0  0  0  0  0  0  0  0
    6.7570    0.0892   19.8446 C   0  0  0  0  0  0  0  0  0  0  0  0
    7.4896   -0.5605   20.9495 C   0  0  0  0  0  0  0  0  0  0  0  0
    8.4785   -1.4935   20.9077 C   0  0  0  0  0  0  0  0  0  0  0  0
    9.0152   -1.8762   20.0454 H   0  0  0  0  0  0  0  0  0  0  0  0
    8.8963   -1.8830   22.1676 N   0  0  0  0  0  0  0  0  0  0  0  0
    9.1154   -2.8598   22.3575 H   0  0  0  0  0  0  0  0  0  0  0  0
    7.9177   -1.3827   23.0519 N   0  0  0  0  0  0  0  0  0  0  0  0
    8.5063   -1.1038   24.2966 O   0  0  0  0  0  0  0  0  0  0  0  0
    7.6371   -1.0214   25.3764 C   0  0  0  0  0  0  0  0  0  0  0  0
    6.2816   -1.3807   25.3290 C   0  0  0  0  0  0  0  0  0  0  0  0
    5.8795   -1.8724   24.4468 H   0  0  0  0  0  0  0  0  0  0  0  0
    5.4521   -1.0806   26.4110 C   0  0  0  0  0  0  0  0  0  0  0  0
    4.3859   -1.2769   26.3650 H   0  0  0  0  0  0  0  0  0  0  0  0
    5.9907   -0.4978   27.5596 C   0  0  0  0  0  0  0  0  0  0  0  0
    4.9493   -0.0783   28.8848 Cl  0  0  0  0  0  0  0  0  0  0  0  0
    7.3624   -0.2446   27.6521 C   0  0  0  0  0  0  0  0  0  0  0  0
    7.7746    0.1868   28.5594 H   0  0  0  0  0  0  0  0  0  0  0  0
    8.1930   -0.5212   26.5649 C   0  0  0  0  0  0  0  0  0  0  0  0
    9.2642   -0.3462   26.6142 H   0  0  0  0  0  0  0  0  0  0  0  0
    7.2283   -0.3080   22.3914 C   0  0  0  0  0  0  0  0  0  0  0  0
    6.6094    0.5553   22.9709 O   0  0  0  0  0  0  0  0  0  0  0  0
    5.5361    0.7457   20.0993 C   0  0  0  0  0  0  0  0  0  0  0  0
    5.1559    0.7873   21.1217 H   0  0  0  0  0  0  0  0  0  0  0  0
    4.8537    1.3402   19.0407 C   0  0  0  0  0  0  0  0  0  0  0  0
    3.9055    1.8500   19.1903 H   0  0  0  0  0  0  0  0  0  0  0  0
  1  2  1  0
  2  3  2  0
  3  4  1  0
  4  5  1  0
  4  6  2  0
  6  7  1  0
  7  8  2  0
  8  9  1  0
  8 10  1  0
 10 11  1  0
 10 12  1  0
 12 13  1  0
 13 14  1  0
 14 15  2  0
 15 16  1  0
 15 17  1  0
 17 18  1  0
 17 19  2  0
 19 20  1  0
 19 21  1  0
 21 22  1  0
 21 23  2  0
 23 24  1  0
 12 25  1  0
 25 26  2  0
  6 27  1  0
 27 28  1  0
 27 29  2  0
 29 30  1  0
 29  2  1  0
 25  7  1  0
 23 14  1  0
M  END
>  <plip>  (1) 
-0.03571428571428571

>  <filename>  (1) 
[H][c]1[n][c]([H])[c](-[c]2[c]([H])[n]([H])[n]([O][c]3[c]([H])[c]([H])[c]([Cl])[c]([H])[c]3[H])[c]2=[O])[c]([H])[c]1[H]

$$$$
