
     RDKit          3D

 26 27  0  0  0  0  0  0  0  0999 V2000
    4.9103    1.7810   16.9948 H   0  0  0  0  0  0  0  0  0  0  0  0
    5.3988    1.2943   17.8353 C   0  0  0  0  0  0  0  0  0  0  0  0
    6.5667    0.6785   17.5766 N   0  0  0  0  0  0  0  0  0  0  0  0
    7.1766    0.0632   18.5950 C   0  0  0  0  0  0  0  0  0  0  0  0
    8.1240   -0.4271   18.3676 H   0  0  0  0  0  0  0  0  0  0  0  0
    6.6694    0.0095   19.9171 C   0  0  0  0  0  0  0  0  0  0  0  0
    7.3925   -0.6570   20.9515 N   0  0  0  0  0  0  0  0  0  0  0  0
    8.2700   -1.1184   20.7206 H   0  0  0  0  0  0  0  0  0  0  0  0
    6.9966   -0.8673   22.5636 S   0  0  0  0  0  4  0  0  0  0  0  0
    7.0175   -2.2765   22.9211 O   0  0  0  0  0  0  0  0  0  0  0  0
    8.0040    0.0911   23.5050 N   0  0  0  0  0  0  0  0  0  0  0  0
    9.3569   -0.1914   23.4903 C   0  0  0  0  0  0  0  0  0  0  0  0
    9.8779   -1.1107   22.9056 O   0  0  0  0  0  0  0  0  0  0  0  0
   10.0366    0.8716   24.3209 C   0  0  0  0  0  0  0  0  0  0  0  0
   10.7493    1.3939   23.6821 H   0  0  0  0  0  0  0  0  0  0  0  0
   10.6237    0.3884   25.1015 H   0  0  0  0  0  0  0  0  0  0  0  0
    8.9369    1.7900   24.8759 C   0  0  0  0  0  0  0  0  0  0  0  0
    9.1241    2.8353   24.6189 H   0  0  0  0  0  0  0  0  0  0  0  0
    8.8863    1.7209   25.9660 H   0  0  0  0  0  0  0  0  0  0  0  0
    7.6185    1.3083   24.2434 C   0  0  0  0  0  0  0  0  0  0  0  0
    6.8644    1.0621   24.9995 H   0  0  0  0  0  0  0  0  0  0  0  0
    7.1970    2.0540   23.5557 H   0  0  0  0  0  0  0  0  0  0  0  0
    5.4449    0.6460   20.1666 C   0  0  0  0  0  0  0  0  0  0  0  0
    5.0078    0.6233   21.1655 H   0  0  0  0  0  0  0  0  0  0  0  0
    4.8139    1.3051   19.1068 C   0  0  0  0  0  0  0  0  0  0  0  0
    3.8808    1.8375   19.2639 H   0  0  0  0  0  0  0  0  0  0  0  0
  1  2  1  0
  2  3  2  0
  3  4  1  0
  4  5  1  0
  4  6  2  0
  6  7  1  0
  7  8  1  0
  9  7  1  6
  9 10  2  0
  9 11  1  0
 11 12  1  0
 12 13  2  0
 12 14  1  0
 14 15  1  0
 14 16  1  0
 14 17  1  0
 17 18  1  0
 17 19  1  0
 17 20  1  0
 20 21  1  0
 20 22  1  0
  6 23  1  0
 23 24  1  0
 23 25  2  0
 25 26  1  0
 25  2  1  0
 20 11  1  0
M  END
>  <plip>  (1) 
-0.03571428571428571

>  <filename>  (1) 
[H][c]1[n][c]([H])[c]([N]([H])[S@@](=[O])[N]2[C](=[O])[C]([H])([H])[C]([H])([H])[C]2([H])[H])[c]([H])[c]1[H]

$$$$
