
     RDKit          3D

 33 34  0  0  0  0  0  0  0  0999 V2000
    6.8451   -3.7609   27.0933 C   0  0  0  0  0  0  0  0  0  0  0  0
    7.1491   -2.2552   27.2509 C   0  0  0  0  0  0  0  0  0  0  0  0
    7.1330   -1.5076   25.9629 C   0  0  0  0  0  0  0  0  0  0  0  0
    6.1061   -0.9665   25.4220 N   0  0  0  0  0  0  0  0  0  0  0  0
    6.5163   -0.4517   24.1920 N   0  0  0  0  0  0  0  0  0  0  0  0
    7.7789   -0.7240   24.1084 C   0  0  0  0  0  0  0  0  0  0  0  0
    8.6313   -0.4056   23.1242 N   0  0  0  0  0  0  0  0  0  0  0  0
    8.1518    0.2771   21.9304 C   0  0  0  0  0  0  0  0  0  0  0  0
    9.3052    0.9617   21.2185 C   0  0  0  0  0  0  0  0  0  0  0  0
   10.0000    0.2329   20.7802 H   0  0  0  0  0  0  0  0  0  0  0  0
    9.8593    1.6320   21.8834 H   0  0  0  0  0  0  0  0  0  0  0  0
    8.8944    1.5652   20.4081 H   0  0  0  0  0  0  0  0  0  0  0  0
    7.3893   -0.7069   21.0068 C   0  0  0  0  0  0  0  0  0  0  0  0
    6.6462   -0.0143   19.8877 C   0  0  0  0  0  0  0  0  0  0  0  0
    5.4365    0.6479   20.1421 C   0  0  0  0  0  0  0  0  0  0  0  0
    4.8022    1.3141   19.0929 C   0  0  0  0  0  0  0  0  0  0  0  0
    5.3910    1.3021   17.8246 C   0  0  0  0  0  0  0  0  0  0  0  0
    6.5524    0.6860   17.5596 N   0  0  0  0  0  0  0  0  0  0  0  0
    7.1538    0.0561   18.5774 C   0  0  0  0  0  0  0  0  0  0  0  0
    8.1083   -0.4195   18.3470 H   0  0  0  0  0  0  0  0  0  0  0  0
    4.9132    1.7999   16.9827 H   0  0  0  0  0  0  0  0  0  0  0  0
    3.8743    1.8462   19.2466 H   0  0  0  0  0  0  0  0  0  0  0  0
    5.0215    0.6346   21.1551 H   0  0  0  0  0  0  0  0  0  0  0  0
    8.1096   -1.4392   20.6163 H   0  0  0  0  0  0  0  0  0  0  0  0
    6.6916   -1.2535   21.6556 H   0  0  0  0  0  0  0  0  0  0  0  0
    7.4279    1.0482   22.2478 H   0  0  0  0  0  0  0  0  0  0  0  0
    9.5802   -0.7039   23.2412 H   0  0  0  0  0  0  0  0  0  0  0  0
    8.2649   -1.3985   25.1787 O   0  0  0  0  0  0  0  0  0  0  0  0
    8.1094   -2.1032   27.7487 H   0  0  0  0  0  0  0  0  0  0  0  0
    6.3805   -1.8012   27.8887 H   0  0  0  0  0  0  0  0  0  0  0  0
    6.8229   -4.2743   28.0629 H   0  0  0  0  0  0  0  0  0  0  0  0
    7.6037   -4.2521   26.4757 H   0  0  0  0  0  0  0  0  0  0  0  0
    5.8697   -3.9224   26.6189 H   0  0  0  0  0  0  0  0  0  0  0  0
  1  2  1  0
  2  3  1  0
  3  4  2  0
  4  5  1  0
  5  6  2  0
  6  7  1  0
  7  8  1  0
  8  9  1  0
  9 10  1  0
  9 11  1  0
  9 12  1  0
  8 13  1  0
 13 14  1  0
 14 15  2  0
 15 16  1  0
 16 17  2  0
 17 18  1  0
 18 19  2  0
 19 20  1  0
 17 21  1  0
 16 22  1  0
 15 23  1  0
 13 24  1  0
 13 25  1  0
  8 26  1  0
  7 27  1  0
  6 28  1  0
  2 29  1  0
  2 30  1  0
  1 31  1  0
  1 32  1  0
  1 33  1  0
 28  3  1  0
 19 14  1  0
M  END
>  <plip>  (1) 
-0.03571428571428571

>  <filename>  (1) 
[H][c]1[n][c]([H])[c]([C]([H])([H])[C]([H])([N]([H])[c]2[n][n][c]([C]([H])([H])[C]([H])([H])[H])[o]2)[C]([H])([H])[H])[c]([H])[c]1[H]

$$$$
