
     RDKit          3D

 29 30  0  0  0  0  0  0  0  0999 V2000
    7.8234    0.7755   22.9137 O   0  0  0  0  0  0  0  0  0  0  0  0
    8.2456    0.3536   21.8523 C   0  0  0  0  0  0  0  0  0  0  0  0
    7.4820   -0.6417   20.9714 C   0  0  0  0  0  0  0  0  0  0  0  0
    6.7144   -0.0156   19.8093 C   0  0  0  0  0  0  0  0  0  0  0  0
    5.5067    0.6415   20.0855 C   0  0  0  0  0  0  0  0  0  0  0  0
    4.8356    1.3046   19.0566 C   0  0  0  0  0  0  0  0  0  0  0  0
    5.3958    1.3085   17.7783 C   0  0  0  0  0  0  0  0  0  0  0  0
    6.5300    0.6570   17.4766 N   0  0  0  0  0  0  0  0  0  0  0  0
    7.1555    0.0107   18.4718 C   0  0  0  0  0  0  0  0  0  0  0  0
    8.0677   -0.5086   18.1748 H   0  0  0  0  0  0  0  0  0  0  0  0
    4.9164    1.8519   16.9607 H   0  0  0  0  0  0  0  0  0  0  0  0
    3.9011    1.8275   19.2325 H   0  0  0  0  0  0  0  0  0  0  0  0
    5.1098    0.6391   21.1019 H   0  0  0  0  0  0  0  0  0  0  0  0
    6.7819   -1.1332   21.6490 H   0  0  0  0  0  0  0  0  0  0  0  0
    8.1823   -1.4070   20.6231 H   0  0  0  0  0  0  0  0  0  0  0  0
    9.4495    0.7254   21.3533 N   0  0  0  0  0  0  0  0  0  0  0  0
   10.2523    1.7417   21.9988 C   0  0  0  0  0  0  0  0  0  0  0  0
   11.5905    1.8281   21.2726 C   0  0  0  0  0  0  0  0  0  0  0  0
   12.4069    2.8914   21.8246 N   0  0  0  0  0  0  0  0  0  0  0  0
   13.1147    2.7370   22.9300 N   0  0  0  0  0  0  0  0  0  0  0  0
   13.6418    3.9428   23.0651 C   0  0  0  0  0  0  0  0  0  0  0  0
   13.2458    4.7965   22.0998 N   0  0  0  0  0  0  0  0  0  0  0  0
   12.4533    4.1091   21.3252 N   0  0  0  0  0  0  0  0  0  0  0  0
   14.3266    4.2168   23.8497 H   0  0  0  0  0  0  0  0  0  0  0  0
   12.1509    0.8959   21.3962 H   0  0  0  0  0  0  0  0  0  0  0  0
   11.4356    2.0454   20.2111 H   0  0  0  0  0  0  0  0  0  0  0  0
    9.7505    2.7221   21.9695 H   0  0  0  0  0  0  0  0  0  0  0  0
   10.3913    1.4707   23.0543 H   0  0  0  0  0  0  0  0  0  0  0  0
    9.7712    0.2794   20.5115 H   0  0  0  0  0  0  0  0  0  0  0  0
  1  2  2  0
  2  3  1  0
  3  4  1  0
  4  5  2  0
  5  6  1  0
  6  7  2  0
  7  8  1  0
  8  9  2  0
  9 10  1  0
  7 11  1  0
  6 12  1  0
  5 13  1  0
  3 14  1  0
  3 15  1  0
  2 16  1  0
 16 17  1  0
 17 18  1  0
 18 19  1  0
 19 20  1  0
 20 21  2  0
 21 22  1  0
 22 23  2  0
 21 24  1  0
 18 25  1  0
 18 26  1  0
 17 27  1  0
 17 28  1  0
 16 29  1  0
  9  4  1  0
 23 19  1  0
M  END
>  <plip>  (1) 
-0.1

>  <filename>  (1) 
[H][c]1[n][n][n]([C]([H])([H])[C]([H])([H])[N]([H])[C](=[O])[C]([H])([H])[c]2[c]([H])[n][c]([H])[c]([H])[c]2[H])[n]1

$$$$
