
     RDKit          3D

 29 30  0  0  0  0  0  0  0  0999 V2000
   11.7666    1.4269   21.8791 C   0  0  0  0  0  0  0  0  0  0  0  0
   10.5388    0.8661   22.5944 C   0  0  0  0  0  0  0  0  0  0  0  0
    9.4719    1.8305   22.7208 N   0  0  0  0  0  0  0  0  0  0  0  0
    8.3123    1.4450   22.1245 C   0  0  0  0  0  0  0  0  0  0  0  0
    7.2841    2.0776   22.1297 O   0  0  0  0  0  0  0  0  0  0  0  0
    8.5386    0.2032   21.5471 N   0  0  0  0  0  0  0  0  0  0  0  0
    7.4901   -0.6570   21.0028 C   0  0  1  0  0  0  0  0  0  0  0  0
    6.6457   -1.2428   22.1309 C   0  0  0  0  0  0  0  0  0  0  0  0
    6.2288   -0.4471   22.7588 H   0  0  0  0  0  0  0  0  0  0  0  0
    5.8222   -1.8247   21.7082 H   0  0  0  0  0  0  0  0  0  0  0  0
    7.2503   -1.9090   22.7553 H   0  0  0  0  0  0  0  0  0  0  0  0
    6.6885    0.0518   19.9333 C   0  0  0  0  0  0  0  0  0  0  0  0
    5.4489    0.6613   20.1616 C   0  0  0  0  0  0  0  0  0  0  0  0
    4.8080    1.3025   19.1009 C   0  0  0  0  0  0  0  0  0  0  0  0
    5.4035    1.2854   17.8386 C   0  0  0  0  0  0  0  0  0  0  0  0
    6.5671    0.6678   17.5890 N   0  0  0  0  0  0  0  0  0  0  0  0
    7.1830    0.0796   18.6205 C   0  0  0  0  0  0  0  0  0  0  0  0
    8.1233   -0.4162   18.3767 H   0  0  0  0  0  0  0  0  0  0  0  0
    4.9287    1.7807   16.9932 H   0  0  0  0  0  0  0  0  0  0  0  0
    3.8795    1.8345   19.2518 H   0  0  0  0  0  0  0  0  0  0  0  0
    4.9981    0.6505   21.1569 H   0  0  0  0  0  0  0  0  0  0  0  0
    8.0274   -1.4863   20.5262 H   0  0  0  0  0  0  0  0  0  0  0  0
    9.8093   -0.2459   21.8191 C   0  0  0  0  0  0  0  0  0  0  0  0
   10.2452   -1.3282   21.5085 O   0  0  0  0  0  0  0  0  0  0  0  0
    9.4685    2.7128   23.1916 H   0  0  0  0  0  0  0  0  0  0  0  0
   10.8380    0.4478   23.5692 H   0  0  0  0  0  0  0  0  0  0  0  0
   12.5049    0.6319   21.7443 H   0  0  0  0  0  0  0  0  0  0  0  0
   12.2273    2.2357   22.4582 H   0  0  0  0  0  0  0  0  0  0  0  0
   11.4761    1.8259   20.9024 H   0  0  0  0  0  0  0  0  0  0  0  0
  1  2  1  0
  2  3  1  0
  3  4  1  0
  4  5  2  0
  4  6  1  0
  6  7  1  0
  7  8  1  0
  8  9  1  0
  8 10  1  0
  8 11  1  0
  7 12  1  0
 12 13  2  0
 13 14  1  0
 14 15  2  0
 15 16  1  0
 16 17  2  0
 17 18  1  0
 15 19  1  0
 14 20  1  0
 13 21  1  0
  7 22  1  6
  6 23  1  0
 23 24  2  0
  3 25  1  0
  2 26  1  0
  1 27  1  0
  1 28  1  0
  1 29  1  0
 23  2  1  0
 17 12  1  0
M  END
>  <plip>  (1) 
-0.03571428571428571

>  <filename>  (1) 
[H][c]1[n][c]([H])[c]([C@@]([H])([N]2[C](=[O])[N]([H])[C]([H])([C]([H])([H])[H])[C]2=[O])[C]([H])([H])[H])[c]([H])[c]1[H]

$$$$
