
     RDKit          3D

 41 43  0  0  0  0  0  0  0  0999 V2000
    8.3572    3.8252   24.6348 N   0  0  0  0  0  4  0  0  0  0  0  0
    8.2415    3.7090   23.0846 C   0  0  0  0  0  0  0  0  0  0  0  0
    8.9309    2.3897   22.6579 C   0  0  0  0  0  0  0  0  0  0  0  0
    8.9584    2.0547   21.1236 N   0  0  0  0  0  4  0  0  0  0  0  0
    9.5747    0.6711   20.8496 C   0  0  0  0  0  0  0  0  0  0  0  0
    8.6951   -0.3997   21.4210 C   0  0  0  0  0  0  0  0  0  0  0  0
    8.8780   -1.3206   22.4344 C   0  0  0  0  0  0  0  0  0  0  0  0
    7.6286   -1.9605   22.5673 C   0  0  0  0  0  0  0  0  0  0  0  0
    6.7398   -1.4855   21.7102 N   0  0  0  0  0  0  0  0  0  0  0  0
    7.3954   -0.5439   21.0012 N   0  0  0  0  0  0  0  0  0  0  0  0
    6.7008    0.0841   19.9438 C   0  0  0  0  0  0  0  0  0  0  0  0
    5.4542    0.6798   20.1778 C   0  0  0  0  0  0  0  0  0  0  0  0
    4.8283    1.3276   19.1133 C   0  0  0  0  0  0  0  0  0  0  0  0
    5.4371    1.3075   17.8523 C   0  0  0  0  0  0  0  0  0  0  0  0
    6.5927    0.6697   17.6097 N   0  0  0  0  0  0  0  0  0  0  0  0
    7.1985    0.0547   18.6315 C   0  0  0  0  0  0  0  0  0  0  0  0
    8.1195   -0.4801   18.4000 H   0  0  0  0  0  0  0  0  0  0  0  0
    4.9727    1.8074   17.0057 H   0  0  0  0  0  0  0  0  0  0  0  0
    3.8804    1.8362   19.2444 H   0  0  0  0  0  0  0  0  0  0  0  0
    4.9888    0.6007   21.1638 H   0  0  0  0  0  0  0  0  0  0  0  0
    7.3348   -2.7541   23.2459 H   0  0  0  0  0  0  0  0  0  0  0  0
    9.7662   -1.4615   23.0406 H   0  0  0  0  0  0  0  0  0  0  0  0
   10.5736    0.5898   21.2896 H   0  0  0  0  0  0  0  0  0  0  0  0
    9.6836    0.5342   19.7752 H   0  0  0  0  0  0  0  0  0  0  0  0
    7.9740    2.0204   20.7588 H   0  0  0  0  0  0  0  0  0  0  0  0
    9.4523    2.8568   20.6630 H   0  0  0  0  0  0  0  0  0  0  0  0
    8.4199    1.5680   23.1634 H   0  0  0  0  0  0  0  0  0  0  0  0
    9.9574    2.3944   23.0430 H   0  0  0  0  0  0  0  0  0  0  0  0
    8.8409    5.0197   22.5471 C   0  0  0  0  0  0  0  0  0  0  0  0
    7.8701    5.4986   21.4476 C   0  0  0  0  0  0  0  0  0  0  0  0
    6.8026    4.5628   21.4051 O   0  0  0  0  0  0  0  0  0  0  0  0
    6.7776    3.8214   22.6075 C   0  0  0  0  0  0  0  0  0  0  0  0
    6.2817    2.8696   22.3735 H   0  0  0  0  0  0  0  0  0  0  0  0
    6.1972    4.3591   23.3785 H   0  0  0  0  0  0  0  0  0  0  0  0
    8.3117    5.5390   20.4506 H   0  0  0  0  0  0  0  0  0  0  0  0
    7.4968    6.5084   21.6735 H   0  0  0  0  0  0  0  0  0  0  0  0
    8.8397    5.7664   23.3450 H   0  0  0  0  0  0  0  0  0  0  0  0
    9.8868    4.9551   22.2391 H   0  0  0  0  0  0  0  0  0  0  0  0
    7.9477    4.7318   24.9300 H   0  0  0  0  0  0  0  0  0  0  0  0
    9.3613    3.8517   24.8930 H   0  0  0  0  0  0  0  0  0  0  0  0
    7.8888    3.0854   25.1863 H   0  0  0  0  0  0  0  0  0  0  0  0
  1  2  1  0
  2  3  1  0
  3  4  1  0
  4  5  1  0
  5  6  1  0
  6  7  2  0
  7  8  1  0
  8  9  2  0
  9 10  1  0
 10 11  1  0
 11 12  2  0
 12 13  1  0
 13 14  2  0
 14 15  1  0
 15 16  2  0
 16 17  1  0
 14 18  1  0
 13 19  1  0
 12 20  1  0
  8 21  1  0
  7 22  1  0
  5 23  1  0
  5 24  1  0
  4 25  1  0
  4 26  1  0
  3 27  1  0
  3 28  1  0
  2 29  1  0
 29 30  1  0
 30 31  1  0
 31 32  1  0
 32 33  1  0
 32 34  1  0
 30 35  1  0
 30 36  1  0
 29 37  1  0
 29 38  1  0
  1 39  1  0
  1 40  1  0
  1 41  1  0
 32  2  1  0
 10  6  1  0
 16 11  1  0
M  CHG  2   1   1   4   1
M  END
>  <plip>  (1) 
-0.14285714285714285

>  <filename>  (1) 
[H][c]1[n][c]([H])[c](-[n]2[n][c]([H])[c]([H])[c]2[C]([H])([H])[N+]([H])([H])[C]([H])([H])[C]2([N+]([H])([H])[H])[C]([H])([H])[O][C]([H])([H])[C]2([H])[H])[c]([H])[c]1[H]

$$$$
