
     RDKit          3D

 34 36  0  0  0  0  0  0  0  0999 V2000
    4.9814    1.8065   16.9620 H   0  0  0  0  0  0  0  0  0  0  0  0
    5.4305    1.2858   17.8085 C   0  0  0  0  0  0  0  0  0  0  0  0
    6.5886    0.6531   17.5682 N   0  0  0  0  0  0  0  0  0  0  0  0
    7.1633    0.0179   18.6017 C   0  0  0  0  0  0  0  0  0  0  0  0
    8.1078   -0.4810   18.3798 H   0  0  0  0  0  0  0  0  0  0  0  0
    6.6352   -0.0379   19.8895 C   0  0  0  0  0  0  0  0  0  0  0  0
    7.3986   -0.7664   20.9716 C   0  0  2  0  0  0  0  0  0  0  0  0
    8.2420   -1.3300   20.5337 H   0  0  0  0  0  0  0  0  0  0  0  0
    6.5468   -1.6190   21.6996 O   0  0  0  0  0  0  0  0  0  0  0  0
    6.9473   -1.6745   23.0668 C   0  0  0  0  0  0  0  0  0  0  0  0
    6.0578   -1.5754   23.6975 H   0  0  0  0  0  0  0  0  0  0  0  0
    7.4219   -2.6411   23.2826 H   0  0  0  0  0  0  0  0  0  0  0  0
    7.9488   -0.5244   23.2631 C   0  0  0  0  0  0  0  0  0  0  0  0
    7.6817    0.1727   24.0633 H   0  0  0  0  0  0  0  0  0  0  0  0
    8.9620   -0.8971   23.4458 H   0  0  0  0  0  0  0  0  0  0  0  0
    7.8991    0.1671   21.9775 N   0  0  0  0  0  0  0  0  0  0  0  0
    9.1555    0.6964   21.6569 O   0  0  0  0  0  0  0  0  0  0  0  0
    9.0502    2.1160   21.4621 C   0  0  0  0  0  0  0  0  0  0  0  0
   10.0466    2.3942   21.1077 H   0  0  0  0  0  0  0  0  0  0  0  0
    8.2970    2.2837   20.6836 H   0  0  0  0  0  0  0  0  0  0  0  0
    8.6949    2.8988   22.7139 C   0  0  0  0  0  0  0  0  0  0  0  0
    7.3864    3.3438   22.9524 C   0  0  0  0  0  0  0  0  0  0  0  0
    6.5900    3.1123   22.2534 H   0  0  0  0  0  0  0  0  0  0  0  0
    7.1102    4.0748   24.1111 C   0  0  0  0  0  0  0  0  0  0  0  0
    6.0910    4.3808   24.3352 H   0  0  0  0  0  0  0  0  0  0  0  0
    8.0447    4.4227   25.0046 N   0  0  0  0  0  0  0  0  0  0  0  0
    9.2916    3.9943   24.7771 C   0  0  0  0  0  0  0  0  0  0  0  0
   10.0414    4.3099   25.4972 H   0  0  0  0  0  0  0  0  0  0  0  0
    9.6606    3.2082   23.6827 C   0  0  0  0  0  0  0  0  0  0  0  0
   10.6805    2.8447   23.6024 H   0  0  0  0  0  0  0  0  0  0  0  0
    5.4294    0.6415   20.1312 C   0  0  0  0  0  0  0  0  0  0  0  0
    4.9998    0.6490   21.1358 H   0  0  0  0  0  0  0  0  0  0  0  0
    4.8160    1.3014   19.0671 C   0  0  0  0  0  0  0  0  0  0  0  0
    3.8813    1.8376   19.1907 H   0  0  0  0  0  0  0  0  0  0  0  0
  1  2  1  0
  2  3  2  0
  3  4  1  0
  4  5  1  0
  4  6  2  0
  6  7  1  0
  7  8  1  6
  7  9  1  0
  9 10  1  0
 10 11  1  0
 10 12  1  0
 10 13  1  0
 13 14  1  0
 13 15  1  0
 13 16  1  0
 16 17  1  0
 17 18  1  0
 18 19  1  0
 18 20  1  0
 18 21  1  0
 21 22  2  0
 22 23  1  0
 22 24  1  0
 24 25  1  0
 24 26  2  0
 26 27  1  0
 27 28  1  0
 27 29  2  0
 29 30  1  0
  6 31  1  0
 31 32  1  0
 31 33  2  0
 33 34  1  0
 33  2  1  0
 16  7  1  0
 29 21  1  0
M  END
>  <plip>  (1) 
-0.07142857142857142

>  <filename>  (1) 
[H][c]1[n][c]([H])[c]([C@]2([H])[O][C]([H])([H])[C]([H])([H])[N]2[O][C]([H])([H])[c]2[c]([H])[c]([H])[n][c]([H])[c]2[H])[c]([H])[c]1[H]

$$$$
