
     RDKit          3D

 49 50  0  0  0  0  0  0  0  0999 V2000
    8.6675   -3.9552   24.7005 C   0  0  0  0  0  0  0  0  0  0  0  0
    7.6355   -3.4478   23.2640 S   0  0  0  0  0  0  0  0  0  0  0  0
    6.7078   -2.1841   24.0738 C   0  0  0  0  0  0  0  0  0  0  0  0
    5.5815   -2.5302   24.8258 C   0  0  0  0  0  0  0  0  0  0  0  0
    4.8526   -1.5584   25.5164 C   0  0  0  0  0  0  0  0  0  0  0  0
    3.3054   -2.0522   26.5311 Br  0  0  0  0  0  0  0  0  0  0  0  0
    5.2579   -0.2222   25.4410 C   0  0  0  0  0  0  0  0  0  0  0  0
    6.3778    0.1397   24.6825 C   0  0  0  0  0  0  0  0  0  0  0  0
    7.1070   -0.8440   23.9931 C   0  0  0  0  0  0  0  0  0  0  0  0
    8.3393   -0.5068   23.2079 C   0  0  0  0  0  0  0  0  0  0  0  0
    7.9773    0.1693   21.9445 N   0  0  0  0  0  4  0  0  0  0  0  0
    9.1677    0.8862   21.3995 C   0  0  0  0  0  0  0  0  0  0  0  0
    9.5863    2.0092   22.3555 C   0  0  0  0  0  0  0  0  0  0  0  0
   10.6126    2.9167   21.7876 N   0  0  0  0  0  4  0  0  0  0  0  0
   10.9074    3.9839   22.7748 C   0  0  0  0  0  0  0  0  0  0  0  0
   11.2728    3.5457   23.7109 H   0  0  0  0  0  0  0  0  0  0  0  0
   11.6801    4.6694   22.4008 H   0  0  0  0  0  0  0  0  0  0  0  0
   10.0074    4.5693   23.0031 H   0  0  0  0  0  0  0  0  0  0  0  0
   11.8855    2.2550   21.4308 C   0  0  0  0  0  0  0  0  0  0  0  0
   12.4108    1.9250   22.3332 H   0  0  0  0  0  0  0  0  0  0  0  0
   12.5457    2.9470   20.8973 H   0  0  0  0  0  0  0  0  0  0  0  0
   11.7228    1.3857   20.7875 H   0  0  0  0  0  0  0  0  0  0  0  0
   10.2213    3.3563   20.9393 H   0  0  0  0  0  0  0  0  0  0  0  0
    9.9443    1.5723   23.2951 H   0  0  0  0  0  0  0  0  0  0  0  0
    8.6836    2.5825   22.5887 H   0  0  0  0  0  0  0  0  0  0  0  0
    8.9527    1.3298   20.4209 H   0  0  0  0  0  0  0  0  0  0  0  0
   10.0084    0.1962   21.2639 H   0  0  0  0  0  0  0  0  0  0  0  0
    7.3861   -0.7951   21.0028 C   0  0  0  0  0  0  0  0  0  0  0  0
    6.6718   -0.0060   19.9531 C   0  0  0  0  0  0  0  0  0  0  0  0
    5.4522    0.6298   20.1964 C   0  0  0  0  0  0  0  0  0  0  0  0
    4.8596    1.3008   19.1270 C   0  0  0  0  0  0  0  0  0  0  0  0
    5.4798    1.3175   17.8714 C   0  0  0  0  0  0  0  0  0  0  0  0
    6.6578    0.7092   17.6487 N   0  0  0  0  0  0  0  0  0  0  0  0
    7.2357    0.0667   18.6756 C   0  0  0  0  0  0  0  0  0  0  0  0
    8.1782   -0.4388   18.4950 H   0  0  0  0  0  0  0  0  0  0  0  0
    5.0011    1.8448   17.0488 H   0  0  0  0  0  0  0  0  0  0  0  0
    3.9191    1.8226   19.2541 H   0  0  0  0  0  0  0  0  0  0  0  0
    4.9769    0.6056   21.1782 H   0  0  0  0  0  0  0  0  0  0  0  0
    8.1586   -1.4238   20.5470 H   0  0  0  0  0  0  0  0  0  0  0  0
    6.6707   -1.4601   21.5079 H   0  0  0  0  0  0  0  0  0  0  0  0
    7.2370    0.8501   22.1465 H   0  0  0  0  0  0  0  0  0  0  0  0
    8.8901   -1.4303   22.9908 H   0  0  0  0  0  0  0  0  0  0  0  0
    8.9920    0.1195   23.8280 H   0  0  0  0  0  0  0  0  0  0  0  0
    6.6722    1.1852   24.6413 H   0  0  0  0  0  0  0  0  0  0  0  0
    4.6933    0.5356   25.9741 H   0  0  0  0  0  0  0  0  0  0  0  0
    5.2716   -3.5677   24.8701 H   0  0  0  0  0  0  0  0  0  0  0  0
    9.3175   -4.7925   24.4308 H   0  0  0  0  0  0  0  0  0  0  0  0
    8.0289   -4.2652   25.5322 H   0  0  0  0  0  0  0  0  0  0  0  0
    9.2945   -3.1235   25.0332 H   0  0  0  0  0  0  0  0  0  0  0  0
  1  2  1  0
  2  3  1  0
  3  4  2  0
  4  5  1  0
  5  6  1  0
  5  7  2  0
  7  8  1  0
  8  9  2  0
  9 10  1  0
 10 11  1  0
 11 12  1  0
 12 13  1  0
 13 14  1  0
 14 15  1  0
 15 16  1  0
 15 17  1  0
 15 18  1  0
 14 19  1  0
 19 20  1  0
 19 21  1  0
 19 22  1  0
 14 23  1  0
 13 24  1  0
 13 25  1  0
 12 26  1  0
 12 27  1  0
 11 28  1  0
 28 29  1  0
 29 30  2  0
 30 31  1  0
 31 32  2  0
 32 33  1  0
 33 34  2  0
 34 35  1  0
 32 36  1  0
 31 37  1  0
 30 38  1  0
 28 39  1  0
 28 40  1  0
 11 41  1  0
 10 42  1  0
 10 43  1  0
  8 44  1  0
  7 45  1  0
  4 46  1  0
  1 47  1  0
  1 48  1  0
  1 49  1  0
  9  3  1  0
 34 29  1  0
M  CHG  2  11   1  14   1
M  END
>  <plip>  (1) 
-0.10714285714285714

>  <filename>  (1) 
[H][c]1[n][c]([H])[c]([C]([H])([H])[N+]([H])([C]([H])([H])[c]2[c]([H])[c]([H])[c]([Br])[c]([H])[c]2[S][C]([H])([H])[H])[C]([H])([H])[C]([H])([H])[N+]([H])([C]([H])([H])[H])[C]([H])([H])[H])[c]([H])[c]1[H]

$$$$
