
     RDKit          3D

 41 44  0  0  0  0  0  0  0  0999 V2000
    8.7577    1.6689   21.3651 O   0  0  0  0  0  0  0  0  0  0  0  0
    8.0669    1.2633   22.2926 C   0  0  0  0  0  0  0  0  0  0  0  0
    7.8591    2.1329   23.5174 C   0  0  0  0  0  0  0  0  0  0  0  0
    7.0315    1.9351   24.5630 N   0  0  0  0  0  0  0  0  0  0  0  0
    7.2211    2.9842   25.3512 N   0  0  0  0  0  0  0  0  0  0  0  0
    6.4894    3.1259   26.5828 C   0  0  0  0  0  0  0  0  0  0  0  0
    6.7020    4.2433   27.4080 C   0  0  0  0  0  0  0  0  0  0  0  0
    5.9813    4.3579   28.5974 C   0  0  0  0  0  0  0  0  0  0  0  0
    6.2463    5.7402   29.6167 Cl  0  0  0  0  0  0  0  0  0  0  0  0
    5.0516    3.3948   28.9959 C   0  0  0  0  0  0  0  0  0  0  0  0
    4.8490    2.2881   28.1664 C   0  0  0  0  0  0  0  0  0  0  0  0
    5.5555    2.1450   26.9697 C   0  0  0  0  0  0  0  0  0  0  0  0
    5.3850    1.2767   26.3402 H   0  0  0  0  0  0  0  0  0  0  0  0
    4.1303    1.5288   28.4629 H   0  0  0  0  0  0  0  0  0  0  0  0
    4.5067    3.5143   29.9303 H   0  0  0  0  0  0  0  0  0  0  0  0
    7.4148    5.0130   27.1312 H   0  0  0  0  0  0  0  0  0  0  0  0
    8.1218    3.8514   24.9041 N   0  0  0  0  0  0  0  0  0  0  0  0
    8.5299    3.3395   23.7556 C   0  0  0  0  0  0  0  0  0  0  0  0
    9.2762    3.8544   23.1662 H   0  0  0  0  0  0  0  0  0  0  0  0
    7.4780    0.0209   22.2466 N   0  0  0  0  0  0  0  0  0  0  0  0
    6.9345   -0.7361   23.3738 C   0  0  0  0  0  0  0  0  0  0  0  0
    6.7625   -2.1616   22.8481 C   0  0  0  0  0  0  0  0  0  0  0  0
    6.6897   -2.0364   21.3281 C   0  0  0  0  0  0  0  0  0  0  0  0
    7.4103   -0.7198   20.9809 C   0  0  0  0  0  0  0  0  0  0  0  0
    6.6772    0.0402   19.8991 C   0  0  0  0  0  0  0  0  0  0  0  0
    5.4426    0.6581   20.1481 C   0  0  0  0  0  0  0  0  0  0  0  0
    4.8027    1.3111   19.0975 C   0  0  0  0  0  0  0  0  0  0  0  0
    5.4018    1.2914   17.8309 C   0  0  0  0  0  0  0  0  0  0  0  0
    6.5622    0.6735   17.5651 N   0  0  0  0  0  0  0  0  0  0  0  0
    7.1762    0.0785   18.5963 C   0  0  0  0  0  0  0  0  0  0  0  0
    8.1194   -0.4182   18.3679 H   0  0  0  0  0  0  0  0  0  0  0  0
    4.9166    1.7818   16.9913 H   0  0  0  0  0  0  0  0  0  0  0  0
    3.8702    1.8432   19.2563 H   0  0  0  0  0  0  0  0  0  0  0  0
    5.0030    0.6310   21.1507 H   0  0  0  0  0  0  0  0  0  0  0  0
    8.4364   -0.9238   20.6483 H   0  0  0  0  0  0  0  0  0  0  0  0
    5.6473   -2.0190   20.9899 H   0  0  0  0  0  0  0  0  0  0  0  0
    7.1527   -2.8834   20.8176 H   0  0  0  0  0  0  0  0  0  0  0  0
    5.8662   -2.6281   23.2624 H   0  0  0  0  0  0  0  0  0  0  0  0
    7.6137   -2.7803   23.1427 H   0  0  0  0  0  0  0  0  0  0  0  0
    5.9971   -0.2941   23.7216 H   0  0  0  0  0  0  0  0  0  0  0  0
    7.6301   -0.6921   24.2127 H   0  0  0  0  0  0  0  0  0  0  0  0
  1  2  2  0
  2  3  1  0
  3  4  2  0
  4  5  1  0
  5  6  1  0
  6  7  2  0
  7  8  1  0
  8  9  1  0
  8 10  2  0
 10 11  1  0
 11 12  2  0
 12 13  1  0
 11 14  1  0
 10 15  1  0
  7 16  1  0
  5 17  1  0
 17 18  2  0
 18 19  1  0
  2 20  1  0
 20 21  1  0
 21 22  1  0
 22 23  1  0
 23 24  1  0
 24 25  1  0
 25 26  2  0
 26 27  1  0
 27 28  2  0
 28 29  1  0
 29 30  2  0
 30 31  1  0
 28 32  1  0
 27 33  1  0
 26 34  1  0
 24 35  1  0
 23 36  1  0
 23 37  1  0
 22 38  1  0
 22 39  1  0
 21 40  1  0
 21 41  1  0
 18  3  1  0
 24 20  1  0
 30 25  1  0
 12  6  1  0
M  END
>  <plip>  (1) 
-0.07142857142857142

>  <filename>  (1) 
[H][c]1[n][n](-[c]2[c]([H])[c]([H])[c]([H])[c]([Cl])[c]2[H])[n][c]1[C](=[O])[N]1[C]([H])([H])[C]([H])([H])[C]([H])([H])[C]1([H])[c]1[c]([H])[n][c]([H])[c]([H])[c]1[H]

$$$$
