
     RDKit          3D

 43 45  0  0  0  0  0  0  0  0999 V2000
    9.0859   -1.0137   24.5470 N   0  0  0  0  0  0  0  0  0  0  0  0
   10.0551   -0.4811   24.2011 C   0  0  0  0  0  0  0  0  0  0  0  0
   11.2876    0.1537   23.8251 C   0  0  0  0  0  0  0  0  0  0  0  0
   11.3741    0.9210   22.6460 C   0  0  0  0  0  0  0  0  0  0  0  0
   10.4362    1.4192   21.6728 C   0  0  0  0  0  0  0  0  0  0  0  0
    8.9876    1.1772   21.4499 C   0  0  0  0  0  0  0  0  0  0  0  0
    8.1816    2.0873   21.3102 O   0  0  0  0  0  0  0  0  0  0  0  0
    8.6159   -0.1239   21.3225 N   0  0  0  0  0  0  0  0  0  0  0  0
    7.2118   -0.4925   21.2477 C   0  0  0  0  0  0  0  0  0  0  0  0
    7.0245   -2.0083   21.1036 C   0  0  0  0  0  0  0  0  0  0  0  0
    7.7297   -2.9134   22.1184 C   0  0  0  0  0  0  0  0  0  0  0  0
    7.4299   -4.3968   21.9019 C   0  0  0  0  0  0  0  0  0  0  0  0
    8.1013   -4.9250   20.7700 O   0  0  0  0  0  0  0  0  0  0  0  0
    7.9073   -4.3426   20.0198 H   0  0  0  0  0  0  0  0  0  0  0  0
    7.7881   -4.9765   22.7590 H   0  0  0  0  0  0  0  0  0  0  0  0
    6.3372   -4.5558   21.8296 H   0  0  0  0  0  0  0  0  0  0  0  0
    7.4290   -2.6326   23.1339 H   0  0  0  0  0  0  0  0  0  0  0  0
    8.8195   -2.7834   22.0550 H   0  0  0  0  0  0  0  0  0  0  0  0
    7.3191   -2.2758   20.0838 H   0  0  0  0  0  0  0  0  0  0  0  0
    5.9453   -2.2025   21.1451 H   0  0  0  0  0  0  0  0  0  0  0  0
    6.5437    0.1843   20.0613 C   0  0  0  0  0  0  0  0  0  0  0  0
    5.2975    0.8099   20.1683 C   0  0  0  0  0  0  0  0  0  0  0  0
    4.7186    1.3604   19.0198 C   0  0  0  0  0  0  0  0  0  0  0  0
    5.4063    1.2520   17.8063 C   0  0  0  0  0  0  0  0  0  0  0  0
    6.5987    0.6505   17.6781 N   0  0  0  0  0  0  0  0  0  0  0  0
    7.1450    0.1453   18.7949 C   0  0  0  0  0  0  0  0  0  0  0  0
    8.1105   -0.3408   18.6600 H   0  0  0  0  0  0  0  0  0  0  0  0
    4.9841    1.6748   16.8965 H   0  0  0  0  0  0  0  0  0  0  0  0
    3.7687    1.8836   19.0588 H   0  0  0  0  0  0  0  0  0  0  0  0
    4.7956    0.8670   21.1372 H   0  0  0  0  0  0  0  0  0  0  0  0
    6.7091   -0.1431   22.1646 H   0  0  0  0  0  0  0  0  0  0  0  0
    9.3109   -0.8140   21.5292 H   0  0  0  0  0  0  0  0  0  0  0  0
   11.1226    2.3305   20.9180 C   0  0  0  0  0  0  0  0  0  0  0  0
   12.4149    2.3889   21.3077 N   0  0  0  0  0  0  0  0  0  0  0  0
   12.6196    1.5362   22.3580 C   0  0  0  0  0  0  0  0  0  0  0  0
   13.7762    1.3330   23.1141 C   0  0  0  0  0  0  0  0  0  0  0  0
   13.6584    0.5607   24.2622 C   0  0  0  0  0  0  0  0  0  0  0  0
   12.4143    0.0287   24.6437 C   0  0  0  0  0  0  0  0  0  0  0  0
   12.3448   -0.5312   25.5627 H   0  0  0  0  0  0  0  0  0  0  0  0
   14.5194    0.3441   24.8862 H   0  0  0  0  0  0  0  0  0  0  0  0
   14.7078    1.8033   22.8181 H   0  0  0  0  0  0  0  0  0  0  0  0
   13.1518    2.9019   20.8500 H   0  0  0  0  0  0  0  0  0  0  0  0
   10.7524    2.9991   20.1682 H   0  0  0  0  0  0  0  0  0  0  0  0
  1  2  3  0
  2  3  1  0
  3  4  2  0
  4  5  1  0
  5  6  1  0
  6  7  2  0
  6  8  1  0
  8  9  1  0
  9 10  1  0
 10 11  1  0
 11 12  1  0
 12 13  1  0
 13 14  1  0
 12 15  1  0
 12 16  1  0
 11 17  1  0
 11 18  1  0
 10 19  1  0
 10 20  1  0
  9 21  1  0
 21 22  2  0
 22 23  1  0
 23 24  2  0
 24 25  1  0
 25 26  2  0
 26 27  1  0
 24 28  1  0
 23 29  1  0
 22 30  1  0
  9 31  1  0
  8 32  1  0
  5 33  2  0
 33 34  1  0
 34 35  1  0
 35 36  2  0
 36 37  1  0
 37 38  2  0
 38 39  1  0
 37 40  1  0
 36 41  1  0
 34 42  1  0
 33 43  1  0
 38  3  1  0
 35  4  1  0
 26 21  1  0
M  END
>  <plip>  (1) 
-0.06451612903225806

>  <filename>  (1) 
[H][O][C]([H])([H])[C]([H])([H])[C]([H])([H])[C]([H])([c]1[c]([H])[n][c]([H])[c]([H])[c]1[H])[N]([H])[C](=[O])[c]1[c]([H])[n]([H])[c]2[c]([H])[c]([H])[c]([H])[c]([C]#[N])[c]12

$$$$
