
     RDKit          3D

 23 24  0  0  0  0  0  0  0  0999 V2000
    5.0080    1.5990   17.0764 H   0  0  0  0  0  0  0  0  0  0  0  0
    5.5235    1.1372   17.9177 C   0  0  0  0  0  0  0  0  0  0  0  0
    6.6701    0.4983   17.6320 N   0  0  0  0  0  0  0  0  0  0  0  0
    7.3370   -0.0571   18.6392 C   0  0  0  0  0  0  0  0  0  0  0  0
    8.2455   -0.5937   18.3630 H   0  0  0  0  0  0  0  0  0  0  0  0
    6.8900    0.0570   19.9506 C   0  0  0  0  0  0  0  0  0  0  0  0
    8.2235   -0.2290   21.0835 S   0  0  0  0  0  0  0  0  0  0  0  0
    9.0907    0.9594   20.8587 O   0  0  0  0  0  0  0  0  0  0  0  0
    8.7337   -1.5507   20.6373 O   0  0  0  0  0  0  0  0  0  0  0  0
    6.3153   -1.6987   22.4518 O   0  0  0  0  0  0  0  0  0  0  0  0
    6.7467   -2.1299   23.5579 N   0  0  0  0  0  0  0  0  0  0  0  0
    8.0619   -2.4593   23.8306 C   0  0  0  0  0  0  0  0  0  0  0  0
    8.7651   -2.2686   23.0406 H   0  0  0  0  0  0  0  0  0  0  0  0
    8.1515   -2.9782   25.1119 C   0  0  0  0  0  0  0  0  0  0  0  0
    9.0449   -3.3594   25.5913 H   0  0  0  0  0  0  0  0  0  0  0  0
    6.8311   -2.9546   25.6588 C   0  0  0  0  0  0  0  0  0  0  0  0
    6.5128   -3.3301   26.6215 H   0  0  0  0  0  0  0  0  0  0  0  0
    6.0020   -2.4145   24.6861 C   0  0  0  0  0  0  0  0  0  0  0  0
    4.9526   -2.1942   24.6693 H   0  0  0  0  0  0  0  0  0  0  0  0
    5.6729    0.6506   20.2767 C   0  0  0  0  0  0  0  0  0  0  0  0
    5.2900    0.7022   21.3026 H   0  0  0  0  0  0  0  0  0  0  0  0
    4.9796    1.2137   19.2047 C   0  0  0  0  0  0  0  0  0  0  0  0
    4.0432    1.7378   19.3610 H   0  0  0  0  0  0  0  0  0  0  0  0
  1  2  1  0
  2  3  2  0
  3  4  1  0
  4  5  1  0
  4  6  2  0
  6  7  1  0
  7  8  2  0
  7  9  2  0
  7 10  1  0
 10 11  1  0
 11 12  1  0
 12 13  1  0
 12 14  2  0
 14 15  1  0
 14 16  1  0
 16 17  1  0
 16 18  2  0
 18 19  1  0
  6 20  1  0
 20 21  1  0
 20 22  2  0
 22 23  1  0
 22  2  1  0
 18 11  1  0
M  END
>  <plip>  (1) 
-0.06666666666666667

>  <filename>  (1) 
[H][c]1[n][c]([H])[c]([S](=[O])(=[O])[O][n]2[c]([H])[c]([H])[c]([H])[c]2[H])[c]([H])[c]1[H]

$$$$
