
     RDKit          3D

 53 55  0  0  0  0  0  0  0  0999 V2000
    5.4662    2.4937   24.9834 C   0  0  0  0  0  0  0  0  0  0  0  0
    6.0983    1.2008   25.4968 C   0  0  0  0  0  0  0  0  0  0  0  0
    5.4742    0.7254   26.8148 C   0  0  0  0  0  0  0  0  0  0  0  0
    5.7432    1.6840   27.9661 C   0  0  0  0  0  0  0  0  0  0  0  0
    4.7713    2.5906   28.4201 C   0  0  0  0  0  0  0  0  0  0  0  0
    5.0509    3.5085   29.4434 C   0  0  0  0  0  0  0  0  0  0  0  0
    6.3224    3.5154   30.0230 C   0  0  0  0  0  0  0  0  0  0  0  0
    6.6691    4.3712   31.0174 O   0  0  0  0  0  0  0  0  0  0  0  0
    5.8980    4.9079   31.2362 H   0  0  0  0  0  0  0  0  0  0  0  0
    7.3026    2.6133   29.5978 C   0  0  0  0  0  0  0  0  0  0  0  0
    7.0191    1.7264   28.5618 C   0  0  0  0  0  0  0  0  0  0  0  0
    7.8101    1.0597   28.2118 H   0  0  0  0  0  0  0  0  0  0  0  0
    8.2470    2.6184   30.1311 H   0  0  0  0  0  0  0  0  0  0  0  0
    4.2917    4.2009   29.7975 H   0  0  0  0  0  0  0  0  0  0  0  0
    3.7838    2.5886   27.9620 H   0  0  0  0  0  0  0  0  0  0  0  0
    4.3941    0.5836   26.6699 H   0  0  0  0  0  0  0  0  0  0  0  0
    5.9002   -0.2620   27.0378 H   0  0  0  0  0  0  0  0  0  0  0  0
    5.9764    0.1177   24.4705 N   0  0  0  0  0  4  0  0  0  0  0  0
    6.8469    0.2794   23.2950 C   0  0  0  0  0  0  0  0  0  0  0  0
    6.7528   -0.9096   22.3542 C   0  0  2  0  0  0  0  0  0  0  0  0
    7.3613   -2.2134   22.8959 C   0  0  0  0  0  0  0  0  0  0  0  0
    7.6555   -3.0224   21.6331 C   0  0  0  0  0  0  0  0  0  0  0  0
    8.0624   -1.9738   20.6001 N   0  0  0  0  0  4  0  0  0  0  0  0
    9.5484   -1.9287   20.4561 C   0  0  0  0  0  0  0  0  0  0  0  0
    9.8354   -1.1411   19.7497 H   0  0  0  0  0  0  0  0  0  0  0  0
    9.9492   -2.8826   20.0970 H   0  0  0  0  0  0  0  0  0  0  0  0
   10.0390   -1.7017   21.4132 H   0  0  0  0  0  0  0  0  0  0  0  0
    7.4941   -0.6102   21.0422 C   0  0  1  0  0  0  0  0  0  0  0  0
    6.6514    0.0045   19.9379 C   0  0  0  0  0  0  0  0  0  0  0  0
    5.4279    0.6619   20.1581 C   0  0  0  0  0  0  0  0  0  0  0  0
    4.8000    1.3125   19.0963 C   0  0  0  0  0  0  0  0  0  0  0  0
    5.4028    1.2889   17.8368 C   0  0  0  0  0  0  0  0  0  0  0  0
    6.5628    0.6590   17.5984 N   0  0  0  0  0  0  0  0  0  0  0  0
    7.1541    0.0345   18.6230 C   0  0  0  0  0  0  0  0  0  0  0  0
    8.1032   -0.4451   18.3790 H   0  0  0  0  0  0  0  0  0  0  0  0
    4.9446    1.7922   16.9863 H   0  0  0  0  0  0  0  0  0  0  0  0
    3.8680    1.8504   19.2294 H   0  0  0  0  0  0  0  0  0  0  0  0
    4.9595    0.6787   21.1446 H   0  0  0  0  0  0  0  0  0  0  0  0
    8.3662    0.0329   21.2233 H   0  0  0  0  0  0  0  0  0  0  0  0
    7.5809   -2.1473   19.6897 H   0  0  0  0  0  0  0  0  0  0  0  0
    8.4555   -3.7566   21.7518 H   0  0  0  0  0  0  0  0  0  0  0  0
    6.7718   -3.5583   21.2789 H   0  0  0  0  0  0  0  0  0  0  0  0
    8.3008   -2.0142   23.4316 H   0  0  0  0  0  0  0  0  0  0  0  0
    6.6998   -2.7586   23.5807 H   0  0  0  0  0  0  0  0  0  0  0  0
    5.7257   -1.1236   22.0475 H   0  0  0  0  0  0  0  0  0  0  0  0
    7.9000    0.3800   23.6149 H   0  0  0  0  0  0  0  0  0  0  0  0
    6.6145    1.2135   22.7661 H   0  0  0  0  0  0  0  0  0  0  0  0
    4.9650    0.0551   24.1519 H   0  0  0  0  0  0  0  0  0  0  0  0
    6.1776   -0.8170   24.9028 H   0  0  0  0  0  0  0  0  0  0  0  0
    7.1730    1.3773   25.6763 H   0  0  0  0  0  0  0  0  0  0  0  0
    5.5570    3.2821   25.7359 H   0  0  0  0  0  0  0  0  0  0  0  0
    4.3991    2.3375   24.7705 H   0  0  0  0  0  0  0  0  0  0  0  0
    5.9568    2.8441   24.0703 H   0  0  0  0  0  0  0  0  0  0  0  0
  1  2  1  0
  2  3  1  0
  3  4  1  0
  4  5  2  0
  5  6  1  0
  6  7  2  0
  7  8  1  0
  8  9  1  0
  7 10  1  0
 10 11  2  0
 11 12  1  0
 10 13  1  0
  6 14  1  0
  5 15  1  0
  3 16  1  0
  3 17  1  0
  2 18  1  0
 18 19  1  0
 19 20  1  0
 20 21  1  0
 21 22  1  0
 22 23  1  0
 23 24  1  0
 24 25  1  0
 24 26  1  0
 24 27  1  0
 23 28  1  0
 28 29  1  0
 29 30  2  0
 30 31  1  0
 31 32  2  0
 32 33  1  0
 33 34  2  0
 34 35  1  0
 32 36  1  0
 31 37  1  0
 30 38  1  0
 28 39  1  1
 23 40  1  0
 22 41  1  0
 22 42  1  0
 21 43  1  0
 21 44  1  0
 20 45  1  6
 19 46  1  0
 19 47  1  0
 18 48  1  0
 18 49  1  0
  2 50  1  0
  1 51  1  0
  1 52  1  0
  1 53  1  0
 11  4  1  0
 28 20  1  0
 34 29  1  0
M  CHG  2  18   1  23   1
M  END
>  <plip>  (1) 
-0.10344827586206896

>  <filename>  (1) 
[H][O][c]1[c]([H])[c]([H])[c]([C]([H])([H])[C]([H])([C]([H])([H])[H])[N+]([H])([H])[C]([H])([H])[C@]2([H])[C]([H])([H])[C]([H])([H])[N+]([H])([C]([H])([H])[H])[C@@]2([H])[c]2[c]([H])[n][c]([H])[c]([H])[c]2[H])[c]([H])[c]1[H]

$$$$
