
     RDKit          3D

 27 28  0  0  0  0  0  0  0  0999 V2000
    6.4590   -4.8707   24.0532 C   0  0  0  0  0  0  0  0  0  0  0  0
    6.6389   -3.3786   24.1341 C   0  0  0  0  0  0  0  0  0  0  0  0
    6.6549   -2.6829   25.2954 C   0  0  0  0  0  0  0  0  0  0  0  0
    6.9288   -1.0084   24.9829 S   0  0  0  0  0  0  0  0  0  0  0  0
    7.0098   -1.3811   23.2768 C   0  0  0  0  0  0  0  0  0  0  0  0
    7.1959   -0.3836   22.3350 N   0  0  0  0  0  0  0  0  0  0  0  0
    7.3239    1.0195   22.7492 C   0  0  0  0  0  0  0  0  0  0  0  0
    6.4079    1.4064   23.2153 H   0  0  0  0  0  0  0  0  0  0  0  0
    8.1457    1.1553   23.4655 H   0  0  0  0  0  0  0  0  0  0  0  0
    7.5403    1.6298   21.8704 H   0  0  0  0  0  0  0  0  0  0  0  0
    7.3926   -0.7874   20.9836 C   0  0  0  0  0  0  0  0  0  0  0  0
    8.1420   -1.6792   20.6854 O   0  0  0  0  0  0  0  0  0  0  0  0
    6.6536    0.0154   19.9524 C   0  0  0  0  0  0  0  0  0  0  0  0
    5.4332    0.6687   20.1857 C   0  0  0  0  0  0  0  0  0  0  0  0
    4.8085    1.3112   19.1189 C   0  0  0  0  0  0  0  0  0  0  0  0
    5.4124    1.2834   17.8597 C   0  0  0  0  0  0  0  0  0  0  0  0
    6.5772    0.6624   17.6288 N   0  0  0  0  0  0  0  0  0  0  0  0
    7.1781    0.0488   18.6511 C   0  0  0  0  0  0  0  0  0  0  0  0
    8.1149   -0.4425   18.4035 H   0  0  0  0  0  0  0  0  0  0  0  0
    4.9469    1.7713   17.0037 H   0  0  0  0  0  0  0  0  0  0  0  0
    3.8744    1.8392   19.2493 H   0  0  0  0  0  0  0  0  0  0  0  0
    4.9656    0.6545   21.1730 H   0  0  0  0  0  0  0  0  0  0  0  0
    6.8345   -2.6333   22.9913 N   0  0  0  0  0  0  0  0  0  0  0  0
    6.5241   -3.0849   26.2844 H   0  0  0  0  0  0  0  0  0  0  0  0
    7.3795   -5.3998   24.3292 H   0  0  0  0  0  0  0  0  0  0  0  0
    6.1809   -5.1852   23.0451 H   0  0  0  0  0  0  0  0  0  0  0  0
    5.6887   -5.2201   24.7498 H   0  0  0  0  0  0  0  0  0  0  0  0
  1  2  1  0
  2  3  2  0
  3  4  1  0
  4  5  1  0
  5  6  1  0
  6  7  1  0
  7  8  1  0
  7  9  1  0
  7 10  1  0
  6 11  1  0
 11 12  2  0
 11 13  1  0
 13 14  2  0
 14 15  1  0
 15 16  2  0
 16 17  1  0
 17 18  2  0
 18 19  1  0
 16 20  1  0
 15 21  1  0
 14 22  1  0
  5 23  2  0
  3 24  1  0
  1 25  1  0
  1 26  1  0
  1 27  1  0
 23  2  1  0
 18 13  1  0
M  END
>  <plip>  (1) 
-0.034482758620689655

>  <filename>  (1) 
[H][c]1[n][c]([H])[c]([C](=[O])[N]([c]2[n][c]([C]([H])([H])[H])[c]([H])[s]2)[C]([H])([H])[H])[c]([H])[c]1[H]

$$$$
