
     RDKit          3D

 20 21  0  0  0  0  0  0  0  0999 V2000
    4.9849    1.7151   17.0185 H   0  0  0  0  0  0  0  0  0  0  0  0
    5.4437    1.2983   17.9064 C   0  0  0  0  0  0  0  0  0  0  0  0
    6.6441    0.7284   17.7139 N   0  0  0  0  0  0  0  0  0  0  0  0
    7.2363    0.2021   18.7839 C   0  0  0  0  0  0  0  0  0  0  0  0
    8.2024   -0.2775   18.6164 H   0  0  0  0  0  0  0  0  0  0  0  0
    6.6902    0.2119   20.0854 C   0  0  0  0  0  0  0  0  0  0  0  0
    7.4366   -0.4639   21.1551 C   0  0  0  0  0  0  0  0  0  0  0  0
    8.2149   -1.5838   21.0545 C   0  0  0  0  0  0  0  0  0  0  0  0
    8.4696   -2.0956   20.1420 H   0  0  0  0  0  0  0  0  0  0  0  0
    8.6520   -2.0338   22.2696 N   0  0  0  0  0  0  0  0  0  0  0  0
    8.1680   -1.1837   23.1344 C   0  0  0  0  0  0  0  0  0  0  0  0
    8.2928   -1.2003   24.2153 H   0  0  0  0  0  0  0  0  0  0  0  0
    7.4161   -0.2039   22.5192 N   0  0  0  0  0  0  0  0  0  0  0  0
    6.9527    0.9615   23.1753 N   0  0  0  0  0  0  0  0  0  0  0  0
    7.0819    1.4516   24.2868 C   0  0  0  0  0  0  0  0  0  0  0  0
    6.9873    2.3937   25.5475 S   0  0  0  0  0  0  0  0  0  0  0  0
    5.4222    0.7968   20.2542 C   0  0  0  0  0  0  0  0  0  0  0  0
    4.9514    0.7951   21.2350 H   0  0  0  0  0  0  0  0  0  0  0  0
    4.7894    1.3502   19.1408 C   0  0  0  0  0  0  0  0  0  0  0  0
    3.8087    1.8139   19.2083 H   0  0  0  0  0  0  0  0  0  0  0  0
  1  2  1  0
  2  3  2  0
  3  4  1  0
  4  5  1  0
  4  6  2  0
  6  7  1  0
  7  8  2  0
  8  9  1  0
  8 10  1  0
 10 11  2  0
 11 12  1  0
 11 13  1  0
 13 14  1  0
 14 15  2  0
 15 16  2  0
  6 17  1  0
 17 18  1  0
 17 19  2  0
 19 20  1  0
 19  2  1  0
 13  7  1  0
M  END
>  <plip>  (1) 
-0.03571428571428571

>  <filename>  (1) 
[H][c]1[n][c]([H])[c](-[c]2[c]([H])[n][c]([H])[n]2[N]=[C]=[S])[c]([H])[c]1[H]

$$$$
