
     RDKit          3D

 52 55  0  0  0  0  0  0  0  0999 V2000
    5.8199   -3.1584   20.4175 O   0  0  0  0  0  0  0  0  0  0  0  0
    5.7508   -2.6628   21.5273 C   0  0  0  0  0  0  0  0  0  0  0  0
    5.0346   -3.2185   22.5790 N   0  0  0  0  0  0  0  0  0  0  0  0
    4.2920   -4.4197   22.5526 C   0  0  0  0  0  0  0  0  0  0  0  0
    3.1320   -4.6729   23.2219 C   0  0  0  0  0  0  0  0  0  0  0  0
    2.7398   -5.9467   22.8909 N   0  0  0  0  0  0  0  0  0  0  0  0
    1.5499   -6.6426   23.2915 C   0  0  0  0  0  0  0  0  0  0  0  0
    0.8535   -6.1782   24.3394 N   0  0  0  0  0  0  0  0  0  0  0  0
   -0.2233   -6.8654   24.7517 C   0  0  0  0  0  0  0  0  0  0  0  0
   -0.6447   -8.0514   24.1512 C   0  0  0  0  0  0  0  0  0  0  0  0
    0.0398   -8.5200   23.0239 C   0  0  0  0  0  0  0  0  0  0  0  0
    1.1308   -7.7937   22.5743 C   0  0  0  0  0  0  0  0  0  0  0  0
    1.7480   -8.2156   21.4680 F   0  0  0  0  0  0  0  0  0  0  0  0
   -0.2559   -9.4205   22.4883 H   0  0  0  0  0  0  0  0  0  0  0  0
   -1.5228   -8.5675   24.5282 H   0  0  0  0  0  0  0  0  0  0  0  0
   -0.7897   -6.4265   25.5733 H   0  0  0  0  0  0  0  0  0  0  0  0
    3.6461   -6.5383   22.0600 N   0  0  0  0  0  0  0  0  0  0  0  0
    4.5757   -5.6306   21.8624 C   0  0  0  0  0  0  0  0  0  0  0  0
    5.4391   -5.8178   21.2454 H   0  0  0  0  0  0  0  0  0  0  0  0
    2.6137   -4.0872   23.9668 H   0  0  0  0  0  0  0  0  0  0  0  0
    4.7908   -2.5642   23.3073 H   0  0  0  0  0  0  0  0  0  0  0  0
    6.3957   -1.5211   21.9115 N   0  0  0  0  0  0  0  0  0  0  0  0
    7.3041   -0.8111   21.0227 C   0  0  0  0  0  0  0  0  0  0  0  0
    6.5410   -0.0691   19.9328 C   0  0  0  0  0  0  0  0  0  0  0  0
    5.3403    0.6274   20.1304 C   0  0  0  0  0  0  0  0  0  0  0  0
    4.7787    1.3205   19.0551 C   0  0  0  0  0  0  0  0  0  0  0  0
    5.4276    1.2913   17.8167 C   0  0  0  0  0  0  0  0  0  0  0  0
    6.5617    0.6114   17.5935 N   0  0  0  0  0  0  0  0  0  0  0  0
    7.0830   -0.0497   18.6348 C   0  0  0  0  0  0  0  0  0  0  0  0
    8.0112   -0.5938   18.4400 H   0  0  0  0  0  0  0  0  0  0  0  0
    5.0149    1.8207   16.9617 H   0  0  0  0  0  0  0  0  0  0  0  0
    3.8608    1.8837   19.1698 H   0  0  0  0  0  0  0  0  0  0  0  0
    4.8558    0.6195   21.1099 H   0  0  0  0  0  0  0  0  0  0  0  0
    8.3356    0.0546   21.8202 C   0  0  0  0  0  0  0  0  0  0  0  0
    9.4935    0.5055   20.9048 C   0  0  0  0  0  0  0  0  0  0  0  0
   10.6617    1.2126   21.6340 C   0  0  0  0  0  0  0  0  0  0  0  0
   10.2246    1.9239   22.9348 C   0  0  0  0  0  0  0  0  0  0  0  0
    8.7772    2.4263   22.8301 C   0  0  0  0  0  0  0  0  0  0  0  0
    7.7484    1.2864   22.5778 C   0  0  0  0  0  0  0  0  0  0  0  0
    7.3249    0.9512   23.5334 H   0  0  0  0  0  0  0  0  0  0  0  0
    6.9080    1.7163   22.0176 H   0  0  0  0  0  0  0  0  0  0  0  0
    8.7226    3.1492   22.0018 H   0  0  0  0  0  0  0  0  0  0  0  0
    8.5039    2.9857   23.7323 H   0  0  0  0  0  0  0  0  0  0  0  0
   10.3193    1.2419   23.7921 H   0  0  0  0  0  0  0  0  0  0  0  0
   10.9002    2.7622   23.1457 H   0  0  0  0  0  0  0  0  0  0  0  0
   11.0958    1.9533   20.9475 H   0  0  0  0  0  0  0  0  0  0  0  0
   11.4682    0.5043   21.8622 H   0  0  0  0  0  0  0  0  0  0  0  0
    9.8805   -0.3410   20.3264 H   0  0  0  0  0  0  0  0  0  0  0  0
    9.0556    1.2040   20.1841 H   0  0  0  0  0  0  0  0  0  0  0  0
    8.7548   -0.6325   22.5706 H   0  0  0  0  0  0  0  0  0  0  0  0
    7.9071   -1.5660   20.4888 H   0  0  0  0  0  0  0  0  0  0  0  0
    6.2976   -1.2371   22.8677 H   0  0  0  0  0  0  0  0  0  0  0  0
  1  2  2  0
  2  3  1  0
  3  4  1  0
  4  5  2  0
  5  6  1  0
  6  7  1  0
  7  8  2  0
  8  9  1  0
  9 10  2  0
 10 11  1  0
 11 12  2  0
 12 13  1  0
 11 14  1  0
 10 15  1  0
  9 16  1  0
  6 17  1  0
 17 18  2  0
 18 19  1  0
  5 20  1  0
  3 21  1  0
  2 22  1  0
 22 23  1  0
 23 24  1  0
 24 25  2  0
 25 26  1  0
 26 27  2  0
 27 28  1  0
 28 29  2  0
 29 30  1  0
 27 31  1  0
 26 32  1  0
 25 33  1  0
 23 34  1  0
 34 35  1  0
 35 36  1  0
 36 37  1  0
 37 38  1  0
 38 39  1  0
 39 40  1  0
 39 41  1  0
 38 42  1  0
 38 43  1  0
 37 44  1  0
 37 45  1  0
 36 46  1  0
 36 47  1  0
 35 48  1  0
 35 49  1  0
 34 50  1  0
 23 51  1  0
 22 52  1  0
 18  4  1  0
 29 24  1  0
 39 34  1  0
 12  7  1  0
M  END
>  <plip>  (1) 
-0.10344827586206896

>  <filename>  (1) 
[H][c]1[n][c](-[n]2[n][c]([H])[c]([N]([H])[C](=[O])[N]([H])[C]([H])([c]3[c]([H])[n][c]([H])[c]([H])[c]3[H])[C]3([H])[C]([H])([H])[C]([H])([H])[C]([H])([H])[C]([H])([H])[C]3([H])[H])[c]2[H])[c]([F])[c]([H])[c]1[H]

$$$$
