
     RDKit          3D

 39 41  0  0  0  0  0  0  0  0999 V2000
    4.9332    1.9043   16.9393 H   0  0  0  0  0  0  0  0  0  0  0  0
    5.4189    1.3605   17.7485 C   0  0  0  0  0  0  0  0  0  0  0  0
    6.5758    0.7509   17.4429 N   0  0  0  0  0  0  0  0  0  0  0  0
    7.2025    0.0813   18.4197 C   0  0  0  0  0  0  0  0  0  0  0  0
    8.1481   -0.3866   18.1614 H   0  0  0  0  0  0  0  0  0  0  0  0
    6.6965   -0.0395   19.7320 C   0  0  0  0  0  0  0  0  0  0  0  0
    7.3776   -0.7869   20.7775 N   0  0  0  0  0  0  0  0  0  0  0  0
    8.6119   -0.3153   21.3424 C   0  0  0  0  0  0  0  0  0  0  0  0
    9.1927    0.6097   20.8147 O   0  0  0  0  0  0  0  0  0  0  0  0
    9.0742   -0.9894   22.5257 C   0  0  0  0  0  0  0  0  0  0  0  0
    9.9317   -0.5661   23.0191 H   0  0  0  0  0  0  0  0  0  0  0  0
    8.5288   -2.1604   22.8967 C   0  0  0  0  0  0  0  0  0  0  0  0
    8.8856   -2.9300   23.9542 N   0  0  0  0  0  0  0  0  0  0  0  0
    8.9500   -4.3959   23.8970 C   0  0  0  0  0  0  0  0  0  0  0  0
    8.5823   -4.7504   22.9313 H   0  0  0  0  0  0  0  0  0  0  0  0
   10.0057   -4.7064   23.9575 H   0  0  0  0  0  0  0  0  0  0  0  0
    8.1581   -5.0169   25.0682 C   0  0  0  0  0  0  0  0  0  0  0  0
    8.4996   -6.0530   25.1991 H   0  0  0  0  0  0  0  0  0  0  0  0
    7.0953   -5.0663   24.7934 H   0  0  0  0  0  0  0  0  0  0  0  0
    8.3022   -4.2104   26.3979 C   0  0  0  0  0  0  0  0  0  0  0  0
    8.4521   -4.9155   27.2282 H   0  0  0  0  0  0  0  0  0  0  0  0
    7.0261   -3.3959   26.6994 C   0  0  0  0  0  0  0  0  0  0  0  0
    6.2153   -4.0565   27.0333 H   0  0  0  0  0  0  0  0  0  0  0  0
    7.2040   -2.6396   27.4770 H   0  0  0  0  0  0  0  0  0  0  0  0
    6.6611   -2.8794   25.7997 H   0  0  0  0  0  0  0  0  0  0  0  0
    9.5523   -3.3176   26.3154 C   0  0  0  0  0  0  0  0  0  0  0  0
    9.7105   -2.7779   27.2552 H   0  0  0  0  0  0  0  0  0  0  0  0
   10.4301   -3.9597   26.1583 H   0  0  0  0  0  0  0  0  0  0  0  0
    9.4634   -2.3063   25.1565 C   0  0  0  0  0  0  0  0  0  0  0  0
   10.4613   -1.8941   24.9333 H   0  0  0  0  0  0  0  0  0  0  0  0
    8.8227   -1.4670   25.4687 H   0  0  0  0  0  0  0  0  0  0  0  0
    7.5042   -2.6863   22.1311 N   0  0  0  0  0  0  0  0  0  0  0  0
    6.8807   -3.3120   22.6032 H   0  0  0  0  0  0  0  0  0  0  0  0
    6.7244   -1.8594   21.3614 C   0  0  0  0  0  0  0  0  0  0  0  0
    5.5611   -2.1518   21.2087 O   0  0  0  0  0  0  0  0  0  0  0  0
    5.4842    0.5855   20.0282 C   0  0  0  0  0  0  0  0  0  0  0  0
    5.0663    0.4953   21.0297 H   0  0  0  0  0  0  0  0  0  0  0  0
    4.8382    1.3101   19.0199 C   0  0  0  0  0  0  0  0  0  0  0  0
    3.9061    1.8321   19.2111 H   0  0  0  0  0  0  0  0  0  0  0  0
  1  2  1  0
  2  3  2  0
  3  4  1  0
  4  5  1  0
  4  6  2  0
  6  7  1  0
  7  8  1  0
  8  9  2  0
  8 10  1  0
 10 11  1  0
 10 12  2  0
 12 13  1  0
 13 14  1  0
 14 15  1  0
 14 16  1  0
 14 17  1  0
 17 18  1  0
 17 19  1  0
 17 20  1  0
 20 21  1  0
 20 22  1  0
 22 23  1  0
 22 24  1  0
 22 25  1  0
 20 26  1  0
 26 27  1  0
 26 28  1  0
 26 29  1  0
 29 30  1  0
 29 31  1  0
 12 32  1  0
 32 33  1  0
 32 34  1  0
 34 35  2  0
  6 36  1  0
 36 37  1  0
 36 38  2  0
 38 39  1  0
 38  2  1  0
 34  7  1  0
 29 13  1  0
M  END
>  <plip>  (1) 
-0.13333333333333333

>  <filename>  (1) 
[H][c]1[n][c]([H])[c](-[n]2[c](=[O])[c]([H])[c]([N]3[C]([H])([H])[C]([H])([H])[C]([H])([C]([H])([H])[H])[C]([H])([H])[C]3([H])[H])[n]([H])[c]2=[O])[c]([H])[c]1[H]

$$$$
