
     RDKit          3D

 43 44  0  0  0  0  0  0  0  0999 V2000
    9.5892    3.2594   24.7374 C   0  0  0  0  0  0  0  0  0  0  0  0
   10.1320    3.4129   23.3207 C   0  0  0  0  0  0  0  0  0  0  0  0
   11.5121    4.1042   23.3098 C   0  0  0  0  0  0  0  0  0  0  0  0
   12.0187    4.2769   22.0003 O   0  0  0  0  0  0  0  0  0  0  0  0
   12.2006    3.0498   21.3220 C   0  0  0  0  0  0  0  0  0  0  0  0
   10.9293    2.1968   21.2478 C   0  0  0  0  0  0  0  0  0  0  0  0
   10.1965    2.0445   22.5908 C   0  0  0  0  0  0  0  0  0  0  0  0
    8.5268    1.3327   22.3601 S   0  0  0  0  0  0  0  0  0  0  0  0
    7.7352    2.3062   21.6304 O   0  0  0  0  0  0  0  0  0  0  0  0
    8.0556    0.8059   23.6369 O   0  0  0  0  0  0  0  0  0  0  0  0
    8.7376   -0.0371   21.3583 N   0  0  0  0  0  0  0  0  0  0  0  0
    9.7429   -1.0291   21.8211 C   0  0  0  0  0  0  0  0  0  0  0  0
    9.5276   -1.7661   23.1643 C   0  0  0  0  0  0  0  0  0  0  0  0
   10.4565   -2.8455   23.1710 O   0  0  0  0  0  0  0  0  0  0  0  0
   10.4045   -3.3278   24.0056 H   0  0  0  0  0  0  0  0  0  0  0  0
    9.6890   -1.0746   24.0056 H   0  0  0  0  0  0  0  0  0  0  0  0
    8.4878   -2.1265   23.2189 H   0  0  0  0  0  0  0  0  0  0  0  0
    9.7988   -1.7917   21.0326 H   0  0  0  0  0  0  0  0  0  0  0  0
   10.7331   -0.5633   21.8373 H   0  0  0  0  0  0  0  0  0  0  0  0
    7.4064   -0.6174   21.0393 C   0  0  0  0  0  0  0  0  0  0  0  0
    6.6865    0.1588   19.9702 C   0  0  0  0  0  0  0  0  0  0  0  0
    5.4186    0.7402   20.1247 C   0  0  0  0  0  0  0  0  0  0  0  0
    4.8020    1.3210   19.0107 C   0  0  0  0  0  0  0  0  0  0  0  0
    5.4818    1.3109   17.7903 C   0  0  0  0  0  0  0  0  0  0  0  0
    6.6986    0.7686   17.6256 N   0  0  0  0  0  0  0  0  0  0  0  0
    7.2765    0.2231   18.7031 C   0  0  0  0  0  0  0  0  0  0  0  0
    8.2544   -0.2283   18.5301 H   0  0  0  0  0  0  0  0  0  0  0  0
    5.0284    1.7553   16.9049 H   0  0  0  0  0  0  0  0  0  0  0  0
    3.8229    1.7854   19.0785 H   0  0  0  0  0  0  0  0  0  0  0  0
    4.9369    0.7659   21.1035 H   0  0  0  0  0  0  0  0  0  0  0  0
    6.7713   -0.7613   21.9304 H   0  0  0  0  0  0  0  0  0  0  0  0
    7.5982   -1.6246   20.6328 H   0  0  0  0  0  0  0  0  0  0  0  0
   10.6917    1.3011   23.2276 H   0  0  0  0  0  0  0  0  0  0  0  0
   10.2473    2.6792   20.5522 H   0  0  0  0  0  0  0  0  0  0  0  0
   11.2070    1.2222   20.8394 H   0  0  0  0  0  0  0  0  0  0  0  0
   12.5075    3.3145   20.3055 H   0  0  0  0  0  0  0  0  0  0  0  0
   13.0120    2.4763   21.7976 H   0  0  0  0  0  0  0  0  0  0  0  0
   11.4163    5.1148   23.7193 H   0  0  0  0  0  0  0  0  0  0  0  0
   12.2367    3.5433   23.9274 H   0  0  0  0  0  0  0  0  0  0  0  0
    9.4800    4.0758   22.7325 H   0  0  0  0  0  0  0  0  0  0  0  0
    8.5611    2.8949   24.7321 H   0  0  0  0  0  0  0  0  0  0  0  0
   10.1815    2.5317   25.3028 H   0  0  0  0  0  0  0  0  0  0  0  0
    9.6134    4.2114   25.2757 H   0  0  0  0  0  0  0  0  0  0  0  0
  1  2  1  0
  2  3  1  0
  3  4  1  0
  4  5  1  0
  5  6  1  0
  6  7  1  0
  7  8  1  0
  8  9  2  0
  8 10  2  0
  8 11  1  0
 11 12  1  0
 12 13  1  0
 13 14  1  0
 14 15  1  0
 13 16  1  0
 13 17  1  0
 12 18  1  0
 12 19  1  0
 11 20  1  0
 20 21  1  0
 21 22  2  0
 22 23  1  0
 23 24  2  0
 24 25  1  0
 25 26  2  0
 26 27  1  0
 24 28  1  0
 23 29  1  0
 22 30  1  0
 20 31  1  0
 20 32  1  0
  7 33  1  0
  6 34  1  0
  6 35  1  0
  5 36  1  0
  5 37  1  0
  3 38  1  0
  3 39  1  0
  2 40  1  0
  1 41  1  0
  1 42  1  0
  1 43  1  0
  7  2  1  0
 26 21  1  0
M  END
>  <plip>  (1) 
-0.14285714285714285

>  <filename>  (1) 
[H][O][C]([H])([H])[C]([H])([H])[N]([C]([H])([H])[c]1[c]([H])[n][c]([H])[c]([H])[c]1[H])[S](=[O])(=[O])[C]1([H])[C]([H])([H])[C]([H])([H])[O][C]([H])([H])[C]1([H])[C]([H])([H])[H]

$$$$
