
     RDKit          3D

 26 28  0  0  0  0  0  0  0  0999 V2000
    6.3174   -2.3313   19.6559 H   0  0  0  0  0  0  0  0  0  0  0  0
    6.6906   -2.8871   20.4238 N   0  0  0  0  0  0  0  0  0  0  0  0
    7.3075   -2.0571   21.1548 C   0  0  0  0  0  0  0  0  0  0  0  0
    8.1810   -2.5290   22.6110 S   0  0  0  0  0  0  0  0  0  0  0  0
    8.4280   -0.8602   23.0274 C   0  0  0  0  0  0  0  0  0  0  0  0
    8.9367   -0.5874   23.9448 H   0  0  0  0  0  0  0  0  0  0  0  0
    7.9070   -0.0189   22.1110 C   0  0  0  0  0  0  0  0  0  0  0  0
    7.8674    1.3831   22.2679 N   0  0  0  0  0  0  0  0  0  0  0  0
    7.5940    2.0244   23.4580 C   0  0  0  0  0  0  0  0  0  0  0  0
    7.3390    1.4850   24.3652 H   0  0  0  0  0  0  0  0  0  0  0  0
    7.6409    3.3206   23.3474 N   0  0  0  0  0  0  0  0  0  0  0  0
    7.9517    3.5670   22.0289 C   0  0  0  0  0  0  0  0  0  0  0  0
    8.0450    4.5823   21.6628 H   0  0  0  0  0  0  0  0  0  0  0  0
    8.0951    2.4000   21.3416 C   0  0  0  0  0  0  0  0  0  0  0  0
    8.2640    2.1751   20.2983 H   0  0  0  0  0  0  0  0  0  0  0  0
    7.3627   -0.6512   20.9776 N   0  0  0  0  0  0  0  0  0  0  0  0
    6.6681    0.0117   19.8714 C   0  0  0  0  0  0  0  0  0  0  0  0
    7.1731    0.0677   18.5472 C   0  0  0  0  0  0  0  0  0  0  0  0
    8.1219   -0.4056   18.2937 H   0  0  0  0  0  0  0  0  0  0  0  0
    6.5535    0.6956   17.5333 N   0  0  0  0  0  0  0  0  0  0  0  0
    5.3905    1.3142   17.7986 C   0  0  0  0  0  0  0  0  0  0  0  0
    4.9109    1.8310   16.9688 H   0  0  0  0  0  0  0  0  0  0  0  0
    4.7942    1.3049   19.0633 C   0  0  0  0  0  0  0  0  0  0  0  0
    3.8538    1.8251   19.2220 H   0  0  0  0  0  0  0  0  0  0  0  0
    5.4413    0.6437   20.1157 C   0  0  0  0  0  0  0  0  0  0  0  0
    5.0462    0.6352   21.1321 H   0  0  0  0  0  0  0  0  0  0  0  0
  1  2  1  0
  2  3  2  3
  3  4  1  0
  4  5  1  0
  5  6  1  0
  5  7  2  0
  7  8  1  0
  8  9  1  0
  9 10  1  0
  9 11  2  0
 11 12  1  0
 12 13  1  0
 12 14  2  0
 14 15  1  0
  7 16  1  0
 16 17  1  0
 17 18  2  0
 18 19  1  0
 18 20  1  0
 20 21  2  0
 21 22  1  0
 21 23  1  0
 23 24  1  0
 23 25  2  0
 25 26  1  0
 16  3  1  0
 25 17  1  0
 14  8  1  0
M  END
>  <plip>  (1) 
-0.03571428571428571

>  <filename>  (1) 
[H][N]=[c]1[s][c]([H])[c](-[n]2[c]([H])[n][c]([H])[c]2[H])[n]1-[c]1[c]([H])[n][c]([H])[c]([H])[c]1[H]

$$$$
