
     RDKit          3D

 42 42  0  0  0  0  0  0  0  0999 V2000
    8.4386   -1.3291   26.5170 C   0  0  0  0  0  0  0  0  0  0  0  0
    9.0860    0.0443   26.7091 C   0  0  0  0  0  0  0  0  0  0  0  0
    8.9876    0.9420   25.4685 C   0  0  0  0  0  0  0  0  0  0  0  0
    9.7808    0.4277   24.2671 C   0  0  0  0  0  0  0  0  0  0  0  0
    9.6775    1.3025   23.0163 C   0  0  0  0  0  0  0  0  0  0  0  0
    8.1106    1.4808   22.1939 S   0  0  0  0  0  0  0  0  0  0  0  0
    8.4281    1.9314   20.8581 O   0  0  0  0  0  0  0  0  0  0  0  0
    7.1399    2.1579   23.0345 O   0  0  0  0  0  0  0  0  0  0  0  0
    7.5143   -0.0549   22.1877 N   0  0  0  0  0  0  0  0  0  0  0  0
    7.4311   -0.7857   20.9269 C   0  0  0  0  0  0  0  0  0  0  0  0
    8.8899   -1.1286   20.5914 C   0  0  0  0  0  0  0  0  0  0  0  0
    9.4421   -0.2306   20.3092 H   0  0  0  0  0  0  0  0  0  0  0  0
    8.9880   -1.8563   19.7926 H   0  0  0  0  0  0  0  0  0  0  0  0
    9.3582   -1.5784   21.4689 H   0  0  0  0  0  0  0  0  0  0  0  0
    6.5670   -2.0014   21.2683 C   0  0  0  0  0  0  0  0  0  0  0  0
    7.2686   -2.6479   22.4744 C   0  0  0  0  0  0  0  0  0  0  0  0
    6.7954   -2.3862   23.5920 O   0  0  0  0  0  0  0  0  0  0  0  0
    8.2653   -3.3333   22.1581 O   0  0  0  0  0  1  0  0  0  0  0  0
    5.5666   -1.6693   21.5548 H   0  0  0  0  0  0  0  0  0  0  0  0
    6.4771   -2.6881   20.4246 H   0  0  0  0  0  0  0  0  0  0  0  0
    6.6894    0.0030   19.8554 C   0  0  0  0  0  0  0  0  0  0  0  0
    5.4639    0.6558   20.0903 C   0  0  0  0  0  0  0  0  0  0  0  0
    4.8308    1.3131   19.0366 C   0  0  0  0  0  0  0  0  0  0  0  0
    5.4373    1.2913   17.7752 C   0  0  0  0  0  0  0  0  0  0  0  0
    6.5910    0.6668   17.5257 N   0  0  0  0  0  0  0  0  0  0  0  0
    7.1936    0.0530   18.5548 C   0  0  0  0  0  0  0  0  0  0  0  0
    8.1370   -0.4388   18.3127 H   0  0  0  0  0  0  0  0  0  0  0  0
    4.9719    1.7911   16.9305 H   0  0  0  0  0  0  0  0  0  0  0  0
    3.8992    1.8446   19.1813 H   0  0  0  0  0  0  0  0  0  0  0  0
    5.0106    0.6729   21.0874 H   0  0  0  0  0  0  0  0  0  0  0  0
    6.6124    0.1203   22.6121 H   0  0  0  0  0  0  0  0  0  0  0  0
   10.2907    0.9023   22.2072 H   0  0  0  0  0  0  0  0  0  0  0  0
    9.9581    2.3410   23.2134 H   0  0  0  0  0  0  0  0  0  0  0  0
   10.8460    0.3774   24.5346 H   0  0  0  0  0  0  0  0  0  0  0  0
    9.4826   -0.6023   24.0203 H   0  0  0  0  0  0  0  0  0  0  0  0
    7.9324    1.0592   25.1890 H   0  0  0  0  0  0  0  0  0  0  0  0
    9.3431    1.9490   25.7231 H   0  0  0  0  0  0  0  0  0  0  0  0
   10.1394   -0.0803   27.0003 H   0  0  0  0  0  0  0  0  0  0  0  0
    8.6011    0.5544   27.5529 H   0  0  0  0  0  0  0  0  0  0  0  0
    8.9404   -1.9192   25.7414 H   0  0  0  0  0  0  0  0  0  0  0  0
    7.3913   -1.2291   26.2097 H   0  0  0  0  0  0  0  0  0  0  0  0
    8.4665   -1.9162   27.4401 H   0  0  0  0  0  0  0  0  0  0  0  0
  1  2  1  0
  2  3  1  0
  3  4  1  0
  4  5  1  0
  5  6  1  0
  6  7  2  0
  6  8  2  0
  6  9  1  0
  9 10  1  0
 10 11  1  0
 11 12  1  0
 11 13  1  0
 11 14  1  0
 10 15  1  0
 15 16  1  0
 16 17  2  0
 16 18  1  0
 15 19  1  0
 15 20  1  0
 10 21  1  0
 21 22  2  0
 22 23  1  0
 23 24  2  0
 24 25  1  0
 25 26  2  0
 26 27  1  0
 24 28  1  0
 23 29  1  0
 22 30  1  0
  9 31  1  0
  5 32  1  0
  5 33  1  0
  4 34  1  0
  4 35  1  0
  3 36  1  0
  3 37  1  0
  2 38  1  0
  2 39  1  0
  1 40  1  0
  1 41  1  0
  1 42  1  0
 26 21  1  0
M  CHG  1  18  -1
M  END
>  <plip>  (1) 
-0.1

>  <filename>  (1) 
[H][c]1[n][c]([H])[c]([C]([N]([H])[S](=[O])(=[O])[C]([H])([H])[C]([H])([H])[C]([H])([H])[C]([H])([H])[C]([H])([H])[H])([C]([H])([H])[H])[C]([H])([H])[C](=[O])[O-])[c]([H])[c]1[H]

$$$$
