
     RDKit          3D

 34 34  0  0  0  0  0  0  0  0999 V2000
    6.7187   -2.8797   21.2233 C   0  0  0  0  0  0  0  0  0  0  0  0
    7.6405   -1.8084   21.1644 O   0  0  0  0  0  0  0  0  0  0  0  0
    7.0605   -0.5194   21.2747 C   0  0  0  0  0  0  0  0  0  0  0  0
    8.1045    0.5414   21.7323 C   0  0  0  0  0  0  0  0  0  0  0  0
    7.7046    1.5709   22.2596 O   0  0  0  0  0  0  0  0  0  0  0  0
    9.4096    0.3039   21.4435 N   0  0  0  0  0  0  0  0  0  0  0  0
   10.4307    1.3126   21.6656 C   0  0  0  0  0  0  0  0  0  0  0  0
   10.8344    1.3971   23.1438 C   0  0  0  0  0  0  0  0  0  0  0  0
   11.9740    2.7712   23.4788 S   0  0  0  0  0  0  0  0  0  0  0  0
   13.4388    1.8669   22.9723 C   0  0  0  0  0  0  0  0  0  0  0  0
   13.8600    0.5589   23.7736 C   0  0  0  0  0  0  0  0  0  0  0  0
   14.6056   -0.1486   23.0789 O   0  0  0  0  0  0  0  0  0  0  0  0
   13.4231    0.3999   24.9288 O   0  0  0  0  0  1  0  0  0  0  0  0
   14.2922    2.5399   22.9825 H   0  0  0  0  0  0  0  0  0  0  0  0
   13.2824    1.5207   21.9543 H   0  0  0  0  0  0  0  0  0  0  0  0
   11.3399    0.4754   23.4602 H   0  0  0  0  0  0  0  0  0  0  0  0
    9.9402    1.5226   23.7644 H   0  0  0  0  0  0  0  0  0  0  0  0
   10.0480    2.2899   21.3431 H   0  0  0  0  0  0  0  0  0  0  0  0
   11.3018    1.0757   21.0379 H   0  0  0  0  0  0  0  0  0  0  0  0
    9.6546   -0.6426   21.1893 H   0  0  0  0  0  0  0  0  0  0  0  0
    6.3903   -0.0711   19.9799 C   0  0  0  0  0  0  0  0  0  0  0  0
    5.3694    0.8888   20.0135 C   0  0  0  0  0  0  0  0  0  0  0  0
    4.9210    1.4214   18.8022 C   0  0  0  0  0  0  0  0  0  0  0  0
    5.5098    0.9722   17.6136 C   0  0  0  0  0  0  0  0  0  0  0  0
    6.4696    0.0372   17.5610 N   0  0  0  0  0  0  0  0  0  0  0  0
    6.8860   -0.4719   18.7298 C   0  0  0  0  0  0  0  0  0  0  0  0
    7.6824   -1.2131   18.6882 H   0  0  0  0  0  0  0  0  0  0  0  0
    5.1951    1.3865   16.6582 H   0  0  0  0  0  0  0  0  0  0  0  0
    4.1608    2.1961   18.7725 H   0  0  0  0  0  0  0  0  0  0  0  0
    4.9737    1.2292   20.9751 H   0  0  0  0  0  0  0  0  0  0  0  0
    6.3121   -0.4813   22.0838 H   0  0  0  0  0  0  0  0  0  0  0  0
    5.9827   -2.7469   22.0303 H   0  0  0  0  0  0  0  0  0  0  0  0
    7.2891   -3.7833   21.4458 H   0  0  0  0  0  0  0  0  0  0  0  0
    6.1852   -3.0134   20.2725 H   0  0  0  0  0  0  0  0  0  0  0  0
  1  2  1  0
  2  3  1  0
  3  4  1  0
  4  5  2  0
  4  6  1  0
  6  7  1  0
  7  8  1  0
  8  9  1  0
  9 10  1  0
 10 11  1  0
 11 12  2  0
 11 13  1  0
 10 14  1  0
 10 15  1  0
  8 16  1  0
  8 17  1  0
  7 18  1  0
  7 19  1  0
  6 20  1  0
  3 21  1  0
 21 22  2  0
 22 23  1  0
 23 24  2  0
 24 25  1  0
 25 26  2  0
 26 27  1  0
 24 28  1  0
 23 29  1  0
 22 30  1  0
  3 31  1  0
  1 32  1  0
  1 33  1  0
  1 34  1  0
 26 21  1  0
M  CHG  1  13  -1
M  END
>  <plip>  (1) 
-0.06896551724137931

>  <filename>  (1) 
[H][c]1[n][c]([H])[c]([C]([H])([O][C]([H])([H])[H])[C](=[O])[N]([H])[C]([H])([H])[C]([H])([H])[S][C]([H])([H])[C](=[O])[O-])[c]([H])[c]1[H]

$$$$
