
     RDKit          3D

 32 33  0  0  0  0  0  0  0  0999 V2000
    9.6659    0.7545   20.5482 O   0  0  0  0  0  0  0  0  0  0  0  0
    8.9944    0.9204   21.5597 C   0  0  0  0  0  0  0  0  0  0  0  0
    7.9804    0.0900   21.9312 N   0  0  0  0  0  0  0  0  0  0  0  0
    7.3589   -0.8025   20.9602 C   0  0  0  0  0  0  0  0  0  0  0  0
    6.6315   -0.0389   19.8829 C   0  0  0  0  0  0  0  0  0  0  0  0
    5.4277    0.6347   20.1174 C   0  0  0  0  0  0  0  0  0  0  0  0
    4.8210    1.3116   19.0570 C   0  0  0  0  0  0  0  0  0  0  0  0
    5.4556    1.3096   17.8105 C   0  0  0  0  0  0  0  0  0  0  0  0
    6.6332    0.7121   17.5799 N   0  0  0  0  0  0  0  0  0  0  0  0
    7.2015    0.0695   18.6079 C   0  0  0  0  0  0  0  0  0  0  0  0
    8.1742   -0.3896   18.4192 H   0  0  0  0  0  0  0  0  0  0  0  0
    4.9936    1.8013   16.9553 H   0  0  0  0  0  0  0  0  0  0  0  0
    3.8779    1.8338   19.1810 H   0  0  0  0  0  0  0  0  0  0  0  0
    4.9841    0.6424   21.1155 H   0  0  0  0  0  0  0  0  0  0  0  0
    8.1259   -1.4349   20.5025 H   0  0  0  0  0  0  0  0  0  0  0  0
    6.6754   -1.4625   21.5032 H   0  0  0  0  0  0  0  0  0  0  0  0
    7.4090    0.4139   22.7010 H   0  0  0  0  0  0  0  0  0  0  0  0
    9.2588    2.1337   22.5680 C   0  0  0  0  0  0  0  0  0  0  0  0
    8.5731    2.3157   23.5619 O   0  0  0  0  0  0  0  0  0  0  0  0
   10.3112    2.9270   22.2117 N   0  0  0  0  0  0  0  0  0  0  0  0
   10.8149    3.9961   22.9782 C   0  0  0  0  0  0  0  0  0  0  0  0
   12.1950    4.0856   23.1930 C   0  0  0  0  0  0  0  0  0  0  0  0
   13.0332    3.1999   22.6276 F   0  0  0  0  0  0  0  0  0  0  0  0
   12.7080    5.1060   23.9926 C   0  0  0  0  0  0  0  0  0  0  0  0
   14.0165    5.1035   24.2653 F   0  0  0  0  0  0  0  0  0  0  0  0
   11.8858    6.1180   24.4826 C   0  0  0  0  0  0  0  0  0  0  0  0
   10.5125    6.0640   24.2115 C   0  0  0  0  0  0  0  0  0  0  0  0
    9.9729    4.9825   23.5026 C   0  0  0  0  0  0  0  0  0  0  0  0
    8.9088    4.8610   23.3397 H   0  0  0  0  0  0  0  0  0  0  0  0
    9.8538    6.8661   24.5341 H   0  0  0  0  0  0  0  0  0  0  0  0
   12.3392    6.9269   25.0510 H   0  0  0  0  0  0  0  0  0  0  0  0
   10.8856    2.6036   21.4440 H   0  0  0  0  0  0  0  0  0  0  0  0
  1  2  2  0
  2  3  1  0
  3  4  1  0
  4  5  1  0
  5  6  2  0
  6  7  1  0
  7  8  2  0
  8  9  1  0
  9 10  2  0
 10 11  1  0
  8 12  1  0
  7 13  1  0
  6 14  1  0
  4 15  1  0
  4 16  1  0
  3 17  1  0
  2 18  1  0
 18 19  2  0
 18 20  1  0
 20 21  1  0
 21 22  2  0
 22 23  1  0
 22 24  1  0
 24 25  1  0
 24 26  2  0
 26 27  1  0
 27 28  2  0
 28 29  1  0
 27 30  1  0
 26 31  1  0
 20 32  1  0
 10  5  1  0
 28 21  1  0
M  END
>  <plip>  (1) 
-0.14285714285714285

>  <filename>  (1) 
[H][c]1[n][c]([H])[c]([C]([H])([H])[N]([H])[C](=[O])[C](=[O])[N]([H])[c]2[c]([H])[c]([H])[c]([H])[c]([F])[c]2[F])[c]([H])[c]1[H]

$$$$
