
     RDKit          3D

 27 28  0  0  0  0  0  0  0  0999 V2000
    9.3017   -4.9053   26.2440 N   0  0  0  0  0  0  0  0  0  0  0  0
    8.6190   -3.7627   26.5227 C   0  0  0  0  0  0  0  0  0  0  0  0
    8.3158   -3.5470   27.6839 O   0  0  0  0  0  0  0  0  0  0  0  0
    8.3060   -2.7769   25.4254 C   0  0  0  0  0  0  0  0  0  0  0  0
    7.9517   -1.4332   25.7145 C   0  0  0  0  0  0  0  0  0  0  0  0
    7.6036   -0.6270   24.6498 C   0  0  0  0  0  0  0  0  0  0  0  0
    7.6377   -1.1858   23.3548 C   0  0  0  0  0  0  0  0  0  0  0  0
    7.2456   -0.4229   22.2723 N   0  0  0  0  0  0  0  0  0  0  0  0
    7.4547   -0.7368   20.9531 C   0  0  0  0  0  0  0  0  0  0  0  0
    8.2530   -1.5682   20.5857 O   0  0  0  0  0  0  0  0  0  0  0  0
    6.6415    0.0439   19.9791 C   0  0  0  0  0  0  0  0  0  0  0  0
    5.4163    0.6890   20.2138 C   0  0  0  0  0  0  0  0  0  0  0  0
    4.8054    1.3225   19.1343 C   0  0  0  0  0  0  0  0  0  0  0  0
    5.4349    1.2864   17.8851 C   0  0  0  0  0  0  0  0  0  0  0  0
    6.5990    0.6641   17.6500 N   0  0  0  0  0  0  0  0  0  0  0  0
    7.1749    0.0532   18.6836 C   0  0  0  0  0  0  0  0  0  0  0  0
    8.1170   -0.4617   18.4925 H   0  0  0  0  0  0  0  0  0  0  0  0
    4.9721    1.7631   17.0277 H   0  0  0  0  0  0  0  0  0  0  0  0
    3.8583    1.8409   19.2492 H   0  0  0  0  0  0  0  0  0  0  0  0
    4.9227    0.6848   21.1900 H   0  0  0  0  0  0  0  0  0  0  0  0
    6.8432    0.4757   22.4456 H   0  0  0  0  0  0  0  0  0  0  0  0
    8.0104   -2.4568   23.1512 N   0  0  0  0  0  0  0  0  0  0  0  0
    8.3399   -3.2342   24.1652 N   0  0  0  0  0  0  0  0  0  0  0  0
    7.2831    0.3975   24.7975 H   0  0  0  0  0  0  0  0  0  0  0  0
    7.9567   -1.0996   26.7502 H   0  0  0  0  0  0  0  0  0  0  0  0
    9.3172   -5.4783   27.0768 H   0  0  0  0  0  0  0  0  0  0  0  0
    9.2457   -5.3327   25.3335 H   0  0  0  0  0  0  0  0  0  0  0  0
  1  2  1  0
  2  3  2  0
  2  4  1  0
  4  5  2  0
  5  6  1  0
  6  7  2  0
  7  8  1  0
  8  9  1  0
  9 10  2  0
  9 11  1  0
 11 12  2  0
 12 13  1  0
 13 14  2  0
 14 15  1  0
 15 16  2  0
 16 17  1  0
 14 18  1  0
 13 19  1  0
 12 20  1  0
  8 21  1  0
  7 22  1  0
 22 23  2  0
  6 24  1  0
  5 25  1  0
  1 26  1  0
  1 27  1  0
 23  4  1  0
 16 11  1  0
M  END
>  <plip>  (1) 
-0.07142857142857142

>  <filename>  (1) 
[H][c]1[n][c]([H])[c]([C](=[O])[N]([H])[c]2[n][n][c]([C](=[O])[N]([H])[H])[c]([H])[c]2[H])[c]([H])[c]1[H]

$$$$
