
     RDKit          3D

 35 37  0  0  0  0  0  0  0  0999 V2000
    8.7449   -0.0975   21.2755 C   0  0  0  0  0  0  0  0  0  0  0  0
    7.3656   -0.7390   21.0874 C   0  0  0  0  0  0  0  0  0  0  0  0
    7.4282   -2.1617   20.8533 N   0  0  0  0  0  0  0  0  0  0  0  0
    7.7410   -3.1128   21.8036 C   0  0  0  0  0  0  0  0  0  0  0  0
    7.8314   -4.4591   21.3831 C   0  0  0  0  0  0  0  0  0  0  0  0
    8.2354   -5.4698   22.2530 C   0  0  0  0  0  0  0  0  0  0  0  0
    8.5082   -5.1352   23.5845 C   0  0  0  0  0  0  0  0  0  0  0  0
    8.9268   -5.9477   24.6006 N   0  0  0  0  0  0  0  0  0  0  0  0
    8.9371   -5.2712   25.8916 C   0  0  0  0  0  0  0  0  0  0  0  0
    8.5109   -3.8096   25.5529 C   0  0  0  0  0  0  0  0  0  0  0  0
    8.2927   -3.8284   24.0558 C   0  0  0  0  0  0  0  0  0  0  0  0
    7.9422   -2.8139   23.1682 C   0  0  0  0  0  0  0  0  0  0  0  0
    7.8160   -1.7909   23.5109 H   0  0  0  0  0  0  0  0  0  0  0  0
    7.5961   -3.5462   26.1029 H   0  0  0  0  0  0  0  0  0  0  0  0
    9.2922   -3.0944   25.8426 H   0  0  0  0  0  0  0  0  0  0  0  0
    9.9359   -5.3067   26.3556 H   0  0  0  0  0  0  0  0  0  0  0  0
    8.2267   -5.7583   26.5802 H   0  0  0  0  0  0  0  0  0  0  0  0
    9.2400   -6.8925   24.4743 H   0  0  0  0  0  0  0  0  0  0  0  0
    8.3286   -6.5006   21.9294 H   0  0  0  0  0  0  0  0  0  0  0  0
    7.5324   -4.7063   20.3706 H   0  0  0  0  0  0  0  0  0  0  0  0
    7.4650   -2.4639   19.8963 H   0  0  0  0  0  0  0  0  0  0  0  0
    6.6190   -0.0961   19.9461 C   0  0  0  0  0  0  0  0  0  0  0  0
    5.4267    0.6097   20.1368 C   0  0  0  0  0  0  0  0  0  0  0  0
    4.8519    1.2745   19.0528 C   0  0  0  0  0  0  0  0  0  0  0  0
    5.4983    1.2084   17.8142 C   0  0  0  0  0  0  0  0  0  0  0  0
    6.6242    0.5072   17.6047 N   0  0  0  0  0  0  0  0  0  0  0  0
    7.1523   -0.1374   18.6528 C   0  0  0  0  0  0  0  0  0  0  0  0
    8.0607   -0.7061   18.4329 H   0  0  0  0  0  0  0  0  0  0  0  0
    5.0820    1.7283   16.9531 H   0  0  0  0  0  0  0  0  0  0  0  0
    3.9315    1.8418   19.1621 H   0  0  0  0  0  0  0  0  0  0  0  0
    4.9602    0.6243   21.1220 H   0  0  0  0  0  0  0  0  0  0  0  0
    6.7910   -0.5730   22.0076 H   0  0  0  0  0  0  0  0  0  0  0  0
    8.6337    0.9662   21.5016 H   0  0  0  0  0  0  0  0  0  0  0  0
    9.2959   -0.5737   22.0877 H   0  0  0  0  0  0  0  0  0  0  0  0
    9.3612   -0.1838   20.3771 H   0  0  0  0  0  0  0  0  0  0  0  0
  1  2  1  0
  2  3  1  0
  3  4  1  0
  4  5  2  0
  5  6  1  0
  6  7  2  0
  7  8  1  0
  8  9  1  0
  9 10  1  0
 10 11  1  0
 11 12  2  0
 12 13  1  0
 10 14  1  0
 10 15  1  0
  9 16  1  0
  9 17  1  0
  8 18  1  0
  6 19  1  0
  5 20  1  0
  3 21  1  0
  2 22  1  0
 22 23  2  0
 23 24  1  0
 24 25  2  0
 25 26  1  0
 26 27  2  0
 27 28  1  0
 25 29  1  0
 24 30  1  0
 23 31  1  0
  2 32  1  0
  1 33  1  0
  1 34  1  0
  1 35  1  0
 12  4  1  0
 27 22  1  0
 11  7  1  0
M  END
>  <plip>  (1) 
-0.13793103448275862

>  <filename>  (1) 
[H][c]1[n][c]([H])[c]([C]([H])([N]([H])[c]2[c]([H])[c]([H])[c]3[c]([c]2[H])[C]([H])([H])[C]([H])([H])[N]3[H])[C]([H])([H])[H])[c]([H])[c]1[H]

$$$$
