
     RDKit          3D

 42 45  0  0  0  0  0  0  0  0999 V2000
    5.0130    1.8640   17.0967 H   0  0  0  0  0  0  0  0  0  0  0  0
    5.4889    1.2658   17.8677 C   0  0  0  0  0  0  0  0  0  0  0  0
    6.6296    0.6512   17.5140 N   0  0  0  0  0  0  0  0  0  0  0  0
    7.2622   -0.0518   18.4607 C   0  0  0  0  0  0  0  0  0  0  0  0
    8.1913   -0.5436   18.1655 H   0  0  0  0  0  0  0  0  0  0  0  0
    6.7817   -0.1997   19.7719 C   0  0  0  0  0  0  0  0  0  0  0  0
    7.5784   -0.9206   20.7725 C   0  0  0  0  0  0  0  0  0  0  0  0
    8.8740   -0.7200   21.0861 C   0  0  0  0  0  0  0  0  0  0  0  0
    9.5828   -0.1194   20.5373 H   0  0  0  0  0  0  0  0  0  0  0  0
    9.3447   -1.4934   22.5764 S   0  0  0  0  0  0  0  0  0  0  0  0
    7.7313   -2.1428   22.7324 C   0  0  0  0  0  0  0  0  0  0  0  0
    7.0388   -2.8612   23.5950 N   0  0  0  0  0  0  0  0  0  0  0  0
    5.8147   -2.8870   22.9876 C   0  0  0  0  0  0  0  0  0  0  0  0
    4.7187   -3.4014   23.5437 O   0  0  0  0  0  0  0  0  0  0  0  0
    4.8281   -3.9978   24.8501 C   0  0  0  0  0  0  0  0  0  0  0  0
    5.5728   -3.4676   25.4568 H   0  0  0  0  0  0  0  0  0  0  0  0
    3.8491   -3.8663   25.3205 H   0  0  0  0  0  0  0  0  0  0  0  0
    5.1787   -5.4588   24.6460 C   0  0  0  0  0  0  0  0  0  0  0  0
    6.1440   -5.4908   24.1298 H   0  0  0  0  0  0  0  0  0  0  0  0
    4.4490   -5.8840   23.9502 H   0  0  0  0  0  0  0  0  0  0  0  0
    5.2414   -6.3303   25.8942 C   0  0  0  0  0  0  0  0  0  0  0  0
    5.6604   -7.3149   25.5962 H   0  0  0  0  0  0  0  0  0  0  0  0
    5.9491   -5.8955   26.6173 H   0  0  0  0  0  0  0  0  0  0  0  0
    3.9643   -6.5103   26.5756 N   0  0  0  0  0  0  0  0  0  0  0  0
    2.9492   -7.2517   25.8148 C   0  0  0  0  0  0  0  0  0  0  0  0
    3.4055   -8.0435   25.1923 H   0  0  0  0  0  0  0  0  0  0  0  0
    2.4074   -6.5904   25.1268 H   0  0  0  0  0  0  0  0  0  0  0  0
    2.0124   -7.8822   26.8700 C   0  0  0  0  0  0  0  0  0  0  0  0
    1.0226   -7.4163   26.8530 H   0  0  0  0  0  0  0  0  0  0  0  0
    1.8646   -8.9476   26.6622 H   0  0  0  0  0  0  0  0  0  0  0  0
    2.7151   -7.6530   28.2250 C   0  0  0  0  0  0  0  0  0  0  0  0
    2.7122   -8.5425   28.8650 H   0  0  0  0  0  0  0  0  0  0  0  0
    2.2283   -6.8484   28.7844 H   0  0  0  0  0  0  0  0  0  0  0  0
    4.1318   -7.2326   27.8379 C   0  0  0  0  0  0  0  0  0  0  0  0
    4.7844   -8.1228   27.7210 H   0  0  0  0  0  0  0  0  0  0  0  0
    4.6044   -6.5876   28.5899 H   0  0  0  0  0  0  0  0  0  0  0  0
    5.7173   -2.3006   21.8026 N   0  0  0  0  0  0  0  0  0  0  0  0
    6.9736   -1.7758   21.6850 N   0  0  0  0  0  0  0  0  0  0  0  0
    5.5660    0.4191   20.1122 C   0  0  0  0  0  0  0  0  0  0  0  0
    5.1623    0.2873   21.1189 H   0  0  0  0  0  0  0  0  0  0  0  0
    4.9191    1.1783   19.1463 C   0  0  0  0  0  0  0  0  0  0  0  0
    4.0039    1.7140   19.3777 H   0  0  0  0  0  0  0  0  0  0  0  0
  1  2  1  0
  2  3  2  0
  3  4  1  0
  4  5  1  0
  4  6  2  0
  6  7  1  0
  7  8  2  0
  8  9  1  0
  8 10  1  0
 10 11  1  0
 11 12  2  0
 12 13  1  0
 13 14  1  0
 14 15  1  0
 15 16  1  0
 15 17  1  0
 15 18  1  0
 18 19  1  0
 18 20  1  0
 18 21  1  0
 21 22  1  0
 21 23  1  0
 21 24  1  0
 24 25  1  0
 25 26  1  0
 25 27  1  0
 25 28  1  0
 28 29  1  0
 28 30  1  0
 28 31  1  0
 31 32  1  0
 31 33  1  0
 31 34  1  0
 34 35  1  0
 34 36  1  0
 13 37  2  0
 37 38  1  0
  6 39  1  0
 39 40  1  0
 39 41  2  0
 41 42  1  0
 41  2  1  0
 38  7  1  0
 38 11  1  0
 34 24  1  0
M  END
>  <plip>  (1) 
-0.03571428571428571

>  <filename>  (1) 
[H][c]1[n][c]([H])[c](-[c]2[c]([H])[s][c]3[n][c]([O][C]([H])([H])[C]([H])([H])[C]([H])([H])[N]4[C]([H])([H])[C]([H])([H])[C]([H])([H])[C]4([H])[H])[n][n]23)[c]([H])[c]1[H]

$$$$
