
     RDKit          3D

 44 46  0  0  0  0  0  0  0  0999 V2000
    6.0408   -3.0290   19.9476 O   0  0  0  0  0  0  0  0  0  0  0  0
    5.9544   -2.7595   21.1322 C   0  0  0  0  0  0  0  0  0  0  0  0
    5.1961   -3.6410   22.1105 C   0  0  0  0  0  0  0  0  0  0  0  0
    6.1114   -4.6506   22.8354 C   0  0  0  0  0  0  0  0  0  0  0  0
    7.0100   -3.8524   23.6370 O   0  0  0  0  0  0  0  0  0  0  0  0
    7.5661   -4.4226   24.7575 C   0  0  0  0  0  0  0  0  0  0  0  0
    8.7509   -3.8898   25.2656 C   0  0  0  0  0  0  0  0  0  0  0  0
    9.2781   -4.4023   26.4582 C   0  0  0  0  0  0  0  0  0  0  0  0
    8.6278   -5.4383   27.1379 C   0  0  0  0  0  0  0  0  0  0  0  0
    7.4533   -5.9907   26.6187 C   0  0  0  0  0  0  0  0  0  0  0  0
    6.9278   -5.4962   25.4246 C   0  0  0  0  0  0  0  0  0  0  0  0
    5.7736   -6.0502   24.8556 N   0  0  0  0  0  0  0  0  0  0  0  0
    5.3079   -5.7453   23.6202 C   0  0  0  0  0  0  0  0  0  0  0  0
    4.3576   -6.3410   23.1466 O   0  0  0  0  0  0  0  0  0  0  0  0
    5.2777   -6.8253   25.2734 H   0  0  0  0  0  0  0  0  0  0  0  0
    6.9479   -6.8055   27.1338 H   0  0  0  0  0  0  0  0  0  0  0  0
    9.0332   -5.8186   28.0711 H   0  0  0  0  0  0  0  0  0  0  0  0
   10.2003   -3.9919   26.8542 H   0  0  0  0  0  0  0  0  0  0  0  0
    9.2436   -3.0914   24.7119 H   0  0  0  0  0  0  0  0  0  0  0  0
    6.7213   -5.2288   22.1271 H   0  0  0  0  0  0  0  0  0  0  0  0
    4.7202   -3.0235   22.8770 H   0  0  0  0  0  0  0  0  0  0  0  0
    4.4198   -4.1766   21.5677 H   0  0  0  0  0  0  0  0  0  0  0  0
    6.5408   -1.6837   21.7093 N   0  0  0  0  0  0  0  0  0  0  0  0
    7.3824   -0.7495   20.9965 C   0  0  2  0  0  0  0  0  0  0  0  0
    7.9810    0.2359   22.0106 C   0  0  0  0  0  0  0  0  0  0  0  0
    8.8624   -0.3950   23.0865 C   0  0  0  0  0  0  0  0  0  0  0  0
    9.9240   -1.1549   22.5447 O   0  0  0  0  0  0  0  0  0  0  0  0
   10.4453   -0.5677   21.9820 H   0  0  0  0  0  0  0  0  0  0  0  0
    8.2956   -1.0976   23.7078 H   0  0  0  0  0  0  0  0  0  0  0  0
    9.2290    0.3925   23.7674 H   0  0  0  0  0  0  0  0  0  0  0  0
    7.1631    0.7771   22.5039 H   0  0  0  0  0  0  0  0  0  0  0  0
    8.5699    0.9922   21.4754 H   0  0  0  0  0  0  0  0  0  0  0  0
    6.6012   -0.0458   19.8970 C   0  0  0  0  0  0  0  0  0  0  0  0
    5.3780    0.6145   20.0991 C   0  0  0  0  0  0  0  0  0  0  0  0
    4.8098    1.3088   19.0283 C   0  0  0  0  0  0  0  0  0  0  0  0
    5.4675    1.3030   17.7933 C   0  0  0  0  0  0  0  0  0  0  0  0
    6.6035    0.6298   17.5639 N   0  0  0  0  0  0  0  0  0  0  0  0
    7.1309   -0.0318   18.6039 C   0  0  0  0  0  0  0  0  0  0  0  0
    8.0442   -0.5936   18.3935 H   0  0  0  0  0  0  0  0  0  0  0  0
    5.0627    1.8580   16.9492 H   0  0  0  0  0  0  0  0  0  0  0  0
    3.8804    1.8555   19.1362 H   0  0  0  0  0  0  0  0  0  0  0  0
    4.8715    0.5759   21.0665 H   0  0  0  0  0  0  0  0  0  0  0  0
    8.2044   -1.3004   20.5098 H   0  0  0  0  0  0  0  0  0  0  0  0
    6.4701   -1.6116   22.7051 H   0  0  0  0  0  0  0  0  0  0  0  0
  1  2  2  0
  2  3  1  0
  3  4  1  0
  4  5  1  0
  5  6  1  0
  6  7  2  0
  7  8  1  0
  8  9  2  0
  9 10  1  0
 10 11  2  0
 11 12  1  0
 12 13  1  0
 13 14  2  0
 12 15  1  0
 10 16  1  0
  9 17  1  0
  8 18  1  0
  7 19  1  0
  4 20  1  0
  3 21  1  0
  3 22  1  0
  2 23  1  0
 23 24  1  0
 24 25  1  0
 25 26  1  0
 26 27  1  0
 27 28  1  0
 26 29  1  0
 26 30  1  0
 25 31  1  0
 25 32  1  0
 24 33  1  0
 33 34  2  0
 34 35  1  0
 35 36  2  0
 36 37  1  0
 37 38  2  0
 38 39  1  0
 36 40  1  0
 35 41  1  0
 34 42  1  0
 24 43  1  6
 23 44  1  0
 13  4  1  0
 38 33  1  0
 11  6  1  0
M  END
>  <plip>  (1) 
-0.23333333333333334

>  <filename>  (1) 
[H][O][C]([H])([H])[C]([H])([H])[C@]([H])([c]1[c]([H])[n][c]([H])[c]([H])[c]1[H])[N]([H])[C](=[O])[C]([H])([H])[C]1([H])[O][c]2[c]([H])[c]([H])[c]([H])[c]([H])[c]2[N]([H])[C]1=[O]

$$$$
