
     RDKit          3D

 41 44  0  0  0  0  0  0  0  0999 V2000
    7.3354    0.9907   22.3176 H   0  0  0  0  0  0  0  0  0  0  0  0
    7.5619   -0.0519   22.1604 C   0  0  0  0  0  0  0  0  0  0  0  0
    7.2455   -0.6549   20.9983 C   0  0  0  0  0  0  0  0  0  0  0  0
    6.5775    0.0179   19.8755 C   0  0  0  0  0  0  0  0  0  0  0  0
    7.1356   -0.0232   18.5864 C   0  0  0  0  0  0  0  0  0  0  0  0
    8.0858   -0.5309   18.4142 H   0  0  0  0  0  0  0  0  0  0  0  0
    6.6036    0.5886   17.5226 N   0  0  0  0  0  0  0  0  0  0  0  0
    5.4643    1.2729   17.7046 C   0  0  0  0  0  0  0  0  0  0  0  0
    5.0509    1.7524   16.8186 H   0  0  0  0  0  0  0  0  0  0  0  0
    4.8230    1.3826   18.9419 C   0  0  0  0  0  0  0  0  0  0  0  0
    3.9292    1.9898   19.0238 H   0  0  0  0  0  0  0  0  0  0  0  0
    5.3961    0.7605   20.0524 C   0  0  0  0  0  0  0  0  0  0  0  0
    4.9454    0.8562   21.0415 H   0  0  0  0  0  0  0  0  0  0  0  0
    7.6175   -1.9837   20.8236 N   0  0  0  0  0  0  0  0  0  0  0  0
    7.3008   -2.5281   20.0401 H   0  0  0  0  0  0  0  0  0  0  0  0
    8.0706   -2.7818   21.8264 C   0  0  0  0  0  0  0  0  0  0  0  0
    8.1483   -4.4287   21.6318 S   0  0  0  0  0  0  0  0  0  0  0  0
    8.4574   -2.1662   22.9554 N   0  0  0  0  0  0  0  0  0  0  0  0
    8.8310   -2.8162   23.6286 H   0  0  0  0  0  0  0  0  0  0  0  0
    8.3557   -0.7256   23.2210 C   0  0  1  0  0  0  0  0  0  0  0  0
    7.8378   -0.5716   24.1843 H   0  0  0  0  0  0  0  0  0  0  0  0
    9.7751   -0.0986   23.3987 C   0  0  0  0  0  0  0  0  0  0  0  0
   10.2951   -0.6361   24.1985 H   0  0  0  0  0  0  0  0  0  0  0  0
   10.3304   -0.2581   22.4672 H   0  0  0  0  0  0  0  0  0  0  0  0
    9.6825    1.3726   23.7319 C   0  0  0  0  0  0  0  0  0  0  0  0
    9.8267    2.3508   22.7015 C   0  0  0  0  0  0  0  0  0  0  0  0
   10.0164    2.0152   21.6827 H   0  0  0  0  0  0  0  0  0  0  0  0
    9.6958    3.6889   22.9787 C   0  0  0  0  0  0  0  0  0  0  0  0
    9.8140    4.4458   22.2176 H   0  0  0  0  0  0  0  0  0  0  0  0
    9.3891    4.1403   24.2923 C   0  0  0  0  0  0  0  0  0  0  0  0
    9.2819    5.5275   24.6061 C   0  0  0  0  0  0  0  0  0  0  0  0
    9.4723    6.2529   23.8178 H   0  0  0  0  0  0  0  0  0  0  0  0
    8.9276    5.9301   25.8717 C   0  0  0  0  0  0  0  0  0  0  0  0
    8.8381    6.9863   26.1074 H   0  0  0  0  0  0  0  0  0  0  0  0
    8.6454    4.9601   26.8788 C   0  0  0  0  0  0  0  0  0  0  0  0
    8.3375    5.2933   27.8653 H   0  0  0  0  0  0  0  0  0  0  0  0
    8.7453    3.6166   26.6031 C   0  0  0  0  0  0  0  0  0  0  0  0
    8.5130    2.8614   27.3529 H   0  0  0  0  0  0  0  0  0  0  0  0
    9.1617    3.1683   25.3154 C   0  0  0  0  0  0  0  0  0  0  0  0
    9.3477    1.7878   25.0061 C   0  0  0  0  0  0  0  0  0  0  0  0
    9.2165    1.0585   25.8038 H   0  0  0  0  0  0  0  0  0  0  0  0
  1  2  1  0
  2  3  2  0
  3  4  1  0
  4  5  2  0
  5  6  1  0
  5  7  1  0
  7  8  2  0
  8  9  1  0
  8 10  1  0
 10 11  1  0
 10 12  2  0
 12 13  1  0
  3 14  1  0
 14 15  1  0
 14 16  1  0
 16 17  2  0
 16 18  1  0
 18 19  1  0
 18 20  1  0
 20 21  1  1
 20 22  1  0
 22 23  1  0
 22 24  1  0
 22 25  1  0
 25 26  2  0
 26 27  1  0
 26 28  1  0
 28 29  1  0
 28 30  2  0
 30 31  1  0
 31 32  1  0
 31 33  2  0
 33 34  1  0
 33 35  1  0
 35 36  1  0
 35 37  2  0
 37 38  1  0
 37 39  1  0
 39 40  2  0
 40 41  1  0
 20  2  1  0
 40 25  1  0
 12  4  1  0
 39 30  1  0
M  END
>  <plip>  (1) 
-0.10714285714285714

>  <filename>  (1) 
[H][C]1=[C]([c]2[c]([H])[n][c]([H])[c]([H])[c]2[H])[N]([H])[C](=[S])[N]([H])[C@@]1([H])[C]([H])([H])[c]1[c]([H])[c]([H])[c]2[c]([H])[c]([H])[c]([H])[c]([H])[c]2[c]1[H]

$$$$
