
     RDKit          3D

 33 34  0  0  0  0  0  0  0  0999 V2000
   10.8669   -0.7822   23.1450 H   0  0  0  0  0  0  0  0  0  0  0  0
   10.7024   -0.1193   23.8493 O   0  0  0  0  0  0  0  0  0  0  0  0
    9.5765    0.6460   23.4812 C   0  0  0  0  0  0  0  0  0  0  0  0
    9.7295    1.6388   23.9272 H   0  0  0  0  0  0  0  0  0  0  0  0
    8.6446    0.2293   23.9058 H   0  0  0  0  0  0  0  0  0  0  0  0
    9.3565    0.8844   21.9487 C   0  0  0  0  0  0  0  0  0  0  0  0
    8.8073   -0.3341   21.2605 N   0  0  0  0  0  0  0  0  0  0  0  0
    9.5117   -1.5075   21.2948 C   0  0  0  0  0  0  0  0  0  0  0  0
   10.6837   -1.7017   21.5660 O   0  0  0  0  0  0  0  0  0  0  0  0
    8.6692   -2.5454   21.0388 N   0  0  0  0  0  0  0  0  0  0  0  0
    8.9793   -3.4863   21.1536 H   0  0  0  0  0  0  0  0  0  0  0  0
    7.3644   -2.1835   20.9405 C   0  0  0  0  0  0  0  0  0  0  0  0
    6.4538   -2.9580   20.7925 O   0  0  0  0  0  0  0  0  0  0  0  0
    7.3626   -0.6420   21.0915 C   0  0  2  0  0  0  0  0  0  0  0  0
    6.8058   -0.4417   22.0204 H   0  0  0  0  0  0  0  0  0  0  0  0
    6.6981    0.0936   19.9426 C   0  0  0  0  0  0  0  0  0  0  0  0
    7.2620    0.1499   18.6560 C   0  0  0  0  0  0  0  0  0  0  0  0
    8.2268   -0.3125   18.4473 H   0  0  0  0  0  0  0  0  0  0  0  0
    6.6660    0.7389   17.6096 N   0  0  0  0  0  0  0  0  0  0  0  0
    5.4752    1.3231   17.8161 C   0  0  0  0  0  0  0  0  0  0  0  0
    5.0225    1.7991   16.9488 H   0  0  0  0  0  0  0  0  0  0  0  0
    4.8252    1.3240   19.0529 C   0  0  0  0  0  0  0  0  0  0  0  0
    3.8685    1.8194   19.1582 H   0  0  0  0  0  0  0  0  0  0  0  0
    5.4458    0.6919   20.1325 C   0  0  0  0  0  0  0  0  0  0  0  0
    4.9736    0.6579   21.1165 H   0  0  0  0  0  0  0  0  0  0  0  0
    8.3670    2.0398   21.7693 C   0  0  0  0  0  0  0  0  0  0  0  0
    8.7977    2.9671   22.1585 H   0  0  0  0  0  0  0  0  0  0  0  0
    8.1443    2.1912   20.7116 H   0  0  0  0  0  0  0  0  0  0  0  0
    7.4225    1.8562   22.2930 H   0  0  0  0  0  0  0  0  0  0  0  0
   10.7113    1.2762   21.3477 C   0  0  0  0  0  0  0  0  0  0  0  0
   10.5728    1.7478   20.3818 H   0  0  0  0  0  0  0  0  0  0  0  0
   11.2088    1.9926   22.0128 H   0  0  0  0  0  0  0  0  0  0  0  0
   11.3500    0.4009   21.2298 H   0  0  0  0  0  0  0  0  0  0  0  0
  1  2  1  0
  2  3  1  0
  3  4  1  0
  3  5  1  0
  3  6  1  0
  6  7  1  0
  7  8  1  0
  8  9  2  0
  8 10  1  0
 10 11  1  0
 10 12  1  0
 12 13  2  0
 12 14  1  0
 14 15  1  1
 14 16  1  0
 16 17  2  0
 17 18  1  0
 17 19  1  0
 19 20  2  0
 20 21  1  0
 20 22  1  0
 22 23  1  0
 22 24  2  0
 24 25  1  0
  6 26  1  0
 26 27  1  0
 26 28  1  0
 26 29  1  0
  6 30  1  0
 30 31  1  0
 30 32  1  0
 30 33  1  0
 14  7  1  0
 24 16  1  0
M  END
>  <plip>  (1) 
-0.06896551724137931

>  <filename>  (1) 
[H][O][C]([H])([H])[C]([N]1[C](=[O])[N]([H])[C](=[O])[C@]1([H])[c]1[c]([H])[n][c]([H])[c]([H])[c]1[H])([C]([H])([H])[H])[C]([H])([H])[H]

$$$$
