
     RDKit          3D

 28 30  0  0  0  0  0  0  0  0999 V2000
    9.4505    0.0807   20.4352 O   0  0  0  0  0  0  0  0  0  0  0  0
    8.7205   -0.6574   21.0866 C   0  0  0  0  0  0  0  0  0  0  0  0
    7.3515   -0.6330   20.9536 N   0  0  0  0  0  0  0  0  0  0  0  0
    6.6600    0.0093   19.8946 C   0  0  0  0  0  0  0  0  0  0  0  0
    5.4409    0.6402   20.1506 C   0  0  0  0  0  0  0  0  0  0  0  0
    4.7986    1.3072   19.1016 C   0  0  0  0  0  0  0  0  0  0  0  0
    5.3838    1.2979   17.8311 C   0  0  0  0  0  0  0  0  0  0  0  0
    6.5445    0.6779   17.5613 N   0  0  0  0  0  0  0  0  0  0  0  0
    7.1682    0.0635   18.5713 C   0  0  0  0  0  0  0  0  0  0  0  0
    8.1201   -0.4110   18.3436 H   0  0  0  0  0  0  0  0  0  0  0  0
    4.9124    1.8059   16.9948 H   0  0  0  0  0  0  0  0  0  0  0  0
    3.8689    1.8413   19.2601 H   0  0  0  0  0  0  0  0  0  0  0  0
    5.0391    0.6187   21.1633 H   0  0  0  0  0  0  0  0  0  0  0  0
    6.8354   -1.1767   21.6351 H   0  0  0  0  0  0  0  0  0  0  0  0
    9.2973   -1.6982   22.0795 C   0  0  0  0  0  0  0  0  0  0  0  0
   10.7131   -1.7493   22.1837 C   0  0  0  0  0  0  0  0  0  0  0  0
   11.3305   -2.7357   22.9280 C   0  0  0  0  0  0  0  0  0  0  0  0
   10.4958   -3.5560   23.6955 C   0  0  0  0  0  0  0  0  0  0  0  0
   10.7432   -4.5377   24.6228 N   0  0  0  0  0  0  0  0  0  0  0  0
    9.5417   -5.1215   24.9851 C   0  0  0  0  0  0  0  0  0  0  0  0
    8.5109   -4.5145   24.3258 C   0  0  0  0  0  0  0  0  0  0  0  0
    9.0835   -3.4717   23.5230 C   0  0  0  0  0  0  0  0  0  0  0  0
    8.4869   -2.5501   22.7255 N   0  0  0  0  0  0  0  0  0  0  0  0
    7.4597   -4.7671   24.3598 H   0  0  0  0  0  0  0  0  0  0  0  0
    9.5385   -5.9481   25.6843 H   0  0  0  0  0  0  0  0  0  0  0  0
   11.6446   -4.7687   25.0062 H   0  0  0  0  0  0  0  0  0  0  0  0
   12.4021   -2.8673   22.8447 H   0  0  0  0  0  0  0  0  0  0  0  0
   11.2825   -0.9886   21.6629 H   0  0  0  0  0  0  0  0  0  0  0  0
  1  2  2  0
  2  3  1  0
  3  4  1  0
  4  5  2  0
  5  6  1  0
  6  7  2  0
  7  8  1  0
  8  9  2  0
  9 10  1  0
  7 11  1  0
  6 12  1  0
  5 13  1  0
  3 14  1  0
  2 15  1  0
 15 16  2  0
 16 17  1  0
 17 18  2  0
 18 19  1  0
 19 20  1  0
 20 21  2  0
 21 22  1  0
 22 23  2  0
 21 24  1  0
 20 25  1  0
 19 26  1  0
 17 27  1  0
 16 28  1  0
  9  4  1  0
 23 15  1  0
 22 18  1  0
M  END
>  <plip>  (1) 
-0.13793103448275862

>  <filename>  (1) 
[H][c]1[n][c]([H])[c]([N]([H])[C](=[O])[c]2[n][c]3[c]([H])[c]([H])[n]([H])[c]3[c]([H])[c]2[H])[c]([H])[c]1[H]

$$$$
