
     RDKit          3D

 36 38  0  0  0  0  0  0  0  0999 V2000
    9.8169   -4.2268   26.5029 C   0  0  0  0  0  0  0  0  0  0  0  0
    8.9356   -3.1415   26.0631 N   0  0  0  0  0  0  0  0  0  0  0  0
    9.1650   -2.5942   24.8019 C   0  0  0  0  0  0  0  0  0  0  0  0
   10.2360   -2.6958   24.2199 O   0  0  0  0  0  0  0  0  0  0  0  0
    8.0822   -1.9715   24.2412 N   0  0  0  0  0  0  0  0  0  0  0  0
    7.9732   -1.5885   22.9153 C   0  0  0  0  0  0  0  0  0  0  0  0
    6.9663   -0.8911   22.3299 C   0  0  0  0  0  0  0  0  0  0  0  0
    7.3775   -0.7464   20.9873 C   0  0  0  0  0  0  0  0  0  0  0  0
    6.6669   -0.0350   19.9092 C   0  0  0  0  0  0  0  0  0  0  0  0
    5.4539    0.6355   20.1379 C   0  0  0  0  0  0  0  0  0  0  0  0
    4.8442    1.2930   19.0732 C   0  0  0  0  0  0  0  0  0  0  0  0
    5.4711    1.2701   17.8215 C   0  0  0  0  0  0  0  0  0  0  0  0
    6.6310    0.6378   17.5828 N   0  0  0  0  0  0  0  0  0  0  0  0
    7.2082    0.0064   18.6121 C   0  0  0  0  0  0  0  0  0  0  0  0
    8.1513   -0.4951   18.4058 H   0  0  0  0  0  0  0  0  0  0  0  0
    5.0202    1.7809   16.9738 H   0  0  0  0  0  0  0  0  0  0  0  0
    3.9091    1.8291   19.2028 H   0  0  0  0  0  0  0  0  0  0  0  0
    5.0028    0.6528   21.1315 H   0  0  0  0  0  0  0  0  0  0  0  0
    8.5625   -1.3134   20.7795 N   0  0  0  0  0  0  0  0  0  0  0  0
    8.9089   -1.8347   21.9799 N   0  0  0  0  0  0  0  0  0  0  0  0
    9.8465   -2.1032   22.2597 H   0  0  0  0  0  0  0  0  0  0  0  0
    6.1125   -0.4683   22.8312 H   0  0  0  0  0  0  0  0  0  0  0  0
    7.2231   -2.0295   24.7576 H   0  0  0  0  0  0  0  0  0  0  0  0
    7.7862   -2.8831   26.8489 C   0  0  0  0  0  0  0  0  0  0  0  0
    6.9697   -3.9334   27.2622 C   0  0  0  0  0  0  0  0  0  0  0  0
    5.7372   -3.6280   27.8361 C   0  0  0  0  0  0  0  0  0  0  0  0
    5.3307   -2.3797   28.1034 N   0  0  0  0  0  0  0  0  0  0  0  0
    6.1628   -1.3854   27.7697 C   0  0  0  0  0  0  0  0  0  0  0  0
    7.3991   -1.5781   27.1515 C   0  0  0  0  0  0  0  0  0  0  0  0
    8.0218   -0.7362   26.8815 H   0  0  0  0  0  0  0  0  0  0  0  0
    5.8119   -0.3778   27.9770 H   0  0  0  0  0  0  0  0  0  0  0  0
    5.0471   -4.4314   28.0860 H   0  0  0  0  0  0  0  0  0  0  0  0
    7.2856   -4.9614   27.1413 H   0  0  0  0  0  0  0  0  0  0  0  0
   10.7871   -4.1241   26.0160 H   0  0  0  0  0  0  0  0  0  0  0  0
    9.9548   -4.1673   27.5832 H   0  0  0  0  0  0  0  0  0  0  0  0
    9.4172   -5.2282   26.2774 H   0  0  0  0  0  0  0  0  0  0  0  0
  1  2  1  0
  2  3  1  0
  3  4  2  0
  3  5  1  0
  5  6  1  0
  6  7  2  0
  7  8  1  0
  8  9  1  0
  9 10  2  0
 10 11  1  0
 11 12  2  0
 12 13  1  0
 13 14  2  0
 14 15  1  0
 12 16  1  0
 11 17  1  0
 10 18  1  0
  8 19  2  0
 19 20  1  0
 20 21  1  0
  7 22  1  0
  5 23  1  0
  2 24  1  0
 24 25  2  0
 25 26  1  0
 26 27  2  0
 27 28  1  0
 28 29  2  0
 29 30  1  0
 28 31  1  0
 26 32  1  0
 25 33  1  0
  1 34  1  0
  1 35  1  0
  1 36  1  0
 20  6  1  0
 29 24  1  0
 14  9  1  0
M  END
>  <plip>  (1) 
-0.03571428571428571

>  <filename>  (1) 
[H][c]1[n][c]([H])[c](-[c]2[n][n]([H])[c]([N]([H])[C](=[O])[N]([c]3[c]([H])[c]([H])[n][c]([H])[c]3[H])[C]([H])([H])[H])[c]2[H])[c]([H])[c]1[H]

$$$$
