
     RDKit          3D

 28 29  0  0  0  0  0  0  0  0999 V2000
    4.9598    1.7955   16.9763 H   0  0  0  0  0  0  0  0  0  0  0  0
    5.4230    1.2942   17.8253 C   0  0  0  0  0  0  0  0  0  0  0  0
    6.5865    0.6663   17.5913 N   0  0  0  0  0  0  0  0  0  0  0  0
    7.1747    0.0465   18.6210 C   0  0  0  0  0  0  0  0  0  0  0  0
    8.1226   -0.4409   18.3970 H   0  0  0  0  0  0  0  0  0  0  0  0
    6.6522    0.0331   19.9397 C   0  0  0  0  0  0  0  0  0  0  0  0
    7.3314   -0.6461   21.0752 C   0  0  0  0  0  0  0  0  0  0  0  0
    7.8331   -2.2986   20.8719 S   0  0  0  0  0  0  0  0  0  0  0  0
    8.6226   -2.5021   22.7530 S   0  0  0  0  0  0  0  0  0  0  0  0
    8.1458   -0.9456   23.3556 C   0  0  0  0  0  0  0  0  0  0  0  0
    8.4649   -0.5350   24.9209 S   0  0  0  0  0  0  0  0  0  0  0  0
    7.5014   -0.1171   22.3280 C   0  0  0  0  0  0  0  0  0  0  0  0
    7.1023    1.1842   22.6550 N   0  0  0  0  0  0  0  0  0  0  0  0
    7.1507    1.3045   23.6642 H   0  0  0  0  0  0  0  0  0  0  0  0
    7.8213    2.2764   21.9977 C   0  0  0  0  0  0  0  0  0  0  0  0
    7.5107    2.3409   20.9475 H   0  0  0  0  0  0  0  0  0  0  0  0
    8.9126    2.0902   21.9989 H   0  0  0  0  0  0  0  0  0  0  0  0
    7.4922    3.5609   22.7463 C   0  0  0  0  0  0  0  0  0  0  0  0
    6.4004    3.6738   22.7554 H   0  0  0  0  0  0  0  0  0  0  0  0
    7.8125    3.4225   23.7899 H   0  0  0  0  0  0  0  0  0  0  0  0
    8.1579    4.8202   22.1984 C   0  0  0  0  0  0  0  0  0  0  0  0
    7.8746    5.6926   22.7956 H   0  0  0  0  0  0  0  0  0  0  0  0
    9.2491    4.7360   22.2408 H   0  0  0  0  0  0  0  0  0  0  0  0
    7.8752    5.0295   21.1613 H   0  0  0  0  0  0  0  0  0  0  0  0
    5.4265    0.6913   20.1549 C   0  0  0  0  0  0  0  0  0  0  0  0
    4.9907    0.7171   21.1533 H   0  0  0  0  0  0  0  0  0  0  0  0
    4.8028    1.3176   19.0748 C   0  0  0  0  0  0  0  0  0  0  0  0
    3.8615    1.8367   19.2010 H   0  0  0  0  0  0  0  0  0  0  0  0
  1  2  1  0
  2  3  2  0
  3  4  1  0
  4  5  1  0
  4  6  2  0
  6  7  1  0
  7  8  1  0
  8  9  1  0
  9 10  1  0
 10 11  2  0
 10 12  1  0
 12 13  1  0
 13 14  1  0
 13 15  1  0
 15 16  1  0
 15 17  1  0
 15 18  1  0
 18 19  1  0
 18 20  1  0
 18 21  1  0
 21 22  1  0
 21 23  1  0
 21 24  1  0
  6 25  1  0
 25 26  1  0
 25 27  2  0
 27 28  1  0
 27  2  1  0
 12  7  2  0
M  END
>  <plip>  (1) 
-0.0

>  <filename>  (1) 
[H][c]1[n][c]([H])[c](-[c]2[s][s][c](=[S])[c]2[N]([H])[C]([H])([H])[C]([H])([H])[C]([H])([H])[H])[c]([H])[c]1[H]

$$$$
