
     RDKit          3D

 29 31  0  0  0  0  0  0  0  0999 V2000
    8.6730   -0.7583   20.8338 O   0  0  0  0  0  0  0  0  0  0  0  0
    7.4567   -0.7217   20.9352 C   0  0  0  0  0  0  0  0  0  0  0  0
    6.7718   -1.3529   21.9460 N   0  0  0  0  0  0  0  0  0  0  0  0
    7.3608   -2.0558   23.0430 C   0  0  0  0  0  0  0  0  0  0  0  0
    8.3620   -2.9973   22.8421 C   0  0  0  0  0  0  0  0  0  0  0  0
    8.9734   -3.7040   23.8304 N   0  0  0  0  0  0  0  0  0  0  0  0
    8.6156   -3.4755   25.0753 C   0  0  0  0  0  0  0  0  0  0  0  0
    7.6039   -2.5445   25.4330 C   0  0  0  0  0  0  0  0  0  0  0  0
    7.2246   -2.3184   26.7855 C   0  0  0  0  0  0  0  0  0  0  0  0
    6.2939   -1.4646   27.1536 N   0  0  0  0  0  0  0  0  0  0  0  0
    5.6949   -0.7305   26.1755 C   0  0  0  0  0  0  0  0  0  0  0  0
    6.0091   -0.8265   24.8396 C   0  0  0  0  0  0  0  0  0  0  0  0
    6.9607   -1.7970   24.4048 C   0  0  0  0  0  0  0  0  0  0  0  0
    5.5580   -0.1299   24.1481 H   0  0  0  0  0  0  0  0  0  0  0  0
    4.9307   -0.0330   26.5202 H   0  0  0  0  0  0  0  0  0  0  0  0
    7.7228   -2.8767   27.5798 H   0  0  0  0  0  0  0  0  0  0  0  0
    9.1395   -4.0379   25.8517 H   0  0  0  0  0  0  0  0  0  0  0  0
    8.7053   -3.1988   21.8294 H   0  0  0  0  0  0  0  0  0  0  0  0
    5.7706   -1.2551   21.9125 H   0  0  0  0  0  0  0  0  0  0  0  0
    6.6054   -0.0207   19.9369 C   0  0  0  0  0  0  0  0  0  0  0  0
    5.3877    0.6406   20.1742 C   0  0  0  0  0  0  0  0  0  0  0  0
    4.7830    1.3054   19.1076 C   0  0  0  0  0  0  0  0  0  0  0  0
    5.4030    1.2779   17.8535 C   0  0  0  0  0  0  0  0  0  0  0  0
    6.5625    0.6479   17.6222 N   0  0  0  0  0  0  0  0  0  0  0  0
    7.1494    0.0372   18.6504 C   0  0  0  0  0  0  0  0  0  0  0  0
    8.1120   -0.4227   18.4477 H   0  0  0  0  0  0  0  0  0  0  0  0
    4.9628    1.7833   16.9947 H   0  0  0  0  0  0  0  0  0  0  0  0
    3.8592    1.8602   19.2298 H   0  0  0  0  0  0  0  0  0  0  0  0
    4.9254    0.6981   21.1650 H   0  0  0  0  0  0  0  0  0  0  0  0
  1  2  2  0
  2  3  1  0
  3  4  1  0
  4  5  2  0
  5  6  1  0
  6  7  2  0
  7  8  1  0
  8  9  2  0
  9 10  1  0
 10 11  2  0
 11 12  1  0
 12 13  2  0
 12 14  1  0
 11 15  1  0
  9 16  1  0
  7 17  1  0
  5 18  1  0
  3 19  1  0
  2 20  1  0
 20 21  2  0
 21 22  1  0
 22 23  2  0
 23 24  1  0
 24 25  2  0
 25 26  1  0
 23 27  1  0
 22 28  1  0
 21 29  1  0
 13  4  1  0
 25 20  1  0
 13  8  1  0
M  END
>  <plip>  (1) 
-0.03571428571428571

>  <filename>  (1) 
[H][c]1[n][c]([H])[c]([C](=[O])[N]([H])[c]2[c]([H])[n][c]([H])[c]3[c]([H])[n][c]([H])[c]([H])[c]23)[c]([H])[c]1[H]

$$$$
