
     RDKit          3D

 30 31  0  0  0  0  0  0  0  0999 V2000
   13.9234   -0.2677   22.9118 N   0  0  0  0  0  4  0  0  0  0  0  0
   12.5941    0.4351   22.7777 C   0  0  0  0  0  0  0  0  0  0  0  0
   11.6742   -0.6112   22.2344 C   0  0  0  0  0  0  0  0  0  0  0  0
   10.8159   -1.3603   22.9318 C   0  0  0  0  0  0  0  0  0  0  0  0
    9.9739   -2.4083   22.2530 C   0  0  0  0  0  0  0  0  0  0  0  0
    8.6254   -1.9360   21.9867 N   0  0  0  0  0  0  0  0  0  0  0  0
    8.3622   -1.4008   20.7390 N   0  0  0  0  0  0  0  0  0  0  0  0
    7.2860   -0.7256   20.9238 C   0  0  0  0  0  0  0  0  0  0  0  0
    6.5760    0.0226   19.9056 C   0  0  0  0  0  0  0  0  0  0  0  0
    5.3732    0.7058   20.1282 C   0  0  0  0  0  0  0  0  0  0  0  0
    4.7906    1.3539   19.0437 C   0  0  0  0  0  0  0  0  0  0  0  0
    5.4370    1.3174   17.8024 C   0  0  0  0  0  0  0  0  0  0  0  0
    6.5945    0.6751   17.5909 N   0  0  0  0  0  0  0  0  0  0  0  0
    7.1470    0.0431   18.6278 C   0  0  0  0  0  0  0  0  0  0  0  0
    8.0868   -0.4700   18.4384 H   0  0  0  0  0  0  0  0  0  0  0  0
    5.0018    1.8161   16.9377 H   0  0  0  0  0  0  0  0  0  0  0  0
    3.8548    1.8910   19.1448 H   0  0  0  0  0  0  0  0  0  0  0  0
    4.9147    0.7308   21.1180 H   0  0  0  0  0  0  0  0  0  0  0  0
    6.8367   -0.7324   22.1945 O   0  0  0  0  0  0  0  0  0  0  0  0
    7.7173   -1.5026   22.9218 C   0  0  0  0  0  0  0  0  0  0  0  0
    7.6408   -1.7007   24.1033 O   0  0  0  0  0  0  0  0  0  0  0  0
    9.9322   -3.3399   22.8260 H   0  0  0  0  0  0  0  0  0  0  0  0
   10.3886   -2.6031   21.2585 H   0  0  0  0  0  0  0  0  0  0  0  0
   10.6312   -1.1991   23.9909 H   0  0  0  0  0  0  0  0  0  0  0  0
   11.7929   -0.8157   21.1701 H   0  0  0  0  0  0  0  0  0  0  0  0
   12.6849    1.2916   22.0972 H   0  0  0  0  0  0  0  0  0  0  0  0
   12.2319    0.7977   23.7427 H   0  0  0  0  0  0  0  0  0  0  0  0
   14.1665   -0.6097   21.9661 H   0  0  0  0  0  0  0  0  0  0  0  0
   13.7726   -1.1044   23.5034 H   0  0  0  0  0  0  0  0  0  0  0  0
   14.6719    0.3162   23.3006 H   0  0  0  0  0  0  0  0  0  0  0  0
  1  2  1  0
  2  3  1  0
  3  4  2  3
  4  5  1  0
  5  6  1  0
  6  7  1  0
  7  8  2  0
  8  9  1  0
  9 10  2  0
 10 11  1  0
 11 12  2  0
 12 13  1  0
 13 14  2  0
 14 15  1  0
 12 16  1  0
 11 17  1  0
 10 18  1  0
  8 19  1  0
 19 20  1  0
 20 21  2  0
  5 22  1  0
  5 23  1  0
  4 24  1  0
  3 25  1  0
  2 26  1  0
  2 27  1  0
  1 28  1  0
  1 29  1  0
  1 30  1  0
 20  6  1  0
 14  9  1  0
M  CHG  1   1   1
M  END
>  <plip>  (1) 
-0.034482758620689655

>  <filename>  (1) 
[H][C](=[C]([H])[C]([H])([H])[N+]([H])([H])[H])[C]([H])([H])[n]1[n][c](-[c]2[c]([H])[n][c]([H])[c]([H])[c]2[H])[o][c]1=[O]

$$$$
