
     RDKit          3D

 34 36  0  0  0  0  0  0  0  0999 V2000
    4.9609    1.8145   17.0030 H   0  0  0  0  0  0  0  0  0  0  0  0
    5.4094    1.2903   17.8425 C   0  0  0  0  0  0  0  0  0  0  0  0
    6.5644    0.6549   17.5966 N   0  0  0  0  0  0  0  0  0  0  0  0
    7.1529    0.0354   18.6244 C   0  0  0  0  0  0  0  0  0  0  0  0
    8.0890   -0.4679   18.3848 H   0  0  0  0  0  0  0  0  0  0  0  0
    6.6237   -0.0175   19.9269 C   0  0  0  0  0  0  0  0  0  0  0  0
    7.4011   -0.7133   20.9765 C   0  0  0  0  0  0  0  0  0  0  0  0
    6.6316   -1.2301   21.9878 O   0  0  0  0  0  0  0  0  0  0  0  0
    7.2133   -1.9626   22.9802 C   0  0  0  0  0  0  0  0  0  0  0  0
    6.2211   -2.4379   23.9828 C   0  0  0  0  0  0  0  0  0  0  0  0
    5.3220   -2.7937   23.4768 H   0  0  0  0  0  0  0  0  0  0  0  0
    6.6319   -3.2643   24.5687 H   0  0  0  0  0  0  0  0  0  0  0  0
    5.8113   -1.3415   24.9699 C   0  0  1  0  0  0  0  0  0  0  0  0
    5.3398   -0.5026   24.4429 H   0  0  0  0  0  0  0  0  0  0  0  0
    4.8601   -1.9437   25.8321 O   0  0  0  0  0  0  0  0  0  0  0  0
    4.9594   -1.4134   27.1447 C   0  0  0  0  0  0  0  0  0  0  0  0
    3.9868   -0.9797   27.4104 H   0  0  0  0  0  0  0  0  0  0  0  0
    5.1663   -2.2324   27.8470 H   0  0  0  0  0  0  0  0  0  0  0  0
    6.0922   -0.3712   27.1161 C   0  0  0  0  0  0  0  0  0  0  0  0
    5.6678    0.6272   26.9784 H   0  0  0  0  0  0  0  0  0  0  0  0
    6.6724   -0.3567   28.0441 H   0  0  0  0  0  0  0  0  0  0  0  0
    6.9025   -0.7637   25.8726 C   0  0  0  0  0  0  0  0  0  0  0  0
    7.4176    0.0742   25.3889 H   0  0  0  0  0  0  0  0  0  0  0  0
    7.6572   -1.5230   26.1005 H   0  0  0  0  0  0  0  0  0  0  0  0
    8.5442   -2.1095   23.0782 C   0  0  0  0  0  0  0  0  0  0  0  0
    9.0009   -2.6387   23.9009 H   0  0  0  0  0  0  0  0  0  0  0  0
    9.4392   -1.4894   22.0991 C   0  0  0  0  0  0  0  0  0  0  0  0
   10.6525   -1.5419   22.1990 O   0  0  0  0  0  0  0  0  0  0  0  0
    8.7493   -0.8016   21.0096 C   0  0  0  0  0  0  0  0  0  0  0  0
    9.3768   -0.3177   20.2781 H   0  0  0  0  0  0  0  0  0  0  0  0
    5.3953    0.6364   20.1580 C   0  0  0  0  0  0  0  0  0  0  0  0
    4.9522    0.6304   21.1533 H   0  0  0  0  0  0  0  0  0  0  0  0
    4.7859    1.3056   19.0966 C   0  0  0  0  0  0  0  0  0  0  0  0
    3.8581    1.8531   19.2284 H   0  0  0  0  0  0  0  0  0  0  0  0
  1  2  1  0
  2  3  2  0
  3  4  1  0
  4  5  1  0
  4  6  2  0
  6  7  1  0
  7  8  1  0
  8  9  1  0
  9 10  1  0
 10 11  1  0
 10 12  1  0
 10 13  1  0
 13 14  1  6
 13 15  1  0
 15 16  1  0
 16 17  1  0
 16 18  1  0
 16 19  1  0
 19 20  1  0
 19 21  1  0
 19 22  1  0
 22 23  1  0
 22 24  1  0
  9 25  2  0
 25 26  1  0
 25 27  1  0
 27 28  2  0
 27 29  1  0
 29 30  1  0
  6 31  1  0
 31 32  1  0
 31 33  2  0
 33 34  1  0
 33  2  1  0
 29  7  2  0
 22 13  1  0
M  END
>  <plip>  (1) 
-0.0

>  <filename>  (1) 
[H][c]1[n][c]([H])[c](-[c]2[o][c]([C]([H])([H])[C@@]3([H])[O][C]([H])([H])[C]([H])([H])[C]3([H])[H])[c]([H])[c](=[O])[c]2[H])[c]([H])[c]1[H]

$$$$
