
     RDKit          3D

 44 48  0  0  0  0  0  0  0  0999 V2000
    4.9294    1.7734   17.0012 H   0  0  0  0  0  0  0  0  0  0  0  0
    5.4088    1.2859   17.8451 C   0  0  0  0  0  0  0  0  0  0  0  0
    6.5734    0.6677   17.5930 N   0  0  0  0  0  0  0  0  0  0  0  0
    7.1794    0.0535   18.6143 C   0  0  0  0  0  0  0  0  0  0  0  0
    8.1265   -0.4326   18.3849 H   0  0  0  0  0  0  0  0  0  0  0  0
    6.6457    0.0176   19.9093 C   0  0  0  0  0  0  0  0  0  0  0  0
    7.3629   -0.6855   20.9670 C   0  0  0  0  0  0  0  0  0  0  0  0
    8.5483   -1.3310   20.7702 N   0  0  0  0  0  0  0  0  0  0  0  0
    8.7882   -1.8177   21.9639 C   0  0  0  0  0  0  0  0  0  0  0  0
    9.9849   -2.8340   22.7248 S   0  0  0  0  0  0  0  0  0  0  0  0
    9.0541   -2.8042   24.2038 C   0  0  0  0  0  0  0  0  0  0  0  0
    9.3938   -3.3391   25.0770 H   0  0  0  0  0  0  0  0  0  0  0  0
    7.9345   -2.0458   24.1168 C   0  0  0  0  0  0  0  0  0  0  0  0
    6.9821   -1.8357   25.0861 N   0  0  0  0  0  0  0  0  0  0  0  0
    6.4941   -0.4935   25.4388 C   0  0  0  0  0  0  0  0  0  0  0  0
    6.6372    0.1815   24.5926 H   0  0  0  0  0  0  0  0  0  0  0  0
    7.0509   -0.0879   26.2981 H   0  0  0  0  0  0  0  0  0  0  0  0
    5.0061   -0.5396   25.8132 C   0  0  0  0  0  0  0  0  0  0  0  0
    4.4105   -0.7106   24.9118 H   0  0  0  0  0  0  0  0  0  0  0  0
    4.7010    0.4413   26.1893 H   0  0  0  0  0  0  0  0  0  0  0  0
    4.7552   -1.5488   26.8341 N   0  0  0  0  0  0  0  0  0  0  0  0
    3.7649   -1.3726   27.8167 C   0  0  0  0  0  0  0  0  0  0  0  0
    4.0286   -1.8189   29.1246 C   0  0  0  0  0  0  0  0  0  0  0  0
    4.9885   -2.2896   29.3201 H   0  0  0  0  0  0  0  0  0  0  0  0
    3.0971   -1.6176   30.1438 C   0  0  0  0  0  0  0  0  0  0  0  0
    3.3252   -1.9657   31.1483 H   0  0  0  0  0  0  0  0  0  0  0  0
    1.8789   -0.9867   29.8689 C   0  0  0  0  0  0  0  0  0  0  0  0
    1.1519   -0.8397   30.6628 H   0  0  0  0  0  0  0  0  0  0  0  0
    1.6027   -0.5482   28.5694 C   0  0  0  0  0  0  0  0  0  0  0  0
    0.6604   -0.0519   28.3486 H   0  0  0  0  0  0  0  0  0  0  0  0
    2.5396   -0.7326   27.5471 C   0  0  0  0  0  0  0  0  0  0  0  0
    2.3404   -0.3989   26.5319 H   0  0  0  0  0  0  0  0  0  0  0  0
    5.2227   -2.8820   26.4633 C   0  0  0  0  0  0  0  0  0  0  0  0
    5.0703   -3.5705   27.2986 H   0  0  0  0  0  0  0  0  0  0  0  0
    4.6635   -3.3060   25.6092 H   0  0  0  0  0  0  0  0  0  0  0  0
    6.7161   -2.8510   26.1080 C   0  0  0  0  0  0  0  0  0  0  0  0
    7.3058   -2.6745   27.0230 H   0  0  0  0  0  0  0  0  0  0  0  0
    7.0051   -3.8311   25.7160 H   0  0  0  0  0  0  0  0  0  0  0  0
    7.8221   -1.4791   22.8386 N   0  0  0  0  0  0  0  0  0  0  0  0
    6.8723   -0.7384   22.1968 N   0  0  0  0  0  0  0  0  0  0  0  0
    5.4235    0.6606   20.1658 C   0  0  0  0  0  0  0  0  0  0  0  0
    4.9963    0.6371   21.1736 H   0  0  0  0  0  0  0  0  0  0  0  0
    4.8036    1.3111   19.1067 C   0  0  0  0  0  0  0  0  0  0  0  0
    3.8732    1.8440   19.2552 H   0  0  0  0  0  0  0  0  0  0  0  0
  1  2  1  0
  2  3  2  0
  3  4  1  0
  4  5  1  0
  4  6  2  0
  6  7  1  0
  7  8  1  0
  8  9  2  0
  9 10  1  0
 10 11  1  0
 11 12  1  0
 11 13  2  0
 13 14  1  0
 14 15  1  0
 15 16  1  0
 15 17  1  0
 15 18  1  0
 18 19  1  0
 18 20  1  0
 18 21  1  0
 21 22  1  0
 22 23  2  0
 23 24  1  0
 23 25  1  0
 25 26  1  0
 25 27  2  0
 27 28  1  0
 27 29  1  0
 29 30  1  0
 29 31  2  0
 31 32  1  0
 21 33  1  0
 33 34  1  0
 33 35  1  0
 33 36  1  0
 36 37  1  0
 36 38  1  0
 13 39  1  0
 39 40  1  0
  6 41  1  0
 41 42  1  0
 41 43  2  0
 43 44  1  0
 43  2  1  0
 40  7  2  0
 39  9  1  0
 36 14  1  0
 31 22  1  0
M  END
>  <plip>  (1) 
-0.07142857142857142

>  <filename>  (1) 
[H][c]1[n][c]([H])[c](-[c]2[n][c]3[s][c]([H])[c]([N]4[C]([H])([H])[C]([H])([H])[N]([c]5[c]([H])[c]([H])[c]([H])[c]([H])[c]5[H])[C]([H])([H])[C]4([H])[H])[n]3[n]2)[c]([H])[c]1[H]

$$$$
