
     RDKit          3D

 27 29  0  0  0  0  0  0  0  0999 V2000
    5.3309   -0.9870   27.0126 C   0  0  0  0  0  0  0  0  0  0  0  0
    6.6858   -1.1708   27.2958 C   0  0  0  0  0  0  0  0  0  0  0  0
    7.6046   -1.3648   26.3633 N   0  0  0  0  0  0  0  0  0  0  0  0
    7.1576   -1.2761   25.1156 C   0  0  0  0  0  0  0  0  0  0  0  0
    8.1258   -1.5331   24.2282 N   0  0  0  0  0  0  0  0  0  0  0  0
    8.0726   -1.3894   22.8870 C   0  0  0  0  0  0  0  0  0  0  0  0
    8.8424   -1.9459   21.9990 N   0  0  0  0  0  0  0  0  0  0  0  0
    8.3893   -1.5003   20.7695 N   0  0  0  0  0  0  0  0  0  0  0  0
    7.3785   -0.7022   20.9854 C   0  0  0  0  0  0  0  0  0  0  0  0
    6.6331    0.0001   19.9487 C   0  0  0  0  0  0  0  0  0  0  0  0
    5.4142    0.6549   20.1707 C   0  0  0  0  0  0  0  0  0  0  0  0
    4.8148    1.3008   19.0937 C   0  0  0  0  0  0  0  0  0  0  0  0
    5.4477    1.2740   17.8444 C   0  0  0  0  0  0  0  0  0  0  0  0
    6.6094    0.6388   17.6199 N   0  0  0  0  0  0  0  0  0  0  0  0
    7.1789    0.0215   18.6547 C   0  0  0  0  0  0  0  0  0  0  0  0
    8.1197   -0.4959   18.4700 H   0  0  0  0  0  0  0  0  0  0  0  0
    5.0083    1.7765   16.9857 H   0  0  0  0  0  0  0  0  0  0  0  0
    3.8788    1.8347   19.2073 H   0  0  0  0  0  0  0  0  0  0  0  0
    4.9388    0.6602   21.1554 H   0  0  0  0  0  0  0  0  0  0  0  0
    7.1525   -0.5841   22.3280 N   0  0  0  0  0  0  0  0  0  0  0  0
    6.3487   -0.3860   22.9224 H   0  0  0  0  0  0  0  0  0  0  0  0
    8.9433   -1.8374   24.7071 H   0  0  0  0  0  0  0  0  0  0  0  0
    5.9327   -0.9949   24.7004 N   0  0  0  0  0  0  0  0  0  0  0  0
    5.0100   -0.9407   25.6671 C   0  0  0  0  0  0  0  0  0  0  0  0
    3.9713   -0.8520   25.3484 H   0  0  0  0  0  0  0  0  0  0  0  0
    7.0362   -1.1565   28.3194 H   0  0  0  0  0  0  0  0  0  0  0  0
    4.5887   -0.8835   27.7905 H   0  0  0  0  0  0  0  0  0  0  0  0
  1  2  2  0
  2  3  1  0
  3  4  2  0
  4  5  1  0
  5  6  1  0
  6  7  2  0
  7  8  1  0
  8  9  2  0
  9 10  1  0
 10 11  2  0
 11 12  1  0
 12 13  2  0
 13 14  1  0
 14 15  2  0
 15 16  1  0
 13 17  1  0
 12 18  1  0
 11 19  1  0
  9 20  1  0
 20 21  1  0
  5 22  1  0
  4 23  1  0
 23 24  2  0
 24 25  1  0
  2 26  1  0
  1 27  1  0
 24  1  1  0
 20  6  1  0
 15 10  1  0
M  END
>  <plip>  (1) 
-0.06896551724137931

>  <filename>  (1) 
[H][c]1[n][c]([N]([H])[c]2[n][n][c](-[c]3[c]([H])[n][c]([H])[c]([H])[c]3[H])[n]2[H])[n][c]([H])[c]1[H]

$$$$
