
     RDKit          3D

 43 44  0  0  0  0  0  0  0  0999 V2000
    9.2511    0.8732   21.2799 C   0  0  0  0  0  0  0  0  0  0  0  0
    8.0504    0.2399   21.9289 N   0  0  0  0  0  4  0  0  0  0  0  0
    8.4225   -0.4107   23.2407 C   0  0  0  0  0  0  0  0  0  0  0  0
    7.2441   -0.5360   24.2077 C   0  0  0  0  0  0  0  0  0  0  0  0
    6.7908    0.7724   24.5475 O   0  0  0  0  0  0  0  0  0  0  0  0
    5.7694    0.9329   25.4438 C   0  0  0  0  0  0  0  0  0  0  0  0
    5.4264    2.2684   25.7261 C   0  0  0  0  0  0  0  0  0  0  0  0
    4.3835    2.5431   26.6076 C   0  0  0  0  0  0  0  0  0  0  0  0
    3.6597    1.5240   27.2274 C   0  0  0  0  0  0  0  0  0  0  0  0
    4.0069    0.1920   26.9539 C   0  0  0  0  0  0  0  0  0  0  0  0
    3.0607   -1.1422   27.7093 S   0  0  0  0  0  0  0  0  0  0  0  0
    3.1338   -2.3032   26.8357 O   0  0  0  0  0  0  0  0  0  0  0  0
    1.7898   -0.6031   28.1806 O   0  0  0  0  0  0  0  0  0  0  0  0
    3.9460   -1.5884   29.1613 C   0  0  0  0  0  0  0  0  0  0  0  0
    3.3647   -2.4000   29.5982 H   0  0  0  0  0  0  0  0  0  0  0  0
    3.9755   -0.7256   29.8204 H   0  0  0  0  0  0  0  0  0  0  0  0
    4.9307   -1.9336   28.8596 H   0  0  0  0  0  0  0  0  0  0  0  0
    5.0609   -0.1077   26.0586 C   0  0  0  0  0  0  0  0  0  0  0  0
    5.3219   -1.1361   25.8147 H   0  0  0  0  0  0  0  0  0  0  0  0
    2.8347    1.7794   27.8910 H   0  0  0  0  0  0  0  0  0  0  0  0
    4.1182    3.5758   26.8129 H   0  0  0  0  0  0  0  0  0  0  0  0
    5.9914    3.0573   25.2410 H   0  0  0  0  0  0  0  0  0  0  0  0
    6.4230   -1.1034   23.7503 H   0  0  0  0  0  0  0  0  0  0  0  0
    7.5788   -1.0782   25.1004 H   0  0  0  0  0  0  0  0  0  0  0  0
    8.8262   -1.4106   23.0392 H   0  0  0  0  0  0  0  0  0  0  0  0
    9.2105    0.1789   23.7197 H   0  0  0  0  0  0  0  0  0  0  0  0
    7.3724   -0.7321   20.9820 C   0  0  0  0  0  0  0  0  0  0  0  0
    6.6469    0.0092   19.9001 C   0  0  0  0  0  0  0  0  0  0  0  0
    5.4345    0.6612   20.1552 C   0  0  0  0  0  0  0  0  0  0  0  0
    4.8016    1.3173   19.0990 C   0  0  0  0  0  0  0  0  0  0  0  0
    5.3972    1.3006   17.8347 C   0  0  0  0  0  0  0  0  0  0  0  0
    6.5623    0.6874   17.5798 N   0  0  0  0  0  0  0  0  0  0  0  0
    7.1643    0.0698   18.6013 C   0  0  0  0  0  0  0  0  0  0  0  0
    8.1147   -0.4164   18.3695 H   0  0  0  0  0  0  0  0  0  0  0  0
    4.9222    1.7959   16.9872 H   0  0  0  0  0  0  0  0  0  0  0  0
    3.8698    1.8500   19.2428 H   0  0  0  0  0  0  0  0  0  0  0  0
    5.0037    0.6462   21.1620 H   0  0  0  0  0  0  0  0  0  0  0  0
    8.1291   -1.4103   20.5674 H   0  0  0  0  0  0  0  0  0  0  0  0
    6.6711   -1.3415   21.5621 H   0  0  0  0  0  0  0  0  0  0  0  0
    7.3306    0.9719   22.1618 H   0  0  0  0  0  0  0  0  0  0  0  0
    8.9647    1.3854   20.3603 H   0  0  0  0  0  0  0  0  0  0  0  0
   10.0013    0.1076   21.0286 H   0  0  0  0  0  0  0  0  0  0  0  0
    9.7294    1.5961   21.9507 H   0  0  0  0  0  0  0  0  0  0  0  0
  1  2  1  0
  2  3  1  0
  3  4  1  0
  4  5  1  0
  5  6  1  0
  6  7  2  0
  7  8  1  0
  8  9  2  0
  9 10  1  0
 10 11  1  0
 11 12  2  0
 11 13  2  0
 11 14  1  0
 14 15  1  0
 14 16  1  0
 14 17  1  0
 10 18  2  0
 18 19  1  0
  9 20  1  0
  8 21  1  0
  7 22  1  0
  4 23  1  0
  4 24  1  0
  3 25  1  0
  3 26  1  0
  2 27  1  0
 27 28  1  0
 28 29  2  0
 29 30  1  0
 30 31  2  0
 31 32  1  0
 32 33  2  0
 33 34  1  0
 31 35  1  0
 30 36  1  0
 29 37  1  0
 27 38  1  0
 27 39  1  0
  2 40  1  0
  1 41  1  0
  1 42  1  0
  1 43  1  0
 18  6  1  0
 33 28  1  0
M  CHG  1   2   1
M  END
>  <plip>  (1) 
-0.03571428571428571

>  <filename>  (1) 
[H][c]1[n][c]([H])[c]([C]([H])([H])[N+]([H])([C]([H])([H])[H])[C]([H])([H])[C]([H])([H])[O][c]2[c]([H])[c]([H])[c]([H])[c]([S](=[O])(=[O])[C]([H])([H])[H])[c]2[H])[c]([H])[c]1[H]

$$$$
