
     RDKit          3D

 46 48  0  0  0  0  0  0  0  0999 V2000
    8.1398   -6.0384   27.3167 C   0  0  0  0  0  0  0  0  0  0  0  0
    8.3748   -4.9267   26.4061 N   0  0  0  0  0  0  0  0  0  0  0  0
    7.4393   -3.7998   26.5760 C   0  0  0  0  0  0  0  0  0  0  0  0
    7.7084   -2.6001   25.6679 C   0  0  0  0  0  0  0  0  0  0  0  0
    7.1685   -2.8763   24.2988 N   0  0  0  0  0  4  0  0  0  0  0  0
    7.6875   -2.0990   23.1479 C   0  0  0  0  0  0  0  0  0  0  0  0
    7.1532   -2.7663   21.8917 C   0  0  0  0  0  0  0  0  0  0  0  0
    7.3861   -1.9118   20.6469 C   0  0  0  0  0  0  0  0  0  0  0  0
    6.8559   -0.5675   20.8607 N   0  0  0  0  0  0  0  0  0  0  0  0
    6.4084    0.1946   19.7428 C   0  0  0  0  0  0  0  0  0  0  0  0
    5.2687    1.0053   19.9033 C   0  0  0  0  0  0  0  0  0  0  0  0
    4.7400    1.6801   18.7985 C   0  0  0  0  0  0  0  0  0  0  0  0
    5.3857    1.5606   17.5635 C   0  0  0  0  0  0  0  0  0  0  0  0
    6.5080    0.8408   17.3892 N   0  0  0  0  0  0  0  0  0  0  0  0
    7.0027    0.1906   18.4539 C   0  0  0  0  0  0  0  0  0  0  0  0
    7.9339   -0.3572   18.2926 H   0  0  0  0  0  0  0  0  0  0  0  0
    4.9913    2.0690   16.6857 H   0  0  0  0  0  0  0  0  0  0  0  0
    3.8559    2.3054   18.8915 H   0  0  0  0  0  0  0  0  0  0  0  0
    4.8215    1.0674   20.8942 H   0  0  0  0  0  0  0  0  0  0  0  0
    7.5363    0.1243   21.9606 C   0  0  0  0  0  0  0  0  0  0  0  0
    7.2440   -0.6383   23.2479 C   0  0  0  0  0  0  0  0  0  0  0  0
    6.1610   -0.6288   23.4031 H   0  0  0  0  0  0  0  0  0  0  0  0
    7.6861   -0.1559   24.1249 H   0  0  0  0  0  0  0  0  0  0  0  0
    7.1755    1.1555   22.0416 H   0  0  0  0  0  0  0  0  0  0  0  0
    8.6286    0.1786   21.7773 H   0  0  0  0  0  0  0  0  0  0  0  0
    6.8606   -2.3549   19.7954 H   0  0  0  0  0  0  0  0  0  0  0  0
    8.4720   -1.8876   20.4139 H   0  0  0  0  0  0  0  0  0  0  0  0
    6.0753   -2.9184   22.0264 H   0  0  0  0  0  0  0  0  0  0  0  0
    7.6215   -3.7497   21.7715 H   0  0  0  0  0  0  0  0  0  0  0  0
    8.7850   -2.1374   23.1286 H   0  0  0  0  0  0  0  0  0  0  0  0
    6.1293   -2.7158   24.2849 H   0  0  0  0  0  0  0  0  0  0  0  0
    7.2803   -3.9031   24.1403 H   0  0  0  0  0  0  0  0  0  0  0  0
    9.2140   -2.3265   25.6508 C   0  0  0  0  0  0  0  0  0  0  0  0
    9.9848   -3.5431   25.1248 C   0  0  0  0  0  0  0  0  0  0  0  0
    9.6057   -4.8694   25.7695 C   0  0  0  0  0  0  0  0  0  0  0  0
   10.3425   -5.8336   25.6591 O   0  0  0  0  0  0  0  0  0  0  0  0
    9.7982   -3.6817   24.0545 H   0  0  0  0  0  0  0  0  0  0  0  0
   11.0657   -3.4666   25.2310 H   0  0  0  0  0  0  0  0  0  0  0  0
    9.4098   -1.4417   25.0416 H   0  0  0  0  0  0  0  0  0  0  0  0
    9.5133   -2.0870   26.6749 H   0  0  0  0  0  0  0  0  0  0  0  0
    7.1965   -1.7407   26.1119 H   0  0  0  0  0  0  0  0  0  0  0  0
    6.4083   -4.1344   26.3954 H   0  0  0  0  0  0  0  0  0  0  0  0
    7.4556   -3.4599   27.6196 H   0  0  0  0  0  0  0  0  0  0  0  0
    7.0950   -6.3626   27.2678 H   0  0  0  0  0  0  0  0  0  0  0  0
    8.3966   -5.7786   28.3556 H   0  0  0  0  0  0  0  0  0  0  0  0
    8.7816   -6.8650   27.0189 H   0  0  0  0  0  0  0  0  0  0  0  0
  1  2  1  0
  2  3  1  0
  3  4  1  0
  4  5  1  0
  5  6  1  0
  6  7  1  0
  7  8  1  0
  8  9  1  0
  9 10  1  0
 10 11  2  0
 11 12  1  0
 12 13  2  0
 13 14  1  0
 14 15  2  0
 15 16  1  0
 13 17  1  0
 12 18  1  0
 11 19  1  0
  9 20  1  0
 20 21  1  0
 21 22  1  0
 21 23  1  0
 20 24  1  0
 20 25  1  0
  8 26  1  0
  8 27  1  0
  7 28  1  0
  7 29  1  0
  6 30  1  0
  5 31  1  0
  5 32  1  0
  4 33  1  0
 33 34  1  0
 34 35  1  0
 35 36  2  0
 34 37  1  0
 34 38  1  0
 33 39  1  0
 33 40  1  0
  4 41  1  0
  3 42  1  0
  3 43  1  0
  1 44  1  0
  1 45  1  0
  1 46  1  0
 35  2  1  0
 21  6  1  0
 15 10  1  0
M  CHG  1   5   1
M  END
>  <plip>  (1) 
-0.06896551724137931

>  <filename>  (1) 
[H][c]1[n][c]([H])[c]([N]2[C]([H])([H])[C]([H])([H])[C]([H])([N+]([H])([H])[C]3([H])[C]([H])([H])[N]([C]([H])([H])[H])[C](=[O])[C]([H])([H])[C]3([H])[H])[C]([H])([H])[C]2([H])[H])[c]([H])[c]1[H]

$$$$
