
     RDKit          3D

 23 24  0  0  0  0  0  0  0  0999 V2000
    7.4456   -2.2925   19.8859 H   0  0  0  0  0  0  0  0  0  0  0  0
    7.2380   -2.1237   20.8155 O   0  0  0  0  0  0  0  0  0  0  0  0
    7.3753   -0.7348   21.0062 C   0  0  2  0  0  0  0  0  0  0  0  0
    6.9356   -0.5290   21.9886 H   0  0  0  0  0  0  0  0  0  0  0  0
    6.6410    0.0165   19.9147 C   0  0  0  0  0  0  0  0  0  0  0  0
    7.1554    0.0425   18.6092 C   0  0  0  0  0  0  0  0  0  0  0  0
    8.1183   -0.4145   18.3764 H   0  0  0  0  0  0  0  0  0  0  0  0
    6.5533    0.6523   17.5799 N   0  0  0  0  0  0  0  0  0  0  0  0
    5.3969    1.2852   17.8263 C   0  0  0  0  0  0  0  0  0  0  0  0
    4.9483    1.8002   16.9767 H   0  0  0  0  0  0  0  0  0  0  0  0
    4.7954    1.3132   19.0907 C   0  0  0  0  0  0  0  0  0  0  0  0
    3.8640    1.8494   19.2226 H   0  0  0  0  0  0  0  0  0  0  0  0
    5.4280    0.6632   20.1519 C   0  0  0  0  0  0  0  0  0  0  0  0
    4.9897    0.6625   21.1524 H   0  0  0  0  0  0  0  0  0  0  0  0
    8.7883   -0.3456   21.0911 N   0  0  0  0  0  0  0  0  0  0  0  0
    9.2611    0.8787   21.5209 C   0  0  0  0  0  0  0  0  0  0  0  0
    8.5597    1.6322   21.8473 H   0  0  0  0  0  0  0  0  0  0  0  0
   10.6283    0.8755   21.4509 C   0  0  0  0  0  0  0  0  0  0  0  0
   11.2648    1.7231   21.6809 H   0  0  0  0  0  0  0  0  0  0  0  0
   11.0177   -0.4131   20.9767 C   0  0  0  0  0  0  0  0  0  0  0  0
   12.0022   -0.7897   20.7190 H   0  0  0  0  0  0  0  0  0  0  0  0
    9.8742   -1.1199   20.7649 C   0  0  0  0  0  0  0  0  0  0  0  0
    9.7227   -2.1004   20.3444 H   0  0  0  0  0  0  0  0  0  0  0  0
  1  2  1  0
  2  3  1  0
  3  4  1  1
  3  5  1  0
  5  6  2  0
  6  7  1  0
  6  8  1  0
  8  9  2  0
  9 10  1  0
  9 11  1  0
 11 12  1  0
 11 13  2  0
 13 14  1  0
  3 15  1  0
 15 16  1  0
 16 17  1  0
 16 18  2  0
 18 19  1  0
 18 20  1  0
 20 21  1  0
 20 22  2  0
 22 23  1  0
 13  5  1  0
 22 15  1  0
M  END
>  <plip>  (1) 
-0.03571428571428571

>  <filename>  (1) 
[H][O][C@]([H])([c]1[c]([H])[n][c]([H])[c]([H])[c]1[H])[n]1[c]([H])[c]([H])[c]([H])[c]1[H]

$$$$
