
     RDKit          3D

 26 27  0  0  0  0  0  0  0  0999 V2000
    7.3840   -0.7118   21.0085 C   0  0  0  0  0  0  0  0  0  0  0  0
    6.9142   -0.7640   22.2008 N   0  0  0  0  0  0  0  0  0  0  0  0
    7.6925   -1.4829   23.0804 O   0  0  0  0  0  0  0  0  0  0  0  0
    7.1105   -1.4656   24.3939 C   0  0  0  0  0  0  0  0  0  0  0  0
    7.0910   -0.1043   25.0376 C   0  0  0  0  0  0  0  0  0  0  0  0
    8.2677    0.4561   25.5269 C   0  0  0  0  0  0  0  0  0  0  0  0
    8.1748    1.7372   26.0500 C   0  0  0  0  0  0  0  0  0  0  0  0
    7.0300    2.4184   26.1030 N   0  0  0  0  0  0  0  0  0  0  0  0
    5.9605    1.7804   25.6282 C   0  0  0  0  0  0  0  0  0  0  0  0
    5.9293    0.5487   25.1221 N   0  0  0  0  0  0  0  0  0  0  0  0
    5.0149    2.3171   25.6564 H   0  0  0  0  0  0  0  0  0  0  0  0
    9.0578    2.2457   26.4359 H   0  0  0  0  0  0  0  0  0  0  0  0
    9.2107   -0.0670   25.4858 H   0  0  0  0  0  0  0  0  0  0  0  0
    7.7649   -2.1269   24.9590 H   0  0  0  0  0  0  0  0  0  0  0  0
    6.1067   -1.8879   24.3990 H   0  0  0  0  0  0  0  0  0  0  0  0
    6.6562    0.0021   19.9368 C   0  0  0  0  0  0  0  0  0  0  0  0
    5.4327    0.6538   20.1704 C   0  0  0  0  0  0  0  0  0  0  0  0
    4.8083    1.3076   19.1098 C   0  0  0  0  0  0  0  0  0  0  0  0
    5.4091    1.2852   17.8479 C   0  0  0  0  0  0  0  0  0  0  0  0
    6.5761    0.6652   17.6014 N   0  0  0  0  0  0  0  0  0  0  0  0
    7.1755    0.0519   18.6296 C   0  0  0  0  0  0  0  0  0  0  0  0
    8.1214   -0.4273   18.3747 H   0  0  0  0  0  0  0  0  0  0  0  0
    4.9248    1.7736   17.0020 H   0  0  0  0  0  0  0  0  0  0  0  0
    3.8770    1.8418   19.2577 H   0  0  0  0  0  0  0  0  0  0  0  0
    5.0066    0.6332   21.1741 H   0  0  0  0  0  0  0  0  0  0  0  0
    8.3320   -1.1835   20.7391 H   0  0  0  0  0  0  0  0  0  0  0  0
  1  2  2  3
  2  3  1  0
  3  4  1  0
  4  5  1  0
  5  6  2  0
  6  7  1  0
  7  8  2  0
  8  9  1  0
  9 10  2  0
  9 11  1  0
  7 12  1  0
  6 13  1  0
  4 14  1  0
  4 15  1  0
  1 16  1  0
 16 17  2  0
 17 18  1  0
 18 19  2  0
 19 20  1  0
 20 21  2  0
 21 22  1  0
 19 23  1  0
 18 24  1  0
 17 25  1  0
  1 26  1  0
 10  5  1  0
 21 16  1  0
M  END
>  <plip>  (1) 
-0.03571428571428571

>  <filename>  (1) 
[H][C](=[N][O][C]([H])([H])[c]1[n][c]([H])[n][c]([H])[c]1[H])[c]1[c]([H])[n][c]([H])[c]([H])[c]1[H]

$$$$
