
     RDKit          3D

 40 42  0  0  0  0  0  0  0  0999 V2000
    5.0525    1.7546   16.9302 H   0  0  0  0  0  0  0  0  0  0  0  0
    5.4838    1.2734   17.8067 C   0  0  0  0  0  0  0  0  0  0  0  0
    6.6466    0.6330   17.6122 N   0  0  0  0  0  0  0  0  0  0  0  0
    7.2108    0.0397   18.6799 C   0  0  0  0  0  0  0  0  0  0  0  0
    8.1475   -0.4868   18.4886 H   0  0  0  0  0  0  0  0  0  0  0  0
    6.6549    0.0403   19.9678 C   0  0  0  0  0  0  0  0  0  0  0  0
    7.3246   -0.6079   21.1750 C   0  0  2  0  0  0  0  0  0  0  0  0
    6.5264   -0.7967   21.9068 H   0  0  0  0  0  0  0  0  0  0  0  0
    8.2702    0.3305   21.8294 N   0  0  0  0  0  0  0  0  0  0  0  0
    8.3946    0.0524   23.2085 N   0  0  0  0  0  0  0  0  0  0  0  0
    9.2890   -0.3504   23.5177 H   0  0  0  0  0  0  0  0  0  0  0  0
    8.0389    1.0397   24.1102 C   0  0  0  0  0  0  0  0  0  0  0  0
    7.1969    2.0923   23.7396 C   0  0  0  0  0  0  0  0  0  0  0  0
    6.9271    2.1414   22.6851 H   0  0  0  0  0  0  0  0  0  0  0  0
    6.7866    3.0289   24.6784 C   0  0  0  0  0  0  0  0  0  0  0  0
    6.1421    3.8540   24.3728 H   0  0  0  0  0  0  0  0  0  0  0  0
    7.2382    2.9201   26.0017 C   0  0  0  0  0  0  0  0  0  0  0  0
    6.9245    3.6463   26.7462 H   0  0  0  0  0  0  0  0  0  0  0  0
    8.1101    1.8916   26.3698 C   0  0  0  0  0  0  0  0  0  0  0  0
    8.4867    1.8527   27.3900 H   0  0  0  0  0  0  0  0  0  0  0  0
    8.5385    0.9342   25.4338 C   0  0  0  0  0  0  0  0  0  0  0  0
    9.5061   -0.1595   25.7536 C   0  0  0  0  0  0  0  0  0  0  0  0
   10.2208   -0.7298   24.9274 O   0  0  0  0  0  0  0  0  0  0  0  0
    9.6094   -0.5786   27.0419 N   0  0  0  0  0  0  0  0  0  0  0  0
   10.1446   -1.4334   27.0388 H   0  0  0  0  0  0  0  0  0  0  0  0
    8.7831   -0.5376   27.6159 H   0  0  0  0  0  0  0  0  0  0  0  0
    9.6000    0.3411   21.2007 C   0  0  0  0  0  0  0  0  0  0  0  0
   10.2538    1.0088   21.7692 H   0  0  0  0  0  0  0  0  0  0  0  0
    9.4903    0.7448   20.1913 H   0  0  0  0  0  0  0  0  0  0  0  0
   10.1867   -1.0707   21.1289 C   0  0  0  0  0  0  0  0  0  0  0  0
   10.3814   -1.4724   22.1451 H   0  0  0  0  0  0  0  0  0  0  0  0
   11.1377   -1.0257   20.6007 H   0  0  0  0  0  0  0  0  0  0  0  0
    9.3153   -1.9167   20.3884 O   0  0  0  0  0  0  0  0  0  0  0  0
    8.0034   -1.9809   20.9425 C   0  0  0  0  0  0  0  0  0  0  0  0
    7.3791   -2.5455   20.2518 H   0  0  0  0  0  0  0  0  0  0  0  0
    8.0215   -2.5170   21.9036 H   0  0  0  0  0  0  0  0  0  0  0  0
    5.4364    0.7201   20.1409 C   0  0  0  0  0  0  0  0  0  0  0  0
    4.9762    0.7712   21.1319 H   0  0  0  0  0  0  0  0  0  0  0  0
    4.8355    1.3425   19.0454 C   0  0  0  0  0  0  0  0  0  0  0  0
    3.9010    1.8890   19.1363 H   0  0  0  0  0  0  0  0  0  0  0  0
  1  2  1  0
  2  3  2  0
  3  4  1  0
  4  5  1  0
  4  6  2  0
  6  7  1  0
  7  8  1  1
  7  9  1  0
  9 10  1  0
 10 11  1  0
 10 12  1  0
 12 13  2  0
 13 14  1  0
 13 15  1  0
 15 16  1  0
 15 17  2  0
 17 18  1  0
 17 19  1  0
 19 20  1  0
 19 21  2  0
 21 22  1  0
 22 23  2  0
 22 24  1  0
 24 25  1  0
 24 26  1  0
  9 27  1  0
 27 28  1  0
 27 29  1  0
 27 30  1  0
 30 31  1  0
 30 32  1  0
 30 33  1  0
 33 34  1  0
 34 35  1  0
 34 36  1  0
  6 37  1  0
 37 38  1  0
 37 39  2  0
 39 40  1  0
 39  2  1  0
 34  7  1  0
 21 12  1  0
M  END
>  <plip>  (1) 
-0.07142857142857142

>  <filename>  (1) 
[H][c]1[n][c]([H])[c]([C@]2([H])[N]([N]([H])[c]3[c]([H])[c]([H])[c]([H])[c]([H])[c]3[C](=[O])[N]([H])[H])[C]([H])([H])[C]([H])([H])[O][C]2([H])[H])[c]([H])[c]1[H]

$$$$
