
     RDKit          3D

 44 46  0  0  0  0  0  0  0  0999 V2000
   10.2483    1.1416   22.6686 C   0  0  0  0  0  0  0  0  0  0  0  0
    9.4166    0.3120   21.8415 O   0  0  0  0  0  0  0  0  0  0  0  0
    8.0797    0.3935   21.9808 C   0  0  0  0  0  0  0  0  0  0  0  0
    7.5173    1.1718   22.7151 O   0  0  0  0  0  0  0  0  0  0  0  0
    7.3731   -0.6670   21.0559 C   0  0  0  0  0  0  0  0  0  0  0  0
    6.4803   -1.5724   21.7915 N   0  0  0  0  0  0  0  0  0  0  0  0
    5.9077   -2.6697   21.2205 C   0  0  0  0  0  0  0  0  0  0  0  0
    5.9682   -2.9157   20.0321 O   0  0  0  0  0  0  0  0  0  0  0  0
    5.2079   -3.6005   22.2041 C   0  0  0  0  0  0  0  0  0  0  0  0
    6.2392   -4.9690   22.8656 S   0  0  0  0  0  0  0  0  0  0  0  0
    7.4707   -3.9821   23.7091 C   0  0  0  0  0  0  0  0  0  0  0  0
    8.6581   -3.6490   23.0019 C   0  0  0  0  0  0  0  0  0  0  0  0
    9.5165   -2.6970   23.5022 C   0  0  0  0  0  0  0  0  0  0  0  0
    9.2606   -2.0734   24.7590 C   0  0  0  0  0  0  0  0  0  0  0  0
   10.0842   -1.0257   25.2649 C   0  0  0  0  0  0  0  0  0  0  0  0
    9.8650   -0.4991   26.5199 C   0  0  0  0  0  0  0  0  0  0  0  0
    8.7894   -0.9708   27.3179 C   0  0  0  0  0  0  0  0  0  0  0  0
    7.9371   -1.9359   26.8301 C   0  0  0  0  0  0  0  0  0  0  0  0
    8.1459   -2.5056   25.5344 C   0  0  0  0  0  0  0  0  0  0  0  0
    7.2390   -3.4583   24.9642 C   0  0  0  0  0  0  0  0  0  0  0  0
    6.3647   -3.7503   25.5369 H   0  0  0  0  0  0  0  0  0  0  0  0
    7.0862   -2.2765   27.4133 H   0  0  0  0  0  0  0  0  0  0  0  0
    8.6370   -0.5389   28.3034 H   0  0  0  0  0  0  0  0  0  0  0  0
   10.5177    0.2772   26.9033 H   0  0  0  0  0  0  0  0  0  0  0  0
   10.8969   -0.6562   24.6463 H   0  0  0  0  0  0  0  0  0  0  0  0
   10.4107   -2.4060   22.9605 H   0  0  0  0  0  0  0  0  0  0  0  0
    8.8323   -4.1177   22.0400 H   0  0  0  0  0  0  0  0  0  0  0  0
    4.3771   -4.0798   21.6902 H   0  0  0  0  0  0  0  0  0  0  0  0
    4.8189   -3.0460   23.0577 H   0  0  0  0  0  0  0  0  0  0  0  0
    6.2632   -1.3906   22.7573 H   0  0  0  0  0  0  0  0  0  0  0  0
    6.6054   -0.0220   19.9107 C   0  0  0  0  0  0  0  0  0  0  0  0
    5.4039    0.6617   20.1251 C   0  0  0  0  0  0  0  0  0  0  0  0
    4.8141    1.3204   19.0456 C   0  0  0  0  0  0  0  0  0  0  0  0
    5.4456    1.2671   17.7969 C   0  0  0  0  0  0  0  0  0  0  0  0
    6.5772    0.5867   17.5635 N   0  0  0  0  0  0  0  0  0  0  0  0
    7.1215   -0.0512   18.6092 C   0  0  0  0  0  0  0  0  0  0  0  0
    8.0422   -0.6034   18.4116 H   0  0  0  0  0  0  0  0  0  0  0  0
    5.0139    1.7821   16.9411 H   0  0  0  0  0  0  0  0  0  0  0  0
    3.8855    1.8667   19.1594 H   0  0  0  0  0  0  0  0  0  0  0  0
    4.9484    0.6835   21.1195 H   0  0  0  0  0  0  0  0  0  0  0  0
    8.1843   -1.2675   20.6286 H   0  0  0  0  0  0  0  0  0  0  0  0
   10.2804    2.1650   22.2822 H   0  0  0  0  0  0  0  0  0  0  0  0
   11.2362    0.6784   22.6148 H   0  0  0  0  0  0  0  0  0  0  0  0
    9.8810    1.1737   23.7003 H   0  0  0  0  0  0  0  0  0  0  0  0
  1  2  1  0
  2  3  1  0
  3  4  2  0
  3  5  1  0
  5  6  1  0
  6  7  1  0
  7  8  2  0
  7  9  1  0
  9 10  1  0
 10 11  1  0
 11 12  2  0
 12 13  1  0
 13 14  2  0
 14 15  1  0
 15 16  2  0
 16 17  1  0
 17 18  2  0
 18 19  1  0
 19 20  2  0
 20 21  1  0
 18 22  1  0
 17 23  1  0
 16 24  1  0
 15 25  1  0
 13 26  1  0
 12 27  1  0
  9 28  1  0
  9 29  1  0
  6 30  1  0
  5 31  1  0
 31 32  2  0
 32 33  1  0
 33 34  2  0
 34 35  1  0
 35 36  2  0
 36 37  1  0
 34 38  1  0
 33 39  1  0
 32 40  1  0
  5 41  1  0
  1 42  1  0
  1 43  1  0
  1 44  1  0
 20 11  1  0
 36 31  1  0
 19 14  1  0
M  END
>  <plip>  (1) 
-0.20689655172413793

>  <filename>  (1) 
[H][c]1[n][c]([H])[c]([C]([H])([C](=[O])[O][C]([H])([H])[H])[N]([H])[C](=[O])[C]([H])([H])[S][c]2[c]([H])[c]([H])[c]3[c]([H])[c]([H])[c]([H])[c]([H])[c]3[c]2[H])[c]([H])[c]1[H]

$$$$
