
     RDKit          3D

 41 43  0  0  0  0  0  0  0  0999 V2000
    9.3416   -1.4914   23.2073 C   0  0  0  0  0  0  0  0  0  0  0  0
    8.2424   -0.4330   23.2007 C   0  0  0  0  0  0  0  0  0  0  0  0
    7.9008    0.0999   21.8271 N   0  0  0  0  0  4  0  0  0  0  0  0
    7.2429   -0.9004   20.8912 C   0  0  0  0  0  0  0  0  0  0  0  0
    6.5271   -0.1142   19.8311 C   0  0  0  0  0  0  0  0  0  0  0  0
    5.3592    0.6135   20.0906 C   0  0  0  0  0  0  0  0  0  0  0  0
    4.7791    1.3409   19.0485 C   0  0  0  0  0  0  0  0  0  0  0  0
    5.4083    1.3471   17.8002 C   0  0  0  0  0  0  0  0  0  0  0  0
    6.5488    0.6884   17.5475 N   0  0  0  0  0  0  0  0  0  0  0  0
    7.0864   -0.0118   18.5503 C   0  0  0  0  0  0  0  0  0  0  0  0
    8.0415   -0.4991   18.3407 H   0  0  0  0  0  0  0  0  0  0  0  0
    4.9811    1.9046   16.9687 H   0  0  0  0  0  0  0  0  0  0  0  0
    3.8747    1.9226   19.1968 H   0  0  0  0  0  0  0  0  0  0  0  0
    4.9203    0.6202   21.0913 H   0  0  0  0  0  0  0  0  0  0  0  0
    6.5588   -1.5501   21.4510 H   0  0  0  0  0  0  0  0  0  0  0  0
    7.9982   -1.5452   20.4285 H   0  0  0  0  0  0  0  0  0  0  0  0
    9.1424    0.7817   21.1792 C   0  0  0  0  0  0  0  0  0  0  0  0
    9.7556    1.9344   21.9313 C   0  0  0  0  0  0  0  0  0  0  0  0
   10.9625    1.8684   22.4198 N   0  0  0  0  0  0  0  0  0  0  0  0
   11.1543    3.0642   23.0800 C   0  0  0  0  0  0  0  0  0  0  0  0
   12.2853    3.5064   23.7777 C   0  0  0  0  0  0  0  0  0  0  0  0
   12.2155    4.7209   24.4454 C   0  0  0  0  0  0  0  0  0  0  0  0
   11.0296    5.5065   24.3894 C   0  0  0  0  0  0  0  0  0  0  0  0
   10.9798    6.7696   25.1920 N   0  0  0  0  0  4  0  0  0  0  0  0
    9.9716    7.4517   25.1426 O   0  0  0  0  0  0  0  0  0  0  0  0
   11.9547    7.0511   25.8700 O   0  0  0  0  0  1  0  0  0  0  0  0
    9.9125    5.1108   23.6399 C   0  0  0  0  0  0  0  0  0  0  0  0
   10.0031    3.8700   22.9912 C   0  0  0  0  0  0  0  0  0  0  0  0
    9.1191    3.1197   22.2239 N   0  0  0  0  0  0  0  0  0  0  0  0
    8.3113    3.4920   21.7551 H   0  0  0  0  0  0  0  0  0  0  0  0
    9.0316    5.7419   23.5546 H   0  0  0  0  0  0  0  0  0  0  0  0
   13.0548    5.0865   25.0284 H   0  0  0  0  0  0  0  0  0  0  0  0
   13.1655    2.8679   23.7862 H   0  0  0  0  0  0  0  0  0  0  0  0
    9.9409    0.0405   21.0866 H   0  0  0  0  0  0  0  0  0  0  0  0
    8.8655    1.0993   20.1765 H   0  0  0  0  0  0  0  0  0  0  0  0
    7.1596    0.8375   21.9208 H   0  0  0  0  0  0  0  0  0  0  0  0
    7.3331   -0.8385   23.6598 H   0  0  0  0  0  0  0  0  0  0  0  0
    8.5503    0.4269   23.8006 H   0  0  0  0  0  0  0  0  0  0  0  0
    9.1118   -2.3180   22.5252 H   0  0  0  0  0  0  0  0  0  0  0  0
    9.4444   -1.8971   24.2172 H   0  0  0  0  0  0  0  0  0  0  0  0
   10.3102   -1.0634   22.9284 H   0  0  0  0  0  0  0  0  0  0  0  0
  1  2  1  0
  2  3  1  0
  3  4  1  0
  4  5  1  0
  5  6  2  0
  6  7  1  0
  7  8  2  0
  8  9  1  0
  9 10  2  0
 10 11  1  0
  8 12  1  0
  7 13  1  0
  6 14  1  0
  4 15  1  0
  4 16  1  0
  3 17  1  0
 17 18  1  0
 18 19  2  0
 19 20  1  0
 20 21  2  0
 21 22  1  0
 22 23  2  0
 23 24  1  0
 24 25  2  0
 24 26  1  0
 23 27  1  0
 27 28  2  0
 28 29  1  0
 29 30  1  0
 27 31  1  0
 22 32  1  0
 21 33  1  0
 17 34  1  0
 17 35  1  0
  3 36  1  0
  2 37  1  0
  2 38  1  0
  1 39  1  0
  1 40  1  0
  1 41  1  0
 10  5  1  0
 29 18  1  0
 28 20  1  0
M  CHG  3   3   1  24   1  26  -1
M  END
>  <plip>  (1) 
-0.14285714285714285

>  <filename>  (1) 
[H][c]1[n][c]([H])[c]([C]([H])([H])[N+]([H])([C]([H])([H])[c]2[n][c]3[c]([H])[c]([H])[c]([N+](=[O])[O-])[c]([H])[c]3[n]2[H])[C]([H])([H])[C]([H])([H])[H])[c]([H])[c]1[H]

$$$$
