
     RDKit          3D

 45 47  0  0  0  0  0  0  0  0999 V2000
    9.8317    5.2934   24.6664 C   0  0  0  0  0  0  0  0  0  0  0  0
   11.1901    5.1159   24.0171 C   0  0  0  0  0  0  0  0  0  0  0  0
   11.9614    6.2169   23.9722 N   0  0  0  0  0  0  0  0  0  0  0  0
   13.1993    6.0843   23.4462 C   0  0  0  0  0  0  0  0  0  0  0  0
   13.6817    4.8492   23.0012 C   0  0  0  0  0  0  0  0  0  0  0  0
   12.9207    3.7416   22.9853 N   0  0  0  0  0  0  0  0  0  0  0  0
   11.6794    3.8531   23.4885 C   0  0  0  0  0  0  0  0  0  0  0  0
   10.9103    2.6932   23.3643 N   0  0  0  0  0  0  0  0  0  0  0  0
   10.3915    1.9101   24.4793 C   0  0  0  0  0  0  0  0  0  0  0  0
    8.8727    1.7320   24.3731 C   0  0  0  0  0  0  0  0  0  0  0  0
    8.5110    1.1330   23.0655 N   0  0  0  0  0  0  0  0  0  0  0  0
    7.2459    0.6023   22.9463 C   0  0  0  0  0  0  0  0  0  0  0  0
    6.2838    1.1162   23.4978 O   0  0  0  0  0  0  0  0  0  0  0  0
    7.0944   -0.7510   22.1888 C   0  0  0  0  0  0  0  0  0  0  0  0
    7.9269   -1.8731   22.8000 C   0  0  0  0  0  0  0  0  0  0  0  0
    7.6838   -2.0018   23.8607 H   0  0  0  0  0  0  0  0  0  0  0  0
    7.7131   -2.8088   22.2778 H   0  0  0  0  0  0  0  0  0  0  0  0
    8.9980   -1.6655   22.7066 H   0  0  0  0  0  0  0  0  0  0  0  0
    7.4616   -0.7013   20.8044 O   0  0  0  0  0  0  0  0  0  0  0  0
    6.7072    0.0017   19.9133 C   0  0  0  0  0  0  0  0  0  0  0  0
    5.5045    0.6635   20.1877 C   0  0  0  0  0  0  0  0  0  0  0  0
    4.8561    1.3001   19.1186 C   0  0  0  0  0  0  0  0  0  0  0  0
    5.4350    1.2865   17.8478 C   0  0  0  0  0  0  0  0  0  0  0  0
    6.5928    0.6586   17.5786 N   0  0  0  0  0  0  0  0  0  0  0  0
    7.2046    0.0349   18.5894 C   0  0  0  0  0  0  0  0  0  0  0  0
    8.1374   -0.4822   18.3688 H   0  0  0  0  0  0  0  0  0  0  0  0
    4.9582    1.7977   17.0145 H   0  0  0  0  0  0  0  0  0  0  0  0
    3.9130    1.8136   19.2692 H   0  0  0  0  0  0  0  0  0  0  0  0
    5.1060    0.7001   21.2036 H   0  0  0  0  0  0  0  0  0  0  0  0
    6.0319   -0.9938   22.2735 H   0  0  0  0  0  0  0  0  0  0  0  0
    9.5365    1.1333   21.9970 C   0  0  0  0  0  0  0  0  0  0  0  0
   10.3198    2.4563   22.0392 C   0  0  0  0  0  0  0  0  0  0  0  0
   11.1050    2.4498   21.2708 H   0  0  0  0  0  0  0  0  0  0  0  0
    9.6093    3.2611   21.7763 H   0  0  0  0  0  0  0  0  0  0  0  0
    9.0627    1.0239   21.0188 H   0  0  0  0  0  0  0  0  0  0  0  0
   10.2399    0.2966   22.1268 H   0  0  0  0  0  0  0  0  0  0  0  0
    8.5361    1.0670   25.1783 H   0  0  0  0  0  0  0  0  0  0  0  0
    8.3516    2.6908   24.5080 H   0  0  0  0  0  0  0  0  0  0  0  0
   10.8538    0.9086   24.4723 H   0  0  0  0  0  0  0  0  0  0  0  0
   10.6417    2.3548   25.4413 H   0  0  0  0  0  0  0  0  0  0  0  0
   14.6977    4.7228   22.6370 H   0  0  0  0  0  0  0  0  0  0  0  0
   13.7987    6.9890   23.4027 H   0  0  0  0  0  0  0  0  0  0  0  0
    9.7970    4.7449   25.6129 H   0  0  0  0  0  0  0  0  0  0  0  0
    9.6726    6.3491   24.8923 H   0  0  0  0  0  0  0  0  0  0  0  0
    9.0064    4.9498   24.0318 H   0  0  0  0  0  0  0  0  0  0  0  0
  1  2  1  0
  2  3  2  0
  3  4  1  0
  4  5  2  0
  5  6  1  0
  6  7  2  0
  7  8  1  0
  8  9  1  0
  9 10  1  0
 10 11  1  0
 11 12  1  0
 12 13  2  0
 12 14  1  0
 14 15  1  0
 15 16  1  0
 15 17  1  0
 15 18  1  0
 14 19  1  0
 19 20  1  0
 20 21  2  0
 21 22  1  0
 22 23  2  0
 23 24  1  0
 24 25  2  0
 25 26  1  0
 23 27  1  0
 22 28  1  0
 21 29  1  0
 14 30  1  0
 11 31  1  0
 31 32  1  0
 32 33  1  0
 32 34  1  0
 31 35  1  0
 31 36  1  0
 10 37  1  0
 10 38  1  0
  9 39  1  0
  9 40  1  0
  5 41  1  0
  4 42  1  0
  1 43  1  0
  1 44  1  0
  1 45  1  0
  7  2  1  0
 32  8  1  0
 25 20  1  0
M  END
>  <plip>  (1) 
-0.10714285714285714

>  <filename>  (1) 
[H][c]1[n][c]([N]2[C]([H])([H])[C]([H])([H])[N]([C](=[O])[C]([H])([O][c]3[c]([H])[n][c]([H])[c]([H])[c]3[H])[C]([H])([H])[H])[C]([H])([H])[C]2([H])[H])[c]([C]([H])([H])[H])[n][c]1[H]

$$$$
