
     RDKit          3D

 26 27  0  0  0  0  0  0  0  0999 V2000
    6.5671   -4.0233   19.7410 H   0  0  0  0  0  0  0  0  0  0  0  0
    5.7218   -3.9399   20.3221 N   0  0  0  0  0  0  0  0  0  0  0  0
    5.7488   -2.9757   21.0505 N   0  0  0  0  0  4  0  0  0  0  0  0
    5.6007   -2.0993   21.8567 N   0  0  0  0  0  0  0  0  0  0  0  0
    6.7547   -1.1617   22.1514 C   0  0  2  0  0  0  0  0  0  0  0  0
    6.2771   -0.3492   22.7081 H   0  0  0  0  0  0  0  0  0  0  0  0
    7.4140   -0.6364   20.9575 N   0  0  0  0  0  0  0  0  0  0  0  0
    6.7082   -0.0007   19.9355 C   0  0  0  0  0  0  0  0  0  0  0  0
    7.1959    0.0636   18.5992 C   0  0  0  0  0  0  0  0  0  0  0  0
    8.1392   -0.4116   18.3399 H   0  0  0  0  0  0  0  0  0  0  0  0
    6.5680    0.6678   17.5890 N   0  0  0  0  0  0  0  0  0  0  0  0
    5.4057    1.2835   17.8499 C   0  0  0  0  0  0  0  0  0  0  0  0
    4.9329    1.7911   17.0116 H   0  0  0  0  0  0  0  0  0  0  0  0
    4.8261    1.2817   19.1207 C   0  0  0  0  0  0  0  0  0  0  0  0
    3.8989    1.8185   19.2736 H   0  0  0  0  0  0  0  0  0  0  0  0
    5.4584    0.6149   20.1739 C   0  0  0  0  0  0  0  0  0  0  0  0
    4.9997    0.5868   21.1648 H   0  0  0  0  0  0  0  0  0  0  0  0
    8.8329   -0.9641   20.8706 C   0  0  0  0  0  0  0  0  0  0  0  0
    9.0237   -1.7447   20.1170 H   0  0  0  0  0  0  0  0  0  0  0  0
    9.4016   -0.0812   20.5480 H   0  0  0  0  0  0  0  0  0  0  0  0
    9.2014   -1.4193   22.2992 C   0  0  0  0  0  0  0  0  0  0  0  0
    9.6402   -0.5839   22.8563 H   0  0  0  0  0  0  0  0  0  0  0  0
    9.9478   -2.2216   22.2818 H   0  0  0  0  0  0  0  0  0  0  0  0
    7.8714   -1.8744   22.9417 C   0  0  0  0  0  0  0  0  0  0  0  0
    7.7334   -2.9593   22.8507 H   0  0  0  0  0  0  0  0  0  0  0  0
    7.7970   -1.6556   24.0136 H   0  0  0  0  0  0  0  0  0  0  0  0
  1  2  1  0
  2  3  2  0
  3  4  2  0
  4  5  1  0
  5  6  1  1
  5  7  1  0
  7  8  1  0
  8  9  2  0
  9 10  1  0
  9 11  1  0
 11 12  2  0
 12 13  1  0
 12 14  1  0
 14 15  1  0
 14 16  2  0
 16 17  1  0
  7 18  1  0
 18 19  1  0
 18 20  1  0
 18 21  1  0
 21 22  1  0
 21 23  1  0
 21 24  1  0
 24 25  1  0
 24 26  1  0
 24  5  1  0
 16  8  1  0
M  CHG  1   3   1
M  END
>  <plip>  (1) 
-0.10714285714285714

>  <filename>  (1) 
[H][N]=[N+]=[N][C@]1([H])[N]([c]2[c]([H])[n][c]([H])[c]([H])[c]2[H])[C]([H])([H])[C]([H])([H])[C]1([H])[H]

$$$$
