
     RDKit          3D

 42 44  0  0  0  0  0  0  0  0999 V2000
    4.6263   -3.0986   21.9714 O   0  0  0  0  0  0  0  0  0  0  0  0
    6.0375   -3.1247   21.6365 S   0  0  0  0  0  0  0  0  0  0  0  0
    6.4748   -3.4161   20.2899 O   0  0  0  0  0  0  0  0  0  0  0  0
    6.8929   -4.2261   22.7351 C   0  0  0  0  0  0  0  0  0  0  0  0
    6.7848   -4.0601   24.2491 C   0  0  0  0  0  0  0  0  0  0  0  0
    5.4322   -3.6373   24.8089 C   0  0  0  0  0  0  0  0  0  0  0  0
    5.4046   -3.7265   26.1947 F   0  0  0  0  0  0  0  0  0  0  0  0
    4.6189   -4.2532   24.4118 H   0  0  0  0  0  0  0  0  0  0  0  0
    5.2410   -2.5914   24.5459 H   0  0  0  0  0  0  0  0  0  0  0  0
    7.6459   -5.0226   25.0209 C   0  0  0  0  0  0  0  0  0  0  0  0
    8.0184   -3.5705   24.9636 C   0  0  0  0  0  0  0  0  0  0  0  0
    7.8592   -2.9856   25.8646 H   0  0  0  0  0  0  0  0  0  0  0  0
    8.8635   -3.2481   24.3562 H   0  0  0  0  0  0  0  0  0  0  0  0
    8.2361   -5.7468   24.4673 H   0  0  0  0  0  0  0  0  0  0  0  0
    7.2568   -5.4045   25.9594 H   0  0  0  0  0  0  0  0  0  0  0  0
    7.9310   -4.1353   22.4073 H   0  0  0  0  0  0  0  0  0  0  0  0
    6.5175   -5.1916   22.3851 H   0  0  0  0  0  0  0  0  0  0  0  0
    6.4948   -1.6229   22.1138 N   0  0  0  0  0  0  0  0  0  0  0  0
    7.3392   -0.7381   21.2903 C   0  0  0  0  0  0  0  0  0  0  0  0
    6.5398   -0.1544   20.1275 C   0  0  0  0  0  0  0  0  0  0  0  0
    5.2558    0.4105   20.2801 C   0  0  0  0  0  0  0  0  0  0  0  0
    4.7057    1.1407   19.2269 C   0  0  0  0  0  0  0  0  0  0  0  0
    5.4366    1.2810   18.0411 C   0  0  0  0  0  0  0  0  0  0  0  0
    6.6470    0.7416   17.8654 N   0  0  0  0  0  0  0  0  0  0  0  0
    7.1720    0.0615   18.8929 C   0  0  0  0  0  0  0  0  0  0  0  0
    8.1804   -0.3067   18.7099 H   0  0  0  0  0  0  0  0  0  0  0  0
    5.0440    1.8686   17.2129 H   0  0  0  0  0  0  0  0  0  0  0  0
    3.7388    1.6202   19.3251 H   0  0  0  0  0  0  0  0  0  0  0  0
    4.7008    0.3278   21.2199 H   0  0  0  0  0  0  0  0  0  0  0  0
    7.7879    0.4009   22.2633 C   0  0  0  0  0  0  0  0  0  0  0  0
    9.2813    0.1730   22.5532 C   0  0  0  0  0  0  0  0  0  0  0  0
    9.7866   -0.4165   21.2315 C   0  0  0  0  0  0  0  0  0  0  0  0
    8.6775   -1.4219   20.8942 C   0  0  0  0  0  0  0  0  0  0  0  0
    8.8195   -2.3254   21.4908 H   0  0  0  0  0  0  0  0  0  0  0  0
    8.6780   -1.7406   19.8553 H   0  0  0  0  0  0  0  0  0  0  0  0
   10.7846   -0.8708   21.2661 H   0  0  0  0  0  0  0  0  0  0  0  0
    9.8155    0.3697   20.4664 H   0  0  0  0  0  0  0  0  0  0  0  0
    9.7941    1.0841   22.8817 H   0  0  0  0  0  0  0  0  0  0  0  0
    9.3855   -0.5694   23.3569 H   0  0  0  0  0  0  0  0  0  0  0  0
    7.6392    1.3816   21.7989 H   0  0  0  0  0  0  0  0  0  0  0  0
    7.1696    0.3821   23.1663 H   0  0  0  0  0  0  0  0  0  0  0  0
    5.5449   -1.2641   22.1827 H   0  0  0  0  0  0  0  0  0  0  0  0
  1  2  2  0
  2  3  2  0
  2  4  1  0
  4  5  1  0
  5  6  1  0
  6  7  1  0
  6  8  1  0
  6  9  1  0
  5 10  1  0
 10 11  1  0
 11 12  1  0
 11 13  1  0
 10 14  1  0
 10 15  1  0
  4 16  1  0
  4 17  1  0
  2 18  1  0
 18 19  1  0
 19 20  1  0
 20 21  2  0
 21 22  1  0
 22 23  2  0
 23 24  1  0
 24 25  2  0
 25 26  1  0
 23 27  1  0
 22 28  1  0
 21 29  1  0
 19 30  1  0
 30 31  1  0
 31 32  1  0
 32 33  1  0
 33 34  1  0
 33 35  1  0
 32 36  1  0
 32 37  1  0
 31 38  1  0
 31 39  1  0
 30 40  1  0
 30 41  1  0
 18 42  1  0
 11  5  1  0
 33 19  1  0
 25 20  1  0
M  END
>  <plip>  (1) 
-0.14285714285714285

>  <filename>  (1) 
[H][c]1[n][c]([H])[c]([C]2([N]([H])[S](=[O])(=[O])[C]([H])([H])[C]3([C]([H])([H])[F])[C]([H])([H])[C]3([H])[H])[C]([H])([H])[C]([H])([H])[C]([H])([H])[C]2([H])[H])[c]([H])[c]1[H]

$$$$
