
     RDKit          3D

 27 28  0  0  0  0  0  0  0  0999 V2000
    5.5412    3.1271   24.6231 H   0  0  0  0  0  0  0  0  0  0  0  0
    6.2030    3.1091   23.7592 C   0  0  0  0  0  0  0  0  0  0  0  0
    6.2923    4.2404   23.0717 N   0  0  0  0  0  0  0  0  0  0  0  0
    7.1702    4.1942   22.0770 C   0  0  0  0  0  0  0  0  0  0  0  0
    7.3886    5.3550   21.4391 N   0  0  0  0  0  0  0  0  0  0  0  0
    7.7048    5.1386   20.5112 H   0  0  0  0  0  0  0  0  0  0  0  0
    6.5588    5.9121   21.5134 H   0  0  0  0  0  0  0  0  0  0  0  0
    7.8689    3.1461   21.6367 N   0  0  0  0  0  0  0  0  0  0  0  0
    7.7509    2.0086   22.3236 C   0  0  0  0  0  0  0  0  0  0  0  0
    8.6955    0.4455   21.7623 S   0  0  0  0  0  0  0  0  0  0  0  0
    9.6653    0.7640   20.7178 O   0  0  0  0  0  0  0  0  0  0  0  0
    9.1005   -0.3314   22.9371 O   0  0  0  0  0  0  0  0  0  0  0  0
    7.4471   -0.6241   20.9688 C   0  0  0  0  0  0  0  0  0  0  0  0
    6.8448   -0.9575   21.8156 H   0  0  0  0  0  0  0  0  0  0  0  0
    8.0897   -1.4533   20.6611 H   0  0  0  0  0  0  0  0  0  0  0  0
    6.6498   -0.0036   19.8447 C   0  0  0  0  0  0  0  0  0  0  0  0
    7.1240    0.0293   18.5149 C   0  0  0  0  0  0  0  0  0  0  0  0
    8.0759   -0.4443   18.2740 H   0  0  0  0  0  0  0  0  0  0  0  0
    6.5074    0.6552   17.5043 N   0  0  0  0  0  0  0  0  0  0  0  0
    5.3654    1.2965   17.7910 C   0  0  0  0  0  0  0  0  0  0  0  0
    4.8990    1.8324   16.9635 H   0  0  0  0  0  0  0  0  0  0  0  0
    4.7830    1.3030   19.0602 C   0  0  0  0  0  0  0  0  0  0  0  0
    3.8572    1.8428   19.2182 H   0  0  0  0  0  0  0  0  0  0  0  0
    5.4334    0.6359   20.1065 C   0  0  0  0  0  0  0  0  0  0  0  0
    5.0071    0.6205   21.1105 H   0  0  0  0  0  0  0  0  0  0  0  0
    6.9120    1.9414   23.4518 C   0  0  0  0  0  0  0  0  0  0  0  0
    6.8102    1.0645   24.0769 H   0  0  0  0  0  0  0  0  0  0  0  0
  1  2  1  0
  2  3  2  0
  3  4  1  0
  4  5  1  0
  5  6  1  0
  5  7  1  0
  4  8  2  0
  8  9  1  0
  9 10  1  0
 10 11  2  0
 10 12  2  0
 10 13  1  0
 13 14  1  0
 13 15  1  0
 13 16  1  0
 16 17  2  0
 17 18  1  0
 17 19  1  0
 19 20  2  0
 20 21  1  0
 20 22  1  0
 22 23  1  0
 22 24  2  0
 24 25  1  0
  9 26  2  0
 26 27  1  0
 26  2  1  0
 24 16  1  0
M  END
>  <plip>  (1) 
-0.14285714285714285

>  <filename>  (1) 
[H][c]1[n][c]([N]([H])[H])[n][c]([S](=[O])(=[O])[C]([H])([H])[c]2[c]([H])[n][c]([H])[c]([H])[c]2[H])[c]1[H]

$$$$
