
     RDKit          3D

 40 42  0  0  0  0  0  0  0  0999 V2000
    9.3808   -3.7458   24.4586 O   0  0  0  0  0  0  0  0  0  0  0  0
    8.2372   -3.6787   24.0435 C   0  0  0  0  0  0  0  0  0  0  0  0
    7.0175   -4.2225   24.8173 C   0  0  0  0  0  0  0  0  0  0  0  0
    5.9852   -3.1853   25.2528 C   0  0  0  0  0  0  0  0  0  0  0  0
    4.6815   -3.2237   24.8072 C   0  0  0  0  0  0  0  0  0  0  0  0
    3.7016   -2.3465   25.1661 N   0  0  0  0  0  0  0  0  0  0  0  0
    4.0174   -1.3939   26.0154 C   0  0  0  0  0  0  0  0  0  0  0  0
    5.3173   -1.2222   26.5791 C   0  0  0  0  0  0  0  0  0  0  0  0
    5.6311   -0.1832   27.5090 C   0  0  0  0  0  0  0  0  0  0  0  0
    6.9229   -0.0084   27.9444 C   0  0  0  0  0  0  0  0  0  0  0  0
    7.9469   -0.8955   27.5207 C   0  0  0  0  0  0  0  0  0  0  0  0
    7.6612   -1.9378   26.6689 C   0  0  0  0  0  0  0  0  0  0  0  0
    6.3380   -2.1333   26.1674 C   0  0  0  0  0  0  0  0  0  0  0  0
    8.4574   -2.6048   26.3540 H   0  0  0  0  0  0  0  0  0  0  0  0
    8.9587   -0.7883   27.9037 H   0  0  0  0  0  0  0  0  0  0  0  0
    7.1705    0.8143   28.6094 H   0  0  0  0  0  0  0  0  0  0  0  0
    4.8366    0.4698   27.8643 H   0  0  0  0  0  0  0  0  0  0  0  0
    3.2280   -0.6902   26.2930 H   0  0  0  0  0  0  0  0  0  0  0  0
    4.3606   -4.0171   24.1316 H   0  0  0  0  0  0  0  0  0  0  0  0
    6.5439   -5.0008   24.2039 H   0  0  0  0  0  0  0  0  0  0  0  0
    7.4172   -4.7382   25.6969 H   0  0  0  0  0  0  0  0  0  0  0  0
    7.9348   -3.1091   22.8435 N   0  0  0  0  0  0  0  0  0  0  0  0
    8.9184   -2.3109   22.1164 C   0  0  0  0  0  0  0  0  0  0  0  0
    8.2718   -1.5117   21.0092 C   0  0  0  0  0  0  0  0  0  0  0  0
    7.2383   -0.6639   21.1151 C   0  0  0  0  0  0  0  0  0  0  0  0
    6.6034    0.0464   19.9731 C   0  0  0  0  0  0  0  0  0  0  0  0
    5.3921    0.7418   20.1504 C   0  0  0  0  0  0  0  0  0  0  0  0
    4.7881    1.3637   19.0542 C   0  0  0  0  0  0  0  0  0  0  0  0
    5.4249    1.2965   17.8109 C   0  0  0  0  0  0  0  0  0  0  0  0
    6.5812    0.6447   17.6094 N   0  0  0  0  0  0  0  0  0  0  0  0
    7.1405    0.0452   18.6679 C   0  0  0  0  0  0  0  0  0  0  0  0
    8.0762   -0.4714   18.4608 H   0  0  0  0  0  0  0  0  0  0  0  0
    4.9854    1.7828   16.9411 H   0  0  0  0  0  0  0  0  0  0  0  0
    3.8504    1.9032   19.1514 H   0  0  0  0  0  0  0  0  0  0  0  0
    4.9301    0.7830   21.1368 H   0  0  0  0  0  0  0  0  0  0  0  0
    6.7995   -0.4261   22.0924 H   0  0  0  0  0  0  0  0  0  0  0  0
    8.7236   -1.6529   20.0292 H   0  0  0  0  0  0  0  0  0  0  0  0
    9.6708   -2.9781   21.6843 H   0  0  0  0  0  0  0  0  0  0  0  0
    9.4731   -1.6716   22.8216 H   0  0  0  0  0  0  0  0  0  0  0  0
    6.9696   -2.8574   22.7176 H   0  0  0  0  0  0  0  0  0  0  0  0
  1  2  2  0
  2  3  1  0
  3  4  1  0
  4  5  2  0
  5  6  1  0
  6  7  2  0
  7  8  1  0
  8  9  2  0
  9 10  1  0
 10 11  2  0
 11 12  1  0
 12 13  2  0
 12 14  1  0
 11 15  1  0
 10 16  1  0
  9 17  1  0
  7 18  1  0
  5 19  1  0
  3 20  1  0
  3 21  1  0
  2 22  1  0
 22 23  1  0
 23 24  1  0
 24 25  2  3
 25 26  1  0
 26 27  2  0
 27 28  1  0
 28 29  2  0
 29 30  1  0
 30 31  2  0
 31 32  1  0
 29 33  1  0
 28 34  1  0
 27 35  1  0
 25 36  1  0
 24 37  1  0
 23 38  1  0
 23 39  1  0
 22 40  1  0
 13  4  1  0
 31 26  1  0
 13  8  1  0
M  END
>  <plip>  (1) 
-0.034482758620689655

>  <filename>  (1) 
[H][C](=[C]([H])[C]([H])([H])[N]([H])[C](=[O])[C]([H])([H])[c]1[c]([H])[n][c]([H])[c]2[c]([H])[c]([H])[c]([H])[c]([H])[c]12)[c]1[c]([H])[n][c]([H])[c]([H])[c]1[H]

$$$$
