
     RDKit          3D

 42 44  0  0  0  0  0  0  0  0999 V2000
    8.7020   -1.1680   21.0370 C   0  0  0  0  0  0  0  0  0  0  0  0
    7.2970   -0.5716   21.2193 C   0  0  0  0  0  0  0  0  0  0  0  0
    6.4007   -1.5487   21.8288 N   0  0  0  0  0  0  0  0  0  0  0  0
    5.9522   -2.6995   21.2458 C   0  0  0  0  0  0  0  0  0  0  0  0
    6.1892   -3.0324   20.0967 O   0  0  0  0  0  0  0  0  0  0  0  0
    5.0784   -3.5493   22.1441 C   0  0  0  0  0  0  0  0  0  0  0  0
    5.8384   -4.4838   23.0694 C   0  0  0  0  0  0  0  0  0  0  0  0
    4.8334   -5.2540   23.9354 C   0  0  0  0  0  0  0  0  0  0  0  0
    5.5591   -6.1964   25.3122 S   0  0  0  0  0  0  0  0  0  0  0  0
    7.1024   -5.3501   25.5593 C   0  0  0  0  0  0  0  0  0  0  0  0
    7.9418   -5.7689   26.6039 C   0  0  0  0  0  0  0  0  0  0  0  0
    9.2251   -5.2317   26.7425 C   0  0  0  0  0  0  0  0  0  0  0  0
    9.6892   -4.2839   25.8259 C   0  0  0  0  0  0  0  0  0  0  0  0
    8.8392   -3.8083   24.8251 C   0  0  0  0  0  0  0  0  0  0  0  0
    7.5291   -4.2924   24.7290 C   0  0  0  0  0  0  0  0  0  0  0  0
    6.6961   -3.6573   23.8492 O   0  0  0  0  0  0  0  0  0  0  0  0
    9.1615   -3.0591   24.1088 H   0  0  0  0  0  0  0  0  0  0  0  0
   10.7079   -3.9137   25.8900 H   0  0  0  0  0  0  0  0  0  0  0  0
    9.8681   -5.5652   27.5530 H   0  0  0  0  0  0  0  0  0  0  0  0
    7.5774   -6.5197   27.3016 H   0  0  0  0  0  0  0  0  0  0  0  0
    4.0986   -4.5573   24.3493 H   0  0  0  0  0  0  0  0  0  0  0  0
    4.2983   -5.9677   23.2985 H   0  0  0  0  0  0  0  0  0  0  0  0
    6.4602   -5.1938   22.5100 H   0  0  0  0  0  0  0  0  0  0  0  0
    4.4293   -4.1424   21.5145 H   0  0  0  0  0  0  0  0  0  0  0  0
    4.4438   -2.9303   22.7747 H   0  0  0  0  0  0  0  0  0  0  0  0
    6.2878   -1.5077   22.8338 H   0  0  0  0  0  0  0  0  0  0  0  0
    7.6121    0.9037   22.3776 C   0  0  0  0  0  0  0  0  0  0  0  0
    6.8839    0.9115   23.3670 O   0  0  0  0  0  0  0  0  0  0  0  0
    8.5057    1.6313   21.9524 O   0  0  0  0  0  1  0  0  0  0  0  0
    6.6808   -0.0170   19.9379 C   0  0  0  0  0  0  0  0  0  0  0  0
    5.6507    0.9344   20.0210 C   0  0  0  0  0  0  0  0  0  0  0  0
    5.2050    1.5509   18.8477 C   0  0  0  0  0  0  0  0  0  0  0  0
    5.7778    1.1749   17.6275 C   0  0  0  0  0  0  0  0  0  0  0  0
    6.7056    0.2158   17.5086 N   0  0  0  0  0  0  0  0  0  0  0  0
    7.1152   -0.3744   18.6432 C   0  0  0  0  0  0  0  0  0  0  0  0
    7.8421   -1.1736   18.5011 H   0  0  0  0  0  0  0  0  0  0  0  0
    5.4662    1.6519   16.7017 H   0  0  0  0  0  0  0  0  0  0  0  0
    4.4393    2.3187   18.8707 H   0  0  0  0  0  0  0  0  0  0  0  0
    5.2178    1.1982   20.9905 H   0  0  0  0  0  0  0  0  0  0  0  0
    8.6839   -2.0227   20.3590 H   0  0  0  0  0  0  0  0  0  0  0  0
    9.0873   -1.5139   22.0027 H   0  0  0  0  0  0  0  0  0  0  0  0
    9.3866   -0.4068   20.6537 H   0  0  0  0  0  0  0  0  0  0  0  0
  1  2  1  0
  2  3  1  0
  3  4  1  0
  4  5  2  0
  4  6  1  0
  6  7  1  0
  7  8  1  0
  8  9  1  0
  9 10  1  0
 10 11  2  0
 11 12  1  0
 12 13  2  0
 13 14  1  0
 14 15  2  0
 15 16  1  0
 14 17  1  0
 13 18  1  0
 12 19  1  0
 11 20  1  0
  8 21  1  0
  8 22  1  0
  7 23  1  0
  6 24  1  0
  6 25  1  0
  3 26  1  0
  2 27  1  0
 27 28  2  0
 27 29  1  0
  2 30  1  0
 30 31  2  0
 31 32  1  0
 32 33  2  0
 33 34  1  0
 34 35  2  0
 35 36  1  0
 33 37  1  0
 32 38  1  0
 31 39  1  0
  1 40  1  0
  1 41  1  0
  1 42  1  0
 16  7  1  0
 35 30  1  0
 15 10  1  0
M  CHG  1  29  -1
M  END
>  <plip>  (1) 
-0.2

>  <filename>  (1) 
[H][c]1[n][c]([H])[c]([C]([C](=[O])[O-])([N]([H])[C](=[O])[C]([H])([H])[C]2([H])[O][c]3[c]([H])[c]([H])[c]([H])[c]([H])[c]3[S][C]2([H])[H])[C]([H])([H])[H])[c]([H])[c]1[H]

$$$$
