
     RDKit          3D

 30 32  0  0  0  0  0  0  0  0999 V2000
    9.2761   -3.3413   21.3083 H   0  0  0  0  0  0  0  0  0  0  0  0
    8.7312   -2.4513   21.5856 C   0  0  0  0  0  0  0  0  0  0  0  0
    8.0947   -1.8126   20.6052 N   0  0  0  0  0  0  0  0  0  0  0  0
    7.4022   -0.7310   20.9607 C   0  0  0  0  0  0  0  0  0  0  0  0
    6.6625   -0.0066   19.9084 C   0  0  0  0  0  0  0  0  0  0  0  0
    7.1796    0.0515   18.6061 C   0  0  0  0  0  0  0  0  0  0  0  0
    8.1257   -0.4333   18.3757 H   0  0  0  0  0  0  0  0  0  0  0  0
    6.5745    0.6788   17.5908 N   0  0  0  0  0  0  0  0  0  0  0  0
    5.4056    1.2883   17.8482 C   0  0  0  0  0  0  0  0  0  0  0  0
    4.9126    1.7723   17.0060 H   0  0  0  0  0  0  0  0  0  0  0  0
    4.8068    1.3063   19.1138 C   0  0  0  0  0  0  0  0  0  0  0  0
    3.8727    1.8442   19.2666 H   0  0  0  0  0  0  0  0  0  0  0  0
    5.4486    0.6498   20.1623 C   0  0  0  0  0  0  0  0  0  0  0  0
    5.0004    0.6300   21.1567 H   0  0  0  0  0  0  0  0  0  0  0  0
    7.3849   -0.2706   22.2740 C   0  0  0  0  0  0  0  0  0  0  0  0
    6.8429    0.6217   22.5490 H   0  0  0  0  0  0  0  0  0  0  0  0
    8.0924   -1.0080   23.2135 C   0  0  0  0  0  0  0  0  0  0  0  0
    8.1235   -0.5667   24.6492 C   0  0  0  0  0  0  0  0  0  0  0  0
    8.2940    0.7982   24.9633 C   0  0  0  0  0  0  0  0  0  0  0  0
    8.4154    1.5294   24.1650 H   0  0  0  0  0  0  0  0  0  0  0  0
    8.3488    1.2378   26.2847 C   0  0  0  0  0  0  0  0  0  0  0  0
    8.4937    2.2936   26.5046 H   0  0  0  0  0  0  0  0  0  0  0  0
    8.2150    0.3235   27.3342 C   0  0  0  0  0  0  0  0  0  0  0  0
    8.2596    0.6663   28.3653 H   0  0  0  0  0  0  0  0  0  0  0  0
    8.0292   -1.0267   27.0530 C   0  0  0  0  0  0  0  0  0  0  0  0
    7.9244   -1.7388   27.8645 H   0  0  0  0  0  0  0  0  0  0  0  0
    7.9774   -1.4836   25.7223 C   0  0  0  0  0  0  0  0  0  0  0  0
    7.7368   -2.8986   25.5120 C   0  0  0  0  0  0  0  0  0  0  0  0
    7.5448   -4.0234   25.3222 N   0  0  0  0  0  0  0  0  0  0  0  0
    8.7652   -2.1140   22.8703 N   0  0  0  0  0  0  0  0  0  0  0  0
  1  2  1  0
  2  3  2  0
  3  4  1  0
  4  5  1  0
  5  6  2  0
  6  7  1  0
  6  8  1  0
  8  9  2  0
  9 10  1  0
  9 11  1  0
 11 12  1  0
 11 13  2  0
 13 14  1  0
  4 15  2  0
 15 16  1  0
 15 17  1  0
 17 18  1  0
 18 19  2  0
 19 20  1  0
 19 21  1  0
 21 22  1  0
 21 23  2  0
 23 24  1  0
 23 25  1  0
 25 26  1  0
 25 27  2  0
 27 28  1  0
 28 29  3  0
 17 30  2  0
 30  2  1  0
 13  5  1  0
 27 18  1  0
M  END
>  <plip>  (1) 
-0.0

>  <filename>  (1) 
[H][c]1[n][c](-[c]2[c]([H])[n][c]([H])[c]([H])[c]2[H])[c]([H])[c](-[c]2[c]([H])[c]([H])[c]([H])[c]([H])[c]2[C]#[N])[n]1

$$$$
