
     RDKit          3D

 33 35  0  0  0  0  0  0  0  0999 V2000
    5.2197    1.6469   17.1398 H   0  0  0  0  0  0  0  0  0  0  0  0
    5.6014    1.2029   18.0555 C   0  0  0  0  0  0  0  0  0  0  0  0
    6.7442    0.5111   17.9514 N   0  0  0  0  0  0  0  0  0  0  0  0
    7.2308   -0.0510   19.0652 C   0  0  0  0  0  0  0  0  0  0  0  0
    8.1719   -0.5887   18.9570 H   0  0  0  0  0  0  0  0  0  0  0  0
    6.6106    0.0339   20.3418 C   0  0  0  0  0  0  0  0  0  0  0  0
    7.1281   -0.6283   21.4845 N   0  0  0  0  0  0  0  0  0  0  0  0
    6.5915   -0.5562   22.7793 C   0  0  0  0  0  0  0  0  0  0  0  0
    6.0446    0.3759   23.3259 O   0  0  0  0  0  0  0  0  0  0  0  0
    6.8667   -1.7678   23.3927 N   0  0  0  0  0  0  0  0  0  0  0  0
    6.1478   -1.9893   24.0645 H   0  0  0  0  0  0  0  0  0  0  0  0
    7.3045   -2.7371   22.3952 C   0  0  0  0  0  0  0  0  0  0  0  0
    7.9371   -3.5272   22.8204 H   0  0  0  0  0  0  0  0  0  0  0  0
    6.4583   -3.2375   21.8955 H   0  0  0  0  0  0  0  0  0  0  0  0
    8.0085   -1.8069   21.3906 C   0  0  2  0  0  0  0  0  0  0  0  0
    7.9226   -2.2135   20.3780 H   0  0  0  0  0  0  0  0  0  0  0  0
    9.5198   -1.5186   21.6341 C   0  0  1  0  0  0  0  0  0  0  0  0
    9.9979   -2.4945   21.4399 H   0  0  0  0  0  0  0  0  0  0  0  0
   10.0484   -0.5878   20.5144 N   0  0  0  0  0  0  0  0  0  0  0  0
    9.4371    0.2269   20.5848 H   0  0  0  0  0  0  0  0  0  0  0  0
   11.2113   -0.1825   22.9753 C   0  0  0  0  0  0  0  0  0  0  0  0
   10.9970   -0.1451   20.7804 H   0  0  0  0  0  0  0  0  0  0  0  0
   11.8039    0.7063   21.3523 H   0  0  0  0  0  0  0  0  0  0  0  0
   11.2736   -0.1197   22.7989 C   0  0  0  0  0  0  0  0  0  0  0  0
   11.3672    0.8907   23.5942 H   0  0  0  0  0  0  0  0  0  0  0  0
   12.3505   -0.6039   23.2892 H   0  0  0  0  0  0  0  0  0  0  0  0
    9.9426   -0.9415   23.0151 C   0  0  0  0  0  0  0  0  0  0  0  0
   10.0377   -1.7701   23.7700 H   0  0  0  0  0  0  0  0  0  0  0  0
    9.0264   -0.4606   23.5259 H   0  0  0  0  0  0  0  0  0  0  0  0
    5.4197    0.7747   20.4263 C   0  0  0  0  0  0  0  0  0  0  0  0
    4.9230    0.8828   21.3873 H   0  0  0  0  0  0  0  0  0  0  0  0
    4.9150    1.3561   19.2620 C   0  0  0  0  0  0  0  0  0  0  0  0
    3.9984    1.9345   19.2885 H   0  0  0  0  0  0  0  0  0  0  0  0
  1  2  1  0
  2  3  2  0
  3  4  1  0
  4  5  1  0
  4  6  2  0
  6  7  1  0
  7  8  1  0
  8  9  2  0
  8 10  1  0
 10 11  1  0
 10 12  1  0
 12 13  1  0
 12 14  1  0
 12 15  1  0
 15 16  1  6
 15 17  1  0
 17 18  1  6
 17 19  1  0
 19 20  1  0
 19 21  1  0
 21 22  1  0
 21 23  1  0
 21 24  1  0
 24 25  1  0
 24 26  1  0
 24 27  1  0
 27 28  1  0
 27 29  1  0
  6 30  1  0
 30 31  1  0
 30 32  2  0
 32 33  1  0
 32  2  1  0
 15  7  1  0
 27 17  1  0
M  END
>  <plip>  (1) 
-0.14285714285714285

>  <filename>  (1) 
[H][c]1[n][c]([H])[c]([N]2[C](=[O])[N]([H])[C]([H])([H])[C@]2([H])[C@@]2([H])[N]([H])[C]([H])([H])[C]([H])([H])[C]2([H])[H])[c]([H])[c]1[H]

$$$$
