
     RDKit          3D

 35 36  0  0  0  0  0  0  0  0999 V2000
   10.8638    0.3330   23.6686 O   0  0  0  0  0  0  0  0  0  0  0  0
    9.8240    0.2583   22.7200 C   0  0  0  0  0  0  0  0  0  0  0  0
    8.4962   -0.2877   23.2956 C   0  0  2  0  0  0  0  0  0  0  0  0
    8.6092   -1.7772   23.6609 C   0  0  0  0  0  0  0  0  0  0  0  0
    9.3300   -1.9215   24.8275 F   0  0  0  0  0  0  0  0  0  0  0  0
    9.0951   -2.3456   22.8586 H   0  0  0  0  0  0  0  0  0  0  0  0
    7.6088   -2.2047   23.8062 H   0  0  0  0  0  0  0  0  0  0  0  0
    7.3505   -0.0616   22.3097 N   0  0  0  0  0  4  0  0  0  0  0  0
    7.3789   -0.8907   20.9708 C   0  0  0  0  0  0  0  0  0  0  0  0
    6.6411   -0.0322   19.9539 C   0  0  0  0  0  0  0  0  0  0  0  0
    5.4359    0.6643   20.1752 C   0  0  0  0  0  0  0  0  0  0  0  0
    4.8201    1.3192   19.1022 C   0  0  0  0  0  0  0  0  0  0  0  0
    5.4346    1.2979   17.8483 C   0  0  0  0  0  0  0  0  0  0  0  0
    6.5969    0.6726   17.6204 N   0  0  0  0  0  0  0  0  0  0  0  0
    7.1684    0.0421   18.6523 C   0  0  0  0  0  0  0  0  0  0  0  0
    8.1131   -0.4533   18.4270 H   0  0  0  0  0  0  0  0  0  0  0  0
    4.9911    1.8236   17.0005 H   0  0  0  0  0  0  0  0  0  0  0  0
    3.8929    1.8685   19.2229 H   0  0  0  0  0  0  0  0  0  0  0  0
    4.9694    0.7279   21.1638 H   0  0  0  0  0  0  0  0  0  0  0  0
    6.8807   -2.3262   21.0998 C   0  0  0  0  0  0  0  0  0  0  0  0
    5.5196   -2.5408   21.3102 C   0  0  0  0  0  0  0  0  0  0  0  0
    4.9773   -3.7675   21.3249 N   0  0  0  0  0  0  0  0  0  0  0  0
    5.8148   -4.8043   21.1298 C   0  0  0  0  0  0  0  0  0  0  0  0
    7.1978   -4.6060   20.9912 C   0  0  0  0  0  0  0  0  0  0  0  0
    7.7407   -3.3708   21.0052 N   0  0  0  0  0  0  0  0  0  0  0  0
    7.8763   -5.4474   20.8945 H   0  0  0  0  0  0  0  0  0  0  0  0
    5.3791   -5.8017   21.0795 H   0  0  0  0  0  0  0  0  0  0  0  0
    4.8626   -1.6835   21.4242 H   0  0  0  0  0  0  0  0  0  0  0  0
    8.4279   -1.0008   20.6985 H   0  0  0  0  0  0  0  0  0  0  0  0
    6.4206   -0.2507   22.7544 H   0  0  0  0  0  0  0  0  0  0  0  0
    7.3010    0.9245   21.9642 H   0  0  0  0  0  0  0  0  0  0  0  0
    8.2897    0.2516   24.2293 H   0  0  0  0  0  0  0  0  0  0  0  0
    9.6387    1.2242   22.2179 H   0  0  0  0  0  0  0  0  0  0  0  0
   10.1883   -0.4313   21.9449 H   0  0  0  0  0  0  0  0  0  0  0  0
   10.6339    0.9517   24.3756 H   0  0  0  0  0  0  0  0  0  0  0  0
  1  2  1  0
  2  3  1  0
  3  4  1  0
  4  5  1  0
  4  6  1  0
  4  7  1  0
  3  8  1  0
  8  9  1  0
  9 10  1  0
 10 11  2  0
 11 12  1  0
 12 13  2  0
 13 14  1  0
 14 15  2  0
 15 16  1  0
 13 17  1  0
 12 18  1  0
 11 19  1  0
  9 20  1  0
 20 21  2  0
 21 22  1  0
 22 23  2  0
 23 24  1  0
 24 25  2  0
 24 26  1  0
 23 27  1  0
 21 28  1  0
  9 29  1  0
  8 30  1  0
  8 31  1  0
  3 32  1  1
  2 33  1  0
  2 34  1  0
  1 35  1  0
 15 10  1  0
 25 20  1  0
M  CHG  1   8   1
M  END
>  <plip>  (1) 
-0.10344827586206896

>  <filename>  (1) 
[H][O][C]([H])([H])[C@]([H])([C]([H])([H])[F])[N+]([H])([H])[C]([H])([c]1[n][c]([H])[c]([H])[n][c]1[H])[c]1[c]([H])[n][c]([H])[c]([H])[c]1[H]

$$$$
