
     RDKit          3D

 35 36  0  0  0  0  0  0  0  0999 V2000
    4.9619    1.8010   16.9784 H   0  0  0  0  0  0  0  0  0  0  0  0
    5.4191    1.2928   17.8271 C   0  0  0  0  0  0  0  0  0  0  0  0
    6.5756    0.6567   17.5856 N   0  0  0  0  0  0  0  0  0  0  0  0
    7.1628    0.0446   18.6214 C   0  0  0  0  0  0  0  0  0  0  0  0
    8.0951   -0.4723   18.4028 H   0  0  0  0  0  0  0  0  0  0  0  0
    6.6490    0.0118   19.9287 C   0  0  0  0  0  0  0  0  0  0  0  0
    7.3928   -0.7236   20.9677 C   0  0  0  0  0  0  0  0  0  0  0  0
    8.7222   -1.0096   21.0950 C   0  0  0  0  0  0  0  0  0  0  0  0
    9.5584   -0.7075   20.4949 H   0  0  0  0  0  0  0  0  0  0  0  0
    8.9244   -1.8109   22.2689 C   0  0  0  0  0  0  0  0  0  0  0  0
    9.9437   -2.2992   22.7541 O   0  0  0  0  0  0  0  0  0  0  0  0
    7.6449   -1.9713   22.8199 N   0  0  0  0  0  0  0  0  0  0  0  0
    7.3786   -2.4429   24.1364 C   0  0  0  0  0  0  0  0  0  0  0  0
    6.4002   -2.0725   24.7613 O   0  0  0  0  0  0  0  0  0  0  0  0
    8.2758   -3.3548   24.5507 N   0  0  0  0  0  0  0  0  0  0  0  0
    9.1319   -3.3129   24.0046 H   0  0  0  0  0  0  0  0  0  0  0  0
    8.1569   -3.9784   25.8615 C   0  0  0  0  0  0  0  0  0  0  0  0
    9.1257   -4.4259   26.1097 H   0  0  0  0  0  0  0  0  0  0  0  0
    7.9557   -3.2137   26.6280 H   0  0  0  0  0  0  0  0  0  0  0  0
    7.0450   -5.0359   25.8829 C   0  0  0  0  0  0  0  0  0  0  0  0
    6.1164   -4.5363   25.5733 H   0  0  0  0  0  0  0  0  0  0  0  0
    7.2682   -5.8037   25.1269 H   0  0  0  0  0  0  0  0  0  0  0  0
    6.8376   -5.6984   27.2532 C   0  0  0  0  0  0  0  0  0  0  0  0
    6.6100   -4.9189   27.9969 H   0  0  0  0  0  0  0  0  0  0  0  0
    7.7732   -6.1795   27.5814 H   0  0  0  0  0  0  0  0  0  0  0  0
    5.7084   -6.7343   27.2548 C   0  0  0  0  0  0  0  0  0  0  0  0
    4.7452   -6.2818   26.9875 H   0  0  0  0  0  0  0  0  0  0  0  0
    5.5961   -7.1956   28.2426 H   0  0  0  0  0  0  0  0  0  0  0  0
    5.9019   -7.5361   26.5327 H   0  0  0  0  0  0  0  0  0  0  0  0
    6.7332   -1.2786   22.0069 N   0  0  0  0  0  0  0  0  0  0  0  0
    5.7690   -1.1595   22.2886 H   0  0  0  0  0  0  0  0  0  0  0  0
    5.4290    0.6766   20.1582 C   0  0  0  0  0  0  0  0  0  0  0  0
    4.9775    0.7052   21.1537 H   0  0  0  0  0  0  0  0  0  0  0  0
    4.8101    1.3231   19.0887 C   0  0  0  0  0  0  0  0  0  0  0  0
    3.8715    1.8520   19.2156 H   0  0  0  0  0  0  0  0  0  0  0  0
  1  2  1  0
  2  3  2  0
  3  4  1  0
  4  5  1  0
  4  6  2  0
  6  7  1  0
  7  8  2  0
  8  9  1  0
  8 10  1  0
 10 11  2  0
 10 12  1  0
 12 13  1  0
 13 14  2  0
 13 15  1  0
 15 16  1  0
 15 17  1  0
 17 18  1  0
 17 19  1  0
 17 20  1  0
 20 21  1  0
 20 22  1  0
 20 23  1  0
 23 24  1  0
 23 25  1  0
 23 26  1  0
 26 27  1  0
 26 28  1  0
 26 29  1  0
 12 30  1  0
 30 31  1  0
  6 32  1  0
 32 33  1  0
 32 34  2  0
 34 35  1  0
 34  2  1  0
 30  7  1  0
M  END
>  <plip>  (1) 
-0.07142857142857142

>  <filename>  (1) 
[H][c]1[n][c]([H])[c](-[c]2[c]([H])[c](=[O])[n]([C](=[O])[N]([H])[C]([H])([H])[C]([H])([H])[C]([H])([H])[C]([H])([H])[H])[n]2[H])[c]([H])[c]1[H]

$$$$
