
     RDKit          3D

 36 39  0  0  0  0  0  0  0  0999 V2000
   11.9859    0.5748   21.9126 C   0  0  0  0  0  0  0  0  0  0  0  0
   10.5146    0.6302   21.7076 C   0  0  0  0  0  0  0  0  0  0  0  0
    9.7407   -0.3987   21.4364 N   0  0  0  0  0  0  0  0  0  0  0  0
    8.4934    0.1345   21.4939 N   0  0  0  0  0  0  0  0  0  0  0  0
    7.3476   -0.6490   21.0185 C   0  0  0  0  0  0  0  0  0  0  0  0
    6.5726    0.0222   19.9035 C   0  0  0  0  0  0  0  0  0  0  0  0
    5.3443    0.6649   20.1011 C   0  0  0  0  0  0  0  0  0  0  0  0
    4.7536    1.3241   19.0176 C   0  0  0  0  0  0  0  0  0  0  0  0
    5.4112    1.3075   17.7840 C   0  0  0  0  0  0  0  0  0  0  0  0
    6.5681    0.6649   17.5675 N   0  0  0  0  0  0  0  0  0  0  0  0
    7.1212    0.0423   18.6122 C   0  0  0  0  0  0  0  0  0  0  0  0
    8.0470   -0.4972   18.4116 H   0  0  0  0  0  0  0  0  0  0  0  0
    4.9826    1.8066   16.9177 H   0  0  0  0  0  0  0  0  0  0  0  0
    3.8029    1.8405   19.1058 H   0  0  0  0  0  0  0  0  0  0  0  0
    4.8532    0.6365   21.0784 H   0  0  0  0  0  0  0  0  0  0  0  0
    6.6931   -0.8829   21.8605 H   0  0  0  0  0  0  0  0  0  0  0  0
    7.7568   -1.6092   20.6876 H   0  0  0  0  0  0  0  0  0  0  0  0
    8.5906    1.4546   21.8389 C   0  0  0  0  0  0  0  0  0  0  0  0
    7.4823    2.2956   22.3023 C   0  0  0  0  0  0  0  0  0  0  0  0
    7.2443    3.6028   21.9578 C   0  0  0  0  0  0  0  0  0  0  0  0
    6.1223    4.0472   22.6089 N   0  0  0  0  0  0  0  0  0  0  0  0
    5.6586    3.0854   23.4557 C   0  0  0  0  0  0  0  0  0  0  0  0
    4.6208    3.2339   24.2881 N   0  0  0  0  0  0  0  0  0  0  0  0
    4.4184    2.1771   25.0845 C   0  0  0  0  0  0  0  0  0  0  0  0
    5.1932    0.9922   25.0689 C   0  0  0  0  0  0  0  0  0  0  0  0
    6.2381    0.8561   24.1546 C   0  0  0  0  0  0  0  0  0  0  0  0
    6.4890    1.9488   23.3066 C   0  0  0  0  0  0  0  0  0  0  0  0
    6.8366   -0.0573   24.0787 H   0  0  0  0  0  0  0  0  0  0  0  0
    4.9627    0.1956   25.7688 H   0  0  0  0  0  0  0  0  0  0  0  0
    3.5838    2.2674   25.7778 H   0  0  0  0  0  0  0  0  0  0  0  0
    5.6991    4.9541   22.5820 H   0  0  0  0  0  0  0  0  0  0  0  0
    7.8449    4.2779   21.3500 H   0  0  0  0  0  0  0  0  0  0  0  0
    9.8622    1.7992   21.9041 N   0  0  0  0  0  0  0  0  0  0  0  0
   12.3906   -0.4026   21.6420 H   0  0  0  0  0  0  0  0  0  0  0  0
   12.4418    1.3916   21.3473 H   0  0  0  0  0  0  0  0  0  0  0  0
   12.1956    0.7674   22.9671 H   0  0  0  0  0  0  0  0  0  0  0  0
  1  2  1  0
  2  3  2  0
  3  4  1  0
  4  5  1  0
  5  6  1  0
  6  7  2  0
  7  8  1  0
  8  9  2  0
  9 10  1  0
 10 11  2  0
 11 12  1  0
  9 13  1  0
  8 14  1  0
  7 15  1  0
  5 16  1  0
  5 17  1  0
  4 18  1  0
 18 19  1  0
 19 20  2  0
 20 21  1  0
 21 22  1  0
 22 23  2  0
 23 24  1  0
 24 25  2  0
 25 26  1  0
 26 27  2  0
 26 28  1  0
 25 29  1  0
 24 30  1  0
 21 31  1  0
 20 32  1  0
 18 33  2  0
  1 34  1  0
  1 35  1  0
  1 36  1  0
 33  2  1  0
 11  6  1  0
 27 19  1  0
 27 22  1  0
M  END
>  <plip>  (1) 
-0.14285714285714285

>  <filename>  (1) 
[H][c]1[n][c]([H])[c]([C]([H])([H])[n]2[n][c]([C]([H])([H])[H])[n][c]2-[c]2[c]([H])[n]([H])[c]3[n][c]([H])[c]([H])[c]([H])[c]23)[c]([H])[c]1[H]

$$$$
