
     RDKit          3D

 21 23  0  0  0  0  0  0  0  0999 V2000
    4.9222    1.7810   16.9956 H   0  0  0  0  0  0  0  0  0  0  0  0
    5.4024    1.2927   17.8390 C   0  0  0  0  0  0  0  0  0  0  0  0
    6.5678    0.6757   17.5833 N   0  0  0  0  0  0  0  0  0  0  0  0
    7.1703    0.0583   18.6012 C   0  0  0  0  0  0  0  0  0  0  0  0
    8.1159   -0.4380   18.3799 H   0  0  0  0  0  0  0  0  0  0  0  0
    6.6500    0.0352   19.9048 C   0  0  0  0  0  0  0  0  0  0  0  0
    7.3649   -0.7161   20.9264 C   0  0  0  0  0  0  0  0  0  0  0  0
    7.8242   -1.9297   20.7960 N   0  0  0  0  0  0  0  0  0  0  0  0
    8.3234   -2.2872   22.0029 N   0  0  0  0  0  0  0  0  0  0  0  0
    8.2101   -1.3460   22.8566 N   0  0  0  0  0  0  0  0  0  0  0  0
    7.5963   -0.3112   22.2038 N   0  0  0  0  0  0  0  0  0  0  0  0
    7.4222    0.9428   22.7525 C   0  0  0  0  0  0  0  0  0  0  0  0
    7.1710    2.0586   22.1195 N   0  0  0  0  0  0  0  0  0  0  0  0
    7.1234    3.0161   23.0771 N   0  0  0  0  0  0  0  0  0  0  0  0
    7.3264    2.5274   24.2390 N   0  0  0  0  0  0  0  0  0  0  0  0
    7.5129    1.2105   24.0613 N   0  0  0  0  0  0  0  0  0  0  0  0
    7.7146    0.5876   24.8271 H   0  0  0  0  0  0  0  0  0  0  0  0
    5.4194    0.6554   20.1557 C   0  0  0  0  0  0  0  0  0  0  0  0
    4.9949    0.6583   21.1629 H   0  0  0  0  0  0  0  0  0  0  0  0
    4.7949    1.3079   19.0976 C   0  0  0  0  0  0  0  0  0  0  0  0
    3.8695    1.8456   19.2552 H   0  0  0  0  0  0  0  0  0  0  0  0
  1  2  1  0
  2  3  2  0
  3  4  1  0
  4  5  1  0
  4  6  2  0
  6  7  1  0
  7  8  2  0
  8  9  1  0
  9 10  2  0
 10 11  1  0
 11 12  1  0
 12 13  2  0
 13 14  1  0
 14 15  2  0
 15 16  1  0
 16 17  1  0
  6 18  1  0
 18 19  1  0
 18 20  2  0
 20 21  1  0
 20  2  1  0
 11  7  1  0
 16 12  1  0
M  END
>  <plip>  (1) 
-0.0

>  <filename>  (1) 
[H][c]1[n][c]([H])[c](-[c]2[n][n][n][n]2-[c]2[n][n][n][n]2[H])[c]([H])[c]1[H]

$$$$
