
     RDKit          3D

 53 56  0  0  0  0  0  0  0  0999 V2000
    4.0975   -0.2285   28.0803 C   0  0  0  0  0  0  0  0  0  0  0  0
    3.6627   -1.3059   27.1197 C   0  0  0  0  0  0  0  0  0  0  0  0
    2.4672   -1.9957   27.3438 C   0  0  0  0  0  0  0  0  0  0  0  0
    2.1047   -3.0023   26.4543 C   0  0  0  0  0  0  0  0  0  0  0  0
    0.9570   -3.6592   26.6695 F   0  0  0  0  0  0  0  0  0  0  0  0
    2.8736   -3.3620   25.3535 C   0  0  0  0  0  0  0  0  0  0  0  0
    4.0783   -2.6761   25.1426 C   0  0  0  0  0  0  0  0  0  0  0  0
    4.9266   -3.0361   24.0427 N   0  0  0  0  0  0  0  0  0  0  0  0
    6.2008   -2.6219   23.7809 C   0  0  0  0  0  0  0  0  0  0  0  0
    6.5196   -3.1956   22.5828 C   0  0  0  0  0  0  0  0  0  0  0  0
    7.7921   -3.0706   21.7782 C   0  0  0  0  0  0  0  0  0  0  0  0
    7.6330   -2.1319   20.6208 N   0  0  0  0  0  4  0  0  0  0  0  0
    7.4018   -0.6818   21.0075 C   0  0  0  0  0  0  0  0  0  0  0  0
    8.7195    0.0328   21.3297 C   0  0  0  0  0  0  0  0  0  0  0  0
    8.5132    1.4417   21.8779 C   0  0  0  0  0  0  0  0  0  0  0  0
    9.8211    2.1750   22.1669 C   0  0  0  0  0  0  0  0  0  0  0  0
    9.4446    3.1476   23.2856 C   0  0  0  0  0  0  0  0  0  0  0  0
    8.2970    2.6118   23.9304 O   0  0  0  0  0  0  0  0  0  0  0  0
    7.7979    1.4849   23.2381 C   0  0  0  0  0  0  0  0  0  0  0  0
    7.9959    0.5711   23.8280 H   0  0  0  0  0  0  0  0  0  0  0  0
    6.7056    1.5726   23.1458 H   0  0  0  0  0  0  0  0  0  0  0  0
    9.2034    4.1460   22.8936 H   0  0  0  0  0  0  0  0  0  0  0  0
   10.2444    3.2576   24.0287 H   0  0  0  0  0  0  0  0  0  0  0  0
   10.5912    1.4705   22.5030 H   0  0  0  0  0  0  0  0  0  0  0  0
   10.2149    2.6876   21.2860 H   0  0  0  0  0  0  0  0  0  0  0  0
    7.9218    2.0313   21.1627 H   0  0  0  0  0  0  0  0  0  0  0  0
    9.3482    0.0707   20.4298 H   0  0  0  0  0  0  0  0  0  0  0  0
    9.2757   -0.5574   22.0713 H   0  0  0  0  0  0  0  0  0  0  0  0
    6.6400   -0.0279   19.8974 C   0  0  0  0  0  0  0  0  0  0  0  0
    5.4310    0.6415   20.1520 C   0  0  0  0  0  0  0  0  0  0  0  0
    4.8023    1.3102   19.1022 C   0  0  0  0  0  0  0  0  0  0  0  0
    5.4040    1.2889   17.8388 C   0  0  0  0  0  0  0  0  0  0  0  0
    6.5636    0.6667   17.5808 N   0  0  0  0  0  0  0  0  0  0  0  0
    7.1620    0.0350   18.5988 C   0  0  0  0  0  0  0  0  0  0  0  0
    8.1235   -0.4238   18.3610 H   0  0  0  0  0  0  0  0  0  0  0  0
    4.9265    1.7829   16.9949 H   0  0  0  0  0  0  0  0  0  0  0  0
    3.8742    1.8476   19.2527 H   0  0  0  0  0  0  0  0  0  0  0  0
    5.0036    0.6370   21.1602 H   0  0  0  0  0  0  0  0  0  0  0  0
    6.7676   -0.6869   21.8992 H   0  0  0  0  0  0  0  0  0  0  0  0
    6.7873   -2.4219   20.0729 H   0  0  0  0  0  0  0  0  0  0  0  0
    8.4540   -2.1252   19.9726 H   0  0  0  0  0  0  0  0  0  0  0  0
    8.1249   -4.0521   21.4419 H   0  0  0  0  0  0  0  0  0  0  0  0
    8.5518   -2.6768   22.4638 H   0  0  0  0  0  0  0  0  0  0  0  0
    5.4417   -3.9088   22.1535 N   0  0  0  0  0  0  0  0  0  0  0  0
    4.4942   -3.8117   23.0250 N   0  0  0  0  0  0  0  0  0  0  0  0
    6.7538   -1.9393   24.4015 H   0  0  0  0  0  0  0  0  0  0  0  0
    4.4587   -1.6471   26.0180 C   0  0  0  0  0  0  0  0  0  0  0  0
    5.3812   -1.0952   25.8679 H   0  0  0  0  0  0  0  0  0  0  0  0
    2.5359   -4.1533   24.6899 H   0  0  0  0  0  0  0  0  0  0  0  0
    1.8266   -1.7683   28.1922 H   0  0  0  0  0  0  0  0  0  0  0  0
    4.6737    0.5548   27.5823 H   0  0  0  0  0  0  0  0  0  0  0  0
    3.2426    0.2476   28.5677 H   0  0  0  0  0  0  0  0  0  0  0  0
    4.7266   -0.6406   28.8754 H   0  0  0  0  0  0  0  0  0  0  0  0
  1  2  1  0
  2  3  2  0
  3  4  1  0
  4  5  1  0
  4  6  2  0
  6  7  1  0
  7  8  1  0
  8  9  1  0
  9 10  2  0
 10 11  1  0
 11 12  1  0
 12 13  1  0
 13 14  1  0
 14 15  1  0
 15 16  1  0
 16 17  1  0
 17 18  1  0
 18 19  1  0
 19 20  1  0
 19 21  1  0
 17 22  1  0
 17 23  1  0
 16 24  1  0
 16 25  1  0
 15 26  1  0
 14 27  1  0
 14 28  1  0
 13 29  1  0
 29 30  2  0
 30 31  1  0
 31 32  2  0
 32 33  1  0
 33 34  2  0
 34 35  1  0
 32 36  1  0
 31 37  1  0
 30 38  1  0
 13 39  1  0
 12 40  1  0
 12 41  1  0
 11 42  1  0
 11 43  1  0
 10 44  1  0
 44 45  2  0
  9 46  1  0
  7 47  2  0
 47 48  1  0
  6 49  1  0
  3 50  1  0
  1 51  1  0
  1 52  1  0
  1 53  1  0
 47  2  1  0
 45  8  1  0
 19 15  1  0
 34 29  1  0
M  CHG  1  12   1
M  END
>  <plip>  (1) 
-0.03333333333333333

>  <filename>  (1) 
[H][c]1[n][c]([H])[c]([C]([H])([C]([H])([H])[C]2([H])[C]([H])([H])[O][C]([H])([H])[C]2([H])[H])[N+]([H])([H])[C]([H])([H])[c]2[n][n][n](-[c]3[c]([H])[c]([F])[c]([H])[c]([C]([H])([H])[H])[c]3[H])[c]2[H])[c]([H])[c]1[H]

$$$$
