
     RDKit          3D

 34 35  0  0  0  0  0  0  0  0999 V2000
    6.8230    0.8219   22.4768 O   0  0  0  0  0  0  0  0  0  0  0  0
    7.4085   -0.2051   22.1535 C   0  0  0  0  0  0  0  0  0  0  0  0
    8.0140   -1.1238   23.2270 C   0  0  0  0  0  0  0  0  0  0  0  0
    7.0540   -1.6528   24.1786 O   0  0  0  0  0  0  0  0  0  0  0  0
    6.1129   -2.4991   23.6641 C   0  0  0  0  0  0  0  0  0  0  0  0
    6.1233   -2.9739   22.5325 O   0  0  0  0  0  0  0  0  0  0  0  0
    4.9063   -2.7858   24.5345 C   0  0  0  0  0  0  0  0  0  0  0  0
    5.0759   -4.0270   25.3449 C   0  0  0  0  0  0  0  0  0  0  0  0
    5.6558   -3.9759   26.6184 C   0  0  0  0  0  0  0  0  0  0  0  0
    5.6959   -5.1344   27.4069 C   0  0  0  0  0  0  0  0  0  0  0  0
    5.1769   -6.3403   26.9180 C   0  0  0  0  0  0  0  0  0  0  0  0
    5.2438   -7.8736   28.0596 Br  0  0  0  0  0  0  0  0  0  0  0  0
    4.6241   -6.4015   25.6249 C   0  0  0  0  0  0  0  0  0  0  0  0
    3.9580   -7.8891   24.9769 Cl  0  0  0  0  0  0  0  0  0  0  0  0
    4.5905   -5.2415   24.8420 C   0  0  0  0  0  0  0  0  0  0  0  0
    4.1667   -5.2741   23.8423 H   0  0  0  0  0  0  0  0  0  0  0  0
    6.1169   -5.1219   28.4115 H   0  0  0  0  0  0  0  0  0  0  0  0
    6.0597   -3.0436   27.0100 H   0  0  0  0  0  0  0  0  0  0  0  0
    4.0285   -2.9029   23.8986 H   0  0  0  0  0  0  0  0  0  0  0  0
    4.7306   -1.9225   25.1789 H   0  0  0  0  0  0  0  0  0  0  0  0
    8.7760   -0.5490   23.7598 H   0  0  0  0  0  0  0  0  0  0  0  0
    8.5248   -1.9492   22.7238 H   0  0  0  0  0  0  0  0  0  0  0  0
    7.4789   -0.5889   20.8200 N   0  0  0  0  0  0  0  0  0  0  0  0
    6.7752    0.0458   19.7793 C   0  0  0  0  0  0  0  0  0  0  0  0
    5.6201    0.7742   20.0688 C   0  0  0  0  0  0  0  0  0  0  0  0
    4.9532    1.4073   19.0179 C   0  0  0  0  0  0  0  0  0  0  0  0
    5.4494    1.2923   17.7121 C   0  0  0  0  0  0  0  0  0  0  0  0
    6.5541    0.5800   17.4119 N   0  0  0  0  0  0  0  0  0  0  0  0
    7.1953   -0.0303   18.4330 C   0  0  0  0  0  0  0  0  0  0  0  0
    8.0962   -0.6036   18.2329 H   0  0  0  0  0  0  0  0  0  0  0  0
    4.9199    1.7958   16.9107 H   0  0  0  0  0  0  0  0  0  0  0  0
    4.0606    1.9940   19.2075 H   0  0  0  0  0  0  0  0  0  0  0  0
    5.2485    0.8379   21.0896 H   0  0  0  0  0  0  0  0  0  0  0  0
    7.9997   -1.4362   20.6084 H   0  0  0  0  0  0  0  0  0  0  0  0
  1  2  2  0
  2  3  1  0
  3  4  1  0
  4  5  1  0
  5  6  2  0
  5  7  1  0
  7  8  1  0
  8  9  2  0
  9 10  1  0
 10 11  2  0
 11 12  1  0
 11 13  1  0
 13 14  1  0
 13 15  2  0
 15 16  1  0
 10 17  1  0
  9 18  1  0
  7 19  1  0
  7 20  1  0
  3 21  1  0
  3 22  1  0
  2 23  1  0
 23 24  1  0
 24 25  2  0
 25 26  1  0
 26 27  2  0
 27 28  1  0
 28 29  2  0
 29 30  1  0
 27 31  1  0
 26 32  1  0
 25 33  1  0
 23 34  1  0
 15  8  1  0
 29 24  1  0
M  END
>  <plip>  (1) 
-0.06666666666666667

>  <filename>  (1) 
[H][c]1[n][c]([H])[c]([N]([H])[C](=[O])[C]([H])([H])[O][C](=[O])[C]([H])([H])[c]2[c]([H])[c]([H])[c]([Br])[c]([Cl])[c]2[H])[c]([H])[c]1[H]

$$$$
