
     RDKit          3D

 38 40  0  0  0  0  0  0  0  0999 V2000
    4.9256    1.8149   16.9904 H   0  0  0  0  0  0  0  0  0  0  0  0
    5.3964    1.3006   17.8255 C   0  0  0  0  0  0  0  0  0  0  0  0
    6.5588    0.6835   17.5582 N   0  0  0  0  0  0  0  0  0  0  0  0
    7.1674    0.0511   18.5728 C   0  0  0  0  0  0  0  0  0  0  0  0
    8.1183   -0.4313   18.3524 H   0  0  0  0  0  0  0  0  0  0  0  0
    6.6543   -0.0270   19.8918 C   0  0  0  0  0  0  0  0  0  0  0  0
    7.2912   -0.7531   20.9109 N   0  0  0  0  0  0  0  0  0  0  0  0
    6.7182   -0.9671   21.7217 H   0  0  0  0  0  0  0  0  0  0  0  0
    8.6905   -0.7724   21.1400 C   0  0  0  0  0  0  0  0  0  0  0  0
    9.6841    0.1481   20.7167 C   0  0  0  0  0  0  0  0  0  0  0  0
    9.5591    1.0110   20.0713 H   0  0  0  0  0  0  0  0  0  0  0  0
   10.8967   -0.1609   21.1727 N   0  0  0  0  0  0  0  0  0  0  0  0
   10.6837   -1.2805   21.8924 N   0  0  0  0  0  0  0  0  0  0  0  0
   11.4507   -1.8079   22.2862 H   0  0  0  0  0  0  0  0  0  0  0  0
    9.3972   -1.7130   21.8913 C   0  0  0  0  0  0  0  0  0  0  0  0
    9.0559   -2.9111   22.5247 N   0  0  0  0  0  0  0  0  0  0  0  0
    7.9113   -3.6579   22.0148 C   0  0  0  0  0  0  0  0  0  0  0  0
    6.9616   -3.4248   22.5205 H   0  0  0  0  0  0  0  0  0  0  0  0
    7.7969   -3.4300   20.9524 H   0  0  0  0  0  0  0  0  0  0  0  0
    8.0820   -4.7378   22.1211 H   0  0  0  0  0  0  0  0  0  0  0  0
    9.4003   -3.0467   23.9470 C   0  0  0  0  0  0  0  0  0  0  0  0
    8.9572   -3.9888   24.2907 H   0  0  0  0  0  0  0  0  0  0  0  0
   10.4903   -3.1715   24.0387 H   0  0  0  0  0  0  0  0  0  0  0  0
    8.9687   -1.8843   24.8502 C   0  0  0  0  0  0  0  0  0  0  0  0
    7.6380   -1.7509   25.2806 C   0  0  0  0  0  0  0  0  0  0  0  0
    6.8982   -2.4953   24.9889 H   0  0  0  0  0  0  0  0  0  0  0  0
    7.2449   -0.6729   26.0832 C   0  0  0  0  0  0  0  0  0  0  0  0
    6.2088   -0.5859   26.4004 H   0  0  0  0  0  0  0  0  0  0  0  0
    8.1782    0.2945   26.4708 C   0  0  0  0  0  0  0  0  0  0  0  0
    7.8749    1.1362   27.0906 H   0  0  0  0  0  0  0  0  0  0  0  0
    9.5056    0.1774   26.0502 C   0  0  0  0  0  0  0  0  0  0  0  0
   10.2390    0.9247   26.3451 H   0  0  0  0  0  0  0  0  0  0  0  0
    9.8932   -0.8987   25.2452 C   0  0  0  0  0  0  0  0  0  0  0  0
   10.9307   -0.9682   24.9258 H   0  0  0  0  0  0  0  0  0  0  0  0
    5.4390    0.6255   20.1445 C   0  0  0  0  0  0  0  0  0  0  0  0
    5.0245    0.6134   21.1532 H   0  0  0  0  0  0  0  0  0  0  0  0
    4.8043    1.3019   19.0964 C   0  0  0  0  0  0  0  0  0  0  0  0
    3.8730    1.8394   19.2548 H   0  0  0  0  0  0  0  0  0  0  0  0
  1  2  1  0
  2  3  2  0
  3  4  1  0
  4  5  1  0
  4  6  2  0
  6  7  1  0
  7  8  1  0
  7  9  1  0
  9 10  1  0
 10 11  1  0
 10 12  2  0
 12 13  1  0
 13 14  1  0
 13 15  1  0
 15 16  1  0
 16 17  1  0
 17 18  1  0
 17 19  1  0
 17 20  1  0
 16 21  1  0
 21 22  1  0
 21 23  1  0
 21 24  1  0
 24 25  2  0
 25 26  1  0
 25 27  1  0
 27 28  1  0
 27 29  2  0
 29 30  1  0
 29 31  1  0
 31 32  1  0
 31 33  2  0
 33 34  1  0
  6 35  1  0
 35 36  1  0
 35 37  2  0
 37 38  1  0
 37  2  1  0
 15  9  2  0
 33 24  1  0
M  END
>  <plip>  (1) 
-0.06666666666666667

>  <filename>  (1) 
[H][c]1[n][c]([H])[c]([N]([H])[c]2[c]([H])[n][n]([H])[c]2[N]([C]([H])([H])[H])[C]([H])([H])[c]2[c]([H])[c]([H])[c]([H])[c]([H])[c]2[H])[c]([H])[c]1[H]

$$$$
