
     RDKit          3D

 24 25  0  0  0  0  0  0  0  0999 V2000
    5.0335    1.7897   17.0021 H   0  0  0  0  0  0  0  0  0  0  0  0
    5.4655    1.2680   17.8521 C   0  0  0  0  0  0  0  0  0  0  0  0
    6.6022    0.6028   17.6070 N   0  0  0  0  0  0  0  0  0  0  0  0
    7.1670   -0.0448   18.6208 C   0  0  0  0  0  0  0  0  0  0  0  0
    8.0966   -0.5750   18.4254 H   0  0  0  0  0  0  0  0  0  0  0  0
    6.6139   -0.0426   19.8908 C   0  0  0  0  0  0  0  0  0  0  0  0
    7.5311   -0.9186   21.0890 S   0  0  0  0  0  0  0  0  0  0  0  0
    6.6137   -1.7699   21.8259 O   0  0  0  0  0  0  0  0  0  0  0  0
    8.6940   -1.5029   20.4223 O   0  0  0  0  0  0  0  0  0  0  0  0
    8.2551    0.4435   22.2077 C   0  0  2  0  0  0  0  0  0  0  0  0
    8.7022   -0.2523   22.9209 H   0  0  0  0  0  0  0  0  0  0  0  0
    7.5037    1.5145   22.9044 N   0  0  0  0  0  0  0  0  0  0  0  0
    7.9070    2.6044   22.3575 C   0  0  0  0  0  0  0  0  0  0  0  0
    7.4634    3.8327   22.6790 N   0  0  0  0  0  0  0  0  0  0  0  0
    7.5478    4.4579   21.8944 H   0  0  0  0  0  0  0  0  0  0  0  0
    6.5368    3.7310   23.0657 H   0  0  0  0  0  0  0  0  0  0  0  0
    8.8124    2.5513   21.3767 O   0  0  0  0  0  0  0  0  0  0  0  0
    9.3179    1.2050   21.3801 C   0  0  0  0  0  0  0  0  0  0  0  0
    9.4650    0.8667   20.3480 H   0  0  0  0  0  0  0  0  0  0  0  0
   10.3015    1.1789   21.8713 H   0  0  0  0  0  0  0  0  0  0  0  0
    5.4277    0.6355   20.1781 C   0  0  0  0  0  0  0  0  0  0  0  0
    4.9762    0.6562   21.1767 H   0  0  0  0  0  0  0  0  0  0  0  0
    4.8432    1.3054   19.1053 C   0  0  0  0  0  0  0  0  0  0  0  0
    3.9203    1.8601   19.2192 H   0  0  0  0  0  0  0  0  0  0  0  0
  1  2  1  0
  2  3  2  0
  3  4  1  0
  4  5  1  0
  4  6  2  0
  6  7  1  0
  7  8  2  0
  7  9  2  0
  7 10  1  0
 10 11  1  1
 10 12  1  0
 12 13  2  0
 13 14  1  0
 14 15  1  0
 14 16  1  0
 13 17  1  0
 17 18  1  0
 18 19  1  0
 18 20  1  0
  6 21  1  0
 21 22  1  0
 21 23  2  0
 23 24  1  0
 23  2  1  0
 18 10  1  0
M  END
>  <plip>  (1) 
-0.10714285714285714

>  <filename>  (1) 
[H][c]1[n][c]([H])[c]([S](=[O])(=[O])[C@]2([H])[N]=[C]([N]([H])[H])[O][C]2([H])[H])[c]([H])[c]1[H]

$$$$
