
     RDKit          3D

 38 38  0  0  0  0  0  0  0  0999 V2000
    9.5605   -2.9731   22.7239 C   0  0  0  0  0  0  0  0  0  0  0  0
    8.2337   -2.3403   23.1396 C   0  0  0  0  0  0  0  0  0  0  0  0
    7.1311   -2.8051   22.3062 N   0  0  0  0  0  0  0  0  0  0  0  0
    6.5771   -4.1415   22.5915 C   0  0  0  0  0  0  0  0  0  0  0  0
    5.2010   -4.0618   23.2417 C   0  0  0  0  0  0  0  0  0  0  0  0
    4.5222   -5.4163   23.4609 C   0  0  0  0  0  0  0  0  0  0  0  0
    3.1672   -5.1980   24.1468 C   0  0  0  0  0  0  0  0  0  0  0  0
    3.4333   -4.5076   25.5488 C   0  0  0  0  0  0  0  0  0  0  0  0
    3.1656   -3.2904   25.6087 O   0  0  0  0  0  0  0  0  0  0  0  0
    3.9031   -5.2765   26.4069 O   0  0  0  0  0  1  0  0  0  0  0  0
    2.6300   -6.1391   24.3024 H   0  0  0  0  0  0  0  0  0  0  0  0
    2.5351   -4.5466   23.5354 H   0  0  0  0  0  0  0  0  0  0  0  0
    5.1508   -6.0690   24.0810 H   0  0  0  0  0  0  0  0  0  0  0  0
    4.3807   -5.9514   22.5108 H   0  0  0  0  0  0  0  0  0  0  0  0
    5.2771   -3.5427   24.2105 H   0  0  0  0  0  0  0  0  0  0  0  0
    4.5510   -3.4398   22.6161 H   0  0  0  0  0  0  0  0  0  0  0  0
    7.2538   -4.6717   23.2780 H   0  0  0  0  0  0  0  0  0  0  0  0
    6.5263   -4.7173   21.6552 H   0  0  0  0  0  0  0  0  0  0  0  0
    6.6706   -2.1307   21.1941 C   0  0  0  0  0  0  0  0  0  0  0  0
    5.8290   -2.6245   20.4613 O   0  0  0  0  0  0  0  0  0  0  0  0
    7.2908   -0.7347   20.9050 C   0  0  0  0  0  0  0  0  0  0  0  0
    6.6485    0.0528   19.7791 C   0  0  0  0  0  0  0  0  0  0  0  0
    5.4286    0.7025   20.0091 C   0  0  0  0  0  0  0  0  0  0  0  0
    4.8062    1.3901   18.9618 C   0  0  0  0  0  0  0  0  0  0  0  0
    5.4341    1.3985   17.7129 C   0  0  0  0  0  0  0  0  0  0  0  0
    6.6034    0.7887   17.4653 N   0  0  0  0  0  0  0  0  0  0  0  0
    7.1886    0.1426   18.4849 C   0  0  0  0  0  0  0  0  0  0  0  0
    8.1463   -0.3285   18.2570 H   0  0  0  0  0  0  0  0  0  0  0  0
    4.9838    1.9158   16.8663 H   0  0  0  0  0  0  0  0  0  0  0  0
    3.8657    1.9147   19.0990 H   0  0  0  0  0  0  0  0  0  0  0  0
    4.9935    0.6650   21.0089 H   0  0  0  0  0  0  0  0  0  0  0  0
    8.3652   -0.8779   20.7239 H   0  0  0  0  0  0  0  0  0  0  0  0
    7.2129   -0.1458   21.8279 H   0  0  0  0  0  0  0  0  0  0  0  0
    8.2927   -1.2481   23.0969 H   0  0  0  0  0  0  0  0  0  0  0  0
    8.0008   -2.5762   24.1870 H   0  0  0  0  0  0  0  0  0  0  0  0
   10.4024   -2.5358   23.2689 H   0  0  0  0  0  0  0  0  0  0  0  0
    9.7530   -2.8098   21.6567 H   0  0  0  0  0  0  0  0  0  0  0  0
    9.5589   -4.0556   22.9099 H   0  0  0  0  0  0  0  0  0  0  0  0
  1  2  1  0
  2  3  1  0
  3  4  1  0
  4  5  1  0
  5  6  1  0
  6  7  1  0
  7  8  1  0
  8  9  2  0
  8 10  1  0
  7 11  1  0
  7 12  1  0
  6 13  1  0
  6 14  1  0
  5 15  1  0
  5 16  1  0
  4 17  1  0
  4 18  1  0
  3 19  1  0
 19 20  2  0
 19 21  1  0
 21 22  1  0
 22 23  2  0
 23 24  1  0
 24 25  2  0
 25 26  1  0
 26 27  2  0
 27 28  1  0
 25 29  1  0
 24 30  1  0
 23 31  1  0
 21 32  1  0
 21 33  1  0
  2 34  1  0
  2 35  1  0
  1 36  1  0
  1 37  1  0
  1 38  1  0
 27 22  1  0
M  CHG  1  10  -1
M  END
>  <plip>  (1) 
-0.06896551724137931

>  <filename>  (1) 
[H][c]1[n][c]([H])[c]([C]([H])([H])[C](=[O])[N]([C]([H])([H])[C]([H])([H])[H])[C]([H])([H])[C]([H])([H])[C]([H])([H])[C]([H])([H])[C](=[O])[O-])[c]([H])[c]1[H]

$$$$
