
     RDKit          3D

 38 40  0  0  0  0  0  0  0  0999 V2000
    9.5219    2.0429   22.1150 C   0  0  0  0  0  0  0  0  0  0  0  0
    8.9379    1.0297   21.3264 O   0  0  0  0  0  0  0  0  0  0  0  0
    7.9866    0.2323   21.9999 C   0  0  0  0  0  0  0  0  0  0  0  0
    7.3708   -0.7667   21.0013 C   0  0  1  0  0  0  0  0  0  0  0  0
    6.5834   -1.7589   21.7410 N   0  0  0  0  0  0  0  0  0  0  0  0
    6.0523   -2.8776   21.1732 C   0  0  0  0  0  0  0  0  0  0  0  0
    6.2054   -3.1676   20.0010 O   0  0  0  0  0  0  0  0  0  0  0  0
    5.2640   -3.7672   22.0977 C   0  0  0  0  0  0  0  0  0  0  0  0
    4.6152   -3.5159   23.2708 C   0  0  0  0  0  0  0  0  0  0  0  0
    3.6036   -4.4865   23.5698 C   0  0  0  0  0  0  0  0  0  0  0  0
    3.6055   -5.5403   22.6285 C   0  0  0  0  0  0  0  0  0  0  0  0
    4.8683   -5.3567   21.4614 S   0  0  0  0  0  0  0  0  0  0  0  0
    2.6050   -6.5265   22.6973 C   0  0  0  0  0  0  0  0  0  0  0  0
    2.5337   -7.4720   21.7538 F   0  0  0  0  0  0  0  0  0  0  0  0
    1.6857   -6.5219   23.7374 C   0  0  0  0  0  0  0  0  0  0  0  0
    1.7216   -5.4840   24.7026 C   0  0  0  0  0  0  0  0  0  0  0  0
    2.6392   -4.4471   24.6037 C   0  0  0  0  0  0  0  0  0  0  0  0
    2.6023   -3.5827   25.2671 H   0  0  0  0  0  0  0  0  0  0  0  0
    0.9777   -5.4739   25.4967 H   0  0  0  0  0  0  0  0  0  0  0  0
    0.9602   -7.3306   23.7931 H   0  0  0  0  0  0  0  0  0  0  0  0
    4.8162   -2.7260   23.9929 H   0  0  0  0  0  0  0  0  0  0  0  0
    6.1407   -1.4692   22.5981 H   0  0  0  0  0  0  0  0  0  0  0  0
    6.5945   -0.0590   19.8930 C   0  0  0  0  0  0  0  0  0  0  0  0
    5.3944    0.6273   20.1236 C   0  0  0  0  0  0  0  0  0  0  0  0
    4.7900    1.3071   19.0645 C   0  0  0  0  0  0  0  0  0  0  0  0
    5.4137    1.2966   17.8113 C   0  0  0  0  0  0  0  0  0  0  0  0
    6.5681    0.6622   17.5657 N   0  0  0  0  0  0  0  0  0  0  0  0
    7.1307    0.0125   18.5975 C   0  0  0  0  0  0  0  0  0  0  0  0
    8.0797   -0.4773   18.3724 H   0  0  0  0  0  0  0  0  0  0  0  0
    4.9692    1.8299   16.9728 H   0  0  0  0  0  0  0  0  0  0  0  0
    3.8699    1.8629   19.2010 H   0  0  0  0  0  0  0  0  0  0  0  0
    4.9425    0.6430   21.1183 H   0  0  0  0  0  0  0  0  0  0  0  0
    8.2145   -1.2831   20.5284 H   0  0  0  0  0  0  0  0  0  0  0  0
    7.1853    0.8549   22.4424 H   0  0  0  0  0  0  0  0  0  0  0  0
    8.4624   -0.3397   22.8145 H   0  0  0  0  0  0  0  0  0  0  0  0
    8.7750    2.7574   22.4979 H   0  0  0  0  0  0  0  0  0  0  0  0
   10.2203    2.5889   21.4741 H   0  0  0  0  0  0  0  0  0  0  0  0
   10.0855    1.6371   22.9713 H   0  0  0  0  0  0  0  0  0  0  0  0
  1  2  1  0
  2  3  1  0
  3  4  1  0
  4  5  1  0
  5  6  1  0
  6  7  2  0
  6  8  1  0
  8  9  2  0
  9 10  1  0
 10 11  2  0
 11 12  1  0
 11 13  1  0
 13 14  1  0
 13 15  2  0
 15 16  1  0
 16 17  2  0
 17 18  1  0
 16 19  1  0
 15 20  1  0
  9 21  1  0
  5 22  1  0
  4 23  1  0
 23 24  2  0
 24 25  1  0
 25 26  2  0
 26 27  1  0
 27 28  2  0
 28 29  1  0
 26 30  1  0
 25 31  1  0
 24 32  1  0
  4 33  1  6
  3 34  1  0
  3 35  1  0
  1 36  1  0
  1 37  1  0
  1 38  1  0
 12  8  1  0
 28 23  1  0
 17 10  1  0
M  END
>  <plip>  (1) 
-0.1724137931034483

>  <filename>  (1) 
[H][c]1[n][c]([H])[c]([C@]([H])([N]([H])[C](=[O])[c]2[s][c]3[c]([F])[c]([H])[c]([H])[c]([H])[c]3[c]2[H])[C]([H])([H])[O][C]([H])([H])[H])[c]([H])[c]1[H]

$$$$
