
     RDKit          3D

 35 37  0  0  0  0  0  0  0  0999 V2000
    4.9216    1.7772   17.0006 H   0  0  0  0  0  0  0  0  0  0  0  0
    5.4051    1.2898   17.8448 C   0  0  0  0  0  0  0  0  0  0  0  0
    6.5704    0.6736   17.5914 N   0  0  0  0  0  0  0  0  0  0  0  0
    7.1722    0.0442   18.6043 C   0  0  0  0  0  0  0  0  0  0  0  0
    8.1204   -0.4369   18.3798 H   0  0  0  0  0  0  0  0  0  0  0  0
    6.6544   -0.0003   19.9062 C   0  0  0  0  0  0  0  0  0  0  0  0
    7.3799   -0.7030   20.9594 C   0  0  0  0  0  0  0  0  0  0  0  0
    8.0146   -1.9043   20.7533 N   0  0  0  0  0  0  0  0  0  0  0  0
    8.5344   -2.2413   21.8993 C   0  0  0  0  0  0  0  0  0  0  0  0
    9.0974   -3.1479   22.1002 H   0  0  0  0  0  0  0  0  0  0  0  0
    8.2937   -1.2956   22.8483 N   0  0  0  0  0  0  0  0  0  0  0  0
    8.6173   -1.3238   23.7987 H   0  0  0  0  0  0  0  0  0  0  0  0
    7.5426   -0.2949   22.2620 C   0  0  0  0  0  0  0  0  0  0  0  0
    7.1406    0.9586   22.9527 C   0  0  0  0  0  0  0  0  0  0  0  0
    7.0271    1.7641   22.2133 H   0  0  0  0  0  0  0  0  0  0  0  0
    7.9350    1.2964   23.6342 H   0  0  0  0  0  0  0  0  0  0  0  0
    5.8934    0.7819   23.6949 N   0  0  0  0  0  0  0  0  0  0  0  0
    5.4463   -0.1183   23.6584 H   0  0  0  0  0  0  0  0  0  0  0  0
    5.3148    1.8270   24.3517 C   0  0  0  0  0  0  0  0  0  0  0  0
    5.7833    2.9505   24.2357 O   0  0  0  0  0  0  0  0  0  0  0  0
    4.0949    1.5550   25.2181 C   0  0  0  0  0  0  0  0  0  0  0  0
    3.2075    2.6196   25.4930 C   0  0  0  0  0  0  0  0  0  0  0  0
    3.3956    3.6069   25.0738 H   0  0  0  0  0  0  0  0  0  0  0  0
    2.0916    2.4236   26.3092 C   0  0  0  0  0  0  0  0  0  0  0  0
    1.4080    3.2474   26.5065 H   0  0  0  0  0  0  0  0  0  0  0  0
    1.8486    1.1688   26.8797 C   0  0  0  0  0  0  0  0  0  0  0  0
    0.9766    1.0117   27.5126 H   0  0  0  0  0  0  0  0  0  0  0  0
    2.7370    0.1148   26.6377 C   0  0  0  0  0  0  0  0  0  0  0  0
    2.5612   -0.8624   27.0802 H   0  0  0  0  0  0  0  0  0  0  0  0
    3.8534    0.3058   25.8187 C   0  0  0  0  0  0  0  0  0  0  0  0
    4.5485   -0.5211   25.6740 H   0  0  0  0  0  0  0  0  0  0  0  0
    5.4372    0.6545   20.1574 C   0  0  0  0  0  0  0  0  0  0  0  0
    5.0000    0.6407   21.1595 H   0  0  0  0  0  0  0  0  0  0  0  0
    4.8030    1.3092   19.1068 C   0  0  0  0  0  0  0  0  0  0  0  0
    3.8737    1.8431   19.2597 H   0  0  0  0  0  0  0  0  0  0  0  0
  1  2  1  0
  2  3  2  0
  3  4  1  0
  4  5  1  0
  4  6  2  0
  6  7  1  0
  7  8  1  0
  8  9  2  0
  9 10  1  0
  9 11  1  0
 11 12  1  0
 11 13  1  0
 13 14  1  0
 14 15  1  0
 14 16  1  0
 14 17  1  0
 17 18  1  0
 17 19  1  0
 19 20  2  0
 19 21  1  0
 21 22  2  0
 22 23  1  0
 22 24  1  0
 24 25  1  0
 24 26  2  0
 26 27  1  0
 26 28  1  0
 28 29  1  0
 28 30  2  0
 30 31  1  0
  6 32  1  0
 32 33  1  0
 32 34  2  0
 34 35  1  0
 34  2  1  0
 13  7  2  0
 30 21  1  0
M  END
>  <plip>  (1) 
-0.06896551724137931

>  <filename>  (1) 
[H][c]1[n][c]([H])[c](-[c]2[n][c]([H])[n]([H])[c]2[C]([H])([H])[N]([H])[C](=[O])[c]2[c]([H])[c]([H])[c]([H])[c]([H])[c]2[H])[c]([H])[c]1[H]

$$$$
