
     RDKit          3D

 21 22  0  0  0  0  0  0  0  0999 V2000
    6.8883    0.5610   22.5255 H   0  0  0  0  0  0  0  0  0  0  0  0
    7.4119   -0.3427   22.2636 C   0  0  0  0  0  0  0  0  0  0  0  0
    7.3966   -0.7071   20.9756 C   0  0  0  0  0  0  0  0  0  0  0  0
    8.1067   -1.7536   20.5588 F   0  0  0  0  0  0  0  0  0  0  0  0
    6.6566   -0.0088   19.9070 C   0  0  0  0  0  0  0  0  0  0  0  0
    7.1755    0.0427   18.5972 C   0  0  0  0  0  0  0  0  0  0  0  0
    8.1263   -0.4327   18.3696 H   0  0  0  0  0  0  0  0  0  0  0  0
    6.5718    0.6748   17.5867 N   0  0  0  0  0  0  0  0  0  0  0  0
    5.4072    1.2888   17.8446 C   0  0  0  0  0  0  0  0  0  0  0  0
    4.9188    1.7766   17.0022 H   0  0  0  0  0  0  0  0  0  0  0  0
    4.8081    1.3081   19.1095 C   0  0  0  0  0  0  0  0  0  0  0  0
    3.8767    1.8428   19.2621 H   0  0  0  0  0  0  0  0  0  0  0  0
    5.4460    0.6533   20.1602 C   0  0  0  0  0  0  0  0  0  0  0  0
    5.0019    0.6303   21.1588 H   0  0  0  0  0  0  0  0  0  0  0  0
    8.1040   -1.0080   23.3431 C   0  0  0  0  0  0  0  0  0  0  0  0
    8.1080   -0.5170   24.5516 N   0  0  0  0  0  0  0  0  0  0  0  0
    8.8162   -1.3311   25.3912 C   0  0  0  0  0  0  0  0  0  0  0  0
    8.9161   -1.0640   26.4381 H   0  0  0  0  0  0  0  0  0  0  0  0
    9.3496   -2.4414   24.8257 C   0  0  0  0  0  0  0  0  0  0  0  0
    9.9368   -3.2042   25.3202 H   0  0  0  0  0  0  0  0  0  0  0  0
    8.9731   -2.5041   23.1599 S   0  0  0  0  0  0  0  0  0  0  0  0
  1  2  1  0
  2  3  2  3
  3  4  1  0
  3  5  1  0
  5  6  2  0
  6  7  1  0
  6  8  1  0
  8  9  2  0
  9 10  1  0
  9 11  1  0
 11 12  1  0
 11 13  2  0
 13 14  1  0
  2 15  1  0
 15 16  2  0
 16 17  1  0
 17 18  1  0
 17 19  2  0
 19 20  1  0
 19 21  1  0
 13  5  1  0
 21 15  1  0
M  END
>  <plip>  (1) 
-0.03571428571428571

>  <filename>  (1) 
[H][C](=[C]([F])[c]1[c]([H])[n][c]([H])[c]([H])[c]1[H])[c]1[n][c]([H])[c]([H])[s]1

$$$$
