
     RDKit          3D

 31 32  0  0  0  0  0  0  0  0999 V2000
    7.7883   -6.1426   27.5843 H   0  0  0  0  0  0  0  0  0  0  0  0
    7.1132   -5.8905   26.9444 O   0  0  0  0  0  0  0  0  0  0  0  0
    7.6846   -5.0700   25.9357 C   0  0  0  0  0  0  0  0  0  0  0  0
    8.0559   -4.1154   26.3450 H   0  0  0  0  0  0  0  0  0  0  0  0
    8.5354   -5.5587   25.4267 H   0  0  0  0  0  0  0  0  0  0  0  0
    6.6192   -4.7577   24.8743 C   0  0  0  0  0  0  0  0  0  0  0  0
    6.1982   -5.6988   24.4933 H   0  0  0  0  0  0  0  0  0  0  0  0
    5.7842   -4.2068   25.3362 H   0  0  0  0  0  0  0  0  0  0  0  0
    7.1181   -3.9693   23.7507 N   0  0  0  0  0  0  0  0  0  0  0  0
    7.9072   -4.4332   23.3046 H   0  0  0  0  0  0  0  0  0  0  0  0
    7.4887   -2.5835   24.0695 C   0  0  0  0  0  0  0  0  0  0  0  0
    8.3602   -2.4881   24.7431 H   0  0  0  0  0  0  0  0  0  0  0  0
    6.6387   -2.1267   24.6042 H   0  0  0  0  0  0  0  0  0  0  0  0
    7.8079   -1.8133   22.8260 C   0  0  0  0  0  0  0  0  0  0  0  0
    9.0211   -1.6224   22.2006 C   0  0  0  0  0  0  0  0  0  0  0  0
    9.9849   -1.9700   22.5703 H   0  0  0  0  0  0  0  0  0  0  0  0
    8.7784   -0.9130   20.9984 C   0  0  0  0  0  0  0  0  0  0  0  0
    9.5139   -0.5705   20.2747 H   0  0  0  0  0  0  0  0  0  0  0  0
    7.4254   -0.6746   20.9167 C   0  0  0  0  0  0  0  0  0  0  0  0
    6.6362    0.0130   19.8881 C   0  0  0  0  0  0  0  0  0  0  0  0
    7.1352    0.0732   18.5728 C   0  0  0  0  0  0  0  0  0  0  0  0
    8.0812   -0.4131   18.3416 H   0  0  0  0  0  0  0  0  0  0  0  0
    6.5343    0.6902   17.5492 N   0  0  0  0  0  0  0  0  0  0  0  0
    5.3738    1.3135   17.8064 C   0  0  0  0  0  0  0  0  0  0  0  0
    4.9160    1.8200   16.9573 H   0  0  0  0  0  0  0  0  0  0  0  0
    4.7764    1.3256   19.0732 C   0  0  0  0  0  0  0  0  0  0  0  0
    3.8466    1.8640   19.2185 H   0  0  0  0  0  0  0  0  0  0  0  0
    5.4109    0.6648   20.1296 C   0  0  0  0  0  0  0  0  0  0  0  0
    4.9785    0.6839   21.1314 H   0  0  0  0  0  0  0  0  0  0  0  0
    6.8510   -1.2156   22.0427 N   0  0  0  0  0  0  0  0  0  0  0  0
    5.8538   -1.2648   22.1871 H   0  0  0  0  0  0  0  0  0  0  0  0
  1  2  1  0
  2  3  1  0
  3  4  1  0
  3  5  1  0
  3  6  1  0
  6  7  1  0
  6  8  1  0
  6  9  1  0
  9 10  1  0
  9 11  1  0
 11 12  1  0
 11 13  1  0
 11 14  1  0
 14 15  2  0
 15 16  1  0
 15 17  1  0
 17 18  1  0
 17 19  2  0
 19 20  1  0
 20 21  2  0
 21 22  1  0
 21 23  1  0
 23 24  2  0
 24 25  1  0
 24 26  1  0
 26 27  1  0
 26 28  2  0
 28 29  1  0
 19 30  1  0
 30 31  1  0
 30 14  1  0
 28 20  1  0
M  END
>  <plip>  (1) 
-0.07142857142857142

>  <filename>  (1) 
[H][O][C]([H])([H])[C]([H])([H])[N]([H])[C]([H])([H])[c]1[c]([H])[c]([H])[c](-[c]2[c]([H])[n][c]([H])[c]([H])[c]2[H])[n]1[H]

$$$$
