
     RDKit          3D

 57 59  0  0  0  0  0  0  0  0999 V2000
   10.4950    0.5531   21.2807 C   0  0  0  0  0  0  0  0  0  0  0  0
    9.1430    0.9340   21.1360 O   0  0  0  0  0  0  0  0  0  0  0  0
    8.1986    0.2454   21.9272 C   0  0  0  0  0  0  0  0  0  0  0  0
    7.3761    1.1662   22.5782 O   0  0  0  0  0  0  0  0  0  0  0  0
    8.0173    1.9525   23.5675 C   0  0  0  0  0  0  0  0  0  0  0  0
    8.3517    1.3371   24.4164 H   0  0  0  0  0  0  0  0  0  0  0  0
    8.8765    2.5015   23.1629 H   0  0  0  0  0  0  0  0  0  0  0  0
    7.2780    2.6691   23.9337 H   0  0  0  0  0  0  0  0  0  0  0  0
    7.3599   -0.7237   21.0309 C   0  0  0  0  0  0  0  0  0  0  0  0
    6.5461   -1.6360   21.8575 N   0  0  0  0  0  0  0  0  0  0  0  0
    5.9208   -2.7387   21.3144 C   0  0  0  0  0  0  0  0  0  0  0  0
    6.0810   -3.0509   20.1476 O   0  0  0  0  0  0  0  0  0  0  0  0
    5.0141   -3.5549   22.2869 C   0  0  0  0  0  0  0  0  0  0  0  0
    4.7740   -3.1695   23.5391 N   0  0  0  0  0  0  0  0  0  0  0  0
    3.7900   -4.0064   23.9517 N   0  0  0  0  0  0  0  0  0  0  0  0
    3.1286   -3.8399   25.2158 C   0  0  0  0  0  0  0  0  0  0  0  0
    1.7331   -3.7289   25.2461 C   0  0  0  0  0  0  0  0  0  0  0  0
    1.0703   -3.5683   26.4634 C   0  0  0  0  0  0  0  0  0  0  0  0
    1.7979   -3.5152   27.6534 C   0  0  0  0  0  0  0  0  0  0  0  0
    3.1878   -3.6271   27.6170 C   0  0  0  0  0  0  0  0  0  0  0  0
    3.8842   -3.8090   26.4082 C   0  0  0  0  0  0  0  0  0  0  0  0
    5.4042   -3.9508   26.4265 C   0  0  0  0  0  0  0  0  0  0  0  0
    5.8818   -5.0420   27.3944 C   0  0  0  0  0  0  0  0  0  0  0  0
    5.3658   -5.9853   27.1803 H   0  0  0  0  0  0  0  0  0  0  0  0
    6.9563   -5.2064   27.2554 H   0  0  0  0  0  0  0  0  0  0  0  0
    5.7074   -4.7898   28.4475 H   0  0  0  0  0  0  0  0  0  0  0  0
    6.0623   -2.5899   26.6914 C   0  0  0  0  0  0  0  0  0  0  0  0
    7.1534   -2.6730   26.6361 H   0  0  0  0  0  0  0  0  0  0  0  0
    5.7934   -2.1894   27.6786 H   0  0  0  0  0  0  0  0  0  0  0  0
    5.7377   -1.8646   25.9351 H   0  0  0  0  0  0  0  0  0  0  0  0
    5.7203   -4.2723   25.4293 H   0  0  0  0  0  0  0  0  0  0  0  0
    3.7419   -3.5761   28.5523 H   0  0  0  0  0  0  0  0  0  0  0  0
    1.2827   -3.3936   28.6026 H   0  0  0  0  0  0  0  0  0  0  0  0
   -0.0113   -3.4866   26.4783 H   0  0  0  0  0  0  0  0  0  0  0  0
    1.1653   -3.7558   24.3206 H   0  0  0  0  0  0  0  0  0  0  0  0
    3.5508   -4.9223   22.9731 C   0  0  0  0  0  0  0  0  0  0  0  0
    2.5760   -6.0464   23.0373 C   0  0  0  0  0  0  0  0  0  0  0  0
    1.5593   -5.7023   22.8132 H   0  0  0  0  0  0  0  0  0  0  0  0
    2.5743   -6.4981   24.0314 H   0  0  0  0  0  0  0  0  0  0  0  0
    2.8602   -6.7869   22.2876 H   0  0  0  0  0  0  0  0  0  0  0  0
    4.3090   -4.6700   21.9364 N   0  0  0  0  0  0  0  0  0  0  0  0
    6.1272   -1.2634   22.7014 H   0  0  0  0  0  0  0  0  0  0  0  0
    6.5731   -0.0287   19.9184 C   0  0  0  0  0  0  0  0  0  0  0  0
    5.3667    0.6522   20.1305 C   0  0  0  0  0  0  0  0  0  0  0  0
    4.7735    1.3165   19.0534 C   0  0  0  0  0  0  0  0  0  0  0  0
    5.4054    1.2879   17.8054 C   0  0  0  0  0  0  0  0  0  0  0  0
    6.5543    0.6382   17.5757 N   0  0  0  0  0  0  0  0  0  0  0  0
    7.1065    0.0022   18.6198 C   0  0  0  0  0  0  0  0  0  0  0  0
    8.0490   -0.5026   18.4056 H   0  0  0  0  0  0  0  0  0  0  0  0
    4.9773    1.8224   16.9579 H   0  0  0  0  0  0  0  0  0  0  0  0
    3.8508    1.8718   19.1700 H   0  0  0  0  0  0  0  0  0  0  0  0
    4.9074    0.6912   21.1211 H   0  0  0  0  0  0  0  0  0  0  0  0
    8.1217   -1.3412   20.5435 H   0  0  0  0  0  0  0  0  0  0  0  0
    8.6994   -0.3918   22.6838 H   0  0  0  0  0  0  0  0  0  0  0  0
   10.7755    0.3708   22.3313 H   0  0  0  0  0  0  0  0  0  0  0  0
   10.7476   -0.3436   20.6935 H   0  0  0  0  0  0  0  0  0  0  0  0
   11.1001    1.3780   20.8898 H   0  0  0  0  0  0  0  0  0  0  0  0
  1  2  1  0
  2  3  1  0
  3  4  1  0
  4  5  1  0
  5  6  1  0
  5  7  1  0
  5  8  1  0
  3  9  1  0
  9 10  1  0
 10 11  1  0
 11 12  2  0
 11 13  1  0
 13 14  2  0
 14 15  1  0
 15 16  1  0
 16 17  2  0
 17 18  1  0
 18 19  2  0
 19 20  1  0
 20 21  2  0
 21 22  1  0
 22 23  1  0
 23 24  1  0
 23 25  1  0
 23 26  1  0
 22 27  1  0
 27 28  1  0
 27 29  1  0
 27 30  1  0
 22 31  1  0
 20 32  1  0
 19 33  1  0
 18 34  1  0
 17 35  1  0
 15 36  1  0
 36 37  1  0
 37 38  1  0
 37 39  1  0
 37 40  1  0
 36 41  2  0
 10 42  1  0
  9 43  1  0
 43 44  2  0
 44 45  1  0
 45 46  2  0
 46 47  1  0
 47 48  2  0
 48 49  1  0
 46 50  1  0
 45 51  1  0
 44 52  1  0
  9 53  1  0
  3 54  1  0
  1 55  1  0
  1 56  1  0
  1 57  1  0
 41 13  1  0
 48 43  1  0
 21 16  1  0
M  END
>  <plip>  (1) 
-0.13793103448275862

>  <filename>  (1) 
[H][c]1[n][c]([H])[c]([C]([H])([N]([H])[C](=[O])[c]2[n][c]([C]([H])([H])[H])[n](-[c]3[c]([H])[c]([H])[c]([H])[c]([H])[c]3[C]([H])([C]([H])([H])[H])[C]([H])([H])[H])[n]2)[C]([H])([O][C]([H])([H])[H])[O][C]([H])([H])[H])[c]([H])[c]1[H]

$$$$
