
     RDKit          3D

 49 51  0  0  0  0  0  0  0  0999 V2000
    6.2322    1.3583   29.1471 C   0  0  0  0  0  0  0  0  0  0  0  0
    5.8334   -0.1037   29.1811 C   0  0  0  0  0  0  0  0  0  0  0  0
    5.2555   -0.6561   30.3341 C   0  0  0  0  0  0  0  0  0  0  0  0
    4.8165   -1.9845   30.3813 C   0  0  0  0  0  0  0  0  0  0  0  0
    4.9014   -2.7793   29.2376 C   0  0  0  0  0  0  0  0  0  0  0  0
    5.4614   -2.2491   28.0720 C   0  0  0  0  0  0  0  0  0  0  0  0
    5.9843   -0.9445   28.0460 C   0  0  0  0  0  0  0  0  0  0  0  0
    6.6419   -0.4982   26.8839 N   0  0  0  0  0  0  0  0  0  0  0  0
    5.9568   -0.5867   25.6026 C   0  0  0  0  0  0  0  0  0  0  0  0
    6.6985    0.2149   24.5208 C   0  0  0  0  0  0  0  0  0  0  0  0
    8.1177   -0.1879   24.4152 N   0  0  0  0  0  0  0  0  0  0  0  0
    8.7527   -0.4974   23.2252 C   0  0  0  0  0  0  0  0  0  0  0  0
    9.6480   -1.3242   23.1638 O   0  0  0  0  0  0  0  0  0  0  0  0
    8.2175    0.2782   21.9398 C   0  0  0  0  0  0  0  0  0  0  0  0
    9.2673    1.0117   21.0049 N   0  0  0  0  0  4  0  0  0  0  0  0
    9.9828    0.3285   20.6720 H   0  0  0  0  0  0  0  0  0  0  0  0
    8.7140    1.3551   20.1925 H   0  0  0  0  0  0  0  0  0  0  0  0
    9.7363    1.8167   21.4603 H   0  0  0  0  0  0  0  0  0  0  0  0
    7.4154   -0.6757   21.0110 C   0  0  0  0  0  0  0  0  0  0  0  0
    6.6599    0.0136   19.8861 C   0  0  0  0  0  0  0  0  0  0  0  0
    5.4394    0.6678   20.1121 C   0  0  0  0  0  0  0  0  0  0  0  0
    4.8219    1.3435   19.0582 C   0  0  0  0  0  0  0  0  0  0  0  0
    5.4362    1.3355   17.8032 C   0  0  0  0  0  0  0  0  0  0  0  0
    6.5805    0.6824   17.5480 N   0  0  0  0  0  0  0  0  0  0  0  0
    7.1546    0.0312   18.5664 C   0  0  0  0  0  0  0  0  0  0  0  0
    8.0660   -0.5198   18.3225 H   0  0  0  0  0  0  0  0  0  0  0  0
    4.9878    1.8620   16.9622 H   0  0  0  0  0  0  0  0  0  0  0  0
    3.8829    1.8697   19.1920 H   0  0  0  0  0  0  0  0  0  0  0  0
    4.9729    0.6319   21.1010 H   0  0  0  0  0  0  0  0  0  0  0  0
    8.1114   -1.4097   20.5822 H   0  0  0  0  0  0  0  0  0  0  0  0
    6.7012   -1.2479   21.6157 H   0  0  0  0  0  0  0  0  0  0  0  0
    7.5722    1.0701   22.3261 H   0  0  0  0  0  0  0  0  0  0  0  0
    8.7945   -0.5294   25.6985 C   0  0  0  0  0  0  0  0  0  0  0  0
    8.0084    0.0114   26.9054 C   0  0  0  0  0  0  0  0  0  0  0  0
    8.5006   -0.3007   27.8330 H   0  0  0  0  0  0  0  0  0  0  0  0
    8.0394    1.1152   26.8768 H   0  0  0  0  0  0  0  0  0  0  0  0
    9.8065   -0.1084   25.7120 H   0  0  0  0  0  0  0  0  0  0  0  0
    8.8925   -1.6182   25.8013 H   0  0  0  0  0  0  0  0  0  0  0  0
    6.6319    1.2799   24.7820 H   0  0  0  0  0  0  0  0  0  0  0  0
    6.1773    0.0604   23.5726 H   0  0  0  0  0  0  0  0  0  0  0  0
    4.9414   -0.1807   25.7089 H   0  0  0  0  0  0  0  0  0  0  0  0
    5.8466   -1.6329   25.2713 H   0  0  0  0  0  0  0  0  0  0  0  0
    5.5504   -2.8427   27.1671 H   0  0  0  0  0  0  0  0  0  0  0  0
    4.5409   -3.8058   29.2470 H   0  0  0  0  0  0  0  0  0  0  0  0
    4.4089   -2.3894   31.3063 H   0  0  0  0  0  0  0  0  0  0  0  0
    5.1639   -0.0217   31.2142 H   0  0  0  0  0  0  0  0  0  0  0  0
    5.7369    1.9176   29.9477 H   0  0  0  0  0  0  0  0  0  0  0  0
    7.3144    1.5089   29.2633 H   0  0  0  0  0  0  0  0  0  0  0  0
    5.9366    1.8033   28.1895 H   0  0  0  0  0  0  0  0  0  0  0  0
  1  2  1  0
  2  3  2  0
  3  4  1  0
  4  5  2  0
  5  6  1  0
  6  7  2  0
  7  8  1  0
  8  9  1  0
  9 10  1  0
 10 11  1  0
 11 12  1  0
 12 13  2  0
 12 14  1  0
 14 15  1  0
 15 16  1  0
 15 17  1  0
 15 18  1  0
 14 19  1  0
 19 20  1  0
 20 21  2  0
 21 22  1  0
 22 23  2  0
 23 24  1  0
 24 25  2  0
 25 26  1  0
 23 27  1  0
 22 28  1  0
 21 29  1  0
 19 30  1  0
 19 31  1  0
 14 32  1  0
 11 33  1  0
 33 34  1  0
 34 35  1  0
 34 36  1  0
 33 37  1  0
 33 38  1  0
 10 39  1  0
 10 40  1  0
  9 41  1  0
  9 42  1  0
  6 43  1  0
  5 44  1  0
  4 45  1  0
  3 46  1  0
  1 47  1  0
  1 48  1  0
  1 49  1  0
  7  2  1  0
 34  8  1  0
 25 20  1  0
M  CHG  1  15   1
M  END
>  <plip>  (1) 
-0.06896551724137931

>  <filename>  (1) 
[H][c]1[n][c]([H])[c]([C]([H])([H])[C]([H])([C](=[O])[N]2[C]([H])([H])[C]([H])([H])[N]([c]3[c]([H])[c]([H])[c]([H])[c]([H])[c]3[C]([H])([H])[H])[C]([H])([H])[C]2([H])[H])[N+]([H])([H])[H])[c]([H])[c]1[H]

$$$$
