
     RDKit          3D

 27 28  0  0  0  0  0  0  0  0999 V2000
   11.1211    3.3463   22.3638 H   0  0  0  0  0  0  0  0  0  0  0  0
   11.2834    2.3135   22.1263 C   0  0  0  0  0  0  0  0  0  0  0  0
   11.4556    1.1462   21.8776 C   0  0  0  0  0  0  0  0  0  0  0  0
   11.6559   -0.2906   21.6000 C   0  0  0  0  0  0  0  0  0  0  0  0
   12.6597   -0.6019   21.8933 H   0  0  0  0  0  0  0  0  0  0  0  0
   11.5465   -0.5072   20.5319 H   0  0  0  0  0  0  0  0  0  0  0  0
   10.8158   -1.1570   22.3603 O   0  0  0  0  0  0  0  0  0  0  0  0
    9.4815   -1.2158   22.1265 C   0  0  0  0  0  0  0  0  0  0  0  0
    8.8035   -0.5587   21.1276 C   0  0  0  0  0  0  0  0  0  0  0  0
    9.3213    0.1214   20.4516 H   0  0  0  0  0  0  0  0  0  0  0  0
    7.3855   -0.7021   20.9722 C   0  0  0  0  0  0  0  0  0  0  0  0
    6.6502    0.0140   19.9018 C   0  0  0  0  0  0  0  0  0  0  0  0
    7.1645    0.0707   18.5932 C   0  0  0  0  0  0  0  0  0  0  0  0
    8.1118   -0.4186   18.3682 H   0  0  0  0  0  0  0  0  0  0  0  0
    6.5574    0.6805   17.5661 N   0  0  0  0  0  0  0  0  0  0  0  0
    5.3945    1.2996   17.8238 C   0  0  0  0  0  0  0  0  0  0  0  0
    4.9231    1.7952   16.9780 H   0  0  0  0  0  0  0  0  0  0  0  0
    4.7961    1.3199   19.0898 C   0  0  0  0  0  0  0  0  0  0  0  0
    3.8661    1.8525   19.2381 H   0  0  0  0  0  0  0  0  0  0  0  0
    5.4253    0.6559   20.1414 C   0  0  0  0  0  0  0  0  0  0  0  0
    4.9961    0.6586   21.1457 H   0  0  0  0  0  0  0  0  0  0  0  0
    6.7050   -1.5211   21.8312 C   0  0  0  0  0  0  0  0  0  0  0  0
    5.6375   -1.6840   21.7508 H   0  0  0  0  0  0  0  0  0  0  0  0
    7.3788   -2.1822   22.8163 N   0  0  0  0  0  0  0  0  0  0  0  0
    6.9553   -2.7797   23.5135 H   0  0  0  0  0  0  0  0  0  0  0  0
    8.7441   -2.1072   23.0808 C   0  0  0  0  0  0  0  0  0  0  0  0
    9.1555   -2.7599   24.0218 O   0  0  0  0  0  0  0  0  0  0  0  0
  1  2  1  0
  2  3  3  0
  3  4  1  0
  4  5  1  0
  4  6  1  0
  4  7  1  0
  7  8  1  0
  8  9  2  0
  9 10  1  0
  9 11  1  0
 11 12  1  0
 12 13  2  0
 13 14  1  0
 13 15  1  0
 15 16  2  0
 16 17  1  0
 16 18  1  0
 18 19  1  0
 18 20  2  0
 20 21  1  0
 11 22  2  0
 22 23  1  0
 22 24  1  0
 24 25  1  0
 24 26  1  0
 26 27  2  0
 26  8  1  0
 20 12  1  0
M  END
>  <plip>  (1) 
-0.07142857142857142

>  <filename>  (1) 
[H][C]#[C][C]([H])([H])[O][c]1[c]([H])[c](-[c]2[c]([H])[n][c]([H])[c]([H])[c]2[H])[c]([H])[n]([H])[c]1=[O]

$$$$
