
     RDKit          3D

 45 46  0  0  0  0  0  0  0  0999 V2000
    8.9191    0.4173   21.3958 C   0  0  0  0  0  0  0  0  0  0  0  0
    7.6075   -0.3618   21.1647 C   0  0  0  0  0  0  0  0  0  0  0  0
    7.9616   -1.8046   20.7265 C   0  0  0  0  0  0  0  0  0  0  0  0
    7.0812   -2.3217   20.3242 H   0  0  0  0  0  0  0  0  0  0  0  0
    8.3406   -2.3777   21.5767 H   0  0  0  0  0  0  0  0  0  0  0  0
    8.7580   -1.8064   19.9771 H   0  0  0  0  0  0  0  0  0  0  0  0
    6.8127   -0.4407   22.5071 C   0  0  0  0  0  0  0  0  0  0  0  0
    7.4734   -1.1217   23.6162 N   0  0  0  0  0  0  0  0  0  0  0  0
    8.3265   -0.5310   24.4863 C   0  0  0  0  0  0  0  0  0  0  0  0
    8.5752    0.6600   24.4689 O   0  0  0  0  0  0  0  0  0  0  0  0
    8.9410   -1.4528   25.5269 C   0  0  0  0  0  0  0  0  0  0  0  0
    8.2852   -1.2860   26.9089 C   0  0  0  0  0  0  0  0  0  0  0  0
    6.8119   -1.7305   26.9369 C   0  0  0  0  0  0  0  0  0  0  0  0
    6.6239   -3.2052   26.6569 C   0  0  0  0  0  0  0  0  0  0  0  0
    5.8282   -3.6850   25.6042 C   0  0  0  0  0  0  0  0  0  0  0  0
    5.6595   -5.0683   25.4499 C   0  0  0  0  0  0  0  0  0  0  0  0
    6.2999   -5.9172   26.3523 C   0  0  0  0  0  0  0  0  0  0  0  0
    7.0782   -5.3305   27.3527 C   0  0  0  0  0  0  0  0  0  0  0  0
    7.8727   -6.3561   28.5152 Cl  0  0  0  0  0  0  0  0  0  0  0  0
    7.2601   -4.0312   27.5029 N   0  0  0  0  0  0  0  0  0  0  0  0
    6.2172   -6.9966   26.3208 H   0  0  0  0  0  0  0  0  0  0  0  0
    5.0428   -5.4702   24.6442 H   0  0  0  0  0  0  0  0  0  0  0  0
    5.3426   -2.9747   24.9436 H   0  0  0  0  0  0  0  0  0  0  0  0
    6.2159   -1.1398   26.2283 H   0  0  0  0  0  0  0  0  0  0  0  0
    6.4003   -1.5378   27.9347 H   0  0  0  0  0  0  0  0  0  0  0  0
    8.8575   -1.8778   27.6341 H   0  0  0  0  0  0  0  0  0  0  0  0
    8.3575   -0.2381   27.2266 H   0  0  0  0  0  0  0  0  0  0  0  0
    9.9947   -1.1638   25.5711 H   0  0  0  0  0  0  0  0  0  0  0  0
    8.8942   -2.5016   25.2067 H   0  0  0  0  0  0  0  0  0  0  0  0
    7.3295   -2.1023   23.7570 H   0  0  0  0  0  0  0  0  0  0  0  0
    6.5669    0.5760   22.8313 H   0  0  0  0  0  0  0  0  0  0  0  0
    5.8938   -0.9791   22.2779 H   0  0  0  0  0  0  0  0  0  0  0  0
    6.7539    0.3116   20.0572 C   0  0  0  0  0  0  0  0  0  0  0  0
    5.4806    0.8823   20.2417 C   0  0  0  0  0  0  0  0  0  0  0  0
    4.7950    1.4154   19.1417 C   0  0  0  0  0  0  0  0  0  0  0  0
    5.3987    1.3775   17.8820 C   0  0  0  0  0  0  0  0  0  0  0  0
    6.6083    0.8430   17.6690 N   0  0  0  0  0  0  0  0  0  0  0  0
    7.2542    0.3467   18.7368 C   0  0  0  0  0  0  0  0  0  0  0  0
    8.2428   -0.0563   18.5269 H   0  0  0  0  0  0  0  0  0  0  0  0
    4.8964    1.7883   17.0063 H   0  0  0  0  0  0  0  0  0  0  0  0
    3.8132    1.8645   19.2550 H   0  0  0  0  0  0  0  0  0  0  0  0
    5.0179    0.9211   21.2281 H   0  0  0  0  0  0  0  0  0  0  0  0
    8.7231    1.3885   21.8623 H   0  0  0  0  0  0  0  0  0  0  0  0
    9.5781   -0.1478   22.0664 H   0  0  0  0  0  0  0  0  0  0  0  0
    9.4508    0.5794   20.4526 H   0  0  0  0  0  0  0  0  0  0  0  0
  1  2  1  0
  2  3  1  0
  3  4  1  0
  3  5  1  0
  3  6  1  0
  2  7  1  0
  7  8  1  0
  8  9  1  0
  9 10  2  0
  9 11  1  0
 11 12  1  0
 12 13  1  0
 13 14  1  0
 14 15  2  0
 15 16  1  0
 16 17  2  0
 17 18  1  0
 18 19  1  0
 18 20  2  0
 17 21  1  0
 16 22  1  0
 15 23  1  0
 13 24  1  0
 13 25  1  0
 12 26  1  0
 12 27  1  0
 11 28  1  0
 11 29  1  0
  8 30  1  0
  7 31  1  0
  7 32  1  0
  2 33  1  0
 33 34  2  0
 34 35  1  0
 35 36  2  0
 36 37  1  0
 37 38  2  0
 38 39  1  0
 36 40  1  0
 35 41  1  0
 34 42  1  0
  1 43  1  0
  1 44  1  0
  1 45  1  0
 20 14  1  0
 38 33  1  0
M  END
>  <plip>  (1) 
-0.07142857142857142

>  <filename>  (1) 
[H][c]1[n][c]([H])[c]([C]([C]([H])([H])[H])([C]([H])([H])[H])[C]([H])([H])[N]([H])[C](=[O])[C]([H])([H])[C]([H])([H])[C]([H])([H])[c]2[n][c]([Cl])[c]([H])[c]([H])[c]2[H])[c]([H])[c]1[H]

$$$$
