
     RDKit          3D

 36 37  0  0  0  0  0  0  0  0999 V2000
    6.3651   -5.5476   22.5058 F   0  0  0  0  0  0  0  0  0  0  0  0
    6.4613   -4.8777   23.6684 C   0  0  0  0  0  0  0  0  0  0  0  0
    5.7986   -5.6056   24.5895 F   0  0  0  0  0  0  0  0  0  0  0  0
    5.7793   -3.7324   23.5142 F   0  0  0  0  0  0  0  0  0  0  0  0
    7.9377   -4.6477   24.0687 C   0  0  0  0  0  0  0  0  0  0  0  0
    8.5518   -5.4585   25.0211 C   0  0  0  0  0  0  0  0  0  0  0  0
    9.9358   -5.3054   25.2393 C   0  0  0  0  0  0  0  0  0  0  0  0
   10.6125   -4.3020   24.5707 C   0  0  0  0  0  0  0  0  0  0  0  0
    9.8749   -3.4694   23.7086 C   0  0  0  0  0  0  0  0  0  0  0  0
   10.5229   -2.4166   23.1665 O   0  0  0  0  0  0  0  0  0  0  0  0
    9.9127   -1.6897   22.0833 C   0  0  0  0  0  0  0  0  0  0  0  0
    8.9814   -0.5583   22.5981 C   0  0  0  0  0  0  0  0  0  0  0  0
    8.1150    0.0475   21.5279 N   0  0  0  0  0  4  0  0  0  0  0  0
    7.0107   -0.8207   20.9456 C   0  0  0  0  0  0  0  0  0  0  0  0
    6.4223   -0.0095   19.8250 C   0  0  0  0  0  0  0  0  0  0  0  0
    5.2031    0.6720   19.9482 C   0  0  0  0  0  0  0  0  0  0  0  0
    4.7519    1.4615   18.8868 C   0  0  0  0  0  0  0  0  0  0  0  0
    5.5235    1.5236   17.7245 C   0  0  0  0  0  0  0  0  0  0  0  0
    6.6860    0.8700   17.5825 N   0  0  0  0  0  0  0  0  0  0  0  0
    7.1240    0.1439   18.6190 C   0  0  0  0  0  0  0  0  0  0  0  0
    8.0739   -0.3668   18.4421 H   0  0  0  0  0  0  0  0  0  0  0  0
    5.1944    2.1210   16.8734 H   0  0  0  0  0  0  0  0  0  0  0  0
    3.8403    2.0470   18.9513 H   0  0  0  0  0  0  0  0  0  0  0  0
    4.6236    0.5998   20.8695 H   0  0  0  0  0  0  0  0  0  0  0  0
    7.4362   -1.7663   20.5936 H   0  0  0  0  0  0  0  0  0  0  0  0
    6.2666   -1.0741   21.7122 H   0  0  0  0  0  0  0  0  0  0  0  0
    7.6004    0.9035   21.8520 H   0  0  0  0  0  0  0  0  0  0  0  0
    8.6950    0.3825   20.7202 H   0  0  0  0  0  0  0  0  0  0  0  0
    8.3579   -0.9796   23.3954 H   0  0  0  0  0  0  0  0  0  0  0  0
    9.5905    0.2221   23.0668 H   0  0  0  0  0  0  0  0  0  0  0  0
   10.7560   -1.2909   21.5046 H   0  0  0  0  0  0  0  0  0  0  0  0
    9.3442   -2.3887   21.4584 H   0  0  0  0  0  0  0  0  0  0  0  0
    8.5987   -3.6701   23.4130 N   0  0  0  0  0  0  0  0  0  0  0  0
   11.6737   -4.1249   24.6521 H   0  0  0  0  0  0  0  0  0  0  0  0
   10.4803   -5.9622   25.9210 H   0  0  0  0  0  0  0  0  0  0  0  0
    7.9792   -6.1708   25.5965 H   0  0  0  0  0  0  0  0  0  0  0  0
  1  2  1  0
  2  3  1  0
  2  4  1  0
  2  5  1  0
  5  6  2  0
  6  7  1  0
  7  8  2  0
  8  9  1  0
  9 10  1  0
 10 11  1  0
 11 12  1  0
 12 13  1  0
 13 14  1  0
 14 15  1  0
 15 16  2  0
 16 17  1  0
 17 18  2  0
 18 19  1  0
 19 20  2  0
 20 21  1  0
 18 22  1  0
 17 23  1  0
 16 24  1  0
 14 25  1  0
 14 26  1  0
 13 27  1  0
 13 28  1  0
 12 29  1  0
 12 30  1  0
 11 31  1  0
 11 32  1  0
  9 33  2  0
  8 34  1  0
  7 35  1  0
  6 36  1  0
 33  5  1  0
 20 15  1  0
M  CHG  1  13   1
M  END
>  <plip>  (1) 
-0.10344827586206896

>  <filename>  (1) 
[H][c]1[n][c]([H])[c]([C]([H])([H])[N+]([H])([H])[C]([H])([H])[C]([H])([H])[O][c]2[n][c]([C]([F])([F])[F])[c]([H])[c]([H])[c]2[H])[c]([H])[c]1[H]

$$$$
