
     RDKit          3D

 49 52  0  0  0  0  0  0  0  0999 V2000
    9.6647    1.1910   20.6431 O   0  0  0  0  0  0  0  0  0  0  0  0
    9.0141    1.3412   21.6622 C   0  0  0  0  0  0  0  0  0  0  0  0
    9.2320    2.5195   22.6001 C   0  0  0  0  0  0  0  0  0  0  0  0
    8.3214    3.7475   22.2956 C   0  0  0  0  0  0  0  0  0  0  0  0
    6.7902    3.4974   22.3766 C   0  0  0  0  0  0  0  0  0  0  0  0
    5.9811    4.7852   22.2253 C   0  0  0  0  0  0  0  0  0  0  0  0
    4.6731    4.8317   21.7146 C   0  0  0  0  0  0  0  0  0  0  0  0
    3.9422    6.0262   21.6528 C   0  0  0  0  0  0  0  0  0  0  0  0
    4.5239    7.2155   22.1113 C   0  0  0  0  0  0  0  0  0  0  0  0
    5.8295    7.2045   22.6029 C   0  0  0  0  0  0  0  0  0  0  0  0
    6.5480    6.0030   22.6434 C   0  0  0  0  0  0  0  0  0  0  0  0
    7.8650    6.0276   23.1061 N   0  0  0  0  0  0  0  0  0  0  0  0
    8.7810    5.0164   23.0502 C   0  0  0  0  0  0  0  0  0  0  0  0
    9.8913    5.2094   23.5041 O   0  0  0  0  0  0  0  0  0  0  0  0
    8.2629    6.8717   23.4759 H   0  0  0  0  0  0  0  0  0  0  0  0
    6.3172    8.1192   22.9298 H   0  0  0  0  0  0  0  0  0  0  0  0
    3.9661    8.1492   22.0747 H   0  0  0  0  0  0  0  0  0  0  0  0
    2.9387    6.0379   21.2311 H   0  0  0  0  0  0  0  0  0  0  0  0
    4.2161    3.9308   21.3098 H   0  0  0  0  0  0  0  0  0  0  0  0
    6.4985    2.7998   21.5788 H   0  0  0  0  0  0  0  0  0  0  0  0
    6.5161    3.0065   23.3251 H   0  0  0  0  0  0  0  0  0  0  0  0
    8.5070    4.0367   21.2571 H   0  0  0  0  0  0  0  0  0  0  0  0
    9.1229    2.1884   23.6396 H   0  0  0  0  0  0  0  0  0  0  0  0
   10.2785    2.8121   22.4727 H   0  0  0  0  0  0  0  0  0  0  0  0
    8.0201    0.5004   22.0368 N   0  0  0  0  0  0  0  0  0  0  0  0
    7.4373   -0.5207   21.1807 C   0  0  0  0  0  0  0  0  0  0  0  0
    6.6791    0.1307   20.0143 C   0  0  0  0  0  0  0  0  0  0  0  0
    5.4219    0.7352   20.1723 C   0  0  0  0  0  0  0  0  0  0  0  0
    4.7990    1.3244   19.0647 C   0  0  0  0  0  0  0  0  0  0  0  0
    5.4437    1.2884   17.8246 C   0  0  0  0  0  0  0  0  0  0  0  0
    6.6363    0.7109   17.6425 N   0  0  0  0  0  0  0  0  0  0  0  0
    7.2256    0.1671   18.7201 C   0  0  0  0  0  0  0  0  0  0  0  0
    8.1973   -0.2856   18.5301 H   0  0  0  0  0  0  0  0  0  0  0  0
    4.9837    1.7399   16.9458 H   0  0  0  0  0  0  0  0  0  0  0  0
    3.8347    1.8163   19.1447 H   0  0  0  0  0  0  0  0  0  0  0  0
    4.9312    0.7666   21.1481 H   0  0  0  0  0  0  0  0  0  0  0  0
    8.5246   -1.5108   20.7392 C   0  0  0  0  0  0  0  0  0  0  0  0
    8.7662   -2.4915   21.8883 C   0  0  0  0  0  0  0  0  0  0  0  0
    7.4171   -2.5677   22.6375 C   0  0  0  0  0  0  0  0  0  0  0  0
    6.5388   -1.4375   22.0410 C   0  0  0  0  0  0  0  0  0  0  0  0
    6.0528   -0.8487   22.8205 H   0  0  0  0  0  0  0  0  0  0  0  0
    5.7627   -1.8710   21.3995 H   0  0  0  0  0  0  0  0  0  0  0  0
    6.9249   -3.5390   22.5045 H   0  0  0  0  0  0  0  0  0  0  0  0
    7.5619   -2.4365   23.7145 H   0  0  0  0  0  0  0  0  0  0  0  0
    9.0501   -3.4654   21.4833 H   0  0  0  0  0  0  0  0  0  0  0  0
    9.5752   -2.1574   22.5530 H   0  0  0  0  0  0  0  0  0  0  0  0
    8.0282   -2.0425   19.9389 H   0  0  0  0  0  0  0  0  0  0  0  0
    9.4225   -0.9945   20.3899 H   0  0  0  0  0  0  0  0  0  0  0  0
    7.5853    0.6862   22.9189 H   0  0  0  0  0  0  0  0  0  0  0  0
  1  2  2  0
  2  3  1  0
  3  4  1  0
  4  5  1  0
  5  6  1  0
  6  7  2  0
  7  8  1  0
  8  9  2  0
  9 10  1  0
 10 11  2  0
 11 12  1  0
 12 13  1  0
 13 14  2  0
 12 15  1  0
 10 16  1  0
  9 17  1  0
  8 18  1  0
  7 19  1  0
  5 20  1  0
  5 21  1  0
  4 22  1  0
  3 23  1  0
  3 24  1  0
  2 25  1  0
 25 26  1  0
 26 27  1  0
 27 28  2  0
 28 29  1  0
 29 30  2  0
 30 31  1  0
 31 32  2  0
 32 33  1  0
 30 34  1  0
 29 35  1  0
 28 36  1  0
 26 37  1  0
 37 38  1  0
 38 39  1  0
 39 40  1  0
 40 41  1  0
 40 42  1  0
 39 43  1  0
 39 44  1  0
 38 45  1  0
 38 46  1  0
 37 47  1  0
 37 48  1  0
 25 49  1  0
 13  4  1  0
 40 26  1  0
 11  6  1  0
 32 27  1  0
M  END
>  <plip>  (1) 
-0.07142857142857142

>  <filename>  (1) 
[H][c]1[n][c]([H])[c]([C]2([N]([H])[C](=[O])[C]([H])([H])[C]3([H])[C](=[O])[N]([H])[c]4[c]([H])[c]([H])[c]([H])[c]([H])[c]4[C]3([H])[H])[C]([H])([H])[C]([H])([H])[C]([H])([H])[C]2([H])[H])[c]([H])[c]1[H]

$$$$
