
     RDKit          3D

 26 27  0  0  0  0  0  0  0  0999 V2000
    8.1153   -1.9914   20.7387 O   0  0  0  0  0  0  0  0  0  0  0  0
    7.5771   -0.7194   21.1828 S   0  0  0  0  0  0  0  0  0  0  0  0
    6.9323   -0.5788   22.4629 O   0  0  0  0  0  0  0  0  0  0  0  0
    8.9437    0.1847   21.0985 N   0  0  0  0  0  0  0  0  0  0  0  0
    8.8808    1.4048   21.7374 C   0  0  0  0  0  0  0  0  0  0  0  0
    7.7622    2.0682   21.8806 N   0  0  0  0  0  0  0  0  0  0  0  0
    8.1473    3.2971   22.3755 N   0  0  0  0  0  0  0  0  0  0  0  0
    7.2152    4.4009   22.6689 C   0  0  0  0  0  0  0  0  0  0  0  0
    7.7016    5.5553   22.1609 F   0  0  0  0  0  0  0  0  0  0  0  0
    7.0904    4.5914   23.9993 F   0  0  0  0  0  0  0  0  0  0  0  0
    6.0062    4.1804   22.1560 F   0  0  0  0  0  0  0  0  0  0  0  0
    9.5108    3.3406   22.5216 C   0  0  0  0  0  0  0  0  0  0  0  0
   10.0141    2.1243   22.1530 C   0  0  0  0  0  0  0  0  0  0  0  0
   11.0372    1.7746   22.1186 H   0  0  0  0  0  0  0  0  0  0  0  0
    9.9846    4.2765   22.7917 H   0  0  0  0  0  0  0  0  0  0  0  0
    9.5801   -0.4868   21.4719 H   0  0  0  0  0  0  0  0  0  0  0  0
    6.6484    0.0657   19.9771 C   0  0  0  0  0  0  0  0  0  0  0  0
    5.4359    0.7064   20.2261 C   0  0  0  0  0  0  0  0  0  0  0  0
    4.8328    1.3123   19.1267 C   0  0  0  0  0  0  0  0  0  0  0  0
    5.4737    1.2626   17.8835 C   0  0  0  0  0  0  0  0  0  0  0  0
    6.6496    0.6468   17.6842 N   0  0  0  0  0  0  0  0  0  0  0  0
    7.2382    0.0665   18.7259 C   0  0  0  0  0  0  0  0  0  0  0  0
    8.1857   -0.4328   18.5279 H   0  0  0  0  0  0  0  0  0  0  0  0
    5.0199    1.7308   17.0104 H   0  0  0  0  0  0  0  0  0  0  0  0
    3.8866    1.8315   19.2189 H   0  0  0  0  0  0  0  0  0  0  0  0
    5.0083    0.7547   21.2327 H   0  0  0  0  0  0  0  0  0  0  0  0
  1  2  2  0
  2  3  2  0
  2  4  1  0
  4  5  1  0
  5  6  2  0
  6  7  1  0
  7  8  1  0
  8  9  1  0
  8 10  1  0
  8 11  1  0
  7 12  1  0
 12 13  2  0
 13 14  1  0
 12 15  1  0
  4 16  1  0
  2 17  1  0
 17 18  2  0
 18 19  1  0
 19 20  2  0
 20 21  1  0
 21 22  2  0
 22 23  1  0
 20 24  1  0
 19 25  1  0
 18 26  1  0
 13  5  1  0
 22 17  1  0
M  END
>  <plip>  (1) 
-0.06451612903225806

>  <filename>  (1) 
[H][c]1[n][c]([H])[c]([S](=[O])(=[O])[N]([H])[c]2[n][n]([C]([F])([F])[F])[c]([H])[c]2[H])[c]([H])[c]1[H]

$$$$
