
     RDKit          3D

 40 42  0  0  0  0  0  0  0  0999 V2000
    4.9212    1.8174   16.9740 H   0  0  0  0  0  0  0  0  0  0  0  0
    5.3794    1.3044   17.8197 C   0  0  0  0  0  0  0  0  0  0  0  0
    6.5377    0.6789   17.5640 N   0  0  0  0  0  0  0  0  0  0  0  0
    7.1385    0.0527   18.5821 C   0  0  0  0  0  0  0  0  0  0  0  0
    8.0969   -0.4131   18.3530 H   0  0  0  0  0  0  0  0  0  0  0  0
    6.6244   -0.0141   19.8903 C   0  0  0  0  0  0  0  0  0  0  0  0
    7.4172   -0.7009   20.9995 C   0  0  0  0  0  0  0  0  0  0  0  0
    6.8060   -0.7967   21.9023 H   0  0  0  0  0  0  0  0  0  0  0  0
    7.7152   -1.7176   20.7185 H   0  0  0  0  0  0  0  0  0  0  0  0
    8.6809    0.0341   21.3360 C   0  0  0  0  0  0  0  0  0  0  0  0
    9.8838   -0.3850   21.0507 N   0  0  0  0  0  0  0  0  0  0  0  0
   10.7654    0.6165   21.3688 N   0  0  0  0  0  0  0  0  0  0  0  0
   10.0671    1.6088   21.8325 C   0  0  0  0  0  0  0  0  0  0  0  0
   10.4699    2.5547   22.1660 H   0  0  0  0  0  0  0  0  0  0  0  0
    8.7295    1.3075   21.8632 N   0  0  0  0  0  0  0  0  0  0  0  0
    7.6691    2.1719   22.2955 C   0  0  0  0  0  0  0  0  0  0  0  0
    7.6230    3.4765   21.8019 C   0  0  0  0  0  0  0  0  0  0  0  0
    8.4606    3.8268   21.2023 H   0  0  0  0  0  0  0  0  0  0  0  0
    6.5366    4.3186   22.0742 C   0  0  0  0  0  0  0  0  0  0  0  0
    6.4469    5.2757   21.5683 H   0  0  0  0  0  0  0  0  0  0  0  0
    5.5422    3.9018   22.9706 C   0  0  0  0  0  0  0  0  0  0  0  0
    4.4628    4.6344   23.3743 O   0  0  0  0  0  0  0  0  0  0  0  0
    4.2663    5.9979   22.9678 C   0  0  0  0  0  0  0  0  0  0  0  0
    4.4275    6.0644   21.8808 H   0  0  0  0  0  0  0  0  0  0  0  0
    2.8097    6.3390   23.2760 C   0  0  0  0  0  0  0  0  0  0  0  0
    2.5896    7.3687   22.9640 H   0  0  0  0  0  0  0  0  0  0  0  0
    2.1198    5.6674   22.7541 H   0  0  0  0  0  0  0  0  0  0  0  0
    2.6195    6.2605   24.3539 H   0  0  0  0  0  0  0  0  0  0  0  0
    5.2138    6.9483   23.6990 C   0  0  0  0  0  0  0  0  0  0  0  0
    5.0057    7.9789   23.3881 H   0  0  0  0  0  0  0  0  0  0  0  0
    6.2656    6.7367   23.4843 H   0  0  0  0  0  0  0  0  0  0  0  0
    5.0619    6.8778   24.7826 H   0  0  0  0  0  0  0  0  0  0  0  0
    5.6383    2.6195   23.5463 C   0  0  0  0  0  0  0  0  0  0  0  0
    4.8891    2.3587   24.2874 H   0  0  0  0  0  0  0  0  0  0  0  0
    6.6805    1.7569   23.2036 C   0  0  0  0  0  0  0  0  0  0  0  0
    6.7595    0.7798   23.6762 H   0  0  0  0  0  0  0  0  0  0  0  0
    5.4224    0.6579   20.1356 C   0  0  0  0  0  0  0  0  0  0  0  0
    5.0190    0.6761   21.1490 H   0  0  0  0  0  0  0  0  0  0  0  0
    4.7791    1.3220   19.0823 C   0  0  0  0  0  0  0  0  0  0  0  0
    3.8487    1.8648   19.2189 H   0  0  0  0  0  0  0  0  0  0  0  0
  1  2  1  0
  2  3  2  0
  3  4  1  0
  4  5  1  0
  4  6  2  0
  6  7  1  0
  7  8  1  0
  7  9  1  0
  7 10  1  0
 10 11  2  0
 11 12  1  0
 12 13  2  0
 13 14  1  0
 13 15  1  0
 15 16  1  0
 16 17  2  0
 17 18  1  0
 17 19  1  0
 19 20  1  0
 19 21  2  0
 21 22  1  0
 22 23  1  0
 23 24  1  0
 23 25  1  0
 25 26  1  0
 25 27  1  0
 25 28  1  0
 23 29  1  0
 29 30  1  0
 29 31  1  0
 29 32  1  0
 21 33  1  0
 33 34  1  0
 33 35  2  0
 35 36  1  0
  6 37  1  0
 37 38  1  0
 37 39  2  0
 39 40  1  0
 39  2  1  0
 15 10  1  0
 35 16  1  0
M  END
>  <plip>  (1) 
-0.07142857142857142

>  <filename>  (1) 
[H][c]1[n][c]([H])[c]([C]([H])([H])[c]2[n][n][c]([H])[n]2-[c]2[c]([H])[c]([H])[c]([O][C]([H])([C]([H])([H])[H])[C]([H])([H])[H])[c]([H])[c]2[H])[c]([H])[c]1[H]

$$$$
