
     RDKit          3D

 38 40  0  0  0  0  0  0  0  0999 V2000
    2.6569   -4.9318   25.1060 C   0  0  0  0  0  0  0  0  0  0  0  0
    3.8060   -4.5902   25.2322 C   0  0  0  0  0  0  0  0  0  0  0  0
    5.1853   -4.2191   25.4171 C   0  0  0  0  0  0  0  0  0  0  0  0
    5.6944   -3.1604   24.6582 C   0  0  0  0  0  0  0  0  0  0  0  0
    7.0238   -2.7366   24.7980 C   0  0  0  0  0  0  0  0  0  0  0  0
    7.5405   -1.6695   24.0902 N   0  0  0  0  0  0  0  0  0  0  0  0
    6.8410   -0.9592   23.0613 C   0  0  0  0  0  0  0  0  0  0  0  0
    7.6824    0.0626   22.2743 C   0  0  0  0  0  0  0  0  0  0  0  0
    7.4186   -0.7236   20.9563 C   0  0  0  0  0  0  0  0  0  0  0  0
    6.6735    0.0119   19.8827 C   0  0  0  0  0  0  0  0  0  0  0  0
    5.4514    0.6541   20.1380 C   0  0  0  0  0  0  0  0  0  0  0  0
    4.8098    1.3114   19.0936 C   0  0  0  0  0  0  0  0  0  0  0  0
    5.3942    1.2994   17.8227 C   0  0  0  0  0  0  0  0  0  0  0  0
    6.5583    0.6847   17.5524 N   0  0  0  0  0  0  0  0  0  0  0  0
    7.1684    0.0696   18.5715 C   0  0  0  0  0  0  0  0  0  0  0  0
    8.1177   -0.4150   18.3374 H   0  0  0  0  0  0  0  0  0  0  0  0
    4.9125    1.7950   16.9856 H   0  0  0  0  0  0  0  0  0  0  0  0
    3.8789    1.8384   19.2547 H   0  0  0  0  0  0  0  0  0  0  0  0
    5.0174    0.6347   21.1413 H   0  0  0  0  0  0  0  0  0  0  0  0
    6.5761   -1.7608   21.7540 C   0  0  0  0  0  0  0  0  0  0  0  0
    5.5294   -1.8316   21.4464 H   0  0  0  0  0  0  0  0  0  0  0  0
    6.9795   -2.7770   21.7875 H   0  0  0  0  0  0  0  0  0  0  0  0
    8.3422   -1.1554   20.5583 H   0  0  0  0  0  0  0  0  0  0  0  0
    7.2623    1.0711   22.2720 H   0  0  0  0  0  0  0  0  0  0  0  0
    8.7249    0.1556   22.5933 H   0  0  0  0  0  0  0  0  0  0  0  0
    5.9541   -0.4848   23.4967 H   0  0  0  0  0  0  0  0  0  0  0  0
    8.5079   -1.4551   24.2458 H   0  0  0  0  0  0  0  0  0  0  0  0
    7.8536   -3.4111   25.7086 C   0  0  0  0  0  0  0  0  0  0  0  0
    7.3418   -4.4683   26.4627 C   0  0  0  0  0  0  0  0  0  0  0  0
    6.0113   -4.8983   26.3458 C   0  0  0  0  0  0  0  0  0  0  0  0
    5.4879   -6.0471   27.1845 C   0  0  0  0  0  0  0  0  0  0  0  0
    6.2587   -6.4564   27.8444 H   0  0  0  0  0  0  0  0  0  0  0  0
    5.1117   -6.8581   26.5516 H   0  0  0  0  0  0  0  0  0  0  0  0
    4.6396   -5.7300   27.8011 H   0  0  0  0  0  0  0  0  0  0  0  0
    7.9917   -4.9796   27.1704 H   0  0  0  0  0  0  0  0  0  0  0  0
    8.8906   -3.0990   25.8188 H   0  0  0  0  0  0  0  0  0  0  0  0
    5.0457   -2.6651   23.9524 H   0  0  0  0  0  0  0  0  0  0  0  0
    1.6363   -5.2133   24.9764 H   0  0  0  0  0  0  0  0  0  0  0  0
  1  2  3  0
  2  3  1  0
  3  4  2  0
  4  5  1  0
  5  6  1  0
  6  7  1  0
  7  8  1  0
  8  9  1  0
  9 10  1  0
 10 11  2  0
 11 12  1  0
 12 13  2  0
 13 14  1  0
 14 15  2  0
 15 16  1  0
 13 17  1  0
 12 18  1  0
 11 19  1  0
  9 20  1  0
 20 21  1  0
 20 22  1  0
  9 23  1  0
  8 24  1  0
  8 25  1  0
  7 26  1  0
  6 27  1  0
  5 28  2  0
 28 29  1  0
 29 30  2  0
 30 31  1  0
 31 32  1  0
 31 33  1  0
 31 34  1  0
 29 35  1  0
 28 36  1  0
  4 37  1  0
  1 38  1  0
 30  3  1  0
 20  7  1  0
 15 10  1  0
M  END
>  <plip>  (1) 
-0.03571428571428571

>  <filename>  (1) 
[H][C]#[C][c]1[c]([H])[c]([N]([H])[C]2([H])[C]([H])([H])[C]([H])([c]3[c]([H])[n][c]([H])[c]([H])[c]3[H])[C]2([H])[H])[c]([H])[c]([H])[c]1[C]([H])([H])[H]

$$$$
