
     RDKit          3D

 43 46  0  0  0  0  0  0  0  0999 V2000
    7.7055    2.0248   21.5652 O   0  0  0  0  0  0  0  0  0  0  0  0
    8.7141    1.3595   21.4184 C   0  0  0  0  0  0  0  0  0  0  0  0
   10.0485    2.0535   21.2622 C   0  0  0  0  0  0  0  0  0  0  0  0
   10.5068    2.7035   22.4562 N   0  0  0  0  0  0  0  0  0  0  0  0
   11.5284    2.2042   23.1738 N   0  0  0  0  0  0  0  0  0  0  0  0
   11.8311    3.0225   24.1191 N   0  0  0  0  0  0  0  0  0  0  0  0
   10.9912    4.1057   24.0341 C   0  0  0  0  0  0  0  0  0  0  0  0
   10.9356    5.2969   24.7928 C   0  0  0  0  0  0  0  0  0  0  0  0
   10.0415    6.2671   24.3845 C   0  0  0  0  0  0  0  0  0  0  0  0
    9.1772    6.0568   23.2668 C   0  0  0  0  0  0  0  0  0  0  0  0
    9.1622    4.8581   22.5653 C   0  0  0  0  0  0  0  0  0  0  0  0
   10.1133    3.9007   22.9604 C   0  0  0  0  0  0  0  0  0  0  0  0
    8.4765    4.6278   21.7528 H   0  0  0  0  0  0  0  0  0  0  0  0
    8.5226    6.8614   22.9506 H   0  0  0  0  0  0  0  0  0  0  0  0
    9.9893    7.2100   24.9255 H   0  0  0  0  0  0  0  0  0  0  0  0
   11.5944    5.4167   25.6475 H   0  0  0  0  0  0  0  0  0  0  0  0
    9.8462    2.8442   20.5538 H   0  0  0  0  0  0  0  0  0  0  0  0
   10.8290    1.3962   20.8751 H   0  0  0  0  0  0  0  0  0  0  0  0
    8.7510   -0.0180   21.2557 N   0  0  0  0  0  0  0  0  0  0  0  0
    9.6692   -0.8035   22.1020 C   0  0  0  0  0  0  0  0  0  0  0  0
    9.0000   -1.1530   23.4427 C   0  0  0  0  0  0  0  0  0  0  0  0
    7.6412   -1.8458   23.2201 C   0  0  0  0  0  0  0  0  0  0  0  0
    6.7477   -1.0300   22.2683 C   0  0  0  0  0  0  0  0  0  0  0  0
    7.4773   -0.7212   20.9532 C   0  0  1  0  0  0  0  0  0  0  0  0
    6.6397   -0.0180   19.8909 C   0  0  0  0  0  0  0  0  0  0  0  0
    5.4117    0.6248   20.1149 C   0  0  0  0  0  0  0  0  0  0  0  0
    4.7848    1.2904   19.0569 C   0  0  0  0  0  0  0  0  0  0  0  0
    5.4063    1.2890   17.8062 C   0  0  0  0  0  0  0  0  0  0  0  0
    6.5727    0.6727   17.5631 N   0  0  0  0  0  0  0  0  0  0  0  0
    7.1675    0.0560   18.5948 C   0  0  0  0  0  0  0  0  0  0  0  0
    8.1264   -0.4122   18.3634 H   0  0  0  0  0  0  0  0  0  0  0  0
    4.9533    1.8155   16.9682 H   0  0  0  0  0  0  0  0  0  0  0  0
    3.8539    1.8302   19.1989 H   0  0  0  0  0  0  0  0  0  0  0  0
    4.9667    0.6524   21.1111 H   0  0  0  0  0  0  0  0  0  0  0  0
    7.7980   -1.6876   20.5240 H   0  0  0  0  0  0  0  0  0  0  0  0
    5.8281   -1.5711   22.0190 H   0  0  0  0  0  0  0  0  0  0  0  0
    6.4717   -0.0788   22.7426 H   0  0  0  0  0  0  0  0  0  0  0  0
    7.8009   -2.8439   22.7867 H   0  0  0  0  0  0  0  0  0  0  0  0
    7.1273   -1.9945   24.1782 H   0  0  0  0  0  0  0  0  0  0  0  0
    9.6789   -1.7695   24.0480 H   0  0  0  0  0  0  0  0  0  0  0  0
    8.8390   -0.2217   24.0045 H   0  0  0  0  0  0  0  0  0  0  0  0
    9.9459   -1.7182   21.5579 H   0  0  0  0  0  0  0  0  0  0  0  0
   10.5945   -0.2418   22.2739 H   0  0  0  0  0  0  0  0  0  0  0  0
  1  2  2  0
  2  3  1  0
  3  4  1  0
  4  5  1  0
  5  6  2  0
  6  7  1  0
  7  8  2  0
  8  9  1  0
  9 10  2  0
 10 11  1  0
 11 12  2  0
 11 13  1  0
 10 14  1  0
  9 15  1  0
  8 16  1  0
  3 17  1  0
  3 18  1  0
  2 19  1  0
 19 20  1  0
 20 21  1  0
 21 22  1  0
 22 23  1  0
 23 24  1  0
 24 25  1  0
 25 26  2  0
 26 27  1  0
 27 28  2  0
 28 29  1  0
 29 30  2  0
 30 31  1  0
 28 32  1  0
 27 33  1  0
 26 34  1  0
 24 35  1  6
 23 36  1  0
 23 37  1  0
 22 38  1  0
 22 39  1  0
 21 40  1  0
 21 41  1  0
 20 42  1  0
 20 43  1  0
 12  4  1  0
 24 19  1  0
 30 25  1  0
 12  7  1  0
M  END
>  <plip>  (1) 
-0.10714285714285714

>  <filename>  (1) 
[H][c]1[n][c]([H])[c]([C@@]2([H])[N]([C](=[O])[C]([H])([H])[n]3[n][n][c]4[c]([H])[c]([H])[c]([H])[c]([H])[c]43)[C]([H])([H])[C]([H])([H])[C]([H])([H])[C]2([H])[H])[c]([H])[c]1[H]

$$$$
