
     RDKit          3D

 29 30  0  0  0  0  0  0  0  0999 V2000
   11.4489    1.3615   22.6049 C   0  0  0  0  0  0  0  0  0  0  0  0
    9.9582    1.6793   22.5040 C   0  0  0  0  0  0  0  0  0  0  0  0
    9.1585    1.2937   23.6637 N   0  0  0  0  0  0  0  0  0  0  0  0
    8.1984    0.3770   23.3078 C   0  0  0  0  0  0  0  0  0  0  0  0
    7.5645   -0.3239   24.0586 O   0  0  0  0  0  0  0  0  0  0  0  0
    8.1005    0.3687   21.9309 N   0  0  0  0  0  0  0  0  0  0  0  0
    7.2656   -0.6052   21.2241 C   0  0  2  0  0  0  0  0  0  0  0  0
    8.0961   -1.8404   20.8765 C   0  0  0  0  0  0  0  0  0  0  0  0
    8.5896   -2.2037   21.7846 H   0  0  0  0  0  0  0  0  0  0  0  0
    8.8836   -1.5830   20.1625 H   0  0  0  0  0  0  0  0  0  0  0  0
    7.4507   -2.6217   20.4621 H   0  0  0  0  0  0  0  0  0  0  0  0
    6.5909    0.0693   20.0515 C   0  0  0  0  0  0  0  0  0  0  0  0
    5.3681    0.7369   20.2121 C   0  0  0  0  0  0  0  0  0  0  0  0
    4.7737    1.3353   19.0983 C   0  0  0  0  0  0  0  0  0  0  0  0
    5.4334    1.2614   17.8648 C   0  0  0  0  0  0  0  0  0  0  0  0
    6.6150    0.6527   17.6958 N   0  0  0  0  0  0  0  0  0  0  0  0
    7.1726    0.0873   18.7755 C   0  0  0  0  0  0  0  0  0  0  0  0
    8.1456   -0.3705   18.6207 H   0  0  0  0  0  0  0  0  0  0  0  0
    5.0073    1.7274   16.9788 H   0  0  0  0  0  0  0  0  0  0  0  0
    3.8323    1.8727   19.1720 H   0  0  0  0  0  0  0  0  0  0  0  0
    4.8978    0.7995   21.1981 H   0  0  0  0  0  0  0  0  0  0  0  0
    6.4807   -0.9073   21.9322 H   0  0  0  0  0  0  0  0  0  0  0  0
    9.2208    0.9396   21.3815 C   0  0  0  0  0  0  0  0  0  0  0  0
    9.5597    0.8217   20.2295 O   0  0  0  0  0  0  0  0  0  0  0  0
    9.5630    1.0599   24.5586 H   0  0  0  0  0  0  0  0  0  0  0  0
    9.8403    2.7546   22.3050 H   0  0  0  0  0  0  0  0  0  0  0  0
   11.9085    1.8641   23.4641 H   0  0  0  0  0  0  0  0  0  0  0  0
   11.9514    1.7278   21.7053 H   0  0  0  0  0  0  0  0  0  0  0  0
   11.6289    0.2846   22.6896 H   0  0  0  0  0  0  0  0  0  0  0  0
  1  2  1  0
  2  3  1  0
  3  4  1  0
  4  5  2  0
  4  6  1  0
  6  7  1  0
  7  8  1  0
  8  9  1  0
  8 10  1  0
  8 11  1  0
  7 12  1  0
 12 13  2  0
 13 14  1  0
 14 15  2  0
 15 16  1  0
 16 17  2  0
 17 18  1  0
 15 19  1  0
 14 20  1  0
 13 21  1  0
  7 22  1  1
  6 23  1  0
 23 24  2  0
  3 25  1  0
  2 26  1  0
  1 27  1  0
  1 28  1  0
  1 29  1  0
 23  2  1  0
 17 12  1  0
M  END
>  <plip>  (1) 
-0.03571428571428571

>  <filename>  (1) 
[H][c]1[n][c]([H])[c]([C@]([H])([N]2[C](=[O])[N]([H])[C]([H])([C]([H])([H])[H])[C]2=[O])[C]([H])([H])[H])[c]([H])[c]1[H]

$$$$
