
     RDKit          3D

 31 33  0  0  0  0  0  0  0  0999 V2000
    5.0871    1.7723   16.8373 H   0  0  0  0  0  0  0  0  0  0  0  0
    5.4940    1.2944   17.7282 C   0  0  0  0  0  0  0  0  0  0  0  0
    6.6515    0.6429   17.5569 N   0  0  0  0  0  0  0  0  0  0  0  0
    7.1773    0.0378   18.6239 C   0  0  0  0  0  0  0  0  0  0  0  0
    8.1117   -0.4972   18.4672 H   0  0  0  0  0  0  0  0  0  0  0  0
    6.5889    0.0475   19.9032 C   0  0  0  0  0  0  0  0  0  0  0  0
    7.2860   -0.6556   20.9628 C   0  0  0  0  0  0  0  0  0  0  0  0
    8.4105   -1.2636   20.7244 N   0  0  0  0  0  0  0  0  0  0  0  0
    8.8151   -1.8365   21.8837 N   0  0  0  0  0  0  0  0  0  0  0  0
   10.0936   -2.3896   21.7977 N   0  0  0  0  0  0  0  0  0  0  0  0
   10.1701   -3.1684   22.4404 H   0  0  0  0  0  0  0  0  0  0  0  0
   11.1020   -1.3554   22.0429 C   0  0  0  0  0  0  0  0  0  0  0  0
   10.9003   -0.8405   23.0031 H   0  0  0  0  0  0  0  0  0  0  0  0
   10.9859   -0.6095   21.2430 H   0  0  0  0  0  0  0  0  0  0  0  0
   12.5022   -1.9125   22.0288 C   0  0  0  0  0  0  0  0  0  0  0  0
   12.5824   -2.8515   22.5737 H   0  0  0  0  0  0  0  0  0  0  0  0
   13.6601   -0.9478   22.0615 C   0  0  0  0  0  0  0  0  0  0  0  0
   14.5367   -1.1943   22.6538 H   0  0  0  0  0  0  0  0  0  0  0  0
   13.4376    0.1178   22.0732 H   0  0  0  0  0  0  0  0  0  0  0  0
   13.3898   -1.7582   20.8257 C   0  0  0  0  0  0  0  0  0  0  0  0
   12.9642   -1.2945   19.9439 H   0  0  0  0  0  0  0  0  0  0  0  0
   14.1092   -2.5307   20.5772 H   0  0  0  0  0  0  0  0  0  0  0  0
    8.0176   -1.5146   22.9956 C   0  0  0  0  0  0  0  0  0  0  0  0
    8.2349   -1.7589   24.1627 O   0  0  0  0  0  0  0  0  0  0  0  0
    6.8331   -0.8229   22.3730 C   0  0  0  0  0  0  0  0  0  0  0  0
    5.9846   -1.5104   22.4256 H   0  0  0  0  0  0  0  0  0  0  0  0
    6.5641    0.0849   22.9213 H   0  0  0  0  0  0  0  0  0  0  0  0
    5.3697    0.7271   20.0656 C   0  0  0  0  0  0  0  0  0  0  0  0
    4.8559    0.7644   21.0283 H   0  0  0  0  0  0  0  0  0  0  0  0
    4.8174    1.3603   18.9504 C   0  0  0  0  0  0  0  0  0  0  0  0
    3.8815    1.9033   19.0051 H   0  0  0  0  0  0  0  0  0  0  0  0
  1  2  1  0
  2  3  2  0
  3  4  1  0
  4  5  1  0
  4  6  2  0
  6  7  1  0
  7  8  2  0
  8  9  1  0
  9 10  1  0
 10 11  1  0
 10 12  1  0
 12 13  1  0
 12 14  1  0
 12 15  1  0
 15 16  1  0
 15 17  1  0
 17 18  1  0
 17 19  1  0
 17 20  1  0
 20 21  1  0
 20 22  1  0
  9 23  1  0
 23 24  2  0
 23 25  1  0
 25 26  1  0
 25 27  1  0
  6 28  1  0
 28 29  1  0
 28 30  2  0
 30 31  1  0
 30  2  1  0
 25  7  1  0
 20 15  1  0
M  END
>  <plip>  (1) 
-0.10344827586206896

>  <filename>  (1) 
[H][c]1[n][c]([H])[c]([C]2=[N][N]([N]([H])[C]([H])([H])[C]3([H])[C]([H])([H])[C]3([H])[H])[C](=[O])[C]2([H])[H])[c]([H])[c]1[H]

$$$$
