
     RDKit          3D

 31 34  0  0  0  0  0  0  0  0999 V2000
    4.9333    1.7733   17.0013 H   0  0  0  0  0  0  0  0  0  0  0  0
    5.4101    1.2847   17.8463 C   0  0  0  0  0  0  0  0  0  0  0  0
    6.5741    0.6648   17.5972 N   0  0  0  0  0  0  0  0  0  0  0  0
    7.1773    0.0523   18.6205 C   0  0  0  0  0  0  0  0  0  0  0  0
    8.1245   -0.4317   18.3870 H   0  0  0  0  0  0  0  0  0  0  0  0
    6.6416    0.0177   19.9171 C   0  0  0  0  0  0  0  0  0  0  0  0
    7.3623   -0.6862   20.9721 C   0  0  0  0  0  0  0  0  0  0  0  0
    8.5459   -1.3212   20.7518 N   0  0  0  0  0  0  0  0  0  0  0  0
    8.8064   -1.8180   21.9397 C   0  0  0  0  0  0  0  0  0  0  0  0
   10.0074   -2.8153   22.7190 S   0  0  0  0  0  0  0  0  0  0  0  0
    9.0819   -2.7708   24.1976 C   0  0  0  0  0  0  0  0  0  0  0  0
    9.4325   -3.3145   25.0632 H   0  0  0  0  0  0  0  0  0  0  0  0
    7.9542   -2.0384   24.1038 C   0  0  0  0  0  0  0  0  0  0  0  0
    6.9057   -1.8194   25.1577 C   0  0  2  0  0  0  0  0  0  0  0  0
    6.0966   -2.5396   24.9836 H   0  0  0  0  0  0  0  0  0  0  0  0
    6.2831   -0.4113   25.2086 C   0  0  0  0  0  0  0  0  0  0  0  0
    7.0164    0.3465   24.9024 H   0  0  0  0  0  0  0  0  0  0  0  0
    5.4181   -0.3082   24.5470 H   0  0  0  0  0  0  0  0  0  0  0  0
    5.8842   -0.1973   26.5512 O   0  0  0  0  0  0  0  0  0  0  0  0
    6.4641   -1.1470   27.4336 C   0  0  0  0  0  0  0  0  0  0  0  0
    5.6654   -1.7647   27.8713 H   0  0  0  0  0  0  0  0  0  0  0  0
    6.9623   -0.6078   28.2507 H   0  0  0  0  0  0  0  0  0  0  0  0
    7.4337   -1.9857   26.6007 C   0  0  0  0  0  0  0  0  0  0  0  0
    8.4497   -1.5791   26.6758 H   0  0  0  0  0  0  0  0  0  0  0  0
    7.4670   -3.0293   26.9295 H   0  0  0  0  0  0  0  0  0  0  0  0
    7.8385   -1.5006   22.8236 N   0  0  0  0  0  0  0  0  0  0  0  0
    6.8864   -0.7554   22.2127 N   0  0  0  0  0  0  0  0  0  0  0  0
    5.4203    0.6608   20.1691 C   0  0  0  0  0  0  0  0  0  0  0  0
    4.9903    0.6403   21.1756 H   0  0  0  0  0  0  0  0  0  0  0  0
    4.8038    1.3103   19.1069 C   0  0  0  0  0  0  0  0  0  0  0  0
    3.8739    1.8433   19.2538 H   0  0  0  0  0  0  0  0  0  0  0  0
  1  2  1  0
  2  3  2  0
  3  4  1  0
  4  5  1  0
  4  6  2  0
  6  7  1  0
  7  8  1  0
  8  9  2  0
  9 10  1  0
 10 11  1  0
 11 12  1  0
 11 13  2  0
 13 14  1  0
 14 15  1  6
 14 16  1  0
 16 17  1  0
 16 18  1  0
 16 19  1  0
 19 20  1  0
 20 21  1  0
 20 22  1  0
 20 23  1  0
 23 24  1  0
 23 25  1  0
 13 26  1  0
 26 27  1  0
  6 28  1  0
 28 29  1  0
 28 30  2  0
 30 31  1  0
 30  2  1  0
 27  7  2  0
 26  9  1  0
 23 14  1  0
M  END
>  <plip>  (1) 
-0.07142857142857142

>  <filename>  (1) 
[H][c]1[n][c]([H])[c](-[c]2[n][c]3[s][c]([H])[c]([C@]4([H])[C]([H])([H])[O][C]([H])([H])[C]4([H])[H])[n]3[n]2)[c]([H])[c]1[H]

$$$$
