
     RDKit          3D

 49 51  0  0  0  0  0  0  0  0999 V2000
    9.8076    2.1188   22.2871 C   0  0  0  0  0  0  0  0  0  0  0  0
    8.5024    1.4326   21.9165 C   0  0  0  0  0  0  0  0  0  0  0  0
    8.7223    0.0365   21.3348 C   0  0  0  0  0  0  0  0  0  0  0  0
    7.4064   -0.6776   21.0081 C   0  0  0  0  0  0  0  0  0  0  0  0
    7.6151   -2.1276   20.6283 N   0  0  0  0  0  4  0  0  0  0  0  0
    7.2629   -3.0995   21.6934 C   0  0  0  0  0  0  0  0  0  0  0  0
    8.1898   -3.0154   22.9147 C   0  0  0  0  0  0  0  0  0  0  0  0
    7.8603   -4.0796   23.8983 C   0  0  0  0  0  0  0  0  0  0  0  0
    8.4258   -5.3139   24.0049 C   0  0  0  0  0  0  0  0  0  0  0  0
    7.7785   -6.0220   24.9933 N   0  0  0  0  0  0  0  0  0  0  0  0
    6.7584   -5.2622   25.5078 C   0  0  0  0  0  0  0  0  0  0  0  0
    5.8143   -5.5580   26.5105 C   0  0  0  0  0  0  0  0  0  0  0  0
    5.8331   -6.8931   27.1916 C   0  0  0  0  0  0  0  0  0  0  0  0
    5.0622   -6.9814   27.9630 H   0  0  0  0  0  0  0  0  0  0  0  0
    5.6809   -7.6885   26.4575 H   0  0  0  0  0  0  0  0  0  0  0  0
    6.8080   -7.0727   27.6576 H   0  0  0  0  0  0  0  0  0  0  0  0
    4.8893   -4.5643   26.8180 C   0  0  0  0  0  0  0  0  0  0  0  0
    4.8896   -3.3089   26.1556 C   0  0  0  0  0  0  0  0  0  0  0  0
    5.8257   -3.0335   25.1705 C   0  0  0  0  0  0  0  0  0  0  0  0
    6.7797   -4.0165   24.8410 C   0  0  0  0  0  0  0  0  0  0  0  0
    5.8366   -2.0778   24.6508 H   0  0  0  0  0  0  0  0  0  0  0  0
    4.1491   -2.5590   26.4283 H   0  0  0  0  0  0  0  0  0  0  0  0
    4.1475   -4.7650   27.5930 H   0  0  0  0  0  0  0  0  0  0  0  0
    7.9771   -6.9661   25.2708 H   0  0  0  0  0  0  0  0  0  0  0  0
    9.2394   -5.7422   23.4307 H   0  0  0  0  0  0  0  0  0  0  0  0
    8.0904   -2.0323   23.3942 H   0  0  0  0  0  0  0  0  0  0  0  0
    9.2331   -3.1081   22.5915 H   0  0  0  0  0  0  0  0  0  0  0  0
    6.2370   -2.9176   22.0463 H   0  0  0  0  0  0  0  0  0  0  0  0
    7.2782   -4.1199   21.3072 H   0  0  0  0  0  0  0  0  0  0  0  0
    7.0584   -2.2704   19.7556 H   0  0  0  0  0  0  0  0  0  0  0  0
    8.6364   -2.2270   20.4040 H   0  0  0  0  0  0  0  0  0  0  0  0
    6.6415   -0.0150   19.9003 C   0  0  0  0  0  0  0  0  0  0  0  0
    5.4326    0.6493   20.1544 C   0  0  0  0  0  0  0  0  0  0  0  0
    4.8033    1.3116   19.1003 C   0  0  0  0  0  0  0  0  0  0  0  0
    5.4052    1.2903   17.8376 C   0  0  0  0  0  0  0  0  0  0  0  0
    6.5644    0.6669   17.5810 N   0  0  0  0  0  0  0  0  0  0  0  0
    7.1600    0.0343   18.6000 C   0  0  0  0  0  0  0  0  0  0  0  0
    8.1202   -0.4218   18.3563 H   0  0  0  0  0  0  0  0  0  0  0  0
    4.9288    1.7838   16.9928 H   0  0  0  0  0  0  0  0  0  0  0  0
    3.8740    1.8482   19.2508 H   0  0  0  0  0  0  0  0  0  0  0  0
    5.0032    0.6380   21.1624 H   0  0  0  0  0  0  0  0  0  0  0  0
    6.7804   -0.6786   21.9038 H   0  0  0  0  0  0  0  0  0  0  0  0
    9.3296    0.1098   20.4228 H   0  0  0  0  0  0  0  0  0  0  0  0
    9.2970   -0.5799   22.0377 H   0  0  0  0  0  0  0  0  0  0  0  0
    7.9398    2.0452   21.2001 H   0  0  0  0  0  0  0  0  0  0  0  0
    7.8617    1.3603   22.8045 H   0  0  0  0  0  0  0  0  0  0  0  0
    9.6345    3.1137   22.7059 H   0  0  0  0  0  0  0  0  0  0  0  0
   10.4530    2.2336   21.4109 H   0  0  0  0  0  0  0  0  0  0  0  0
   10.3618    1.5343   23.0291 H   0  0  0  0  0  0  0  0  0  0  0  0
  1  2  1  0
  2  3  1  0
  3  4  1  0
  4  5  1  0
  5  6  1  0
  6  7  1  0
  7  8  1  0
  8  9  2  0
  9 10  1  0
 10 11  1  0
 11 12  2  0
 12 13  1  0
 13 14  1  0
 13 15  1  0
 13 16  1  0
 12 17  1  0
 17 18  2  0
 18 19  1  0
 19 20  2  0
 19 21  1  0
 18 22  1  0
 17 23  1  0
 10 24  1  0
  9 25  1  0
  7 26  1  0
  7 27  1  0
  6 28  1  0
  6 29  1  0
  5 30  1  0
  5 31  1  0
  4 32  1  0
 32 33  2  0
 33 34  1  0
 34 35  2  0
 35 36  1  0
 36 37  2  0
 37 38  1  0
 35 39  1  0
 34 40  1  0
 33 41  1  0
  4 42  1  0
  3 43  1  0
  3 44  1  0
  2 45  1  0
  2 46  1  0
  1 47  1  0
  1 48  1  0
  1 49  1  0
 20  8  1  0
 37 32  1  0
 20 11  1  0
M  CHG  1   5   1
M  END
>  <plip>  (1) 
-0.10344827586206896

>  <filename>  (1) 
[H][c]1[n][c]([H])[c]([C]([H])([C]([H])([H])[C]([H])([H])[C]([H])([H])[H])[N+]([H])([H])[C]([H])([H])[C]([H])([H])[c]2[c]([H])[n]([H])[c]3[c]([C]([H])([H])[H])[c]([H])[c]([H])[c]([H])[c]23)[c]([H])[c]1[H]

$$$$
