
     RDKit          3D

 33 35  0  0  0  0  0  0  0  0999 V2000
    4.9230    1.8134   16.9604 H   0  0  0  0  0  0  0  0  0  0  0  0
    5.3803    1.3180   17.8146 C   0  0  0  0  0  0  0  0  0  0  0  0
    6.5439    0.6962   17.5740 N   0  0  0  0  0  0  0  0  0  0  0  0
    7.1451    0.0881   18.6018 C   0  0  0  0  0  0  0  0  0  0  0  0
    8.0978   -0.3871   18.3802 H   0  0  0  0  0  0  0  0  0  0  0  0
    6.6215    0.0457   19.9054 C   0  0  0  0  0  0  0  0  0  0  0  0
    7.3580   -0.6992   20.9971 C   0  0  2  0  0  0  0  0  0  0  0  0
    6.9465   -0.3981   21.9763 H   0  0  0  0  0  0  0  0  0  0  0  0
    8.7803   -0.4855   20.9321 N   0  0  0  0  0  0  0  0  0  0  0  0
    9.2767    0.3538   21.1544 H   0  0  0  0  0  0  0  0  0  0  0  0
    9.5150   -1.6194   21.0704 C   0  0  0  0  0  0  0  0  0  0  0  0
   10.6964   -1.6936   21.2695 O   0  0  0  0  0  0  0  0  0  0  0  0
    8.6782   -2.6790   20.9434 O   0  0  0  0  0  0  0  0  0  0  0  0
    7.3132   -2.2497   20.8640 C   0  0  1  0  0  0  0  0  0  0  0  0
    6.9327   -2.5074   19.8696 H   0  0  0  0  0  0  0  0  0  0  0  0
    6.5020   -3.0238   21.9072 C   0  0  0  0  0  0  0  0  0  0  0  0
    5.4768   -2.6370   21.9127 H   0  0  0  0  0  0  0  0  0  0  0  0
    6.4531   -4.0645   21.5613 H   0  0  0  0  0  0  0  0  0  0  0  0
    7.1187   -2.9629   23.2912 C   0  0  0  0  0  0  0  0  0  0  0  0
    8.2218   -3.7790   23.6018 C   0  0  0  0  0  0  0  0  0  0  0  0
    8.6085   -4.4557   22.8448 H   0  0  0  0  0  0  0  0  0  0  0  0
    8.8482   -3.6873   24.8471 C   0  0  0  0  0  0  0  0  0  0  0  0
    9.7062   -4.3219   25.0663 H   0  0  0  0  0  0  0  0  0  0  0  0
    8.3909   -2.7714   25.8025 C   0  0  0  0  0  0  0  0  0  0  0  0
    8.8444   -2.6619   26.7813 H   0  0  0  0  0  0  0  0  0  0  0  0
    7.3098   -1.9594   25.4769 C   0  0  0  0  0  0  0  0  0  0  0  0
    6.8569   -1.0690   26.3779 F   0  0  0  0  0  0  0  0  0  0  0  0
    6.6784   -2.0310   24.2394 C   0  0  0  0  0  0  0  0  0  0  0  0
    5.8742   -1.3293   24.0490 H   0  0  0  0  0  0  0  0  0  0  0  0
    5.3985    0.6908   20.1352 C   0  0  0  0  0  0  0  0  0  0  0  0
    4.9579    0.6875   21.1318 H   0  0  0  0  0  0  0  0  0  0  0  0
    4.7665    1.3405   19.0704 C   0  0  0  0  0  0  0  0  0  0  0  0
    3.8280    1.8690   19.1980 H   0  0  0  0  0  0  0  0  0  0  0  0
  1  2  1  0
  2  3  2  0
  3  4  1  0
  4  5  1  0
  4  6  2  0
  6  7  1  0
  7  8  1  1
  7  9  1  0
  9 10  1  0
  9 11  1  0
 11 12  2  0
 11 13  1  0
 13 14  1  0
 14 15  1  6
 14 16  1  0
 16 17  1  0
 16 18  1  0
 16 19  1  0
 19 20  2  0
 20 21  1  0
 20 22  1  0
 22 23  1  0
 22 24  2  0
 24 25  1  0
 24 26  1  0
 26 27  1  0
 26 28  2  0
 28 29  1  0
  6 30  1  0
 30 31  1  0
 30 32  2  0
 32 33  1  0
 32  2  1  0
 14  7  1  0
 28 19  1  0
M  END
>  <plip>  (1) 
-0.03571428571428571

>  <filename>  (1) 
[H][c]1[n][c]([H])[c]([C@]2([H])[N]([H])[C](=[O])[O][C@@]2([H])[C]([H])([H])[c]2[c]([H])[c]([H])[c]([H])[c]([F])[c]2[H])[c]([H])[c]1[H]

$$$$
