
     RDKit          3D

 25 26  0  0  0  0  0  0  0  0999 V2000
    4.9788    1.8553   16.9357 H   0  0  0  0  0  0  0  0  0  0  0  0
    5.3896    1.3093   17.7840 C   0  0  0  0  0  0  0  0  0  0  0  0
    6.5481    0.6655   17.5675 N   0  0  0  0  0  0  0  0  0  0  0  0
    7.1052    0.0349   18.6089 C   0  0  0  0  0  0  0  0  0  0  0  0
    8.0506   -0.4707   18.4120 H   0  0  0  0  0  0  0  0  0  0  0  0
    6.5302   -0.0110   19.8863 C   0  0  0  0  0  0  0  0  0  0  0  0
    7.4221   -0.8033   21.2197 S   0  0  0  0  0  0  0  0  0  0  0  0
    8.4458    0.4730   21.6615 N   0  0  0  0  0  0  0  0  0  0  0  0
    8.2114    0.8791   22.5575 H   0  0  0  0  0  0  0  0  0  0  0  0
    9.8682    0.4164   21.3307 C   0  0  2  0  0  0  0  0  0  0  0  0
    9.9132    0.0181   20.3138 H   0  0  0  0  0  0  0  0  0  0  0  0
   10.7694   -0.4179   22.2712 C   0  0  0  0  0  0  0  0  0  0  0  0
   11.5542   -0.9112   21.6819 H   0  0  0  0  0  0  0  0  0  0  0  0
   10.2173   -1.1857   22.8285 H   0  0  0  0  0  0  0  0  0  0  0  0
   11.3980    0.4715   23.1817 O   0  0  0  0  0  0  0  0  0  0  0  0
   11.1224    1.8213   22.8448 C   0  0  0  0  0  0  0  0  0  0  0  0
   10.4288    2.2551   23.5795 H   0  0  0  0  0  0  0  0  0  0  0  0
   12.0651    2.3806   22.9071 H   0  0  0  0  0  0  0  0  0  0  0  0
   10.5164    1.8064   21.4376 C   0  0  0  0  0  0  0  0  0  0  0  0
    9.7774    2.5949   21.2754 H   0  0  0  0  0  0  0  0  0  0  0  0
   11.3120    1.9151   20.6926 H   0  0  0  0  0  0  0  0  0  0  0  0
    5.3097    0.6498   20.0962 C   0  0  0  0  0  0  0  0  0  0  0  0
    4.8513    0.6668   21.0834 H   0  0  0  0  0  0  0  0  0  0  0  0
    4.7298    1.3250   19.0177 C   0  0  0  0  0  0  0  0  0  0  0  0
    3.8044    1.8855   19.1335 H   0  0  0  0  0  0  0  0  0  0  0  0
  1  2  1  0
  2  3  2  0
  3  4  1  0
  4  5  1  0
  4  6  2  0
  6  7  1  0
  7  8  1  0
  8  9  1  0
  8 10  1  0
 10 11  1  6
 10 12  1  0
 12 13  1  0
 12 14  1  0
 12 15  1  0
 15 16  1  0
 16 17  1  0
 16 18  1  0
 16 19  1  0
 19 20  1  0
 19 21  1  0
  6 22  1  0
 22 23  1  0
 22 24  2  0
 24 25  1  0
 24  2  1  0
 19 10  1  0
M  END
>  <plip>  (1) 
-0.07142857142857142

>  <filename>  (1) 
[H][c]1[n][c]([H])[c]([S][N]([H])[C@]2([H])[C]([H])([H])[O][C]([H])([H])[C]2([H])[H])[c]([H])[c]1[H]

$$$$
