
     RDKit          3D

 32 34  0  0  0  0  0  0  0  0999 V2000
    4.9547    1.8310   16.9688 H   0  0  0  0  0  0  0  0  0  0  0  0
    5.4033    1.3054   17.8087 C   0  0  0  0  0  0  0  0  0  0  0  0
    6.5608    0.6735   17.5594 N   0  0  0  0  0  0  0  0  0  0  0  0
    7.1443    0.0434   18.5866 C   0  0  0  0  0  0  0  0  0  0  0  0
    8.0864   -0.4589   18.3576 H   0  0  0  0  0  0  0  0  0  0  0  0
    6.6243   -0.0030   19.8904 C   0  0  0  0  0  0  0  0  0  0  0  0
    7.4157   -0.6922   20.9882 C   0  0  2  0  0  0  0  0  0  0  0  0
    8.2353   -1.2352   20.4956 H   0  0  0  0  0  0  0  0  0  0  0  0
    6.6387   -1.6587   21.7741 N   0  0  0  0  0  0  0  0  0  0  0  0
    6.1943   -2.8431   21.1651 C   0  0  0  0  0  0  0  0  0  0  0  0
    5.6666   -3.0036   19.8978 C   0  0  0  0  0  0  0  0  0  0  0  0
    5.3819   -2.1943   19.2483 H   0  0  0  0  0  0  0  0  0  0  0  0
    5.6056   -4.3933   19.7183 C   0  0  0  0  0  0  0  0  0  0  0  0
    5.2956   -4.9661   18.8513 H   0  0  0  0  0  0  0  0  0  0  0  0
    6.0136   -5.0479   20.7947 N   0  0  0  0  0  0  0  0  0  0  0  0
    6.3785   -4.0956   21.6737 N   0  0  0  0  0  0  0  0  0  0  0  0
    6.9420   -4.5012   22.9571 C   0  0  0  0  0  0  0  0  0  0  0  0
    7.2862   -5.5250   22.8403 H   0  0  0  0  0  0  0  0  0  0  0  0
    6.2001   -4.4384   23.7537 H   0  0  0  0  0  0  0  0  0  0  0  0
    7.7831   -3.8561   23.2196 H   0  0  0  0  0  0  0  0  0  0  0  0
    6.5826   -1.3773   23.1267 C   0  0  0  0  0  0  0  0  0  0  0  0
    6.1152   -2.0779   24.0009 O   0  0  0  0  0  0  0  0  0  0  0  0
    7.1862   -0.0197   23.3393 C   0  0  0  0  0  0  0  0  0  0  0  0
    7.7740   -0.0080   24.2579 H   0  0  0  0  0  0  0  0  0  0  0  0
    6.3344    0.6508   23.4969 H   0  0  0  0  0  0  0  0  0  0  0  0
    7.9754    0.2736   22.0596 C   0  0  0  0  0  0  0  0  0  0  0  0
    7.8667    1.3162   21.7523 H   0  0  0  0  0  0  0  0  0  0  0  0
    9.0461    0.0843   22.2009 H   0  0  0  0  0  0  0  0  0  0  0  0
    5.4065    0.6501   20.1238 C   0  0  0  0  0  0  0  0  0  0  0  0
    4.9550    0.6384   21.1166 H   0  0  0  0  0  0  0  0  0  0  0  0
    4.7875    1.3162   19.0639 C   0  0  0  0  0  0  0  0  0  0  0  0
    3.8630    1.8639   19.2017 H   0  0  0  0  0  0  0  0  0  0  0  0
  1  2  1  0
  2  3  2  0
  3  4  1  0
  4  5  1  0
  4  6  2  0
  6  7  1  0
  7  8  1  6
  7  9  1  0
  9 10  1  0
 10 11  2  0
 11 12  1  0
 11 13  1  0
 13 14  1  0
 13 15  2  0
 15 16  1  0
 16 17  1  0
 17 18  1  0
 17 19  1  0
 17 20  1  0
  9 21  1  0
 21 22  2  0
 21 23  1  0
 23 24  1  0
 23 25  1  0
 23 26  1  0
 26 27  1  0
 26 28  1  0
  6 29  1  0
 29 30  1  0
 29 31  2  0
 31 32  1  0
 31  2  1  0
 26  7  1  0
 16 10  1  0
M  END
>  <plip>  (1) 
-0.07142857142857142

>  <filename>  (1) 
[H][c]1[n][c]([H])[c]([C@]2([H])[N]([c]3[c]([H])[c]([H])[n][n]3[C]([H])([H])[H])[C](=[O])[C]([H])([H])[C]2([H])[H])[c]([H])[c]1[H]

$$$$
