
     RDKit          3D

 29 30  0  0  0  0  0  0  0  0999 V2000
    8.1409   -1.8217   20.8386 C   0  0  0  0  0  0  0  0  0  0  0  0
    7.3154   -0.6007   21.2066 C   0  0  2  0  0  0  0  0  0  0  0  0
    6.6313    0.0751   20.0381 C   0  0  0  0  0  0  0  0  0  0  0  0
    5.4019    0.7260   20.2102 C   0  0  0  0  0  0  0  0  0  0  0  0
    4.7914    1.3248   19.1059 C   0  0  0  0  0  0  0  0  0  0  0  0
    5.4412    1.2695   17.8665 C   0  0  0  0  0  0  0  0  0  0  0  0
    6.6202    0.6626   17.6802 N   0  0  0  0  0  0  0  0  0  0  0  0
    7.1954    0.1000   18.7535 C   0  0  0  0  0  0  0  0  0  0  0  0
    8.1591   -0.3679   18.5712 H   0  0  0  0  0  0  0  0  0  0  0  0
    4.9983    1.7337   16.9875 H   0  0  0  0  0  0  0  0  0  0  0  0
    3.8461    1.8495   19.1937 H   0  0  0  0  0  0  0  0  0  0  0  0
    4.9402    0.7716   21.2013 H   0  0  0  0  0  0  0  0  0  0  0  0
    8.1508    0.3457   21.9386 N   0  0  0  0  0  0  0  0  0  0  0  0
    9.2592    0.9463   21.4120 C   0  0  0  0  0  0  0  0  0  0  0  0
    9.6429    0.8320   20.2726 O   0  0  0  0  0  0  0  0  0  0  0  0
    9.9027    1.7355   22.5288 C   0  0  0  0  0  0  0  0  0  0  0  0
    9.1917    1.2472   23.6926 N   0  0  0  0  0  0  0  0  0  0  0  0
    9.5877    1.4416   25.0733 C   0  0  0  0  0  0  0  0  0  0  0  0
   10.4371    2.1289   25.1174 H   0  0  0  0  0  0  0  0  0  0  0  0
    9.8843    0.4979   25.5480 H   0  0  0  0  0  0  0  0  0  0  0  0
    8.7657    1.8744   25.6540 H   0  0  0  0  0  0  0  0  0  0  0  0
    8.2096    0.3672   23.3239 C   0  0  0  0  0  0  0  0  0  0  0  0
    7.5094   -0.3052   24.0492 O   0  0  0  0  0  0  0  0  0  0  0  0
   10.9825    1.5583   22.5669 H   0  0  0  0  0  0  0  0  0  0  0  0
    9.7522    2.8052   22.3435 H   0  0  0  0  0  0  0  0  0  0  0  0
    6.5286   -0.9029   21.9076 H   0  0  0  0  0  0  0  0  0  0  0  0
    7.4812   -2.5701   20.4017 H   0  0  0  0  0  0  0  0  0  0  0  0
    8.6068   -2.2296   21.7385 H   0  0  0  0  0  0  0  0  0  0  0  0
    8.9336   -1.5355   20.1433 H   0  0  0  0  0  0  0  0  0  0  0  0
  1  2  1  0
  2  3  1  0
  3  4  2  0
  4  5  1  0
  5  6  2  0
  6  7  1  0
  7  8  2  0
  8  9  1  0
  6 10  1  0
  5 11  1  0
  4 12  1  0
  2 13  1  0
 13 14  1  0
 14 15  2  0
 14 16  1  0
 16 17  1  0
 17 18  1  0
 18 19  1  0
 18 20  1  0
 18 21  1  0
 17 22  1  0
 22 23  2  0
 16 24  1  0
 16 25  1  0
  2 26  1  1
  1 27  1  0
  1 28  1  0
  1 29  1  0
  8  3  1  0
 22 13  1  0
M  END
>  <plip>  (1) 
-0.07142857142857142

>  <filename>  (1) 
[H][c]1[n][c]([H])[c]([C@]([H])([N]2[C](=[O])[N]([C]([H])([H])[H])[C]([H])([H])[C]2=[O])[C]([H])([H])[H])[c]([H])[c]1[H]

$$$$
