
     RDKit          3D

 52 55  0  0  0  0  0  0  0  0999 V2000
   10.6146    5.7035   25.7849 C   0  0  0  0  0  0  0  0  0  0  0  0
   10.3676    4.6047   24.8821 N   0  0  0  0  0  0  0  0  0  0  0  0
   11.3138    3.9886   24.0909 C   0  0  0  0  0  0  0  0  0  0  0  0
   10.7393    2.9766   23.3802 C   0  0  0  0  0  0  0  0  0  0  0  0
    9.3426    2.9702   23.7240 C   0  0  0  0  0  0  0  0  0  0  0  0
    8.2292    2.2005   23.3121 C   0  0  0  0  0  0  0  0  0  0  0  0
    8.4261    1.2393   22.1693 C   0  0  0  0  0  0  0  0  0  0  0  0
    9.2650    1.3920   21.2925 O   0  0  0  0  0  0  0  0  0  0  0  0
    7.6142    0.1398   22.1854 N   0  0  0  0  0  0  0  0  0  0  0  0
    7.4204   -0.6712   20.9967 C   0  0  0  0  0  0  0  0  0  0  0  0
    6.7103   -1.9917   21.3337 C   0  0  0  0  0  0  0  0  0  0  0  0
    7.4741   -2.9446   22.2722 C   0  0  0  0  0  0  0  0  0  0  0  0
    6.6917   -4.2232   22.6155 C   0  0  0  0  0  0  0  0  0  0  0  0
    7.4447   -5.1780   23.5632 C   0  0  0  0  0  0  0  0  0  0  0  0
    8.0988   -6.1710   22.5996 C   0  0  0  0  0  0  0  0  0  0  0  0
    7.0690   -6.2514   21.4761 C   0  0  0  0  0  0  0  0  0  0  0  0
    6.4194   -4.9878   21.4375 O   0  0  0  0  0  0  0  0  0  0  0  0
    7.5187   -6.4302   20.4934 H   0  0  0  0  0  0  0  0  0  0  0  0
    6.3314   -7.0469   21.6632 H   0  0  0  0  0  0  0  0  0  0  0  0
    9.0329   -5.7557   22.2167 H   0  0  0  0  0  0  0  0  0  0  0  0
    8.3198   -7.1458   23.0455 H   0  0  0  0  0  0  0  0  0  0  0  0
    6.7334   -5.6925   24.2213 H   0  0  0  0  0  0  0  0  0  0  0  0
    8.1672   -4.6564   24.2028 H   0  0  0  0  0  0  0  0  0  0  0  0
    5.7199   -3.9341   23.0438 H   0  0  0  0  0  0  0  0  0  0  0  0
    8.4361   -3.2262   21.8175 H   0  0  0  0  0  0  0  0  0  0  0  0
    7.7076   -2.4370   23.2209 H   0  0  0  0  0  0  0  0  0  0  0  0
    6.5038   -2.5057   20.3863 H   0  0  0  0  0  0  0  0  0  0  0  0
    5.7279   -1.7452   21.7661 H   0  0  0  0  0  0  0  0  0  0  0  0
    6.6578    0.0910   19.9102 C   0  0  0  0  0  0  0  0  0  0  0  0
    5.4205    0.7254   20.1135 C   0  0  0  0  0  0  0  0  0  0  0  0
    4.7918    1.3423   19.0273 C   0  0  0  0  0  0  0  0  0  0  0  0
    5.4130    1.3072   17.7732 C   0  0  0  0  0  0  0  0  0  0  0  0
    6.5848    0.6965   17.5518 N   0  0  0  0  0  0  0  0  0  0  0  0
    7.1747    0.1171   18.6078 C   0  0  0  0  0  0  0  0  0  0  0  0
    8.1244   -0.3748   18.3996 H   0  0  0  0  0  0  0  0  0  0  0  0
    4.9525    1.7895   16.9111 H   0  0  0  0  0  0  0  0  0  0  0  0
    3.8397    1.8520   19.1324 H   0  0  0  0  0  0  0  0  0  0  0  0
    4.9383    0.7467   21.0957 H   0  0  0  0  0  0  0  0  0  0  0  0
    8.4224   -0.8854   20.5966 H   0  0  0  0  0  0  0  0  0  0  0  0
    6.9002    0.1313   22.8888 H   0  0  0  0  0  0  0  0  0  0  0  0
    6.9986    2.4076   23.9637 C   0  0  0  0  0  0  0  0  0  0  0  0
    6.8594    3.3621   24.9881 C   0  0  0  0  0  0  0  0  0  0  0  0
    7.9284    4.1670   25.3721 C   0  0  0  0  0  0  0  0  0  0  0  0
    9.1573    3.9737   24.7099 C   0  0  0  0  0  0  0  0  0  0  0  0
    7.8346    4.8973   26.1717 H   0  0  0  0  0  0  0  0  0  0  0  0
    5.8983    3.4712   25.4909 H   0  0  0  0  0  0  0  0  0  0  0  0
    6.1056    1.8512   23.6823 H   0  0  0  0  0  0  0  0  0  0  0  0
   11.2131    2.2598   22.7219 H   0  0  0  0  0  0  0  0  0  0  0  0
   12.3366    4.3505   24.1130 H   0  0  0  0  0  0  0  0  0  0  0  0
   11.6870    5.7672   25.9765 H   0  0  0  0  0  0  0  0  0  0  0  0
   10.2511    6.6482   25.3718 H   0  0  0  0  0  0  0  0  0  0  0  0
   10.1191    5.5171   26.7410 H   0  0  0  0  0  0  0  0  0  0  0  0
  1  2  1  0
  2  3  1  0
  3  4  2  0
  4  5  1  0
  5  6  2  0
  6  7  1  0
  7  8  2  0
  7  9  1  0
  9 10  1  0
 10 11  1  0
 11 12  1  0
 12 13  1  0
 13 14  1  0
 14 15  1  0
 15 16  1  0
 16 17  1  0
 16 18  1  0
 16 19  1  0
 15 20  1  0
 15 21  1  0
 14 22  1  0
 14 23  1  0
 13 24  1  0
 12 25  1  0
 12 26  1  0
 11 27  1  0
 11 28  1  0
 10 29  1  0
 29 30  2  0
 30 31  1  0
 31 32  2  0
 32 33  1  0
 33 34  2  0
 34 35  1  0
 32 36  1  0
 31 37  1  0
 30 38  1  0
 10 39  1  0
  9 40  1  0
  6 41  1  0
 41 42  2  0
 42 43  1  0
 43 44  2  0
 43 45  1  0
 42 46  1  0
 41 47  1  0
  4 48  1  0
  3 49  1  0
  1 50  1  0
  1 51  1  0
  1 52  1  0
 44  2  1  0
 44  5  1  0
 17 13  1  0
 34 29  1  0
M  END
>  <plip>  (1) 
-0.1724137931034483

>  <filename>  (1) 
[H][c]1[n][c]([H])[c]([C]([H])([N]([H])[C](=[O])[c]2[c]([H])[c]([H])[c]([H])[c]3[c]2[c]([H])[c]([H])[n]3[C]([H])([H])[H])[C]([H])([H])[C]([H])([H])[C]2([H])[O][C]([H])([H])[C]([H])([H])[C]2([H])[H])[c]([H])[c]1[H]

$$$$
