
     RDKit          3D

 34 37  0  0  0  0  0  0  0  0999 V2000
    5.7618   -2.0371   21.7557 O   0  0  0  0  0  0  0  0  0  0  0  0
    6.8351   -1.5077   21.8905 C   0  0  0  0  0  0  0  0  0  0  0  0
    7.8649   -1.8306   22.9607 C   0  0  2  0  0  0  0  0  0  0  0  0
    7.6081   -1.3044   24.4025 C   0  0  2  0  0  0  0  0  0  0  0  0
    7.5337    0.2411   24.4654 C   0  0  0  0  0  0  0  0  0  0  0  0
    9.0133    0.7191   24.6104 C   0  0  0  0  0  0  0  0  0  0  0  0
    9.8537   -0.5849   24.6402 C   0  0  1  0  0  0  0  0  0  0  0  0
    8.8698   -1.6123   25.2370 C   0  0  0  0  0  0  0  0  0  0  0  0
    9.2158   -2.6505   25.1380 H   0  0  0  0  0  0  0  0  0  0  0  0
    8.7028   -1.4377   26.3105 H   0  0  0  0  0  0  0  0  0  0  0  0
   10.2526   -1.0327   23.2142 C   0  0  0  0  0  0  0  0  0  0  0  0
    9.0763   -1.2616   22.3788 N   0  0  0  0  0  0  0  0  0  0  0  0
    8.7973   -0.5205   21.2586 C   0  0  0  0  0  0  0  0  0  0  0  0
    9.5961    0.1018   20.5979 O   0  0  0  0  0  0  0  0  0  0  0  0
    7.4191   -0.6239   20.9932 N   0  0  0  0  0  0  0  0  0  0  0  0
    6.7086    0.0213   19.9204 C   0  0  0  0  0  0  0  0  0  0  0  0
    5.4752    0.6311   20.1746 C   0  0  0  0  0  0  0  0  0  0  0  0
    4.8310    1.2915   19.1228 C   0  0  0  0  0  0  0  0  0  0  0  0
    5.4092    1.2788   17.8513 C   0  0  0  0  0  0  0  0  0  0  0  0
    6.5669    0.6550   17.5806 N   0  0  0  0  0  0  0  0  0  0  0  0
    7.2017    0.0551   18.5952 C   0  0  0  0  0  0  0  0  0  0  0  0
    8.1513   -0.4238   18.3678 H   0  0  0  0  0  0  0  0  0  0  0  0
    4.9328    1.7817   17.0127 H   0  0  0  0  0  0  0  0  0  0  0  0
    3.8995    1.8207   19.2743 H   0  0  0  0  0  0  0  0  0  0  0  0
    5.0390    0.5868   21.1711 H   0  0  0  0  0  0  0  0  0  0  0  0
   10.8561   -0.2624   22.7216 H   0  0  0  0  0  0  0  0  0  0  0  0
   10.8508   -1.9551   23.2688 H   0  0  0  0  0  0  0  0  0  0  0  0
   10.7697   -0.4801   25.2345 H   0  0  0  0  0  0  0  0  0  0  0  0
    9.3239    1.3848   23.7953 H   0  0  0  0  0  0  0  0  0  0  0  0
    9.1506    1.2844   25.5397 H   0  0  0  0  0  0  0  0  0  0  0  0
    6.9377    0.5568   25.3301 H   0  0  0  0  0  0  0  0  0  0  0  0
    7.0388    0.6546   23.5802 H   0  0  0  0  0  0  0  0  0  0  0  0
    6.7088   -1.7886   24.7991 H   0  0  0  0  0  0  0  0  0  0  0  0
    7.9157   -2.9259   23.0100 H   0  0  0  0  0  0  0  0  0  0  0  0
  1  2  2  0
  2  3  1  0
  3  4  1  0
  4  5  1  0
  5  6  1  0
  6  7  1  0
  7  8  1  0
  8  9  1  0
  8 10  1  0
  7 11  1  0
 11 12  1  0
 12 13  1  0
 13 14  2  0
 13 15  1  0
 15 16  1  0
 16 17  2  0
 17 18  1  0
 18 19  2  0
 19 20  1  0
 20 21  2  0
 21 22  1  0
 19 23  1  0
 18 24  1  0
 17 25  1  0
 11 26  1  0
 11 27  1  0
  7 28  1  1
  6 29  1  0
  6 30  1  0
  5 31  1  0
  5 32  1  0
  4 33  1  1
  3 34  1  1
 15  2  1  0
 21 16  1  0
 12  3  1  0
  8  4  1  0
M  END
>  <plip>  (1) 
-0.10714285714285714

>  <filename>  (1) 
[H][c]1[n][c]([H])[c]([N]2[C](=[O])[N]3[C]([H])([H])[C@@]4([H])[C]([H])([H])[C]([H])([H])[C@]([H])([C]4([H])[H])[C@@]3([H])[C]2=[O])[c]([H])[c]1[H]

$$$$
