
     RDKit          3D

 40 42  0  0  0  0  0  0  0  0999 V2000
    8.8168   -0.9220   20.9111 C   0  0  0  0  0  0  0  0  0  0  0  0
    7.3089   -0.7255   21.0835 C   0  0  0  0  0  0  0  0  0  0  0  0
    6.6548    0.0576   19.9484 C   0  0  0  0  0  0  0  0  0  0  0  0
    5.4252    0.6985   20.1588 C   0  0  0  0  0  0  0  0  0  0  0  0
    4.8012    1.3335   19.0856 C   0  0  0  0  0  0  0  0  0  0  0  0
    5.4232    1.3044   17.8345 C   0  0  0  0  0  0  0  0  0  0  0  0
    6.5889    0.6858   17.6053 N   0  0  0  0  0  0  0  0  0  0  0  0
    7.1797    0.0812   18.6483 C   0  0  0  0  0  0  0  0  0  0  0  0
    8.1226   -0.4209   18.4197 H   0  0  0  0  0  0  0  0  0  0  0  0
    4.9690    1.8009   16.9810 H   0  0  0  0  0  0  0  0  0  0  0  0
    3.8569    1.8496   19.2067 H   0  0  0  0  0  0  0  0  0  0  0  0
    4.9571    0.6820   21.1456 H   0  0  0  0  0  0  0  0  0  0  0  0
    6.6051   -2.0096   21.2822 N   0  0  0  0  0  0  0  0  0  0  0  0
    6.3451   -2.9003   20.1458 C   0  0  0  0  0  0  0  0  0  0  0  0
    5.2954   -3.1934   20.1455 H   0  0  0  0  0  0  0  0  0  0  0  0
    6.9429   -3.8156   20.2340 H   0  0  0  0  0  0  0  0  0  0  0  0
    6.5287   -2.4146   19.1891 H   0  0  0  0  0  0  0  0  0  0  0  0
    6.0364   -2.4235   22.4721 C   0  0  0  0  0  0  0  0  0  0  0  0
    5.1639   -3.2786   22.4776 O   0  0  0  0  0  0  0  0  0  0  0  0
    6.5382   -1.7800   23.7730 C   0  0  0  0  0  0  0  0  0  0  0  0
    6.3306   -2.6887   24.9438 C   0  0  0  0  0  0  0  0  0  0  0  0
    5.3336   -2.6522   25.8733 C   0  0  0  0  0  0  0  0  0  0  0  0
    5.4313   -3.7478   26.7060 N   0  0  0  0  0  0  0  0  0  0  0  0
    6.4918   -4.5118   26.3208 C   0  0  0  0  0  0  0  0  0  0  0  0
    7.0677   -3.9053   25.1731 C   0  0  0  0  0  0  0  0  0  0  0  0
    8.1421   -4.6051   24.6146 C   0  0  0  0  0  0  0  0  0  0  0  0
    8.9428   -4.0641   23.1708 Cl  0  0  0  0  0  0  0  0  0  0  0  0
    8.6029   -5.7639   25.2293 C   0  0  0  0  0  0  0  0  0  0  0  0
    7.9717   -6.1816   26.4155 C   0  0  0  0  0  0  0  0  0  0  0  0
    6.9056   -5.5963   26.9645 N   0  0  0  0  0  0  0  0  0  0  0  0
    8.3696   -7.0230   26.9658 H   0  0  0  0  0  0  0  0  0  0  0  0
    9.4261   -6.3264   24.8098 H   0  0  0  0  0  0  0  0  0  0  0  0
    4.8914   -4.0167   27.5031 H   0  0  0  0  0  0  0  0  0  0  0  0
    4.5532   -1.9085   25.9986 H   0  0  0  0  0  0  0  0  0  0  0  0
    7.6058   -1.5797   23.6398 H   0  0  0  0  0  0  0  0  0  0  0  0
    6.0360   -0.8103   23.9026 H   0  0  0  0  0  0  0  0  0  0  0  0
    7.1568   -0.1214   21.9915 H   0  0  0  0  0  0  0  0  0  0  0  0
    9.2796   -1.3135   21.8245 H   0  0  0  0  0  0  0  0  0  0  0  0
    9.0281   -1.6270   20.1003 H   0  0  0  0  0  0  0  0  0  0  0  0
    9.2870    0.0406   20.6816 H   0  0  0  0  0  0  0  0  0  0  0  0
  1  2  1  0
  2  3  1  0
  3  4  2  0
  4  5  1  0
  5  6  2  0
  6  7  1  0
  7  8  2  0
  8  9  1  0
  6 10  1  0
  5 11  1  0
  4 12  1  0
  2 13  1  0
 13 14  1  0
 14 15  1  0
 14 16  1  0
 14 17  1  0
 13 18  1  0
 18 19  2  0
 18 20  1  0
 20 21  1  0
 21 22  2  0
 22 23  1  0
 23 24  1  0
 24 25  2  0
 25 26  1  0
 26 27  1  0
 26 28  2  0
 28 29  1  0
 29 30  2  0
 29 31  1  0
 28 32  1  0
 23 33  1  0
 22 34  1  0
 20 35  1  0
 20 36  1  0
  2 37  1  0
  1 38  1  0
  1 39  1  0
  1 40  1  0
  8  3  1  0
 25 21  1  0
 30 24  1  0
M  END
>  <plip>  (1) 
-0.10714285714285714

>  <filename>  (1) 
[H][c]1[n][c]([H])[c]([C]([H])([N]([C](=[O])[C]([H])([H])[c]2[c]([H])[n]([H])[c]3[n][c]([H])[c]([H])[c]([Cl])[c]23)[C]([H])([H])[H])[C]([H])([H])[H])[c]([H])[c]1[H]

$$$$
