
     RDKit          3D

 38 40  0  0  0  0  0  0  0  0999 V2000
    8.5350    1.3166   23.2594 C   0  0  0  0  0  0  0  0  0  0  0  0
    9.2402    0.1015   22.6537 C   0  0  0  0  0  0  0  0  0  0  0  0
    8.6464   -0.0066   21.2255 N   0  0  0  0  0  4  0  0  0  0  0  0
    7.2164   -0.5417   21.1470 C   0  0  2  0  0  0  0  0  0  0  0  0
    7.3339   -2.0365   20.9358 C   0  0  0  0  0  0  0  0  0  0  0  0
    7.7486   -2.5252   21.8151 H   0  0  0  0  0  0  0  0  0  0  0  0
    8.0399   -2.1569   20.1196 H   0  0  0  0  0  0  0  0  0  0  0  0
    6.3788   -2.4957   20.6947 H   0  0  0  0  0  0  0  0  0  0  0  0
    6.5313    0.1633   20.0114 C   0  0  0  0  0  0  0  0  0  0  0  0
    5.2884    0.7996   20.1392 C   0  0  0  0  0  0  0  0  0  0  0  0
    4.7220    1.3983   19.0112 C   0  0  0  0  0  0  0  0  0  0  0  0
    5.4041    1.3364   17.7921 C   0  0  0  0  0  0  0  0  0  0  0  0
    6.5850    0.7167   17.6503 N   0  0  0  0  0  0  0  0  0  0  0  0
    7.1223    0.1585   18.7405 C   0  0  0  0  0  0  0  0  0  0  0  0
    8.0858   -0.3299   18.5861 H   0  0  0  0  0  0  0  0  0  0  0  0
    4.9863    1.8021   16.8970 H   0  0  0  0  0  0  0  0  0  0  0  0
    3.7692    1.9106   19.0629 H   0  0  0  0  0  0  0  0  0  0  0  0
    4.7815    0.8297   21.1070 H   0  0  0  0  0  0  0  0  0  0  0  0
    6.7040   -0.3376   22.0915 H   0  0  0  0  0  0  0  0  0  0  0  0
    8.6336    0.9151   20.7327 H   0  0  0  0  0  0  0  0  0  0  0  0
    9.2200   -0.6666   20.6553 H   0  0  0  0  0  0  0  0  0  0  0  0
    9.1773   -1.1875   23.5128 C   0  0  0  0  0  0  0  0  0  0  0  0
   10.0948   -2.1039   23.5656 N   0  0  0  0  0  0  0  0  0  0  0  0
    9.5525   -3.1035   24.3851 C   0  0  0  0  0  0  0  0  0  0  0  0
   10.0297   -4.3697   24.7793 C   0  0  0  0  0  0  0  0  0  0  0  0
    9.2175   -5.1469   25.6125 C   0  0  0  0  0  0  0  0  0  0  0  0
    7.9539   -4.6865   26.0404 C   0  0  0  0  0  0  0  0  0  0  0  0
    7.4648   -3.4356   25.6464 C   0  0  0  0  0  0  0  0  0  0  0  0
    8.2966   -2.6752   24.8278 C   0  0  0  0  0  0  0  0  0  0  0  0
    8.0722   -1.4314   24.2938 O   0  0  0  0  0  0  0  0  0  0  0  0
    6.4879   -3.0763   25.9556 H   0  0  0  0  0  0  0  0  0  0  0  0
    7.3458   -5.3188   26.6882 H   0  0  0  0  0  0  0  0  0  0  0  0
    9.5659   -6.1269   25.9376 H   0  0  0  0  0  0  0  0  0  0  0  0
   10.9984   -4.7232   24.4335 H   0  0  0  0  0  0  0  0  0  0  0  0
   10.3173    0.2647   22.5468 H   0  0  0  0  0  0  0  0  0  0  0  0
    7.4556    1.1390   23.3020 H   0  0  0  0  0  0  0  0  0  0  0  0
    8.7185    2.1749   22.6033 H   0  0  0  0  0  0  0  0  0  0  0  0
    8.8830    1.5787   24.2580 H   0  0  0  0  0  0  0  0  0  0  0  0
  1  2  1  0
  2  3  1  0
  3  4  1  0
  4  5  1  0
  5  6  1  0
  5  7  1  0
  5  8  1  0
  4  9  1  0
  9 10  2  0
 10 11  1  0
 11 12  2  0
 12 13  1  0
 13 14  2  0
 14 15  1  0
 12 16  1  0
 11 17  1  0
 10 18  1  0
  4 19  1  1
  3 20  1  0
  3 21  1  0
  2 22  1  0
 22 23  2  0
 23 24  1  0
 24 25  2  0
 25 26  1  0
 26 27  2  0
 27 28  1  0
 28 29  2  0
 29 30  1  0
 28 31  1  0
 27 32  1  0
 26 33  1  0
 25 34  1  0
  2 35  1  0
  1 36  1  0
  1 37  1  0
  1 38  1  0
 14  9  1  0
 30 22  1  0
 29 24  1  0
M  CHG  1   3   1
M  END
>  <plip>  (1) 
-0.06896551724137931

>  <filename>  (1) 
[H][c]1[n][c]([H])[c]([C@@]([H])([C]([H])([H])[H])[N+]([H])([H])[C]([H])([c]2[n][c]3[c]([H])[c]([H])[c]([H])[c]([H])[c]3[o]2)[C]([H])([H])[H])[c]([H])[c]1[H]

$$$$
