
     RDKit          3D

 29 29  0  0  0  0  0  0  0  0999 V2000
    4.9200    1.7878   16.9911 H   0  0  0  0  0  0  0  0  0  0  0  0
    5.3949    1.2934   17.8354 C   0  0  0  0  0  0  0  0  0  0  0  0
    6.5571    0.6701   17.5803 N   0  0  0  0  0  0  0  0  0  0  0  0
    7.1618    0.0383   18.5948 C   0  0  0  0  0  0  0  0  0  0  0  0
    8.1218   -0.4286   18.3732 H   0  0  0  0  0  0  0  0  0  0  0  0
    6.6341   -0.0057   19.9022 C   0  0  0  0  0  0  0  0  0  0  0  0
    7.5053   -0.7612   21.2651 S   0  0  0  0  0  0  0  0  0  0  0  0
    8.4744    0.6828   21.7402 C   0  0  0  0  0  0  0  0  0  0  0  0
    9.9496    0.9844   21.1018 S   0  0  0  0  0  0  0  0  0  0  0  0
    7.7916    1.4457   22.5831 O   0  0  0  0  0  0  0  0  0  0  0  0
    8.3965    2.6856   23.0352 C   0  0  0  0  0  0  0  0  0  0  0  0
    9.3507    2.4565   23.5108 H   0  0  0  0  0  0  0  0  0  0  0  0
    8.5921    3.3167   22.1666 H   0  0  0  0  0  0  0  0  0  0  0  0
    7.4536    3.3846   24.0154 C   0  0  0  0  0  0  0  0  0  0  0  0
    7.2498    2.7227   24.8668 H   0  0  0  0  0  0  0  0  0  0  0  0
    6.4880    3.5713   23.5287 H   0  0  0  0  0  0  0  0  0  0  0  0
    7.9528    4.6612   24.5387 N   0  0  0  0  0  0  0  0  0  0  0  0
    8.1007    5.7025   23.5309 C   0  0  0  0  0  0  0  0  0  0  0  0
    8.2261    6.6794   24.0128 H   0  0  0  0  0  0  0  0  0  0  0  0
    8.9711    5.5538   22.8646 H   0  0  0  0  0  0  0  0  0  0  0  0
    7.2048    5.7602   22.9037 H   0  0  0  0  0  0  0  0  0  0  0  0
    9.1506    4.5463   25.3567 C   0  0  0  0  0  0  0  0  0  0  0  0
   10.0673    4.3445   24.7716 H   0  0  0  0  0  0  0  0  0  0  0  0
    9.3201    5.4767   25.9114 H   0  0  0  0  0  0  0  0  0  0  0  0
    9.0375    3.7429   26.0925 H   0  0  0  0  0  0  0  0  0  0  0  0
    5.4229    0.6454   20.1531 C   0  0  0  0  0  0  0  0  0  0  0  0
    5.0133    0.6398   21.1658 H   0  0  0  0  0  0  0  0  0  0  0  0
    4.7959    1.3120   19.0990 C   0  0  0  0  0  0  0  0  0  0  0  0
    3.8694    1.8495   19.2504 H   0  0  0  0  0  0  0  0  0  0  0  0
  1  2  1  0
  2  3  2  0
  3  4  1  0
  4  5  1  0
  4  6  2  0
  6  7  1  0
  7  8  1  0
  8  9  2  0
  8 10  1  0
 10 11  1  0
 11 12  1  0
 11 13  1  0
 11 14  1  0
 14 15  1  0
 14 16  1  0
 14 17  1  0
 17 18  1  0
 18 19  1  0
 18 20  1  0
 18 21  1  0
 17 22  1  0
 22 23  1  0
 22 24  1  0
 22 25  1  0
  6 26  1  0
 26 27  1  0
 26 28  2  0
 28 29  1  0
 28  2  1  0
M  END
>  <plip>  (1) 
-0.0

>  <filename>  (1) 
[H][c]1[n][c]([H])[c]([S][C](=[S])[O][C]([H])([H])[C]([H])([H])[N]([C]([H])([H])[H])[C]([H])([H])[H])[c]([H])[c]1[H]

$$$$
