
     RDKit          3D

 34 36  0  0  0  0  0  0  0  0999 V2000
    9.3342   -0.2957   20.3385 H   0  0  0  0  0  0  0  0  0  0  0  0
    8.7307   -0.7974   21.0854 C   0  0  0  0  0  0  0  0  0  0  0  0
    9.3864   -1.4433   22.0241 N   0  0  0  0  0  0  0  0  0  0  0  0
    8.6805   -2.0738   22.9916 N   0  0  0  0  0  0  0  0  0  0  0  0
    7.3484   -1.9651   22.9887 C   0  0  0  0  0  0  0  0  0  0  0  0
    6.5783   -2.5364   23.9536 N   0  0  0  0  0  0  0  0  0  0  0  0
    5.7290   -1.9989   24.0084 H   0  0  0  0  0  0  0  0  0  0  0  0
    6.9727   -3.4236   24.9511 C   0  0  0  0  0  0  0  0  0  0  0  0
    7.8395   -4.4757   24.6104 C   0  0  0  0  0  0  0  0  0  0  0  0
    8.1695   -4.5453   23.5787 H   0  0  0  0  0  0  0  0  0  0  0  0
    8.2956   -5.3683   25.5773 C   0  0  0  0  0  0  0  0  0  0  0  0
    9.0018   -6.1451   25.2936 H   0  0  0  0  0  0  0  0  0  0  0  0
    7.8695   -5.2352   26.9045 C   0  0  0  0  0  0  0  0  0  0  0  0
    8.2432   -5.9207   27.6651 H   0  0  0  0  0  0  0  0  0  0  0  0
    6.9623   -4.2361   27.2352 C   0  0  0  0  0  0  0  0  0  0  0  0
    6.6219   -4.1618   28.2652 H   0  0  0  0  0  0  0  0  0  0  0  0
    6.4943   -3.3111   26.2697 C   0  0  0  0  0  0  0  0  0  0  0  0
    5.5951   -2.1849   26.6448 C   0  0  0  0  0  0  0  0  0  0  0  0
    5.4978   -1.1223   26.0572 O   0  0  0  0  0  0  0  0  0  0  0  0
    4.8590   -2.3830   27.7851 N   0  0  0  0  0  0  0  0  0  0  0  0
    4.1626   -1.6641   27.8871 H   0  0  0  0  0  0  0  0  0  0  0  0
    4.5685   -3.3266   27.9658 H   0  0  0  0  0  0  0  0  0  0  0  0
    6.6093   -1.2818   22.0929 N   0  0  0  0  0  0  0  0  0  0  0  0
    7.2994   -0.7361   21.1019 C   0  0  0  0  0  0  0  0  0  0  0  0
    6.5673   -0.0535   20.0255 C   0  0  0  0  0  0  0  0  0  0  0  0
    7.1204   -0.0525   18.7356 C   0  0  0  0  0  0  0  0  0  0  0  0
    8.0496   -0.5917   18.5477 H   0  0  0  0  0  0  0  0  0  0  0  0
    6.5915    0.5756   17.6887 N   0  0  0  0  0  0  0  0  0  0  0  0
    5.4516    1.2497   17.9012 C   0  0  0  0  0  0  0  0  0  0  0  0
    5.0497    1.7815   17.0438 H   0  0  0  0  0  0  0  0  0  0  0  0
    4.7947    1.2880   19.1365 C   0  0  0  0  0  0  0  0  0  0  0  0
    3.8818    1.8628   19.2312 H   0  0  0  0  0  0  0  0  0  0  0  0
    5.3496    0.6145   20.2231 C   0  0  0  0  0  0  0  0  0  0  0  0
    4.8605    0.6158   21.2023 H   0  0  0  0  0  0  0  0  0  0  0  0
  1  2  1  0
  2  3  2  0
  3  4  1  0
  4  5  2  0
  5  6  1  0
  6  7  1  0
  6  8  1  0
  8  9  2  0
  9 10  1  0
  9 11  1  0
 11 12  1  0
 11 13  2  0
 13 14  1  0
 13 15  1  0
 15 16  1  0
 15 17  2  0
 17 18  1  0
 18 19  2  0
 18 20  1  0
 20 21  1  0
 20 22  1  0
  5 23  1  0
 23 24  2  0
 24 25  1  0
 25 26  2  0
 26 27  1  0
 26 28  1  0
 28 29  2  0
 29 30  1  0
 29 31  1  0
 31 32  1  0
 31 33  2  0
 33 34  1  0
 24  2  1  0
 33 25  1  0
 17  8  1  0
M  END
>  <plip>  (1) 
-0.07142857142857142

>  <filename>  (1) 
[H][c]1[n][n][c]([N]([H])[c]2[c]([H])[c]([H])[c]([H])[c]([H])[c]2[C](=[O])[N]([H])[H])[n][c]1-[c]1[c]([H])[n][c]([H])[c]([H])[c]1[H]

$$$$
