
     RDKit          3D

 43 45  0  0  0  0  0  0  0  0999 V2000
    7.4573   -2.8049   22.4419 C   0  0  0  0  0  0  0  0  0  0  0  0
    6.7257   -1.9613   21.4019 C   0  0  0  0  0  0  0  0  0  0  0  0
    7.4336   -0.6757   20.9960 C   0  0  0  0  0  0  0  0  0  0  0  0
    7.5314    0.1702   22.1679 O   0  0  0  0  0  0  0  0  0  0  0  0
    8.3156    1.2658   22.0514 C   0  0  0  0  0  0  0  0  0  0  0  0
    9.1485    1.4100   21.1910 O   0  0  0  0  0  0  0  0  0  0  0  0
    8.0097    2.2950   23.1327 C   0  0  0  0  0  0  0  0  0  0  0  0
    6.8496    3.1825   22.7302 C   0  0  0  0  0  0  0  0  0  0  0  0
    6.9554    4.1928   21.8143 C   0  0  0  0  0  0  0  0  0  0  0  0
    5.6993    4.6241   21.4539 N   0  0  0  0  0  0  0  0  0  0  0  0
    4.7517    3.8979   22.1236 C   0  0  0  0  0  0  0  0  0  0  0  0
    3.3502    3.9663   22.0513 C   0  0  0  0  0  0  0  0  0  0  0  0
    2.6323    3.2368   22.9916 C   0  0  0  0  0  0  0  0  0  0  0  0
    3.2940    2.4359   23.9482 C   0  0  0  0  0  0  0  0  0  0  0  0
    4.6749    2.2331   23.9090 C   0  0  0  0  0  0  0  0  0  0  0  0
    5.3103    1.1704   24.7600 C   0  0  0  0  0  0  0  0  0  0  0  0
    4.5496    0.5640   25.2620 H   0  0  0  0  0  0  0  0  0  0  0  0
    5.9676    1.5914   25.5297 H   0  0  0  0  0  0  0  0  0  0  0  0
    5.9076    0.5080   24.1240 H   0  0  0  0  0  0  0  0  0  0  0  0
    5.4389    3.0160   23.0010 C   0  0  0  0  0  0  0  0  0  0  0  0
    2.7040    1.9082   24.6999 H   0  0  0  0  0  0  0  0  0  0  0  0
    1.5445    3.2759   22.9825 H   0  0  0  0  0  0  0  0  0  0  0  0
    2.8612    4.5561   21.2805 H   0  0  0  0  0  0  0  0  0  0  0  0
    5.4797    5.1878   20.6495 H   0  0  0  0  0  0  0  0  0  0  0  0
    7.8460    4.6507   21.3958 H   0  0  0  0  0  0  0  0  0  0  0  0
    8.9181    2.8877   23.2369 H   0  0  0  0  0  0  0  0  0  0  0  0
    7.8284    1.7791   24.0785 H   0  0  0  0  0  0  0  0  0  0  0  0
    6.6774    0.0685   19.9158 C   0  0  0  0  0  0  0  0  0  0  0  0
    5.4562    0.7156   20.1547 C   0  0  0  0  0  0  0  0  0  0  0  0
    4.8153    1.3441   19.0874 C   0  0  0  0  0  0  0  0  0  0  0  0
    5.4156    1.3046   17.8219 C   0  0  0  0  0  0  0  0  0  0  0  0
    6.5757    0.6858   17.5730 N   0  0  0  0  0  0  0  0  0  0  0  0
    7.1793    0.0939   18.6150 C   0  0  0  0  0  0  0  0  0  0  0  0
    8.1287   -0.3976   18.3990 H   0  0  0  0  0  0  0  0  0  0  0  0
    4.9285    1.7778   16.9717 H   0  0  0  0  0  0  0  0  0  0  0  0
    3.8698    1.8585   19.2176 H   0  0  0  0  0  0  0  0  0  0  0  0
    5.0231    0.7495   21.1605 H   0  0  0  0  0  0  0  0  0  0  0  0
    8.4488   -0.9133   20.6484 H   0  0  0  0  0  0  0  0  0  0  0  0
    6.5653   -2.5559   20.4956 H   0  0  0  0  0  0  0  0  0  0  0  0
    5.7300   -1.6965   21.7686 H   0  0  0  0  0  0  0  0  0  0  0  0
    6.8984   -3.7254   22.6441 H   0  0  0  0  0  0  0  0  0  0  0  0
    8.4621   -3.0785   22.0991 H   0  0  0  0  0  0  0  0  0  0  0  0
    7.5594   -2.2550   23.3818 H   0  0  0  0  0  0  0  0  0  0  0  0
  1  2  1  0
  2  3  1  0
  3  4  1  0
  4  5  1  0
  5  6  2  0
  5  7  1  0
  7  8  1  0
  8  9  2  0
  9 10  1  0
 10 11  1  0
 11 12  2  0
 12 13  1  0
 13 14  2  0
 14 15  1  0
 15 16  1  0
 16 17  1  0
 16 18  1  0
 16 19  1  0
 15 20  2  0
 14 21  1  0
 13 22  1  0
 12 23  1  0
 10 24  1  0
  9 25  1  0
  7 26  1  0
  7 27  1  0
  3 28  1  0
 28 29  2  0
 29 30  1  0
 30 31  2  0
 31 32  1  0
 32 33  2  0
 33 34  1  0
 31 35  1  0
 30 36  1  0
 29 37  1  0
  3 38  1  0
  2 39  1  0
  2 40  1  0
  1 41  1  0
  1 42  1  0
  1 43  1  0
 20  8  1  0
 33 28  1  0
 20 11  1  0
M  END
>  <plip>  (1) 
-0.14285714285714285

>  <filename>  (1) 
[H][c]1[n][c]([H])[c]([C]([H])([O][C](=[O])[C]([H])([H])[c]2[c]([H])[n]([H])[c]3[c]([H])[c]([H])[c]([H])[c]([C]([H])([H])[H])[c]23)[C]([H])([H])[C]([H])([H])[H])[c]([H])[c]1[H]

$$$$
