
     RDKit          3D

 27 29  0  0  0  0  0  0  0  0999 V2000
    5.7788   -1.2591   22.2043 H   0  0  0  0  0  0  0  0  0  0  0  0
    6.8436   -1.2015   22.0439 C   0  0  0  0  0  0  0  0  0  0  0  0
    7.3938   -0.6775   20.9543 C   0  0  0  0  0  0  0  0  0  0  0  0
    6.6651    0.0173   19.8926 C   0  0  0  0  0  0  0  0  0  0  0  0
    7.1685    0.0766   18.5804 C   0  0  0  0  0  0  0  0  0  0  0  0
    8.1139   -0.4141   18.3575 H   0  0  0  0  0  0  0  0  0  0  0  0
    6.5603    0.6826   17.5569 N   0  0  0  0  0  0  0  0  0  0  0  0
    5.3979    1.2975   17.8265 C   0  0  0  0  0  0  0  0  0  0  0  0
    4.9162    1.7881   16.9870 H   0  0  0  0  0  0  0  0  0  0  0  0
    4.8030    1.3134   19.0954 C   0  0  0  0  0  0  0  0  0  0  0  0
    3.8718    1.8437   19.2524 H   0  0  0  0  0  0  0  0  0  0  0  0
    5.4335    0.6536   20.1467 C   0  0  0  0  0  0  0  0  0  0  0  0
    5.0082    0.6495   21.1556 H   0  0  0  0  0  0  0  0  0  0  0  0
    8.8886   -0.9279   20.9335 C   0  0  0  0  0  0  0  0  0  0  0  0
    9.4390   -0.0061   20.7251 H   0  0  0  0  0  0  0  0  0  0  0  0
    9.1464   -1.6366   20.1367 H   0  0  0  0  0  0  0  0  0  0  0  0
    9.1942   -1.5056   22.3372 C   0  0  0  0  0  0  0  0  0  0  0  0
    9.8767   -2.3567   22.2898 H   0  0  0  0  0  0  0  0  0  0  0  0
    9.6626   -0.7425   22.9659 H   0  0  0  0  0  0  0  0  0  0  0  0
    7.8136   -1.9082   22.9458 C   0  0  2  0  0  0  0  0  0  0  0  0
    7.6975   -1.5675   23.9785 H   0  0  0  0  0  0  0  0  0  0  0  0
    7.5840   -3.3965   22.9897 C   0  0  0  0  0  0  0  0  0  0  0  0
    7.5932   -4.1931   21.8890 N   0  0  0  0  0  0  0  0  0  0  0  0
    7.3836   -5.4070   22.3055 N   0  0  0  0  0  0  0  0  0  0  0  0
    7.2623   -5.3152   23.6120 N   0  0  0  0  0  0  0  0  0  0  0  0
    7.1011   -6.1282   24.1878 H   0  0  0  0  0  0  0  0  0  0  0  0
    7.3765   -4.0902   24.0976 N   0  0  0  0  0  0  0  0  0  0  0  0
  1  2  1  0
  2  3  2  0
  3  4  1  0
  4  5  2  0
  5  6  1  0
  5  7  1  0
  7  8  2  0
  8  9  1  0
  8 10  1  0
 10 11  1  0
 10 12  2  0
 12 13  1  0
  3 14  1  0
 14 15  1  0
 14 16  1  0
 14 17  1  0
 17 18  1  0
 17 19  1  0
 17 20  1  0
 20 21  1  1
 20 22  1  0
 22 23  1  0
 23 24  2  0
 24 25  1  0
 25 26  1  0
 25 27  1  0
 20  2  1  0
 27 22  2  0
 12  4  1  0
M  END
>  <plip>  (1) 
-0.034482758620689655

>  <filename>  (1) 
[H][C]1=[C]([c]2[c]([H])[n][c]([H])[c]([H])[c]2[H])[C]([H])([H])[C]([H])([H])[C@]1([H])[c]1[n][n][n]([H])[n]1

$$$$
