
     RDKit          3D

 28 29  0  0  0  0  0  0  0  0999 V2000
    6.9808   -0.4866   22.4960 O   0  0  0  0  0  0  0  0  0  0  0  0
    7.5865   -0.6613   21.2008 S   0  0  0  0  0  0  0  0  0  0  0  0
    8.1225   -1.9449   20.7808 O   0  0  0  0  0  0  0  0  0  0  0  0
    8.9474    0.2415   21.0672 N   0  0  0  0  0  0  0  0  0  0  0  0
    8.9238    1.4709   21.6799 C   0  0  0  0  0  0  0  0  0  0  0  0
    7.7644    2.0922   21.7792 N   0  0  0  0  0  0  0  0  0  0  0  0
    7.7929    3.3732   22.1962 C   0  0  0  0  0  0  0  0  0  0  0  0
    6.4367    4.0804   22.2390 C   0  0  0  0  0  0  0  0  0  0  0  0
    6.1986    4.6226   23.4698 F   0  0  0  0  0  0  0  0  0  0  0  0
    6.4180    5.1162   21.3492 F   0  0  0  0  0  0  0  0  0  0  0  0
    5.6352    3.3708   21.9917 H   0  0  0  0  0  0  0  0  0  0  0  0
    8.9746    4.0399   22.5218 C   0  0  0  0  0  0  0  0  0  0  0  0
   10.1932    3.3379   22.4634 C   0  0  0  0  0  0  0  0  0  0  0  0
   10.1616    2.0101   22.0593 C   0  0  0  0  0  0  0  0  0  0  0  0
   11.0398    1.3880   21.9568 H   0  0  0  0  0  0  0  0  0  0  0  0
   11.1320    3.8545   22.6740 H   0  0  0  0  0  0  0  0  0  0  0  0
    8.9296    5.0956   22.7497 H   0  0  0  0  0  0  0  0  0  0  0  0
    9.5843   -0.4259   21.4545 H   0  0  0  0  0  0  0  0  0  0  0  0
    6.6394    0.0766   19.9832 C   0  0  0  0  0  0  0  0  0  0  0  0
    5.4164    0.7050   20.2204 C   0  0  0  0  0  0  0  0  0  0  0  0
    4.8235    1.3165   19.1193 C   0  0  0  0  0  0  0  0  0  0  0  0
    5.4756    1.2683   17.8821 C   0  0  0  0  0  0  0  0  0  0  0  0
    6.6543    0.6554   17.6886 N   0  0  0  0  0  0  0  0  0  0  0  0
    7.2353    0.0779   18.7362 C   0  0  0  0  0  0  0  0  0  0  0  0
    8.1858   -0.4185   18.5464 H   0  0  0  0  0  0  0  0  0  0  0  0
    5.0288    1.7364   17.0071 H   0  0  0  0  0  0  0  0  0  0  0  0
    3.8729    1.8332   19.2017 H   0  0  0  0  0  0  0  0  0  0  0  0
    4.9700    0.7376   21.2188 H   0  0  0  0  0  0  0  0  0  0  0  0
  1  2  2  0
  2  3  2  0
  2  4  1  0
  4  5  1  0
  5  6  2  0
  6  7  1  0
  7  8  1  0
  8  9  1  0
  8 10  1  0
  8 11  1  0
  7 12  2  0
 12 13  1  0
 13 14  2  0
 14 15  1  0
 13 16  1  0
 12 17  1  0
  4 18  1  0
  2 19  1  0
 19 20  2  0
 20 21  1  0
 21 22  2  0
 22 23  1  0
 23 24  2  0
 24 25  1  0
 22 26  1  0
 21 27  1  0
 20 28  1  0
 14  5  1  0
 24 19  1  0
M  END
>  <plip>  (1) 
-0.06666666666666667

>  <filename>  (1) 
[H][c]1[n][c]([H])[c]([S](=[O])(=[O])[N]([H])[c]2[n][c]([C]([H])([F])[F])[c]([H])[c]([H])[c]2[H])[c]([H])[c]1[H]

$$$$
