
     RDKit          3D

 26 27  0  0  0  0  0  0  0  0999 V2000
    4.9129    1.7859   16.9938 H   0  0  0  0  0  0  0  0  0  0  0  0
    5.4000    1.2966   17.8348 C   0  0  0  0  0  0  0  0  0  0  0  0
    6.5640    0.6812   17.5692 N   0  0  0  0  0  0  0  0  0  0  0  0
    7.1698    0.0563   18.5897 C   0  0  0  0  0  0  0  0  0  0  0  0
    8.1179   -0.4296   18.3664 H   0  0  0  0  0  0  0  0  0  0  0  0
    6.6651    0.0113   19.9136 C   0  0  0  0  0  0  0  0  0  0  0  0
    7.3559   -0.6470   20.9712 N   0  0  0  0  0  0  0  0  0  0  0  0
    7.4944   -0.0979   22.2312 C   0  0  0  0  0  0  0  0  0  0  0  0
    7.3673   -0.7768   23.3486 N   0  0  0  0  0  0  0  0  0  0  0  0
    7.5768    0.1443   24.3381 C   0  0  0  0  0  0  0  0  0  0  0  0
    7.5209   -0.1205   25.3833 H   0  0  0  0  0  0  0  0  0  0  0  0
    7.8770    1.3669   23.8194 C   0  0  0  0  0  0  0  0  0  0  0  0
    8.1184    2.3084   24.2861 H   0  0  0  0  0  0  0  0  0  0  0  0
    7.8396    1.2132   22.4491 N   0  0  0  0  0  0  0  0  0  0  0  0
    8.1218    2.2483   21.4697 C   0  0  0  0  0  0  0  0  0  0  0  0
    8.7243    3.0269   21.9401 H   0  0  0  0  0  0  0  0  0  0  0  0
    8.6932    1.8432   20.6311 H   0  0  0  0  0  0  0  0  0  0  0  0
    7.2029    2.7051   21.0862 H   0  0  0  0  0  0  0  0  0  0  0  0
    7.9133   -1.9655   20.7385 C   0  0  0  0  0  0  0  0  0  0  0  0
    7.8252   -2.6188   21.6141 H   0  0  0  0  0  0  0  0  0  0  0  0
    7.2904   -2.3913   19.9538 H   0  0  0  0  0  0  0  0  0  0  0  0
    8.9769   -1.9265   20.4350 H   0  0  0  0  0  0  0  0  0  0  0  0
    5.4458    0.6543   20.1686 C   0  0  0  0  0  0  0  0  0  0  0  0
    5.0265    0.6248   21.1783 H   0  0  0  0  0  0  0  0  0  0  0  0
    4.8108    1.3111   19.1061 C   0  0  0  0  0  0  0  0  0  0  0  0
    3.8786    1.8402   19.2589 H   0  0  0  0  0  0  0  0  0  0  0  0
  1  2  1  0
  2  3  2  0
  3  4  1  0
  4  5  1  0
  4  6  2  0
  6  7  1  0
  7  8  1  0
  8  9  2  0
  9 10  1  0
 10 11  1  0
 10 12  2  0
 12 13  1  0
 12 14  1  0
 14 15  1  0
 15 16  1  0
 15 17  1  0
 15 18  1  0
  7 19  1  0
 19 20  1  0
 19 21  1  0
 19 22  1  0
  6 23  1  0
 23 24  1  0
 23 25  2  0
 25 26  1  0
 25  2  1  0
 14  8  1  0
M  END
>  <plip>  (1) 
-0.03571428571428571

>  <filename>  (1) 
[H][c]1[n][c]([H])[c]([N]([c]2[n][c]([H])[c]([H])[n]2[C]([H])([H])[H])[C]([H])([H])[H])[c]([H])[c]1[H]

$$$$
