
     RDKit          3D

 37 39  0  0  0  0  0  0  0  0999 V2000
    4.8272    1.4071   18.8892 C   0  0  0  0  0  0  0  0  0  0  0  0
    5.4003    1.3857   17.6147 C   0  0  0  0  0  0  0  0  0  0  0  0
    6.5420    0.7390   17.3322 N   0  0  0  0  0  0  0  0  0  0  0  0
    7.1735    0.1304   18.3369 C   0  0  0  0  0  0  0  0  0  0  0  0
    6.7177    0.1476   19.6564 C   0  0  0  0  0  0  0  0  0  0  0  0
    7.4803   -0.4733   20.7335 C   0  0  0  0  0  0  0  0  0  0  0  0
    6.9643   -0.7767   21.9018 N   0  0  0  0  0  0  0  0  0  0  0  0
    7.9911   -1.3582   22.5611 C   0  0  0  0  0  0  0  0  0  0  0  0
    7.7490   -2.0998   24.1340 S   0  0  0  0  0  0  0  0  0  0  0  0
    6.8370   -3.5978   23.5769 C   0  0  0  0  0  0  0  0  0  0  0  0
    6.3430   -4.4295   24.7498 C   0  0  0  0  0  0  0  0  0  0  0  0
    7.4501   -5.1484   25.4214 N   0  0  0  0  0  4  0  0  0  0  0  0
    7.0598   -6.0759   26.5305 C   0  0  0  0  0  0  0  0  0  0  0  0
    8.4207   -6.5639   26.9937 C   0  0  0  0  0  0  0  0  0  0  0  0
    9.3126   -5.3102   26.9585 C   0  0  0  0  0  0  0  0  0  0  0  0
    8.5451   -4.3120   26.0832 C   0  0  0  0  0  0  0  0  0  0  0  0
    8.0578   -3.5482   26.7005 H   0  0  0  0  0  0  0  0  0  0  0  0
    9.1531   -3.8135   25.3287 H   0  0  0  0  0  0  0  0  0  0  0  0
    9.4624   -4.8831   27.9523 H   0  0  0  0  0  0  0  0  0  0  0  0
   10.3050   -5.5389   26.5535 H   0  0  0  0  0  0  0  0  0  0  0  0
    8.7925   -7.2821   26.2469 H   0  0  0  0  0  0  0  0  0  0  0  0
    8.3666   -7.0446   27.9762 H   0  0  0  0  0  0  0  0  0  0  0  0
    6.5397   -5.5016   27.3107 H   0  0  0  0  0  0  0  0  0  0  0  0
    6.3810   -6.8618   26.1873 H   0  0  0  0  0  0  0  0  0  0  0  0
    7.9210   -5.7499   24.7085 H   0  0  0  0  0  0  0  0  0  0  0  0
    5.6043   -5.1529   24.3702 H   0  0  0  0  0  0  0  0  0  0  0  0
    5.8157   -3.7849   25.4666 H   0  0  0  0  0  0  0  0  0  0  0  0
    7.4953   -4.1909   22.9342 H   0  0  0  0  0  0  0  0  0  0  0  0
    5.9957   -3.2448   22.9764 H   0  0  0  0  0  0  0  0  0  0  0  0
    9.1246   -1.4203   21.8908 N   0  0  0  0  0  0  0  0  0  0  0  0
    8.7713   -0.8435   20.7156 N   0  0  0  0  0  0  0  0  0  0  0  0
    9.4375   -0.7421   19.9660 H   0  0  0  0  0  0  0  0  0  0  0  0
    5.4900    0.7693   19.9302 C   0  0  0  0  0  0  0  0  0  0  0  0
    5.0777    0.7359   20.9410 H   0  0  0  0  0  0  0  0  0  0  0  0
    8.0762   -0.4087   18.0493 H   0  0  0  0  0  0  0  0  0  0  0  0
    4.9234    1.9019   16.7844 H   0  0  0  0  0  0  0  0  0  0  0  0
    3.8910    1.9287   19.0523 H   0  0  0  0  0  0  0  0  0  0  0  0
  1  2  2  0
  2  3  1  0
  3  4  2  0
  4  5  1  0
  5  6  1  0
  6  7  2  0
  7  8  1  0
  8  9  1  0
  9 10  1  0
 10 11  1  0
 11 12  1  0
 12 13  1  0
 13 14  1  0
 14 15  1  0
 15 16  1  0
 16 17  1  0
 16 18  1  0
 15 19  1  0
 15 20  1  0
 14 21  1  0
 14 22  1  0
 13 23  1  0
 13 24  1  0
 12 25  1  0
 11 26  1  0
 11 27  1  0
 10 28  1  0
 10 29  1  0
  8 30  2  0
 30 31  1  0
 31 32  1  0
  5 33  2  0
 33 34  1  0
  4 35  1  0
  2 36  1  0
  1 37  1  0
 33  1  1  0
 31  6  1  0
 16 12  1  0
M  CHG  1  12   1
M  END
>  <plip>  (1) 
-0.10344827586206896

>  <filename>  (1) 
[H][c]1[n][c]([H])[c](-[c]2[n][c]([S][C]([H])([H])[C]([H])([H])[N+]3([H])[C]([H])([H])[C]([H])([H])[C]([H])([H])[C]3([H])[H])[n][n]2[H])[c]([H])[c]1[H]

$$$$
