
     RDKit          3D

 28 30  0  0  0  0  0  0  0  0999 V2000
    9.2911    0.4582   20.5478 O   0  0  0  0  0  0  0  0  0  0  0  0
    8.4339   -0.1462   21.1643 C   0  0  0  0  0  0  0  0  0  0  0  0
    7.1089   -0.2054   20.7841 N   0  0  0  0  0  0  0  0  0  0  0  0
    6.4829    0.3413   19.6463 C   0  0  0  0  0  0  0  0  0  0  0  0
    5.2167    0.9185   19.8013 C   0  0  0  0  0  0  0  0  0  0  0  0
    4.5995    1.4796   18.6780 C   0  0  0  0  0  0  0  0  0  0  0  0
    5.2669    1.4365   17.4491 C   0  0  0  0  0  0  0  0  0  0  0  0
    6.4565    0.8394   17.2730 N   0  0  0  0  0  0  0  0  0  0  0  0
    7.0474    0.3101   18.3524 C   0  0  0  0  0  0  0  0  0  0  0  0
    8.0140   -0.1677   18.2134 H   0  0  0  0  0  0  0  0  0  0  0  0
    4.8394    1.8915   16.5612 H   0  0  0  0  0  0  0  0  0  0  0  0
    3.6266    1.9535   18.7474 H   0  0  0  0  0  0  0  0  0  0  0  0
    4.7460    0.9490   20.7837 H   0  0  0  0  0  0  0  0  0  0  0  0
    6.4786   -0.4893   21.5135 H   0  0  0  0  0  0  0  0  0  0  0  0
    8.7415   -0.9629   22.3901 C   0  0  0  0  0  0  0  0  0  0  0  0
    9.9606   -1.6477   22.5126 C   0  0  0  0  0  0  0  0  0  0  0  0
   10.1440   -2.5473   23.5797 C   0  0  0  0  0  0  0  0  0  0  0  0
    9.1116   -2.6779   24.5262 C   0  0  0  0  0  0  0  0  0  0  0  0
    7.9301   -1.9377   24.5167 C   0  0  0  0  0  0  0  0  0  0  0  0
    7.7912   -1.1021   23.4314 C   0  0  0  0  0  0  0  0  0  0  0  0
    6.6631   -0.3541   23.3870 F   0  0  0  0  0  0  0  0  0  0  0  0
    7.1589   -2.0080   25.2763 H   0  0  0  0  0  0  0  0  0  0  0  0
    9.4154   -3.6212   25.4434 O   0  0  0  0  0  0  0  0  0  0  0  0
   10.6423   -4.1155   25.0997 C   0  0  0  0  0  0  0  0  0  0  0  0
   11.1388   -3.5180   23.9976 C   0  0  0  0  0  0  0  0  0  0  0  0
   12.1005   -3.7100   23.5446 H   0  0  0  0  0  0  0  0  0  0  0  0
   11.0355   -4.8652   25.7737 H   0  0  0  0  0  0  0  0  0  0  0  0
   10.7365   -1.5025   21.7624 H   0  0  0  0  0  0  0  0  0  0  0  0
  1  2  2  0
  2  3  1  0
  3  4  1  0
  4  5  2  0
  5  6  1  0
  6  7  2  0
  7  8  1  0
  8  9  2  0
  9 10  1  0
  7 11  1  0
  6 12  1  0
  5 13  1  0
  3 14  1  0
  2 15  1  0
 15 16  2  0
 16 17  1  0
 17 18  2  0
 18 19  1  0
 19 20  2  0
 20 21  1  0
 19 22  1  0
 18 23  1  0
 23 24  1  0
 24 25  2  0
 25 26  1  0
 24 27  1  0
 16 28  1  0
  9  4  1  0
 20 15  1  0
 25 17  1  0
M  END
>  <plip>  (1) 
-0.14285714285714285

>  <filename>  (1) 
[H][c]1[n][c]([H])[c]([N]([H])[C](=[O])[c]2[c]([F])[c]([H])[c]3[o][c]([H])[c]([H])[c]3[c]2[H])[c]([H])[c]1[H]

$$$$
