
     RDKit          3D

 40 43  0  0  0  0  0  0  0  0999 V2000
    5.1829   -0.8892   29.8231 C   0  0  0  0  0  0  0  0  0  0  0  0
    4.2624   -0.0097   28.9661 C   0  0  0  0  0  0  0  0  0  0  0  0
    3.4508   -0.8239   27.9407 C   0  0  0  0  0  0  0  0  0  0  0  0
    4.4045   -1.0377   26.7468 C   0  0  0  0  0  0  0  0  0  0  0  0
    5.2680    0.2107   26.7475 C   0  0  0  0  0  0  0  0  0  0  0  0
    6.0355    0.6547   25.7440 C   0  0  0  0  0  0  0  0  0  0  0  0
    6.3615   -0.0609   24.5084 C   0  0  0  0  0  0  0  0  0  0  0  0
    6.7267    0.4958   23.3874 N   0  0  0  0  0  0  0  0  0  0  0  0
    6.9547   -0.5912   22.5737 C   0  0  0  0  0  0  0  0  0  0  0  0
    7.5418   -0.4452   21.1781 C   0  0  0  0  0  0  0  0  0  0  0  0
    6.7457    0.2383   20.0754 C   0  0  0  0  0  0  0  0  0  0  0  0
    5.4760    0.8007   20.2866 C   0  0  0  0  0  0  0  0  0  0  0  0
    4.7887    1.3560   19.2028 C   0  0  0  0  0  0  0  0  0  0  0  0
    5.3793    1.3582   17.9362 C   0  0  0  0  0  0  0  0  0  0  0  0
    6.6024    0.8580   17.7075 N   0  0  0  0  0  0  0  0  0  0  0  0
    7.2578    0.3436   18.7524 C   0  0  0  0  0  0  0  0  0  0  0  0
    8.2652    0.0047   18.5169 H   0  0  0  0  0  0  0  0  0  0  0  0
    4.8606    1.7782   17.0766 H   0  0  0  0  0  0  0  0  0  0  0  0
    3.8112    1.8059   19.3262 H   0  0  0  0  0  0  0  0  0  0  0  0
    5.0495    0.8370   21.2926 H   0  0  0  0  0  0  0  0  0  0  0  0
    8.5517   -1.4902   20.7279 C   0  0  0  0  0  0  0  0  0  0  0  0
    9.0532   -0.1864   21.2290 C   0  0  0  0  0  0  0  0  0  0  0  0
    9.4638    0.5376   20.5317 H   0  0  0  0  0  0  0  0  0  0  0  0
    9.5270   -0.1669   22.2063 H   0  0  0  0  0  0  0  0  0  0  0  0
    8.6932   -2.3798   21.3326 H   0  0  0  0  0  0  0  0  0  0  0  0
    8.6437   -1.6484   19.6623 H   0  0  0  0  0  0  0  0  0  0  0  0
    6.7651   -1.7443   23.1609 N   0  0  0  0  0  0  0  0  0  0  0  0
    6.3365   -1.3959   24.4382 O   0  0  0  0  0  0  0  0  0  0  0  0
    6.4632    1.6568   25.7467 H   0  0  0  0  0  0  0  0  0  0  0  0
    5.0334    0.9686   28.0469 C   0  0  0  0  0  0  0  0  0  0  0  0
    5.9674    1.3239   28.4957 H   0  0  0  0  0  0  0  0  0  0  0  0
    4.4169    1.8571   27.8399 H   0  0  0  0  0  0  0  0  0  0  0  0
    3.8729   -1.1891   25.7989 H   0  0  0  0  0  0  0  0  0  0  0  0
    5.0437   -1.9177   26.8905 H   0  0  0  0  0  0  0  0  0  0  0  0
    2.5973   -0.2158   27.6112 H   0  0  0  0  0  0  0  0  0  0  0  0
    3.0433   -1.7540   28.3574 H   0  0  0  0  0  0  0  0  0  0  0  0
    3.5959    0.5411   29.6442 H   0  0  0  0  0  0  0  0  0  0  0  0
    5.8301   -0.2833   30.4690 H   0  0  0  0  0  0  0  0  0  0  0  0
    5.8343   -1.5022   29.1914 H   0  0  0  0  0  0  0  0  0  0  0  0
    4.6052   -1.5708   30.4610 H   0  0  0  0  0  0  0  0  0  0  0  0
  1  2  1  0
  2  3  1  0
  3  4  1  0
  4  5  1  0
  5  6  2  3
  6  7  1  0
  7  8  2  0
  8  9  1  0
  9 10  1  0
 10 11  1  0
 11 12  2  0
 12 13  1  0
 13 14  2  0
 14 15  1  0
 15 16  2  0
 16 17  1  0
 14 18  1  0
 13 19  1  0
 12 20  1  0
 10 21  1  0
 21 22  1  0
 22 23  1  0
 22 24  1  0
 21 25  1  0
 21 26  1  0
  9 27  2  0
 27 28  1  0
  6 29  1  0
  5 30  1  0
 30 31  1  0
 30 32  1  0
  4 33  1  0
  4 34  1  0
  3 35  1  0
  3 36  1  0
  2 37  1  0
  1 38  1  0
  1 39  1  0
  1 40  1  0
 30  2  1  0
 28  7  1  0
 22 10  1  0
 16 11  1  0
M  END
>  <plip>  (1) 
-0.03571428571428571

>  <filename>  (1) 
[H][C](=[C]1[C]([H])([H])[C]([H])([H])[C]([H])([C]([H])([H])[H])[C]1([H])[H])[c]1[n][c]([C]2([c]3[c]([H])[n][c]([H])[c]([H])[c]3[H])[C]([H])([H])[C]2([H])[H])[n][o]1

$$$$
