
     RDKit          3D

 41 43  0  0  0  0  0  0  0  0999 V2000
    5.6443   -2.5652   21.5405 S   0  0  0  0  0  0  0  0  0  0  0  0
    6.9120   -1.5497   21.9300 C   0  0  0  0  0  0  0  0  0  0  0  0
    7.4075   -0.6396   21.0322 N   0  0  0  0  0  0  0  0  0  0  0  0
    6.6835   -0.0160   19.9796 C   0  0  0  0  0  0  0  0  0  0  0  0
    5.4481    0.6032   20.2010 C   0  0  0  0  0  0  0  0  0  0  0  0
    4.8475    1.2538   19.1191 C   0  0  0  0  0  0  0  0  0  0  0  0
    5.4715    1.2407   17.8685 C   0  0  0  0  0  0  0  0  0  0  0  0
    6.6408    0.6200   17.6419 N   0  0  0  0  0  0  0  0  0  0  0  0
    7.2209    0.0105   18.6819 C   0  0  0  0  0  0  0  0  0  0  0  0
    8.1693   -0.4930   18.5069 H   0  0  0  0  0  0  0  0  0  0  0  0
    5.0194    1.7410   17.0127 H   0  0  0  0  0  0  0  0  0  0  0  0
    3.9070    1.7773   19.2361 H   0  0  0  0  0  0  0  0  0  0  0  0
    5.0048    0.5807   21.1986 H   0  0  0  0  0  0  0  0  0  0  0  0
    8.3549   -0.3387   21.2081 H   0  0  0  0  0  0  0  0  0  0  0  0
    7.5614   -1.5438   23.1201 N   0  0  0  0  0  0  0  0  0  0  0  0
    8.5297   -0.5231   23.5505 C   0  0  0  0  0  0  0  0  0  0  0  0
    8.5352   -0.5964   25.0814 C   0  0  0  0  0  0  0  0  0  0  0  0
    8.0090   -1.9963   25.4072 C   0  0  0  0  0  0  0  0  0  0  0  0
    7.0992   -2.3906   24.2288 C   0  0  0  0  0  0  0  0  0  0  0  0
    7.2127   -3.8547   23.8758 C   0  0  0  0  0  0  0  0  0  0  0  0
    6.9242   -4.8614   24.7039 C   0  0  0  0  0  0  0  0  0  0  0  0
    6.2831   -4.7357   26.0364 C   0  0  0  0  0  0  0  0  0  0  0  0
    6.9188   -5.2869   27.1634 C   0  0  0  0  0  0  0  0  0  0  0  0
    6.3406   -5.1902   28.4322 C   0  0  0  0  0  0  0  0  0  0  0  0
    5.0999   -4.5584   28.5863 C   0  0  0  0  0  0  0  0  0  0  0  0
    4.4431   -4.0302   27.4697 C   0  0  0  0  0  0  0  0  0  0  0  0
    5.0358   -4.1108   26.2034 C   0  0  0  0  0  0  0  0  0  0  0  0
    4.5172   -3.7095   25.3344 H   0  0  0  0  0  0  0  0  0  0  0  0
    3.4711   -3.5579   27.5796 H   0  0  0  0  0  0  0  0  0  0  0  0
    4.6426   -4.4928   29.5691 H   0  0  0  0  0  0  0  0  0  0  0  0
    6.8505   -5.6150   29.2932 H   0  0  0  0  0  0  0  0  0  0  0  0
    7.8765   -5.7904   27.0392 H   0  0  0  0  0  0  0  0  0  0  0  0
    7.2248   -5.8663   24.4065 H   0  0  0  0  0  0  0  0  0  0  0  0
    7.6162   -4.0702   22.8893 H   0  0  0  0  0  0  0  0  0  0  0  0
    6.0494   -2.1443   24.4675 H   0  0  0  0  0  0  0  0  0  0  0  0
    8.8460   -2.7011   25.4699 H   0  0  0  0  0  0  0  0  0  0  0  0
    7.4620   -2.0585   26.3530 H   0  0  0  0  0  0  0  0  0  0  0  0
    7.8973    0.1880   25.5069 H   0  0  0  0  0  0  0  0  0  0  0  0
    9.5467   -0.4446   25.4729 H   0  0  0  0  0  0  0  0  0  0  0  0
    8.2241    0.4736   23.2074 H   0  0  0  0  0  0  0  0  0  0  0  0
    9.5213   -0.7466   23.1326 H   0  0  0  0  0  0  0  0  0  0  0  0
  1  2  2  0
  2  3  1  0
  3  4  1  0
  4  5  2  0
  5  6  1  0
  6  7  2  0
  7  8  1  0
  8  9  2  0
  9 10  1  0
  7 11  1  0
  6 12  1  0
  5 13  1  0
  3 14  1  0
  2 15  1  0
 15 16  1  0
 16 17  1  0
 17 18  1  0
 18 19  1  0
 19 20  1  0
 20 21  2  3
 21 22  1  0
 22 23  2  0
 23 24  1  0
 24 25  2  0
 25 26  1  0
 26 27  2  0
 27 28  1  0
 26 29  1  0
 25 30  1  0
 24 31  1  0
 23 32  1  0
 21 33  1  0
 20 34  1  0
 19 35  1  0
 18 36  1  0
 18 37  1  0
 17 38  1  0
 17 39  1  0
 16 40  1  0
 16 41  1  0
  9  4  1  0
 19 15  1  0
 27 22  1  0
M  END
>  <plip>  (1) 
-0.03571428571428571

>  <filename>  (1) 
[H][C](=[C]([H])[C]1([H])[N]([C](=[S])[N]([H])[c]2[c]([H])[n][c]([H])[c]([H])[c]2[H])[C]([H])([H])[C]([H])([H])[C]1([H])[H])[c]1[c]([H])[c]([H])[c]([H])[c]([H])[c]1[H]

$$$$
