
     RDKit          3D

 27 28  0  0  0  0  0  0  0  0999 V2000
    4.9049    1.7703   17.0083 H   0  0  0  0  0  0  0  0  0  0  0  0
    5.4005    1.2904   17.8486 C   0  0  0  0  0  0  0  0  0  0  0  0
    6.5700    0.6822   17.5891 N   0  0  0  0  0  0  0  0  0  0  0  0
    7.1804    0.0587   18.6048 C   0  0  0  0  0  0  0  0  0  0  0  0
    8.1303   -0.4377   18.3830 H   0  0  0  0  0  0  0  0  0  0  0  0
    6.6520    0.0015   19.9046 C   0  0  0  0  0  0  0  0  0  0  0  0
    7.4582   -0.6856   20.9871 C   0  0  1  0  0  0  0  0  0  0  0  0
    7.9347   -1.8801   20.4264 F   0  0  0  0  0  0  0  0  0  0  0  0
    8.6483    0.1888   21.3929 C   0  0  0  0  0  0  0  0  0  0  0  0
    9.9572   -0.3106   21.3972 C   0  0  0  0  0  0  0  0  0  0  0  0
   10.1604   -1.3299   21.0812 H   0  0  0  0  0  0  0  0  0  0  0  0
   11.0206    0.4975   21.8069 C   0  0  0  0  0  0  0  0  0  0  0  0
   12.0304    0.1056   21.8026 H   0  0  0  0  0  0  0  0  0  0  0  0
   10.7866    1.8039   22.2238 C   0  0  0  0  0  0  0  0  0  0  0  0
   11.8107    2.5753   22.6170 F   0  0  0  0  0  0  0  0  0  0  0  0
    9.4812    2.3102   22.2369 C   0  0  0  0  0  0  0  0  0  0  0  0
    9.2558    3.5675   22.6475 F   0  0  0  0  0  0  0  0  0  0  0  0
    8.4191    1.5084   21.8321 C   0  0  0  0  0  0  0  0  0  0  0  0
    7.4129    1.9247   21.8567 H   0  0  0  0  0  0  0  0  0  0  0  0
    6.6425   -1.0938   22.2113 C   0  0  0  0  0  0  0  0  0  0  0  0
    5.7592   -1.6638   21.9071 H   0  0  0  0  0  0  0  0  0  0  0  0
    6.3352   -0.2143   22.7866 H   0  0  0  0  0  0  0  0  0  0  0  0
    7.2565   -1.7216   22.8607 H   0  0  0  0  0  0  0  0  0  0  0  0
    5.4444    0.6525   20.1559 C   0  0  0  0  0  0  0  0  0  0  0  0
    5.0061    0.6306   21.1519 H   0  0  0  0  0  0  0  0  0  0  0  0
    4.8037    1.3132   19.1115 C   0  0  0  0  0  0  0  0  0  0  0  0
    3.8715    1.8459   19.2685 H   0  0  0  0  0  0  0  0  0  0  0  0
  1  2  1  0
  2  3  2  0
  3  4  1  0
  4  5  1  0
  4  6  2  0
  6  7  1  0
  7  8  1  6
  7  9  1  0
  9 10  2  0
 10 11  1  0
 10 12  1  0
 12 13  1  0
 12 14  2  0
 14 15  1  0
 14 16  1  0
 16 17  1  0
 16 18  2  0
 18 19  1  0
  7 20  1  0
 20 21  1  0
 20 22  1  0
 20 23  1  0
  6 24  1  0
 24 25  1  0
 24 26  2  0
 26 27  1  0
 26  2  1  0
 18  9  1  0
M  END
>  <plip>  (1) 
-0.03571428571428571

>  <filename>  (1) 
[H][c]1[n][c]([H])[c]([C@@]([F])([c]2[c]([H])[c]([H])[c]([F])[c]([F])[c]2[H])[C]([H])([H])[H])[c]([H])[c]1[H]

$$$$
