
     RDKit          3D

 27 29  0  0  0  0  0  0  0  0999 V2000
    4.9458    1.8131   16.9750 H   0  0  0  0  0  0  0  0  0  0  0  0
    5.4100    1.3030   17.8181 C   0  0  0  0  0  0  0  0  0  0  0  0
    6.5718    0.6781   17.5670 N   0  0  0  0  0  0  0  0  0  0  0  0
    7.1758    0.0595   18.5882 C   0  0  0  0  0  0  0  0  0  0  0  0
    8.1200   -0.4335   18.3632 H   0  0  0  0  0  0  0  0  0  0  0  0
    6.6603    0.0179   19.9024 C   0  0  0  0  0  0  0  0  0  0  0  0
    7.3701   -0.6756   20.9536 C   0  0  0  0  0  0  0  0  0  0  0  0
    7.9714   -1.2884   21.8090 C   0  0  0  0  0  0  0  0  0  0  0  0
    8.7078   -1.8814   22.8049 N   0  0  0  0  0  0  0  0  0  0  0  0
    8.4937   -3.1523   23.2859 N   0  0  0  0  0  0  0  0  0  0  0  0
    9.4347   -3.3826   24.1158 N   0  0  0  0  0  0  0  0  0  0  0  0
   10.2914   -2.3386   24.2185 N   0  0  0  0  0  0  0  0  0  0  0  0
    9.8325   -1.4095   23.4209 C   0  0  0  0  0  0  0  0  0  0  0  0
   10.3995   -0.0720   23.2588 C   0  0  0  0  0  0  0  0  0  0  0  0
   11.7971    0.0735   23.2973 C   0  0  0  0  0  0  0  0  0  0  0  0
   12.4147   -0.8185   23.2830 H   0  0  0  0  0  0  0  0  0  0  0  0
   12.4210    1.2544   23.3084 N   0  0  0  0  0  0  0  0  0  0  0  0
   11.6499    2.3476   23.2238 C   0  0  0  0  0  0  0  0  0  0  0  0
   12.1577    3.3129   23.2551 H   0  0  0  0  0  0  0  0  0  0  0  0
   10.2553    2.3043   23.0907 C   0  0  0  0  0  0  0  0  0  0  0  0
    9.6945    3.2183   22.9397 H   0  0  0  0  0  0  0  0  0  0  0  0
    9.6056    1.0735   23.1233 C   0  0  0  0  0  0  0  0  0  0  0  0
    8.5163    0.9961   23.0450 H   0  0  0  0  0  0  0  0  0  0  0  0
    5.4355    0.6687   20.1393 C   0  0  0  0  0  0  0  0  0  0  0  0
    4.9972    0.6662   21.1365 H   0  0  0  0  0  0  0  0  0  0  0  0
    4.8032    1.3184   19.0775 C   0  0  0  0  0  0  0  0  0  0  0  0
    3.8627    1.8419   19.2112 H   0  0  0  0  0  0  0  0  0  0  0  0
  1  2  1  0
  2  3  2  0
  3  4  1  0
  4  5  1  0
  4  6  2  0
  6  7  1  0
  7  8  3  0
  8  9  1  0
  9 10  1  0
 10 11  2  0
 11 12  1  0
 12 13  2  0
 13 14  1  0
 14 15  2  0
 15 16  1  0
 15 17  1  0
 17 18  2  0
 18 19  1  0
 18 20  1  0
 20 21  1  0
 20 22  2  0
 22 23  1  0
  6 24  1  0
 24 25  1  0
 24 26  2  0
 26 27  1  0
 26  2  1  0
 13  9  1  0
 22 14  1  0
M  END
>  <plip>  (1) 
-0.03571428571428571

>  <filename>  (1) 
[H][c]1[n][c]([H])[c]([C]#[C][n]2[n][n][n][c]2-[c]2[c]([H])[n][c]([H])[c]([H])[c]2[H])[c]([H])[c]1[H]

$$$$
