
     RDKit          3D

 30 31  0  0  0  0  0  0  0  0999 V2000
    4.9245    1.7856   16.9905 H   0  0  0  0  0  0  0  0  0  0  0  0
    5.3985    1.2933   17.8364 C   0  0  0  0  0  0  0  0  0  0  0  0
    6.5648    0.6770   17.5800 N   0  0  0  0  0  0  0  0  0  0  0  0
    7.1675    0.0526   18.5986 C   0  0  0  0  0  0  0  0  0  0  0  0
    8.1185   -0.4272   18.3775 H   0  0  0  0  0  0  0  0  0  0  0  0
    6.6360   -0.0053   19.8939 C   0  0  0  0  0  0  0  0  0  0  0  0
    7.6077   -0.7628   21.1807 S   0  0  0  0  0  0  0  0  0  0  0  0
    8.4892    0.5829   21.6901 N   0  0  0  0  0  0  0  0  0  0  0  0
    9.2999    0.8019   21.1361 H   0  0  0  0  0  0  0  0  0  0  0  0
    8.0405    1.5598   22.5875 C   0  0  0  0  0  0  0  0  0  0  0  0
    6.9356    1.3221   23.4185 C   0  0  0  0  0  0  0  0  0  0  0  0
    6.4057    0.3762   23.3386 H   0  0  0  0  0  0  0  0  0  0  0  0
    6.5508    2.2881   24.3460 C   0  0  0  0  0  0  0  0  0  0  0  0
    5.7034    2.0815   24.9893 H   0  0  0  0  0  0  0  0  0  0  0  0
    7.2369    3.4977   24.4684 C   0  0  0  0  0  0  0  0  0  0  0  0
    6.9144    4.2161   25.2193 H   0  0  0  0  0  0  0  0  0  0  0  0
    8.3411    3.7450   23.6338 C   0  0  0  0  0  0  0  0  0  0  0  0
    9.2712    5.2828   23.8145 S   0  0  0  0  0  0  0  0  0  0  0  0
   10.6376    5.0582   23.3608 O   0  0  0  0  0  0  0  0  0  0  0  0
    8.9792    5.8395   25.1269 O   0  0  0  0  0  0  0  0  0  0  0  0
    8.5459    6.3946   22.6484 C   0  0  0  0  0  0  0  0  0  0  0  0
    9.1045    7.3234   22.7498 H   0  0  0  0  0  0  0  0  0  0  0  0
    7.5013    6.5486   22.9031 H   0  0  0  0  0  0  0  0  0  0  0  0
    8.6642    5.9891   21.6480 H   0  0  0  0  0  0  0  0  0  0  0  0
    8.7416    2.7798   22.6929 C   0  0  0  0  0  0  0  0  0  0  0  0
    9.6012    2.9167   22.0373 H   0  0  0  0  0  0  0  0  0  0  0  0
    5.4206    0.6344   20.1546 C   0  0  0  0  0  0  0  0  0  0  0  0
    4.9962    0.6316   21.1602 H   0  0  0  0  0  0  0  0  0  0  0  0
    4.7967    1.3074   19.1006 C   0  0  0  0  0  0  0  0  0  0  0  0
    3.8700    1.8472   19.2535 H   0  0  0  0  0  0  0  0  0  0  0  0
  1  2  1  0
  2  3  2  0
  3  4  1  0
  4  5  1  0
  4  6  2  0
  6  7  1  0
  7  8  1  0
  8  9  1  0
  8 10  1  0
 10 11  2  0
 11 12  1  0
 11 13  1  0
 13 14  1  0
 13 15  2  0
 15 16  1  0
 15 17  1  0
 17 18  1  0
 18 19  2  0
 18 20  2  0
 18 21  1  0
 21 22  1  0
 21 23  1  0
 21 24  1  0
 17 25  2  0
 25 26  1  0
  6 27  1  0
 27 28  1  0
 27 29  2  0
 29 30  1  0
 29  2  1  0
 25 10  1  0
M  END
>  <plip>  (1) 
-0.03571428571428571

>  <filename>  (1) 
[H][c]1[n][c]([H])[c]([S][N]([H])[c]2[c]([H])[c]([H])[c]([H])[c]([S](=[O])(=[O])[C]([H])([H])[H])[c]2[H])[c]([H])[c]1[H]

$$$$
