
     RDKit          3D

 33 35  0  0  0  0  0  0  0  0999 V2000
    5.7814   -1.2924   22.2075 H   0  0  0  0  0  0  0  0  0  0  0  0
    6.8414   -1.2372   22.0397 C   0  0  0  0  0  0  0  0  0  0  0  0
    7.3892   -0.6853   20.9595 C   0  0  0  0  0  0  0  0  0  0  0  0
    6.6669    0.0189   19.8963 C   0  0  0  0  0  0  0  0  0  0  0  0
    7.1682    0.0774   18.5827 C   0  0  0  0  0  0  0  0  0  0  0  0
    8.1125   -0.4129   18.3565 H   0  0  0  0  0  0  0  0  0  0  0  0
    6.5602    0.6814   17.5591 N   0  0  0  0  0  0  0  0  0  0  0  0
    5.3974    1.2979   17.8259 C   0  0  0  0  0  0  0  0  0  0  0  0
    4.9177    1.7889   16.9860 H   0  0  0  0  0  0  0  0  0  0  0  0
    4.8037    1.3133   19.0947 C   0  0  0  0  0  0  0  0  0  0  0  0
    3.8718    1.8435   19.2510 H   0  0  0  0  0  0  0  0  0  0  0  0
    5.4329    0.6546   20.1479 C   0  0  0  0  0  0  0  0  0  0  0  0
    5.0074    0.6462   21.1573 H   0  0  0  0  0  0  0  0  0  0  0  0
    8.8854   -0.9339   20.9436 C   0  0  0  0  0  0  0  0  0  0  0  0
    9.4359   -0.0108   20.7330 H   0  0  0  0  0  0  0  0  0  0  0  0
    9.1463   -1.6373   20.1439 H   0  0  0  0  0  0  0  0  0  0  0  0
    9.1712   -1.5239   22.3490 C   0  0  0  0  0  0  0  0  0  0  0  0
    9.8469   -2.3751   22.3212 H   0  0  0  0  0  0  0  0  0  0  0  0
    9.6215   -0.7538   22.9790 H   0  0  0  0  0  0  0  0  0  0  0  0
    7.8057   -1.9362   22.9428 C   0  0  2  0  0  0  0  0  0  0  0  0
    7.6992   -1.6036   23.9833 H   0  0  0  0  0  0  0  0  0  0  0  0
    7.6682   -3.3712   22.8974 O   0  0  0  0  0  0  0  0  0  0  0  0
    6.5974   -4.0092   23.4636 C   0  0  0  0  0  0  0  0  0  0  0  0
    6.5463   -5.4001   23.2392 C   0  0  0  0  0  0  0  0  0  0  0  0
    7.3222   -5.8538   22.6361 H   0  0  0  0  0  0  0  0  0  0  0  0
    5.5274   -6.1744   23.7911 C   0  0  0  0  0  0  0  0  0  0  0  0
    5.4791   -7.2460   23.6236 H   0  0  0  0  0  0  0  0  0  0  0  0
    4.5474   -5.5635   24.5772 C   0  0  0  0  0  0  0  0  0  0  0  0
    3.2767   -6.5274   25.2724 Cl  0  0  0  0  0  0  0  0  0  0  0  0
    4.5792   -4.1888   24.8058 C   0  0  0  0  0  0  0  0  0  0  0  0
    3.8104   -3.7326   25.4226 H   0  0  0  0  0  0  0  0  0  0  0  0
    5.5997   -3.4088   24.2474 C   0  0  0  0  0  0  0  0  0  0  0  0
    5.6219   -2.3396   24.4369 H   0  0  0  0  0  0  0  0  0  0  0  0
  1  2  1  0
  2  3  2  0
  3  4  1  0
  4  5  2  0
  5  6  1  0
  5  7  1  0
  7  8  2  0
  8  9  1  0
  8 10  1  0
 10 11  1  0
 10 12  2  0
 12 13  1  0
  3 14  1  0
 14 15  1  0
 14 16  1  0
 14 17  1  0
 17 18  1  0
 17 19  1  0
 17 20  1  0
 20 21  1  1
 20 22  1  0
 22 23  1  0
 23 24  2  0
 24 25  1  0
 24 26  1  0
 26 27  1  0
 26 28  2  0
 28 29  1  0
 28 30  1  0
 30 31  1  0
 30 32  2  0
 32 33  1  0
 20  2  1  0
 32 23  1  0
 12  4  1  0
M  END
>  <plip>  (1) 
-0.06896551724137931

>  <filename>  (1) 
[H][C]1=[C]([c]2[c]([H])[n][c]([H])[c]([H])[c]2[H])[C]([H])([H])[C]([H])([H])[C@]1([H])[O][c]1[c]([H])[c]([H])[c]([Cl])[c]([H])[c]1[H]

$$$$
