
     RDKit          3D

 36 37  0  0  0  0  0  0  0  0999 V2000
    9.9988    1.6384   22.4138 C   0  0  0  0  0  0  0  0  0  0  0  0
    8.8083    0.8975   22.1120 O   0  0  0  0  0  0  0  0  0  0  0  0
    8.8834   -0.0869   21.1942 C   0  0  0  0  0  0  0  0  0  0  0  0
    9.8897   -0.3868   20.5991 O   0  0  0  0  0  0  0  0  0  0  0  0
    7.4495   -0.7194   21.0238 C   0  0  0  0  0  0  0  0  0  0  0  0
    7.3870   -2.1528   20.7806 N   0  0  0  0  0  0  0  0  0  0  0  0
    7.8582   -3.1071   21.6716 C   0  0  0  0  0  0  0  0  0  0  0  0
    7.8794   -4.4587   21.2845 C   0  0  0  0  0  0  0  0  0  0  0  0
    8.3359   -5.4356   22.1722 C   0  0  0  0  0  0  0  0  0  0  0  0
    8.7579   -5.0870   23.4583 C   0  0  0  0  0  0  0  0  0  0  0  0
    8.6715   -3.7514   23.8661 C   0  0  0  0  0  0  0  0  0  0  0  0
    8.9986   -3.3029   25.5568 S   0  0  0  0  0  0  0  0  0  0  0  0
    7.3297   -3.5952   26.2214 C   0  0  0  0  0  0  0  0  0  0  0  0
    6.5943   -2.9430   25.7374 H   0  0  0  0  0  0  0  0  0  0  0  0
    7.3546   -3.3757   27.2923 H   0  0  0  0  0  0  0  0  0  0  0  0
    7.0322   -4.6402   26.0791 H   0  0  0  0  0  0  0  0  0  0  0  0
    8.2649   -2.7619   22.9701 C   0  0  0  0  0  0  0  0  0  0  0  0
    8.2397   -1.7312   23.2961 H   0  0  0  0  0  0  0  0  0  0  0  0
    9.1260   -5.8332   24.1569 H   0  0  0  0  0  0  0  0  0  0  0  0
    8.3543   -6.4782   21.8830 H   0  0  0  0  0  0  0  0  0  0  0  0
    7.5068   -4.7360   20.3053 H   0  0  0  0  0  0  0  0  0  0  0  0
    7.3463   -2.4423   19.8161 H   0  0  0  0  0  0  0  0  0  0  0  0
    6.6772   -0.0264   19.9173 C   0  0  0  0  0  0  0  0  0  0  0  0
    5.4694    0.6363   20.1647 C   0  0  0  0  0  0  0  0  0  0  0  0
    4.8346    1.2809   19.1015 C   0  0  0  0  0  0  0  0  0  0  0  0
    5.4250    1.2378   17.8375 C   0  0  0  0  0  0  0  0  0  0  0  0
    6.5645    0.5767   17.5789 N   0  0  0  0  0  0  0  0  0  0  0  0
    7.1611   -0.0484   18.6025 C   0  0  0  0  0  0  0  0  0  0  0  0
    8.1061   -0.5508   18.3773 H   0  0  0  0  0  0  0  0  0  0  0  0
    4.9765    1.7648   16.9972 H   0  0  0  0  0  0  0  0  0  0  0  0
    3.9106    1.8247   19.2412 H   0  0  0  0  0  0  0  0  0  0  0  0
    5.0354    0.6499   21.1654 H   0  0  0  0  0  0  0  0  0  0  0  0
    6.9514   -0.5058   21.9770 H   0  0  0  0  0  0  0  0  0  0  0  0
   10.7616    0.9878   22.8520 H   0  0  0  0  0  0  0  0  0  0  0  0
    9.6989    2.3880   23.1474 H   0  0  0  0  0  0  0  0  0  0  0  0
   10.3829    2.1355   21.5186 H   0  0  0  0  0  0  0  0  0  0  0  0
  1  2  1  0
  2  3  1  0
  3  4  2  0
  3  5  1  0
  5  6  1  0
  6  7  1  0
  7  8  2  0
  8  9  1  0
  9 10  2  0
 10 11  1  0
 11 12  1  0
 12 13  1  0
 13 14  1  0
 13 15  1  0
 13 16  1  0
 11 17  2  0
 17 18  1  0
 10 19  1  0
  9 20  1  0
  8 21  1  0
  6 22  1  0
  5 23  1  0
 23 24  2  0
 24 25  1  0
 25 26  2  0
 26 27  1  0
 27 28  2  0
 28 29  1  0
 26 30  1  0
 25 31  1  0
 24 32  1  0
  5 33  1  0
  1 34  1  0
  1 35  1  0
  1 36  1  0
 17  7  1  0
 28 23  1  0
M  END
>  <plip>  (1) 
-0.13793103448275862

>  <filename>  (1) 
[H][c]1[n][c]([H])[c]([C]([H])([C](=[O])[O][C]([H])([H])[H])[N]([H])[c]2[c]([H])[c]([H])[c]([H])[c]([S][C]([H])([H])[H])[c]2[H])[c]([H])[c]1[H]

$$$$
