
     RDKit          3D

 47 49  0  0  0  0  0  0  0  0999 V2000
   12.1127    7.7953   28.0425 C   0  0  0  0  0  0  0  0  0  0  0  0
   11.3349    6.8199   27.1926 C   0  0  0  0  0  0  0  0  0  0  0  0
   11.7811    6.4930   25.9063 C   0  0  0  0  0  0  0  0  0  0  0  0
   11.0756    5.6064   25.1007 C   0  0  0  0  0  0  0  0  0  0  0  0
    9.8886    4.9964   25.5541 C   0  0  0  0  0  0  0  0  0  0  0  0
    9.2349    3.9477   24.7238 C   0  0  0  0  0  0  0  0  0  0  0  0
    7.9693    3.6387   24.7610 N   0  0  0  0  0  0  0  0  0  0  0  0
    7.6163    2.6555   23.8779 C   0  0  0  0  0  0  0  0  0  0  0  0
    6.1523    2.3176   23.8415 C   0  0  0  0  0  0  0  0  0  0  0  0
    5.6227    3.1445   24.3165 H   0  0  0  0  0  0  0  0  0  0  0  0
    5.7823    2.2097   22.8180 H   0  0  0  0  0  0  0  0  0  0  0  0
    5.9031    1.4071   24.3996 H   0  0  0  0  0  0  0  0  0  0  0  0
    8.6524    2.1566   23.1366 C   0  0  0  0  0  0  0  0  0  0  0  0
    8.6028    1.2393   21.9787 C   0  0  0  0  0  0  0  0  0  0  0  0
    9.2971    1.3797   20.9840 O   0  0  0  0  0  0  0  0  0  0  0  0
    7.7365    0.1938   22.1299 N   0  0  0  0  0  0  0  0  0  0  0  0
    7.4146   -0.6889   21.0099 C   0  0  0  0  0  0  0  0  0  0  0  0
    6.6690   -1.9509   21.5001 C   0  0  0  0  0  0  0  0  0  0  0  0
    6.4501   -2.9376   20.5061 O   0  0  0  0  0  0  0  0  0  0  0  0
    7.2909   -3.1637   20.0859 H   0  0  0  0  0  0  0  0  0  0  0  0
    5.6656   -1.6702   21.8308 H   0  0  0  0  0  0  0  0  0  0  0  0
    7.2094   -2.3641   22.3664 H   0  0  0  0  0  0  0  0  0  0  0  0
    6.6611    0.0655   19.9209 C   0  0  0  0  0  0  0  0  0  0  0  0
    5.4260    0.6908   20.1421 C   0  0  0  0  0  0  0  0  0  0  0  0
    4.8064    1.3288   19.0657 C   0  0  0  0  0  0  0  0  0  0  0  0
    5.4307    1.3149   17.8119 C   0  0  0  0  0  0  0  0  0  0  0  0
    6.6027    0.7142   17.5754 N   0  0  0  0  0  0  0  0  0  0  0  0
    7.1928    0.1231   18.6263 C   0  0  0  0  0  0  0  0  0  0  0  0
    8.1503   -0.3565   18.4249 H   0  0  0  0  0  0  0  0  0  0  0  0
    4.9552    1.7927   16.9586 H   0  0  0  0  0  0  0  0  0  0  0  0
    3.8602    1.8382   19.1844 H   0  0  0  0  0  0  0  0  0  0  0  0
    4.9534    0.6931   21.1304 H   0  0  0  0  0  0  0  0  0  0  0  0
    8.3705   -1.0279   20.5857 H   0  0  0  0  0  0  0  0  0  0  0  0
    7.1509    0.2127   22.9467 H   0  0  0  0  0  0  0  0  0  0  0  0
   10.1227    2.9643   23.5785 S   0  0  0  0  0  0  0  0  0  0  0  0
    9.3949    5.3557   26.8389 C   0  0  0  0  0  0  0  0  0  0  0  0
    8.0907    4.8420   27.3817 C   0  0  0  0  0  0  0  0  0  0  0  0
    7.8765    5.2545   28.3710 H   0  0  0  0  0  0  0  0  0  0  0  0
    8.0930    3.7486   27.4320 H   0  0  0  0  0  0  0  0  0  0  0  0
    7.2834    5.1110   26.7000 H   0  0  0  0  0  0  0  0  0  0  0  0
   10.1492    6.2264   27.6398 C   0  0  0  0  0  0  0  0  0  0  0  0
    9.7881    6.4359   28.6468 H   0  0  0  0  0  0  0  0  0  0  0  0
   11.4571    5.3939   24.1066 H   0  0  0  0  0  0  0  0  0  0  0  0
   12.6986    6.9343   25.5274 H   0  0  0  0  0  0  0  0  0  0  0  0
   12.6190    8.5359   27.4147 H   0  0  0  0  0  0  0  0  0  0  0  0
   12.8903    7.3008   28.6367 H   0  0  0  0  0  0  0  0  0  0  0  0
   11.4668    8.3380   28.7406 H   0  0  0  0  0  0  0  0  0  0  0  0
  1  2  1  0
  2  3  2  0
  3  4  1  0
  4  5  2  0
  5  6  1  0
  6  7  2  0
  7  8  1  0
  8  9  1  0
  9 10  1  0
  9 11  1  0
  9 12  1  0
  8 13  2  0
 13 14  1  0
 14 15  2  0
 14 16  1  0
 16 17  1  0
 17 18  1  0
 18 19  1  0
 19 20  1  0
 18 21  1  0
 18 22  1  0
 17 23  1  0
 23 24  2  0
 24 25  1  0
 25 26  2  0
 26 27  1  0
 27 28  2  0
 28 29  1  0
 26 30  1  0
 25 31  1  0
 24 32  1  0
 17 33  1  0
 16 34  1  0
 13 35  1  0
  5 36  1  0
 36 37  1  0
 37 38  1  0
 37 39  1  0
 37 40  1  0
 36 41  2  0
 41 42  1  0
  4 43  1  0
  3 44  1  0
  1 45  1  0
  1 46  1  0
  1 47  1  0
 41  2  1  0
 35  6  1  0
 28 23  1  0
M  END
>  <plip>  (1) 
-0.17857142857142858

>  <filename>  (1) 
[H][O][C]([H])([H])[C]([H])([c]1[c]([H])[n][c]([H])[c]([H])[c]1[H])[N]([H])[C](=[O])[c]1[s][c](-[c]2[c]([H])[c]([H])[c]([C]([H])([H])[H])[c]([H])[c]2[C]([H])([H])[H])[n][c]1[C]([H])([H])[H]

$$$$
