
     RDKit          3D

 29 31  0  0  0  0  0  0  0  0999 V2000
    4.9792    1.7741   16.9825 H   0  0  0  0  0  0  0  0  0  0  0  0
    5.4393    1.2984   17.8478 C   0  0  0  0  0  0  0  0  0  0  0  0
    6.6034    0.6615   17.6375 N   0  0  0  0  0  0  0  0  0  0  0  0
    7.1703    0.0502   18.6825 C   0  0  0  0  0  0  0  0  0  0  0  0
    8.1054   -0.4741   18.4769 H   0  0  0  0  0  0  0  0  0  0  0  0
    6.6394    0.0564   19.9742 C   0  0  0  0  0  0  0  0  0  0  0  0
    7.3922   -0.7129   20.9863 C   0  0  0  0  0  0  0  0  0  0  0  0
    7.9950   -1.8095   20.7176 N   0  0  0  0  0  0  0  0  0  0  0  0
    8.5484   -2.3294   21.9678 C   0  0  0  0  0  0  0  0  0  0  0  0
    9.6175   -2.5363   21.8425 H   0  0  0  0  0  0  0  0  0  0  0  0
    8.0625   -3.2856   22.2062 H   0  0  0  0  0  0  0  0  0  0  0  0
    8.2877   -1.2537   23.0446 C   0  0  0  0  0  0  0  0  0  0  0  0
    9.2138   -0.7808   23.4061 H   0  0  0  0  0  0  0  0  0  0  0  0
    7.7445   -1.6388   23.9154 H   0  0  0  0  0  0  0  0  0  0  0  0
    7.4648   -0.3097   22.3018 N   0  0  0  0  0  0  0  0  0  0  0  0
    7.1685    1.0014   22.7674 C   0  0  1  0  0  0  0  0  0  0  0  0
    6.1430    1.1193   23.1097 H   0  0  0  0  0  0  0  0  0  0  0  0
    8.1540    1.8134   23.5525 C   0  0  0  0  0  0  0  0  0  0  0  0
    7.7968    2.3032   24.4516 H   0  0  0  0  0  0  0  0  0  0  0  0
    9.1722    1.4440   23.5966 H   0  0  0  0  0  0  0  0  0  0  0  0
    7.7235    2.3062   22.2083 C   0  0  1  0  0  0  0  0  0  0  0  0
    6.9607    3.0890   22.2218 H   0  0  0  0  0  0  0  0  0  0  0  0
    8.7189    2.3638   21.1625 N   0  0  0  0  0  0  0  0  0  0  0  0
    8.2579    2.4728   20.2651 H   0  0  0  0  0  0  0  0  0  0  0  0
    9.2895    3.2028   21.2860 H   0  0  0  0  0  0  0  0  0  0  0  0
    5.4130    0.7143   20.1800 C   0  0  0  0  0  0  0  0  0  0  0  0
    4.9236    0.7252   21.1561 H   0  0  0  0  0  0  0  0  0  0  0  0
    4.8026    1.3389   19.0929 C   0  0  0  0  0  0  0  0  0  0  0  0
    3.8515    1.8512   19.2013 H   0  0  0  0  0  0  0  0  0  0  0  0
  1  2  1  0
  2  3  2  0
  3  4  1  0
  4  5  1  0
  4  6  2  0
  6  7  1  0
  7  8  2  0
  8  9  1  0
  9 10  1  0
  9 11  1  0
  9 12  1  0
 12 13  1  0
 12 14  1  0
 12 15  1  0
 15 16  1  0
 16 17  1  1
 16 18  1  0
 18 19  1  0
 18 20  1  0
 18 21  1  0
 21 22  1  1
 21 23  1  0
 23 24  1  0
 23 25  1  0
  6 26  1  0
 26 27  1  0
 26 28  2  0
 28 29  1  0
 28  2  1  0
 15  7  1  0
 21 16  1  0
M  END
>  <plip>  (1) 
-0.10344827586206896

>  <filename>  (1) 
[H][c]1[n][c]([H])[c]([C]2=[N][C]([H])([H])[C]([H])([H])[N]2[C@@]2([H])[C]([H])([H])[C@@]2([H])[N]([H])[H])[c]([H])[c]1[H]

$$$$
