
     RDKit          3D

 33 35  0  0  0  0  0  0  0  0999 V2000
    8.7177   -0.0031   21.3294 C   0  0  0  0  0  0  0  0  0  0  0  0
    7.3774   -0.6885   21.0496 C   0  0  2  0  0  0  0  0  0  0  0  0
    7.6253   -2.0835   20.6618 N   0  0  0  0  0  0  0  0  0  0  0  0
    7.8706   -2.9653   21.7049 C   0  0  0  0  0  0  0  0  0  0  0  0
    9.1228   -3.0885   22.2423 C   0  0  0  0  0  0  0  0  0  0  0  0
    9.3176   -3.9689   23.3212 C   0  0  0  0  0  0  0  0  0  0  0  0
    8.3729   -4.7148   23.8453 N   0  0  0  0  0  0  0  0  0  0  0  0
    7.1225   -4.5900   23.3237 C   0  0  0  0  0  0  0  0  0  0  0  0
    6.1061   -5.3763   23.9040 C   0  0  0  0  0  0  0  0  0  0  0  0
    4.8208   -5.1798   23.4857 C   0  0  0  0  0  0  0  0  0  0  0  0
    4.4760   -4.2960   22.5151 N   0  0  0  0  0  0  0  0  0  0  0  0
    5.4263   -3.5802   21.9420 C   0  0  0  0  0  0  0  0  0  0  0  0
    6.7995   -3.7017   22.2688 C   0  0  0  0  0  0  0  0  0  0  0  0
    5.0821   -2.8605   21.1972 H   0  0  0  0  0  0  0  0  0  0  0  0
    3.9973   -5.7386   23.9339 H   0  0  0  0  0  0  0  0  0  0  0  0
    6.3851   -6.0852   24.6711 H   0  0  0  0  0  0  0  0  0  0  0  0
   10.3094   -4.0456   23.7675 H   0  0  0  0  0  0  0  0  0  0  0  0
    9.9424   -2.5091   21.8441 H   0  0  0  0  0  0  0  0  0  0  0  0
    6.9007   -2.4505   20.0654 H   0  0  0  0  0  0  0  0  0  0  0  0
    6.6055   -0.0333   19.9370 C   0  0  0  0  0  0  0  0  0  0  0  0
    5.4050    0.6600   20.1402 C   0  0  0  0  0  0  0  0  0  0  0  0
    4.8219    1.3165   19.0541 C   0  0  0  0  0  0  0  0  0  0  0  0
    5.4594    1.2609   17.8093 C   0  0  0  0  0  0  0  0  0  0  0  0
    6.5869    0.5673   17.5896 N   0  0  0  0  0  0  0  0  0  0  0  0
    7.1235   -0.0718   18.6360 C   0  0  0  0  0  0  0  0  0  0  0  0
    8.0272   -0.6426   18.4291 H   0  0  0  0  0  0  0  0  0  0  0  0
    5.0386    1.7791   16.9484 H   0  0  0  0  0  0  0  0  0  0  0  0
    3.8946    1.8708   19.1581 H   0  0  0  0  0  0  0  0  0  0  0  0
    4.9373    0.6856   21.1284 H   0  0  0  0  0  0  0  0  0  0  0  0
    6.7632   -0.6504   21.9708 H   0  0  0  0  0  0  0  0  0  0  0  0
    8.5918    1.0709   21.4896 H   0  0  0  0  0  0  0  0  0  0  0  0
    9.3980   -0.1529   20.4843 H   0  0  0  0  0  0  0  0  0  0  0  0
    9.1878   -0.4240   22.2227 H   0  0  0  0  0  0  0  0  0  0  0  0
  1  2  1  0
  2  3  1  0
  3  4  1  0
  4  5  2  0
  5  6  1  0
  6  7  2  0
  7  8  1  0
  8  9  2  0
  9 10  1  0
 10 11  2  0
 11 12  1  0
 12 13  2  0
 12 14  1  0
 10 15  1  0
  9 16  1  0
  6 17  1  0
  5 18  1  0
  3 19  1  0
  2 20  1  0
 20 21  2  0
 21 22  1  0
 22 23  2  0
 23 24  1  0
 24 25  2  0
 25 26  1  0
 23 27  1  0
 22 28  1  0
 21 29  1  0
  2 30  1  1
  1 31  1  0
  1 32  1  0
  1 33  1  0
 13  4  1  0
 25 20  1  0
 13  8  1  0
M  END
>  <plip>  (1) 
-0.14285714285714285

>  <filename>  (1) 
[H][c]1[n][c]([H])[c]([C@@]([H])([N]([H])[c]2[c]([H])[c]([H])[n][c]3[c]([H])[c]([H])[n][c]([H])[c]23)[C]([H])([H])[H])[c]([H])[c]1[H]

$$$$
