
     RDKit          3D

 26 27  0  0  0  0  0  0  0  0999 V2000
   14.8849   -1.6148   20.5192 H   0  0  0  0  0  0  0  0  0  0  0  0
   13.9668   -1.6320   21.0610 C   0  0  0  0  0  0  0  0  0  0  0  0
   12.9149   -1.6587   21.6443 C   0  0  0  0  0  0  0  0  0  0  0  0
   11.6308   -1.7397   22.3464 C   0  0  0  0  0  0  0  0  0  0  0  0
   11.5078   -0.8680   23.0112 H   0  0  0  0  0  0  0  0  0  0  0  0
   11.5806   -2.6494   22.9637 H   0  0  0  0  0  0  0  0  0  0  0  0
   10.5911   -1.8027   21.3440 O   0  0  0  0  0  0  0  0  0  0  0  0
    9.3262   -1.4549   21.7957 N   0  0  0  0  0  0  0  0  0  0  0  0
    8.6549   -0.8357   20.7819 N   0  0  0  0  0  0  0  0  0  0  0  0
    7.3411   -0.7542   20.8669 C   0  0  0  0  0  0  0  0  0  0  0  0
    6.6311    0.0366   19.8339 C   0  0  0  0  0  0  0  0  0  0  0  0
    7.1939    0.1083   18.5493 C   0  0  0  0  0  0  0  0  0  0  0  0
    8.1627   -0.3555   18.3720 H   0  0  0  0  0  0  0  0  0  0  0  0
    6.6113    0.7164   17.5132 N   0  0  0  0  0  0  0  0  0  0  0  0
    5.4414    1.3317   17.7335 C   0  0  0  0  0  0  0  0  0  0  0  0
    4.9927    1.8152   16.8690 H   0  0  0  0  0  0  0  0  0  0  0  0
    4.8103    1.3629   18.9802 C   0  0  0  0  0  0  0  0  0  0  0  0
    3.8762    1.8993   19.0870 H   0  0  0  0  0  0  0  0  0  0  0  0
    5.4149    0.7111   20.0551 C   0  0  0  0  0  0  0  0  0  0  0  0
    4.9672    0.7682   21.0469 H   0  0  0  0  0  0  0  0  0  0  0  0
    6.6237   -1.4664   21.8900 C   0  0  0  0  0  0  0  0  0  0  0  0
    5.5459   -1.5140   21.8044 H   0  0  0  0  0  0  0  0  0  0  0  0
    7.2982   -2.0968   22.8991 C   0  0  0  0  0  0  0  0  0  0  0  0
    6.8296   -2.5988   23.7382 H   0  0  0  0  0  0  0  0  0  0  0  0
    8.7555   -2.1295   22.9374 C   0  0  0  0  0  0  0  0  0  0  0  0
    9.4179   -2.6562   23.8206 O   0  0  0  0  0  0  0  0  0  0  0  0
  1  2  1  0
  2  3  3  0
  3  4  1  0
  4  5  1  0
  4  6  1  0
  4  7  1  0
  7  8  1  0
  8  9  1  0
  9 10  2  0
 10 11  1  0
 11 12  2  0
 12 13  1  0
 12 14  1  0
 14 15  2  0
 15 16  1  0
 15 17  1  0
 17 18  1  0
 17 19  2  0
 19 20  1  0
 10 21  1  0
 21 22  1  0
 21 23  2  0
 23 24  1  0
 23 25  1  0
 25 26  2  0
 25  8  1  0
 19 11  1  0
M  END
>  <plip>  (1) 
-0.07142857142857142

>  <filename>  (1) 
[H][C]#[C][C]([H])([H])[O][n]1[n][c](-[c]2[c]([H])[n][c]([H])[c]([H])[c]2[H])[c]([H])[c]([H])[c]1=[O]

$$$$
