
     RDKit          3D

 42 44  0  0  0  0  0  0  0  0999 V2000
    7.5026    4.5764   22.0904 C   0  0  0  0  0  0  0  0  0  0  0  0
    8.0924    3.2938   22.2423 O   0  0  0  0  0  0  0  0  0  0  0  0
    9.4404    3.2205   22.5676 C   0  0  0  0  0  0  0  0  0  0  0  0
   10.1346    4.1802   23.3041 C   0  0  0  0  0  0  0  0  0  0  0  0
   11.4760    3.9271   23.6652 C   0  0  0  0  0  0  0  0  0  0  0  0
   12.2361    4.9060   24.4090 C   0  0  0  0  0  0  0  0  0  0  0  0
   12.8781    5.6675   25.0017 N   0  0  0  0  0  0  0  0  0  0  0  0
   12.1088    2.7258   23.2946 C   0  0  0  0  0  0  0  0  0  0  0  0
   11.4077    1.8014   22.5189 C   0  0  0  0  0  0  0  0  0  0  0  0
   10.0947    2.0549   22.1222 C   0  0  0  0  0  0  0  0  0  0  0  0
    9.3640    1.1536   21.1942 C   0  0  0  0  0  0  0  0  0  0  0  0
    8.0955    0.7806   21.8528 N   0  0  0  0  0  4  0  0  0  0  0  0
    7.3439   -0.3053   21.1742 C   0  0  0  0  0  0  0  0  0  0  0  0
    6.5590    0.2718   20.0081 C   0  0  0  0  0  0  0  0  0  0  0  0
    5.2629    0.8071   20.1295 C   0  0  0  0  0  0  0  0  0  0  0  0
    4.6705    1.4046   19.0130 C   0  0  0  0  0  0  0  0  0  0  0  0
    5.3786    1.4322   17.8066 C   0  0  0  0  0  0  0  0  0  0  0  0
    6.6049    0.9128   17.6612 N   0  0  0  0  0  0  0  0  0  0  0  0
    7.1709    0.3714   18.7476 C   0  0  0  0  0  0  0  0  0  0  0  0
    8.1855   -0.0033   18.6155 H   0  0  0  0  0  0  0  0  0  0  0  0
    4.9416    1.8875   16.9188 H   0  0  0  0  0  0  0  0  0  0  0  0
    3.6922    1.8706   19.0700 H   0  0  0  0  0  0  0  0  0  0  0  0
    4.7405    0.7782   21.0893 H   0  0  0  0  0  0  0  0  0  0  0  0
    8.2538   -1.5324   20.8471 C   0  0  0  0  0  0  0  0  0  0  0  0
    7.3989   -2.4510   21.7446 C   0  0  0  0  0  0  0  0  0  0  0  0
    6.5345   -1.2213   22.1145 C   0  0  0  0  0  0  0  0  0  0  0  0
    6.5432   -0.9062   23.1615 H   0  0  0  0  0  0  0  0  0  0  0  0
    5.5195   -1.3396   21.7513 H   0  0  0  0  0  0  0  0  0  0  0  0
    7.9464   -2.9136   22.5738 H   0  0  0  0  0  0  0  0  0  0  0  0
    6.8575   -3.2434   21.2208 H   0  0  0  0  0  0  0  0  0  0  0  0
    8.3030   -1.7466   19.7864 H   0  0  0  0  0  0  0  0  0  0  0  0
    9.2698   -1.4306   21.2353 H   0  0  0  0  0  0  0  0  0  0  0  0
    8.2860    0.5022   22.8405 H   0  0  0  0  0  0  0  0  0  0  0  0
    7.5403    1.6729   21.8712 H   0  0  0  0  0  0  0  0  0  0  0  0
    9.1295    1.6527   20.2537 H   0  0  0  0  0  0  0  0  0  0  0  0
    9.9805    0.2870   20.9583 H   0  0  0  0  0  0  0  0  0  0  0  0
   11.8790    0.8678   22.2155 H   0  0  0  0  0  0  0  0  0  0  0  0
   13.1367    2.5185   23.5786 H   0  0  0  0  0  0  0  0  0  0  0  0
    9.6472    5.1093   23.5789 H   0  0  0  0  0  0  0  0  0  0  0  0
    6.5416    4.4012   21.6048 H   0  0  0  0  0  0  0  0  0  0  0  0
    7.3318    5.0519   23.0636 H   0  0  0  0  0  0  0  0  0  0  0  0
    8.1045    5.2340   21.4489 H   0  0  0  0  0  0  0  0  0  0  0  0
  1  2  1  0
  2  3  1  0
  3  4  2  0
  4  5  1  0
  5  6  1  0
  6  7  3  0
  5  8  2  0
  8  9  1  0
  9 10  2  0
 10 11  1  0
 11 12  1  0
 12 13  1  0
 13 14  1  0
 14 15  2  0
 15 16  1  0
 16 17  2  0
 17 18  1  0
 18 19  2  0
 19 20  1  0
 17 21  1  0
 16 22  1  0
 15 23  1  0
 13 24  1  0
 24 25  1  0
 25 26  1  0
 26 27  1  0
 26 28  1  0
 25 29  1  0
 25 30  1  0
 24 31  1  0
 24 32  1  0
 12 33  1  0
 12 34  1  0
 11 35  1  0
 11 36  1  0
  9 37  1  0
  8 38  1  0
  4 39  1  0
  1 40  1  0
  1 41  1  0
  1 42  1  0
 10  3  1  0
 26 13  1  0
 19 14  1  0
M  CHG  1  12   1
M  END
>  <plip>  (1) 
-0.07142857142857142

>  <filename>  (1) 
[H][c]1[n][c]([H])[c]([C]2([N+]([H])([H])[C]([H])([H])[c]3[c]([H])[c]([H])[c]([C]#[N])[c]([H])[c]3[O][C]([H])([H])[H])[C]([H])([H])[C]([H])([H])[C]2([H])[H])[c]([H])[c]1[H]

$$$$
