
     RDKit          3D

 48 51  0  0  0  0  0  0  0  0999 V2000
    6.2632   -2.9913   19.8206 O   0  0  0  0  0  0  0  0  0  0  0  0
    6.1306   -2.8091   21.0186 C   0  0  0  0  0  0  0  0  0  0  0  0
    5.4451   -3.8431   21.8439 C   0  0  0  0  0  0  0  0  0  0  0  0
    5.2495   -3.9050   23.1709 C   0  0  0  0  0  0  0  0  0  0  0  0
    4.5011   -4.9675   23.8396 C   0  0  0  0  0  0  0  0  0  0  0  0
    3.8900   -5.9750   23.2659 N   0  0  0  0  0  0  0  0  0  0  0  0
    3.3248   -6.6871   24.2964 C   0  0  0  0  0  0  0  0  0  0  0  0
    2.5474   -7.8581   24.2521 C   0  0  0  0  0  0  0  0  0  0  0  0
    2.0760   -8.3881   25.4481 C   0  0  0  0  0  0  0  0  0  0  0  0
    2.3751   -7.7624   26.6817 C   0  0  0  0  0  0  0  0  0  0  0  0
    3.1447   -6.6020   26.7420 C   0  0  0  0  0  0  0  0  0  0  0  0
    3.6143   -6.0763   25.5358 C   0  0  0  0  0  0  0  0  0  0  0  0
    4.3752   -4.9781   25.2059 N   0  0  0  0  0  0  0  0  0  0  0  0
    4.7758   -4.3038   25.8298 H   0  0  0  0  0  0  0  0  0  0  0  0
    3.3713   -6.1270   27.6898 H   0  0  0  0  0  0  0  0  0  0  0  0
    1.9988   -8.2017   27.6014 H   0  0  0  0  0  0  0  0  0  0  0  0
    1.4713   -9.2911   25.4415 H   0  0  0  0  0  0  0  0  0  0  0  0
    2.3365   -8.3119   23.2906 H   0  0  0  0  0  0  0  0  0  0  0  0
    5.6709   -3.1897   23.8790 H   0  0  0  0  0  0  0  0  0  0  0  0
    5.0844   -4.6431   21.2057 H   0  0  0  0  0  0  0  0  0  0  0  0
    6.5856   -1.7083   21.6780 N   0  0  0  0  0  0  0  0  0  0  0  0
    7.3905   -0.7114   20.9990 C   0  0  0  0  0  0  0  0  0  0  0  0
    6.6199   -0.0128   19.8914 C   0  0  0  0  0  0  0  0  0  0  0  0
    5.4069    0.6531   20.1247 C   0  0  0  0  0  0  0  0  0  0  0  0
    4.7820    1.3201   19.0685 C   0  0  0  0  0  0  0  0  0  0  0  0
    5.4019    1.3061   17.8129 C   0  0  0  0  0  0  0  0  0  0  0  0
    6.5601    0.6783   17.5655 N   0  0  0  0  0  0  0  0  0  0  0  0
    7.1421    0.0425   18.5945 C   0  0  0  0  0  0  0  0  0  0  0  0
    8.0927   -0.4460   18.3679 H   0  0  0  0  0  0  0  0  0  0  0  0
    4.9484    1.8206   16.9672 H   0  0  0  0  0  0  0  0  0  0  0  0
    3.8541    1.8690   19.2098 H   0  0  0  0  0  0  0  0  0  0  0  0
    4.9630    0.6752   21.1231 H   0  0  0  0  0  0  0  0  0  0  0  0
    7.9862    0.2836   22.0199 C   0  0  0  0  0  0  0  0  0  0  0  0
    8.9802    1.2728   21.3842 C   0  0  0  0  0  0  0  0  0  0  0  0
    9.8919    1.7537   22.5342 C   0  0  0  0  0  0  0  0  0  0  0  0
    9.7798    0.6881   23.6592 C   0  0  0  0  0  0  0  0  0  0  0  0
    8.7931   -0.3805   23.1493 C   0  0  0  0  0  0  0  0  0  0  0  0
    9.3369   -1.2436   22.7412 H   0  0  0  0  0  0  0  0  0  0  0  0
    8.1444   -0.7646   23.9463 H   0  0  0  0  0  0  0  0  0  0  0  0
    9.4108    1.1488   24.5833 H   0  0  0  0  0  0  0  0  0  0  0  0
   10.7468    0.2354   23.9055 H   0  0  0  0  0  0  0  0  0  0  0  0
   10.9262    1.8856   22.1933 H   0  0  0  0  0  0  0  0  0  0  0  0
    9.5589    2.7298   22.9075 H   0  0  0  0  0  0  0  0  0  0  0  0
    8.4594    2.0908   20.8674 H   0  0  0  0  0  0  0  0  0  0  0  0
    9.5741    0.7445   20.6220 H   0  0  0  0  0  0  0  0  0  0  0  0
    7.1446    0.8450   22.4621 H   0  0  0  0  0  0  0  0  0  0  0  0
    8.2228   -1.2535   20.5241 H   0  0  0  0  0  0  0  0  0  0  0  0
    6.0197   -1.4298   22.4621 H   0  0  0  0  0  0  0  0  0  0  0  0
  1  2  2  0
  2  3  1  0
  3  4  2  3
  4  5  1  0
  5  6  2  0
  6  7  1  0
  7  8  2  0
  8  9  1  0
  9 10  2  0
 10 11  1  0
 11 12  2  0
 12 13  1  0
 13 14  1  0
 11 15  1  0
 10 16  1  0
  9 17  1  0
  8 18  1  0
  4 19  1  0
  3 20  1  0
  2 21  1  0
 21 22  1  0
 22 23  1  0
 23 24  2  0
 24 25  1  0
 25 26  2  0
 26 27  1  0
 27 28  2  0
 28 29  1  0
 26 30  1  0
 25 31  1  0
 24 32  1  0
 22 33  1  0
 33 34  1  0
 34 35  1  0
 35 36  1  0
 36 37  1  0
 37 38  1  0
 37 39  1  0
 36 40  1  0
 36 41  1  0
 35 42  1  0
 35 43  1  0
 34 44  1  0
 34 45  1  0
 33 46  1  0
 22 47  1  0
 21 48  1  0
 13  5  1  0
 28 23  1  0
 37 33  1  0
 12  7  1  0
M  END
>  <plip>  (1) 
-0.13793103448275862

>  <filename>  (1) 
[H][C]([C](=[O])[N]([H])[C]([H])([c]1[c]([H])[n][c]([H])[c]([H])[c]1[H])[C]1([H])[C]([H])([H])[C]([H])([H])[C]([H])([H])[C]1([H])[H])=[C]([H])[c]1[n][c]2[c]([H])[c]([H])[c]([H])[c]([H])[c]2[n]1[H]

$$$$
