
     RDKit          3D

 35 37  0  0  0  0  0  0  0  0999 V2000
    9.7628    3.4051   22.4364 H   0  0  0  0  0  0  0  0  0  0  0  0
    9.8408    2.3641   22.1471 C   0  0  0  0  0  0  0  0  0  0  0  0
   10.8758    1.5670   21.9374 C   0  0  0  0  0  0  0  0  0  0  0  0
   11.9446    1.7391   21.9841 H   0  0  0  0  0  0  0  0  0  0  0  0
   10.3584    0.2138   21.5616 C   0  0  0  0  0  0  0  0  0  0  0  0
   11.0437   -0.7290   21.2568 O   0  0  0  0  0  0  0  0  0  0  0  0
    8.9760    0.2745   21.6434 N   0  0  0  0  0  0  0  0  0  0  0  0
    7.9687   -0.7928   21.4538 C   0  0  0  0  0  0  0  0  0  0  0  0
    7.0182   -0.3267   20.3356 C   0  0  0  0  0  0  0  0  0  0  0  0
    7.5163   -0.1321   19.0379 C   0  0  0  0  0  0  0  0  0  0  0  0
    8.5387   -0.4294   18.7957 H   0  0  0  0  0  0  0  0  0  0  0  0
    6.8385    0.4441   18.0323 N   0  0  0  0  0  0  0  0  0  0  0  0
    5.5988    0.8797   18.2929 C   0  0  0  0  0  0  0  0  0  0  0  0
    5.0843    1.3820   17.4757 H   0  0  0  0  0  0  0  0  0  0  0  0
    4.9836    0.7174   19.5358 C   0  0  0  0  0  0  0  0  0  0  0  0
    3.9892    1.1101   19.7069 H   0  0  0  0  0  0  0  0  0  0  0  0
    5.6956    0.0912   20.5596 C   0  0  0  0  0  0  0  0  0  0  0  0
    5.2442    0.0014   21.5478 H   0  0  0  0  0  0  0  0  0  0  0  0
    8.6720   -2.1366   21.1362 C   0  0  0  0  0  0  0  0  0  0  0  0
    9.1862   -2.0525   20.1791 H   0  0  0  0  0  0  0  0  0  0  0  0
    9.4619   -2.2510   21.8858 H   0  0  0  0  0  0  0  0  0  0  0  0
    7.7734   -3.3867   21.1929 C   0  0  0  0  0  0  0  0  0  0  0  0
    8.3975   -4.2673   20.9878 H   0  0  0  0  0  0  0  0  0  0  0  0
    7.0038   -3.3510   20.4069 H   0  0  0  0  0  0  0  0  0  0  0  0
    7.0720   -3.5088   22.5530 C   0  0  0  0  0  0  0  0  0  0  0  0
    6.3862   -4.3673   22.5835 H   0  0  0  0  0  0  0  0  0  0  0  0
    7.8272   -3.6776   23.3345 H   0  0  0  0  0  0  0  0  0  0  0  0
    6.3067   -2.2145   22.8400 C   0  0  0  0  0  0  0  0  0  0  0  0
    5.5252   -2.1090   22.0699 H   0  0  0  0  0  0  0  0  0  0  0  0
    5.7865   -2.2540   23.8053 H   0  0  0  0  0  0  0  0  0  0  0  0
    7.2430   -0.9932   22.8127 C   0  0  0  0  0  0  0  0  0  0  0  0
    8.0258   -1.1220   23.5701 H   0  0  0  0  0  0  0  0  0  0  0  0
    6.7130   -0.0773   23.0778 H   0  0  0  0  0  0  0  0  0  0  0  0
    8.5910    1.5790   21.9411 C   0  0  0  0  0  0  0  0  0  0  0  0
    7.4618    1.9829   22.0247 O   0  0  0  0  0  0  0  0  0  0  0  0
  1  2  1  0
  2  3  2  0
  3  4  1  0
  3  5  1  0
  5  6  2  0
  5  7  1  0
  7  8  1  0
  8  9  1  0
  9 10  2  0
 10 11  1  0
 10 12  1  0
 12 13  2  0
 13 14  1  0
 13 15  1  0
 15 16  1  0
 15 17  2  0
 17 18  1  0
  8 19  1  0
 19 20  1  0
 19 21  1  0
 19 22  1  0
 22 23  1  0
 22 24  1  0
 22 25  1  0
 25 26  1  0
 25 27  1  0
 25 28  1  0
 28 29  1  0
 28 30  1  0
 28 31  1  0
 31 32  1  0
 31 33  1  0
  7 34  1  0
 34 35  2  0
 34  2  1  0
 31  8  1  0
 17  9  1  0
M  END
>  <plip>  (1) 
-0.0

>  <filename>  (1) 
[H][C]1=[C]([H])[C](=[O])[N]([C]2([c]3[c]([H])[n][c]([H])[c]([H])[c]3[H])[C]([H])([H])[C]([H])([H])[C]([H])([H])[C]([H])([H])[C]2([H])[H])[C]1=[O]

$$$$
