
     RDKit          3D

 25 26  0  0  0  0  0  0  0  0999 V2000
    6.0164   -6.8376   22.1939 H   0  0  0  0  0  0  0  0  0  0  0  0
    5.8332   -5.7865   22.2569 C   0  0  0  0  0  0  0  0  0  0  0  0
    5.6265   -4.6043   22.3756 C   0  0  0  0  0  0  0  0  0  0  0  0
    5.2477   -3.2166   22.6711 C   0  0  0  0  0  0  0  0  0  0  0  0
    5.6428   -2.9566   23.6570 H   0  0  0  0  0  0  0  0  0  0  0  0
    4.1591   -3.1228   22.7340 H   0  0  0  0  0  0  0  0  0  0  0  0
    5.6636   -2.2504   21.7009 O   0  0  0  0  0  0  0  0  0  0  0  0
    6.9415   -1.8085   21.7911 C   0  0  0  0  0  0  0  0  0  0  0  0
    7.9751   -2.1108   22.6490 C   0  0  0  0  0  0  0  0  0  0  0  0
    7.9072   -2.7705   23.4999 H   0  0  0  0  0  0  0  0  0  0  0  0
    9.1128   -1.3606   22.2089 C   0  0  0  0  0  0  0  0  0  0  0  0
   10.0933   -1.3346   22.6736 H   0  0  0  0  0  0  0  0  0  0  0  0
    8.7210   -0.6396   21.1177 C   0  0  0  0  0  0  0  0  0  0  0  0
    9.2541    0.0738   20.5107 H   0  0  0  0  0  0  0  0  0  0  0  0
    7.3800   -0.8896   20.8605 N   0  0  0  0  0  0  0  0  0  0  0  0
    6.6429   -0.1544   19.8855 C   0  0  0  0  0  0  0  0  0  0  0  0
    7.1776   -0.0509   18.5932 C   0  0  0  0  0  0  0  0  0  0  0  0
    8.1139   -0.5563   18.3691 H   0  0  0  0  0  0  0  0  0  0  0  0
    6.6001    0.6245   17.5986 N   0  0  0  0  0  0  0  0  0  0  0  0
    5.4552    1.2705   17.8712 C   0  0  0  0  0  0  0  0  0  0  0  0
    5.0107    1.8283   17.0481 H   0  0  0  0  0  0  0  0  0  0  0  0
    4.8493    1.2470   19.1330 C   0  0  0  0  0  0  0  0  0  0  0  0
    3.9402    1.8165   19.2952 H   0  0  0  0  0  0  0  0  0  0  0  0
    5.4478    0.5205   20.1682 C   0  0  0  0  0  0  0  0  0  0  0  0
    5.0137    0.4843   21.1672 H   0  0  0  0  0  0  0  0  0  0  0  0
  1  2  1  0
  2  3  3  0
  3  4  1  0
  4  5  1  0
  4  6  1  0
  4  7  1  0
  7  8  1  0
  8  9  2  0
  9 10  1  0
  9 11  1  0
 11 12  1  0
 11 13  2  0
 13 14  1  0
 13 15  1  0
 15 16  1  0
 16 17  2  0
 17 18  1  0
 17 19  1  0
 19 20  2  0
 20 21  1  0
 20 22  1  0
 22 23  1  0
 22 24  2  0
 24 25  1  0
 15  8  1  0
 24 16  1  0
M  END
>  <plip>  (1) 
-0.03571428571428571

>  <filename>  (1) 
[H][C]#[C][C]([H])([H])[O][c]1[c]([H])[c]([H])[c]([H])[n]1-[c]1[c]([H])[n][c]([H])[c]([H])[c]1[H]

$$$$
