
     RDKit          3D

 57 59  0  0  0  0  0  0  0  0999 V2000
    6.5514   -5.2124   20.4625 C   0  0  0  0  0  0  0  0  0  0  0  0
    7.4659   -4.6406   21.5410 C   0  0  0  0  0  0  0  0  0  0  0  0
    7.3723   -5.3805   22.8701 C   0  0  0  0  0  0  0  0  0  0  0  0
    5.9782   -5.1799   23.4030 C   0  0  0  0  0  0  0  0  0  0  0  0
    5.6437   -4.0884   23.8390 O   0  0  0  0  0  0  0  0  0  0  0  0
    5.1185   -6.2317   23.2148 N   0  0  0  0  0  0  0  0  0  0  0  0
    3.8369   -6.4177   23.7870 C   0  0  0  0  0  0  0  0  0  0  0  0
    3.6208   -6.1582   25.1464 C   0  0  0  0  0  0  0  0  0  0  0  0
    2.3637   -6.3463   25.7285 C   0  0  0  0  0  0  0  0  0  0  0  0
    1.2913   -6.7905   24.9495 C   0  0  0  0  0  0  0  0  0  0  0  0
    1.4878   -7.0740   23.5938 C   0  0  0  0  0  0  0  0  0  0  0  0
    2.7472   -6.9064   23.0352 C   0  0  0  0  0  0  0  0  0  0  0  0
    2.9048   -7.2053   21.7308 F   0  0  0  0  0  0  0  0  0  0  0  0
    0.6854   -7.4189   22.9475 H   0  0  0  0  0  0  0  0  0  0  0  0
    0.3072   -6.9085   25.3949 H   0  0  0  0  0  0  0  0  0  0  0  0
    2.2251   -6.1435   26.7880 H   0  0  0  0  0  0  0  0  0  0  0  0
    4.4637   -5.8109   25.7360 H   0  0  0  0  0  0  0  0  0  0  0  0
    5.4018   -6.8936   22.5121 H   0  0  0  0  0  0  0  0  0  0  0  0
    8.0724   -4.9355   23.5843 H   0  0  0  0  0  0  0  0  0  0  0  0
    7.6205   -6.4376   22.7761 H   0  0  0  0  0  0  0  0  0  0  0  0
    7.0701   -3.2360   21.8590 N   0  0  0  0  0  4  0  0  0  0  0  0
    7.4242   -2.2637   20.7885 C   0  0  0  0  0  0  0  0  0  0  0  0
    7.3062   -0.7392   21.0525 C   0  0  0  0  0  0  0  0  0  0  0  0
    6.6375    0.0070   19.9059 C   0  0  0  0  0  0  0  0  0  0  0  0
    5.4298    0.6808   20.1309 C   0  0  0  0  0  0  0  0  0  0  0  0
    4.8026    1.3428   19.0711 C   0  0  0  0  0  0  0  0  0  0  0  0
    5.4227    1.3254   17.8195 C   0  0  0  0  0  0  0  0  0  0  0  0
    6.5908    0.7094   17.5836 N   0  0  0  0  0  0  0  0  0  0  0  0
    7.1857    0.0869   18.6136 C   0  0  0  0  0  0  0  0  0  0  0  0
    8.1413   -0.3850   18.3724 H   0  0  0  0  0  0  0  0  0  0  0  0
    4.9517    1.8231   16.9707 H   0  0  0  0  0  0  0  0  0  0  0  0
    3.8625    1.8691   19.2067 H   0  0  0  0  0  0  0  0  0  0  0  0
    4.9920    0.6885   21.1297 H   0  0  0  0  0  0  0  0  0  0  0  0
    8.6654   -0.0803   21.3076 N   0  0  0  0  0  4  0  0  0  0  0  0
    8.5613    1.4531   21.5388 C   0  0  0  0  0  0  0  0  0  0  0  0
    9.8598    2.0340   22.1490 C   0  0  0  0  0  0  0  0  0  0  0  0
   10.9714    1.1775   21.9651 O   0  0  0  0  0  0  0  0  0  0  0  0
   10.8249   -0.0420   22.6712 C   0  0  0  0  0  0  0  0  0  0  0  0
    9.4511   -0.7221   22.4416 C   0  0  0  0  0  0  0  0  0  0  0  0
    9.6027   -1.7852   22.2383 H   0  0  0  0  0  0  0  0  0  0  0  0
    8.8477   -0.6448   23.3553 H   0  0  0  0  0  0  0  0  0  0  0  0
   11.6448   -0.6757   22.3280 H   0  0  0  0  0  0  0  0  0  0  0  0
   10.9520    0.1179   23.7538 H   0  0  0  0  0  0  0  0  0  0  0  0
   10.1267    2.9780   21.6702 H   0  0  0  0  0  0  0  0  0  0  0  0
    9.6941    2.2313   23.2200 H   0  0  0  0  0  0  0  0  0  0  0  0
    8.3373    1.9274   20.5809 H   0  0  0  0  0  0  0  0  0  0  0  0
    7.7172    1.6455   22.2092 H   0  0  0  0  0  0  0  0  0  0  0  0
    9.1940   -0.1808   20.4142 H   0  0  0  0  0  0  0  0  0  0  0  0
    6.7095   -0.5960   21.9643 H   0  0  0  0  0  0  0  0  0  0  0  0
    8.4692   -2.4168   20.4757 H   0  0  0  0  0  0  0  0  0  0  0  0
    6.8323   -2.4667   19.8923 H   0  0  0  0  0  0  0  0  0  0  0  0
    7.4906   -2.9843   22.7760 H   0  0  0  0  0  0  0  0  0  0  0  0
    6.0577   -3.2594   22.1351 H   0  0  0  0  0  0  0  0  0  0  0  0
    8.5080   -4.6596   21.1889 H   0  0  0  0  0  0  0  0  0  0  0  0
    5.5011   -5.0693   20.7295 H   0  0  0  0  0  0  0  0  0  0  0  0
    6.7251   -6.2794   20.3165 H   0  0  0  0  0  0  0  0  0  0  0  0
    6.7059   -4.7227   19.4996 H   0  0  0  0  0  0  0  0  0  0  0  0
  1  2  1  0
  2  3  1  0
  3  4  1  0
  4  5  2  0
  4  6  1  0
  6  7  1  0
  7  8  2  0
  8  9  1  0
  9 10  2  0
 10 11  1  0
 11 12  2  0
 12 13  1  0
 11 14  1  0
 10 15  1  0
  9 16  1  0
  8 17  1  0
  6 18  1  0
  3 19  1  0
  3 20  1  0
  2 21  1  0
 21 22  1  0
 22 23  1  0
 23 24  1  0
 24 25  2  0
 25 26  1  0
 26 27  2  0
 27 28  1  0
 28 29  2  0
 29 30  1  0
 27 31  1  0
 26 32  1  0
 25 33  1  0
 23 34  1  0
 34 35  1  0
 35 36  1  0
 36 37  1  0
 37 38  1  0
 38 39  1  0
 39 40  1  0
 39 41  1  0
 38 42  1  0
 38 43  1  0
 36 44  1  0
 36 45  1  0
 35 46  1  0
 35 47  1  0
 34 48  1  0
 23 49  1  0
 22 50  1  0
 22 51  1  0
 21 52  1  0
 21 53  1  0
  2 54  1  0
  1 55  1  0
  1 56  1  0
  1 57  1  0
 12  7  1  0
 29 24  1  0
 39 34  1  0
M  CHG  2  21   1  34   1
M  END
>  <plip>  (1) 
-0.125

>  <filename>  (1) 
[H][c]1[n][c]([H])[c]([C]([H])([C]([H])([H])[N+]([H])([H])[C]([H])([C]([H])([H])[H])[C]([H])([H])[C](=[O])[N]([H])[c]2[c]([H])[c]([H])[c]([H])[c]([H])[c]2[F])[N+]2([H])[C]([H])([H])[C]([H])([H])[O][C]([H])([H])[C]2([H])[H])[c]([H])[c]1[H]

$$$$
