
     RDKit          3D

 33 34  0  0  0  0  0  0  0  0999 V2000
    8.8518   -3.0220   22.4168 H   0  0  0  0  0  0  0  0  0  0  0  0
    8.3474   -2.1212   22.0723 C   0  0  0  0  0  0  0  0  0  0  0  0
    7.9399   -1.9095   20.7868 N   0  0  0  0  0  0  0  0  0  0  0  0
    7.3135   -0.7475   20.8747 C   0  0  0  0  0  0  0  0  0  0  0  0
    6.5766   -0.0362   19.8273 C   0  0  0  0  0  0  0  0  0  0  0  0
    7.1121   -0.0155   18.5359 C   0  0  0  0  0  0  0  0  0  0  0  0
    8.0530   -0.5257   18.3291 H   0  0  0  0  0  0  0  0  0  0  0  0
    6.5495    0.6479   17.5197 N   0  0  0  0  0  0  0  0  0  0  0  0
    5.4046    1.3061   17.7658 C   0  0  0  0  0  0  0  0  0  0  0  0
    4.9587    1.8424   16.9304 H   0  0  0  0  0  0  0  0  0  0  0  0
    4.7871    1.3304   19.0222 C   0  0  0  0  0  0  0  0  0  0  0  0
    3.8650    1.8781   19.1652 H   0  0  0  0  0  0  0  0  0  0  0  0
    5.3878    0.6642   20.0857 C   0  0  0  0  0  0  0  0  0  0  0  0
    4.9779    0.7143   21.0986 H   0  0  0  0  0  0  0  0  0  0  0  0
    7.4192   -0.2730   22.1492 N   0  0  0  0  0  0  0  0  0  0  0  0
    7.0227    0.9112   22.7802 N   0  0  0  0  0  0  0  0  0  0  0  0
    7.3819    0.7232   23.7172 H   0  0  0  0  0  0  0  0  0  0  0  0
    7.6881    2.1235   22.2411 C   0  0  0  0  0  0  0  0  0  0  0  0
    7.5035    2.9266   22.9558 H   0  0  0  0  0  0  0  0  0  0  0  0
    7.1453    2.4155   21.3364 H   0  0  0  0  0  0  0  0  0  0  0  0
    9.1818    2.0419   21.8676 C   0  0  0  0  0  0  0  0  0  0  0  0
    9.2471    1.2815   21.0824 H   0  0  0  0  0  0  0  0  0  0  0  0
    9.4545    3.0079   21.3937 H   0  0  0  0  0  0  0  0  0  0  0  0
   10.0903    1.6675   22.9524 N   0  0  0  0  0  0  0  0  0  0  0  0
   10.3453    2.7435   23.8955 C   0  0  0  0  0  0  0  0  0  0  0  0
   10.8963    2.3548   24.7602 H   0  0  0  0  0  0  0  0  0  0  0  0
   10.9206    3.5901   23.4680 H   0  0  0  0  0  0  0  0  0  0  0  0
    9.3934    3.1376   24.2692 H   0  0  0  0  0  0  0  0  0  0  0  0
   11.3014    1.0048   22.4827 C   0  0  0  0  0  0  0  0  0  0  0  0
   11.9759    1.6504   21.8823 H   0  0  0  0  0  0  0  0  0  0  0  0
   11.8749    0.6293   23.3393 H   0  0  0  0  0  0  0  0  0  0  0  0
   11.0303    0.1295   21.8771 H   0  0  0  0  0  0  0  0  0  0  0  0
    8.0489   -1.1654   22.9184 N   0  0  0  0  0  0  0  0  0  0  0  0
  1  2  1  0
  2  3  1  0
  3  4  2  0
  4  5  1  0
  5  6  2  0
  6  7  1  0
  6  8  1  0
  8  9  2  0
  9 10  1  0
  9 11  1  0
 11 12  1  0
 11 13  2  0
 13 14  1  0
  4 15  1  0
 15 16  1  0
 16 17  1  0
 16 18  1  0
 18 19  1  0
 18 20  1  0
 18 21  1  0
 21 22  1  0
 21 23  1  0
 21 24  1  0
 24 25  1  0
 25 26  1  0
 25 27  1  0
 25 28  1  0
 24 29  1  0
 29 30  1  0
 29 31  1  0
 29 32  1  0
 15 33  1  0
 33  2  2  0
 13  5  1  0
M  END
>  <plip>  (1) 
-0.06896551724137931

>  <filename>  (1) 
[H][c]1[n][c](-[c]2[c]([H])[n][c]([H])[c]([H])[c]2[H])[n]([N]([H])[C]([H])([H])[C]([H])([H])[N]([C]([H])([H])[H])[C]([H])([H])[H])[n]1

$$$$
