
     RDKit          3D

 30 31  0  0  0  0  0  0  0  0999 V2000
    9.4765   -5.5780   24.1800 H   0  0  0  0  0  0  0  0  0  0  0  0
    9.0082   -4.9839   23.5778 O   0  0  0  0  0  0  0  0  0  0  0  0
    7.7176   -4.7445   24.1151 C   0  0  0  0  0  0  0  0  0  0  0  0
    7.1932   -5.6915   24.3277 H   0  0  0  0  0  0  0  0  0  0  0  0
    7.1659   -4.2223   23.3225 H   0  0  0  0  0  0  0  0  0  0  0  0
    7.7670   -3.8983   25.3832 C   0  0  0  0  0  0  0  0  0  0  0  0
    8.3710   -4.4201   26.1421 H   0  0  0  0  0  0  0  0  0  0  0  0
    6.7522   -3.8121   25.7941 H   0  0  0  0  0  0  0  0  0  0  0  0
    8.3442   -2.4956   25.1648 C   0  0  0  0  0  0  0  0  0  0  0  0
    9.3489   -2.5804   24.7277 H   0  0  0  0  0  0  0  0  0  0  0  0
    8.4628   -1.9926   26.1349 H   0  0  0  0  0  0  0  0  0  0  0  0
    7.5309   -1.6813   24.2825 N   0  0  0  0  0  0  0  0  0  0  0  0
    6.6367   -1.3104   24.5586 H   0  0  0  0  0  0  0  0  0  0  0  0
    7.8068   -1.5140   22.9691 C   0  0  0  0  0  0  0  0  0  0  0  0
    6.9171   -0.7991   22.2552 O   0  0  0  0  0  0  0  0  0  0  0  0
    7.4046   -0.7225   20.9711 C   0  0  0  0  0  0  0  0  0  0  0  0
    6.6396    0.0017   19.9542 C   0  0  0  0  0  0  0  0  0  0  0  0
    7.1534    0.0529   18.6433 C   0  0  0  0  0  0  0  0  0  0  0  0
    8.1002   -0.4162   18.3800 H   0  0  0  0  0  0  0  0  0  0  0  0
    6.5586    0.6645   17.6149 N   0  0  0  0  0  0  0  0  0  0  0  0
    5.3974    1.2880   17.8525 C   0  0  0  0  0  0  0  0  0  0  0  0
    4.9450    1.7844   16.9934 H   0  0  0  0  0  0  0  0  0  0  0  0
    4.7936    1.3120   19.1137 C   0  0  0  0  0  0  0  0  0  0  0  0
    3.8625    1.8495   19.2367 H   0  0  0  0  0  0  0  0  0  0  0  0
    5.4119    0.6607   20.1825 C   0  0  0  0  0  0  0  0  0  0  0  0
    4.9591    0.6652   21.1722 H   0  0  0  0  0  0  0  0  0  0  0  0
    8.5896   -1.3940   20.9005 C   0  0  0  0  0  0  0  0  0  0  0  0
    9.1892   -1.4959   20.0088 H   0  0  0  0  0  0  0  0  0  0  0  0
    8.8594   -1.9196   22.2090 C   0  0  0  0  0  0  0  0  0  0  0  0
    9.6534   -2.5408   22.6001 H   0  0  0  0  0  0  0  0  0  0  0  0
  1  2  1  0
  2  3  1  0
  3  4  1  0
  3  5  1  0
  3  6  1  0
  6  7  1  0
  6  8  1  0
  6  9  1  0
  9 10  1  0
  9 11  1  0
  9 12  1  0
 12 13  1  0
 12 14  1  0
 14 15  1  0
 15 16  1  0
 16 17  1  0
 17 18  2  0
 18 19  1  0
 18 20  1  0
 20 21  2  0
 21 22  1  0
 21 23  1  0
 23 24  1  0
 23 25  2  0
 25 26  1  0
 16 27  2  0
 27 28  1  0
 27 29  1  0
 29 30  1  0
 29 14  2  0
 25 17  1  0
M  END
>  <plip>  (1) 
-0.07142857142857142

>  <filename>  (1) 
[H][O][C]([H])([H])[C]([H])([H])[C]([H])([H])[N]([H])[c]1[o][c](-[c]2[c]([H])[n][c]([H])[c]([H])[c]2[H])[c]([H])[c]1[H]

$$$$
