
     RDKit          3D

 29 31  0  0  0  0  0  0  0  0999 V2000
    5.0193    1.0453   19.2544 C   0  0  0  0  0  0  0  0  0  0  0  0
    5.5262    0.9044   17.9602 C   0  0  0  0  0  0  0  0  0  0  0  0
    6.6055    0.1646   17.6697 N   0  0  0  0  0  0  0  0  0  0  0  0
    7.2121   -0.4579   18.6914 C   0  0  0  0  0  0  0  0  0  0  0  0
    6.8051   -0.3760   20.0267 C   0  0  0  0  0  0  0  0  0  0  0  0
    7.6163   -1.0157   21.1300 C   0  0  0  0  0  0  0  0  0  0  0  0
    6.9509   -1.9700   21.9532 O   0  0  0  0  0  0  0  0  0  0  0  0
    6.2943   -2.9067   21.3372 C   0  0  0  0  0  0  0  0  0  0  0  0
    5.3195   -2.9976   20.5747 N   0  0  0  0  0  0  0  0  0  0  0  0
    6.0702   -5.5853   19.9109 C   0  0  0  0  0  0  0  0  0  0  0  0
    6.1947   -5.6326   19.9235 C   0  0  0  0  0  0  0  0  0  0  0  0
    5.5905   -5.4038   21.2754 C   0  0  0  0  0  0  0  0  0  0  0  0
    5.3293   -6.4851   22.0165 N   0  0  0  0  0  0  0  0  0  0  0  0
    4.6660   -6.3464   23.1552 C   0  0  0  0  0  0  0  0  0  0  0  0
    4.1769   -5.1075   23.6296 C   0  0  0  0  0  0  0  0  0  0  0  0
    4.4516   -3.9385   22.9574 C   0  0  0  0  0  0  0  0  0  0  0  0
    5.2771   -3.9961   21.7394 C   0  0  0  0  0  0  0  0  0  0  0  0
    4.0989   -2.9858   23.3604 H   0  0  0  0  0  0  0  0  0  0  0  0
    3.5713   -5.0890   24.5299 H   0  0  0  0  0  0  0  0  0  0  0  0
    4.4720   -7.2639   23.7177 H   0  0  0  0  0  0  0  0  0  0  0  0
    5.7748   -6.7159   19.5137 H   0  0  0  0  0  0  0  0  0  0  0  0
    6.4761   -5.0514   18.8695 H   0  0  0  0  0  0  0  0  0  0  0  0
    7.9158   -0.2510   21.8536 H   0  0  0  0  0  0  0  0  0  0  0  0
    8.5492   -1.4377   20.7324 H   0  0  0  0  0  0  0  0  0  0  0  0
    5.6641    0.3905   20.3060 C   0  0  0  0  0  0  0  0  0  0  0  0
    5.3056    0.4839   21.3318 H   0  0  0  0  0  0  0  0  0  0  0  0
    8.0901   -1.0514   18.4299 H   0  0  0  0  0  0  0  0  0  0  0  0
    5.0438    1.4021   17.1182 H   0  0  0  0  0  0  0  0  0  0  0  0
    4.1493    1.6687   19.4241 H   0  0  0  0  0  0  0  0  0  0  0  0
  1  2  2  0
  2  3  1  0
  3  4  2  0
  4  5  1  0
  5  6  1  0
  6  7  1  0
  7  8  1  0
  8  9  2  0
  9 10  1  0
 10 11  2  0
 11 12  1  0
 12 13  2  0
 13 14  1  0
 14 15  2  0
 15 16  1  0
 16 17  2  0
 16 18  1  0
 15 19  1  0
 14 20  1  0
 11 21  1  0
 10 22  1  0
  6 23  1  0
  6 24  1  0
  5 25  2  0
 25 26  1  0
  4 27  1  0
  2 28  1  0
  1 29  1  0
 25  1  1  0
 17  8  1  0
 17 12  1  0
M  END
>  <plip>  (1) 
-0.06666666666666667

>  <filename>  (1) 
[H][c]1[n][c]([H])[c]([C]([H])([H])[O][c]2[n][c]([H])[c]([H])[c]3[n][c]([H])[c]([H])[c]([H])[c]23)[c]([H])[c]1[H]

$$$$
