
     RDKit          3D

 20 21  0  0  0  0  0  0  0  0999 V2000
    4.9381    1.7721   17.0037 H   0  0  0  0  0  0  0  0  0  0  0  0
    5.4154    1.2810   17.8505 C   0  0  0  0  0  0  0  0  0  0  0  0
    6.5771    0.6592   17.6057 N   0  0  0  0  0  0  0  0  0  0  0  0
    7.1823    0.0463   18.6290 C   0  0  0  0  0  0  0  0  0  0  0  0
    8.1263   -0.4318   18.3828 H   0  0  0  0  0  0  0  0  0  0  0  0
    6.6536    0.0066   19.9285 C   0  0  0  0  0  0  0  0  0  0  0  0
    7.3784   -0.7036   20.9945 C   0  0  0  0  0  0  0  0  0  0  0  0
    8.5130   -1.3088   20.7381 N   0  0  0  0  0  0  0  0  0  0  0  0
    9.0503   -1.9982   22.1473 S   0  0  0  0  0  0  0  0  0  0  0  0
    7.6675   -1.4387   23.0177 C   0  0  0  0  0  0  0  0  0  0  0  0
    7.3702   -1.7268   24.4611 C   0  0  0  0  0  0  0  0  0  0  0  0
    8.2897   -1.8524   25.0312 H   0  0  0  0  0  0  0  0  0  0  0  0
    6.8156   -0.8926   24.8975 H   0  0  0  0  0  0  0  0  0  0  0  0
    6.5625   -2.9396   24.6044 C   0  0  0  0  0  0  0  0  0  0  0  0
    5.9382   -3.9079   24.6754 N   0  0  0  0  0  0  0  0  0  0  0  0
    6.8687   -0.7469   22.2709 N   0  0  0  0  0  0  0  0  0  0  0  0
    5.4358    0.6507   20.1740 C   0  0  0  0  0  0  0  0  0  0  0  0
    5.0043    0.6324   21.1783 H   0  0  0  0  0  0  0  0  0  0  0  0
    4.8128    1.3025   19.1139 C   0  0  0  0  0  0  0  0  0  0  0  0
    3.8799    1.8384   19.2568 H   0  0  0  0  0  0  0  0  0  0  0  0
  1  2  1  0
  2  3  2  0
  3  4  1  0
  4  5  1  0
  4  6  2  0
  6  7  1  0
  7  8  2  0
  8  9  1  0
  9 10  1  0
 10 11  1  0
 11 12  1  0
 11 13  1  0
 11 14  1  0
 14 15  3  0
 10 16  2  0
  6 17  1  0
 17 18  1  0
 17 19  2  0
 19 20  1  0
 19  2  1  0
 16  7  1  0
M  END
>  <plip>  (1) 
-0.03571428571428571

>  <filename>  (1) 
[H][c]1[n][c]([H])[c](-[c]2[n][s][c]([C]([H])([H])[C]#[N])[n]2)[c]([H])[c]1[H]

$$$$
