
     RDKit          3D

 34 36  0  0  0  0  0  0  0  0999 V2000
    6.7111   -1.5091   21.8446 C   0  0  0  0  0  0  0  0  0  0  0  0
    7.3612   -0.7458   20.9544 C   0  0  0  0  0  0  0  0  0  0  0  0
    6.6497   -0.0024   19.8659 C   0  0  0  0  0  0  0  0  0  0  0  0
    5.4250    0.6629   20.1007 C   0  0  0  0  0  0  0  0  0  0  0  0
    4.7895    1.3366   19.0563 C   0  0  0  0  0  0  0  0  0  0  0  0
    5.3900    1.3285   17.7942 C   0  0  0  0  0  0  0  0  0  0  0  0
    6.5484    0.7004   17.5337 N   0  0  0  0  0  0  0  0  0  0  0  0
    7.1525    0.0744   18.5512 C   0  0  0  0  0  0  0  0  0  0  0  0
    8.0980   -0.4092   18.2994 H   0  0  0  0  0  0  0  0  0  0  0  0
    4.9181    1.8409   16.9591 H   0  0  0  0  0  0  0  0  0  0  0  0
    3.8522    1.8701   19.2053 H   0  0  0  0  0  0  0  0  0  0  0  0
    4.9966    0.6746   21.1030 H   0  0  0  0  0  0  0  0  0  0  0  0
    8.8672   -0.6176   21.0214 C   0  0  0  0  0  0  0  0  0  0  0  0
    9.4003   -0.9701   22.4504 N   0  0  0  0  0  4  0  0  0  0  0  0
   10.8892   -0.7664   22.5055 C   0  0  0  0  0  0  0  0  0  0  0  0
   11.3057    0.6763   22.3752 C   0  0  0  0  0  0  0  0  0  0  0  0
   11.3777    1.6816   23.2794 C   0  0  0  0  0  0  0  0  0  0  0  0
   11.8382    2.7987   22.6375 O   0  0  0  0  0  0  0  0  0  0  0  0
   12.0031    2.4099   21.3608 C   0  0  0  0  0  0  0  0  0  0  0  0
   11.7030    1.1770   21.1394 N   0  0  0  0  0  0  0  0  0  0  0  0
   12.3686    3.1450   20.6557 H   0  0  0  0  0  0  0  0  0  0  0  0
   11.1631    1.7902   24.3317 H   0  0  0  0  0  0  0  0  0  0  0  0
   11.3552   -1.2919   21.6624 H   0  0  0  0  0  0  0  0  0  0  0  0
   11.2948   -1.2037   23.4223 H   0  0  0  0  0  0  0  0  0  0  0  0
    8.8692   -2.3168   22.8843 C   0  0  0  0  0  0  0  0  0  0  0  0
    7.3573   -2.1919   23.0315 C   0  0  0  0  0  0  0  0  0  0  0  0
    6.9234   -3.1863   23.1681 H   0  0  0  0  0  0  0  0  0  0  0  0
    7.1102   -1.6353   23.9465 H   0  0  0  0  0  0  0  0  0  0  0  0
    9.1190   -3.0686   22.1282 H   0  0  0  0  0  0  0  0  0  0  0  0
    9.3290   -2.6241   23.8305 H   0  0  0  0  0  0  0  0  0  0  0  0
    8.9418   -0.2664   23.0832 H   0  0  0  0  0  0  0  0  0  0  0  0
    9.3526   -1.2934   20.3053 H   0  0  0  0  0  0  0  0  0  0  0  0
    9.1886    0.3988   20.7965 H   0  0  0  0  0  0  0  0  0  0  0  0
    5.6405   -1.6652   21.7161 H   0  0  0  0  0  0  0  0  0  0  0  0
  1  2  2  0
  2  3  1  0
  3  4  2  0
  4  5  1  0
  5  6  2  0
  6  7  1  0
  7  8  2  0
  8  9  1  0
  6 10  1  0
  5 11  1  0
  4 12  1  0
  2 13  1  0
 13 14  1  0
 14 15  1  0
 15 16  1  0
 16 17  2  0
 17 18  1  0
 18 19  1  0
 19 20  2  0
 19 21  1  0
 17 22  1  0
 15 23  1  0
 15 24  1  0
 14 25  1  0
 25 26  1  0
 26 27  1  0
 26 28  1  0
 25 29  1  0
 25 30  1  0
 14 31  1  0
 13 32  1  0
 13 33  1  0
  1 34  1  0
 26  1  1  0
  8  3  1  0
 20 16  1  0
M  CHG  1  14   1
M  END
>  <plip>  (1) 
-0.07142857142857142

>  <filename>  (1) 
[H][C]1=[C]([c]2[c]([H])[n][c]([H])[c]([H])[c]2[H])[C]([H])([H])[N+]([H])([C]([H])([H])[c]2[n][c]([H])[o][c]2[H])[C]([H])([H])[C]1([H])[H]

$$$$
