
     RDKit          3D

 32 34  0  0  0  0  0  0  0  0999 V2000
    9.6417    0.0839   28.6493 H   0  0  0  0  0  0  0  0  0  0  0  0
    9.5363   -0.8516   28.4136 O   0  0  0  0  0  0  0  0  0  0  0  0
    9.0412   -0.9382   27.1526 C   0  0  0  0  0  0  0  0  0  0  0  0
    8.9631   -2.2138   26.5785 C   0  0  0  0  0  0  0  0  0  0  0  0
    9.2192   -3.0648   27.2022 H   0  0  0  0  0  0  0  0  0  0  0  0
    8.5782   -2.3787   25.2459 C   0  0  0  0  0  0  0  0  0  0  0  0
    8.5910   -3.3671   24.7876 H   0  0  0  0  0  0  0  0  0  0  0  0
    8.2044   -1.2619   24.4715 C   0  0  0  0  0  0  0  0  0  0  0  0
    7.9323   -1.3497   23.0206 C   0  0  0  0  0  0  0  0  0  0  0  0
    8.3327   -2.2861   22.1492 C   0  0  0  0  0  0  0  0  0  0  0  0
    8.9008   -3.1800   22.3816 H   0  0  0  0  0  0  0  0  0  0  0  0
    7.9410   -1.9450   20.7496 C   0  0  0  0  0  0  0  0  0  0  0  0
    8.8323   -1.8738   20.1088 H   0  0  0  0  0  0  0  0  0  0  0  0
    7.2668   -2.7105   20.3450 H   0  0  0  0  0  0  0  0  0  0  0  0
    7.2610   -0.6664   20.8910 N   0  0  0  0  0  0  0  0  0  0  0  0
    6.6326    0.0194   19.8102 C   0  0  0  0  0  0  0  0  0  0  0  0
    7.1441    0.0180   18.4841 C   0  0  0  0  0  0  0  0  0  0  0  0
    8.0744   -0.4996   18.2532 H   0  0  0  0  0  0  0  0  0  0  0  0
    6.5611    0.6473   17.4526 N   0  0  0  0  0  0  0  0  0  0  0  0
    5.4237    1.3185   17.6899 C   0  0  0  0  0  0  0  0  0  0  0  0
    4.9666    1.8214   16.8405 H   0  0  0  0  0  0  0  0  0  0  0  0
    4.8351    1.3830   18.9549 C   0  0  0  0  0  0  0  0  0  0  0  0
    3.9273    1.9555   19.1006 H   0  0  0  0  0  0  0  0  0  0  0  0
    5.4416    0.7312   20.0297 C   0  0  0  0  0  0  0  0  0  0  0  0
    5.0342    0.7786   21.0331 H   0  0  0  0  0  0  0  0  0  0  0  0
    7.2117   -0.2807   22.2408 C   0  0  0  0  0  0  0  0  0  0  0  0
    6.6798    0.7351   22.6470 O   0  0  0  0  0  0  0  0  0  0  0  0
    8.1812    0.0009   25.0894 C   0  0  0  0  0  0  0  0  0  0  0  0
    7.8537    0.8685   24.5328 H   0  0  0  0  0  0  0  0  0  0  0  0
    8.6261    0.1791   26.3867 C   0  0  0  0  0  0  0  0  0  0  0  0
    8.6750    1.4394   26.9242 O   0  0  0  0  0  0  0  0  0  0  0  0
    8.7148    2.0653   26.1861 H   0  0  0  0  0  0  0  0  0  0  0  0
  1  2  1  0
  2  3  1  0
  3  4  2  0
  4  5  1  0
  4  6  1  0
  6  7  1  0
  6  8  2  0
  8  9  1  0
  9 10  2  0
 10 11  1  0
 10 12  1  0
 12 13  1  0
 12 14  1  0
 12 15  1  0
 15 16  1  0
 16 17  2  0
 17 18  1  0
 17 19  1  0
 19 20  2  0
 20 21  1  0
 20 22  1  0
 22 23  1  0
 22 24  2  0
 24 25  1  0
 15 26  1  0
 26 27  2  0
  8 28  1  0
 28 29  1  0
 28 30  2  0
 30 31  1  0
 31 32  1  0
 30  3  1  0
 26  9  1  0
 24 16  1  0
M  END
>  <plip>  (1) 
-0.10344827586206896

>  <filename>  (1) 
[H][O][c]1[c]([H])[c]([H])[c]([C]2=[C]([H])[C]([H])([H])[N]([c]3[c]([H])[n][c]([H])[c]([H])[c]3[H])[C]2=[O])[c]([H])[c]1[O][H]

$$$$
