
     RDKit          3D

 28 30  0  0  0  0  0  0  0  0999 V2000
    4.8056    1.2975   19.1082 C   0  0  0  0  0  0  0  0  0  0  0  0
    5.4066    1.2782   17.8461 C   0  0  0  0  0  0  0  0  0  0  0  0
    6.5627    0.6468   17.5970 N   0  0  0  0  0  0  0  0  0  0  0  0
    7.1575    0.0152   18.6193 C   0  0  0  0  0  0  0  0  0  0  0  0
    6.6518   -0.0263   19.9264 C   0  0  0  0  0  0  0  0  0  0  0  0
    7.4057   -0.7443   21.0136 C   0  0  0  0  0  0  0  0  0  0  0  0
    7.0039   -2.1380   21.0386 N   0  0  0  0  0  0  0  0  0  0  0  0
    7.4415   -3.0401   21.9251 C   0  0  0  0  0  0  0  0  0  0  0  0
    8.3518   -2.6333   22.7966 N   0  0  0  0  0  0  0  0  0  0  0  0
    8.8080   -3.5522   23.6671 C   0  0  0  0  0  0  0  0  0  0  0  0
    8.4638   -4.8089   23.7487 N   0  0  0  0  0  0  0  0  0  0  0  0
    7.5286   -5.2078   22.8540 C   0  0  0  0  0  0  0  0  0  0  0  0
    7.1916   -6.5239   22.9526 N   0  0  0  0  0  0  0  0  0  0  0  0
    6.2835   -6.9718   22.1212 C   0  0  0  0  0  0  0  0  0  0  0  0
    5.6680   -6.1475   21.1208 C   0  0  0  0  0  0  0  0  0  0  0  0
    5.9686   -4.8702   20.9829 N   0  0  0  0  0  0  0  0  0  0  0  0
    6.9214   -4.3932   21.8733 C   0  0  0  0  0  0  0  0  0  0  0  0
    4.9469   -6.5773   20.4365 H   0  0  0  0  0  0  0  0  0  0  0  0
    6.0134   -8.0221   22.2176 H   0  0  0  0  0  0  0  0  0  0  0  0
    9.5538   -3.1982   24.3795 H   0  0  0  0  0  0  0  0  0  0  0  0
    6.2947   -2.4967   20.4204 H   0  0  0  0  0  0  0  0  0  0  0  0
    8.4932   -0.6906   20.8533 H   0  0  0  0  0  0  0  0  0  0  0  0
    7.2149   -0.2810   21.9940 H   0  0  0  0  0  0  0  0  0  0  0  0
    5.4352    0.6291   20.1617 C   0  0  0  0  0  0  0  0  0  0  0  0
    5.0011    0.6376   21.1630 H   0  0  0  0  0  0  0  0  0  0  0  0
    8.1156   -0.4463   18.3813 H   0  0  0  0  0  0  0  0  0  0  0  0
    4.9424    1.7850   16.9991 H   0  0  0  0  0  0  0  0  0  0  0  0
    3.8795    1.8433   19.2502 H   0  0  0  0  0  0  0  0  0  0  0  0
  1  2  2  0
  2  3  1  0
  3  4  2  0
  4  5  1  0
  5  6  1  0
  6  7  1  0
  7  8  1  0
  8  9  2  0
  9 10  1  0
 10 11  2  0
 11 12  1  0
 12 13  2  0
 13 14  1  0
 14 15  2  0
 15 16  1  0
 16 17  2  0
 15 18  1  0
 14 19  1  0
 10 20  1  0
  7 21  1  0
  6 22  1  0
  6 23  1  0
  5 24  2  0
 24 25  1  0
  4 26  1  0
  2 27  1  0
  1 28  1  0
 24  1  1  0
 17  8  1  0
 17 12  1  0
M  END
>  <plip>  (1) 
-0.034482758620689655

>  <filename>  (1) 
[H][c]1[n][c]([N]([H])[C]([H])([H])[c]2[c]([H])[n][c]([H])[c]([H])[c]2[H])[c]2[n][c]([H])[c]([H])[n][c]2[n]1

$$$$
