
     RDKit          3D

 31 33  0  0  0  0  0  0  0  0999 V2000
    8.1140   -2.8535   23.5879 H   0  0  0  0  0  0  0  0  0  0  0  0
    8.0521   -2.1143   22.8061 C   0  0  0  0  0  0  0  0  0  0  0  0
    9.0030   -1.2804   22.5349 N   0  0  0  0  0  0  0  0  0  0  0  0
    8.6426   -0.4565   21.4894 C   0  0  0  0  0  0  0  0  0  0  0  0
    9.5050    0.6987   21.0366 C   0  0  0  0  0  0  0  0  0  0  0  0
    9.4026    0.7450   19.9454 H   0  0  0  0  0  0  0  0  0  0  0  0
   11.0040    0.5210   21.3689 C   0  0  0  0  0  0  0  0  0  0  0  0
   11.3088   -0.5067   21.1399 H   0  0  0  0  0  0  0  0  0  0  0  0
   11.6003    1.2033   20.7521 H   0  0  0  0  0  0  0  0  0  0  0  0
   11.3275    0.8585   22.8262 C   0  0  0  0  0  0  0  0  0  0  0  0
   12.4135    0.8794   22.9746 H   0  0  0  0  0  0  0  0  0  0  0  0
   10.8951    0.1038   23.4959 H   0  0  0  0  0  0  0  0  0  0  0  0
   10.8431    2.1476   23.1720 O   0  0  0  0  0  0  0  0  0  0  0  0
    9.4313    2.2303   23.0522 C   0  0  0  0  0  0  0  0  0  0  0  0
    8.9585    1.4632   23.6886 H   0  0  0  0  0  0  0  0  0  0  0  0
    9.1404    3.2157   23.4318 H   0  0  0  0  0  0  0  0  0  0  0  0
    8.9926    2.0506   21.5998 C   0  0  0  0  0  0  0  0  0  0  0  0
    9.4108    2.8763   21.0169 H   0  0  0  0  0  0  0  0  0  0  0  0
    7.9002    2.1139   21.5160 H   0  0  0  0  0  0  0  0  0  0  0  0
    7.3778   -0.6952   20.9790 C   0  0  0  0  0  0  0  0  0  0  0  0
    6.6637    0.0134   19.9043 C   0  0  0  0  0  0  0  0  0  0  0  0
    7.1648    0.0656   18.5889 C   0  0  0  0  0  0  0  0  0  0  0  0
    8.1115   -0.4267   18.3715 H   0  0  0  0  0  0  0  0  0  0  0  0
    6.5587    0.6768   17.5666 N   0  0  0  0  0  0  0  0  0  0  0  0
    5.3983    1.2971   17.8329 C   0  0  0  0  0  0  0  0  0  0  0  0
    4.9138    1.7854   16.9921 H   0  0  0  0  0  0  0  0  0  0  0  0
    4.8052    1.3116   19.1012 C   0  0  0  0  0  0  0  0  0  0  0  0
    3.8725    1.8446   19.2565 H   0  0  0  0  0  0  0  0  0  0  0  0
    5.4360    0.6510   20.1533 C   0  0  0  0  0  0  0  0  0  0  0  0
    5.0120    0.6332   21.1626 H   0  0  0  0  0  0  0  0  0  0  0  0
    6.6437   -1.9900   21.8416 S   0  0  0  0  0  0  0  0  0  0  0  0
  1  2  1  0
  2  3  2  0
  3  4  1  0
  4  5  1  0
  5  6  1  0
  5  7  1  0
  7  8  1  0
  7  9  1  0
  7 10  1  0
 10 11  1  0
 10 12  1  0
 10 13  1  0
 13 14  1  0
 14 15  1  0
 14 16  1  0
 14 17  1  0
 17 18  1  0
 17 19  1  0
  4 20  2  0
 20 21  1  0
 21 22  2  0
 22 23  1  0
 22 24  1  0
 24 25  2  0
 25 26  1  0
 25 27  1  0
 27 28  1  0
 27 29  2  0
 29 30  1  0
 20 31  1  0
 31  2  1  0
 17  5  1  0
 29 21  1  0
M  END
>  <plip>  (1) 
-0.03571428571428571

>  <filename>  (1) 
[H][c]1[n][c]([C]2([H])[C]([H])([H])[C]([H])([H])[O][C]([H])([H])[C]2([H])[H])[c](-[c]2[c]([H])[n][c]([H])[c]([H])[c]2[H])[s]1

$$$$
