
     RDKit          3D

 25 27  0  0  0  0  0  0  0  0999 V2000
    4.9172    1.7730   17.0032 H   0  0  0  0  0  0  0  0  0  0  0  0
    5.4059    1.2880   17.8471 C   0  0  0  0  0  0  0  0  0  0  0  0
    6.5708    0.6726   17.5947 N   0  0  0  0  0  0  0  0  0  0  0  0
    7.1781    0.0570   18.6127 C   0  0  0  0  0  0  0  0  0  0  0  0
    8.1229   -0.4284   18.3739 H   0  0  0  0  0  0  0  0  0  0  0  0
    6.6597    0.0060   19.9149 C   0  0  0  0  0  0  0  0  0  0  0  0
    7.3708   -0.6996   20.9887 C   0  0  0  0  0  0  0  0  0  0  0  0
    6.9050   -0.7576   22.2009 N   0  0  0  0  0  0  0  0  0  0  0  0
    7.7617   -1.4769   23.0000 C   0  0  0  0  0  0  0  0  0  0  0  0
    7.4813   -1.7086   24.4623 C   0  0  0  0  0  0  0  0  0  0  0  0
    6.3393   -1.2053   25.0768 N   0  0  0  0  0  0  0  0  0  0  0  0
    6.2924   -1.5045   26.3293 C   0  0  0  0  0  0  0  0  0  0  0  0
    5.1994   -1.0535   27.2470 C   0  0  0  0  0  0  0  0  0  0  0  0
    5.4843   -0.1055   27.7166 H   0  0  0  0  0  0  0  0  0  0  0  0
    4.2843   -0.8838   26.6758 H   0  0  0  0  0  0  0  0  0  0  0  0
    5.0096   -1.7821   28.0368 H   0  0  0  0  0  0  0  0  0  0  0  0
    7.6501   -2.4476   26.8877 S   0  0  0  0  0  0  0  0  0  0  0  0
    8.3068   -2.4130   25.3042 C   0  0  0  0  0  0  0  0  0  0  0  0
    9.2457   -2.8938   25.0595 H   0  0  0  0  0  0  0  0  0  0  0  0
    8.8582   -1.9738   22.4514 N   0  0  0  0  0  0  0  0  0  0  0  0
    8.8819   -1.5465   20.8534 S   0  0  0  0  0  0  0  0  0  0  0  0
    5.4363    0.6535   20.1639 C   0  0  0  0  0  0  0  0  0  0  0  0
    5.0073    0.6295   21.1684 H   0  0  0  0  0  0  0  0  0  0  0  0
    4.8045    1.3103   19.1113 C   0  0  0  0  0  0  0  0  0  0  0  0
    3.8718    1.8449   19.2631 H   0  0  0  0  0  0  0  0  0  0  0  0
  1  2  1  0
  2  3  2  0
  3  4  1  0
  4  5  1  0
  4  6  2  0
  6  7  1  0
  7  8  2  0
  8  9  1  0
  9 10  1  0
 10 11  1  0
 11 12  2  0
 12 13  1  0
 13 14  1  0
 13 15  1  0
 13 16  1  0
 12 17  1  0
 17 18  1  0
 18 19  1  0
  9 20  2  0
 20 21  1  0
  6 22  1  0
 22 23  1  0
 22 24  2  0
 24 25  1  0
 24  2  1  0
 21  7  1  0
 18 10  2  0
M  END
>  <plip>  (1) 
-0.0

>  <filename>  (1) 
[H][c]1[n][c]([H])[c](-[c]2[n][c](-[c]3[n][c]([C]([H])([H])[H])[s][c]3[H])[n][s]2)[c]([H])[c]1[H]

$$$$
