
     RDKit          3D

 28 29  0  0  0  0  0  0  0  0999 V2000
    5.8637    1.2139   25.0870 C   0  0  0  0  0  0  0  0  0  0  0  0
    7.0146    0.9347   25.6893 C   0  0  0  0  0  0  0  0  0  0  0  0
    8.3182    0.7848   24.9650 C   0  0  0  0  0  0  0  0  0  0  0  0
    9.0377   -0.8701   25.2145 S   0  0  0  0  0  0  0  0  0  0  0  0
    7.8169   -1.8222   24.2508 C   0  0  0  0  0  0  0  0  0  0  0  0
    7.8334   -1.5268   22.8427 N   0  0  0  0  0  0  0  0  0  0  0  0
    6.8793   -0.7661   22.2022 N   0  0  0  0  0  0  0  0  0  0  0  0
    7.3292   -0.6743   20.9931 C   0  0  0  0  0  0  0  0  0  0  0  0
    6.6533    0.0138   19.9070 C   0  0  0  0  0  0  0  0  0  0  0  0
    5.4326    0.6579   20.1587 C   0  0  0  0  0  0  0  0  0  0  0  0
    4.8034    1.3117   19.1080 C   0  0  0  0  0  0  0  0  0  0  0  0
    5.4099    1.2867   17.8454 C   0  0  0  0  0  0  0  0  0  0  0  0
    6.5754    0.6697   17.5917 N   0  0  0  0  0  0  0  0  0  0  0  0
    7.1856    0.0534   18.6111 C   0  0  0  0  0  0  0  0  0  0  0  0
    8.1297   -0.4320   18.3734 H   0  0  0  0  0  0  0  0  0  0  0  0
    4.9200    1.7723   17.0034 H   0  0  0  0  0  0  0  0  0  0  0  0
    3.8710    1.8458   19.2612 H   0  0  0  0  0  0  0  0  0  0  0  0
    5.0019    0.6284   21.1629 H   0  0  0  0  0  0  0  0  0  0  0  0
    8.5195   -1.2829   20.8002 O   0  0  0  0  0  0  0  0  0  0  0  0
    8.8831   -1.8349   22.0172 C   0  0  0  0  0  0  0  0  0  0  0  0
    9.8830   -2.4609   22.2257 O   0  0  0  0  0  0  0  0  0  0  0  0
    6.8151   -1.6353   24.6451 H   0  0  0  0  0  0  0  0  0  0  0  0
    8.0400   -2.8795   24.4041 H   0  0  0  0  0  0  0  0  0  0  0  0
    8.1913    0.9655   23.8907 H   0  0  0  0  0  0  0  0  0  0  0  0
    9.0513    1.5099   25.3381 H   0  0  0  0  0  0  0  0  0  0  0  0
    7.0493    0.7754   26.7668 H   0  0  0  0  0  0  0  0  0  0  0  0
    5.8260    1.3561   24.0082 H   0  0  0  0  0  0  0  0  0  0  0  0
    4.9383    1.3103   25.6450 H   0  0  0  0  0  0  0  0  0  0  0  0
  1  2  2  3
  2  3  1  0
  3  4  1  0
  4  5  1  0
  5  6  1  0
  6  7  1  0
  7  8  2  0
  8  9  1  0
  9 10  2  0
 10 11  1  0
 11 12  2  0
 12 13  1  0
 13 14  2  0
 14 15  1  0
 12 16  1  0
 11 17  1  0
 10 18  1  0
  8 19  1  0
 19 20  1  0
 20 21  2  0
  5 22  1  0
  5 23  1  0
  3 24  1  0
  3 25  1  0
  2 26  1  0
  1 27  1  0
  1 28  1  0
 20  6  1  0
 14  9  1  0
M  END
>  <plip>  (1) 
-0.03571428571428571

>  <filename>  (1) 
[H][C]([H])=[C]([H])[C]([H])([H])[S][C]([H])([H])[n]1[n][c](-[c]2[c]([H])[n][c]([H])[c]([H])[c]2[H])[o][c]1=[O]

$$$$
