
     RDKit          3D

 31 33  0  0  0  0  0  0  0  0999 V2000
    5.5218    1.3218   23.3178 H   0  0  0  0  0  0  0  0  0  0  0  0
    6.5388    1.2746   23.7163 C   0  0  0  0  0  0  0  0  0  0  0  0
    6.7166    1.1323   25.0416 C   0  0  0  0  0  0  0  0  0  0  0  0
    5.4124    0.9969   26.2505 S   0  0  0  0  0  0  0  0  0  0  0  0
    6.5429    0.6503   27.5737 C   0  0  0  0  0  0  0  0  0  0  0  0
    6.1679    0.2820   29.1161 S   0  0  0  0  0  0  0  0  0  0  0  0
    7.8098    0.7516   27.0874 N   0  0  0  0  0  0  0  0  0  0  0  0
    8.6265    0.6090   27.6623 H   0  0  0  0  0  0  0  0  0  0  0  0
    8.0293    0.9759   25.7519 C   0  0  0  0  0  0  0  0  0  0  0  0
    9.1450    1.0090   25.2825 O   0  0  0  0  0  0  0  0  0  0  0  0
    7.6331    1.2167   22.6681 C   0  0  0  0  0  0  0  0  0  0  0  0
    7.3968    1.8680   21.8208 H   0  0  0  0  0  0  0  0  0  0  0  0
    8.5842    1.5438   23.1033 H   0  0  0  0  0  0  0  0  0  0  0  0
    7.8220   -0.1381   22.1401 N   0  0  0  0  0  0  0  0  0  0  0  0
    8.4704   -1.1115   22.8638 C   0  0  0  0  0  0  0  0  0  0  0  0
    8.9290   -0.8376   23.8067 H   0  0  0  0  0  0  0  0  0  0  0  0
    8.3538   -2.3077   22.2015 C   0  0  0  0  0  0  0  0  0  0  0  0
    8.8057   -3.2461   22.4993 H   0  0  0  0  0  0  0  0  0  0  0  0
    7.5822   -2.0565   21.0352 C   0  0  0  0  0  0  0  0  0  0  0  0
    7.2117   -2.7737   20.3161 H   0  0  0  0  0  0  0  0  0  0  0  0
    7.2975   -0.7101   20.9917 C   0  0  0  0  0  0  0  0  0  0  0  0
    6.6142    0.0458   19.9132 C   0  0  0  0  0  0  0  0  0  0  0  0
    7.1361    0.0766   18.5993 C   0  0  0  0  0  0  0  0  0  0  0  0
    8.0838   -0.4102   18.3685 H   0  0  0  0  0  0  0  0  0  0  0  0
    6.5531    0.7006   17.5650 N   0  0  0  0  0  0  0  0  0  0  0  0
    5.3902    1.3308   17.7956 C   0  0  0  0  0  0  0  0  0  0  0  0
    4.9339    1.8309   16.9408 H   0  0  0  0  0  0  0  0  0  0  0  0
    4.7708    1.3537   19.0483 C   0  0  0  0  0  0  0  0  0  0  0  0
    3.8253    1.8683   19.1701 H   0  0  0  0  0  0  0  0  0  0  0  0
    5.3916    0.7073   20.1188 C   0  0  0  0  0  0  0  0  0  0  0  0
    4.9311    0.6963   21.1063 H   0  0  0  0  0  0  0  0  0  0  0  0
  1  2  1  0
  2  3  2  3
  3  4  1  0
  4  5  1  0
  5  6  2  0
  5  7  1  0
  7  8  1  0
  7  9  1  0
  9 10  2  0
  2 11  1  0
 11 12  1  0
 11 13  1  0
 11 14  1  0
 14 15  1  0
 15 16  1  0
 15 17  2  0
 17 18  1  0
 17 19  1  0
 19 20  1  0
 19 21  2  0
 21 22  1  0
 22 23  2  0
 23 24  1  0
 23 25  1  0
 25 26  2  0
 26 27  1  0
 26 28  1  0
 28 29  1  0
 28 30  2  0
 30 31  1  0
  9  3  1  0
 21 14  1  0
 30 22  1  0
M  END
>  <plip>  (1) 
-0.07142857142857142

>  <filename>  (1) 
[H][C](=[C]1[S][C](=[S])[N]([H])[C]1=[O])[C]([H])([H])[n]1[c]([H])[c]([H])[c]([H])[c]1-[c]1[c]([H])[n][c]([H])[c]([H])[c]1[H]

$$$$
