
     RDKit          3D

 24 24  0  0  0  0  0  0  0  0999 V2000
    7.7795   -4.8559   27.6301 H   0  0  0  0  0  0  0  0  0  0  0  0
    8.4259   -4.2464   27.2171 O   0  0  0  0  0  0  0  0  0  0  0  0
    7.6449   -3.8027   26.2312 C   0  0  0  0  0  0  0  0  0  0  0  0
    6.4985   -4.1882   26.1894 O   0  0  0  0  0  0  0  0  0  0  0  0
    8.3061   -2.8463   25.1508 C   0  0  0  0  0  0  0  0  0  0  0  0
    9.5200   -2.6589   25.1278 O   0  0  0  0  0  0  0  0  0  0  0  0
    7.4286   -2.2820   24.1386 C   0  0  0  0  0  0  0  0  0  0  0  0
    6.3598   -2.2758   24.3136 H   0  0  0  0  0  0  0  0  0  0  0  0
    7.9322   -1.8215   22.9519 C   0  0  0  0  0  0  0  0  0  0  0  0
    9.2022   -2.0476   22.6490 O   0  0  0  0  0  0  0  0  0  0  0  0
    9.6388   -2.3318   23.5006 H   0  0  0  0  0  0  0  0  0  0  0  0
    7.0573   -1.0932   21.9526 C   0  0  0  0  0  0  0  0  0  0  0  0
    6.0222   -0.9897   22.2938 H   0  0  0  0  0  0  0  0  0  0  0  0
    7.4553   -0.6805   20.8177 N   0  0  0  0  0  0  0  0  0  0  0  0
    6.6502    0.0025   19.8806 C   0  0  0  0  0  0  0  0  0  0  0  0
    7.1583    0.0691   18.5581 C   0  0  0  0  0  0  0  0  0  0  0  0
    8.1108   -0.4216   18.3716 H   0  0  0  0  0  0  0  0  0  0  0  0
    6.5499    0.6854   17.5440 N   0  0  0  0  0  0  0  0  0  0  0  0
    5.3838    1.3057   17.8184 C   0  0  0  0  0  0  0  0  0  0  0  0
    4.9118    1.8183   16.9861 H   0  0  0  0  0  0  0  0  0  0  0  0
    4.7925    1.3118   19.0857 C   0  0  0  0  0  0  0  0  0  0  0  0
    3.8587    1.8456   19.2431 H   0  0  0  0  0  0  0  0  0  0  0  0
    5.4312    0.6473   20.1458 C   0  0  0  0  0  0  0  0  0  0  0  0
    5.0123    0.6505   21.1541 H   0  0  0  0  0  0  0  0  0  0  0  0
  1  2  1  0
  2  3  1  0
  3  4  2  0
  3  5  1  0
  5  6  2  0
  5  7  1  0
  7  8  1  0
  7  9  2  3
  9 10  1  0
 10 11  1  0
  9 12  1  0
 12 13  1  0
 12 14  2  3
 14 15  1  0
 15 16  2  0
 16 17  1  0
 16 18  1  0
 18 19  2  0
 19 20  1  0
 19 21  1  0
 21 22  1  0
 21 23  2  0
 23 24  1  0
 23 15  1  0
M  END
>  <plip>  (1) 
-0.0

>  <filename>  (1) 
[H][O][C](=[O])[C](=[O])[C]([H])=[C]([O][H])[C]([H])=[N][c]1[c]([H])[n][c]([H])[c]([H])[c]1[H]

$$$$
