
     RDKit          3D

 29 30  0  0  0  0  0  0  0  0999 V2000
    7.9312   -2.2112   22.2145 H   0  0  0  0  0  0  0  0  0  0  0  0
    7.9728   -1.5417   22.9086 O   0  0  0  0  0  0  0  0  0  0  0  0
    7.0017   -0.6740   22.3786 C   0  0  1  0  0  0  0  0  0  0  0  0
    5.9923   -1.0441   22.6187 H   0  0  0  0  0  0  0  0  0  0  0  0
    7.2013    0.6892   22.8909 C   0  0  0  0  0  0  0  0  0  0  0  0
    8.3237    1.5374   22.6592 C   0  0  0  0  0  0  0  0  0  0  0  0
    9.5315    1.3505   21.7986 C   0  0  0  0  0  0  0  0  0  0  0  0
    9.9642    0.3627   21.9797 H   0  0  0  0  0  0  0  0  0  0  0  0
    9.2674    1.4366   20.7401 H   0  0  0  0  0  0  0  0  0  0  0  0
   10.2718    2.1226   22.0346 H   0  0  0  0  0  0  0  0  0  0  0  0
    8.2186    2.6377   23.3584 N   0  0  0  0  0  0  0  0  0  0  0  0
    7.0342    2.5340   24.0616 O   0  0  0  0  0  0  0  0  0  0  0  0
    6.4487    1.3656   23.7833 C   0  0  0  0  0  0  0  0  0  0  0  0
    5.1488    1.0507   24.4448 C   0  0  0  0  0  0  0  0  0  0  0  0
    5.1720    0.0324   24.8458 H   0  0  0  0  0  0  0  0  0  0  0  0
    4.3391    1.0878   23.7110 H   0  0  0  0  0  0  0  0  0  0  0  0
    4.9226    1.7579   25.2447 H   0  0  0  0  0  0  0  0  0  0  0  0
    7.2937   -0.8116   20.9641 N   0  0  0  0  0  0  0  0  0  0  0  0
    8.3033   -0.7657   20.9473 H   0  0  0  0  0  0  0  0  0  0  0  0
    6.6733   -0.0696   19.9400 C   0  0  0  0  0  0  0  0  0  0  0  0
    7.1950    0.0014   18.6092 C   0  0  0  0  0  0  0  0  0  0  0  0
    8.1211   -0.5096   18.3604 H   0  0  0  0  0  0  0  0  0  0  0  0
    6.6242    0.6523   17.5838 N   0  0  0  0  0  0  0  0  0  0  0  0
    5.4704    1.2928   17.8302 C   0  0  0  0  0  0  0  0  0  0  0  0
    5.0186    1.8143   16.9853 H   0  0  0  0  0  0  0  0  0  0  0  0
    4.8665    1.3001   19.0918 C   0  0  0  0  0  0  0  0  0  0  0  0
    3.9342    1.8358   19.2265 H   0  0  0  0  0  0  0  0  0  0  0  0
    5.4741    0.6253   20.1616 C   0  0  0  0  0  0  0  0  0  0  0  0
    5.0344    0.6376   21.1575 H   0  0  0  0  0  0  0  0  0  0  0  0
  1  2  1  0
  2  3  1  0
  3  4  1  6
  3  5  1  0
  5  6  1  0
  6  7  1  0
  7  8  1  0
  7  9  1  0
  7 10  1  0
  6 11  2  0
 11 12  1  0
 12 13  1  0
 13 14  1  0
 14 15  1  0
 14 16  1  0
 14 17  1  0
  3 18  1  0
 18 19  1  0
 18 20  1  0
 20 21  2  0
 21 22  1  0
 21 23  1  0
 23 24  2  0
 24 25  1  0
 24 26  1  0
 26 27  1  0
 26 28  2  0
 28 29  1  0
 13  5  2  0
 28 20  1  0
M  END
>  <plip>  (1) 
-0.03571428571428571

>  <filename>  (1) 
[H][O][C@@]([H])([c]1[c]([C]([H])([H])[H])[n][o][c]1[C]([H])([H])[H])[N]([H])[c]1[c]([H])[n][c]([H])[c]([H])[c]1[H]

$$$$
