
     RDKit          3D

 46 48  0  0  0  0  0  0  0  0999 V2000
    5.8734   -2.9424   19.8238 O   0  0  0  0  0  0  0  0  0  0  0  0
    5.8774   -2.8211   21.0343 C   0  0  0  0  0  0  0  0  0  0  0  0
    5.3442   -3.8966   21.9674 C   0  0  0  0  0  0  0  0  0  0  0  0
    6.3526   -5.0021   22.3954 C   0  0  0  0  0  0  0  0  0  0  0  0
    5.5647   -6.1190   23.1239 C   0  0  0  0  0  0  0  0  0  0  0  0
    4.6968   -6.8338   22.6860 O   0  0  0  0  0  0  0  0  0  0  0  0
    5.9778   -6.1107   24.4211 N   0  0  0  0  0  0  0  0  0  0  0  0
    7.0422   -5.2405   24.6309 C   0  0  0  0  0  0  0  0  0  0  0  0
    7.3788   -4.5905   23.4372 C   0  0  0  0  0  0  0  0  0  0  0  0
    8.4727   -3.7170   23.4104 C   0  0  0  0  0  0  0  0  0  0  0  0
    9.1654   -3.4502   24.6000 C   0  0  0  0  0  0  0  0  0  0  0  0
    8.7875   -4.0754   25.8072 C   0  0  0  0  0  0  0  0  0  0  0  0
    7.7334   -4.9751   25.8147 C   0  0  0  0  0  0  0  0  0  0  0  0
    7.3777   -5.6089   26.9498 F   0  0  0  0  0  0  0  0  0  0  0  0
    9.3048   -3.8959   26.7435 H   0  0  0  0  0  0  0  0  0  0  0  0
   10.0090   -2.7637   24.5994 H   0  0  0  0  0  0  0  0  0  0  0  0
    8.8012   -3.2664   22.4766 H   0  0  0  0  0  0  0  0  0  0  0  0
    5.6041   -6.8060   25.0421 H   0  0  0  0  0  0  0  0  0  0  0  0
    6.8121   -5.4583   21.5157 H   0  0  0  0  0  0  0  0  0  0  0  0
    4.5224   -4.3900   21.4547 H   0  0  0  0  0  0  0  0  0  0  0  0
    4.9273   -3.4281   22.8660 H   0  0  0  0  0  0  0  0  0  0  0  0
    6.3164   -1.7070   21.6802 N   0  0  0  0  0  0  0  0  0  0  0  0
    7.2116   -0.7539   21.0558 C   0  0  0  0  0  0  0  0  0  0  0  0
    7.7829    0.1775   22.1440 C   0  0  0  0  0  0  0  0  0  0  0  0
    8.8852    1.1390   21.6578 C   0  0  0  0  0  0  0  0  0  0  0  0
   10.2575    0.5262   21.3962 C   0  0  0  0  0  0  0  0  0  0  0  0
   10.1390   -0.5862   20.5174 O   0  0  0  0  0  0  0  0  0  0  0  0
   11.0127   -0.8287   20.1861 H   0  0  0  0  0  0  0  0  0  0  0  0
   10.7194    0.2161   22.3506 H   0  0  0  0  0  0  0  0  0  0  0  0
   10.8976    1.3031   20.9468 H   0  0  0  0  0  0  0  0  0  0  0  0
    8.5449    1.6422   20.7416 H   0  0  0  0  0  0  0  0  0  0  0  0
    9.0361    1.9305   22.4038 H   0  0  0  0  0  0  0  0  0  0  0  0
    8.1638   -0.4501   22.9653 H   0  0  0  0  0  0  0  0  0  0  0  0
    6.9535    0.7678   22.5576 H   0  0  0  0  0  0  0  0  0  0  0  0
    6.5127   -0.0183   19.9301 C   0  0  0  0  0  0  0  0  0  0  0  0
    5.3017    0.6697   20.0961 C   0  0  0  0  0  0  0  0  0  0  0  0
    4.7672    1.3510   19.0016 C   0  0  0  0  0  0  0  0  0  0  0  0
    5.4542    1.3164   17.7823 C   0  0  0  0  0  0  0  0  0  0  0  0
    6.6078    0.6582   17.5985 N   0  0  0  0  0  0  0  0  0  0  0  0
    7.1038    0.0079   18.6618 C   0  0  0  0  0  0  0  0  0  0  0  0
    8.0476   -0.5213   18.5073 H   0  0  0  0  0  0  0  0  0  0  0  0
    5.0601    1.8370   16.9127 H   0  0  0  0  0  0  0  0  0  0  0  0
    3.8365    1.9013   19.0796 H   0  0  0  0  0  0  0  0  0  0  0  0
    4.7896    0.6517   21.0610 H   0  0  0  0  0  0  0  0  0  0  0  0
    8.0530   -1.2918   20.6016 H   0  0  0  0  0  0  0  0  0  0  0  0
    6.2732   -1.7291   22.6848 H   0  0  0  0  0  0  0  0  0  0  0  0
  1  2  2  0
  2  3  1  0
  3  4  1  0
  4  5  1  0
  5  6  2  0
  5  7  1  0
  7  8  1  0
  8  9  2  0
  9 10  1  0
 10 11  2  0
 11 12  1  0
 12 13  2  0
 13 14  1  0
 12 15  1  0
 11 16  1  0
 10 17  1  0
  7 18  1  0
  4 19  1  0
  3 20  1  0
  3 21  1  0
  2 22  1  0
 22 23  1  0
 23 24  1  0
 24 25  1  0
 25 26  1  0
 26 27  1  0
 27 28  1  0
 26 29  1  0
 26 30  1  0
 25 31  1  0
 25 32  1  0
 24 33  1  0
 24 34  1  0
 23 35  1  0
 35 36  2  0
 36 37  1  0
 37 38  2  0
 38 39  1  0
 39 40  2  0
 40 41  1  0
 38 42  1  0
 37 43  1  0
 36 44  1  0
 23 45  1  0
 22 46  1  0
  9  4  1  0
 40 35  1  0
 13  8  1  0
M  END
>  <plip>  (1) 
-0.22580645161290322

>  <filename>  (1) 
[H][O][C]([H])([H])[C]([H])([H])[C]([H])([H])[C]([H])([c]1[c]([H])[n][c]([H])[c]([H])[c]1[H])[N]([H])[C](=[O])[C]([H])([H])[C]1([H])[C](=[O])[N]([H])[c]2[c]([F])[c]([H])[c]([H])[c]([H])[c]21

$$$$
