
     RDKit          3D

 29 31  0  0  0  0  0  0  0  0999 V2000
    9.3763    0.2358   20.4915 O   0  0  0  0  0  0  0  0  0  0  0  0
    8.6797   -0.5112   21.1832 C   0  0  0  0  0  0  0  0  0  0  0  0
    9.3250   -1.2164   22.3727 C   0  0  0  0  0  0  0  0  0  0  0  0
    8.6207   -2.5555   22.6656 C   0  0  0  0  0  0  0  0  0  0  0  0
    7.1130   -2.4718   22.5330 C   0  0  0  0  0  0  0  0  0  0  0  0
    6.5545   -1.6283   21.6799 N   0  0  0  0  0  0  0  0  0  0  0  0
    7.3116   -0.7404   20.9315 N   0  0  0  0  0  0  0  0  0  0  0  0
    6.6504   -0.0430   19.8987 C   0  0  0  0  0  0  0  0  0  0  0  0
    5.4279    0.5974   20.1319 C   0  0  0  0  0  0  0  0  0  0  0  0
    4.8172    1.2748   19.0712 C   0  0  0  0  0  0  0  0  0  0  0  0
    5.4342    1.3015   17.8142 C   0  0  0  0  0  0  0  0  0  0  0  0
    6.6027    0.6839   17.5727 N   0  0  0  0  0  0  0  0  0  0  0  0
    7.1954    0.0378   18.5996 C   0  0  0  0  0  0  0  0  0  0  0  0
    8.1473   -0.4500   18.4137 H   0  0  0  0  0  0  0  0  0  0  0  0
    4.9562    1.8536   17.0099 H   0  0  0  0  0  0  0  0  0  0  0  0
    3.8790    1.7998   19.2091 H   0  0  0  0  0  0  0  0  0  0  0  0
    4.9819    0.5827   21.1254 H   0  0  0  0  0  0  0  0  0  0  0  0
    6.2851   -3.3730   23.3510 C   0  0  0  0  0  0  0  0  0  0  0  0
    4.9299   -3.5769   23.2107 C   0  0  0  0  0  0  0  0  0  0  0  0
    4.3814   -4.4651   24.2258 C   0  0  0  0  0  0  0  0  0  0  0  0
    5.3394   -4.9458   25.0763 C   0  0  0  0  0  0  0  0  0  0  0  0
    4.9725   -6.1567   26.5064 Br  0  0  0  0  0  0  0  0  0  0  0  0
    6.9361   -4.3239   24.6852 S   0  0  0  0  0  0  0  0  0  0  0  0
    3.3284   -4.7157   24.3002 H   0  0  0  0  0  0  0  0  0  0  0  0
    4.3368   -3.1262   22.4262 H   0  0  0  0  0  0  0  0  0  0  0  0
    8.8679   -2.8927   23.6750 H   0  0  0  0  0  0  0  0  0  0  0  0
    8.9882   -3.3167   21.9700 H   0  0  0  0  0  0  0  0  0  0  0  0
    9.2588   -0.5618   23.2466 H   0  0  0  0  0  0  0  0  0  0  0  0
   10.3839   -1.3930   22.1651 H   0  0  0  0  0  0  0  0  0  0  0  0
  1  2  2  0
  2  3  1  0
  3  4  1  0
  4  5  1  0
  5  6  2  0
  6  7  1  0
  7  8  1  0
  8  9  2  0
  9 10  1  0
 10 11  2  0
 11 12  1  0
 12 13  2  0
 13 14  1  0
 11 15  1  0
 10 16  1  0
  9 17  1  0
  5 18  1  0
 18 19  2  0
 19 20  1  0
 20 21  2  0
 21 22  1  0
 21 23  1  0
 20 24  1  0
 19 25  1  0
  4 26  1  0
  4 27  1  0
  3 28  1  0
  3 29  1  0
  7  2  1  0
 13  8  1  0
 23 18  1  0
M  END
>  <plip>  (1) 
-0.034482758620689655

>  <filename>  (1) 
[H][c]1[n][c]([H])[c]([N]2[N]=[C]([c]3[s][c]([Br])[c]([H])[c]3[H])[C]([H])([H])[C]([H])([H])[C]2=[O])[c]([H])[c]1[H]

$$$$
