
     RDKit          3D

 33 35  0  0  0  0  0  0  0  0999 V2000
    6.7123   -1.4137   21.5767 H   0  0  0  0  0  0  0  0  0  0  0  0
    7.3274   -0.7152   20.9991 C   0  0  0  0  0  0  0  0  0  0  0  0
    8.5914   -0.4852   21.3691 C   0  0  0  0  0  0  0  0  0  0  0  0
    9.3277   -1.1128   22.4826 C   0  0  0  0  0  0  0  0  0  0  0  0
    8.7404   -2.1954   23.2533 C   0  0  0  0  0  0  0  0  0  0  0  0
    8.2533   -3.0914   23.9004 C   0  0  0  0  0  0  0  0  0  0  0  0
    7.7371   -4.1719   24.7156 C   0  0  0  0  0  0  0  0  0  0  0  0
    6.4702   -4.5627   24.4804 N   0  0  0  0  0  0  0  0  0  0  0  0
    5.9817   -5.5560   25.2267 C   0  0  0  0  0  0  0  0  0  0  0  0
    4.9538   -5.8418   25.0103 H   0  0  0  0  0  0  0  0  0  0  0  0
    6.7052   -6.2145   26.2251 C   0  0  0  0  0  0  0  0  0  0  0  0
    6.2445   -7.0180   26.7884 H   0  0  0  0  0  0  0  0  0  0  0  0
    8.0229   -5.8167   26.4680 C   0  0  0  0  0  0  0  0  0  0  0  0
    8.6219   -6.3082   27.2386 H   0  0  0  0  0  0  0  0  0  0  0  0
    8.5451   -4.7758   25.6995 C   0  0  0  0  0  0  0  0  0  0  0  0
    9.5592   -4.4290   25.8490 H   0  0  0  0  0  0  0  0  0  0  0  0
   10.4837   -0.6094   22.7006 N   0  0  0  0  0  0  0  0  0  0  0  0
   10.7352    0.4748   21.7348 C   0  0  0  0  0  0  0  0  0  0  0  0
   10.8987    1.4035   22.2904 H   0  0  0  0  0  0  0  0  0  0  0  0
   11.6630    0.2526   21.2025 H   0  0  0  0  0  0  0  0  0  0  0  0
    9.5049    0.5740   20.7962 C   0  0  0  0  0  0  0  0  0  0  0  0
    9.7088    0.3309   19.7525 H   0  0  0  0  0  0  0  0  0  0  0  0
    9.0452    1.5684   20.7976 H   0  0  0  0  0  0  0  0  0  0  0  0
    6.6437   -0.0095   19.8979 C   0  0  0  0  0  0  0  0  0  0  0  0
    7.1643    0.0655   18.5905 C   0  0  0  0  0  0  0  0  0  0  0  0
    8.1077   -0.4297   18.3718 H   0  0  0  0  0  0  0  0  0  0  0  0
    6.5606    0.6862   17.5705 N   0  0  0  0  0  0  0  0  0  0  0  0
    5.3974    1.3000   17.8331 C   0  0  0  0  0  0  0  0  0  0  0  0
    4.9149    1.7878   16.9905 H   0  0  0  0  0  0  0  0  0  0  0  0
    4.7993    1.3135   19.0991 C   0  0  0  0  0  0  0  0  0  0  0  0
    3.8699    1.8482   19.2528 H   0  0  0  0  0  0  0  0  0  0  0  0
    5.4220    0.6365   20.1462 C   0  0  0  0  0  0  0  0  0  0  0  0
    5.0073    0.6247   21.1568 H   0  0  0  0  0  0  0  0  0  0  0  0
  1  2  1  0
  2  3  2  3
  3  4  1  0
  4  5  1  0
  5  6  3  0
  6  7  1  0
  7  8  2  0
  8  9  1  0
  9 10  1  0
  9 11  2  0
 11 12  1  0
 11 13  1  0
 13 14  1  0
 13 15  2  0
 15 16  1  0
  4 17  2  0
 17 18  1  0
 18 19  1  0
 18 20  1  0
 18 21  1  0
 21 22  1  0
 21 23  1  0
  2 24  1  0
 24 25  2  0
 25 26  1  0
 25 27  1  0
 27 28  2  0
 28 29  1  0
 28 30  1  0
 30 31  1  0
 30 32  2  0
 32 33  1  0
 21  3  1  0
 32 24  1  0
 15  7  1  0
M  END
>  <plip>  (1) 
-0.03571428571428571

>  <filename>  (1) 
[H][C](=[C]1[C]([C]#[C][c]2[n][c]([H])[c]([H])[c]([H])[c]2[H])=[N][C]([H])([H])[C]1([H])[H])[c]1[c]([H])[n][c]([H])[c]([H])[c]1[H]

$$$$
