
     RDKit          3D

 26 26  0  0  0  0  0  0  0  0999 V2000
    5.0029    1.8034   17.0972 H   0  0  0  0  0  0  0  0  0  0  0  0
    5.5301    1.2879   17.9009 C   0  0  0  0  0  0  0  0  0  0  0  0
    6.6554    0.6486   17.5528 N   0  0  0  0  0  0  0  0  0  0  0  0
    7.3415    0.0013   18.5098 C   0  0  0  0  0  0  0  0  0  0  0  0
    8.2420   -0.5058   18.1567 H   0  0  0  0  0  0  0  0  0  0  0  0
    6.9448   -0.0565   19.8763 C   0  0  0  0  0  0  0  0  0  0  0  0
    7.5665   -0.8174   20.8929 N   0  0  0  0  0  0  0  0  0  0  0  0
    7.5886   -0.4073   21.8304 H   0  0  0  0  0  0  0  0  0  0  0  0
    9.0999   -1.5045   20.6185 S   0  0  0  0  0  0  0  0  0  0  0  0
    9.9609   -0.1090   21.0711 N   0  0  0  0  0  0  0  0  0  0  0  0
   10.0042    0.6271   20.3877 H   0  0  0  0  0  0  0  0  0  0  0  0
    9.7328    0.4460   22.3239 C   0  0  0  0  0  0  0  0  0  0  0  0
    8.8497    0.1609   23.1087 O   0  0  0  0  0  0  0  0  0  0  0  0
   10.6899    1.3955   22.5270 N   0  0  0  0  0  0  0  0  0  0  0  0
   11.4999    1.1715   21.9669 H   0  0  0  0  0  0  0  0  0  0  0  0
   10.9582    1.9737   23.8373 C   0  0  0  0  0  0  0  0  0  0  0  0
   10.0136    2.0992   24.3700 H   0  0  0  0  0  0  0  0  0  0  0  0
   11.5740    1.3018   24.4483 H   0  0  0  0  0  0  0  0  0  0  0  0
   11.6554    3.3113   23.6534 C   0  0  0  0  0  0  0  0  0  0  0  0
   11.9141    3.7846   24.6060 H   0  0  0  0  0  0  0  0  0  0  0  0
   11.0160    4.0025   23.0947 H   0  0  0  0  0  0  0  0  0  0  0  0
   12.5909    3.1748   23.0999 H   0  0  0  0  0  0  0  0  0  0  0  0
    5.7594    0.6302   20.2076 C   0  0  0  0  0  0  0  0  0  0  0  0
    5.4085    0.5999   21.2392 H   0  0  0  0  0  0  0  0  0  0  0  0
    5.0432    1.3062   19.2122 C   0  0  0  0  0  0  0  0  0  0  0  0
    4.1282    1.8472   19.4375 H   0  0  0  0  0  0  0  0  0  0  0  0
  1  2  1  0
  2  3  2  0
  3  4  1  0
  4  5  1  0
  4  6  2  0
  6  7  1  0
  7  8  1  0
  7  9  1  0
  9 10  1  0
 10 11  1  0
 10 12  1  0
 12 13  2  0
 12 14  1  0
 14 15  1  0
 14 16  1  0
 16 17  1  0
 16 18  1  0
 16 19  1  0
 19 20  1  0
 19 21  1  0
 19 22  1  0
  6 23  1  0
 23 24  1  0
 23 25  2  0
 25 26  1  0
 25  2  1  0
M  END
>  <plip>  (1) 
-0.14285714285714285

>  <filename>  (1) 
[H][c]1[n][c]([H])[c]([N]([H])[S][N]([H])[C](=[O])[N]([H])[C]([H])([H])[C]([H])([H])[H])[c]([H])[c]1[H]

$$$$
