
     RDKit          3D

 33 35  0  0  0  0  0  0  0  0999 V2000
    5.5075    4.3461   21.4438 H   0  0  0  0  0  0  0  0  0  0  0  0
    5.9252    3.6718   22.1906 C   0  0  0  0  0  0  0  0  0  0  0  0
    7.0022    2.9885   21.8022 N   0  0  0  0  0  0  0  0  0  0  0  0
    7.5137    2.0840   22.6451 C   0  0  0  0  0  0  0  0  0  0  0  0
    8.6335    1.2674   22.0990 C   0  0  0  0  0  0  0  0  0  0  0  0
    8.6150    0.0727   21.4066 C   0  0  0  0  0  0  0  0  0  0  0  0
    7.3965   -0.7105   20.9956 C   0  0  0  0  0  0  0  0  0  0  0  0
    6.7505   -0.8519   21.8715 H   0  0  0  0  0  0  0  0  0  0  0  0
    7.7072   -1.7096   20.6700 H   0  0  0  0  0  0  0  0  0  0  0  0
    6.6267   -0.0240   19.8940 C   0  0  0  0  0  0  0  0  0  0  0  0
    7.1546    0.0597   18.5943 C   0  0  0  0  0  0  0  0  0  0  0  0
    8.1057   -0.4171   18.3645 H   0  0  0  0  0  0  0  0  0  0  0  0
    6.5581    0.6854   17.5720 N   0  0  0  0  0  0  0  0  0  0  0  0
    5.3941    1.2999   17.8310 C   0  0  0  0  0  0  0  0  0  0  0  0
    4.9213    1.7939   16.9859 H   0  0  0  0  0  0  0  0  0  0  0  0
    4.7878    1.3058   19.0912 C   0  0  0  0  0  0  0  0  0  0  0  0
    3.8677    1.8545   19.2483 H   0  0  0  0  0  0  0  0  0  0  0  0
    5.4060    0.6123   20.1335 C   0  0  0  0  0  0  0  0  0  0  0  0
    5.0151    0.6391   21.1545 H   0  0  0  0  0  0  0  0  0  0  0  0
    9.9678   -0.1797   21.1095 C   0  0  0  0  0  0  0  0  0  0  0  0
   10.3662   -1.0098   20.5466 H   0  0  0  0  0  0  0  0  0  0  0  0
   10.7662    0.7724   21.5696 N   0  0  0  0  0  0  0  0  0  0  0  0
    9.9380    1.6477   22.1513 N   0  0  0  0  0  0  0  0  0  0  0  0
   10.3504    2.4286   22.6458 H   0  0  0  0  0  0  0  0  0  0  0  0
    7.0092    1.9147   23.9501 C   0  0  0  0  0  0  0  0  0  0  0  0
    7.6783    0.9290   24.8666 C   0  0  0  0  0  0  0  0  0  0  0  0
    8.9816    1.2158   25.0481 F   0  0  0  0  0  0  0  0  0  0  0  0
    7.0997    0.9000   26.0805 F   0  0  0  0  0  0  0  0  0  0  0  0
    7.6264   -0.3279   24.3701 F   0  0  0  0  0  0  0  0  0  0  0  0
    5.9052    2.6664   24.3704 C   0  0  0  0  0  0  0  0  0  0  0  0
    5.5069    2.5515   25.3860 H   0  0  0  0  0  0  0  0  0  0  0  0
    5.3495    3.5546   23.4588 C   0  0  0  0  0  0  0  0  0  0  0  0
    4.5008    4.1735   23.7256 H   0  0  0  0  0  0  0  0  0  0  0  0
  1  2  1  0
  2  3  2  0
  3  4  1  0
  4  5  1  0
  5  6  2  0
  6  7  1  0
  7  8  1  0
  7  9  1  0
  7 10  1  0
 10 11  2  0
 11 12  1  0
 11 13  1  0
 13 14  2  0
 14 15  1  0
 14 16  1  0
 16 17  1  0
 16 18  2  0
 18 19  1  0
  6 20  1  0
 20 21  1  0
 20 22  2  0
 22 23  1  0
 23 24  1  0
  4 25  2  0
 25 26  1  0
 26 27  1  0
 26 28  1  0
 26 29  1  0
 25 30  1  0
 30 31  1  0
 30 32  2  0
 32 33  1  0
 32  2  1  0
 23  5  1  0
 18 10  1  0
M  END
>  <plip>  (1) 
-0.10714285714285714

>  <filename>  (1) 
[H][c]1[n][c](-[c]2[c]([C]([H])([H])[c]3[c]([H])[n][c]([H])[c]([H])[c]3[H])[c]([H])[n][n]2[H])[c]([C]([F])([F])[F])[c]([H])[c]1[H]

$$$$
