
     RDKit          3D

 46 48  0  0  0  0  0  0  0  0999 V2000
    6.2365    3.7731   28.5777 C   0  0  0  0  0  0  0  0  0  0  0  0
    6.6351    3.0929   27.2862 C   0  0  0  0  0  0  0  0  0  0  0  0
    6.0889    1.9239   26.9394 C   0  0  0  0  0  0  0  0  0  0  0  0
    6.4109    1.2022   25.6522 C   0  0  0  0  0  0  0  0  0  0  0  0
    7.7418    1.6695   25.0270 C   0  0  0  0  0  0  0  0  0  0  0  0
    7.9642    1.1016   23.6687 N   0  0  0  0  0  4  0  0  0  0  0  0
    8.1286   -0.3903   23.6225 C   0  0  0  0  0  0  0  0  0  0  0  0
    9.1959   -0.7406   22.5893 C   0  0  0  0  0  0  0  0  0  0  0  0
    8.7708   -0.3891   21.1536 C   0  0  0  0  0  0  0  0  0  0  0  0
    7.3492   -0.6371   20.9535 N   0  0  0  0  0  0  0  0  0  0  0  0
    6.6730    0.0146   19.9126 C   0  0  0  0  0  0  0  0  0  0  0  0
    5.4377    0.6469   20.1479 C   0  0  0  0  0  0  0  0  0  0  0  0
    4.8063    1.3112   19.0970 C   0  0  0  0  0  0  0  0  0  0  0  0
    5.3921    1.3001   17.8272 C   0  0  0  0  0  0  0  0  0  0  0  0
    6.5587    0.6847   17.5714 N   0  0  0  0  0  0  0  0  0  0  0  0
    7.1787    0.0769   18.5904 C   0  0  0  0  0  0  0  0  0  0  0  0
    8.1249   -0.4132   18.3543 H   0  0  0  0  0  0  0  0  0  0  0  0
    4.9177    1.7945   16.9840 H   0  0  0  0  0  0  0  0  0  0  0  0
    3.8743    1.8383   19.2503 H   0  0  0  0  0  0  0  0  0  0  0  0
    5.0231    0.6161   21.1560 H   0  0  0  0  0  0  0  0  0  0  0  0
    6.6832   -1.5755   21.8426 C   0  0  0  0  0  0  0  0  0  0  0  0
    6.7950   -1.1019   23.3076 C   0  0  0  0  0  0  0  0  0  0  0  0
    6.6472   -1.9605   23.9753 H   0  0  0  0  0  0  0  0  0  0  0  0
    6.0047   -0.3792   23.5221 H   0  0  0  0  0  0  0  0  0  0  0  0
    7.1341   -2.5811   21.7474 H   0  0  0  0  0  0  0  0  0  0  0  0
    5.6386   -1.6839   21.5324 H   0  0  0  0  0  0  0  0  0  0  0  0
    9.3935   -0.9456   20.4273 H   0  0  0  0  0  0  0  0  0  0  0  0
    8.9516    0.6756   20.9446 H   0  0  0  0  0  0  0  0  0  0  0  0
    9.3813   -1.8208   22.6495 H   0  0  0  0  0  0  0  0  0  0  0  0
   10.1328   -0.2395   22.8466 H   0  0  0  0  0  0  0  0  0  0  0  0
    8.4675   -0.7038   24.6146 H   0  0  0  0  0  0  0  0  0  0  0  0
    7.1399    1.3567   23.0545 H   0  0  0  0  0  0  0  0  0  0  0  0
    8.8116    1.5418   23.2398 H   0  0  0  0  0  0  0  0  0  0  0  0
    7.7998    3.1901   24.9976 C   0  0  0  0  0  0  0  0  0  0  0  0
    7.7163    3.7495   26.4362 C   0  0  0  0  0  0  0  0  0  0  0  0
    8.6789    3.6018   26.9512 H   0  0  0  0  0  0  0  0  0  0  0  0
    7.5654    4.8359   26.4256 H   0  0  0  0  0  0  0  0  0  0  0  0
    8.7272    3.5135   24.5107 H   0  0  0  0  0  0  0  0  0  0  0  0
    6.9625    3.5663   24.3924 H   0  0  0  0  0  0  0  0  0  0  0  0
    8.5442    1.3129   25.6937 H   0  0  0  0  0  0  0  0  0  0  0  0
    6.4298    0.1195   25.8200 H   0  0  0  0  0  0  0  0  0  0  0  0
    5.5955    1.3887   24.9339 H   0  0  0  0  0  0  0  0  0  0  0  0
    5.3426    1.4652   27.5930 H   0  0  0  0  0  0  0  0  0  0  0  0
    6.7831    4.7047   28.7535 H   0  0  0  0  0  0  0  0  0  0  0  0
    5.1649    4.0094   28.5744 H   0  0  0  0  0  0  0  0  0  0  0  0
    6.4127    3.1108   29.4359 H   0  0  0  0  0  0  0  0  0  0  0  0
  1  2  1  0
  2  3  2  0
  3  4  1  0
  4  5  1  0
  5  6  1  0
  6  7  1  0
  7  8  1  0
  8  9  1  0
  9 10  1  0
 10 11  1  0
 11 12  2  0
 12 13  1  0
 13 14  2  0
 14 15  1  0
 15 16  2  0
 16 17  1  0
 14 18  1  0
 13 19  1  0
 12 20  1  0
 10 21  1  0
 21 22  1  0
 22 23  1  0
 22 24  1  0
 21 25  1  0
 21 26  1  0
  9 27  1  0
  9 28  1  0
  8 29  1  0
  8 30  1  0
  7 31  1  0
  6 32  1  0
  6 33  1  0
  5 34  1  0
 34 35  1  0
 35 36  1  0
 35 37  1  0
 34 38  1  0
 34 39  1  0
  5 40  1  0
  4 41  1  0
  4 42  1  0
  3 43  1  0
  1 44  1  0
  1 45  1  0
  1 46  1  0
 35  2  1  0
 22  7  1  0
 16 11  1  0
M  CHG  1   6   1
M  END
>  <plip>  (1) 
-0.03571428571428571

>  <filename>  (1) 
[H][C]1=[C]([C]([H])([H])[H])[C]([H])([H])[C]([H])([H])[C]([H])([N+]([H])([H])[C]2([H])[C]([H])([H])[C]([H])([H])[N]([c]3[c]([H])[n][c]([H])[c]([H])[c]3[H])[C]([H])([H])[C]2([H])[H])[C]1([H])[H]

$$$$
