
     RDKit          3D

 31 32  0  0  0  0  0  0  0  0999 V2000
    5.3413    1.9385   16.8793 H   0  0  0  0  0  0  0  0  0  0  0  0
    5.7372    1.3785   17.7255 C   0  0  0  0  0  0  0  0  0  0  0  0
    6.8672    0.6875   17.5035 N   0  0  0  0  0  0  0  0  0  0  0  0
    7.3877   -0.0061   18.5269 C   0  0  0  0  0  0  0  0  0  0  0  0
    8.3100   -0.5453   18.3201 H   0  0  0  0  0  0  0  0  0  0  0  0
    6.8008   -0.0713   19.8126 C   0  0  0  0  0  0  0  0  0  0  0  0
    7.3320   -0.8736   20.8813 N   0  0  0  0  0  0  0  0  0  0  0  0
    8.6317   -0.8319   21.3542 C   0  0  0  0  0  0  0  0  0  0  0  0
    9.1318   -1.7081   22.0178 O   0  0  0  0  0  0  0  0  0  0  0  0
    9.2720    0.3232   20.9815 O   0  0  0  0  0  0  0  0  0  0  0  0
   10.2656    0.8529   21.7562 C   0  0  0  0  0  0  0  0  0  0  0  0
   10.8295    2.0360   21.1314 C   0  0  0  0  0  0  0  0  0  0  0  0
   10.1226    2.7001   20.7402 H   0  0  0  0  0  0  0  0  0  0  0  0
   11.5413    3.0042   21.6728 C   0  0  0  0  0  0  0  0  0  0  0  0
   11.5729    3.8365   22.5284 H   0  0  0  0  0  0  0  0  0  0  0  0
   11.8875    2.9157   21.7808 C   0  0  0  0  0  0  0  0  0  0  0  0
   12.9119    2.3182   22.2061 H   0  0  0  0  0  0  0  0  0  0  0  0
   11.5887    1.1773   23.6777 C   0  0  0  0  0  0  0  0  0  0  0  0
   11.9314    0.7225   25.0039 N   0  0  0  0  0  4  0  0  0  0  0  0
   13.0647    0.3230   25.1327 O   0  0  0  0  0  0  0  0  0  0  0  0
   11.0449    0.8132   25.8253 O   0  0  0  0  0  1  0  0  0  0  0  0
   10.6260    0.4591   23.0386 C   0  0  0  0  0  0  0  0  0  0  0  0
   10.0750   -0.3805   23.5070 H   0  0  0  0  0  0  0  0  0  0  0  0
    6.4356   -1.8112   21.5816 C   0  0  0  0  0  0  0  0  0  0  0  0
    6.9168   -2.7873   21.6793 H   0  0  0  0  0  0  0  0  0  0  0  0
    5.5078   -1.9301   21.0194 H   0  0  0  0  0  0  0  0  0  0  0  0
    6.1978   -1.4560   22.5911 H   0  0  0  0  0  0  0  0  0  0  0  0
    5.6172    0.6511   20.0167 C   0  0  0  0  0  0  0  0  0  0  0  0
    5.1440    0.6270   20.9980 H   0  0  0  0  0  0  0  0  0  0  0  0
    5.0825    1.3965   18.9604 C   0  0  0  0  0  0  0  0  0  0  0  0
    4.1792    1.9845   19.0826 H   0  0  0  0  0  0  0  0  0  0  0  0
  1  2  1  0
  2  3  2  0
  3  4  1  0
  4  5  1  0
  4  6  2  0
  6  7  1  0
  7  8  1  0
  8  9  2  0
  8 10  1  0
 10 11  1  0
 11 12  2  0
 12 13  1  0
 12 14  1  0
 14 15  1  0
 14 16  2  0
 16 17  1  0
 16 18  1  0
 18 19  1  0
 19 20  2  0
 19 21  1  0
 18 22  2  0
 22 23  1  0
  7 24  1  0
 24 25  1  0
 24 26  1  0
 24 27  1  0
  6 28  1  0
 28 29  1  0
 28 30  2  0
 30 31  1  0
 30  2  1  0
 22 11  1  0
M  CHG  2  19   1  21  -1
M  END
>  <plip>  (1) 
-0.07142857142857142

>  <filename>  (1) 
[H][c]1[n][c]([H])[c]([N]([C](=[O])[O][c]2[c]([H])[c]([H])[c]([H])[c]([N+](=[O])[O-])[c]2[H])[C]([H])([H])[H])[c]([H])[c]1[H]

$$$$
