
     RDKit          3D

 30 31  0  0  0  0  0  0  0  0999 V2000
    4.9355    1.7956   16.9774 H   0  0  0  0  0  0  0  0  0  0  0  0
    5.3969    1.2938   17.8266 C   0  0  0  0  0  0  0  0  0  0  0  0
    6.5575    0.6731   17.5821 N   0  0  0  0  0  0  0  0  0  0  0  0
    7.1606    0.0532   18.6019 C   0  0  0  0  0  0  0  0  0  0  0  0
    8.1034   -0.4357   18.3726 H   0  0  0  0  0  0  0  0  0  0  0  0
    6.6408    0.0306   19.9089 C   0  0  0  0  0  0  0  0  0  0  0  0
    7.4030   -0.6682   20.9489 C   0  0  0  0  0  0  0  0  0  0  0  0
    8.1695   -1.7153   20.7598 N   0  0  0  0  0  0  0  0  0  0  0  0
    8.6744   -2.1104   21.9631 N   0  0  0  0  0  0  0  0  0  0  0  0
    8.2276   -1.2921   22.8764 C   0  0  0  0  0  0  0  0  0  0  0  0
    8.4748   -1.3397   23.9293 H   0  0  0  0  0  0  0  0  0  0  0  0
    7.4215   -0.3563   22.2870 N   0  0  0  0  0  0  0  0  0  0  0  0
    6.7506    0.7271   22.8123 O   0  0  0  0  0  0  0  0  0  0  0  0
    6.9152    0.9652   24.2214 C   0  0  0  0  0  0  0  0  0  0  0  0
    7.9796    1.1072   24.4551 H   0  0  0  0  0  0  0  0  0  0  0  0
    6.5414    0.0958   24.7793 H   0  0  0  0  0  0  0  0  0  0  0  0
    6.1208    2.2252   24.5672 C   0  0  0  0  0  0  0  0  0  0  0  0
    5.0823    2.0410   24.2512 H   0  0  0  0  0  0  0  0  0  0  0  0
    6.6409    3.4676   23.8251 C   0  0  0  0  0  0  0  0  0  0  0  0
    7.6890    3.6718   24.0864 H   0  0  0  0  0  0  0  0  0  0  0  0
    6.0584    4.3575   24.0982 H   0  0  0  0  0  0  0  0  0  0  0  0
    6.5853    3.3444   22.7371 H   0  0  0  0  0  0  0  0  0  0  0  0
    6.1338    2.4666   26.0877 C   0  0  0  0  0  0  0  0  0  0  0  0
    5.7193    1.6199   26.6501 H   0  0  0  0  0  0  0  0  0  0  0  0
    5.5405    3.3519   26.3498 H   0  0  0  0  0  0  0  0  0  0  0  0
    7.1525    2.6495   26.4603 H   0  0  0  0  0  0  0  0  0  0  0  0
    5.4152    0.6645   20.1504 C   0  0  0  0  0  0  0  0  0  0  0  0
    4.9810    0.6583   21.1521 H   0  0  0  0  0  0  0  0  0  0  0  0
    4.7901    1.3108   19.0875 C   0  0  0  0  0  0  0  0  0  0  0  0
    3.8628    1.8459   19.2313 H   0  0  0  0  0  0  0  0  0  0  0  0
  1  2  1  0
  2  3  2  0
  3  4  1  0
  4  5  1  0
  4  6  2  0
  6  7  1  0
  7  8  2  0
  8  9  1  0
  9 10  2  0
 10 11  1  0
 10 12  1  0
 12 13  1  0
 13 14  1  0
 14 15  1  0
 14 16  1  0
 14 17  1  0
 17 18  1  0
 17 19  1  0
 19 20  1  0
 19 21  1  0
 19 22  1  0
 17 23  1  0
 23 24  1  0
 23 25  1  0
 23 26  1  0
  6 27  1  0
 27 28  1  0
 27 29  2  0
 29 30  1  0
 29  2  1  0
 12  7  1  0
M  END
>  <plip>  (1) 
-0.0

>  <filename>  (1) 
[H][c]1[n][c]([H])[c](-[c]2[n][n][c]([H])[n]2[O][C]([H])([H])[C]([H])([C]([H])([H])[H])[C]([H])([H])[H])[c]([H])[c]1[H]

$$$$
