
     RDKit          3D

 39 41  0  0  0  0  0  0  0  0999 V2000
    7.1867   -1.6672   25.6001 C   0  0  0  0  0  0  0  0  0  0  0  0
    8.3728   -2.3714   25.0078 C   0  0  0  0  0  0  0  0  0  0  0  0
    9.1406   -3.2926   25.7078 C   0  0  0  0  0  0  0  0  0  0  0  0
   10.1391   -3.9577   24.9829 C   0  0  0  0  0  0  0  0  0  0  0  0
   10.9838   -5.0622   25.6291 C   0  0  0  0  0  0  0  0  0  0  0  0
   10.3360   -6.3235   25.8479 O   0  0  0  0  0  0  0  0  0  0  0  0
   10.6404   -6.9708   25.1902 H   0  0  0  0  0  0  0  0  0  0  0  0
   11.2934   -4.7044   26.6189 H   0  0  0  0  0  0  0  0  0  0  0  0
   11.8680   -5.1811   24.9985 H   0  0  0  0  0  0  0  0  0  0  0  0
   10.4102   -3.6497   23.7189 N   0  0  0  0  0  0  0  0  0  0  0  0
    9.5914   -2.7611   23.1544 C   0  0  0  0  0  0  0  0  0  0  0  0
    9.8457   -2.5711   21.8563 N   0  0  0  0  0  0  0  0  0  0  0  0
    9.0060   -1.8870   20.9180 C   0  0  1  0  0  0  0  0  0  0  0  0
    7.4692   -2.1079   20.9705 C   0  0  0  0  0  0  0  0  0  0  0  0
    7.2533   -0.5811   21.1132 C   0  0  2  0  0  0  0  0  0  0  0  0
    6.5997   -0.2686   22.3303 O   0  0  0  0  0  0  0  0  0  0  0  0
    7.1777    0.3535   22.7905 H   0  0  0  0  0  0  0  0  0  0  0  0
    6.5705    0.0964   19.9537 C   0  0  0  0  0  0  0  0  0  0  0  0
    5.3368    0.7592   20.0939 C   0  0  0  0  0  0  0  0  0  0  0  0
    4.7668    1.3736   18.9815 C   0  0  0  0  0  0  0  0  0  0  0  0
    5.4477    1.3123   17.7598 C   0  0  0  0  0  0  0  0  0  0  0  0
    6.6144    0.6732   17.5970 N   0  0  0  0  0  0  0  0  0  0  0  0
    7.1477    0.0838   18.6775 C   0  0  0  0  0  0  0  0  0  0  0  0
    8.0957   -0.4280   18.5033 H   0  0  0  0  0  0  0  0  0  0  0  0
    5.0352    1.7998   16.8780 H   0  0  0  0  0  0  0  0  0  0  0  0
    3.8225    1.9072   19.0550 H   0  0  0  0  0  0  0  0  0  0  0  0
    4.8640    0.7799   21.0759 H   0  0  0  0  0  0  0  0  0  0  0  0
    8.7877   -0.3883   21.2085 C   0  0  0  0  0  0  0  0  0  0  0  0
    9.2613    0.3210   20.5232 H   0  0  0  0  0  0  0  0  0  0  0  0
    9.0836   -0.1304   22.2258 H   0  0  0  0  0  0  0  0  0  0  0  0
    7.1484   -2.6017   21.8876 H   0  0  0  0  0  0  0  0  0  0  0  0
    6.9951   -2.5960   20.1128 H   0  0  0  0  0  0  0  0  0  0  0  0
    9.4143   -2.0440   19.9142 H   0  0  0  0  0  0  0  0  0  0  0  0
   10.6251   -3.1771   21.6574 H   0  0  0  0  0  0  0  0  0  0  0  0
    8.6060   -2.0979   23.7277 N   0  0  0  0  0  0  0  0  0  0  0  0
    8.9814   -3.4931   26.7577 H   0  0  0  0  0  0  0  0  0  0  0  0
    7.3233   -1.4082   26.6553 H   0  0  0  0  0  0  0  0  0  0  0  0
    6.2948   -2.3009   25.5090 H   0  0  0  0  0  0  0  0  0  0  0  0
    6.9959   -0.7573   25.0236 H   0  0  0  0  0  0  0  0  0  0  0  0
  1  2  1  0
  2  3  2  0
  3  4  1  0
  4  5  1  0
  5  6  1  0
  6  7  1  0
  5  8  1  0
  5  9  1  0
  4 10  2  0
 10 11  1  0
 11 12  1  0
 12 13  1  0
 13 14  1  0
 14 15  1  0
 15 16  1  1
 16 17  1  0
 15 18  1  0
 18 19  2  0
 19 20  1  0
 20 21  2  0
 21 22  1  0
 22 23  2  0
 23 24  1  0
 21 25  1  0
 20 26  1  0
 19 27  1  0
 15 28  1  0
 28 29  1  0
 28 30  1  0
 14 31  1  0
 14 32  1  0
 13 33  1  6
 12 34  1  0
 11 35  2  0
  3 36  1  0
  1 37  1  0
  1 38  1  0
  1 39  1  0
 35  2  1  0
 28 13  1  0
 23 18  1  0
M  END
>  <plip>  (1) 
-0.1

>  <filename>  (1) 
[H][O][C]([H])([H])[c]1[n][c]([N]([H])[C@]2([H])[C]([H])([H])[C@@]([O][H])([c]3[c]([H])[n][c]([H])[c]([H])[c]3[H])[C]2([H])[H])[n][c]([C]([H])([H])[H])[c]1[H]

$$$$
