
     RDKit          3D

 37 39  0  0  0  0  0  0  0  0999 V2000
    4.9311    1.8112   16.9823 H   0  0  0  0  0  0  0  0  0  0  0  0
    5.4057    1.2889   17.8115 C   0  0  0  0  0  0  0  0  0  0  0  0
    6.5498    0.6466   17.5251 N   0  0  0  0  0  0  0  0  0  0  0  0
    7.1745    0.0108   18.5232 C   0  0  0  0  0  0  0  0  0  0  0  0
    8.1046   -0.4977   18.2825 H   0  0  0  0  0  0  0  0  0  0  0  0
    6.6936   -0.0293   19.8446 C   0  0  0  0  0  0  0  0  0  0  0  0
    7.4150   -0.7046   20.8880 N   0  0  0  0  0  0  0  0  0  0  0  0
    6.7551   -1.7076   21.5699 C   0  0  0  0  0  0  0  0  0  0  0  0
    5.7401   -1.9336   21.2571 H   0  0  0  0  0  0  0  0  0  0  0  0
    7.3206   -2.3776   22.6116 C   0  0  0  0  0  0  0  0  0  0  0  0
    6.6093   -3.3072   23.3868 N   0  0  0  0  0  0  0  0  0  0  0  0
    6.3475   -3.0213   24.3399 H   0  0  0  0  0  0  0  0  0  0  0  0
    5.7213   -4.2626   22.9252 C   0  0  0  0  0  0  0  0  0  0  0  0
    5.9165   -4.8989   21.6909 C   0  0  0  0  0  0  0  0  0  0  0  0
    6.7586   -4.5837   21.0820 H   0  0  0  0  0  0  0  0  0  0  0  0
    5.0675   -5.9260   21.2729 C   0  0  0  0  0  0  0  0  0  0  0  0
    5.2605   -6.4480   20.3340 H   0  0  0  0  0  0  0  0  0  0  0  0
    3.9522   -6.2578   22.0584 C   0  0  0  0  0  0  0  0  0  0  0  0
    3.2788   -7.0547   21.7503 H   0  0  0  0  0  0  0  0  0  0  0  0
    3.7184   -5.5967   23.2601 C   0  0  0  0  0  0  0  0  0  0  0  0
    2.8097   -5.8178   23.8233 H   0  0  0  0  0  0  0  0  0  0  0  0
    4.6491   -4.6594   23.7607 C   0  0  0  0  0  0  0  0  0  0  0  0
    4.5812   -4.1417   25.1459 C   0  0  0  0  0  0  0  0  0  0  0  0
    5.2333   -3.2070   25.6093 O   0  0  0  0  0  0  0  0  0  0  0  0
    3.7162   -4.7605   26.0029 N   0  0  0  0  0  0  0  0  0  0  0  0
    3.6755   -5.7632   25.9271 H   0  0  0  0  0  0  0  0  0  0  0  0
    3.9352   -4.3999   26.9186 H   0  0  0  0  0  0  0  0  0  0  0  0
    8.6463   -2.0187   23.0157 C   0  0  0  0  0  0  0  0  0  0  0  0
    9.0809   -2.5559   23.8586 H   0  0  0  0  0  0  0  0  0  0  0  0
    9.3209   -1.0310   22.3623 C   0  0  0  0  0  0  0  0  0  0  0  0
   10.3141   -0.7058   22.6290 H   0  0  0  0  0  0  0  0  0  0  0  0
    8.7485   -0.2889   21.2455 C   0  0  0  0  0  0  0  0  0  0  0  0
    9.3272    0.6032   20.6519 O   0  0  0  0  0  0  0  0  0  0  0  0
    5.4802    0.6090   20.1218 C   0  0  0  0  0  0  0  0  0  0  0  0
    5.0780    0.5761   21.1350 H   0  0  0  0  0  0  0  0  0  0  0  0
    4.8308    1.2932   19.0875 C   0  0  0  0  0  0  0  0  0  0  0  0
    3.9027    1.8281   19.2574 H   0  0  0  0  0  0  0  0  0  0  0  0
  1  2  1  0
  2  3  2  0
  3  4  1  0
  4  5  1  0
  4  6  2  0
  6  7  1  0
  7  8  1  0
  8  9  1  0
  8 10  2  0
 10 11  1  0
 11 12  1  0
 11 13  1  0
 13 14  2  0
 14 15  1  0
 14 16  1  0
 16 17  1  0
 16 18  2  0
 18 19  1  0
 18 20  1  0
 20 21  1  0
 20 22  2  0
 22 23  1  0
 23 24  2  0
 23 25  1  0
 25 26  1  0
 25 27  1  0
 10 28  1  0
 28 29  1  0
 28 30  2  0
 30 31  1  0
 30 32  1  0
 32 33  2  0
  6 34  1  0
 34 35  1  0
 34 36  2  0
 36 37  1  0
 36  2  1  0
 32  7  1  0
 22 13  1  0
M  END
>  <plip>  (1) 
-0.10714285714285714

>  <filename>  (1) 
[H][c]1[n][c]([H])[c](-[n]2[c]([H])[c]([N]([H])[c]3[c]([H])[c]([H])[c]([H])[c]([H])[c]3[C](=[O])[N]([H])[H])[c]([H])[c]([H])[c]2=[O])[c]([H])[c]1[H]

$$$$
