
     RDKit          3D

 39 41  0  0  0  0  0  0  0  0999 V2000
    4.9531    1.8008   16.9832 H   0  0  0  0  0  0  0  0  0  0  0  0
    5.4417    1.3008   17.8179 C   0  0  0  0  0  0  0  0  0  0  0  0
    6.6120    0.6972   17.5476 N   0  0  0  0  0  0  0  0  0  0  0  0
    7.2437    0.0763   18.5543 C   0  0  0  0  0  0  0  0  0  0  0  0
    8.1868   -0.4045   18.2996 H   0  0  0  0  0  0  0  0  0  0  0  0
    6.7439    0.0136   19.8757 C   0  0  0  0  0  0  0  0  0  0  0  0
    7.4289   -0.6426   20.9406 N   0  0  0  0  0  0  0  0  0  0  0  0
    8.3322   -0.2932   21.2184 H   0  0  0  0  0  0  0  0  0  0  0  0
    6.8293   -1.4825   21.8590 C   0  0  0  0  0  0  0  0  0  0  0  0
    5.7786   -2.0597   21.6320 O   0  0  0  0  0  0  0  0  0  0  0  0
    7.6596   -1.7962   23.1499 C   0  0  0  0  0  0  0  0  0  0  0  0
    8.6360   -0.6654   23.5401 C   0  0  0  0  0  0  0  0  0  0  0  0
    9.9749   -0.9258   23.7945 C   0  0  0  0  0  0  0  0  0  0  0  0
   10.3580   -1.9392   23.7202 H   0  0  0  0  0  0  0  0  0  0  0  0
   10.8959    0.0911   24.1527 C   0  0  0  0  0  0  0  0  0  0  0  0
   11.9382   -0.1673   24.3331 H   0  0  0  0  0  0  0  0  0  0  0  0
   10.4741    1.3901   24.2811 C   0  0  0  0  0  0  0  0  0  0  0  0
   11.1227    2.2167   24.5509 H   0  0  0  0  0  0  0  0  0  0  0  0
    9.1083    1.7258   24.0732 C   0  0  0  0  0  0  0  0  0  0  0  0
    8.7911    3.0506   24.2528 N   0  0  0  0  0  0  0  0  0  0  0  0
    7.5381    3.4012   24.1043 C   0  0  0  0  0  0  0  0  0  0  0  0
    7.3199    4.4618   24.2535 H   0  0  0  0  0  0  0  0  0  0  0  0
    6.5023    2.4887   23.7773 C   0  0  0  0  0  0  0  0  0  0  0  0
    5.4905    2.8690   23.7094 H   0  0  0  0  0  0  0  0  0  0  0  0
    6.8025    1.1571   23.5729 C   0  0  0  0  0  0  0  0  0  0  0  0
    6.0023    0.4603   23.3161 H   0  0  0  0  0  0  0  0  0  0  0  0
    8.1594    0.7034   23.7105 C   0  0  0  0  0  0  0  0  0  0  0  0
    8.3814   -3.1367   22.7998 C   0  0  0  0  0  0  0  0  0  0  0  0
    9.1078   -2.9969   21.9898 H   0  0  0  0  0  0  0  0  0  0  0  0
    8.9028   -3.5490   23.6732 H   0  0  0  0  0  0  0  0  0  0  0  0
    7.6447   -3.8801   22.4744 H   0  0  0  0  0  0  0  0  0  0  0  0
    6.7383   -2.0860   24.3645 C   0  0  0  0  0  0  0  0  0  0  0  0
    7.3542   -2.4248   25.2068 H   0  0  0  0  0  0  0  0  0  0  0  0
    6.1830   -1.2070   24.7078 H   0  0  0  0  0  0  0  0  0  0  0  0
    6.0152   -2.8713   24.1250 H   0  0  0  0  0  0  0  0  0  0  0  0
    5.5142    0.6291   20.1306 C   0  0  0  0  0  0  0  0  0  0  0  0
    5.1056    0.5763   21.1402 H   0  0  0  0  0  0  0  0  0  0  0  0
    4.8599    1.2962   19.0889 C   0  0  0  0  0  0  0  0  0  0  0  0
    3.9134    1.8014   19.2496 H   0  0  0  0  0  0  0  0  0  0  0  0
  1  2  1  0
  2  3  2  0
  3  4  1  0
  4  5  1  0
  4  6  2  0
  6  7  1  0
  7  8  1  0
  7  9  1  0
  9 10  2  0
  9 11  1  0
 11 12  1  0
 12 13  2  0
 13 14  1  0
 13 15  1  0
 15 16  1  0
 15 17  2  0
 17 18  1  0
 17 19  1  0
 19 20  2  0
 20 21  1  0
 21 22  1  0
 21 23  2  0
 23 24  1  0
 23 25  1  0
 25 26  1  0
 25 27  2  0
 11 28  1  0
 28 29  1  0
 28 30  1  0
 28 31  1  0
 11 32  1  0
 32 33  1  0
 32 34  1  0
 32 35  1  0
  6 36  1  0
 36 37  1  0
 36 38  2  0
 38 39  1  0
 38  2  1  0
 27 12  1  0
 27 19  1  0
M  END
>  <plip>  (1) 
-0.10714285714285714

>  <filename>  (1) 
[H][c]1[n][c]([H])[c]([N]([H])[C](=[O])[C]([c]2[c]([H])[c]([H])[c]([H])[c]3[n][c]([H])[c]([H])[c]([H])[c]23)([C]([H])([H])[H])[C]([H])([H])[H])[c]([H])[c]1[H]

$$$$
