
     RDKit          3D

 42 44  0  0  0  0  0  0  0  0999 V2000
    8.4885    1.6173   20.6234 O   0  0  0  0  0  0  0  0  0  0  0  0
    8.0768    1.3002   21.7371 C   0  0  0  0  0  0  0  0  0  0  0  0
    7.4383    0.0802   21.8922 N   0  0  0  0  0  0  0  0  0  0  0  0
    7.2879   -0.8941   20.8156 C   0  0  0  0  0  0  0  0  0  0  0  0
    6.5558   -2.1755   21.2802 C   0  0  0  0  0  0  0  0  0  0  0  0
    7.3871   -2.9896   22.1453 O   0  0  0  0  0  0  0  0  0  0  0  0
    6.8886   -3.7173   22.5610 H   0  0  0  0  0  0  0  0  0  0  0  0
    6.2742   -2.7569   20.3924 H   0  0  0  0  0  0  0  0  0  0  0  0
    5.6410   -1.8834   21.8062 H   0  0  0  0  0  0  0  0  0  0  0  0
    6.5550   -0.1459   19.7321 C   0  0  0  0  0  0  0  0  0  0  0  0
    5.3514    0.5190   19.9829 C   0  0  0  0  0  0  0  0  0  0  0  0
    4.8105    1.2911   18.9610 C   0  0  0  0  0  0  0  0  0  0  0  0
    5.4560    1.3536   17.7245 C   0  0  0  0  0  0  0  0  0  0  0  0
    6.6077    0.7061   17.4800 N   0  0  0  0  0  0  0  0  0  0  0  0
    7.1577   -0.0047   18.4761 C   0  0  0  0  0  0  0  0  0  0  0  0
    8.1148   -0.4860   18.2912 H   0  0  0  0  0  0  0  0  0  0  0  0
    5.0131    1.9451   16.9307 H   0  0  0  0  0  0  0  0  0  0  0  0
    3.8966    1.8479   19.1160 H   0  0  0  0  0  0  0  0  0  0  0  0
    4.8852    0.4594   20.9648 H   0  0  0  0  0  0  0  0  0  0  0  0
    8.2739   -1.2120   20.4500 H   0  0  0  0  0  0  0  0  0  0  0  0
    6.8153    0.0054   22.6907 H   0  0  0  0  0  0  0  0  0  0  0  0
    8.3142    2.1779   23.0056 C   0  0  0  0  0  0  0  0  0  0  0  0
    9.6939    2.0841   23.5993 N   0  0  0  0  0  4  0  0  0  0  0  0
    9.7996    2.9482   24.7782 C   0  0  0  0  0  0  0  0  0  0  0  0
    9.8263    4.3854   24.2600 C   0  0  0  0  0  0  0  0  0  0  0  0
    8.6526    4.6831   23.3541 C   0  0  0  0  0  0  0  0  0  0  0  0
    8.3011    6.0108   23.0666 C   0  0  0  0  0  0  0  0  0  0  0  0
    7.2177    6.3007   22.2311 C   0  0  0  0  0  0  0  0  0  0  0  0
    6.7777    8.1041   21.7888 Br  0  0  0  0  0  0  0  0  0  0  0  0
    6.4542    5.2587   21.7115 C   0  0  0  0  0  0  0  0  0  0  0  0
    6.8097    3.9329   21.9672 C   0  0  0  0  0  0  0  0  0  0  0  0
    7.9309    3.6301   22.7604 C   0  0  0  0  0  0  0  0  0  0  0  0
    6.2164    3.1420   21.5178 H   0  0  0  0  0  0  0  0  0  0  0  0
    5.5891    5.4888   21.0993 H   0  0  0  0  0  0  0  0  0  0  0  0
    8.8772    6.8251   23.4898 H   0  0  0  0  0  0  0  0  0  0  0  0
   10.7510    4.5484   23.6987 H   0  0  0  0  0  0  0  0  0  0  0  0
    9.8179    5.0623   25.1138 H   0  0  0  0  0  0  0  0  0  0  0  0
    8.9477    2.7958   25.4588 H   0  0  0  0  0  0  0  0  0  0  0  0
   10.7114    2.7065   25.3284 H   0  0  0  0  0  0  0  0  0  0  0  0
   10.3832    2.3894   22.9020 H   0  0  0  0  0  0  0  0  0  0  0  0
    9.9026    1.1204   23.8761 H   0  0  0  0  0  0  0  0  0  0  0  0
    7.6002    1.8097   23.7478 H   0  0  0  0  0  0  0  0  0  0  0  0
  1  2  2  0
  2  3  1  0
  3  4  1  0
  4  5  1  0
  5  6  1  0
  6  7  1  0
  5  8  1  0
  5  9  1  0
  4 10  1  0
 10 11  2  0
 11 12  1  0
 12 13  2  0
 13 14  1  0
 14 15  2  0
 15 16  1  0
 13 17  1  0
 12 18  1  0
 11 19  1  0
  4 20  1  0
  3 21  1  0
  2 22  1  0
 22 23  1  0
 23 24  1  0
 24 25  1  0
 25 26  1  0
 26 27  2  0
 27 28  1  0
 28 29  1  0
 28 30  2  0
 30 31  1  0
 31 32  2  0
 31 33  1  0
 30 34  1  0
 27 35  1  0
 25 36  1  0
 25 37  1  0
 24 38  1  0
 24 39  1  0
 23 40  1  0
 23 41  1  0
 22 42  1  0
 15 10  1  0
 32 22  1  0
 32 26  1  0
M  CHG  1  23   1
M  END
>  <plip>  (1) 
-0.13793103448275862

>  <filename>  (1) 
[H][O][C]([H])([H])[C]([H])([c]1[c]([H])[n][c]([H])[c]([H])[c]1[H])[N]([H])[C](=[O])[C]1([H])[c]2[c]([H])[c]([H])[c]([Br])[c]([H])[c]2[C]([H])([H])[C]([H])([H])[N+]1([H])[H]

$$$$
