
     RDKit          3D

 35 36  0  0  0  0  0  0  0  0999 V2000
    4.9346    1.7718   17.0012 H   0  0  0  0  0  0  0  0  0  0  0  0
    5.4102    1.2838   17.8517 C   0  0  0  0  0  0  0  0  0  0  0  0
    6.5729    0.6617   17.6135 N   0  0  0  0  0  0  0  0  0  0  0  0
    7.1726    0.0493   18.6397 C   0  0  0  0  0  0  0  0  0  0  0  0
    8.1173   -0.4311   18.4060 H   0  0  0  0  0  0  0  0  0  0  0  0
    6.6368    0.0047   19.9337 C   0  0  0  0  0  0  0  0  0  0  0  0
    7.4107   -0.7267   20.9743 C   0  0  0  0  0  0  0  0  0  0  0  0
    8.5022   -1.2089   20.7910 O   0  0  0  0  0  0  0  0  0  0  0  0
    6.7633   -0.7724   22.1761 O   0  0  0  0  0  0  0  0  0  0  0  0
    7.4725   -1.2807   23.3433 C   0  0  1  0  0  0  0  0  0  0  0  0
    7.9197   -2.2500   23.1074 H   0  0  0  0  0  0  0  0  0  0  0  0
    8.6655   -0.3977   23.7998 C   0  0  0  0  0  0  0  0  0  0  0  0
    9.6173   -0.9581   24.3076 O   0  0  0  0  0  0  0  0  0  0  0  0
    8.6105    1.1002   23.6417 C   0  0  0  0  0  0  0  0  0  0  0  0
    7.4028    1.8153   23.4977 C   0  0  0  0  0  0  0  0  0  0  0  0
    6.4365    1.3115   23.4869 H   0  0  0  0  0  0  0  0  0  0  0  0
    7.4253    3.1994   23.3436 C   0  0  0  0  0  0  0  0  0  0  0  0
    6.4945    3.7474   23.2113 H   0  0  0  0  0  0  0  0  0  0  0  0
    8.6368    3.9094   23.3297 C   0  0  0  0  0  0  0  0  0  0  0  0
    8.6613    5.3992   23.1284 C   0  0  0  0  0  0  0  0  0  0  0  0
    7.7569    5.8741   23.5193 H   0  0  0  0  0  0  0  0  0  0  0  0
    8.7245    5.6464   22.0635 H   0  0  0  0  0  0  0  0  0  0  0  0
    9.5221    5.8615   23.6207 H   0  0  0  0  0  0  0  0  0  0  0  0
    9.8319    3.1902   23.4795 C   0  0  0  0  0  0  0  0  0  0  0  0
   10.7788    3.7256   23.4669 H   0  0  0  0  0  0  0  0  0  0  0  0
    9.8254    1.8097   23.6346 C   0  0  0  0  0  0  0  0  0  0  0  0
   10.7605    1.2653   23.7501 H   0  0  0  0  0  0  0  0  0  0  0  0
    6.4768   -1.4653   24.4878 C   0  0  0  0  0  0  0  0  0  0  0  0
    5.6584   -2.1338   24.2102 H   0  0  0  0  0  0  0  0  0  0  0  0
    6.0468   -0.5200   24.8412 H   0  0  0  0  0  0  0  0  0  0  0  0
    6.9798   -1.9231   25.3477 H   0  0  0  0  0  0  0  0  0  0  0  0
    5.4195    0.6582   20.1758 C   0  0  0  0  0  0  0  0  0  0  0  0
    4.9784    0.6420   21.1761 H   0  0  0  0  0  0  0  0  0  0  0  0
    4.8006    1.3111   19.1127 C   0  0  0  0  0  0  0  0  0  0  0  0
    3.8684    1.8469   19.2548 H   0  0  0  0  0  0  0  0  0  0  0  0
  1  2  1  0
  2  3  2  0
  3  4  1  0
  4  5  1  0
  4  6  2  0
  6  7  1  0
  7  8  2  0
  7  9  1  0
  9 10  1  0
 10 11  1  6
 10 12  1  0
 12 13  2  0
 12 14  1  0
 14 15  2  0
 15 16  1  0
 15 17  1  0
 17 18  1  0
 17 19  2  0
 19 20  1  0
 20 21  1  0
 20 22  1  0
 20 23  1  0
 19 24  1  0
 24 25  1  0
 24 26  2  0
 26 27  1  0
 10 28  1  0
 28 29  1  0
 28 30  1  0
 28 31  1  0
  6 32  1  0
 32 33  1  0
 32 34  2  0
 34 35  1  0
 34  2  1  0
 26 14  1  0
M  END
>  <plip>  (1) 
-0.0

>  <filename>  (1) 
[H][c]1[n][c]([H])[c]([C](=[O])[O][C@@]([H])([C](=[O])[c]2[c]([H])[c]([H])[c]([C]([H])([H])[H])[c]([H])[c]2[H])[C]([H])([H])[H])[c]([H])[c]1[H]

$$$$
