
     RDKit          3D

 28 30  0  0  0  0  0  0  0  0999 V2000
    5.5355   -1.2827   27.0766 C   0  0  0  0  0  0  0  0  0  0  0  0
    6.7140   -1.7541   26.2787 C   0  0  0  0  0  0  0  0  0  0  0  0
    7.7227   -2.5175   26.8615 C   0  0  0  0  0  0  0  0  0  0  0  0
    8.8139   -2.9455   26.1269 C   0  0  0  0  0  0  0  0  0  0  0  0
    8.8680   -2.6042   24.7819 C   0  0  0  0  0  0  0  0  0  0  0  0
   10.3499   -3.1892   23.7223 Br  0  0  0  0  0  0  0  0  0  0  0  0
    7.8271   -1.8395   24.2185 C   0  0  0  0  0  0  0  0  0  0  0  0
    7.8878   -1.4879   22.7735 C   0  0  0  0  0  0  0  0  0  0  0  0
    6.9850   -0.7852   22.1358 N   0  0  0  0  0  0  0  0  0  0  0  0
    7.4404   -0.7075   20.8553 C   0  0  0  0  0  0  0  0  0  0  0  0
    6.6725    0.0020   19.8661 C   0  0  0  0  0  0  0  0  0  0  0  0
    5.4557    0.6454   20.1433 C   0  0  0  0  0  0  0  0  0  0  0  0
    4.8271    1.2922   19.0858 C   0  0  0  0  0  0  0  0  0  0  0  0
    5.4139    1.2913   17.8193 C   0  0  0  0  0  0  0  0  0  0  0  0
    6.5746    0.6604   17.5673 N   0  0  0  0  0  0  0  0  0  0  0  0
    7.1880    0.0367   18.5819 C   0  0  0  0  0  0  0  0  0  0  0  0
    8.1378   -0.4550   18.4036 H   0  0  0  0  0  0  0  0  0  0  0  0
    4.9155    1.8330   17.0208 H   0  0  0  0  0  0  0  0  0  0  0  0
    3.8922    1.8193   19.2254 H   0  0  0  0  0  0  0  0  0  0  0  0
    5.0011    0.6661   21.1370 H   0  0  0  0  0  0  0  0  0  0  0  0
    8.5796   -1.3287   20.6681 N   0  0  0  0  0  0  0  0  0  0  0  0
    8.9035   -1.8642   21.9364 O   0  0  0  0  0  0  0  0  0  0  0  0
    6.7813   -1.4322   24.9837 N   0  0  0  0  0  0  0  0  0  0  0  0
    9.5993   -3.5377   26.5909 H   0  0  0  0  0  0  0  0  0  0  0  0
    7.6823   -2.8030   27.8858 H   0  0  0  0  0  0  0  0  0  0  0  0
    4.9895   -2.1338   27.4880 H   0  0  0  0  0  0  0  0  0  0  0  0
    5.8638   -0.6429   27.8982 H   0  0  0  0  0  0  0  0  0  0  0  0
    4.8540   -0.7086   26.4425 H   0  0  0  0  0  0  0  0  0  0  0  0
  1  2  1  0
  2  3  2  0
  3  4  1  0
  4  5  2  0
  5  6  1  0
  5  7  1  0
  7  8  1  0
  8  9  2  0
  9 10  1  0
 10 11  1  0
 11 12  2  0
 12 13  1  0
 13 14  2  0
 14 15  1  0
 15 16  2  0
 16 17  1  0
 14 18  1  0
 13 19  1  0
 12 20  1  0
 10 21  2  0
 21 22  1  0
  7 23  2  0
  4 24  1  0
  3 25  1  0
  1 26  1  0
  1 27  1  0
  1 28  1  0
 23  2  1  0
 22  8  1  0
 16 11  1  0
M  END
>  <plip>  (1) 
-0.03571428571428571

>  <filename>  (1) 
[H][c]1[n][c]([H])[c](-[c]2[n][o][c](-[c]3[n][c]([C]([H])([H])[H])[c]([H])[c]([H])[c]3[Br])[n]2)[c]([H])[c]1[H]

$$$$
