
     RDKit          3D

 43 44  0  0  0  0  0  0  0  0999 V2000
   10.2557    0.7590   21.3158 C   0  0  0  0  0  0  0  0  0  0  0  0
    8.9146    1.1791   21.3089 O   0  0  0  0  0  0  0  0  0  0  0  0
    8.0207    0.3094   21.9745 C   0  0  0  0  0  0  0  0  0  0  0  0
    7.3967   -0.7187   21.0089 C   0  0  1  0  0  0  0  0  0  0  0  0
    6.5686   -1.6723   21.7402 N   0  0  0  0  0  0  0  0  0  0  0  0
    6.0157   -2.7410   21.1033 C   0  0  0  0  0  0  0  0  0  0  0  0
    6.2575   -3.0547   19.9523 O   0  0  0  0  0  0  0  0  0  0  0  0
    5.0939   -3.5121   21.9374 C   0  0  0  0  0  0  0  0  0  0  0  0
    4.3354   -4.2555   22.5140 C   0  0  0  0  0  0  0  0  0  0  0  0
    3.4290   -5.1676   23.2213 C   0  0  0  0  0  0  0  0  0  0  0  0
    3.5128   -6.6414   22.7534 C   0  0  0  0  0  0  0  0  0  0  0  0
    2.5625   -7.5301   23.5269 C   0  0  0  0  0  0  0  0  0  0  0  0
    2.9678   -8.1374   24.7246 C   0  0  0  0  0  0  0  0  0  0  0  0
    2.0756   -8.9202   25.4647 C   0  0  0  0  0  0  0  0  0  0  0  0
    0.7629   -9.1048   25.0201 C   0  0  0  0  0  0  0  0  0  0  0  0
    0.3411   -8.4958   23.8333 C   0  0  0  0  0  0  0  0  0  0  0  0
    1.2374   -7.7118   23.0970 C   0  0  0  0  0  0  0  0  0  0  0  0
    0.9068   -7.2242   22.1822 H   0  0  0  0  0  0  0  0  0  0  0  0
   -0.6822   -8.6234   23.4865 H   0  0  0  0  0  0  0  0  0  0  0  0
    0.0767   -9.7161   25.6023 H   0  0  0  0  0  0  0  0  0  0  0  0
    2.3942   -9.3748   26.3958 H   0  0  0  0  0  0  0  0  0  0  0  0
    3.9832   -7.9770   25.0821 H   0  0  0  0  0  0  0  0  0  0  0  0
    3.2775   -6.7002   21.6857 H   0  0  0  0  0  0  0  0  0  0  0  0
    4.5441   -7.0037   22.8614 H   0  0  0  0  0  0  0  0  0  0  0  0
    2.3979   -4.8081   23.1073 H   0  0  0  0  0  0  0  0  0  0  0  0
    3.6561   -5.1111   24.2935 H   0  0  0  0  0  0  0  0  0  0  0  0
    6.1651   -1.4520   22.6373 H   0  0  0  0  0  0  0  0  0  0  0  0
    6.6242   -0.0291   19.8920 C   0  0  0  0  0  0  0  0  0  0  0  0
    5.4211    0.6396   20.1391 C   0  0  0  0  0  0  0  0  0  0  0  0
    4.7980    1.3135   19.0900 C   0  0  0  0  0  0  0  0  0  0  0  0
    5.4019    1.2980   17.8260 C   0  0  0  0  0  0  0  0  0  0  0  0
    6.5609    0.6799   17.5684 N   0  0  0  0  0  0  0  0  0  0  0  0
    7.1462    0.0390   18.5943 C   0  0  0  0  0  0  0  0  0  0  0  0
    8.1060   -0.4297   18.3691 H   0  0  0  0  0  0  0  0  0  0  0  0
    4.9318    1.7988   16.9808 H   0  0  0  0  0  0  0  0  0  0  0  0
    3.8728    1.8513   19.2415 H   0  0  0  0  0  0  0  0  0  0  0  0
    4.9917    0.6435   21.1441 H   0  0  0  0  0  0  0  0  0  0  0  0
    8.2195   -1.2824   20.5481 H   0  0  0  0  0  0  0  0  0  0  0  0
    7.2216    0.9332   22.3976 H   0  0  0  0  0  0  0  0  0  0  0  0
    8.5124   -0.2267   22.8040 H   0  0  0  0  0  0  0  0  0  0  0  0
   10.3882   -0.2530   20.8986 H   0  0  0  0  0  0  0  0  0  0  0  0
   10.6777    0.7675   22.3326 H   0  0  0  0  0  0  0  0  0  0  0  0
   10.8021    1.4779   20.7040 H   0  0  0  0  0  0  0  0  0  0  0  0
  1  2  1  0
  2  3  1  0
  3  4  1  0
  4  5  1  0
  5  6  1  0
  6  7  2  0
  6  8  1  0
  8  9  3  0
  9 10  1  0
 10 11  1  0
 11 12  1  0
 12 13  2  0
 13 14  1  0
 14 15  2  0
 15 16  1  0
 16 17  2  0
 17 18  1  0
 16 19  1  0
 15 20  1  0
 14 21  1  0
 13 22  1  0
 11 23  1  0
 11 24  1  0
 10 25  1  0
 10 26  1  0
  5 27  1  0
  4 28  1  0
 28 29  2  0
 29 30  1  0
 30 31  2  0
 31 32  1  0
 32 33  2  0
 33 34  1  0
 31 35  1  0
 30 36  1  0
 29 37  1  0
  4 38  1  6
  3 39  1  0
  3 40  1  0
  1 41  1  0
  1 42  1  0
  1 43  1  0
 17 12  1  0
 33 28  1  0
M  END
>  <plip>  (1) 
-0.1724137931034483

>  <filename>  (1) 
[H][c]1[n][c]([H])[c]([C@]([H])([N]([H])[C](=[O])[C]#[C][C]([H])([H])[C]([H])([H])[c]2[c]([H])[c]([H])[c]([H])[c]([H])[c]2[H])[C]([H])([H])[O][C]([H])([H])[H])[c]([H])[c]1[H]

$$$$
