
     RDKit          3D

 27 29  0  0  0  0  0  0  0  0999 V2000
    9.4227   -0.3737   19.9146 O   0  0  0  0  0  0  0  0  0  0  0  0
    8.6326   -0.9647   20.6306 C   0  0  0  0  0  0  0  0  0  0  0  0
    7.2765   -0.7495   20.5313 N   0  0  0  0  0  0  0  0  0  0  0  0
    6.5992    0.0381   19.5660 C   0  0  0  0  0  0  0  0  0  0  0  0
    5.3924    0.6472   19.9309 C   0  0  0  0  0  0  0  0  0  0  0  0
    4.6900    1.3841   18.9719 C   0  0  0  0  0  0  0  0  0  0  0  0
    5.2167    1.4873   17.6809 C   0  0  0  0  0  0  0  0  0  0  0  0
    6.3699    0.9082   17.3090 N   0  0  0  0  0  0  0  0  0  0  0  0
    7.0508    0.2207   18.2335 C   0  0  0  0  0  0  0  0  0  0  0  0
    7.9996   -0.2076   17.9249 H   0  0  0  0  0  0  0  0  0  0  0  0
    4.7071    2.0654   16.9166 H   0  0  0  0  0  0  0  0  0  0  0  0
    3.7583    1.8851   19.2166 H   0  0  0  0  0  0  0  0  0  0  0  0
    5.0302    0.5722   20.9549 H   0  0  0  0  0  0  0  0  0  0  0  0
    6.7313   -1.0211   21.3300 H   0  0  0  0  0  0  0  0  0  0  0  0
    9.0910   -1.9899   21.6512 C   0  0  0  0  0  0  0  0  0  0  0  0
   10.4993   -2.1036   21.8310 C   0  0  0  0  0  0  0  0  0  0  0  0
   11.0517   -2.9259   22.7971 C   0  0  0  0  0  0  0  0  0  0  0  0
   10.1922   -3.7179   23.5770 C   0  0  0  0  0  0  0  0  0  0  0  0
   10.5435   -4.8567   24.8487 S   0  0  0  0  0  0  0  0  0  0  0  0
    8.9302   -5.3272   25.0374 N   0  0  0  0  0  0  0  0  0  0  0  0
    8.1637   -4.6862   24.2148 C   0  0  0  0  0  0  0  0  0  0  0  0
    8.8003   -3.7105   23.3455 C   0  0  0  0  0  0  0  0  0  0  0  0
    8.2530   -2.8300   22.3879 C   0  0  0  0  0  0  0  0  0  0  0  0
    7.1735   -2.8405   22.2447 H   0  0  0  0  0  0  0  0  0  0  0  0
    7.0976   -4.9120   24.2291 H   0  0  0  0  0  0  0  0  0  0  0  0
   12.1290   -2.9864   22.9015 H   0  0  0  0  0  0  0  0  0  0  0  0
   11.1549   -1.5350   21.1783 H   0  0  0  0  0  0  0  0  0  0  0  0
  1  2  2  0
  2  3  1  0
  3  4  1  0
  4  5  2  0
  5  6  1  0
  6  7  2  0
  7  8  1  0
  8  9  2  0
  9 10  1  0
  7 11  1  0
  6 12  1  0
  5 13  1  0
  3 14  1  0
  2 15  1  0
 15 16  2  0
 16 17  1  0
 17 18  2  0
 18 19  1  0
 19 20  1  0
 20 21  2  0
 21 22  1  0
 22 23  2  0
 23 24  1  0
 21 25  1  0
 17 26  1  0
 16 27  1  0
  9  4  1  0
 23 15  1  0
 22 18  1  0
M  END
>  <plip>  (1) 
-0.10714285714285714

>  <filename>  (1) 
[H][c]1[n][c]([H])[c]([N]([H])[C](=[O])[c]2[c]([H])[c]([H])[c]3[s][n][c]([H])[c]3[c]2[H])[c]([H])[c]1[H]

$$$$
