
     RDKit          3D

 31 32  0  0  0  0  0  0  0  0999 V2000
    4.9428    1.8109   16.9665 H   0  0  0  0  0  0  0  0  0  0  0  0
    5.3974    1.2973   17.8139 C   0  0  0  0  0  0  0  0  0  0  0  0
    6.5586    0.6741   17.5684 N   0  0  0  0  0  0  0  0  0  0  0  0
    7.1659    0.0540   18.5957 C   0  0  0  0  0  0  0  0  0  0  0  0
    8.1117   -0.4207   18.3294 H   0  0  0  0  0  0  0  0  0  0  0  0
    6.6527   -0.0128   19.9032 C   0  0  0  0  0  0  0  0  0  0  0  0
    7.3750   -0.6995   21.0603 C   0  0  0  0  0  0  0  0  0  0  0  0
    6.3230   -2.0390   21.7771 S   0  0  0  0  0  0  0  0  0  0  0  0
    6.3700   -3.3716   20.5540 C   0  0  0  0  0  0  0  0  0  0  0  0
    5.7496   -4.1392   21.0270 H   0  0  0  0  0  0  0  0  0  0  0  0
    7.3795   -3.7993   20.5408 H   0  0  0  0  0  0  0  0  0  0  0  0
    5.8275   -3.0428   19.1619 C   0  0  0  0  0  0  0  0  0  0  0  0
    5.7089   -3.9625   18.5882 H   0  0  0  0  0  0  0  0  0  0  0  0
    4.8512   -2.5527   19.2189 H   0  0  0  0  0  0  0  0  0  0  0  0
    6.5029   -2.4111   18.5741 H   0  0  0  0  0  0  0  0  0  0  0  0
    7.6387    0.2758   22.2368 C   0  0  0  0  0  0  0  0  0  0  0  0
    7.9446    1.2316   21.7910 H   0  0  0  0  0  0  0  0  0  0  0  0
    6.7308    0.4627   22.8212 H   0  0  0  0  0  0  0  0  0  0  0  0
    8.8074   -0.3166   23.0663 C   0  0  0  0  0  0  0  0  0  0  0  0
    8.4438   -0.7717   23.9943 H   0  0  0  0  0  0  0  0  0  0  0  0
    9.5045    0.4761   23.3599 H   0  0  0  0  0  0  0  0  0  0  0  0
    9.4741   -1.3769   22.1480 C   0  0  0  0  0  0  0  0  0  0  0  0
    9.2611   -2.3826   22.5291 H   0  0  0  0  0  0  0  0  0  0  0  0
   10.5675   -1.3017   22.0946 H   0  0  0  0  0  0  0  0  0  0  0  0
    8.8089   -1.1917   20.7735 C   0  0  0  0  0  0  0  0  0  0  0  0
    9.3107   -0.3995   20.2036 H   0  0  0  0  0  0  0  0  0  0  0  0
    8.8394   -2.1030   20.1775 H   0  0  0  0  0  0  0  0  0  0  0  0
    5.4238    0.6374   20.1244 C   0  0  0  0  0  0  0  0  0  0  0  0
    4.9778    0.6344   21.1188 H   0  0  0  0  0  0  0  0  0  0  0  0
    4.7905    1.3053   19.0714 C   0  0  0  0  0  0  0  0  0  0  0  0
    3.8642    1.8470   19.2255 H   0  0  0  0  0  0  0  0  0  0  0  0
  1  2  1  0
  2  3  2  0
  3  4  1  0
  4  5  1  0
  4  6  2  0
  6  7  1  0
  7  8  1  0
  8  9  1  0
  9 10  1  0
  9 11  1  0
  9 12  1  0
 12 13  1  0
 12 14  1  0
 12 15  1  0
  7 16  1  0
 16 17  1  0
 16 18  1  0
 16 19  1  0
 19 20  1  0
 19 21  1  0
 19 22  1  0
 22 23  1  0
 22 24  1  0
 22 25  1  0
 25 26  1  0
 25 27  1  0
  6 28  1  0
 28 29  1  0
 28 30  2  0
 30 31  1  0
 30  2  1  0
 25  7  1  0
M  END
>  <plip>  (1) 
-0.0

>  <filename>  (1) 
[H][c]1[n][c]([H])[c]([C]2([S][C]([H])([H])[C]([H])([H])[H])[C]([H])([H])[C]([H])([H])[C]([H])([H])[C]2([H])[H])[c]([H])[c]1[H]

$$$$
