
     RDKit          3D

 33 35  0  0  0  0  0  0  0  0999 V2000
    7.7308    1.8137   22.3372 C   0  0  0  0  0  0  0  0  0  0  0  0
    7.7886    0.3063   22.2267 C   0  0  0  0  0  0  0  0  0  0  0  0
    8.4597   -0.4397   23.2063 C   0  0  0  0  0  0  0  0  0  0  0  0
    8.4588   -1.8375   23.2152 C   0  0  0  0  0  0  0  0  0  0  0  0
    7.8106   -2.5425   22.1905 C   0  0  0  0  0  0  0  0  0  0  0  0
    7.7688   -4.0195   22.0898 C   0  0  0  0  0  0  0  0  0  0  0  0
    7.6082   -4.6245   20.9370 N   0  0  0  0  0  0  0  0  0  0  0  0
    7.6561   -5.9650   21.1342 N   0  0  0  0  0  0  0  0  0  0  0  0
    7.8228   -6.1565   22.4091 C   0  0  0  0  0  0  0  0  0  0  0  0
    7.8899   -4.9696   23.0847 N   0  0  0  0  0  0  0  0  0  0  0  0
    7.9825   -4.8581   24.5364 C   0  0  0  0  0  0  0  0  0  0  0  0
    7.5488   -5.7565   24.9838 H   0  0  0  0  0  0  0  0  0  0  0  0
    7.4080   -4.0076   24.9088 H   0  0  0  0  0  0  0  0  0  0  0  0
    9.0195   -4.7752   24.8839 H   0  0  0  0  0  0  0  0  0  0  0  0
    7.8928   -7.1284   22.8786 H   0  0  0  0  0  0  0  0  0  0  0  0
    7.2033   -1.8050   21.1586 C   0  0  0  0  0  0  0  0  0  0  0  0
    7.1742   -0.4090   21.1709 C   0  0  0  0  0  0  0  0  0  0  0  0
    6.5483    0.2841   20.0104 C   0  0  0  0  0  0  0  0  0  0  0  0
    5.3476    0.9977   20.1245 C   0  0  0  0  0  0  0  0  0  0  0  0
    4.7682    1.5108   18.9624 C   0  0  0  0  0  0  0  0  0  0  0  0
    5.4317    1.3355   17.7413 C   0  0  0  0  0  0  0  0  0  0  0  0
    6.6000    0.6827   17.6145 N   0  0  0  0  0  0  0  0  0  0  0  0
    7.1299    0.1763   18.7342 C   0  0  0  0  0  0  0  0  0  0  0  0
    8.0847   -0.3447   18.6323 H   0  0  0  0  0  0  0  0  0  0  0  0
    5.0162    1.7380   16.8203 H   0  0  0  0  0  0  0  0  0  0  0  0
    3.8277    2.0500   18.9882 H   0  0  0  0  0  0  0  0  0  0  0  0
    4.8918    1.1285   21.1105 H   0  0  0  0  0  0  0  0  0  0  0  0
    6.7795   -2.3288   20.3034 H   0  0  0  0  0  0  0  0  0  0  0  0
    8.9984   -2.3616   23.9992 H   0  0  0  0  0  0  0  0  0  0  0  0
    9.0258    0.1087   23.9544 H   0  0  0  0  0  0  0  0  0  0  0  0
    6.7279    2.1372   22.6493 H   0  0  0  0  0  0  0  0  0  0  0  0
    8.4525    2.1842   23.0717 H   0  0  0  0  0  0  0  0  0  0  0  0
    7.9368    2.3053   21.3797 H   0  0  0  0  0  0  0  0  0  0  0  0
  1  2  1  0
  2  3  2  0
  3  4  1  0
  4  5  2  0
  5  6  1  0
  6  7  2  0
  7  8  1  0
  8  9  2  0
  9 10  1  0
 10 11  1  0
 11 12  1  0
 11 13  1  0
 11 14  1  0
  9 15  1  0
  5 16  1  0
 16 17  2  0
 17 18  1  0
 18 19  2  0
 19 20  1  0
 20 21  2  0
 21 22  1  0
 22 23  2  0
 23 24  1  0
 21 25  1  0
 20 26  1  0
 19 27  1  0
 16 28  1  0
  4 29  1  0
  3 30  1  0
  1 31  1  0
  1 32  1  0
  1 33  1  0
 17  2  1  0
 23 18  1  0
 10  6  1  0
M  END
>  <plip>  (1) 
-0.06896551724137931

>  <filename>  (1) 
[H][c]1[n][c]([H])[c](-[c]2[c]([H])[c](-[c]3[n][n][c]([H])[n]3[C]([H])([H])[H])[c]([H])[c]([H])[c]2[C]([H])([H])[H])[c]([H])[c]1[H]

$$$$
