
     RDKit          3D

 30 31  0  0  0  0  0  0  0  0999 V2000
    4.9264    1.8024   16.9843 H   0  0  0  0  0  0  0  0  0  0  0  0
    5.3947    1.2980   17.8279 C   0  0  0  0  0  0  0  0  0  0  0  0
    6.5585    0.6778   17.5662 N   0  0  0  0  0  0  0  0  0  0  0  0
    7.1665    0.0649   18.5904 C   0  0  0  0  0  0  0  0  0  0  0  0
    8.1090   -0.4206   18.3403 H   0  0  0  0  0  0  0  0  0  0  0  0
    6.6647   -0.0043   19.9091 C   0  0  0  0  0  0  0  0  0  0  0  0
    7.3952   -0.7213   21.0045 C   0  0  0  0  0  0  0  0  0  0  0  0
    6.7494   -1.5561   21.9208 C   0  0  0  0  0  0  0  0  0  0  0  0
    5.6743   -1.7200   21.8361 H   0  0  0  0  0  0  0  0  0  0  0  0
    7.3639   -2.2347   22.9046 N   0  0  0  0  0  0  0  0  0  0  0  0
    8.6758   -2.0771   23.0281 C   0  0  0  0  0  0  0  0  0  0  0  0
    9.3548   -2.7136   23.9973 O   0  0  0  0  0  0  0  0  0  0  0  0
    8.6491   -3.5655   24.9169 C   0  0  0  0  0  0  0  0  0  0  0  0
    7.8926   -2.9721   25.4468 H   0  0  0  0  0  0  0  0  0  0  0  0
    8.1266   -4.3498   24.3555 H   0  0  0  0  0  0  0  0  0  0  0  0
    9.6547   -4.1547   25.8984 C   0  0  0  0  0  0  0  0  0  0  0  0
   10.4495   -4.6703   25.3428 H   0  0  0  0  0  0  0  0  0  0  0  0
   10.1250   -3.3273   26.4286 H   0  0  0  0  0  0  0  0  0  0  0  0
    9.0092   -5.0775   26.9375 C   0  0  0  0  0  0  0  0  0  0  0  0
    8.2652   -4.5341   27.5340 H   0  0  0  0  0  0  0  0  0  0  0  0
    9.7587   -5.4629   27.6364 H   0  0  0  0  0  0  0  0  0  0  0  0
    8.5056   -5.9374   26.4792 H   0  0  0  0  0  0  0  0  0  0  0  0
    9.4421   -1.2636   22.1727 C   0  0  0  0  0  0  0  0  0  0  0  0
   10.5051   -1.2184   22.3617 H   0  0  0  0  0  0  0  0  0  0  0  0
    8.7974   -0.5891   21.1511 C   0  0  0  0  0  0  0  0  0  0  0  0
    9.3440    0.0607   20.4656 H   0  0  0  0  0  0  0  0  0  0  0  0
    5.4371    0.6430   20.1466 C   0  0  0  0  0  0  0  0  0  0  0  0
    5.0099    0.6479   21.1492 H   0  0  0  0  0  0  0  0  0  0  0  0
    4.8024    1.3081   19.0924 C   0  0  0  0  0  0  0  0  0  0  0  0
    3.8692    1.8446   19.2407 H   0  0  0  0  0  0  0  0  0  0  0  0
  1  2  1  0
  2  3  2  0
  3  4  1  0
  4  5  1  0
  4  6  2  0
  6  7  1  0
  7  8  2  0
  8  9  1  0
  8 10  1  0
 10 11  2  0
 11 12  1  0
 12 13  1  0
 13 14  1  0
 13 15  1  0
 13 16  1  0
 16 17  1  0
 16 18  1  0
 16 19  1  0
 19 20  1  0
 19 21  1  0
 19 22  1  0
 11 23  1  0
 23 24  1  0
 23 25  2  0
 25 26  1  0
  6 27  1  0
 27 28  1  0
 27 29  2  0
 29 30  1  0
 29  2  1  0
 25  7  1  0
M  END
>  <plip>  (1) 
-0.0

>  <filename>  (1) 
[H][c]1[n][c]([H])[c](-[c]2[c]([H])[n][c]([O][C]([H])([H])[C]([H])([H])[C]([H])([H])[H])[c]([H])[c]2[H])[c]([H])[c]1[H]

$$$$
