
     RDKit          3D

 36 38  0  0  0  0  0  0  0  0999 V2000
    4.9140    1.7865   16.9905 H   0  0  0  0  0  0  0  0  0  0  0  0
    5.3967    1.2980   17.8331 C   0  0  0  0  0  0  0  0  0  0  0  0
    6.5582    0.6829   17.5680 N   0  0  0  0  0  0  0  0  0  0  0  0
    7.1572    0.0599   18.5878 C   0  0  0  0  0  0  0  0  0  0  0  0
    8.1124   -0.4181   18.3718 H   0  0  0  0  0  0  0  0  0  0  0  0
    6.6465   -0.0062   19.8972 C   0  0  0  0  0  0  0  0  0  0  0  0
    7.4089   -0.7066   21.0097 C   0  0  0  0  0  0  0  0  0  0  0  0
    6.7081   -1.1294   21.7399 H   0  0  0  0  0  0  0  0  0  0  0  0
    7.9683   -1.5463   20.5827 H   0  0  0  0  0  0  0  0  0  0  0  0
    8.4344    0.2012   21.6902 C   0  0  0  0  0  0  0  0  0  0  0  0
    9.6629    0.8142   20.8030 S   0  0  0  0  0  0  0  0  0  0  0  0
    8.2836    0.5042   23.1402 C   0  0  0  0  0  0  0  0  0  0  0  0
    9.4389    0.6218   23.9376 C   0  0  0  0  0  0  0  0  0  0  0  0
   10.4134    0.4928   23.4739 H   0  0  0  0  0  0  0  0  0  0  0  0
    9.3327    0.8943   25.2985 C   0  0  0  0  0  0  0  0  0  0  0  0
   10.2327    0.9698   25.9016 H   0  0  0  0  0  0  0  0  0  0  0  0
    8.0789    1.0575   25.8888 C   0  0  0  0  0  0  0  0  0  0  0  0
    8.0091    1.2808   26.9504 H   0  0  0  0  0  0  0  0  0  0  0  0
    6.9038    0.9616   25.1184 C   0  0  0  0  0  0  0  0  0  0  0  0
    5.5636    1.1408   25.7503 C   0  0  0  0  0  0  0  0  0  0  0  0
    5.2831    0.5888   27.0144 C   0  0  0  0  0  0  0  0  0  0  0  0
    6.0535    0.0125   27.5230 H   0  0  0  0  0  0  0  0  0  0  0  0
    4.0289    0.7549   27.6056 C   0  0  0  0  0  0  0  0  0  0  0  0
    3.8359    0.3223   28.5848 H   0  0  0  0  0  0  0  0  0  0  0  0
    3.0343    1.4852   26.9434 C   0  0  0  0  0  0  0  0  0  0  0  0
    2.0600    1.6175   27.4045 H   0  0  0  0  0  0  0  0  0  0  0  0
    3.2998    2.0441   25.6868 C   0  0  0  0  0  0  0  0  0  0  0  0
    2.5317    2.6093   25.1646 H   0  0  0  0  0  0  0  0  0  0  0  0
    4.5533    1.8684   25.0944 C   0  0  0  0  0  0  0  0  0  0  0  0
    4.7720    2.3130   24.1253 H   0  0  0  0  0  0  0  0  0  0  0  0
    7.0255    0.6871   23.7448 C   0  0  0  0  0  0  0  0  0  0  0  0
    6.1135    0.6013   23.1564 H   0  0  0  0  0  0  0  0  0  0  0  0
    5.4400    0.6511   20.1488 C   0  0  0  0  0  0  0  0  0  0  0  0
    5.0092    0.6323   21.1527 H   0  0  0  0  0  0  0  0  0  0  0  0
    4.8016    1.3172   19.0989 C   0  0  0  0  0  0  0  0  0  0  0  0
    3.8676    1.8486   19.2550 H   0  0  0  0  0  0  0  0  0  0  0  0
  1  2  1  0
  2  3  2  0
  3  4  1  0
  4  5  1  0
  4  6  2  0
  6  7  1  0
  7  8  1  0
  7  9  1  0
  7 10  1  0
 10 11  2  0
 10 12  1  0
 12 13  2  0
 13 14  1  0
 13 15  1  0
 15 16  1  0
 15 17  2  0
 17 18  1  0
 17 19  1  0
 19 20  1  0
 20 21  2  0
 21 22  1  0
 21 23  1  0
 23 24  1  0
 23 25  2  0
 25 26  1  0
 25 27  1  0
 27 28  1  0
 27 29  2  0
 29 30  1  0
 19 31  2  0
 31 32  1  0
  6 33  1  0
 33 34  1  0
 33 35  2  0
 35 36  1  0
 35  2  1  0
 31 12  1  0
 29 20  1  0
M  END
>  <plip>  (1) 
-0.03571428571428571

>  <filename>  (1) 
[H][c]1[n][c]([H])[c]([C]([H])([H])[C](=[S])[c]2[c]([H])[c]([H])[c]([H])[c](-[c]3[c]([H])[c]([H])[c]([H])[c]([H])[c]3[H])[c]2[H])[c]([H])[c]1[H]

$$$$
