
     RDKit          3D

 40 42  0  0  0  0  0  0  0  0999 V2000
    5.3565    2.1889   16.7126 H   0  0  0  0  0  0  0  0  0  0  0  0
    5.7300    1.5377   17.5029 C   0  0  0  0  0  0  0  0  0  0  0  0
    6.9833    1.0868   17.3640 N   0  0  0  0  0  0  0  0  0  0  0  0
    7.4787    0.3171   18.3429 C   0  0  0  0  0  0  0  0  0  0  0  0
    8.5037   -0.0219   18.1969 H   0  0  0  0  0  0  0  0  0  0  0  0
    6.7594   -0.0791   19.4907 C   0  0  0  0  0  0  0  0  0  0  0  0
    7.3462   -0.9363   20.6369 C   0  0  0  0  0  0  0  0  0  0  0  0
    7.2254   -0.1644   21.9837 C   0  0  0  0  0  0  0  0  0  0  0  0
    7.8261   -0.6343   22.7716 H   0  0  0  0  0  0  0  0  0  0  0  0
    6.1915   -0.1004   22.3344 H   0  0  0  0  0  0  0  0  0  0  0  0
    7.6079    0.8560   21.8501 H   0  0  0  0  0  0  0  0  0  0  0  0
    8.8223   -1.3074   20.4380 C   0  0  0  0  0  0  0  0  0  0  0  0
    9.4462   -0.4237   20.6210 H   0  0  0  0  0  0  0  0  0  0  0  0
    9.1173   -2.0792   21.1529 H   0  0  0  0  0  0  0  0  0  0  0  0
    9.0611   -1.6433   19.4294 H   0  0  0  0  0  0  0  0  0  0  0  0
    6.2762   -2.5347   20.7838 S   0  0  0  0  0  0  0  0  0  0  0  0
    6.1339   -3.2769   19.5361 O   0  0  0  0  0  0  0  0  0  0  0  0
    5.0732   -2.0963   21.4815 O   0  0  0  0  0  0  0  0  0  0  0  0
    7.0845   -3.5061   22.1271 C   0  0  0  0  0  0  0  0  0  0  0  0
    7.8103   -4.5846   22.0748 N   0  0  0  0  0  0  0  0  0  0  0  0
    7.9219   -4.9816   23.4025 C   0  0  0  0  0  0  0  0  0  0  0  0
    8.6204   -6.0539   23.9558 C   0  0  0  0  0  0  0  0  0  0  0  0
    9.0861   -6.7559   23.2707 H   0  0  0  0  0  0  0  0  0  0  0  0
    8.6840   -6.1546   25.3512 C   0  0  0  0  0  0  0  0  0  0  0  0
    9.7726   -6.9887   25.9398 C   0  0  0  0  0  0  0  0  0  0  0  0
    9.8521   -8.1985   25.9895 O   0  0  0  0  0  0  0  0  0  0  0  0
   10.7899   -6.2182   26.4057 N   0  0  0  0  0  0  0  0  0  0  0  0
   11.5760   -6.8398   26.5388 H   0  0  0  0  0  0  0  0  0  0  0  0
   10.9550   -5.3276   25.9643 H   0  0  0  0  0  0  0  0  0  0  0  0
    7.9398   -5.2720   26.1861 C   0  0  0  0  0  0  0  0  0  0  0  0
    7.9603   -5.4019   27.2674 H   0  0  0  0  0  0  0  0  0  0  0  0
    7.2069   -4.2280   25.6377 C   0  0  0  0  0  0  0  0  0  0  0  0
    6.6664   -3.5162   26.2572 H   0  0  0  0  0  0  0  0  0  0  0  0
    7.2519   -4.0807   24.2491 C   0  0  0  0  0  0  0  0  0  0  0  0
    6.7586   -3.1204   23.4151 N   0  0  0  0  0  0  0  0  0  0  0  0
    6.0610   -2.4353   23.6768 H   0  0  0  0  0  0  0  0  0  0  0  0
    5.4330    0.3813   19.5880 C   0  0  0  0  0  0  0  0  0  0  0  0
    4.8204    0.0700   20.4342 H   0  0  0  0  0  0  0  0  0  0  0  0
    4.9131    1.2052   18.5873 C   0  0  0  0  0  0  0  0  0  0  0  0
    3.9052    1.6011   18.6510 H   0  0  0  0  0  0  0  0  0  0  0  0
  1  2  1  0
  2  3  2  0
  3  4  1  0
  4  5  1  0
  4  6  2  0
  6  7  1  0
  7  8  1  0
  8  9  1  0
  8 10  1  0
  8 11  1  0
  7 12  1  0
 12 13  1  0
 12 14  1  0
 12 15  1  0
  7 16  1  0
 16 17  2  0
 16 18  2  0
 16 19  1  0
 19 20  2  0
 20 21  1  0
 21 22  2  0
 22 23  1  0
 22 24  1  0
 24 25  1  0
 25 26  2  0
 25 27  1  0
 27 28  1  0
 27 29  1  0
 24 30  2  0
 30 31  1  0
 30 32  1  0
 32 33  1  0
 32 34  2  0
 34 35  1  0
 35 36  1  0
  6 37  1  0
 37 38  1  0
 37 39  2  0
 39 40  1  0
 39  2  1  0
 35 19  1  0
 34 21  1  0
M  END
>  <plip>  (1) 
-0.16666666666666666

>  <filename>  (1) 
[H][c]1[n][c]([H])[c]([C]([C]([H])([H])[H])([C]([H])([H])[H])[S](=[O])(=[O])[c]2[n][c]3[c]([H])[c]([C](=[O])[N]([H])[H])[c]([H])[c]([H])[c]3[n]2[H])[c]([H])[c]1[H]

$$$$
