
     RDKit          3D

 21 22  0  0  0  0  0  0  0  0999 V2000
    8.3186   -3.0618   22.5981 Br  0  0  0  0  0  0  0  0  0  0  0  0
    7.8210   -1.2879   23.1438 C   0  0  0  0  0  0  0  0  0  0  0  0
    7.9024   -0.9546   24.4939 C   0  0  0  0  0  0  0  0  0  0  0  0
    7.5539    0.3335   24.8782 C   0  0  0  0  0  0  0  0  0  0  0  0
    7.6594    0.9196   27.0491 I   0  0  0  0  0  0  0  0  0  0  0  0
    7.1379    1.2444   23.8961 C   0  0  0  0  0  0  0  0  0  0  0  0
    7.0468    0.9295   22.5896 N   0  0  0  0  0  0  0  0  0  0  0  0
    7.3781   -0.3238   22.2121 C   0  0  0  0  0  0  0  0  0  0  0  0
    7.3781   -0.7027   20.8855 O   0  0  0  0  0  0  0  0  0  0  0  0
    6.6849    0.0128   19.9257 C   0  0  0  0  0  0  0  0  0  0  0  0
    5.4631    0.6543   20.1766 C   0  0  0  0  0  0  0  0  0  0  0  0
    4.8235    1.3080   19.1124 C   0  0  0  0  0  0  0  0  0  0  0  0
    5.3984    1.2970   17.8328 C   0  0  0  0  0  0  0  0  0  0  0  0
    6.5645    0.6762   17.5783 N   0  0  0  0  0  0  0  0  0  0  0  0
    7.1817    0.0569   18.6034 C   0  0  0  0  0  0  0  0  0  0  0  0
    8.1234   -0.4415   18.3988 H   0  0  0  0  0  0  0  0  0  0  0  0
    4.8874    1.7921   17.0128 H   0  0  0  0  0  0  0  0  0  0  0  0
    3.8830    1.8319   19.2622 H   0  0  0  0  0  0  0  0  0  0  0  0
    5.0185    0.6293   21.1720 H   0  0  0  0  0  0  0  0  0  0  0  0
    6.8777    2.2466   24.2229 H   0  0  0  0  0  0  0  0  0  0  0  0
    8.2314   -1.6810   25.2367 H   0  0  0  0  0  0  0  0  0  0  0  0
  1  2  1  0
  2  3  2  0
  3  4  1  0
  4  5  1  0
  4  6  2  0
  6  7  1  0
  7  8  2  0
  8  9  1  0
  9 10  1  0
 10 11  2  0
 11 12  1  0
 12 13  2  0
 13 14  1  0
 14 15  2  0
 15 16  1  0
 13 17  1  0
 12 18  1  0
 11 19  1  0
  6 20  1  0
  3 21  1  0
  8  2  1  0
 15 10  1  0
M  END
>  <plip>  (1) 
-0.03571428571428571

>  <filename>  (1) 
[H][c]1[n][c]([H])[c]([O][c]2[n][c]([H])[c]([I])[c]([H])[c]2[Br])[c]([H])[c]1[H]

$$$$
