
     RDKit          3D

 42 42  0  0  0  0  0  0  0  0999 V2000
    8.7155   -5.8472   24.5532 C   0  0  0  0  0  0  0  0  0  0  0  0
    8.7408   -5.3766   23.2262 O   0  0  0  0  0  0  0  0  0  0  0  0
    8.1678   -6.2191   22.2257 C   0  0  0  0  0  0  0  0  0  0  0  0
    6.7067   -5.9374   21.8694 C   0  0  0  0  0  0  0  0  0  0  0  0
    6.5512   -4.5689   21.1935 C   0  0  0  0  0  0  0  0  0  0  0  0
    6.4863   -4.5780   20.8250 C   0  0  0  0  0  0  0  0  0  0  0  0
    6.2863   -5.2865   19.5221 H   0  0  0  0  0  0  0  0  0  0  0  0
    7.6452   -4.3396   20.6864 H   0  0  0  0  0  0  0  0  0  0  0  0
    6.4353   -3.7780   19.8447 H   0  0  0  0  0  0  0  0  0  0  0  0
    7.3422   -2.5929   22.8239 S   0  0  0  0  0  0  0  0  0  0  0  0
    8.7580   -2.3277   23.0166 O   0  0  0  0  0  0  0  0  0  0  0  0
    6.3504   -2.6483   23.8892 O   0  0  0  0  0  0  0  0  0  0  0  0
    6.6493   -1.5185   21.7813 N   0  0  0  0  0  0  0  0  0  0  0  0
    7.4805   -0.5750   21.0223 C   0  0  2  0  0  0  0  0  0  0  0  0
    8.2975    0.4675   21.8259 C   0  0  0  0  0  0  0  0  0  0  0  0
    7.4849    1.4455   22.4418 O   0  0  0  0  0  0  0  0  0  0  0  0
    8.2136    2.3504   23.2366 C   0  0  0  0  0  0  0  0  0  0  0  0
    8.9413    2.9294   22.6449 H   0  0  0  0  0  0  0  0  0  0  0  0
    7.4861    3.0371   23.6744 H   0  0  0  0  0  0  0  0  0  0  0  0
    8.7526    1.8363   24.0495 H   0  0  0  0  0  0  0  0  0  0  0  0
    8.9908    0.9363   21.1086 H   0  0  0  0  0  0  0  0  0  0  0  0
    8.8913   -0.0855   22.5657 H   0  0  0  0  0  0  0  0  0  0  0  0
    6.6437    0.0457   19.9289 C   0  0  0  0  0  0  0  0  0  0  0  0
    5.4158    0.6847   20.1513 C   0  0  0  0  0  0  0  0  0  0  0  0
    4.7893    1.3104   19.0717 C   0  0  0  0  0  0  0  0  0  0  0  0
    5.4028    1.2740   17.8142 C   0  0  0  0  0  0  0  0  0  0  0  0
    6.5543    0.6307   17.5769 N   0  0  0  0  0  0  0  0  0  0  0  0
    7.1395    0.0304   18.6197 C   0  0  0  0  0  0  0  0  0  0  0  0
    8.0691   -0.4929   18.3937 H   0  0  0  0  0  0  0  0  0  0  0  0
    4.9503    1.7791   16.9618 H   0  0  0  0  0  0  0  0  0  0  0  0
    3.8491    1.8359   19.1958 H   0  0  0  0  0  0  0  0  0  0  0  0
    4.9630    0.7103   21.1460 H   0  0  0  0  0  0  0  0  0  0  0  0
    8.2343   -1.2062   20.5376 H   0  0  0  0  0  0  0  0  0  0  0  0
    5.9227   -1.1611   22.3965 H   0  0  0  0  0  0  0  0  0  0  0  0
    5.3414   -4.3767   21.1554 H   0  0  0  0  0  0  0  0  0  0  0  0
    6.1788   -5.9371   22.8433 H   0  0  0  0  0  0  0  0  0  0  0  0
    6.3501   -6.9095   21.4159 H   0  0  0  0  0  0  0  0  0  0  0  0
    8.2815   -7.2766   22.5206 H   0  0  0  0  0  0  0  0  0  0  0  0
    8.8258   -6.0777   21.3649 H   0  0  0  0  0  0  0  0  0  0  0  0
    7.6985   -6.0947   24.8946 H   0  0  0  0  0  0  0  0  0  0  0  0
    9.1214   -5.0530   25.1905 H   0  0  0  0  0  0  0  0  0  0  0  0
    9.3602   -6.7277   24.6937 H   0  0  0  0  0  0  0  0  0  0  0  0
  1  2  1  0
  2  3  1  0
  3  4  1  0
  4  5  1  0
  5  6  1  0
  6  7  1  0
  6  8  1  0
  6  9  1  0
  5 10  1  0
 10 11  2  0
 10 12  2  0
 10 13  1  0
 13 14  1  0
 14 15  1  0
 15 16  1  0
 16 17  1  0
 17 18  1  0
 17 19  1  0
 17 20  1  0
 15 21  1  0
 15 22  1  0
 14 23  1  0
 23 24  2  0
 24 25  1  0
 25 26  2  0
 26 27  1  0
 27 28  2  0
 28 29  1  0
 26 30  1  0
 25 31  1  0
 24 32  1  0
 14 33  1  6
 13 34  1  0
  5 35  1  0
  4 36  1  0
  4 37  1  0
  3 38  1  0
  3 39  1  0
  1 40  1  0
  1 41  1  0
  1 42  1  0
 28 23  1  0
M  END
>  <plip>  (1) 
-0.06666666666666667

>  <filename>  (1) 
[H][c]1[n][c]([H])[c]([C@]([H])([N]([H])[S](=[O])(=[O])[C]([H])([C]([H])([H])[H])[C]([H])([H])[C]([H])([H])[O][C]([H])([H])[H])[C]([H])([H])[O][C]([H])([H])[H])[c]([H])[c]1[H]

$$$$
