
     RDKit          3D

 41 44  0  0  0  0  0  0  0  0999 V2000
    5.0342    1.7057   16.9700 H   0  0  0  0  0  0  0  0  0  0  0  0
    5.4839    1.2469   17.8484 C   0  0  0  0  0  0  0  0  0  0  0  0
    6.6740    0.6493   17.6617 N   0  0  0  0  0  0  0  0  0  0  0  0
    7.2696    0.0946   18.7274 C   0  0  0  0  0  0  0  0  0  0  0  0
    8.2251   -0.4066   18.5759 H   0  0  0  0  0  0  0  0  0  0  0  0
    6.6933    0.1085   20.0076 C   0  0  0  0  0  0  0  0  0  0  0  0
    7.4056   -0.4271   21.0842 O   0  0  0  0  0  0  0  0  0  0  0  0
    6.8820   -1.4824   21.7906 C   0  0  0  0  0  0  0  0  0  0  0  0
    5.9393   -2.1323   21.4206 O   0  0  0  0  0  0  0  0  0  0  0  0
    7.7262   -1.7390   23.0339 C   0  0  0  0  0  0  0  0  0  0  0  0
    7.7423   -0.6377   24.0692 C   0  0  0  0  0  0  0  0  0  0  0  0
    6.8987   -0.7017   25.1883 C   0  0  0  0  0  0  0  0  0  0  0  0
    6.1853   -1.5185   25.2495 H   0  0  0  0  0  0  0  0  0  0  0  0
    7.0226    0.2332   26.2205 C   0  0  0  0  0  0  0  0  0  0  0  0
    6.4044    0.1390   27.1089 H   0  0  0  0  0  0  0  0  0  0  0  0
    7.9533    1.2728   26.1232 C   0  0  0  0  0  0  0  0  0  0  0  0
    8.0703    1.9830   26.9408 H   0  0  0  0  0  0  0  0  0  0  0  0
    8.7603    1.4066   24.9772 C   0  0  0  0  0  0  0  0  0  0  0  0
    9.7341    2.5368   24.8220 C   0  0  0  0  0  0  0  0  0  0  0  0
   11.0084    2.2816   24.2815 C   0  0  0  0  0  0  0  0  0  0  0  0
   11.2767    1.2559   24.0361 H   0  0  0  0  0  0  0  0  0  0  0  0
   11.9199    3.3110   24.0399 C   0  0  0  0  0  0  0  0  0  0  0  0
   12.8891    3.0679   23.6098 H   0  0  0  0  0  0  0  0  0  0  0  0
   11.5734    4.6364   24.3281 C   0  0  0  0  0  0  0  0  0  0  0  0
   12.2647    5.4428   24.0912 H   0  0  0  0  0  0  0  0  0  0  0  0
   10.3185    4.9103   24.8891 C   0  0  0  0  0  0  0  0  0  0  0  0
   10.0495    5.9342   25.1345 H   0  0  0  0  0  0  0  0  0  0  0  0
    9.4049    3.8744   25.1312 C   0  0  0  0  0  0  0  0  0  0  0  0
    8.4206    4.1026   25.5384 H   0  0  0  0  0  0  0  0  0  0  0  0
    8.6356    0.4335   23.9619 C   0  0  0  0  0  0  0  0  0  0  0  0
    9.2447    0.5025   23.0620 H   0  0  0  0  0  0  0  0  0  0  0  0
    9.0123   -2.5327   22.8190 C   0  0  0  0  0  0  0  0  0  0  0  0
    9.2645   -2.8350   21.8052 H   0  0  0  0  0  0  0  0  0  0  0  0
    9.8728   -2.2450   23.4266 H   0  0  0  0  0  0  0  0  0  0  0  0
    7.8415   -3.1724   23.5046 C   0  0  0  0  0  0  0  0  0  0  0  0
    7.2666   -3.9217   22.9653 H   0  0  0  0  0  0  0  0  0  0  0  0
    7.9146   -3.3493   24.5781 H   0  0  0  0  0  0  0  0  0  0  0  0
    5.4492    0.7089   20.2023 C   0  0  0  0  0  0  0  0  0  0  0  0
    4.9983    0.7001   21.1942 H   0  0  0  0  0  0  0  0  0  0  0  0
    4.8405    1.3045   19.0914 C   0  0  0  0  0  0  0  0  0  0  0  0
    3.8856    1.8135   19.1782 H   0  0  0  0  0  0  0  0  0  0  0  0
  1  2  1  0
  2  3  2  0
  3  4  1  0
  4  5  1  0
  4  6  2  0
  6  7  1  0
  7  8  1  0
  8  9  2  0
  8 10  1  0
 10 11  1  0
 11 12  2  0
 12 13  1  0
 12 14  1  0
 14 15  1  0
 14 16  2  0
 16 17  1  0
 16 18  1  0
 18 19  1  0
 19 20  2  0
 20 21  1  0
 20 22  1  0
 22 23  1  0
 22 24  2  0
 24 25  1  0
 24 26  1  0
 26 27  1  0
 26 28  2  0
 28 29  1  0
 18 30  2  0
 30 31  1  0
 10 32  1  0
 32 33  1  0
 32 34  1  0
 32 35  1  0
 35 36  1  0
 35 37  1  0
  6 38  1  0
 38 39  1  0
 38 40  2  0
 40 41  1  0
 40  2  1  0
 35 10  1  0
 30 11  1  0
 28 19  1  0
M  END
>  <plip>  (1) 
-0.10714285714285714

>  <filename>  (1) 
[H][c]1[n][c]([H])[c]([O][C](=[O])[C]2([c]3[c]([H])[c]([H])[c]([H])[c](-[c]4[c]([H])[c]([H])[c]([H])[c]([H])[c]4[H])[c]3[H])[C]([H])([H])[C]2([H])[H])[c]([H])[c]1[H]

$$$$
