
     RDKit          3D

 17 17  0  0  0  0  0  0  0  0999 V2000
    5.0154    1.8011   16.9808 H   0  0  0  0  0  0  0  0  0  0  0  0
    5.4538    1.2821   17.8317 C   0  0  0  0  0  0  0  0  0  0  0  0
    6.6202    0.6523   17.6090 N   0  0  0  0  0  0  0  0  0  0  0  0
    7.2115    0.0449   18.6558 C   0  0  0  0  0  0  0  0  0  0  0  0
    8.1721   -0.4242   18.4618 H   0  0  0  0  0  0  0  0  0  0  0  0
    6.6406    0.0113   19.9543 C   0  0  0  0  0  0  0  0  0  0  0  0
    7.2658   -0.5044   21.1300 N   0  0  0  0  0  0  0  0  0  0  0  0
    6.6557   -1.1636   21.6226 H   0  0  0  0  0  0  0  0  0  0  0  0
    8.4871   -1.1443   20.8602 O   0  0  0  0  0  0  0  0  0  0  0  0
    9.5478   -0.3182   21.2537 C   0  0  0  0  0  0  0  0  0  0  0  0
    9.4153    0.0467   22.2786 H   0  0  0  0  0  0  0  0  0  0  0  0
    9.6479    0.7268   20.4049 F   0  0  0  0  0  0  0  0  0  0  0  0
   10.6504   -1.0534   21.1342 F   0  0  0  0  0  0  0  0  0  0  0  0
    5.4035    0.6299   20.1470 C   0  0  0  0  0  0  0  0  0  0  0  0
    4.9876    0.6455   21.1608 H   0  0  0  0  0  0  0  0  0  0  0  0
    4.8016    1.2899   19.0758 C   0  0  0  0  0  0  0  0  0  0  0  0
    3.8691    1.8339   19.1983 H   0  0  0  0  0  0  0  0  0  0  0  0
  1  2  1  0
  2  3  2  0
  3  4  1  0
  4  5  1  0
  4  6  2  0
  6  7  1  0
  7  8  1  0
  7  9  1  0
  9 10  1  0
 10 11  1  0
 10 12  1  0
 10 13  1  0
  6 14  1  0
 14 15  1  0
 14 16  2  0
 16 17  1  0
 16  2  1  0
M  END
>  <plip>  (1) 
-0.034482758620689655

>  <filename>  (1) 
[H][c]1[n][c]([H])[c]([N]([H])[O][C]([H])([F])[F])[c]([H])[c]1[H]

$$$$
