
     RDKit          3D

 31 33  0  0  0  0  0  0  0  0999 V2000
    9.1319   -1.1619   20.5452 H   0  0  0  0  0  0  0  0  0  0  0  0
    8.2795   -1.6296   20.5632 O   0  0  0  0  0  0  0  0  0  0  0  0
    7.3446   -0.6673   20.9290 N   0  0  0  0  0  0  0  0  0  0  0  0
    6.6640   -0.0138   19.9168 C   0  0  0  0  0  0  0  0  0  0  0  0
    7.1756    0.0456   18.5966 C   0  0  0  0  0  0  0  0  0  0  0  0
    8.1219   -0.4363   18.3634 H   0  0  0  0  0  0  0  0  0  0  0  0
    6.5715    0.6733   17.5837 N   0  0  0  0  0  0  0  0  0  0  0  0
    5.4034    1.2896   17.8423 C   0  0  0  0  0  0  0  0  0  0  0  0
    4.9194    1.7796   16.9996 H   0  0  0  0  0  0  0  0  0  0  0  0
    4.8148    1.3041   19.1099 C   0  0  0  0  0  0  0  0  0  0  0  0
    3.8825    1.8368   19.2616 H   0  0  0  0  0  0  0  0  0  0  0  0
    5.4448    0.6497   20.1728 C   0  0  0  0  0  0  0  0  0  0  0  0
    5.0191    0.6434   21.1770 H   0  0  0  0  0  0  0  0  0  0  0  0
    7.0613   -0.5156   22.3139 C   0  0  1  0  0  0  0  0  0  0  0  0
    6.1997   -1.0782   22.6646 H   0  0  0  0  0  0  0  0  0  0  0  0
    8.2076   -0.3155   23.2568 C   0  0  0  0  0  0  0  0  0  0  0  0
    8.1377   -0.7355   24.2528 H   0  0  0  0  0  0  0  0  0  0  0  0
    9.2000   -0.3427   22.8222 H   0  0  0  0  0  0  0  0  0  0  0  0
    7.3105    0.8444   22.9356 C   0  0  2  0  0  0  0  0  0  0  0  0
    7.7222    1.5633   22.2321 H   0  0  0  0  0  0  0  0  0  0  0  0
    6.3759    1.4115   23.9446 C   0  0  0  0  0  0  0  0  0  0  0  0
    6.1376    2.7937   23.9669 C   0  0  0  0  0  0  0  0  0  0  0  0
    6.6301    3.4334   23.2347 H   0  0  0  0  0  0  0  0  0  0  0  0
    5.2791    3.3526   24.9175 C   0  0  0  0  0  0  0  0  0  0  0  0
    5.1038    4.4250   24.9162 H   0  0  0  0  0  0  0  0  0  0  0  0
    4.6486    2.5352   25.8618 C   0  0  0  0  0  0  0  0  0  0  0  0
    3.9802    2.9685   26.6007 H   0  0  0  0  0  0  0  0  0  0  0  0
    4.8838    1.1564   25.8496 C   0  0  0  0  0  0  0  0  0  0  0  0
    4.4022    0.5117   26.5793 H   0  0  0  0  0  0  0  0  0  0  0  0
    5.7400    0.5992   24.9005 C   0  0  0  0  0  0  0  0  0  0  0  0
    5.9155   -0.4742   24.9128 H   0  0  0  0  0  0  0  0  0  0  0  0
  1  2  1  0
  2  3  1  0
  3  4  1  0
  4  5  2  0
  5  6  1  0
  5  7  1  0
  7  8  2  0
  8  9  1  0
  8 10  1  0
 10 11  1  0
 10 12  2  0
 12 13  1  0
  3 14  1  0
 14 15  1  1
 14 16  1  0
 16 17  1  0
 16 18  1  0
 16 19  1  0
 19 20  1  6
 19 21  1  0
 21 22  2  0
 22 23  1  0
 22 24  1  0
 24 25  1  0
 24 26  2  0
 26 27  1  0
 26 28  1  0
 28 29  1  0
 28 30  2  0
 30 31  1  0
 12  4  1  0
 19 14  1  0
 30 21  1  0
M  END
>  <plip>  (1) 
-0.03333333333333333

>  <filename>  (1) 
[H][O][N]([c]1[c]([H])[n][c]([H])[c]([H])[c]1[H])[C@@]1([H])[C]([H])([H])[C@]1([H])[c]1[c]([H])[c]([H])[c]([H])[c]([H])[c]1[H]

$$$$
