
     RDKit          3D

 32 34  0  0  0  0  0  0  0  0999 V2000
    7.6191    1.8042   23.6469 Cl  0  0  0  0  0  0  0  0  0  0  0  0
    9.0732    2.0816   22.7116 C   0  0  0  0  0  0  0  0  0  0  0  0
    9.8779    3.1767   23.0299 C   0  0  0  0  0  0  0  0  0  0  0  0
   11.0603    3.3753   22.3142 C   0  0  0  0  0  0  0  0  0  0  0  0
   12.2081    4.8580   22.6956 Br  0  0  0  0  0  0  0  0  0  0  0  0
   11.3698    2.5044   21.2659 C   0  0  0  0  0  0  0  0  0  0  0  0
   10.6215    1.4281   20.9885 N   0  0  0  0  0  0  0  0  0  0  0  0
    9.5075    1.2020   21.7020 C   0  0  0  0  0  0  0  0  0  0  0  0
    8.8506    0.0118   21.4110 N   0  0  0  0  0  0  0  0  0  0  0  0
    9.6062   -1.2361   21.3076 C   0  0  0  0  0  0  0  0  0  0  0  0
    8.5988   -2.2980   21.7126 C   0  0  0  0  0  0  0  0  0  0  0  0
    7.2563   -1.6989   21.3125 C   0  0  0  0  0  0  0  0  0  0  0  0
    7.3948   -0.1792   21.4605 C   0  0  0  0  0  0  0  0  0  0  0  0
    6.7539    0.4571   20.2558 C   0  0  0  0  0  0  0  0  0  0  0  0
    5.4732    1.0239   20.2742 C   0  0  0  0  0  0  0  0  0  0  0  0
    4.9667    1.4953   19.0620 C   0  0  0  0  0  0  0  0  0  0  0  0
    5.7191    1.3673   17.8878 C   0  0  0  0  0  0  0  0  0  0  0  0
    6.9413    0.8117   17.8720 N   0  0  0  0  0  0  0  0  0  0  0  0
    7.4462    0.3779   19.0400 C   0  0  0  0  0  0  0  0  0  0  0  0
    8.4220   -0.0981   19.0360 H   0  0  0  0  0  0  0  0  0  0  0  0
    5.3020    1.7300   16.9545 H   0  0  0  0  0  0  0  0  0  0  0  0
    3.9861    1.9518   19.0025 H   0  0  0  0  0  0  0  0  0  0  0  0
    4.8748    1.0836   21.1839 H   0  0  0  0  0  0  0  0  0  0  0  0
    6.9634    0.1605   22.4081 H   0  0  0  0  0  0  0  0  0  0  0  0
    7.0798   -1.9478   20.2621 H   0  0  0  0  0  0  0  0  0  0  0  0
    6.4290   -2.0948   21.9076 H   0  0  0  0  0  0  0  0  0  0  0  0
    8.6302   -2.4788   22.7928 H   0  0  0  0  0  0  0  0  0  0  0  0
    8.7911   -3.2423   21.1973 H   0  0  0  0  0  0  0  0  0  0  0  0
   10.4868   -1.2599   21.9590 H   0  0  0  0  0  0  0  0  0  0  0  0
    9.9276   -1.3854   20.2778 H   0  0  0  0  0  0  0  0  0  0  0  0
   12.2419    2.7134   20.6476 H   0  0  0  0  0  0  0  0  0  0  0  0
    9.5951    3.8518   23.8308 H   0  0  0  0  0  0  0  0  0  0  0  0
  1  2  1  0
  2  3  2  0
  3  4  1  0
  4  5  1  0
  4  6  2  0
  6  7  1  0
  7  8  2  0
  8  9  1  0
  9 10  1  0
 10 11  1  0
 11 12  1  0
 12 13  1  0
 13 14  1  0
 14 15  2  0
 15 16  1  0
 16 17  2  0
 17 18  1  0
 18 19  2  0
 19 20  1  0
 17 21  1  0
 16 22  1  0
 15 23  1  0
 13 24  1  0
 12 25  1  0
 12 26  1  0
 11 27  1  0
 11 28  1  0
 10 29  1  0
 10 30  1  0
  6 31  1  0
  3 32  1  0
  8  2  1  0
 13  9  1  0
 19 14  1  0
M  END
>  <plip>  (1) 
-0.03571428571428571

>  <filename>  (1) 
[H][c]1[n][c]([H])[c]([C]2([H])[N]([c]3[n][c]([H])[c]([Br])[c]([H])[c]3[Cl])[C]([H])([H])[C]([H])([H])[C]2([H])[H])[c]([H])[c]1[H]

$$$$
