
     RDKit          3D

 39 41  0  0  0  0  0  0  0  0999 V2000
    4.9109    1.8092   16.9720 H   0  0  0  0  0  0  0  0  0  0  0  0
    5.3846    1.3073   17.8130 C   0  0  0  0  0  0  0  0  0  0  0  0
    6.5460    0.6896   17.5455 N   0  0  0  0  0  0  0  0  0  0  0  0
    7.1655    0.0800   18.5635 C   0  0  0  0  0  0  0  0  0  0  0  0
    8.1043   -0.4167   18.3168 H   0  0  0  0  0  0  0  0  0  0  0  0
    6.6681    0.0286   19.8783 C   0  0  0  0  0  0  0  0  0  0  0  0
    7.3996   -0.6864   20.9595 C   0  0  0  0  0  0  0  0  0  0  0  0
    6.7101   -1.5425   21.8601 C   0  0  0  0  0  0  0  0  0  0  0  0
    5.6402   -1.6674   21.7101 H   0  0  0  0  0  0  0  0  0  0  0  0
    7.3286   -2.2271   22.8777 C   0  0  0  0  0  0  0  0  0  0  0  0
    6.5215   -3.1160   23.7947 C   0  0  0  0  0  0  0  0  0  0  0  0
    5.4892   -3.0230   23.4258 H   0  0  0  0  0  0  0  0  0  0  0  0
    6.8841   -4.6264   23.6642 C   0  0  0  0  0  0  0  0  0  0  0  0
    5.9570   -5.2143   23.7250 H   0  0  0  0  0  0  0  0  0  0  0  0
    7.3077   -4.8169   22.6716 H   0  0  0  0  0  0  0  0  0  0  0  0
    7.8495   -5.1591   24.7447 C   0  0  0  0  0  0  0  0  0  0  0  0
    8.8678   -4.7934   24.5599 H   0  0  0  0  0  0  0  0  0  0  0  0
    7.8769   -6.2553   24.7090 H   0  0  0  0  0  0  0  0  0  0  0  0
    7.4690   -4.7687   26.1010 N   0  0  0  0  0  0  0  0  0  0  0  0
    6.2521   -5.4065   26.5879 C   0  0  0  0  0  0  0  0  0  0  0  0
    6.0976   -5.1300   27.6386 H   0  0  0  0  0  0  0  0  0  0  0  0
    6.3720   -6.4963   26.5400 H   0  0  0  0  0  0  0  0  0  0  0  0
    5.3335   -5.1418   26.0303 H   0  0  0  0  0  0  0  0  0  0  0  0
    7.4740   -3.3121   26.2256 C   0  0  0  0  0  0  0  0  0  0  0  0
    7.2207   -3.0642   27.2651 H   0  0  0  0  0  0  0  0  0  0  0  0
    8.4965   -2.9610   26.0355 H   0  0  0  0  0  0  0  0  0  0  0  0
    6.4821   -2.6151   25.2702 C   0  0  0  0  0  0  0  0  0  0  0  0
    5.4694   -2.7785   25.6656 H   0  0  0  0  0  0  0  0  0  0  0  0
    6.6527   -1.5327   25.2937 H   0  0  0  0  0  0  0  0  0  0  0  0
    8.7723   -2.0673   23.0520 C   0  0  0  0  0  0  0  0  0  0  0  0
    9.5263   -2.5726   23.8750 O   0  0  0  0  0  0  0  0  0  0  0  0
    9.3751   -1.2109   22.1325 N   0  0  0  0  0  0  0  0  0  0  0  0
   10.3602   -1.1934   22.3477 H   0  0  0  0  0  0  0  0  0  0  0  0
    8.7478   -0.5426   21.1217 C   0  0  0  0  0  0  0  0  0  0  0  0
    9.3420    0.1029   20.4833 H   0  0  0  0  0  0  0  0  0  0  0  0
    5.4428    0.6623   20.1291 C   0  0  0  0  0  0  0  0  0  0  0  0
    5.0243    0.6378   21.1368 H   0  0  0  0  0  0  0  0  0  0  0  0
    4.7968    1.3230   19.0834 C   0  0  0  0  0  0  0  0  0  0  0  0
    3.8624    1.8494   19.2365 H   0  0  0  0  0  0  0  0  0  0  0  0
  1  2  1  0
  2  3  2  0
  3  4  1  0
  4  5  1  0
  4  6  2  0
  6  7  1  0
  7  8  1  0
  8  9  1  0
  8 10  2  0
 10 11  1  0
 11 12  1  0
 11 13  1  0
 13 14  1  0
 13 15  1  0
 13 16  1  0
 16 17  1  0
 16 18  1  0
 16 19  1  0
 19 20  1  0
 20 21  1  0
 20 22  1  0
 20 23  1  0
 19 24  1  0
 24 25  1  0
 24 26  1  0
 24 27  1  0
 27 28  1  0
 27 29  1  0
 10 30  1  0
 30 31  2  0
 30 32  1  0
 32 33  1  0
 32 34  1  0
 34 35  1  0
  6 36  1  0
 36 37  1  0
 36 38  2  0
 38 39  1  0
 38  2  1  0
 34  7  2  0
 27 11  1  0
M  END
>  <plip>  (1) 
-0.03571428571428571

>  <filename>  (1) 
[H][c]1[n][c]([H])[c](-[c]2[c]([H])[c]([C]3([H])[C]([H])([H])[C]([H])([H])[N]([C]([H])([H])[H])[C]([H])([H])[C]3([H])[H])[c](=[O])[n]([H])[c]2[H])[c]([H])[c]1[H]

$$$$
