
     RDKit          3D

 41 43  0  0  0  0  0  0  0  0999 V2000
    9.0867   -1.7679   25.0894 C   0  0  0  0  0  0  0  0  0  0  0  0
    7.7533   -1.8844   24.3166 C   0  0  0  0  0  0  0  0  0  0  0  0
    7.1568   -3.3024   24.4209 C   0  0  0  0  0  0  0  0  0  0  0  0
    7.6319   -4.1936   23.7304 O   0  0  0  0  0  0  0  0  0  0  0  0
    6.1277   -3.5449   25.3153 N   0  0  0  0  0  0  0  0  0  0  0  0
    5.1382   -4.6006   24.9901 C   0  0  0  0  0  0  0  0  0  0  0  0
    4.4867   -5.1911   26.2453 C   0  0  0  0  0  0  0  0  0  0  0  0
    3.9682   -4.1852   27.0991 O   0  0  0  0  0  0  0  0  0  0  0  0
    5.0231   -3.3529   27.5483 C   0  0  0  0  0  0  0  0  0  0  0  0
    5.7222   -2.6184   26.3896 C   0  0  0  0  0  0  0  0  0  0  0  0
    5.0329   -1.8485   26.0142 H   0  0  0  0  0  0  0  0  0  0  0  0
    6.6022   -2.1158   26.8035 H   0  0  0  0  0  0  0  0  0  0  0  0
    5.7495   -3.9572   28.1112 H   0  0  0  0  0  0  0  0  0  0  0  0
    4.5854   -2.6299   28.2414 H   0  0  0  0  0  0  0  0  0  0  0  0
    3.6478   -5.8372   25.9687 H   0  0  0  0  0  0  0  0  0  0  0  0
    5.2122   -5.8056   26.7990 H   0  0  0  0  0  0  0  0  0  0  0  0
    4.3384   -4.1963   24.3509 H   0  0  0  0  0  0  0  0  0  0  0  0
    5.6384   -5.3996   24.4362 H   0  0  0  0  0  0  0  0  0  0  0  0
    7.8393   -1.5282   22.8582 C   0  0  0  0  0  0  0  0  0  0  0  0
    6.9292   -0.8147   22.2352 N   0  0  0  0  0  0  0  0  0  0  0  0
    7.3987   -0.7176   20.9656 C   0  0  0  0  0  0  0  0  0  0  0  0
    6.6663    0.0024   19.9178 C   0  0  0  0  0  0  0  0  0  0  0  0
    5.4406    0.6494   20.1701 C   0  0  0  0  0  0  0  0  0  0  0  0
    4.8115    1.3045   19.1143 C   0  0  0  0  0  0  0  0  0  0  0  0
    5.4097    1.2845   17.8491 C   0  0  0  0  0  0  0  0  0  0  0  0
    6.5739    0.6669   17.5969 N   0  0  0  0  0  0  0  0  0  0  0  0
    7.1829    0.0514   18.6147 C   0  0  0  0  0  0  0  0  0  0  0  0
    8.1282   -0.4321   18.3776 H   0  0  0  0  0  0  0  0  0  0  0  0
    4.9271    1.7732   17.0035 H   0  0  0  0  0  0  0  0  0  0  0  0
    3.8791    1.8392   19.2599 H   0  0  0  0  0  0  0  0  0  0  0  0
    5.0023    0.6331   21.1729 H   0  0  0  0  0  0  0  0  0  0  0  0
    8.5550   -1.3372   20.7761 N   0  0  0  0  0  0  0  0  0  0  0  0
    8.8255   -1.8477   21.9979 N   0  0  0  0  0  0  0  0  0  0  0  0
   10.0573   -2.5750   22.2101 C   0  0  0  0  0  0  0  0  0  0  0  0
    9.8505   -3.5173   22.7176 H   0  0  0  0  0  0  0  0  0  0  0  0
   10.7821   -1.9934   22.7829 H   0  0  0  0  0  0  0  0  0  0  0  0
   10.4759   -2.7350   21.2255 H   0  0  0  0  0  0  0  0  0  0  0  0
    7.0388   -1.1604   24.7209 H   0  0  0  0  0  0  0  0  0  0  0  0
    9.7601   -2.6093   24.8880 H   0  0  0  0  0  0  0  0  0  0  0  0
    9.6091   -0.8417   24.8268 H   0  0  0  0  0  0  0  0  0  0  0  0
    8.9021   -1.7456   26.1689 H   0  0  0  0  0  0  0  0  0  0  0  0
  1  2  1  0
  2  3  1  0
  3  4  2  0
  3  5  1  0
  5  6  1  0
  6  7  1  0
  7  8  1  0
  8  9  1  0
  9 10  1  0
 10 11  1  0
 10 12  1  0
  9 13  1  0
  9 14  1  0
  7 15  1  0
  7 16  1  0
  6 17  1  0
  6 18  1  0
  2 19  1  0
 19 20  2  0
 20 21  1  0
 21 22  1  0
 22 23  2  0
 23 24  1  0
 24 25  2  0
 25 26  1  0
 26 27  2  0
 27 28  1  0
 25 29  1  0
 24 30  1  0
 23 31  1  0
 21 32  2  0
 32 33  1  0
 33 34  1  0
 34 35  1  0
 34 36  1  0
 34 37  1  0
  2 38  1  0
  1 39  1  0
  1 40  1  0
  1 41  1  0
 10  5  1  0
 33 19  1  0
 27 22  1  0
M  END
>  <plip>  (1) 
-0.03333333333333333

>  <filename>  (1) 
[H][c]1[n][c]([H])[c](-[c]2[n][c]([C]([H])([C](=[O])[N]3[C]([H])([H])[C]([H])([H])[O][C]([H])([H])[C]3([H])[H])[C]([H])([H])[H])[n]([C]([H])([H])[H])[n]2)[c]([H])[c]1[H]

$$$$
