
     RDKit          3D

 25 27  0  0  0  0  0  0  0  0999 V2000
    4.9172    1.7768   16.9990 H   0  0  0  0  0  0  0  0  0  0  0  0
    5.4057    1.2891   17.8420 C   0  0  0  0  0  0  0  0  0  0  0  0
    6.5711    0.6708   17.5948 N   0  0  0  0  0  0  0  0  0  0  0  0
    7.1773    0.0554   18.6175 C   0  0  0  0  0  0  0  0  0  0  0  0
    8.1224   -0.4289   18.3785 H   0  0  0  0  0  0  0  0  0  0  0  0
    6.6690   -0.0037   19.9363 C   0  0  0  0  0  0  0  0  0  0  0  0
    7.3446   -0.6722   20.9691 N   0  0  0  0  0  0  0  0  0  0  0  0
    6.8382   -0.7260   22.2240 N   0  0  0  0  0  0  0  0  0  0  0  0
    7.6652   -1.4072   22.9587 C   0  0  0  0  0  0  0  0  0  0  0  0
    7.4412   -1.6608   24.3709 C   0  0  0  0  0  0  0  0  0  0  0  0
    8.2173   -2.3395   25.1970 N   0  0  0  0  0  0  0  0  0  0  0  0
    7.6082   -2.3079   26.3976 N   0  0  0  0  0  0  0  0  0  0  0  0
    6.5047   -1.6475   26.3435 N   0  0  0  0  0  0  0  0  0  0  0  0
    6.3840   -1.2341   25.0804 N   0  0  0  0  0  0  0  0  0  0  0  0
    5.5961   -0.6963   24.7673 H   0  0  0  0  0  0  0  0  0  0  0  0
    8.8707   -1.9076   22.2299 C   0  0  0  0  0  0  0  0  0  0  0  0
    9.7970   -1.5260   22.6664 H   0  0  0  0  0  0  0  0  0  0  0  0
    8.9266   -3.0024   22.2565 H   0  0  0  0  0  0  0  0  0  0  0  0
    8.6192   -1.3514   20.8270 C   0  0  0  0  0  0  0  0  0  0  0  0
    8.5356   -2.1518   20.1048 H   0  0  0  0  0  0  0  0  0  0  0  0
    9.4112   -0.6793   20.4727 H   0  0  0  0  0  0  0  0  0  0  0  0
    5.4416    0.6473   20.1743 C   0  0  0  0  0  0  0  0  0  0  0  0
    5.0103    0.6264   21.1762 H   0  0  0  0  0  0  0  0  0  0  0  0
    4.8156    1.3031   19.1138 C   0  0  0  0  0  0  0  0  0  0  0  0
    3.8820    1.8374   19.2647 H   0  0  0  0  0  0  0  0  0  0  0  0
  1  2  1  0
  2  3  2  0
  3  4  1  0
  4  5  1  0
  4  6  2  0
  6  7  1  0
  7  8  1  0
  8  9  2  0
  9 10  1  0
 10 11  2  0
 11 12  1  0
 12 13  2  0
 13 14  1  0
 14 15  1  0
  9 16  1  0
 16 17  1  0
 16 18  1  0
 16 19  1  0
 19 20  1  0
 19 21  1  0
  6 22  1  0
 22 23  1  0
 22 24  2  0
 24 25  1  0
 24  2  1  0
 19  7  1  0
 14 10  1  0
M  END
>  <plip>  (1) 
-0.07142857142857142

>  <filename>  (1) 
[H][c]1[n][c]([H])[c]([N]2[N]=[C]([c]3[n][n][n][n]3[H])[C]([H])([H])[C]2([H])[H])[c]([H])[c]1[H]

$$$$
