
     RDKit          3D

 39 42  0  0  0  0  0  0  0  0999 V2000
    5.1146    1.7559   17.0001 H   0  0  0  0  0  0  0  0  0  0  0  0
    5.4808    1.2403   17.8819 C   0  0  0  0  0  0  0  0  0  0  0  0
    6.5897    0.5042   17.7190 N   0  0  0  0  0  0  0  0  0  0  0  0
    7.0617   -0.1384   18.8005 C   0  0  0  0  0  0  0  0  0  0  0  0
    7.9727   -0.7126   18.6243 H   0  0  0  0  0  0  0  0  0  0  0  0
    6.4996   -0.0724   20.0888 C   0  0  0  0  0  0  0  0  0  0  0  0
    7.0844   -0.8272   21.2980 C   0  0  2  0  0  0  0  0  0  0  0  0
    6.1461   -2.0751   21.5479 C   0  0  2  0  0  0  0  0  0  0  0  0
    5.1498   -1.6306   21.5452 H   0  0  0  0  0  0  0  0  0  0  0  0
    6.3355   -2.8897   22.8361 C   0  0  0  0  0  0  0  0  0  0  0  0
    5.3725   -3.3127   23.1726 H   0  0  0  0  0  0  0  0  0  0  0  0
    6.7409   -2.3336   23.6777 H   0  0  0  0  0  0  0  0  0  0  0  0
    7.2566   -3.9189   22.5134 O   0  0  0  0  0  0  0  0  0  0  0  0
    7.0298   -4.3161   21.1711 C   0  0  0  0  0  0  0  0  0  0  0  0
    7.9955   -4.4214   20.6725 H   0  0  0  0  0  0  0  0  0  0  0  0
    6.5419   -5.3028   21.1313 H   0  0  0  0  0  0  0  0  0  0  0  0
    6.1500   -3.2264   20.5358 C   0  0  0  0  0  0  0  0  0  0  0  0
    5.1336   -3.6087   20.4549 H   0  0  0  0  0  0  0  0  0  0  0  0
    6.4409   -2.9211   19.5299 H   0  0  0  0  0  0  0  0  0  0  0  0
    7.1141    0.0589   22.6105 C   0  0  0  0  0  0  0  0  0  0  0  0
    6.4107   -0.2977   23.3715 H   0  0  0  0  0  0  0  0  0  0  0  0
    6.8170    1.0953   22.4016 H   0  0  0  0  0  0  0  0  0  0  0  0
    8.5811   -0.0027   23.0937 C   0  0  2  0  0  0  0  0  0  0  0  0
    8.6934    0.2156   24.1606 H   0  0  0  0  0  0  0  0  0  0  0  0
    9.3935    0.9267   22.1700 C   0  0  0  0  0  0  0  0  0  0  0  0
    8.8878    1.8912   22.0423 H   0  0  0  0  0  0  0  0  0  0  0  0
   10.3901    1.1351   22.5732 H   0  0  0  0  0  0  0  0  0  0  0  0
    9.4661    0.0933   20.8555 C   0  0  0  0  0  0  0  0  0  0  0  0
   10.4941   -0.2279   20.6615 H   0  0  0  0  0  0  0  0  0  0  0  0
    9.1459    0.6617   19.9801 H   0  0  0  0  0  0  0  0  0  0  0  0
    8.6069   -1.1705   21.1695 C   0  0  1  0  0  0  0  0  0  0  0  0
    8.7987   -2.0029   20.4838 H   0  0  0  0  0  0  0  0  0  0  0  0
    9.0520   -1.3925   22.6254 C   0  0  0  0  0  0  0  0  0  0  0  0
   10.1381   -1.5373   22.7102 H   0  0  0  0  0  0  0  0  0  0  0  0
    8.5900   -2.2430   23.1205 H   0  0  0  0  0  0  0  0  0  0  0  0
    5.3097    0.6723   20.2147 C   0  0  0  0  0  0  0  0  0  0  0  0
    4.7941    0.7409   21.1773 H   0  0  0  0  0  0  0  0  0  0  0  0
    4.8036    1.3452   19.1015 C   0  0  0  0  0  0  0  0  0  0  0  0
    3.9092    1.9547   19.1693 H   0  0  0  0  0  0  0  0  0  0  0  0
  1  2  1  0
  2  3  2  0
  3  4  1  0
  4  5  1  0
  4  6  2  0
  7  6  1  6
  7  8  1  0
  8  9  1  1
  8 10  1  0
 10 11  1  0
 10 12  1  0
 10 13  1  0
 13 14  1  0
 14 15  1  0
 14 16  1  0
 14 17  1  0
 17 18  1  0
 17 19  1  0
  7 20  1  0
 20 21  1  0
 20 22  1  0
 20 23  1  0
 23 24  1  1
 23 25  1  0
 25 26  1  0
 25 27  1  0
 25 28  1  0
 28 29  1  0
 28 30  1  0
 28 31  1  0
 31 32  1  6
 31 33  1  0
 33 34  1  0
 33 35  1  0
  6 36  1  0
 36 37  1  0
 36 38  2  0
 38 39  1  0
 38  2  1  0
 31  7  1  0
 17  8  1  0
 33 23  1  0
M  END
>  <plip>  (1) 
-0.03333333333333333

>  <filename>  (1) 
[H][c]1[n][c]([H])[c]([C@]2([C@]3([H])[C]([H])([H])[O][C]([H])([H])[C]3([H])[H])[C]([H])([H])[C@]3([H])[C]([H])([H])[C]([H])([H])[C@@]2([H])[C]3([H])[H])[c]([H])[c]1[H]

$$$$
