
     RDKit          3D

 50 51  0  0  0  0  0  0  0  0999 V2000
    7.4997   -1.9209   24.6130 C   0  0  0  0  0  0  0  0  0  0  0  0
    6.4058   -2.7222   23.9436 C   0  0  0  0  0  0  0  0  0  0  0  0
    6.5896   -3.2261   22.6442 C   0  0  0  0  0  0  0  0  0  0  0  0
    7.8602   -3.0747   21.8323 C   0  0  0  0  0  0  0  0  0  0  0  0
    7.5011   -2.1756   20.7098 N   0  0  0  0  0  4  0  0  0  0  0  0
    7.3189   -0.7247   21.0702 C   0  0  0  0  0  0  0  0  0  0  0  0
    8.6388    0.0004   21.3936 C   0  0  0  0  0  0  0  0  0  0  0  0
    8.4244    1.4365   21.8786 C   0  0  0  0  0  0  0  0  0  0  0  0
    9.6946    2.0458   22.4479 N   0  0  0  0  0  4  0  0  0  0  0  0
   10.7232    2.3504   21.3925 C   0  0  0  0  0  0  0  0  0  0  0  0
   10.2519    2.8902   20.5630 H   0  0  0  0  0  0  0  0  0  0  0  0
   11.5062    2.9937   21.8059 H   0  0  0  0  0  0  0  0  0  0  0  0
   11.1832    1.4409   21.0026 H   0  0  0  0  0  0  0  0  0  0  0  0
    9.3855    3.3040   23.1927 C   0  0  0  0  0  0  0  0  0  0  0  0
   10.2970    3.7399   23.6134 H   0  0  0  0  0  0  0  0  0  0  0  0
    8.6722    3.1114   23.9996 H   0  0  0  0  0  0  0  0  0  0  0  0
    8.9371    4.0396   22.5095 H   0  0  0  0  0  0  0  0  0  0  0  0
   10.0863    1.3375   23.1124 H   0  0  0  0  0  0  0  0  0  0  0  0
    8.0745    2.0798   21.0578 H   0  0  0  0  0  0  0  0  0  0  0  0
    7.6597    1.4910   22.6664 H   0  0  0  0  0  0  0  0  0  0  0  0
    9.2729    0.0184   20.4975 H   0  0  0  0  0  0  0  0  0  0  0  0
    9.1900   -0.5609   22.1567 H   0  0  0  0  0  0  0  0  0  0  0  0
    6.5846   -0.0842   19.9258 C   0  0  0  0  0  0  0  0  0  0  0  0
    5.3879    0.6156   20.1317 C   0  0  0  0  0  0  0  0  0  0  0  0
    4.8102    1.2994   19.0609 C   0  0  0  0  0  0  0  0  0  0  0  0
    5.4514    1.2593   17.8193 C   0  0  0  0  0  0  0  0  0  0  0  0
    6.5875    0.5824   17.5983 N   0  0  0  0  0  0  0  0  0  0  0  0
    7.1296   -0.0733   18.6340 C   0  0  0  0  0  0  0  0  0  0  0  0
    8.0671   -0.5897   18.4174 H   0  0  0  0  0  0  0  0  0  0  0  0
    5.0313    1.7911   16.9653 H   0  0  0  0  0  0  0  0  0  0  0  0
    3.8916    1.8661   19.1739 H   0  0  0  0  0  0  0  0  0  0  0  0
    4.9199    0.6331   21.1193 H   0  0  0  0  0  0  0  0  0  0  0  0
    6.6721   -0.6729   21.9578 H   0  0  0  0  0  0  0  0  0  0  0  0
    8.1486   -2.2201   19.9021 H   0  0  0  0  0  0  0  0  0  0  0  0
    6.5717   -2.5348   20.3760 H   0  0  0  0  0  0  0  0  0  0  0  0
    8.1858   -4.0459   21.4479 H   0  0  0  0  0  0  0  0  0  0  0  0
    8.6911   -2.6838   22.4282 H   0  0  0  0  0  0  0  0  0  0  0  0
    5.4931   -3.8133   21.9982 C   0  0  0  0  0  0  0  0  0  0  0  0
    5.6348   -4.0735   20.6515 O   0  0  0  0  0  0  0  0  0  0  0  0
    5.3100   -4.9710   20.5228 H   0  0  0  0  0  0  0  0  0  0  0  0
    4.2974   -4.0955   22.6350 C   0  0  0  0  0  0  0  0  0  0  0  0
    4.1367   -3.6158   23.9328 C   0  0  0  0  0  0  0  0  0  0  0  0
    2.9478   -3.8172   24.5499 O   0  0  0  0  0  0  0  0  0  0  0  0
    3.0056   -3.3563   25.3957 H   0  0  0  0  0  0  0  0  0  0  0  0
    5.1692   -2.9228   24.5794 C   0  0  0  0  0  0  0  0  0  0  0  0
    4.9977   -2.5008   25.5638 H   0  0  0  0  0  0  0  0  0  0  0  0
    3.5084   -4.6604   22.1476 H   0  0  0  0  0  0  0  0  0  0  0  0
    7.7955   -1.0783   23.9707 H   0  0  0  0  0  0  0  0  0  0  0  0
    7.1675   -1.5212   25.5773 H   0  0  0  0  0  0  0  0  0  0  0  0
    8.3954   -2.5371   24.7770 H   0  0  0  0  0  0  0  0  0  0  0  0
  1  2  1  0
  2  3  2  0
  3  4  1  0
  4  5  1  0
  5  6  1  0
  6  7  1  0
  7  8  1  0
  8  9  1  0
  9 10  1  0
 10 11  1  0
 10 12  1  0
 10 13  1  0
  9 14  1  0
 14 15  1  0
 14 16  1  0
 14 17  1  0
  9 18  1  0
  8 19  1  0
  8 20  1  0
  7 21  1  0
  7 22  1  0
  6 23  1  0
 23 24  2  0
 24 25  1  0
 25 26  2  0
 26 27  1  0
 27 28  2  0
 28 29  1  0
 26 30  1  0
 25 31  1  0
 24 32  1  0
  6 33  1  0
  5 34  1  0
  5 35  1  0
  4 36  1  0
  4 37  1  0
  3 38  1  0
 38 39  1  0
 39 40  1  0
 38 41  2  0
 41 42  1  0
 42 43  1  0
 43 44  1  0
 42 45  2  0
 45 46  1  0
 41 47  1  0
  1 48  1  0
  1 49  1  0
  1 50  1  0
 45  2  1  0
 28 23  1  0
M  CHG  2   5   1   9   1
M  END
>  <plip>  (1) 
-0.2

>  <filename>  (1) 
[H][O][c]1[c]([H])[c]([O][H])[c]([C]([H])([H])[N+]([H])([H])[C]([H])([c]2[c]([H])[n][c]([H])[c]([H])[c]2[H])[C]([H])([H])[C]([H])([H])[N+]([H])([C]([H])([H])[H])[C]([H])([H])[H])[c]([C]([H])([H])[H])[c]1[H]

$$$$
