
     RDKit          3D

 39 41  0  0  0  0  0  0  0  0999 V2000
    6.0558   -1.0401   22.3076 H   0  0  0  0  0  0  0  0  0  0  0  0
    6.5851   -1.6025   21.7207 O   0  0  0  0  0  0  0  0  0  0  0  0
    7.4111   -0.6975   21.0032 C   0  0  1  0  0  0  0  0  0  0  0  0
    8.1689   -1.3333   20.5333 H   0  0  0  0  0  0  0  0  0  0  0  0
    6.6470    0.0028   19.8989 C   0  0  0  0  0  0  0  0  0  0  0  0
    7.1604    0.0561   18.5940 C   0  0  0  0  0  0  0  0  0  0  0  0
    8.1096   -0.4286   18.3583 H   0  0  0  0  0  0  0  0  0  0  0  0
    6.5621    0.6789   17.5685 N   0  0  0  0  0  0  0  0  0  0  0  0
    5.4014    1.2940   17.8297 C   0  0  0  0  0  0  0  0  0  0  0  0
    4.9189    1.7865   16.9893 H   0  0  0  0  0  0  0  0  0  0  0  0
    4.8010    1.3099   19.0950 C   0  0  0  0  0  0  0  0  0  0  0  0
    3.8715    1.8418   19.2529 H   0  0  0  0  0  0  0  0  0  0  0  0
    5.4309    0.6520   20.1488 C   0  0  0  0  0  0  0  0  0  0  0  0
    5.0046    0.6527   21.1544 H   0  0  0  0  0  0  0  0  0  0  0  0
    8.1597    0.2913   21.9378 C   0  0  0  0  0  0  0  0  0  0  0  0
    7.2115    1.1573   22.5481 O   0  0  0  0  0  0  0  0  0  0  0  0
    7.6737    2.1885   23.4179 C   0  0  0  0  0  0  0  0  0  0  0  0
    8.7598    2.1399   23.5620 H   0  0  0  0  0  0  0  0  0  0  0  0
    6.9884    2.0754   24.7759 C   0  0  0  0  0  0  0  0  0  0  0  0
    7.4932    1.3494   25.4267 H   0  0  0  0  0  0  0  0  0  0  0  0
    5.9675    1.7081   24.6193 H   0  0  0  0  0  0  0  0  0  0  0  0
    6.9901    3.4999   25.3608 C   0  0  0  0  0  0  0  0  0  0  0  0
    7.8165    3.6321   26.0682 H   0  0  0  0  0  0  0  0  0  0  0  0
    6.0694    3.6948   25.9187 H   0  0  0  0  0  0  0  0  0  0  0  0
    7.1551    4.4664   24.1552 C   0  0  0  0  0  0  0  0  0  0  0  0
    6.2970    5.1376   24.0523 H   0  0  0  0  0  0  0  0  0  0  0  0
    8.0323    5.1066   24.2989 H   0  0  0  0  0  0  0  0  0  0  0  0
    7.3083    3.5803   22.8996 C   0  0  0  0  0  0  0  0  0  0  0  0
    6.3646    3.5122   22.3464 H   0  0  0  0  0  0  0  0  0  0  0  0
    8.0585    3.9719   22.1997 H   0  0  0  0  0  0  0  0  0  0  0  0
    9.1020   -0.4275   22.9327 C   0  0  0  0  0  0  0  0  0  0  0  0
    8.9134   -0.1737   23.9789 H   0  0  0  0  0  0  0  0  0  0  0  0
    9.0598   -1.5148   22.8488 H   0  0  0  0  0  0  0  0  0  0  0  0
   10.3158    0.2614   22.2616 C   0  0  0  0  0  0  0  0  0  0  0  0
   10.8745    0.9308   22.9203 H   0  0  0  0  0  0  0  0  0  0  0  0
   11.0233   -0.4300   21.7972 H   0  0  0  0  0  0  0  0  0  0  0  0
    9.3735    0.9837   21.2651 C   0  0  0  0  0  0  0  0  0  0  0  0
    9.5089    0.7081   20.2170 H   0  0  0  0  0  0  0  0  0  0  0  0
    9.3641    2.0764   21.3057 H   0  0  0  0  0  0  0  0  0  0  0  0
  1  2  1  0
  2  3  1  0
  3  4  1  6
  3  5  1  0
  5  6  2  0
  6  7  1  0
  6  8  1  0
  8  9  2  0
  9 10  1  0
  9 11  1  0
 11 12  1  0
 11 13  2  0
 13 14  1  0
  3 15  1  0
 15 16  1  0
 16 17  1  0
 17 18  1  0
 17 19  1  0
 19 20  1  0
 19 21  1  0
 19 22  1  0
 22 23  1  0
 22 24  1  0
 22 25  1  0
 25 26  1  0
 25 27  1  0
 25 28  1  0
 28 29  1  0
 28 30  1  0
 15 31  1  0
 31 32  1  0
 31 33  1  0
 31 34  1  0
 34 35  1  0
 34 36  1  0
 34 37  1  0
 37 38  1  0
 37 39  1  0
 13  5  1  0
 37 15  1  0
 28 17  1  0
M  END
>  <plip>  (1) 
-0.03571428571428571

>  <filename>  (1) 
[H][O][C@@]([H])([c]1[c]([H])[n][c]([H])[c]([H])[c]1[H])[C]1([O][C]2([H])[C]([H])([H])[C]([H])([H])[C]([H])([H])[C]2([H])[H])[C]([H])([H])[C]([H])([H])[C]1([H])[H]

$$$$
