
     RDKit          3D

 34 35  0  0  0  0  0  0  0  0999 V2000
    7.9615   -5.8556   25.9260 O   0  0  0  0  0  0  0  0  0  0  0  0
    8.8544   -5.5511   25.1580 C   0  0  0  0  0  0  0  0  0  0  0  0
   10.3551   -5.7624   25.4777 C   0  0  0  0  0  0  0  0  0  0  0  0
   11.1608   -4.6136   25.7443 O   0  0  0  0  0  0  0  0  0  0  0  0
   11.2809   -4.5008   26.6999 H   0  0  0  0  0  0  0  0  0  0  0  0
   10.7563   -6.1857   24.5625 H   0  0  0  0  0  0  0  0  0  0  0  0
   10.4197   -6.5089   26.2701 H   0  0  0  0  0  0  0  0  0  0  0  0
    8.6025   -5.0587   23.8894 N   0  0  0  0  0  0  0  0  0  0  0  0
    7.2999   -4.4690   23.5985 C   0  0  0  0  0  0  0  0  0  0  0  0
    7.0459   -3.2247   24.4546 C   0  0  0  0  0  0  0  0  0  0  0  0
    8.0241   -2.0621   24.2108 C   0  0  0  0  0  0  0  0  0  0  0  0
    7.9799   -1.5388   22.8488 N   0  0  0  0  0  0  0  0  0  0  0  0
    7.0088   -0.7759   22.2949 C   0  0  0  0  0  0  0  0  0  0  0  0
    7.3590   -0.6717   20.9686 C   0  0  0  0  0  0  0  0  0  0  0  0
    6.6601    0.0153   19.8833 C   0  0  0  0  0  0  0  0  0  0  0  0
    5.4379    0.6695   20.1056 C   0  0  0  0  0  0  0  0  0  0  0  0
    4.8246    1.3129   19.0357 C   0  0  0  0  0  0  0  0  0  0  0  0
    5.4466    1.2907   17.7822 C   0  0  0  0  0  0  0  0  0  0  0  0
    6.6074    0.6564   17.5498 N   0  0  0  0  0  0  0  0  0  0  0  0
    7.1921    0.0394   18.5806 C   0  0  0  0  0  0  0  0  0  0  0  0
    8.1315   -0.4666   18.3684 H   0  0  0  0  0  0  0  0  0  0  0  0
    4.9994    1.8038   16.9314 H   0  0  0  0  0  0  0  0  0  0  0  0
    3.8866    1.8416   19.1592 H   0  0  0  0  0  0  0  0  0  0  0  0
    4.9792    0.6799   21.0959 H   0  0  0  0  0  0  0  0  0  0  0  0
    8.5218   -1.3675   20.7973 N   0  0  0  0  0  0  0  0  0  0  0  0
    8.8783   -1.8885   21.9311 N   0  0  0  0  0  0  0  0  0  0  0  0
    6.1897   -0.4110   22.8922 H   0  0  0  0  0  0  0  0  0  0  0  0
    9.0614   -2.3502   24.4187 H   0  0  0  0  0  0  0  0  0  0  0  0
    7.7737   -1.2308   24.8811 H   0  0  0  0  0  0  0  0  0  0  0  0
    6.0218   -2.8643   24.3008 H   0  0  0  0  0  0  0  0  0  0  0  0
    7.1261   -3.5273   25.5042 H   0  0  0  0  0  0  0  0  0  0  0  0
    7.2522   -4.2451   22.5270 H   0  0  0  0  0  0  0  0  0  0  0  0
    6.5220   -5.2098   23.8036 H   0  0  0  0  0  0  0  0  0  0  0  0
    9.3662   -4.5272   23.4929 H   0  0  0  0  0  0  0  0  0  0  0  0
  1  2  2  0
  2  3  1  0
  3  4  1  0
  4  5  1  0
  3  6  1  0
  3  7  1  0
  2  8  1  0
  8  9  1  0
  9 10  1  0
 10 11  1  0
 11 12  1  0
 12 13  1  0
 13 14  2  0
 14 15  1  0
 15 16  2  0
 16 17  1  0
 17 18  2  0
 18 19  1  0
 19 20  2  0
 20 21  1  0
 18 22  1  0
 17 23  1  0
 16 24  1  0
 14 25  1  0
 25 26  2  0
 13 27  1  0
 11 28  1  0
 11 29  1  0
 10 30  1  0
 10 31  1  0
  9 32  1  0
  9 33  1  0
  8 34  1  0
 26 12  1  0
 20 15  1  0
M  END
>  <plip>  (1) 
-0.07142857142857142

>  <filename>  (1) 
[H][O][C]([H])([H])[C](=[O])[N]([H])[C]([H])([H])[C]([H])([H])[C]([H])([H])[n]1[n][n][c](-[c]2[c]([H])[n][c]([H])[c]([H])[c]2[H])[c]1[H]

$$$$
