
     RDKit          3D

 42 43  0  0  0  0  0  0  0  0999 V2000
    6.4977   -3.0819   20.5859 C   0  0  0  0  0  0  0  0  0  0  0  0
    6.5424   -1.9096   21.5649 C   0  0  0  0  0  0  0  0  0  0  0  0
    7.3535   -0.7173   21.0403 C   0  0  0  0  0  0  0  0  0  0  0  0
    7.6629    0.1526   22.1627 N   0  0  0  0  0  0  0  0  0  0  0  0
    8.4608    1.2417   22.0461 C   0  0  0  0  0  0  0  0  0  0  0  0
    9.1166    1.4840   21.0384 O   0  0  0  0  0  0  0  0  0  0  0  0
    8.4865    2.1672   23.3752 C   0  0  0  0  0  0  0  0  0  0  0  0
    7.7612    1.9375   24.3312 O   0  0  0  0  0  0  0  0  0  0  0  0
    9.3912    3.1855   23.3626 N   0  0  0  0  0  0  0  0  0  0  0  0
    9.3873    4.2203   24.3984 C   0  0  0  0  0  0  0  0  0  0  0  0
    8.1579    5.1236   24.3742 C   0  0  0  0  0  0  0  0  0  0  0  0
    7.1671    5.0484   25.3578 C   0  0  0  0  0  0  0  0  0  0  0  0
    7.2962    4.1992   26.4163 F   0  0  0  0  0  0  0  0  0  0  0  0
    6.0000    5.8344   25.3408 C   0  0  0  0  0  0  0  0  0  0  0  0
    5.0471    5.7215   26.3063 O   0  0  0  0  0  0  0  0  0  0  0  0
    5.3421    5.0175   26.9032 H   0  0  0  0  0  0  0  0  0  0  0  0
    5.8335    6.7426   24.2992 C   0  0  0  0  0  0  0  0  0  0  0  0
    6.8125    6.8550   23.3048 C   0  0  0  0  0  0  0  0  0  0  0  0
    7.9590    6.0594   23.3414 C   0  0  0  0  0  0  0  0  0  0  0  0
    8.7110    6.1557   22.5589 H   0  0  0  0  0  0  0  0  0  0  0  0
    6.6800    7.5638   22.4915 H   0  0  0  0  0  0  0  0  0  0  0  0
    4.9257    7.3360   24.2884 H   0  0  0  0  0  0  0  0  0  0  0  0
   10.2944    4.8157   24.2549 H   0  0  0  0  0  0  0  0  0  0  0  0
    9.4835    3.7363   25.3716 H   0  0  0  0  0  0  0  0  0  0  0  0
    9.8113    3.3893   22.4668 H   0  0  0  0  0  0  0  0  0  0  0  0
    7.0810    0.1048   22.9889 H   0  0  0  0  0  0  0  0  0  0  0  0
    6.6353    0.0388   19.9243 C   0  0  0  0  0  0  0  0  0  0  0  0
    5.4117    0.6939   20.1354 C   0  0  0  0  0  0  0  0  0  0  0  0
    4.7921    1.3337   19.0608 C   0  0  0  0  0  0  0  0  0  0  0  0
    5.4127    1.3021   17.8074 C   0  0  0  0  0  0  0  0  0  0  0  0
    6.5764    0.6802   17.5767 N   0  0  0  0  0  0  0  0  0  0  0  0
    7.1653    0.0852   18.6273 C   0  0  0  0  0  0  0  0  0  0  0  0
    8.1193   -0.3971   18.4088 H   0  0  0  0  0  0  0  0  0  0  0  0
    4.9501    1.7920   16.9520 H   0  0  0  0  0  0  0  0  0  0  0  0
    3.8505    1.8554   19.1850 H   0  0  0  0  0  0  0  0  0  0  0  0
    4.9565    0.7202   21.1285 H   0  0  0  0  0  0  0  0  0  0  0  0
    8.3027   -1.0925   20.6360 H   0  0  0  0  0  0  0  0  0  0  0  0
    5.5295   -1.5552   21.7842 H   0  0  0  0  0  0  0  0  0  0  0  0
    6.9794   -2.2448   22.5132 H   0  0  0  0  0  0  0  0  0  0  0  0
    5.6948   -3.7839   20.8302 H   0  0  0  0  0  0  0  0  0  0  0  0
    6.3176   -2.7308   19.5639 H   0  0  0  0  0  0  0  0  0  0  0  0
    7.4484   -3.6306   20.5801 H   0  0  0  0  0  0  0  0  0  0  0  0
  1  2  1  0
  2  3  1  0
  3  4  1  0
  4  5  1  0
  5  6  2  0
  5  7  1  0
  7  8  2  0
  7  9  1  0
  9 10  1  0
 10 11  1  0
 11 12  2  0
 12 13  1  0
 12 14  1  0
 14 15  1  0
 15 16  1  0
 14 17  2  0
 17 18  1  0
 18 19  2  0
 19 20  1  0
 18 21  1  0
 17 22  1  0
 10 23  1  0
 10 24  1  0
  9 25  1  0
  4 26  1  0
  3 27  1  0
 27 28  2  0
 28 29  1  0
 29 30  2  0
 30 31  1  0
 31 32  2  0
 32 33  1  0
 30 34  1  0
 29 35  1  0
 28 36  1  0
  3 37  1  0
  2 38  1  0
  2 39  1  0
  1 40  1  0
  1 41  1  0
  1 42  1  0
 19 11  1  0
 32 27  1  0
M  END
>  <plip>  (1) 
-0.14285714285714285

>  <filename>  (1) 
[H][O][c]1[c]([H])[c]([H])[c]([H])[c]([C]([H])([H])[N]([H])[C](=[O])[C](=[O])[N]([H])[C]([H])([c]2[c]([H])[n][c]([H])[c]([H])[c]2[H])[C]([H])([H])[C]([H])([H])[H])[c]1[F]

$$$$
