
     RDKit          3D

 18 18  0  0  0  0  0  0  0  0999 V2000
    4.9066    1.7693   17.0086 H   0  0  0  0  0  0  0  0  0  0  0  0
    5.4016    1.2879   17.8509 C   0  0  0  0  0  0  0  0  0  0  0  0
    6.5704    0.6787   17.5972 N   0  0  0  0  0  0  0  0  0  0  0  0
    7.1846    0.0574   18.6092 C   0  0  0  0  0  0  0  0  0  0  0  0
    8.1334   -0.4369   18.3822 H   0  0  0  0  0  0  0  0  0  0  0  0
    6.6622    0.0211   19.9030 C   0  0  0  0  0  0  0  0  0  0  0  0
    7.3587   -0.7708   20.9704 C   0  0  0  0  0  0  0  0  0  0  0  0
    8.7087   -0.7110   20.7633 F   0  0  0  0  0  0  0  0  0  0  0  0
    7.1052   -0.1855   22.1807 F   0  0  0  0  0  0  0  0  0  0  0  0
    6.7623   -2.4967   20.9410 S   0  0  0  0  0  0  0  0  0  0  0  0
    7.7694   -3.1240   22.3192 C   0  0  0  0  0  0  0  0  0  0  0  0
    7.4887   -2.4877   23.4521 F   0  0  0  0  0  0  0  0  0  0  0  0
    9.0683   -3.0080   22.0576 F   0  0  0  0  0  0  0  0  0  0  0  0
    7.4872   -4.4216   22.4807 F   0  0  0  0  0  0  0  0  0  0  0  0
    5.4419    0.6547   20.1589 C   0  0  0  0  0  0  0  0  0  0  0  0
    5.0084    0.6309   21.1551 H   0  0  0  0  0  0  0  0  0  0  0  0
    4.8050    1.3111   19.1130 C   0  0  0  0  0  0  0  0  0  0  0  0
    3.8738    1.8444   19.2689 H   0  0  0  0  0  0  0  0  0  0  0  0
  1  2  1  0
  2  3  2  0
  3  4  1  0
  4  5  1  0
  4  6  2  0
  6  7  1  0
  7  8  1  0
  7  9  1  0
  7 10  1  0
 10 11  1  0
 11 12  1  0
 11 13  1  0
 11 14  1  0
  6 15  1  0
 15 16  1  0
 15 17  2  0
 17 18  1  0
 17  2  1  0
M  END
>  <plip>  (1) 
-0.034482758620689655

>  <filename>  (1) 
[H][c]1[n][c]([H])[c]([C]([F])([F])[S][C]([F])([F])[F])[c]([H])[c]1[H]

$$$$
