
     RDKit          3D

 31 32  0  0  0  0  0  0  0  0999 V2000
    5.0148    1.6650   16.7855 H   0  0  0  0  0  0  0  0  0  0  0  0
    5.4589    1.3695   17.7339 C   0  0  0  0  0  0  0  0  0  0  0  0
    6.7319    0.9421   17.6863 N   0  0  0  0  0  0  0  0  0  0  0  0
    7.3042    0.5567   18.8367 C   0  0  0  0  0  0  0  0  0  0  0  0
    8.3551    0.2713   18.7785 H   0  0  0  0  0  0  0  0  0  0  0  0
    6.5982    0.5086   20.0482 C   0  0  0  0  0  0  0  0  0  0  0  0
    7.2731   -0.3731   21.4480 S   0  0  0  0  0  4  0  0  0  0  0  0
    8.7729   -0.2089   21.4062 O   0  0  0  0  0  0  0  0  0  0  0  0
    7.0545   -2.0195   20.7017 C   0  0  0  0  0  0  0  0  0  0  0  0
    6.0988   -2.0786   20.1814 H   0  0  0  0  0  0  0  0  0  0  0  0
    7.8754   -2.0204   19.9851 H   0  0  0  0  0  0  0  0  0  0  0  0
    7.2193   -3.1293   21.7245 C   0  0  0  0  0  0  0  0  0  0  0  0
    6.3781   -3.1315   22.4437 H   0  0  0  0  0  0  0  0  0  0  0  0
    7.1910   -4.0969   21.1972 H   0  0  0  0  0  0  0  0  0  0  0  0
    8.4850   -2.9760   22.3762 N   0  0  0  0  0  0  0  0  0  0  0  0
    8.8968   -2.0483   22.3833 H   0  0  0  0  0  0  0  0  0  0  0  0
    8.9496   -3.8514   23.3372 C   0  0  0  0  0  0  0  0  0  0  0  0
   10.2851   -3.7155   23.7603 C   0  0  0  0  0  0  0  0  0  0  0  0
   10.8869   -2.9223   23.3258 H   0  0  0  0  0  0  0  0  0  0  0  0
   10.8295   -4.6194   24.6754 C   0  0  0  0  0  0  0  0  0  0  0  0
   11.8774   -4.5634   24.9568 H   0  0  0  0  0  0  0  0  0  0  0  0
   10.0455   -5.6367   25.2218 C   0  0  0  0  0  0  0  0  0  0  0  0
   10.4881   -6.3432   25.9235 H   0  0  0  0  0  0  0  0  0  0  0  0
    8.7022   -5.7396   24.8442 C   0  0  0  0  0  0  0  0  0  0  0  0
    8.0666   -6.4993   25.2881 H   0  0  0  0  0  0  0  0  0  0  0  0
    8.1529   -4.8652   23.8995 C   0  0  0  0  0  0  0  0  0  0  0  0
    7.1096   -4.9584   23.6048 H   0  0  0  0  0  0  0  0  0  0  0  0
    5.2986    1.0214   20.1084 C   0  0  0  0  0  0  0  0  0  0  0  0
    4.7659    1.0809   21.0588 H   0  0  0  0  0  0  0  0  0  0  0  0
    4.7100    1.4396   18.9143 C   0  0  0  0  0  0  0  0  0  0  0  0
    3.6905    1.8122   18.8936 H   0  0  0  0  0  0  0  0  0  0  0  0
  1  2  1  0
  2  3  2  0
  3  4  1  0
  4  5  1  0
  4  6  2  0
  6  7  1  0
  7  8  2  0
  7  9  1  6
  9 10  1  0
  9 11  1  0
  9 12  1  0
 12 13  1  0
 12 14  1  0
 12 15  1  0
 15 16  1  0
 15 17  1  0
 17 18  2  0
 18 19  1  0
 18 20  1  0
 20 21  1  0
 20 22  2  0
 22 23  1  0
 22 24  1  0
 24 25  1  0
 24 26  2  0
 26 27  1  0
  6 28  1  0
 28 29  1  0
 28 30  2  0
 30 31  1  0
 30  2  1  0
 26 17  1  0
M  END
>  <plip>  (1) 
-0.13793103448275862

>  <filename>  (1) 
[H][c]1[n][c]([H])[c]([S@](=[O])[C]([H])([H])[C]([H])([H])[N]([H])[c]2[c]([H])[c]([H])[c]([H])[c]([H])[c]2[H])[c]([H])[c]1[H]

$$$$
