
     RDKit          3D

 50 53  0  0  0  0  0  0  0  0999 V2000
    6.9207    6.1123   29.3050 N   0  0  0  0  0  0  0  0  0  0  0  0
    7.1797    5.2305   28.6011 C   0  0  0  0  0  0  0  0  0  0  0  0
    7.5648    4.1162   27.7597 C   0  0  0  0  0  0  0  0  0  0  0  0
    7.4677    2.8015   28.2603 C   0  0  0  0  0  0  0  0  0  0  0  0
    7.9762    1.7423   27.5077 C   0  0  0  0  0  0  0  0  0  0  0  0
    8.5258    1.9599   26.2350 C   0  0  0  0  0  0  0  0  0  0  0  0
    8.5599    3.2690   25.7332 C   0  0  0  0  0  0  0  0  0  0  0  0
    9.1243    3.6532   24.5261 O   0  0  0  0  0  0  0  0  0  0  0  0
    9.1671    2.8809   23.4316 C   0  0  0  0  0  0  0  0  0  0  0  0
   10.1274    3.2534   22.4842 C   0  0  0  0  0  0  0  0  0  0  0  0
   10.1830    2.4509   21.3759 C   0  0  0  0  0  0  0  0  0  0  0  0
    9.3941    1.3820   21.1898 N   0  0  0  0  0  0  0  0  0  0  0  0
    8.5364    1.1671   22.1749 C   0  0  0  0  0  0  0  0  0  0  0  0
    7.7552    0.0818   22.1769 N   0  0  0  0  0  0  0  0  0  0  0  0
    7.4366   -0.6956   21.0047 C   0  0  0  0  0  0  0  0  0  0  0  0
    6.6528   -1.9430   21.4294 C   0  0  0  0  0  0  0  0  0  0  0  0
    7.3276   -2.8734   22.4462 C   0  0  0  0  0  0  0  0  0  0  0  0
    6.5006   -4.1387   22.7294 C   0  0  0  0  0  0  0  0  0  0  0  0
    7.5482   -5.1577   23.2040 C   0  0  0  0  0  0  0  0  0  0  0  0
    8.8081   -4.6898   22.7404 O   0  0  0  0  0  0  0  0  0  0  0  0
    8.6515   -3.4945   21.9933 C   0  0  0  0  0  0  0  0  0  0  0  0
    9.5308   -2.8632   22.1684 H   0  0  0  0  0  0  0  0  0  0  0  0
    8.6152   -3.7249   20.9155 H   0  0  0  0  0  0  0  0  0  0  0  0
    7.3610   -6.1668   22.8070 H   0  0  0  0  0  0  0  0  0  0  0  0
    7.5814   -5.2324   24.2990 H   0  0  0  0  0  0  0  0  0  0  0  0
    6.0324   -4.4894   21.7996 H   0  0  0  0  0  0  0  0  0  0  0  0
    5.6965   -3.9829   23.4598 H   0  0  0  0  0  0  0  0  0  0  0  0
    7.5110   -2.3399   23.3908 H   0  0  0  0  0  0  0  0  0  0  0  0
    6.3999   -2.5227   20.5323 H   0  0  0  0  0  0  0  0  0  0  0  0
    5.6951   -1.6106   21.8429 H   0  0  0  0  0  0  0  0  0  0  0  0
    6.6854    0.1038   19.9528 C   0  0  0  0  0  0  0  0  0  0  0  0
    5.4622    0.7645   20.1618 C   0  0  0  0  0  0  0  0  0  0  0  0
    4.8319    1.3622   19.0678 C   0  0  0  0  0  0  0  0  0  0  0  0
    5.4477    1.3042   17.8138 C   0  0  0  0  0  0  0  0  0  0  0  0
    6.6253    0.7016   17.6003 N   0  0  0  0  0  0  0  0  0  0  0  0
    7.2131    0.1307   18.6590 C   0  0  0  0  0  0  0  0  0  0  0  0
    8.1706   -0.3552   18.4600 H   0  0  0  0  0  0  0  0  0  0  0  0
    4.9732    1.7540   16.9431 H   0  0  0  0  0  0  0  0  0  0  0  0
    3.8826    1.8732   19.1734 H   0  0  0  0  0  0  0  0  0  0  0  0
    5.0096    0.8359   21.1546 H   0  0  0  0  0  0  0  0  0  0  0  0
    8.3903   -1.0203   20.5587 H   0  0  0  0  0  0  0  0  0  0  0  0
    7.0268    0.3008   22.8316 H   0  0  0  0  0  0  0  0  0  0  0  0
    8.3368    1.8878   23.2849 N   0  0  0  0  0  0  0  0  0  0  0  0
   10.8940    2.6653   20.5760 H   0  0  0  0  0  0  0  0  0  0  0  0
   10.7467    4.1294   22.6250 H   0  0  0  0  0  0  0  0  0  0  0  0
    8.0958    4.3472   26.4846 C   0  0  0  0  0  0  0  0  0  0  0  0
    8.1506    5.3397   26.0474 H   0  0  0  0  0  0  0  0  0  0  0  0
    8.8982    1.1295   25.6419 H   0  0  0  0  0  0  0  0  0  0  0  0
    7.9635    0.7320   27.9190 H   0  0  0  0  0  0  0  0  0  0  0  0
    7.0099    2.6168   29.2287 H   0  0  0  0  0  0  0  0  0  0  0  0
  1  2  3  0
  2  3  1  0
  3  4  2  0
  4  5  1  0
  5  6  2  0
  6  7  1  0
  7  8  1  0
  8  9  1  0
  9 10  2  0
 10 11  1  0
 11 12  2  0
 12 13  1  0
 13 14  1  0
 14 15  1  0
 15 16  1  0
 16 17  1  0
 17 18  1  0
 18 19  1  0
 19 20  1  0
 20 21  1  0
 21 22  1  0
 21 23  1  0
 19 24  1  0
 19 25  1  0
 18 26  1  0
 18 27  1  0
 17 28  1  0
 16 29  1  0
 16 30  1  0
 15 31  1  0
 31 32  2  0
 32 33  1  0
 33 34  2  0
 34 35  1  0
 35 36  2  0
 36 37  1  0
 34 38  1  0
 33 39  1  0
 32 40  1  0
 15 41  1  0
 14 42  1  0
 13 43  2  0
 11 44  1  0
 10 45  1  0
  7 46  2  0
 46 47  1  0
  6 48  1  0
  5 49  1  0
  4 50  1  0
 46  3  1  0
 43  9  1  0
 21 17  1  0
 36 31  1  0
M  END
>  <plip>  (1) 
-0.13793103448275862

>  <filename>  (1) 
[H][c]1[n][c]([N]([H])[C]([H])([c]2[c]([H])[n][c]([H])[c]([H])[c]2[H])[C]([H])([H])[C]2([H])[C]([H])([H])[O][C]([H])([H])[C]2([H])[H])[n][c]([O][c]2[c]([H])[c]([H])[c]([H])[c]([C]#[N])[c]2[H])[c]1[H]

$$$$
