
     RDKit          3D

 37 38  0  0  0  0  0  0  0  0999 V2000
    5.1201    1.6930   16.6452 H   0  0  0  0  0  0  0  0  0  0  0  0
    5.5838    1.2679   17.5318 C   0  0  0  0  0  0  0  0  0  0  0  0
    6.7257    0.5861   17.3404 N   0  0  0  0  0  0  0  0  0  0  0  0
    7.3030    0.0270   18.4118 C   0  0  0  0  0  0  0  0  0  0  0  0
    8.2263   -0.5233   18.2234 H   0  0  0  0  0  0  0  0  0  0  0  0
    6.7786    0.1176   19.7241 C   0  0  0  0  0  0  0  0  0  0  0  0
    7.3948   -0.5574   20.8047 N   0  0  0  0  0  0  0  0  0  0  0  0
    7.9587   -1.3790   20.6264 H   0  0  0  0  0  0  0  0  0  0  0  0
    7.1510   -0.4186   22.1459 C   0  0  0  0  0  0  0  0  0  0  0  0
    6.5765    0.5230   22.6591 O   0  0  0  0  0  0  0  0  0  0  0  0
    7.6969   -1.5993   23.0453 C   0  0  1  0  0  0  0  0  0  0  0  0
    8.1459   -1.0419   23.8809 H   0  0  0  0  0  0  0  0  0  0  0  0
    6.4902   -2.3570   23.6077 C   0  0  0  0  0  0  0  0  0  0  0  0
    5.7585   -3.2617   22.8217 C   0  0  0  0  0  0  0  0  0  0  0  0
    6.0840   -3.4704   21.8044 H   0  0  0  0  0  0  0  0  0  0  0  0
    4.6027   -3.8624   23.3318 C   0  0  0  0  0  0  0  0  0  0  0  0
    4.0417   -4.5651   22.7201 H   0  0  0  0  0  0  0  0  0  0  0  0
    4.1710   -3.5656   24.6287 C   0  0  0  0  0  0  0  0  0  0  0  0
    3.2671   -4.0247   25.0204 H   0  0  0  0  0  0  0  0  0  0  0  0
    4.9146   -2.6843   25.4282 C   0  0  0  0  0  0  0  0  0  0  0  0
    4.4678   -2.4389   26.7410 N   0  0  0  0  0  0  0  0  0  0  0  0
    3.6074   -2.8983   26.9752 H   0  0  0  0  0  0  0  0  0  0  0  0
    5.1995   -2.0033   27.8164 C   0  0  0  0  0  0  0  0  0  0  0  0
    6.3192   -1.5426   27.7362 O   0  0  0  0  0  0  0  0  0  0  0  0
    4.4831   -2.1639   29.1394 C   0  0  0  0  0  0  0  0  0  0  0  0
    3.4589   -1.7872   29.1033 H   0  0  0  0  0  0  0  0  0  0  0  0
    5.0471   -1.6180   29.8928 H   0  0  0  0  0  0  0  0  0  0  0  0
    4.4509   -3.2176   29.4320 H   0  0  0  0  0  0  0  0  0  0  0  0
    6.0585   -2.0686   24.9120 C   0  0  0  0  0  0  0  0  0  0  0  0
    6.6047   -1.3980   25.5614 H   0  0  0  0  0  0  0  0  0  0  0  0
    8.6825   -2.5398   22.4128 N   0  0  0  0  0  0  0  0  0  0  0  0
    9.6319   -2.2840   22.6812 H   0  0  0  0  0  0  0  0  0  0  0  0
    8.5238   -3.4743   22.7844 H   0  0  0  0  0  0  0  0  0  0  0  0
    5.6062    0.8590   19.9113 C   0  0  0  0  0  0  0  0  0  0  0  0
    5.2033    0.9758   20.9138 H   0  0  0  0  0  0  0  0  0  0  0  0
    4.9970    1.4298   18.7888 C   0  0  0  0  0  0  0  0  0  0  0  0
    4.0795    2.0010   18.8849 H   0  0  0  0  0  0  0  0  0  0  0  0
  1  2  1  0
  2  3  2  0
  3  4  1  0
  4  5  1  0
  4  6  2  0
  6  7  1  0
  7  8  1  0
  7  9  1  0
  9 10  2  0
  9 11  1  0
 11 12  1  1
 11 13  1  0
 13 14  2  0
 14 15  1  0
 14 16  1  0
 16 17  1  0
 16 18  2  0
 18 19  1  0
 18 20  1  0
 20 21  1  0
 21 22  1  0
 21 23  1  0
 23 24  2  0
 23 25  1  0
 25 26  1  0
 25 27  1  0
 25 28  1  0
 20 29  2  0
 29 30  1  0
 11 31  1  0
 31 32  1  0
 31 33  1  0
  6 34  1  0
 34 35  1  0
 34 36  2  0
 36 37  1  0
 36  2  1  0
 29 13  1  0
M  END
>  <plip>  (1) 
-0.06896551724137931

>  <filename>  (1) 
[H][c]1[n][c]([H])[c]([N]([H])[C](=[O])[C@@]([H])([c]2[c]([H])[c]([H])[c]([H])[c]([N]([H])[C](=[O])[C]([H])([H])[H])[c]2[H])[N]([H])[H])[c]([H])[c]1[H]

$$$$
