
     RDKit          3D

 42 45  0  0  0  0  0  0  0  0999 V2000
    4.9258    1.7786   16.9984 H   0  0  0  0  0  0  0  0  0  0  0  0
    5.4035    1.2897   17.8436 C   0  0  0  0  0  0  0  0  0  0  0  0
    6.5658    0.6738   17.5832 N   0  0  0  0  0  0  0  0  0  0  0  0
    7.1714    0.0600   18.6017 C   0  0  0  0  0  0  0  0  0  0  0  0
    8.1182   -0.4277   18.3852 H   0  0  0  0  0  0  0  0  0  0  0  0
    6.6485    0.0134   19.9027 C   0  0  0  0  0  0  0  0  0  0  0  0
    7.4112   -0.7085   20.9150 C   0  0  0  0  0  0  0  0  0  0  0  0
    8.5414   -1.3313   20.7888 N   0  0  0  0  0  0  0  0  0  0  0  0
    8.8480   -1.8453   22.0370 N   0  0  0  0  0  0  0  0  0  0  0  0
    7.8839   -1.5058   22.8270 C   0  0  0  0  0  0  0  0  0  0  0  0
    7.7551   -1.8302   24.2896 C   0  0  0  0  0  0  0  0  0  0  0  0
    6.8775   -2.9209   24.6458 N   0  0  0  0  0  0  0  0  0  0  0  0
    6.7228   -2.9317   25.6487 H   0  0  0  0  0  0  0  0  0  0  0  0
    7.3426   -4.2349   24.1990 C   0  0  0  0  0  0  0  0  0  0  0  0
    7.5292   -4.1512   23.1208 H   0  0  0  0  0  0  0  0  0  0  0  0
    8.3120   -4.5077   24.6573 H   0  0  0  0  0  0  0  0  0  0  0  0
    6.3088   -5.3018   24.4827 C   0  0  0  0  0  0  0  0  0  0  0  0
    6.3562   -6.0595   25.6637 C   0  0  0  0  0  0  0  0  0  0  0  0
    7.1689   -5.8921   26.3694 H   0  0  0  0  0  0  0  0  0  0  0  0
    5.3917   -7.0223   25.9465 C   0  0  0  0  0  0  0  0  0  0  0  0
    5.4433   -7.6077   26.8582 H   0  0  0  0  0  0  0  0  0  0  0  0
    4.3412   -7.2585   25.0385 C   0  0  0  0  0  0  0  0  0  0  0  0
    3.4594   -8.2328   25.3971 O   0  0  0  0  0  0  0  0  0  0  0  0
    2.3555   -8.5411   24.5659 C   0  0  0  0  0  0  0  0  0  0  0  0
    2.6603   -8.9151   23.5803 H   0  0  0  0  0  0  0  0  0  0  0  0
    1.8147   -9.3317   25.0828 H   0  0  0  0  0  0  0  0  0  0  0  0
    1.6738   -7.6917   24.4261 H   0  0  0  0  0  0  0  0  0  0  0  0
    4.2735   -6.5032   23.8590 C   0  0  0  0  0  0  0  0  0  0  0  0
    3.4650   -6.6630   23.1516 H   0  0  0  0  0  0  0  0  0  0  0  0
    5.2517   -5.5355   23.5954 C   0  0  0  0  0  0  0  0  0  0  0  0
    5.1832   -4.9421   22.6847 H   0  0  0  0  0  0  0  0  0  0  0  0
    8.9801   -1.6301   25.1497 C   0  0  0  0  0  0  0  0  0  0  0  0
    9.1306   -2.3276   25.9699 H   0  0  0  0  0  0  0  0  0  0  0  0
    9.8904   -1.3019   24.6617 H   0  0  0  0  0  0  0  0  0  0  0  0
    7.8338   -0.6744   25.2544 C   0  0  0  0  0  0  0  0  0  0  0  0
    7.9707    0.3236   24.8507 H   0  0  0  0  0  0  0  0  0  0  0  0
    7.1956   -0.7084   26.1340 H   0  0  0  0  0  0  0  0  0  0  0  0
    6.9334   -0.7727   22.1805 O   0  0  0  0  0  0  0  0  0  0  0  0
    5.4265    0.6567   20.1688 C   0  0  0  0  0  0  0  0  0  0  0  0
    4.9896    0.6422   21.1716 H   0  0  0  0  0  0  0  0  0  0  0  0
    4.8021    1.3110   19.1089 C   0  0  0  0  0  0  0  0  0  0  0  0
    3.8708    1.8456   19.2538 H   0  0  0  0  0  0  0  0  0  0  0  0
  1  2  1  0
  2  3  2  0
  3  4  1  0
  4  5  1  0
  4  6  2  0
  6  7  1  0
  7  8  2  0
  8  9  1  0
  9 10  2  0
 10 11  1  0
 11 12  1  0
 12 13  1  0
 12 14  1  0
 14 15  1  0
 14 16  1  0
 14 17  1  0
 17 18  2  0
 18 19  1  0
 18 20  1  0
 20 21  1  0
 20 22  2  0
 22 23  1  0
 23 24  1  0
 24 25  1  0
 24 26  1  0
 24 27  1  0
 22 28  1  0
 28 29  1  0
 28 30  2  0
 30 31  1  0
 11 32  1  0
 32 33  1  0
 32 34  1  0
 32 35  1  0
 35 36  1  0
 35 37  1  0
 10 38  1  0
  6 39  1  0
 39 40  1  0
 39 41  2  0
 41 42  1  0
 41  2  1  0
 38  7  1  0
 35 11  1  0
 30 17  1  0
M  END
>  <plip>  (1) 
-0.034482758620689655

>  <filename>  (1) 
[H][c]1[n][c]([H])[c](-[c]2[n][n][c]([C]3([N]([H])[C]([H])([H])[c]4[c]([H])[c]([H])[c]([O][C]([H])([H])[H])[c]([H])[c]4[H])[C]([H])([H])[C]3([H])[H])[o]2)[c]([H])[c]1[H]

$$$$
