
     RDKit          3D

 35 37  0  0  0  0  0  0  0  0999 V2000
    4.9384    1.7938   16.9924 H   0  0  0  0  0  0  0  0  0  0  0  0
    5.4057    1.2899   17.8331 C   0  0  0  0  0  0  0  0  0  0  0  0
    6.5666    0.6619   17.5818 N   0  0  0  0  0  0  0  0  0  0  0  0
    7.1732    0.0424   18.6046 C   0  0  0  0  0  0  0  0  0  0  0  0
    8.1170   -0.4374   18.3528 H   0  0  0  0  0  0  0  0  0  0  0  0
    6.6770   -0.0029   19.9436 C   0  0  0  0  0  0  0  0  0  0  0  0
    7.3497   -0.6543   20.9858 N   0  0  0  0  0  0  0  0  0  0  0  0
    8.3472   -1.6647   20.7519 C   0  0  0  0  0  0  0  0  0  0  0  0
    9.2389   -1.2677   20.2508 H   0  0  0  0  0  0  0  0  0  0  0  0
    7.8601   -2.4040   20.1402 H   0  0  0  0  0  0  0  0  0  0  0  0
    8.6152   -2.2416   22.1414 C   0  0  0  0  0  0  0  0  0  0  0  0
    9.6739   -2.3615   22.3895 H   0  0  0  0  0  0  0  0  0  0  0  0
    8.1383   -3.2232   22.2416 H   0  0  0  0  0  0  0  0  0  0  0  0
    8.0462   -1.3246   23.0538 O   0  0  0  0  0  0  0  0  0  0  0  0
    7.1439   -0.4518   22.4056 C   0  0  1  0  0  0  0  0  0  0  0  0
    6.1155   -0.7180   22.7041 H   0  0  0  0  0  0  0  0  0  0  0  0
    7.4188    0.9720   22.8311 C   0  0  0  0  0  0  0  0  0  0  0  0
    8.6367    1.5745   22.5083 C   0  0  0  0  0  0  0  0  0  0  0  0
    9.3907    1.0142   21.9593 H   0  0  0  0  0  0  0  0  0  0  0  0
    8.8987    2.8897   22.8815 C   0  0  0  0  0  0  0  0  0  0  0  0
    9.8458    3.3511   22.6193 H   0  0  0  0  0  0  0  0  0  0  0  0
    7.9376    3.6272   23.5906 C   0  0  0  0  0  0  0  0  0  0  0  0
    8.0900    4.9017   24.0108 O   0  0  0  0  0  0  0  0  0  0  0  0
    9.2862    5.5996   23.7276 C   0  0  0  0  0  0  0  0  0  0  0  0
   10.1559    5.1098   24.1883 H   0  0  0  0  0  0  0  0  0  0  0  0
    9.1302    6.5848   24.1684 H   0  0  0  0  0  0  0  0  0  0  0  0
    9.4577    5.6889   22.6453 H   0  0  0  0  0  0  0  0  0  0  0  0
    6.7069    3.0025   23.9054 C   0  0  0  0  0  0  0  0  0  0  0  0
    5.7659    3.6830   24.5835 F   0  0  0  0  0  0  0  0  0  0  0  0
    6.4479    1.6978   23.5308 C   0  0  0  0  0  0  0  0  0  0  0  0
    5.4815    1.2763   23.8066 H   0  0  0  0  0  0  0  0  0  0  0  0
    5.4480    0.6509   20.1644 C   0  0  0  0  0  0  0  0  0  0  0  0
    5.0107    0.6417   21.1596 H   0  0  0  0  0  0  0  0  0  0  0  0
    4.8176    1.3032   19.1025 C   0  0  0  0  0  0  0  0  0  0  0  0
    3.8810    1.8324   19.2531 H   0  0  0  0  0  0  0  0  0  0  0  0
  1  2  1  0
  2  3  2  0
  3  4  1  0
  4  5  1  0
  4  6  2  0
  6  7  1  0
  7  8  1  0
  8  9  1  0
  8 10  1  0
  8 11  1  0
 11 12  1  0
 11 13  1  0
 11 14  1  0
 14 15  1  0
 15 16  1  1
 15 17  1  0
 17 18  2  0
 18 19  1  0
 18 20  1  0
 20 21  1  0
 20 22  2  0
 22 23  1  0
 23 24  1  0
 24 25  1  0
 24 26  1  0
 24 27  1  0
 22 28  1  0
 28 29  1  0
 28 30  2  0
 30 31  1  0
  6 32  1  0
 32 33  1  0
 32 34  2  0
 34 35  1  0
 34  2  1  0
 15  7  1  0
 30 17  1  0
M  END
>  <plip>  (1) 
-0.03571428571428571

>  <filename>  (1) 
[H][c]1[n][c]([H])[c]([N]2[C]([H])([H])[C]([H])([H])[O][C@@]2([H])[c]2[c]([H])[c]([H])[c]([O][C]([H])([H])[H])[c]([F])[c]2[H])[c]([H])[c]1[H]

$$$$
