
     RDKit          3D

 47 49  0  0  0  0  0  0  0  0999 V2000
   11.5688    1.2579   23.5728 C   0  0  0  0  0  0  0  0  0  0  0  0
   10.1740    1.0837   23.6331 O   0  0  0  0  0  0  0  0  0  0  0  0
    9.7351   -0.2449   23.4579 C   0  0  0  0  0  0  0  0  0  0  0  0
    8.2145   -0.2555   23.4567 C   0  0  0  0  0  0  0  0  0  0  0  0
    7.5369    0.4875   22.2937 C   0  0  0  0  0  0  0  0  0  0  0  0
    7.8410   -0.0457   20.8776 C   0  0  0  0  0  0  0  0  0  0  0  0
    7.4407   -1.4533   20.7561 N   0  0  0  0  0  0  0  0  0  0  0  0
    6.1329   -1.8228   20.8165 C   0  0  0  0  0  0  0  0  0  0  0  0
    5.2446   -1.0450   21.1179 O   0  0  0  0  0  0  0  0  0  0  0  0
    5.8945   -3.2524   20.4904 C   0  0  0  0  0  0  0  0  0  0  0  0
    5.9105   -3.8260   19.2502 C   0  0  0  0  0  0  0  0  0  0  0  0
    5.6829   -5.1568   19.3011 N   0  0  0  0  0  0  0  0  0  0  0  0
    5.5058   -5.4359   20.5801 C   0  0  0  0  0  0  0  0  0  0  0  0
    5.2068   -6.6848   21.1864 C   0  0  0  0  0  0  0  0  0  0  0  0
    4.9487   -6.7368   22.5277 C   0  0  0  0  0  0  0  0  0  0  0  0
    4.9993   -5.5508   23.3223 C   0  0  0  0  0  0  0  0  0  0  0  0
    5.3369   -4.3382   22.7662 C   0  0  0  0  0  0  0  0  0  0  0  0
    5.5032   -3.1263   23.6313 C   0  0  0  0  0  0  0  0  0  0  0  0
    6.2794   -3.3242   24.3811 H   0  0  0  0  0  0  0  0  0  0  0  0
    5.7851   -2.2389   23.0720 H   0  0  0  0  0  0  0  0  0  0  0  0
    4.5655   -2.9194   24.1624 H   0  0  0  0  0  0  0  0  0  0  0  0
    5.5864   -4.2904   21.3842 N   0  0  0  0  0  0  0  0  0  0  0  0
    4.7879   -5.6212   24.3865 H   0  0  0  0  0  0  0  0  0  0  0  0
    4.6909   -7.6807   23.0001 H   0  0  0  0  0  0  0  0  0  0  0  0
    5.1458   -7.5440   20.5351 H   0  0  0  0  0  0  0  0  0  0  0  0
    6.0962   -3.3266   18.2972 H   0  0  0  0  0  0  0  0  0  0  0  0
    8.0560   -2.1242   20.3357 H   0  0  0  0  0  0  0  0  0  0  0  0
    7.1902    0.7465   19.7449 C   0  0  0  0  0  0  0  0  0  0  0  0
    6.0453    1.5314   19.9150 C   0  0  0  0  0  0  0  0  0  0  0  0
    5.3430    1.9710   18.7883 C   0  0  0  0  0  0  0  0  0  0  0  0
    5.8504    1.6701   17.5215 C   0  0  0  0  0  0  0  0  0  0  0  0
    6.9854    0.9774   17.3323 N   0  0  0  0  0  0  0  0  0  0  0  0
    7.6255    0.5338   18.4260 C   0  0  0  0  0  0  0  0  0  0  0  0
    8.5481   -0.0135   18.2180 H   0  0  0  0  0  0  0  0  0  0  0  0
    5.3276    2.0116   16.6293 H   0  0  0  0  0  0  0  0  0  0  0  0
    4.4313    2.5495   18.9001 H   0  0  0  0  0  0  0  0  0  0  0  0
    5.6811    1.7512   20.9201 H   0  0  0  0  0  0  0  0  0  0  0  0
    8.9298   -0.0269   20.7253 H   0  0  0  0  0  0  0  0  0  0  0  0
    6.4595    0.4277   22.4636 H   0  0  0  0  0  0  0  0  0  0  0  0
    7.8131    1.5484   22.3301 H   0  0  0  0  0  0  0  0  0  0  0  0
    7.8809    0.1967   24.3991 H   0  0  0  0  0  0  0  0  0  0  0  0
    7.8654   -1.2971   23.4881 H   0  0  0  0  0  0  0  0  0  0  0  0
   10.1353   -0.6776   22.5251 H   0  0  0  0  0  0  0  0  0  0  0  0
   10.0971   -0.8771   24.2873 H   0  0  0  0  0  0  0  0  0  0  0  0
   11.9544    1.1005   22.5512 H   0  0  0  0  0  0  0  0  0  0  0  0
   11.7770    2.2894   23.8775 H   0  0  0  0  0  0  0  0  0  0  0  0
   12.1052    0.5779   24.2579 H   0  0  0  0  0  0  0  0  0  0  0  0
  1  2  1  0
  2  3  1  0
  3  4  1  0
  4  5  1  0
  5  6  1  0
  6  7  1  0
  7  8  1  0
  8  9  2  0
  8 10  1  0
 10 11  2  0
 11 12  1  0
 12 13  2  0
 13 14  1  0
 14 15  2  0
 15 16  1  0
 16 17  2  0
 17 18  1  0
 18 19  1  0
 18 20  1  0
 18 21  1  0
 17 22  1  0
 16 23  1  0
 15 24  1  0
 14 25  1  0
 11 26  1  0
  7 27  1  0
  6 28  1  0
 28 29  2  0
 29 30  1  0
 30 31  2  0
 31 32  1  0
 32 33  2  0
 33 34  1  0
 31 35  1  0
 30 36  1  0
 29 37  1  0
  6 38  1  0
  5 39  1  0
  5 40  1  0
  4 41  1  0
  4 42  1  0
  3 43  1  0
  3 44  1  0
  1 45  1  0
  1 46  1  0
  1 47  1  0
 22 10  1  0
 33 28  1  0
 22 13  1  0
M  END
>  <plip>  (1) 
-0.13333333333333333

>  <filename>  (1) 
[H][c]1[n][c]([H])[c]([C]([H])([N]([H])[C](=[O])[c]2[c]([H])[n][c]3[c]([H])[c]([H])[c]([H])[c]([C]([H])([H])[H])[n]23)[C]([H])([H])[C]([H])([H])[C]([H])([H])[O][C]([H])([H])[H])[c]([H])[c]1[H]

$$$$
