
     RDKit          3D

 43 44  0  0  0  0  0  0  0  0999 V2000
    5.7238    3.9326   22.5174 C   0  0  0  0  0  0  0  0  0  0  0  0
    6.0903    2.9473   23.6356 C   0  0  0  0  0  0  0  0  0  0  0  0
    7.4748    2.3118   23.4360 C   0  0  0  0  0  0  0  0  0  0  0  0
    7.7968    1.5500   24.6134 O   0  0  0  0  0  0  0  0  0  0  0  0
    9.0874    1.1579   24.8231 C   0  0  0  0  0  0  0  0  0  0  0  0
   10.1137    1.2711   23.8721 C   0  0  0  0  0  0  0  0  0  0  0  0
   11.3859    0.7480   24.1278 C   0  0  0  0  0  0  0  0  0  0  0  0
   11.6483    0.1105   25.3373 C   0  0  0  0  0  0  0  0  0  0  0  0
   10.6445    0.0256   26.3117 C   0  0  0  0  0  0  0  0  0  0  0  0
    9.3840    0.5396   26.0553 C   0  0  0  0  0  0  0  0  0  0  0  0
    8.4309    0.4264   26.9959 F   0  0  0  0  0  0  0  0  0  0  0  0
   10.7647   -0.4922   27.2552 H   0  0  0  0  0  0  0  0  0  0  0  0
   12.6232   -0.3354   25.5029 H   0  0  0  0  0  0  0  0  0  0  0  0
   12.1522    0.8177   23.3579 H   0  0  0  0  0  0  0  0  0  0  0  0
    9.8971    1.7417   22.9183 H   0  0  0  0  0  0  0  0  0  0  0  0
    7.5866    1.4999   22.1133 C   0  0  0  0  0  0  0  0  0  0  0  0
    8.0324    2.0387   21.1113 O   0  0  0  0  0  0  0  0  0  0  0  0
    7.1364    0.1980   22.1517 N   0  0  0  0  0  0  0  0  0  0  0  0
    7.2604   -0.6879   20.9750 C   0  0  0  0  0  0  0  0  0  0  0  0
    8.7548   -1.0327   20.7866 C   0  0  0  0  0  0  0  0  0  0  0  0
    8.9083   -1.6663   19.9102 H   0  0  0  0  0  0  0  0  0  0  0  0
    9.1267   -1.5653   21.6684 H   0  0  0  0  0  0  0  0  0  0  0  0
    9.3477   -0.1188   20.6629 H   0  0  0  0  0  0  0  0  0  0  0  0
    6.3866   -2.3266   21.2978 C   0  0  0  0  0  0  0  0  0  0  0  0
    6.7403   -2.8111   22.3713 O   0  0  0  0  0  0  0  0  0  0  0  0
    5.6448   -2.7125   20.4019 O   0  0  0  0  0  1  0  0  0  0  0  0
    6.6149    0.0044   19.7822 C   0  0  0  0  0  0  0  0  0  0  0  0
    5.3356    0.5755   19.9108 C   0  0  0  0  0  0  0  0  0  0  0  0
    4.7797    1.2529   18.8230 C   0  0  0  0  0  0  0  0  0  0  0  0
    5.5144    1.3276   17.6347 C   0  0  0  0  0  0  0  0  0  0  0  0
    6.7238    0.7739   17.4714 N   0  0  0  0  0  0  0  0  0  0  0  0
    7.2468    0.1445   18.5370 C   0  0  0  0  0  0  0  0  0  0  0  0
    8.2408   -0.2757   18.3834 H   0  0  0  0  0  0  0  0  0  0  0  0
    5.0996    1.8311   16.7650 H   0  0  0  0  0  0  0  0  0  0  0  0
    3.8065    1.7298   18.8872 H   0  0  0  0  0  0  0  0  0  0  0  0
    4.8125    0.5070   20.8671 H   0  0  0  0  0  0  0  0  0  0  0  0
    7.2446   -0.2433   23.0566 H   0  0  0  0  0  0  0  0  0  0  0  0
    8.2040    3.1243   23.3239 H   0  0  0  0  0  0  0  0  0  0  0  0
    5.3164    2.1717   23.7170 H   0  0  0  0  0  0  0  0  0  0  0  0
    6.1151    3.4640   24.6030 H   0  0  0  0  0  0  0  0  0  0  0  0
    5.6901    3.4445   21.5345 H   0  0  0  0  0  0  0  0  0  0  0  0
    6.4576    4.7448   22.4481 H   0  0  0  0  0  0  0  0  0  0  0  0
    4.7427    4.3896   22.6941 H   0  0  0  0  0  0  0  0  0  0  0  0
  1  2  1  0
  2  3  1  0
  3  4  1  0
  4  5  1  0
  5  6  2  0
  6  7  1  0
  7  8  2  0
  8  9  1  0
  9 10  2  0
 10 11  1  0
  9 12  1  0
  8 13  1  0
  7 14  1  0
  6 15  1  0
  3 16  1  0
 16 17  2  0
 16 18  1  0
 18 19  1  0
 19 20  1  0
 20 21  1  0
 20 22  1  0
 20 23  1  0
 19 24  1  0
 24 25  2  0
 24 26  1  0
 19 27  1  0
 27 28  2  0
 28 29  1  0
 29 30  2  0
 30 31  1  0
 31 32  2  0
 32 33  1  0
 30 34  1  0
 29 35  1  0
 28 36  1  0
 18 37  1  0
  3 38  1  0
  2 39  1  0
  2 40  1  0
  1 41  1  0
  1 42  1  0
  1 43  1  0
 10  5  1  0
 32 27  1  0
M  CHG  1  26  -1
M  END
>  <plip>  (1) 
-0.10344827586206896

>  <filename>  (1) 
[H][c]1[n][c]([H])[c]([C]([C](=[O])[O-])([N]([H])[C](=[O])[C]([H])([O][c]2[c]([H])[c]([H])[c]([H])[c]([H])[c]2[F])[C]([H])([H])[C]([H])([H])[H])[C]([H])([H])[H])[c]([H])[c]1[H]

$$$$
