
     RDKit          3D

 25 27  0  0  0  0  0  0  0  0999 V2000
    4.9336    1.7871   16.9870 H   0  0  0  0  0  0  0  0  0  0  0  0
    5.4015    1.2927   17.8338 C   0  0  0  0  0  0  0  0  0  0  0  0
    6.5649    0.6670   17.5899 N   0  0  0  0  0  0  0  0  0  0  0  0
    7.1661    0.0606   18.6132 C   0  0  0  0  0  0  0  0  0  0  0  0
    8.1089   -0.4377   18.3842 H   0  0  0  0  0  0  0  0  0  0  0  0
    6.6537    0.0523   19.9227 C   0  0  0  0  0  0  0  0  0  0  0  0
    7.3822   -0.6731   20.9549 C   0  0  0  0  0  0  0  0  0  0  0  0
    7.9570   -1.8378   20.7825 N   0  0  0  0  0  0  0  0  0  0  0  0
    8.4223   -2.2295   21.9844 N   0  0  0  0  0  0  0  0  0  0  0  0
    8.1779   -1.3556   22.8845 N   0  0  0  0  0  0  0  0  0  0  0  0
    7.5066   -0.3423   22.2720 N   0  0  0  0  0  0  0  0  0  0  0  0
    7.2137    0.9150   22.8474 C   0  0  0  0  0  0  0  0  0  0  0  0
    7.2362    1.8984   22.1437 O   0  0  0  0  0  0  0  0  0  0  0  0
    6.8574    0.9237   24.2867 C   0  0  0  0  0  0  0  0  0  0  0  0
    6.7666    2.4406   25.1020 S   0  0  0  0  0  0  0  0  0  0  0  0
    6.3151    1.6805   26.5662 C   0  0  0  0  0  0  0  0  0  0  0  0
    6.1399    2.2686   27.4592 H   0  0  0  0  0  0  0  0  0  0  0  0
    6.2183    0.3245   26.4379 C   0  0  0  0  0  0  0  0  0  0  0  0
    5.9506   -0.3441   27.2538 H   0  0  0  0  0  0  0  0  0  0  0  0
    6.5241   -0.1168   25.1243 C   0  0  0  0  0  0  0  0  0  0  0  0
    6.5234   -1.1548   24.7987 H   0  0  0  0  0  0  0  0  0  0  0  0
    5.4149    0.6699   20.1558 C   0  0  0  0  0  0  0  0  0  0  0  0
    4.9562    0.6573   21.1470 H   0  0  0  0  0  0  0  0  0  0  0  0
    4.7948    1.3113   19.0922 C   0  0  0  0  0  0  0  0  0  0  0  0
    3.8673    1.8467   19.2444 H   0  0  0  0  0  0  0  0  0  0  0  0
  1  2  1  0
  2  3  2  0
  3  4  1  0
  4  5  1  0
  4  6  2  0
  6  7  1  0
  7  8  2  0
  8  9  1  0
  9 10  2  0
 10 11  1  0
 11 12  1  0
 12 13  2  0
 12 14  1  0
 14 15  1  0
 15 16  1  0
 16 17  1  0
 16 18  2  0
 18 19  1  0
 18 20  1  0
 20 21  1  0
  6 22  1  0
 22 23  1  0
 22 24  2  0
 24 25  1  0
 24  2  1  0
 11  7  1  0
 20 14  2  0
M  END
>  <plip>  (1) 
-0.0

>  <filename>  (1) 
[H][c]1[n][c]([H])[c](-[c]2[n][n][n][n]2[C](=[O])[c]2[s][c]([H])[c]([H])[c]2[H])[c]([H])[c]1[H]

$$$$
