
     RDKit          3D

 27 29  0  0  0  0  0  0  0  0999 V2000
    9.4749    0.0486   20.3579 O   0  0  0  0  0  0  0  0  0  0  0  0
    8.7461   -0.5653   21.1188 C   0  0  0  0  0  0  0  0  0  0  0  0
    7.3879   -0.6474   20.9415 N   0  0  0  0  0  0  0  0  0  0  0  0
    6.6705   -0.0198   19.8887 C   0  0  0  0  0  0  0  0  0  0  0  0
    5.4505    0.6136   20.1536 C   0  0  0  0  0  0  0  0  0  0  0  0
    4.8065    1.2899   19.1068 C   0  0  0  0  0  0  0  0  0  0  0  0
    5.3879    1.2902   17.8344 C   0  0  0  0  0  0  0  0  0  0  0  0
    6.5436    0.6639   17.5554 N   0  0  0  0  0  0  0  0  0  0  0  0
    7.1675    0.0435   18.5626 C   0  0  0  0  0  0  0  0  0  0  0  0
    8.1222   -0.4164   18.3343 H   0  0  0  0  0  0  0  0  0  0  0  0
    4.9211    1.8156   17.0030 H   0  0  0  0  0  0  0  0  0  0  0  0
    3.8803    1.8302   19.2702 H   0  0  0  0  0  0  0  0  0  0  0  0
    5.0464    0.6040   21.1669 H   0  0  0  0  0  0  0  0  0  0  0  0
    6.8750   -1.1169   21.6719 H   0  0  0  0  0  0  0  0  0  0  0  0
    9.2866   -1.3464   22.2953 C   0  0  0  0  0  0  0  0  0  0  0  0
   10.4639   -2.0786   22.1209 C   0  0  0  0  0  0  0  0  0  0  0  0
   11.0264   -2.8239   23.1668 C   0  0  0  0  0  0  0  0  0  0  0  0
   10.4474   -2.8314   24.4319 C   0  0  0  0  0  0  0  0  0  0  0  0
    9.3100   -2.0421   24.6683 C   0  0  0  0  0  0  0  0  0  0  0  0
    8.7200   -1.3339   23.5946 C   0  0  0  0  0  0  0  0  0  0  0  0
    7.3272   -0.4913   24.1981 S   0  0  0  0  0  0  0  0  0  0  0  0
    7.6666   -1.1198   25.7909 C   0  0  0  0  0  0  0  0  0  0  0  0
    8.6924   -1.8874   25.9084 N   0  0  0  0  0  0  0  0  0  0  0  0
    7.0084   -0.8549   26.6140 H   0  0  0  0  0  0  0  0  0  0  0  0
   10.8586   -3.4228   25.2455 H   0  0  0  0  0  0  0  0  0  0  0  0
   11.9614   -3.3473   23.0080 H   0  0  0  0  0  0  0  0  0  0  0  0
   10.9671   -2.0474   21.1584 H   0  0  0  0  0  0  0  0  0  0  0  0
  1  2  2  0
  2  3  1  0
  3  4  1  0
  4  5  2  0
  5  6  1  0
  6  7  2  0
  7  8  1  0
  8  9  2  0
  9 10  1  0
  7 11  1  0
  6 12  1  0
  5 13  1  0
  3 14  1  0
  2 15  1  0
 15 16  2  0
 16 17  1  0
 17 18  2  0
 18 19  1  0
 19 20  2  0
 20 21  1  0
 21 22  1  0
 22 23  2  0
 22 24  1  0
 18 25  1  0
 17 26  1  0
 16 27  1  0
  9  4  1  0
 20 15  1  0
 23 19  1  0
M  END
>  <plip>  (1) 
-0.10714285714285714

>  <filename>  (1) 
[H][c]1[n][c]2[c]([H])[c]([H])[c]([H])[c]([C](=[O])[N]([H])[c]3[c]([H])[n][c]([H])[c]([H])[c]3[H])[c]2[s]1

$$$$
