
     RDKit          3D

 33 35  0  0  0  0  0  0  0  0999 V2000
    4.9682    1.7792   16.9451 H   0  0  0  0  0  0  0  0  0  0  0  0
    5.4197    1.2767   17.7990 C   0  0  0  0  0  0  0  0  0  0  0  0
    6.5814    0.6433   17.5685 N   0  0  0  0  0  0  0  0  0  0  0  0
    7.1720    0.0486   18.6083 C   0  0  0  0  0  0  0  0  0  0  0  0
    8.1151   -0.4510   18.3912 H   0  0  0  0  0  0  0  0  0  0  0  0
    6.6631    0.0637   19.9205 C   0  0  0  0  0  0  0  0  0  0  0  0
    7.4246   -0.5355   21.0199 C   0  0  0  0  0  0  0  0  0  0  0  0
    7.5249   -0.0393   22.2688 C   0  0  0  0  0  0  0  0  0  0  0  0
    7.1108    0.9058   22.5565 H   0  0  0  0  0  0  0  0  0  0  0  0
    8.1937   -0.7795   23.3152 C   0  0  0  0  0  0  0  0  0  0  0  0
    8.3893   -0.3850   24.4467 O   0  0  0  0  0  0  0  0  0  0  0  0
    8.5974   -2.0636   22.9438 N   0  0  0  0  0  0  0  0  0  0  0  0
    9.2227   -2.8936   23.8747 C   0  0  0  0  0  0  0  0  0  0  0  0
   10.4870   -3.1194   23.5636 N   0  0  0  0  0  0  0  0  0  0  0  0
   11.1971   -3.8550   24.4236 C   0  0  0  0  0  0  0  0  0  0  0  0
   12.2216   -4.0311   24.1240 H   0  0  0  0  0  0  0  0  0  0  0  0
   10.6701   -4.3750   25.6063 C   0  0  0  0  0  0  0  0  0  0  0  0
   11.3058   -4.9384   26.2788 H   0  0  0  0  0  0  0  0  0  0  0  0
    9.3128   -4.1616   25.8844 C   0  0  0  0  0  0  0  0  0  0  0  0
    8.8606   -4.5560   26.7999 H   0  0  0  0  0  0  0  0  0  0  0  0
    8.5176   -3.4614   24.9653 C   0  0  0  0  0  0  0  0  0  0  0  0
    7.0069   -3.4137   25.1253 C   0  0  0  0  0  0  0  0  0  0  0  0
    6.6733   -4.1813   25.8306 H   0  0  0  0  0  0  0  0  0  0  0  0
    6.6758   -2.4440   25.5016 H   0  0  0  0  0  0  0  0  0  0  0  0
    6.4919   -3.5847   24.1733 H   0  0  0  0  0  0  0  0  0  0  0  0
    8.3751   -2.6269   21.7220 C   0  0  0  0  0  0  0  0  0  0  0  0
    8.3935   -3.8135   21.4953 O   0  0  0  0  0  0  0  0  0  0  0  0
    8.0838   -1.7203   20.7335 N   0  0  0  0  0  0  0  0  0  0  0  0
    7.7720   -2.2684   19.9513 H   0  0  0  0  0  0  0  0  0  0  0  0
    5.4264    0.6979   20.1336 C   0  0  0  0  0  0  0  0  0  0  0  0
    4.9600    0.6926   21.1211 H   0  0  0  0  0  0  0  0  0  0  0  0
    4.7983    1.3127   19.0524 C   0  0  0  0  0  0  0  0  0  0  0  0
    3.8562    1.8376   19.1683 H   0  0  0  0  0  0  0  0  0  0  0  0
  1  2  1  0
  2  3  2  0
  3  4  1  0
  4  5  1  0
  4  6  2  0
  6  7  1  0
  7  8  2  0
  8  9  1  0
  8 10  1  0
 10 11  2  0
 10 12  1  0
 12 13  1  0
 13 14  2  0
 14 15  1  0
 15 16  1  0
 15 17  2  0
 17 18  1  0
 17 19  1  0
 19 20  1  0
 19 21  2  0
 21 22  1  0
 22 23  1  0
 22 24  1  0
 22 25  1  0
 12 26  1  0
 26 27  2  0
 26 28  1  0
 28 29  1  0
  6 30  1  0
 30 31  1  0
 30 32  2  0
 32 33  1  0
 32  2  1  0
 28  7  1  0
 21 13  1  0
M  END
>  <plip>  (1) 
-0.034482758620689655

>  <filename>  (1) 
[H][c]1[n][c]([H])[c](-[c]2[c]([H])[c](=[O])[n](-[c]3[n][c]([H])[c]([H])[c]([H])[c]3[C]([H])([H])[H])[c](=[O])[n]2[H])[c]([H])[c]1[H]

$$$$
