
     RDKit          3D

 50 53  0  0  0  0  0  0  0  0999 V2000
    9.1794   -2.9898   26.9424 N   0  0  0  0  0  0  0  0  0  0  0  0
    8.7166   -1.7998   26.4968 C   0  0  0  0  0  0  0  0  0  0  0  0
    7.4104   -1.6927   26.7732 N   0  0  0  0  0  0  0  0  0  0  0  0
    6.7547   -0.7102   26.1610 C   0  0  0  0  0  0  0  0  0  0  0  0
    7.2636    0.1582   25.2907 N   0  0  0  0  0  0  0  0  0  0  0  0
    8.5957    0.0937   25.1870 C   0  0  0  0  0  0  0  0  0  0  0  0
    9.4477   -0.8229   25.7924 C   0  0  0  0  0  0  0  0  0  0  0  0
   10.7862   -0.5387   25.4660 N   0  0  0  0  0  0  0  0  0  0  0  0
   10.6924    0.4704   24.6511 C   0  0  0  0  0  0  0  0  0  0  0  0
    9.3986    0.9074   24.4122 N   0  0  0  0  0  0  0  0  0  0  0  0
    8.9274    1.8053   23.3411 C   0  0  0  0  0  0  0  0  0  0  0  0
    8.6086    1.1269   21.9786 C   0  0  0  0  0  0  0  0  0  0  0  0
    9.2061    1.3920   20.9516 O   0  0  0  0  0  0  0  0  0  0  0  0
    7.6426    0.1852   22.0639 N   0  0  0  0  0  0  0  0  0  0  0  0
    7.3227   -0.7445   20.9993 C   0  0  0  0  0  0  0  0  0  0  0  0
    6.5819   -0.0157   19.8867 C   0  0  0  0  0  0  0  0  0  0  0  0
    5.3597    0.6455   20.0755 C   0  0  0  0  0  0  0  0  0  0  0  0
    4.7832    1.3078   18.9878 C   0  0  0  0  0  0  0  0  0  0  0  0
    5.4439    1.2903   17.7542 C   0  0  0  0  0  0  0  0  0  0  0  0
    6.6132    0.6687   17.5500 N   0  0  0  0  0  0  0  0  0  0  0  0
    7.1575    0.0520   18.6094 C   0  0  0  0  0  0  0  0  0  0  0  0
    8.1256   -0.4212   18.4365 H   0  0  0  0  0  0  0  0  0  0  0  0
    5.0179    1.8014   16.8927 H   0  0  0  0  0  0  0  0  0  0  0  0
    3.8514    1.8523   19.0869 H   0  0  0  0  0  0  0  0  0  0  0  0
    4.8731    0.6627   21.0551 H   0  0  0  0  0  0  0  0  0  0  0  0
    6.5766   -1.9607   21.6084 C   0  0  0  0  0  0  0  0  0  0  0  0
    6.1063   -2.9637   20.5473 C   0  0  0  0  0  0  0  0  0  0  0  0
    5.4160   -4.1962   21.1332 C   0  0  0  0  0  0  0  0  0  0  0  0
    6.3100   -4.8860   22.1702 C   0  0  0  0  0  0  0  0  0  0  0  0
    6.7025   -3.9131   23.2866 C   0  0  0  0  0  0  0  0  0  0  0  0
    7.4031   -2.6749   22.7099 C   0  0  0  0  0  0  0  0  0  0  0  0
    8.3847   -2.9669   22.3097 H   0  0  0  0  0  0  0  0  0  0  0  0
    7.6196   -1.9679   23.5125 H   0  0  0  0  0  0  0  0  0  0  0  0
    5.8053   -3.6020   23.8413 H   0  0  0  0  0  0  0  0  0  0  0  0
    7.3520   -4.4063   24.0206 H   0  0  0  0  0  0  0  0  0  0  0  0
    7.2283   -5.2370   21.6744 H   0  0  0  0  0  0  0  0  0  0  0  0
    5.8130   -5.7762   22.5712 H   0  0  0  0  0  0  0  0  0  0  0  0
    5.1870   -4.9034   20.3258 H   0  0  0  0  0  0  0  0  0  0  0  0
    4.4681   -3.9005   21.6035 H   0  0  0  0  0  0  0  0  0  0  0  0
    6.9935   -3.3451   20.0618 H   0  0  0  0  0  0  0  0  0  0  0  0
    5.5020   -2.4605   19.7798 H   0  0  0  0  0  0  0  0  0  0  0  0
    5.6903   -1.5468   22.0863 H   0  0  0  0  0  0  0  0  0  0  0  0
    8.2632   -1.1136   20.5662 H   0  0  0  0  0  0  0  0  0  0  0  0
    7.1426    0.0862   22.9351 H   0  0  0  0  0  0  0  0  0  0  0  0
    8.0009    2.2673   23.7022 H   0  0  0  0  0  0  0  0  0  0  0  0
    9.6734    2.5770   23.1437 H   0  0  0  0  0  0  0  0  0  0  0  0
   11.5357    0.9643   24.1820 H   0  0  0  0  0  0  0  0  0  0  0  0
    5.6819   -0.6401   26.3692 H   0  0  0  0  0  0  0  0  0  0  0  0
    8.4335   -3.3085   27.5450 H   0  0  0  0  0  0  0  0  0  0  0  0
   10.1028   -2.9399   27.3384 H   0  0  0  0  0  0  0  0  0  0  0  0
  1  2  1  0
  2  3  2  0
  3  4  1  0
  4  5  2  0
  5  6  1  0
  6  7  2  0
  7  8  1  0
  8  9  2  0
  9 10  1  0
 10 11  1  0
 11 12  1  0
 12 13  2  0
 12 14  1  0
 14 15  1  0
 15 16  1  0
 16 17  2  0
 17 18  1  0
 18 19  2  0
 19 20  1  0
 20 21  2  0
 21 22  1  0
 19 23  1  0
 18 24  1  0
 17 25  1  0
 15 26  1  0
 26 27  1  0
 27 28  1  0
 28 29  1  0
 29 30  1  0
 30 31  1  0
 31 32  1  0
 31 33  1  0
 30 34  1  0
 30 35  1  0
 29 36  1  0
 29 37  1  0
 28 38  1  0
 28 39  1  0
 27 40  1  0
 27 41  1  0
 26 42  1  0
 15 43  1  0
 14 44  1  0
 11 45  1  0
 11 46  1  0
  9 47  1  0
  4 48  1  0
  1 49  1  0
  1 50  1  0
  7  2  1  0
 21 16  1  0
 31 26  1  0
 10  6  1  0
M  END
>  <plip>  (1) 
-0.06666666666666667

>  <filename>  (1) 
[H][c]1[n][c]([N]([H])[H])[c]2[n][c]([H])[n]([C]([H])([H])[C](=[O])[N]([H])[C]([H])([c]3[c]([H])[n][c]([H])[c]([H])[c]3[H])[C]3([H])[C]([H])([H])[C]([H])([H])[C]([H])([H])[C]([H])([H])[C]3([H])[H])[c]2[n]1

$$$$
