
     RDKit          3D

 44 46  0  0  0  0  0  0  0  0999 V2000
    5.9946   -4.0300   20.6044 C   0  0  0  0  0  0  0  0  0  0  0  0
    6.6372   -2.8068   20.3628 O   0  0  0  0  0  0  0  0  0  0  0  0
    6.7021   -1.9416   21.4693 C   0  0  0  0  0  0  0  0  0  0  0  0
    7.4252   -0.6629   21.0363 C   0  0  2  0  0  0  0  0  0  0  0  0
    7.6212    0.1865   22.1956 N   0  0  0  0  0  0  0  0  0  0  0  0
    8.4307    1.2760   22.1273 C   0  0  0  0  0  0  0  0  0  0  0  0
    9.2426    1.4742   21.2392 O   0  0  0  0  0  0  0  0  0  0  0  0
    8.3279    2.1815   23.2864 C   0  0  0  0  0  0  0  0  0  0  0  0
    9.4443    2.8404   23.6976 C   0  0  0  0  0  0  0  0  0  0  0  0
    9.3769    3.7149   24.7290 N   0  0  0  0  0  0  0  0  0  0  0  0
    8.2108    4.0653   25.3873 C   0  0  0  0  0  0  0  0  0  0  0  0
    7.0049    3.4458   24.9898 C   0  0  0  0  0  0  0  0  0  0  0  0
    5.8035    3.8263   25.6336 C   0  0  0  0  0  0  0  0  0  0  0  0
    5.8320    4.7465   26.6663 C   0  0  0  0  0  0  0  0  0  0  0  0
    7.0615    5.3130   27.0428 C   0  0  0  0  0  0  0  0  0  0  0  0
    7.0358    6.1849   28.0712 F   0  0  0  0  0  0  0  0  0  0  0  0
    8.2683    5.0350   26.4257 C   0  0  0  0  0  0  0  0  0  0  0  0
    9.5343    5.7440   26.8490 C   0  0  0  0  0  0  0  0  0  0  0  0
    9.9807    6.3217   26.0327 H   0  0  0  0  0  0  0  0  0  0  0  0
   10.2844    5.0354   27.1938 H   0  0  0  0  0  0  0  0  0  0  0  0
    9.3273    6.4219   27.6779 H   0  0  0  0  0  0  0  0  0  0  0  0
    4.9409    5.0503   27.2065 H   0  0  0  0  0  0  0  0  0  0  0  0
    4.8482    3.3974   25.3310 H   0  0  0  0  0  0  0  0  0  0  0  0
    7.0521    2.4203   23.9193 C   0  0  0  0  0  0  0  0  0  0  0  0
    6.0330    1.8036   23.5826 O   0  0  0  0  0  0  0  0  0  0  0  0
   10.2015    4.2115   25.0196 H   0  0  0  0  0  0  0  0  0  0  0  0
   10.4195    2.6869   23.2219 H   0  0  0  0  0  0  0  0  0  0  0  0
    6.7901    0.4171   22.7339 H   0  0  0  0  0  0  0  0  0  0  0  0
    6.6759    0.0809   19.9464 C   0  0  0  0  0  0  0  0  0  0  0  0
    5.4515    0.7291   20.1739 C   0  0  0  0  0  0  0  0  0  0  0  0
    4.8116    1.3348   19.0891 C   0  0  0  0  0  0  0  0  0  0  0  0
    5.4193    1.2883   17.8270 C   0  0  0  0  0  0  0  0  0  0  0  0
    6.5853    0.6751   17.5912 N   0  0  0  0  0  0  0  0  0  0  0  0
    7.1815    0.0937   18.6442 C   0  0  0  0  0  0  0  0  0  0  0  0
    8.1242   -0.4126   18.4353 H   0  0  0  0  0  0  0  0  0  0  0  0
    4.9442    1.7638   16.9687 H   0  0  0  0  0  0  0  0  0  0  0  0
    3.8612    1.8454   19.2058 H   0  0  0  0  0  0  0  0  0  0  0  0
    4.9985    0.7759   21.1712 H   0  0  0  0  0  0  0  0  0  0  0  0
    8.4024   -0.9750   20.6462 H   0  0  0  0  0  0  0  0  0  0  0  0
    5.6916   -1.6810   21.8297 H   0  0  0  0  0  0  0  0  0  0  0  0
    7.2532   -2.3826   22.3136 H   0  0  0  0  0  0  0  0  0  0  0  0
    5.0112   -3.8910   21.0732 H   0  0  0  0  0  0  0  0  0  0  0  0
    6.5786   -4.6871   21.2610 H   0  0  0  0  0  0  0  0  0  0  0  0
    5.8702   -4.5265   19.6377 H   0  0  0  0  0  0  0  0  0  0  0  0
  1  2  1  0
  2  3  1  0
  3  4  1  0
  4  5  1  0
  5  6  1  0
  6  7  2  0
  6  8  1  0
  8  9  2  0
  9 10  1  0
 10 11  1  0
 11 12  2  0
 12 13  1  0
 13 14  2  0
 14 15  1  0
 15 16  1  0
 15 17  2  0
 17 18  1  0
 18 19  1  0
 18 20  1  0
 18 21  1  0
 14 22  1  0
 13 23  1  0
 12 24  1  0
 24 25  2  0
 10 26  1  0
  9 27  1  0
  5 28  1  0
  4 29  1  0
 29 30  2  0
 30 31  1  0
 31 32  2  0
 32 33  1  0
 33 34  2  0
 34 35  1  0
 32 36  1  0
 31 37  1  0
 30 38  1  0
  4 39  1  6
  3 40  1  0
  3 41  1  0
  1 42  1  0
  1 43  1  0
  1 44  1  0
 24  8  1  0
 34 29  1  0
 17 11  1  0
M  END
>  <plip>  (1) 
-0.21428571428571427

>  <filename>  (1) 
[H][c]1[n][c]([H])[c]([C@@]([H])([N]([H])[C](=[O])[c]2[c]([H])[n]([H])[c]3[c]([C]([H])([H])[H])[c]([F])[c]([H])[c]([H])[c]3[c]2=[O])[C]([H])([H])[O][C]([H])([H])[H])[c]([H])[c]1[H]

$$$$
