
     RDKit          3D

 32 33  0  0  0  0  0  0  0  0999 V2000
    4.9203    1.8035   16.9829 H   0  0  0  0  0  0  0  0  0  0  0  0
    5.3925    1.3031   17.8272 C   0  0  0  0  0  0  0  0  0  0  0  0
    6.5546    0.6857   17.5676 N   0  0  0  0  0  0  0  0  0  0  0  0
    7.1603    0.0676   18.5899 C   0  0  0  0  0  0  0  0  0  0  0  0
    8.1057   -0.4157   18.3448 H   0  0  0  0  0  0  0  0  0  0  0  0
    6.6587    0.0023   19.9099 C   0  0  0  0  0  0  0  0  0  0  0  0
    7.4674   -0.7391   20.9856 C   0  0  2  0  0  0  0  0  0  0  0  0
    7.6530   -1.7479   20.5937 H   0  0  0  0  0  0  0  0  0  0  0  0
    6.6704   -1.0598   22.2819 C   0  0  0  0  0  0  0  0  0  0  0  0
    6.1056   -2.1338   22.3606 O   0  0  0  0  0  0  0  0  0  0  0  0
    6.6402   -0.1065   23.4316 C   0  0  0  0  0  0  0  0  0  0  0  0
    6.4959   -0.6427   24.7101 C   0  0  0  0  0  0  0  0  0  0  0  0
    6.4010   -1.7198   24.8520 H   0  0  0  0  0  0  0  0  0  0  0  0
    6.4817    0.0922   25.8280 N   0  0  0  0  0  0  0  0  0  0  0  0
    6.5778    1.4056   25.6967 C   0  0  0  0  0  0  0  0  0  0  0  0
    6.5618    2.2124   26.7702 O   0  0  0  0  0  0  0  0  0  0  0  0
    6.4399    1.6769   28.0861 C   0  0  0  0  0  0  0  0  0  0  0  0
    7.2758    1.0117   28.3395 H   0  0  0  0  0  0  0  0  0  0  0  0
    5.4986    1.1279   28.2213 H   0  0  0  0  0  0  0  0  0  0  0  0
    6.4548    2.5629   28.7222 H   0  0  0  0  0  0  0  0  0  0  0  0
    6.6949    2.0621   24.4562 C   0  0  0  0  0  0  0  0  0  0  0  0
    6.7634    3.1389   24.4755 H   0  0  0  0  0  0  0  0  0  0  0  0
    6.7240    1.2998   23.3067 C   0  0  0  0  0  0  0  0  0  0  0  0
    6.8117    1.7846   22.3274 H   0  0  0  0  0  0  0  0  0  0  0  0
    8.8401   -0.0719   21.2434 C   0  0  0  0  0  0  0  0  0  0  0  0
    9.4964   -0.2075   20.3780 H   0  0  0  0  0  0  0  0  0  0  0  0
    8.7502    1.0063   21.4131 H   0  0  0  0  0  0  0  0  0  0  0  0
    9.3398   -0.5119   22.1121 H   0  0  0  0  0  0  0  0  0  0  0  0
    5.4401    0.6489   20.1484 C   0  0  0  0  0  0  0  0  0  0  0  0
    5.0038    0.6292   21.1489 H   0  0  0  0  0  0  0  0  0  0  0  0
    4.8019    1.3126   19.0932 C   0  0  0  0  0  0  0  0  0  0  0  0
    3.8711    1.8422   19.2448 H   0  0  0  0  0  0  0  0  0  0  0  0
  1  2  1  0
  2  3  2  0
  3  4  1  0
  4  5  1  0
  4  6  2  0
  6  7  1  0
  7  8  1  6
  7  9  1  0
  9 10  2  0
  9 11  1  0
 11 12  2  0
 12 13  1  0
 12 14  1  0
 14 15  2  0
 15 16  1  0
 16 17  1  0
 17 18  1  0
 17 19  1  0
 17 20  1  0
 15 21  1  0
 21 22  1  0
 21 23  2  0
 23 24  1  0
  7 25  1  0
 25 26  1  0
 25 27  1  0
 25 28  1  0
  6 29  1  0
 29 30  1  0
 29 31  2  0
 31 32  1  0
 31  2  1  0
 23 11  1  0
M  END
>  <plip>  (1) 
-0.03571428571428571

>  <filename>  (1) 
[H][c]1[n][c]([H])[c]([C@]([H])([C](=[O])[c]2[c]([H])[n][c]([O][C]([H])([H])[H])[c]([H])[c]2[H])[C]([H])([H])[H])[c]([H])[c]1[H]

$$$$
