
     RDKit          3D

 32 34  0  0  0  0  0  0  0  0999 V2000
    4.9503    1.8234   16.9822 H   0  0  0  0  0  0  0  0  0  0  0  0
    5.4183    1.2846   17.8049 C   0  0  0  0  0  0  0  0  0  0  0  0
    6.5578    0.6397   17.5096 N   0  0  0  0  0  0  0  0  0  0  0  0
    7.1707   -0.0066   18.5007 C   0  0  0  0  0  0  0  0  0  0  0  0
    8.0878   -0.5284   18.2422 H   0  0  0  0  0  0  0  0  0  0  0  0
    6.6991   -0.0330   19.8230 C   0  0  0  0  0  0  0  0  0  0  0  0
    7.5700   -0.7083   20.8380 C   0  0  0  0  0  0  0  0  0  0  0  0
    8.4401   -1.4751   20.4712 O   0  0  0  0  0  0  0  0  0  0  0  0
    7.4957   -0.3357   22.3893 C   0  0  1  0  0  0  0  0  0  0  0  0
    8.4328   -0.8078   22.7332 H   0  0  0  0  0  0  0  0  0  0  0  0
    7.5839    1.1543   22.5813 C   0  0  0  0  0  0  0  0  0  0  0  0
    6.6532    2.0563   23.0117 C   0  0  0  0  0  0  0  0  0  0  0  0
    5.6116    1.8817   23.2771 H   0  0  0  0  0  0  0  0  0  0  0  0
    7.2451    3.2996   23.1574 N   0  0  0  0  0  0  0  0  0  0  0  0
    6.7439    4.1696   23.2280 H   0  0  0  0  0  0  0  0  0  0  0  0
    8.5664    3.2118   22.7709 C   0  0  0  0  0  0  0  0  0  0  0  0
    9.6207    4.1354   22.8593 C   0  0  0  0  0  0  0  0  0  0  0  0
    9.4512    5.1407   23.2285 H   0  0  0  0  0  0  0  0  0  0  0  0
   10.8904    3.7163   22.4770 C   0  0  0  0  0  0  0  0  0  0  0  0
   11.7276    4.4055   22.5239 H   0  0  0  0  0  0  0  0  0  0  0  0
   11.1071    2.4143   21.9635 C   0  0  0  0  0  0  0  0  0  0  0  0
   12.1032    2.1142   21.6630 H   0  0  0  0  0  0  0  0  0  0  0  0
   10.0649    1.5073   21.8662 C   0  0  0  0  0  0  0  0  0  0  0  0
   10.2077    0.5137   21.4508 H   0  0  0  0  0  0  0  0  0  0  0  0
    8.7951    1.8866   22.3485 C   0  0  0  0  0  0  0  0  0  0  0  0
    6.3565   -0.8088   23.2017 N   0  0  0  0  0  0  0  0  0  0  0  0
    6.5176   -0.5104   24.1626 H   0  0  0  0  0  0  0  0  0  0  0  0
    6.2933   -1.8225   23.2454 H   0  0  0  0  0  0  0  0  0  0  0  0
    5.4877    0.6105   20.1152 C   0  0  0  0  0  0  0  0  0  0  0  0
    5.0829    0.5856   21.1300 H   0  0  0  0  0  0  0  0  0  0  0  0
    4.8378    1.2803   19.0778 C   0  0  0  0  0  0  0  0  0  0  0  0
    3.9078    1.8110   19.2385 H   0  0  0  0  0  0  0  0  0  0  0  0
  1  2  1  0
  2  3  2  0
  3  4  1  0
  4  5  1  0
  4  6  2  0
  6  7  1  0
  7  8  2  0
  7  9  1  0
  9 10  1  1
  9 11  1  0
 11 12  2  0
 12 13  1  0
 12 14  1  0
 14 15  1  0
 14 16  1  0
 16 17  2  0
 17 18  1  0
 17 19  1  0
 19 20  1  0
 19 21  2  0
 21 22  1  0
 21 23  1  0
 23 24  1  0
 23 25  2  0
  9 26  1  0
 26 27  1  0
 26 28  1  0
  6 29  1  0
 29 30  1  0
 29 31  2  0
 31 32  1  0
 31  2  1  0
 25 11  1  0
 25 16  1  0
M  END
>  <plip>  (1) 
-0.07142857142857142

>  <filename>  (1) 
[H][c]1[n][c]([H])[c]([C](=[O])[C@@]([H])([c]2[c]([H])[n]([H])[c]3[c]([H])[c]([H])[c]([H])[c]([H])[c]23)[N]([H])[H])[c]([H])[c]1[H]

$$$$
