
     RDKit          3D

 37 38  0  0  0  0  0  0  0  0999 V2000
    6.8744   -6.5550   22.3267 C   0  0  0  0  0  0  0  0  0  0  0  0
    7.3758   -5.2260   22.1376 O   0  0  0  0  0  0  0  0  0  0  0  0
    8.3548   -4.7615   22.9927 C   0  0  0  0  0  0  0  0  0  0  0  0
    8.8084   -5.4655   24.1107 C   0  0  0  0  0  0  0  0  0  0  0  0
    9.7936   -4.9230   24.9355 C   0  0  0  0  0  0  0  0  0  0  0  0
   10.3152   -5.8326   26.5053 Br  0  0  0  0  0  0  0  0  0  0  0  0
   10.4104   -3.7224   24.6016 C   0  0  0  0  0  0  0  0  0  0  0  0
    9.9914   -3.0098   23.4829 C   0  0  0  0  0  0  0  0  0  0  0  0
    8.9300   -3.5074   22.7189 C   0  0  0  0  0  0  0  0  0  0  0  0
    8.4357   -2.7207   21.5597 C   0  0  0  0  0  0  0  0  0  0  0  0
    6.9375   -2.5217   21.7053 C   0  0  0  0  0  0  0  0  0  0  0  0
    6.5352   -1.5456   20.6808 N   0  0  0  0  0  4  0  0  0  0  0  0
    7.1399   -0.2252   20.8422 C   0  0  0  0  0  0  0  0  0  0  0  0
    6.5077    0.4428   19.6843 C   0  0  0  0  0  0  0  0  0  0  0  0
    5.3523    1.2078   19.8393 C   0  0  0  0  0  0  0  0  0  0  0  0
    4.7647    1.7127   18.6838 C   0  0  0  0  0  0  0  0  0  0  0  0
    5.3435    1.4512   17.4367 C   0  0  0  0  0  0  0  0  0  0  0  0
    6.4598    0.7152   17.2941 N   0  0  0  0  0  0  0  0  0  0  0  0
    7.0313    0.2270   18.4043 C   0  0  0  0  0  0  0  0  0  0  0  0
    7.9335   -0.3671   18.2966 H   0  0  0  0  0  0  0  0  0  0  0  0
    4.8719    1.8535   16.5473 H   0  0  0  0  0  0  0  0  0  0  0  0
    3.8628    2.3112   18.7384 H   0  0  0  0  0  0  0  0  0  0  0  0
    4.9145    1.3922   20.8216 H   0  0  0  0  0  0  0  0  0  0  0  0
    6.8791    0.2581   21.7956 H   0  0  0  0  0  0  0  0  0  0  0  0
    8.2335   -0.2498   20.7533 H   0  0  0  0  0  0  0  0  0  0  0  0
    6.7964   -1.8984   19.7569 H   0  0  0  0  0  0  0  0  0  0  0  0
    5.5259   -1.4168   20.6997 H   0  0  0  0  0  0  0  0  0  0  0  0
    6.4333   -3.4896   21.5604 H   0  0  0  0  0  0  0  0  0  0  0  0
    6.7002   -2.1731   22.7224 H   0  0  0  0  0  0  0  0  0  0  0  0
    8.6390   -3.3149   20.6792 H   0  0  0  0  0  0  0  0  0  0  0  0
    8.9478   -1.7531   21.4689 H   0  0  0  0  0  0  0  0  0  0  0  0
   10.4882   -2.0788   23.2185 H   0  0  0  0  0  0  0  0  0  0  0  0
   11.2212   -3.3715   25.2207 H   0  0  0  0  0  0  0  0  0  0  0  0
    8.3816   -6.4295   24.3480 H   0  0  0  0  0  0  0  0  0  0  0  0
    6.3026   -6.8513   21.4397 H   0  0  0  0  0  0  0  0  0  0  0  0
    6.1885   -6.5881   23.1778 H   0  0  0  0  0  0  0  0  0  0  0  0
    7.6957   -7.2658   22.4902 H   0  0  0  0  0  0  0  0  0  0  0  0
  1  2  1  0
  2  3  1  0
  3  4  2  0
  4  5  1  0
  5  6  1  0
  5  7  2  0
  7  8  1  0
  8  9  2  0
  9 10  1  0
 10 11  1  0
 11 12  1  0
 12 13  1  0
 13 14  1  0
 14 15  2  0
 15 16  1  0
 16 17  2  0
 17 18  1  0
 18 19  2  0
 19 20  1  0
 17 21  1  0
 16 22  1  0
 15 23  1  0
 13 24  1  0
 13 25  1  0
 12 26  1  0
 12 27  1  0
 11 28  1  0
 11 29  1  0
 10 30  1  0
 10 31  1  0
  8 32  1  0
  7 33  1  0
  4 34  1  0
  1 35  1  0
  1 36  1  0
  1 37  1  0
  9  3  1  0
 19 14  1  0
M  CHG  1  12   1
M  END
>  <plip>  (1) 
-0.13333333333333333

>  <filename>  (1) 
[H][c]1[n][c]([H])[c]([C]([H])([H])[N+]([H])([H])[C]([H])([H])[C]([H])([H])[c]2[c]([H])[c]([H])[c]([Br])[c]([H])[c]2[O][C]([H])([H])[H])[c]([H])[c]1[H]

$$$$
