
     RDKit          3D

 36 39  0  0  0  0  0  0  0  0999 V2000
    2.6261   -6.5505   24.3304 F   0  0  0  0  0  0  0  0  0  0  0  0
    3.8114   -5.9599   24.5473 C   0  0  0  0  0  0  0  0  0  0  0  0
    4.0404   -5.3284   25.7664 C   0  0  0  0  0  0  0  0  0  0  0  0
    5.2761   -4.7089   25.9824 C   0  0  0  0  0  0  0  0  0  0  0  0
    6.2412   -4.7565   24.9806 C   0  0  0  0  0  0  0  0  0  0  0  0
    7.4201   -4.1452   25.1917 F   0  0  0  0  0  0  0  0  0  0  0  0
    6.0263   -5.4155   23.7632 C   0  0  0  0  0  0  0  0  0  0  0  0
    7.0578   -5.3993   22.6541 C   0  0  0  0  0  0  0  0  0  0  0  0
    6.9015   -4.1840   21.7970 C   0  0  0  0  0  0  0  0  0  0  0  0
    6.1295   -4.1494   20.7425 N   0  0  0  0  0  0  0  0  0  0  0  0
    6.2225   -2.8265   20.3305 O   0  0  0  0  0  0  0  0  0  0  0  0
    7.0415   -2.2039   21.1764 C   0  0  0  0  0  0  0  0  0  0  0  0
    7.3742   -0.7545   20.9866 C   0  0  0  0  0  0  0  0  0  0  0  0
    6.6517   -0.0122   19.8975 C   0  0  0  0  0  0  0  0  0  0  0  0
    5.4374    0.6403   20.1520 C   0  0  0  0  0  0  0  0  0  0  0  0
    4.8024    1.3075   19.1008 C   0  0  0  0  0  0  0  0  0  0  0  0
    5.4002    1.2953   17.8332 C   0  0  0  0  0  0  0  0  0  0  0  0
    6.5629    0.6836   17.5662 N   0  0  0  0  0  0  0  0  0  0  0  0
    7.1632    0.0633   18.5896 C   0  0  0  0  0  0  0  0  0  0  0  0
    8.1134   -0.4204   18.3722 H   0  0  0  0  0  0  0  0  0  0  0  0
    4.9154    1.7856   16.9922 H   0  0  0  0  0  0  0  0  0  0  0  0
    3.8715    1.8454   19.2564 H   0  0  0  0  0  0  0  0  0  0  0  0
    5.0215    0.6261   21.1615 H   0  0  0  0  0  0  0  0  0  0  0  0
    8.8097   -0.3317   21.2814 C   0  0  0  0  0  0  0  0  0  0  0  0
    7.7367    0.0379   22.2363 C   0  0  0  0  0  0  0  0  0  0  0  0
    7.6852   -0.4898   23.1798 H   0  0  0  0  0  0  0  0  0  0  0  0
    7.4254    1.0773   22.2669 H   0  0  0  0  0  0  0  0  0  0  0  0
    9.4998   -1.1149   21.5672 H   0  0  0  0  0  0  0  0  0  0  0  0
    9.2297    0.4560   20.6644 H   0  0  0  0  0  0  0  0  0  0  0  0
    7.5022   -2.9993   22.1035 N   0  0  0  0  0  0  0  0  0  0  0  0
    8.0685   -5.4024   23.0685 H   0  0  0  0  0  0  0  0  0  0  0  0
    6.9454   -6.2825   22.0214 H   0  0  0  0  0  0  0  0  0  0  0  0
    4.7768   -6.0031   23.5453 C   0  0  0  0  0  0  0  0  0  0  0  0
    4.5477   -6.4976   22.6066 H   0  0  0  0  0  0  0  0  0  0  0  0
    5.5088   -4.1973   26.9101 H   0  0  0  0  0  0  0  0  0  0  0  0
    3.2650   -5.3231   26.5238 H   0  0  0  0  0  0  0  0  0  0  0  0
  1  2  1  0
  2  3  2  0
  3  4  1  0
  4  5  2  0
  5  6  1  0
  5  7  1  0
  7  8  1  0
  8  9  1  0
  9 10  2  0
 10 11  1  0
 11 12  1  0
 12 13  1  0
 13 14  1  0
 14 15  2  0
 15 16  1  0
 16 17  2  0
 17 18  1  0
 18 19  2  0
 19 20  1  0
 17 21  1  0
 16 22  1  0
 15 23  1  0
 13 24  1  0
 24 25  1  0
 25 26  1  0
 25 27  1  0
 24 28  1  0
 24 29  1  0
 12 30  2  0
  8 31  1  0
  8 32  1  0
  7 33  2  0
 33 34  1  0
  4 35  1  0
  3 36  1  0
 33  2  1  0
 30  9  1  0
 25 13  1  0
 19 14  1  0
M  END
>  <plip>  (1) 
-0.10344827586206896

>  <filename>  (1) 
[H][c]1[n][c]([H])[c]([C]2([c]3[n][c]([C]([H])([H])[c]4[c]([H])[c]([F])[c]([H])[c]([H])[c]4[F])[n][o]3)[C]([H])([H])[C]2([H])[H])[c]([H])[c]1[H]

$$$$
