
     RDKit          3D

 35 37  0  0  0  0  0  0  0  0999 V2000
    4.8959    1.7855   16.9183 H   0  0  0  0  0  0  0  0  0  0  0  0
    5.3757    1.3312   17.7848 C   0  0  0  0  0  0  0  0  0  0  0  0
    6.5400    0.7005   17.5586 N   0  0  0  0  0  0  0  0  0  0  0  0
    7.1240    0.1040   18.6081 C   0  0  0  0  0  0  0  0  0  0  0  0
    8.0667   -0.3978   18.3901 H   0  0  0  0  0  0  0  0  0  0  0  0
    6.6156    0.1119   19.9321 C   0  0  0  0  0  0  0  0  0  0  0  0
    7.2822   -0.6277   21.0618 C   0  0  0  0  0  0  0  0  0  0  0  0
    7.6184   -2.0100   20.9356 C   0  0  0  0  0  0  0  0  0  0  0  0
    7.2244   -2.5304   20.0708 H   0  0  0  0  0  0  0  0  0  0  0  0
    8.3401   -2.6895   21.8759 C   0  0  0  0  0  0  0  0  0  0  0  0
    8.6499   -3.7149   21.7795 H   0  0  0  0  0  0  0  0  0  0  0  0
    8.7375   -2.0436   23.1128 C   0  0  0  0  0  0  0  0  0  0  0  0
    9.3808   -2.5427   24.0160 O   0  0  0  0  0  0  0  0  0  0  0  0
    8.2781   -0.7302   23.2374 N   0  0  0  0  0  0  0  0  0  0  0  0
    8.5007   -0.3501   24.1426 H   0  0  0  0  0  0  0  0  0  0  0  0
    7.6021   -0.0311   22.2693 C   0  0  0  0  0  0  0  0  0  0  0  0
    7.1990    1.2293   22.5250 O   0  0  0  0  0  0  0  0  0  0  0  0
    7.9993    2.1431   23.1993 C   0  0  0  0  0  0  0  0  0  0  0  0
    7.2845    3.1885   23.7933 C   0  0  0  0  0  0  0  0  0  0  0  0
    6.2071    3.1993   23.6525 H   0  0  0  0  0  0  0  0  0  0  0  0
    7.9731    4.1587   24.5201 C   0  0  0  0  0  0  0  0  0  0  0  0
    7.4168    4.9658   24.9976 H   0  0  0  0  0  0  0  0  0  0  0  0
    9.3715    4.0988   24.6188 C   0  0  0  0  0  0  0  0  0  0  0  0
    9.8949    4.8335   25.2241 H   0  0  0  0  0  0  0  0  0  0  0  0
   10.0978    3.0954   23.9635 C   0  0  0  0  0  0  0  0  0  0  0  0
   11.6062    3.0589   23.9805 C   0  0  0  0  0  0  0  0  0  0  0  0
   12.0117    3.7324   24.7387 H   0  0  0  0  0  0  0  0  0  0  0  0
   11.9493    2.0352   24.1799 H   0  0  0  0  0  0  0  0  0  0  0  0
   12.0086    3.3822   23.0100 H   0  0  0  0  0  0  0  0  0  0  0  0
    9.3975    2.0987   23.2613 C   0  0  0  0  0  0  0  0  0  0  0  0
    9.9537    1.2939   22.7886 H   0  0  0  0  0  0  0  0  0  0  0  0
    5.4265    0.8295   20.1433 C   0  0  0  0  0  0  0  0  0  0  0  0
    5.0324    0.9324   21.1552 H   0  0  0  0  0  0  0  0  0  0  0  0
    4.7767    1.4035   19.0468 C   0  0  0  0  0  0  0  0  0  0  0  0
    3.8156    1.8957   19.1529 H   0  0  0  0  0  0  0  0  0  0  0  0
  1  2  1  0
  2  3  2  0
  3  4  1  0
  4  5  1  0
  4  6  2  0
  6  7  1  0
  7  8  1  0
  8  9  1  0
  8 10  2  0
 10 11  1  0
 10 12  1  0
 12 13  2  0
 12 14  1  0
 14 15  1  0
 14 16  1  0
 16 17  1  0
 17 18  1  0
 18 19  2  0
 19 20  1  0
 19 21  1  0
 21 22  1  0
 21 23  2  0
 23 24  1  0
 23 25  1  0
 25 26  1  0
 26 27  1  0
 26 28  1  0
 26 29  1  0
 25 30  2  0
 30 31  1  0
  6 32  1  0
 32 33  1  0
 32 34  2  0
 34 35  1  0
 34  2  1  0
 16  7  2  0
 30 18  1  0
M  END
>  <plip>  (1) 
-0.07142857142857142

>  <filename>  (1) 
[H][c]1[n][c]([H])[c](-[c]2[c]([H])[c]([H])[c](=[O])[n]([H])[c]2[O][c]2[c]([H])[c]([H])[c]([H])[c]([C]([H])([H])[H])[c]2[H])[c]([H])[c]1[H]

$$$$
