
     RDKit          3D

 41 43  0  0  0  0  0  0  0  0999 V2000
    6.8528   -4.4935   21.0275 C   0  0  0  0  0  0  0  0  0  0  0  0
    7.4380   -3.1842   20.9069 O   0  0  0  0  0  0  0  0  0  0  0  0
    6.6571   -2.1496   21.2598 C   0  0  0  0  0  0  0  0  0  0  0  0
    5.5382   -2.2949   21.6966 O   0  0  0  0  0  0  0  0  0  0  0  0
    7.3760   -0.7681   21.0284 C   0  0  0  0  0  0  0  0  0  0  0  0
    7.5201    0.0358   22.2601 N   0  0  0  0  0  0  0  0  0  0  0  0
    8.2830    1.1799   22.2748 C   0  0  0  0  0  0  0  0  0  0  0  0
    8.9858    1.4979   21.3284 O   0  0  0  0  0  0  0  0  0  0  0  0
    8.1974    1.9614   23.5484 C   0  0  0  0  0  0  0  0  0  0  0  0
    8.9269    3.0647   23.7740 C   0  0  0  0  0  0  0  0  0  0  0  0
    8.9188    3.8726   24.9984 C   0  0  0  0  0  0  0  0  0  0  0  0
    9.6457    5.0024   25.2474 C   0  0  0  0  0  0  0  0  0  0  0  0
   10.7669    5.7033   24.1375 Cl  0  0  0  0  0  0  0  0  0  0  0  0
    9.4136    5.6148   26.5262 C   0  0  0  0  0  0  0  0  0  0  0  0
   10.0171    6.7529   27.1125 C   0  0  0  0  0  0  0  0  0  0  0  0
    9.6421    7.1320   28.3919 C   0  0  0  0  0  0  0  0  0  0  0  0
    8.6679    6.4003   29.1026 C   0  0  0  0  0  0  0  0  0  0  0  0
    8.0455    5.2955   28.5389 C   0  0  0  0  0  0  0  0  0  0  0  0
    8.4368    4.9001   27.2444 C   0  0  0  0  0  0  0  0  0  0  0  0
    7.8956    3.4966   26.3715 S   0  0  0  0  0  0  0  0  0  0  0  0
    7.3356    4.7033   29.1093 H   0  0  0  0  0  0  0  0  0  0  0  0
    8.4100    6.6893   30.1162 H   0  0  0  0  0  0  0  0  0  0  0  0
   10.0947    8.0017   28.8583 H   0  0  0  0  0  0  0  0  0  0  0  0
   10.7571    7.3227   26.5619 H   0  0  0  0  0  0  0  0  0  0  0  0
    9.6049    3.4331   23.0020 H   0  0  0  0  0  0  0  0  0  0  0  0
    7.5188    1.5778   24.3075 H   0  0  0  0  0  0  0  0  0  0  0  0
    6.8477   -0.0622   23.0052 H   0  0  0  0  0  0  0  0  0  0  0  0
    6.6729    0.0288   19.9177 C   0  0  0  0  0  0  0  0  0  0  0  0
    5.4514    0.6704   20.1495 C   0  0  0  0  0  0  0  0  0  0  0  0
    4.8112    1.3161   19.0917 C   0  0  0  0  0  0  0  0  0  0  0  0
    5.4066    1.2928   17.8270 C   0  0  0  0  0  0  0  0  0  0  0  0
    6.5727    0.6814   17.5772 N   0  0  0  0  0  0  0  0  0  0  0  0
    7.1869    0.0829   18.6098 C   0  0  0  0  0  0  0  0  0  0  0  0
    8.1325   -0.4052   18.3644 H   0  0  0  0  0  0  0  0  0  0  0  0
    4.9329    1.7894   16.9799 H   0  0  0  0  0  0  0  0  0  0  0  0
    3.8743    1.8373   19.2370 H   0  0  0  0  0  0  0  0  0  0  0  0
    4.9953    0.6497   21.1407 H   0  0  0  0  0  0  0  0  0  0  0  0
    8.3905   -1.0043   20.6904 H   0  0  0  0  0  0  0  0  0  0  0  0
    6.6103   -4.6971   22.0750 H   0  0  0  0  0  0  0  0  0  0  0  0
    5.9258   -4.5644   20.4467 H   0  0  0  0  0  0  0  0  0  0  0  0
    7.6128   -5.1741   20.6454 H   0  0  0  0  0  0  0  0  0  0  0  0
  1  2  1  0
  2  3  1  0
  3  4  2  0
  3  5  1  0
  5  6  1  0
  6  7  1  0
  7  8  2  0
  7  9  1  0
  9 10  2  3
 10 11  1  0
 11 12  2  0
 12 13  1  0
 12 14  1  0
 14 15  2  0
 15 16  1  0
 16 17  2  0
 17 18  1  0
 18 19  2  0
 19 20  1  0
 18 21  1  0
 17 22  1  0
 16 23  1  0
 15 24  1  0
 10 25  1  0
  9 26  1  0
  6 27  1  0
  5 28  1  0
 28 29  2  0
 29 30  1  0
 30 31  2  0
 31 32  1  0
 32 33  2  0
 33 34  1  0
 31 35  1  0
 30 36  1  0
 29 37  1  0
  5 38  1  0
  1 39  1  0
  1 40  1  0
  1 41  1  0
 20 11  1  0
 33 28  1  0
 19 14  1  0
M  END
>  <plip>  (1) 
-0.17857142857142858

>  <filename>  (1) 
[H][C]([C](=[O])[N]([H])[C]([H])([C](=[O])[O][C]([H])([H])[H])[c]1[c]([H])[n][c]([H])[c]([H])[c]1[H])=[C]([H])[c]1[s][c]2[c]([H])[c]([H])[c]([H])[c]([H])[c]2[c]1[Cl]

$$$$
