
     RDKit          3D

 25 25  0  0  0  0  0  0  0  0999 V2000
    7.9539   -2.4081   20.3165 H   0  0  0  0  0  0  0  0  0  0  0  0
    8.2904   -1.5438   20.6025 O   0  0  0  0  0  0  0  0  0  0  0  0
    7.1258   -0.8457   20.9977 N   0  0  0  0  0  0  0  0  0  0  0  0
    6.5825   -0.0630   19.9453 C   0  0  0  0  0  0  0  0  0  0  0  0
    7.1493   -0.0302   18.6455 C   0  0  0  0  0  0  0  0  0  0  0  0
    8.0771   -0.5670   18.4641 H   0  0  0  0  0  0  0  0  0  0  0  0
    6.6139    0.6307   17.6103 N   0  0  0  0  0  0  0  0  0  0  0  0
    5.4627    1.2914   17.8144 C   0  0  0  0  0  0  0  0  0  0  0  0
    5.0290    1.8015   16.9545 H   0  0  0  0  0  0  0  0  0  0  0  0
    4.8259    1.3343   19.0581 C   0  0  0  0  0  0  0  0  0  0  0  0
    3.9078    1.8972   19.1734 H   0  0  0  0  0  0  0  0  0  0  0  0
    5.3979    0.6651   20.1454 C   0  0  0  0  0  0  0  0  0  0  0  0
    4.9582    0.7097   21.1386 H   0  0  0  0  0  0  0  0  0  0  0  0
    7.2523   -0.3066   22.3584 C   0  0  0  0  0  0  0  0  0  0  0  0
    7.8431   -1.0157   22.9533 H   0  0  0  0  0  0  0  0  0  0  0  0
    6.2559   -0.3311   22.8159 H   0  0  0  0  0  0  0  0  0  0  0  0
    7.8135    1.1162   22.5422 C   0  0  0  0  0  0  0  0  0  0  0  0
    7.1525    1.8560   22.0619 H   0  0  0  0  0  0  0  0  0  0  0  0
    7.7824    1.3050   23.6261 H   0  0  0  0  0  0  0  0  0  0  0  0
    9.2538    1.3424   22.0748 C   0  0  0  0  0  0  0  0  0  0  0  0
    9.3516    1.1908   20.9914 H   0  0  0  0  0  0  0  0  0  0  0  0
    9.5036    2.3996   22.2545 H   0  0  0  0  0  0  0  0  0  0  0  0
   10.2469    0.5162   22.7521 N   0  0  0  0  0  0  0  0  0  0  0  0
   10.1388   -0.4498   22.4523 H   0  0  0  0  0  0  0  0  0  0  0  0
   10.0895    0.5408   23.7580 H   0  0  0  0  0  0  0  0  0  0  0  0
  1  2  1  0
  2  3  1  0
  3  4  1  0
  4  5  2  0
  5  6  1  0
  5  7  1  0
  7  8  2  0
  8  9  1  0
  8 10  1  0
 10 11  1  0
 10 12  2  0
 12 13  1  0
  3 14  1  0
 14 15  1  0
 14 16  1  0
 14 17  1  0
 17 18  1  0
 17 19  1  0
 17 20  1  0
 20 21  1  0
 20 22  1  0
 20 23  1  0
 23 24  1  0
 23 25  1  0
 12  4  1  0
M  END
>  <plip>  (1) 
-0.03571428571428571

>  <filename>  (1) 
[H][O][N]([c]1[c]([H])[n][c]([H])[c]([H])[c]1[H])[C]([H])([H])[C]([H])([H])[C]([H])([H])[N]([H])[H]

$$$$
