
     RDKit          3D

 35 37  0  0  0  0  0  0  0  0999 V2000
    4.9531    1.7888   17.0058 H   0  0  0  0  0  0  0  0  0  0  0  0
    5.4063    1.2741   17.8465 C   0  0  0  0  0  0  0  0  0  0  0  0
    6.5677    0.6499   17.5911 N   0  0  0  0  0  0  0  0  0  0  0  0
    7.1823    0.0427   18.6146 C   0  0  0  0  0  0  0  0  0  0  0  0
    8.1298   -0.4356   18.3695 H   0  0  0  0  0  0  0  0  0  0  0  0
    6.6847    0.0092   19.9525 C   0  0  0  0  0  0  0  0  0  0  0  0
    7.3682   -0.5966   21.0053 N   0  0  0  0  0  0  0  0  0  0  0  0
    8.6402   -1.2752   20.8315 C   0  0  0  0  0  0  0  0  0  0  0  0
    8.5092   -2.0953   20.1304 H   0  0  0  0  0  0  0  0  0  0  0  0
    9.4135   -0.6036   20.4352 H   0  0  0  0  0  0  0  0  0  0  0  0
    8.9348   -1.7926   22.2466 C   0  0  0  0  0  0  0  0  0  0  0  0
    9.2314   -2.8424   22.2482 H   0  0  0  0  0  0  0  0  0  0  0  0
    9.7000   -1.2033   22.7608 H   0  0  0  0  0  0  0  0  0  0  0  0
    7.6967   -1.7065   22.9481 O   0  0  0  0  0  0  0  0  0  0  0  0
    6.8718   -0.7610   22.3405 C   0  0  1  0  0  0  0  0  0  0  0  0
    5.8350   -1.1245   22.3802 H   0  0  0  0  0  0  0  0  0  0  0  0
    6.9431    0.4914   22.9755 O   0  0  0  0  0  0  0  0  0  0  0  0
    6.4214    0.6667   24.2317 C   0  0  0  0  0  0  0  0  0  0  0  0
    6.5231    1.9825   24.7003 C   0  0  0  0  0  0  0  0  0  0  0  0
    6.9814    2.7142   24.0417 H   0  0  0  0  0  0  0  0  0  0  0  0
    6.0541    2.2913   25.9723 C   0  0  0  0  0  0  0  0  0  0  0  0
    6.1420    3.3103   26.3475 H   0  0  0  0  0  0  0  0  0  0  0  0
    5.4723    1.2878   26.7639 C   0  0  0  0  0  0  0  0  0  0  0  0
    5.1008    1.5291   27.7541 H   0  0  0  0  0  0  0  0  0  0  0  0
    5.3591   -0.0298   26.2998 C   0  0  0  0  0  0  0  0  0  0  0  0
    4.7467   -1.1062   27.1739 C   0  0  0  0  0  0  0  0  0  0  0  0
    4.2337   -1.8623   26.5677 H   0  0  0  0  0  0  0  0  0  0  0  0
    5.5137   -1.6192   27.7712 H   0  0  0  0  0  0  0  0  0  0  0  0
    4.0166   -0.6838   27.8757 H   0  0  0  0  0  0  0  0  0  0  0  0
    5.8478   -0.3390   25.0170 C   0  0  0  0  0  0  0  0  0  0  0  0
    5.8084   -1.3527   24.6352 H   0  0  0  0  0  0  0  0  0  0  0  0
    5.4480    0.6518   20.1770 C   0  0  0  0  0  0  0  0  0  0  0  0
    5.0267    0.6672   21.1775 H   0  0  0  0  0  0  0  0  0  0  0  0
    4.8096    1.2900   19.1115 C   0  0  0  0  0  0  0  0  0  0  0  0
    3.8744    1.8231   19.2587 H   0  0  0  0  0  0  0  0  0  0  0  0
  1  2  1  0
  2  3  2  0
  3  4  1  0
  4  5  1  0
  4  6  2  0
  6  7  1  0
  7  8  1  0
  8  9  1  0
  8 10  1  0
  8 11  1  0
 11 12  1  0
 11 13  1  0
 11 14  1  0
 14 15  1  0
 15 16  1  6
 15 17  1  0
 17 18  1  0
 18 19  2  0
 19 20  1  0
 19 21  1  0
 21 22  1  0
 21 23  2  0
 23 24  1  0
 23 25  1  0
 25 26  1  0
 26 27  1  0
 26 28  1  0
 26 29  1  0
 25 30  2  0
 30 31  1  0
  6 32  1  0
 32 33  1  0
 32 34  2  0
 34 35  1  0
 34  2  1  0
 15  7  1  0
 30 18  1  0
M  END
>  <plip>  (1) 
-0.0

>  <filename>  (1) 
[H][c]1[n][c]([H])[c]([N]2[C]([H])([H])[C]([H])([H])[O][C@@]2([H])[O][c]2[c]([H])[c]([H])[c]([H])[c]([C]([H])([H])[H])[c]2[H])[c]([H])[c]1[H]

$$$$
