
     RDKit          3D

 57 59  0  0  0  0  0  0  0  0999 V2000
    5.6764    0.1417   25.2171 C   0  0  0  0  0  0  0  0  0  0  0  0
    5.9907    1.3105   26.1226 C   0  0  0  0  0  0  0  0  0  0  0  0
    4.9697    1.9549   26.8358 C   0  0  0  0  0  0  0  0  0  0  0  0
    5.2277    3.0183   27.7083 C   0  0  0  0  0  0  0  0  0  0  0  0
    6.5472    3.4360   27.8557 C   0  0  0  0  0  0  0  0  0  0  0  0
    6.8196    4.4370   28.7073 F   0  0  0  0  0  0  0  0  0  0  0  0
    7.5889    2.8680   27.1343 C   0  0  0  0  0  0  0  0  0  0  0  0
    7.3060    1.8073   26.2713 C   0  0  0  0  0  0  0  0  0  0  0  0
    8.3579    1.2023   25.5253 N   0  0  0  0  0  0  0  0  0  0  0  0
    9.4549    1.8932   25.0692 C   0  0  0  0  0  0  0  0  0  0  0  0
    9.5018    3.1032   25.0093 O   0  0  0  0  0  0  0  0  0  0  0  0
   10.5531    1.0429   24.4963 C   0  0  0  0  0  0  0  0  0  0  0  0
   10.3785    0.9959   22.9813 C   0  0  0  0  0  0  0  0  0  0  0  0
    9.0303    0.3821   22.7503 N   0  0  0  0  0  4  0  0  0  0  0  0
    8.7310    0.0212   21.3198 C   0  0  0  0  0  0  0  0  0  0  0  0
    7.3581   -0.6457   21.0341 C   0  0  0  0  0  0  0  0  0  0  0  0
    6.6076    0.0074   19.8928 C   0  0  0  0  0  0  0  0  0  0  0  0
    5.3913    0.6743   20.1102 C   0  0  0  0  0  0  0  0  0  0  0  0
    4.7836    1.3334   19.0417 C   0  0  0  0  0  0  0  0  0  0  0  0
    5.3982    1.2988   17.7870 C   0  0  0  0  0  0  0  0  0  0  0  0
    6.5376    0.6299   17.5500 N   0  0  0  0  0  0  0  0  0  0  0  0
    7.1137    0.0024   18.5814 C   0  0  0  0  0  0  0  0  0  0  0  0
    8.0455   -0.5161   18.3467 H   0  0  0  0  0  0  0  0  0  0  0  0
    4.9609    1.8248   16.9381 H   0  0  0  0  0  0  0  0  0  0  0  0
    3.8643    1.8939   19.1667 H   0  0  0  0  0  0  0  0  0  0  0  0
    4.9309    0.6877   21.1011 H   0  0  0  0  0  0  0  0  0  0  0  0
    7.5230   -2.1578   20.6972 N   0  0  0  0  0  4  0  0  0  0  0  0
    6.2307   -2.9211   20.3310 C   0  0  0  0  0  0  0  0  0  0  0  0
    5.3923   -3.1519   21.5851 C   0  0  0  0  0  0  0  0  0  0  0  0
    6.0952   -3.8872   22.5782 O   0  0  0  0  0  0  0  0  0  0  0  0
    7.2980   -3.2347   22.9713 C   0  0  0  0  0  0  0  0  0  0  0  0
    8.2167   -3.0073   21.7611 C   0  0  0  0  0  0  0  0  0  0  0  0
    8.4462   -3.9866   21.3288 H   0  0  0  0  0  0  0  0  0  0  0  0
    9.1647   -2.5559   22.0675 H   0  0  0  0  0  0  0  0  0  0  0  0
    7.0835   -2.2696   23.4617 H   0  0  0  0  0  0  0  0  0  0  0  0
    7.7818   -3.8836   23.7074 H   0  0  0  0  0  0  0  0  0  0  0  0
    4.4727   -3.7003   21.3835 H   0  0  0  0  0  0  0  0  0  0  0  0
    5.1333   -2.1590   21.9502 H   0  0  0  0  0  0  0  0  0  0  0  0
    6.5177   -3.8834   19.8940 H   0  0  0  0  0  0  0  0  0  0  0  0
    5.6744   -2.3455   19.5873 H   0  0  0  0  0  0  0  0  0  0  0  0
    8.0942   -2.1404   19.8231 H   0  0  0  0  0  0  0  0  0  0  0  0
    6.7562   -0.5635   21.9444 H   0  0  0  0  0  0  0  0  0  0  0  0
    9.4991   -0.6741   20.9583 H   0  0  0  0  0  0  0  0  0  0  0  0
    8.8152    0.9148   20.6935 H   0  0  0  0  0  0  0  0  0  0  0  0
    8.9834   -0.4722   23.3576 H   0  0  0  0  0  0  0  0  0  0  0  0
    8.3187    1.0583   23.1306 H   0  0  0  0  0  0  0  0  0  0  0  0
   11.1695    0.4059   22.4976 H   0  0  0  0  0  0  0  0  0  0  0  0
   10.4280    1.9985   22.5353 H   0  0  0  0  0  0  0  0  0  0  0  0
   11.4991    1.5055   24.7769 H   0  0  0  0  0  0  0  0  0  0  0  0
   10.5282    0.0337   24.9163 H   0  0  0  0  0  0  0  0  0  0  0  0
    8.5161    0.2390   25.7735 H   0  0  0  0  0  0  0  0  0  0  0  0
    8.5892    3.2740   27.2306 H   0  0  0  0  0  0  0  0  0  0  0  0
    4.4424    3.5264   28.2610 H   0  0  0  0  0  0  0  0  0  0  0  0
    3.9418    1.6194   26.6944 H   0  0  0  0  0  0  0  0  0  0  0  0
    6.0628   -0.8047   25.6178 H   0  0  0  0  0  0  0  0  0  0  0  0
    6.1173    0.2831   24.2239 H   0  0  0  0  0  0  0  0  0  0  0  0
    4.5974    0.0229   25.0884 H   0  0  0  0  0  0  0  0  0  0  0  0
  1  2  1  0
  2  3  2  0
  3  4  1  0
  4  5  2  0
  5  6  1  0
  5  7  1  0
  7  8  2  0
  8  9  1  0
  9 10  1  0
 10 11  2  0
 10 12  1  0
 12 13  1  0
 13 14  1  0
 14 15  1  0
 15 16  1  0
 16 17  1  0
 17 18  2  0
 18 19  1  0
 19 20  2  0
 20 21  1  0
 21 22  2  0
 22 23  1  0
 20 24  1  0
 19 25  1  0
 18 26  1  0
 16 27  1  0
 27 28  1  0
 28 29  1  0
 29 30  1  0
 30 31  1  0
 31 32  1  0
 32 33  1  0
 32 34  1  0
 31 35  1  0
 31 36  1  0
 29 37  1  0
 29 38  1  0
 28 39  1  0
 28 40  1  0
 27 41  1  0
 16 42  1  0
 15 43  1  0
 15 44  1  0
 14 45  1  0
 14 46  1  0
 13 47  1  0
 13 48  1  0
 12 49  1  0
 12 50  1  0
  9 51  1  0
  7 52  1  0
  4 53  1  0
  3 54  1  0
  1 55  1  0
  1 56  1  0
  1 57  1  0
  8  2  1  0
 22 17  1  0
 32 27  1  0
M  CHG  2  14   1  27   1
M  END
>  <plip>  (1) 
-0.13793103448275862

>  <filename>  (1) 
[H][c]1[n][c]([H])[c]([C]([H])([C]([H])([H])[N+]([H])([H])[C]([H])([H])[C]([H])([H])[C](=[O])[N]([H])[c]2[c]([H])[c]([F])[c]([H])[c]([H])[c]2[C]([H])([H])[H])[N+]2([H])[C]([H])([H])[C]([H])([H])[O][C]([H])([H])[C]2([H])[H])[c]([H])[c]1[H]

$$$$
