
     RDKit          3D

 41 43  0  0  0  0  0  0  0  0999 V2000
    8.1887   -5.5079   22.5840 C   0  0  0  0  0  0  0  0  0  0  0  0
    7.4239   -4.3102   22.0091 C   0  0  0  0  0  0  0  0  0  0  0  0
    8.1442   -2.9780   22.2581 C   0  0  0  0  0  0  0  0  0  0  0  0
    9.3719   -2.9753   21.4947 O   0  0  0  0  0  0  0  0  0  0  0  0
   10.0159   -3.6151   21.8501 H   0  0  0  0  0  0  0  0  0  0  0  0
    7.2627   -1.7613   21.9602 C   0  0  0  0  0  0  0  0  0  0  0  0
    6.6534   -1.5363   20.8207 N   0  0  0  0  0  0  0  0  0  0  0  0
    6.1705   -0.2796   20.9516 N   0  0  0  0  0  0  0  0  0  0  0  0
    5.7684    0.4497   19.8276 C   0  0  0  0  0  0  0  0  0  0  0  0
    4.8905    1.5348   19.8998 C   0  0  0  0  0  0  0  0  0  0  0  0
    4.6287    2.2200   18.7118 C   0  0  0  0  0  0  0  0  0  0  0  0
    5.2419    1.8245   17.5188 C   0  0  0  0  0  0  0  0  0  0  0  0
    6.0570    0.7607   17.4379 N   0  0  0  0  0  0  0  0  0  0  0  0
    6.3005    0.0821   18.5753 C   0  0  0  0  0  0  0  0  0  0  0  0
    6.9732   -0.7698   18.5370 H   0  0  0  0  0  0  0  0  0  0  0  0
    5.0457    2.3890   16.6149 H   0  0  0  0  0  0  0  0  0  0  0  0
    3.9697    3.0796   18.6862 H   0  0  0  0  0  0  0  0  0  0  0  0
    4.4257    1.8441   20.8357 H   0  0  0  0  0  0  0  0  0  0  0  0
    6.4972    0.2211   22.2182 C   0  0  0  0  0  0  0  0  0  0  0  0
    6.3290    1.6339   22.7664 C   0  0  0  0  0  0  0  0  0  0  0  0
    7.5665    2.0997   23.3677 O   0  0  0  0  0  0  0  0  0  0  0  0
    7.5606    3.1709   24.2459 C   0  0  0  0  0  0  0  0  0  0  0  0
    6.5831    4.1771   24.2032 C   0  0  0  0  0  0  0  0  0  0  0  0
    6.6444    5.2915   25.0586 C   0  0  0  0  0  0  0  0  0  0  0  0
    7.6859    5.3982   25.9855 C   0  0  0  0  0  0  0  0  0  0  0  0
    8.6513    4.3866   26.0673 C   0  0  0  0  0  0  0  0  0  0  0  0
    8.5945    3.2855   25.1975 C   0  0  0  0  0  0  0  0  0  0  0  0
    9.9417    1.9323   25.3391 Br  0  0  0  0  0  0  0  0  0  0  0  0
    9.4492    4.4460   26.8029 H   0  0  0  0  0  0  0  0  0  0  0  0
    7.7397    6.2619   26.6436 H   0  0  0  0  0  0  0  0  0  0  0  0
    5.8884    6.0738   25.0013 H   0  0  0  0  0  0  0  0  0  0  0  0
    5.7899    4.0841   23.4749 H   0  0  0  0  0  0  0  0  0  0  0  0
    6.0331    2.2987   21.9509 H   0  0  0  0  0  0  0  0  0  0  0  0
    5.5274    1.6335   23.5118 H   0  0  0  0  0  0  0  0  0  0  0  0
    7.1135   -0.7244   22.8793 N   0  0  0  0  0  0  0  0  0  0  0  0
    8.3872   -2.9117   23.3213 H   0  0  0  0  0  0  0  0  0  0  0  0
    6.4501   -4.2634   22.5019 H   0  0  0  0  0  0  0  0  0  0  0  0
    7.2618   -4.4566   20.9353 H   0  0  0  0  0  0  0  0  0  0  0  0
    8.8442   -5.9504   21.8306 H   0  0  0  0  0  0  0  0  0  0  0  0
    8.7886   -5.2174   23.4508 H   0  0  0  0  0  0  0  0  0  0  0  0
    7.4843   -6.2762   22.9057 H   0  0  0  0  0  0  0  0  0  0  0  0
  1  2  1  0
  2  3  1  0
  3  4  1  0
  4  5  1  0
  3  6  1  0
  6  7  2  0
  7  8  1  0
  8  9  1  0
  9 10  2  0
 10 11  1  0
 11 12  2  0
 12 13  1  0
 13 14  2  0
 14 15  1  0
 12 16  1  0
 11 17  1  0
 10 18  1  0
  8 19  1  0
 19 20  1  0
 20 21  1  0
 21 22  1  0
 22 23  2  0
 23 24  1  0
 24 25  2  0
 25 26  1  0
 26 27  2  0
 27 28  1  0
 26 29  1  0
 25 30  1  0
 24 31  1  0
 23 32  1  0
 20 33  1  0
 20 34  1  0
 19 35  2  0
  3 36  1  0
  2 37  1  0
  2 38  1  0
  1 39  1  0
  1 40  1  0
  1 41  1  0
 35  6  1  0
 14  9  1  0
 27 22  1  0
M  END
>  <plip>  (1) 
-0.13333333333333333

>  <filename>  (1) 
[H][O][C]([H])([c]1[n][c]([C]([H])([H])[O][c]2[c]([H])[c]([H])[c]([H])[c]([H])[c]2[Br])[n](-[c]2[c]([H])[n][c]([H])[c]([H])[c]2[H])[n]1)[C]([H])([H])[C]([H])([H])[H]

$$$$
