
     RDKit          3D

 43 45  0  0  0  0  0  0  0  0999 V2000
    5.0313    1.8454   17.1384 H   0  0  0  0  0  0  0  0  0  0  0  0
    5.4865    1.2307   17.9139 C   0  0  0  0  0  0  0  0  0  0  0  0
    6.6685    0.6751   17.6148 N   0  0  0  0  0  0  0  0  0  0  0  0
    7.2763   -0.0230   18.5849 C   0  0  0  0  0  0  0  0  0  0  0  0
    8.2375   -0.4559   18.3169 H   0  0  0  0  0  0  0  0  0  0  0  0
    6.7525   -0.2186   19.8818 C   0  0  0  0  0  0  0  0  0  0  0  0
    7.5529   -0.8421   21.0041 C   0  0  0  0  0  0  0  0  0  0  0  0
    7.3753   -2.3053   21.3316 C   0  0  0  0  0  0  0  0  0  0  0  0
    8.1495   -3.2131   21.3638 O   0  0  0  0  0  0  0  0  0  0  0  0
    5.9516   -2.3761   21.8043 O   0  0  0  0  0  0  0  0  0  0  0  0
    5.5154   -3.7389   22.0243 O   0  0  0  0  0  0  0  0  0  0  0  0
    4.9004   -3.7007   23.3219 C   0  0  0  0  0  0  0  0  0  0  0  0
    5.6498   -3.3369   24.0501 H   0  0  0  0  0  0  0  0  0  0  0  0
    4.0567   -3.0008   23.2970 H   0  0  0  0  0  0  0  0  0  0  0  0
    4.3903   -5.1093   23.6316 C   0  0  0  0  0  0  0  0  0  0  0  0
    3.5017   -5.0245   24.2702 H   0  0  0  0  0  0  0  0  0  0  0  0
    4.0681   -5.5809   22.6935 H   0  0  0  0  0  0  0  0  0  0  0  0
    5.4103   -6.0155   24.3263 C   0  0  0  0  0  0  0  0  0  0  0  0
    4.9953   -7.0456   24.4186 H   0  0  0  0  0  0  0  0  0  0  0  0
    6.3010   -6.0854   23.6864 H   0  0  0  0  0  0  0  0  0  0  0  0
    5.8247   -5.4738   25.6117 N   0  0  0  0  0  0  0  0  0  0  0  0
    7.0098   -6.1011   26.1866 C   0  0  0  0  0  0  0  0  0  0  0  0
    6.8611   -7.1899   26.2900 H   0  0  0  0  0  0  0  0  0  0  0  0
    7.8963   -5.9390   25.5620 H   0  0  0  0  0  0  0  0  0  0  0  0
    7.0968   -5.4312   27.5528 C   0  0  0  0  0  0  0  0  0  0  0  0
    7.5126   -4.4277   27.4202 H   0  0  0  0  0  0  0  0  0  0  0  0
    7.7341   -5.9669   28.2608 H   0  0  0  0  0  0  0  0  0  0  0  0
    5.6203   -5.3426   27.9885 C   0  0  0  0  0  0  0  0  0  0  0  0
    5.4046   -4.3764   28.4491 H   0  0  0  0  0  0  0  0  0  0  0  0
    5.3454   -6.1159   28.7162 H   0  0  0  0  0  0  0  0  0  0  0  0
    4.8238   -5.5293   26.6794 C   0  0  0  0  0  0  0  0  0  0  0  0
    4.3045   -6.5055   26.6965 H   0  0  0  0  0  0  0  0  0  0  0  0
    4.0581   -4.7616   26.5359 H   0  0  0  0  0  0  0  0  0  0  0  0
    7.7818    0.0342   22.2407 C   0  0  0  0  0  0  0  0  0  0  0  0
    7.7493   -0.4772   23.1999 H   0  0  0  0  0  0  0  0  0  0  0  0
    7.3107    1.0170   22.2476 H   0  0  0  0  0  0  0  0  0  0  0  0
    8.9056   -0.2253   21.2902 C   0  0  0  0  0  0  0  0  0  0  0  0
    9.2114    0.5939   20.6415 H   0  0  0  0  0  0  0  0  0  0  0  0
    9.7072   -0.8957   21.5790 H   0  0  0  0  0  0  0  0  0  0  0  0
    5.4707    0.2886   20.1315 C   0  0  0  0  0  0  0  0  0  0  0  0
    4.9956    0.0731   21.0940 H   0  0  0  0  0  0  0  0  0  0  0  0
    4.8415    1.0544   19.1447 C   0  0  0  0  0  0  0  0  0  0  0  0
    3.8897    1.5405   19.3228 H   0  0  0  0  0  0  0  0  0  0  0  0
  1  2  1  0
  2  3  2  0
  3  4  1  0
  4  5  1  0
  4  6  2  0
  6  7  1  0
  7  8  1  0
  8  9  2  0
  8 10  1  0
 10 11  1  0
 11 12  1  0
 12 13  1  0
 12 14  1  0
 12 15  1  0
 15 16  1  0
 15 17  1  0
 15 18  1  0
 18 19  1  0
 18 20  1  0
 18 21  1  0
 21 22  1  0
 22 23  1  0
 22 24  1  0
 22 25  1  0
 25 26  1  0
 25 27  1  0
 25 28  1  0
 28 29  1  0
 28 30  1  0
 28 31  1  0
 31 32  1  0
 31 33  1  0
  7 34  1  0
 34 35  1  0
 34 36  1  0
 34 37  1  0
 37 38  1  0
 37 39  1  0
  6 40  1  0
 40 41  1  0
 40 42  2  0
 42 43  1  0
 42  2  1  0
 37  7  1  0
 31 21  1  0
M  END
>  <plip>  (1) 
-0.03571428571428571

>  <filename>  (1) 
[H][c]1[n][c]([H])[c]([C]2([C](=[O])[O][O][C]([H])([H])[C]([H])([H])[C]([H])([H])[N]3[C]([H])([H])[C]([H])([H])[C]([H])([H])[C]3([H])[H])[C]([H])([H])[C]2([H])[H])[c]([H])[c]1[H]

$$$$
