
     RDKit          3D

 32 34  0  0  0  0  0  0  0  0999 V2000
    5.3991    5.0220   27.5108 H   0  0  0  0  0  0  0  0  0  0  0  0
    6.2012    4.4961   27.5879 O   0  0  0  0  0  0  0  0  0  0  0  0
    6.3562    3.7892   26.4381 C   0  0  0  0  0  0  0  0  0  0  0  0
    5.4626    3.8757   25.3680 C   0  0  0  0  0  0  0  0  0  0  0  0
    4.5929    4.5258   25.4461 H   0  0  0  0  0  0  0  0  0  0  0  0
    5.7038    3.1248   24.2086 C   0  0  0  0  0  0  0  0  0  0  0  0
    5.0314    3.1759   23.3564 H   0  0  0  0  0  0  0  0  0  0  0  0
    6.8392    2.3244   24.1244 C   0  0  0  0  0  0  0  0  0  0  0  0
    6.9527    1.6538   22.8738 O   0  0  0  0  0  0  0  0  0  0  0  0
    8.2001    1.2188   22.5098 N   0  0  0  0  0  0  0  0  0  0  0  0
    9.3831    1.9148   22.5773 C   0  0  0  0  0  0  0  0  0  0  0  0
    9.5632    2.7851   23.1965 H   0  0  0  0  0  0  0  0  0  0  0  0
   10.2777    1.3239   21.8352 N   0  0  0  0  0  0  0  0  0  0  0  0
    9.6778    0.2595   21.2222 N   0  0  0  0  0  0  0  0  0  0  0  0
    8.4275    0.2163   21.6044 C   0  0  0  0  0  0  0  0  0  0  0  0
    7.3915   -0.6927   21.0247 C   0  0  0  0  0  0  0  0  0  0  0  0
    7.9135   -1.5862   20.6657 H   0  0  0  0  0  0  0  0  0  0  0  0
    6.7041   -1.0129   21.8141 H   0  0  0  0  0  0  0  0  0  0  0  0
    6.6275   -0.0196   19.8917 C   0  0  0  0  0  0  0  0  0  0  0  0
    7.1434    0.0407   18.5812 C   0  0  0  0  0  0  0  0  0  0  0  0
    8.1018   -0.4258   18.3492 H   0  0  0  0  0  0  0  0  0  0  0  0
    6.5413    0.6727   17.5678 N   0  0  0  0  0  0  0  0  0  0  0  0
    5.3817    1.2967   17.8246 C   0  0  0  0  0  0  0  0  0  0  0  0
    4.9177    1.8086   16.9819 H   0  0  0  0  0  0  0  0  0  0  0  0
    4.7858    1.3154   19.0892 C   0  0  0  0  0  0  0  0  0  0  0  0
    3.8549    1.8551   19.2262 H   0  0  0  0  0  0  0  0  0  0  0  0
    5.4374    0.6658   20.1454 C   0  0  0  0  0  0  0  0  0  0  0  0
    5.0622    0.7034   21.1684 H   0  0  0  0  0  0  0  0  0  0  0  0
    7.7149    2.1984   25.2143 C   0  0  0  0  0  0  0  0  0  0  0  0
    8.5717    1.5297   25.1654 H   0  0  0  0  0  0  0  0  0  0  0  0
    7.4713    2.9491   26.3695 C   0  0  0  0  0  0  0  0  0  0  0  0
    8.1220    2.9176   27.2377 H   0  0  0  0  0  0  0  0  0  0  0  0
  1  2  1  0
  2  3  1  0
  3  4  2  0
  4  5  1  0
  4  6  1  0
  6  7  1  0
  6  8  2  0
  8  9  1  0
  9 10  1  0
 10 11  1  0
 11 12  1  0
 11 13  2  0
 13 14  1  0
 14 15  2  0
 15 16  1  0
 16 17  1  0
 16 18  1  0
 16 19  1  0
 19 20  2  0
 20 21  1  0
 20 22  1  0
 22 23  2  0
 23 24  1  0
 23 25  1  0
 25 26  1  0
 25 27  2  0
 27 28  1  0
  8 29  1  0
 29 30  1  0
 29 31  2  0
 31 32  1  0
 31  3  1  0
 15 10  1  0
 27 19  1  0
M  END
>  <plip>  (1) 
-0.03571428571428571

>  <filename>  (1) 
[H][O][c]1[c]([H])[c]([H])[c]([O][n]2[c]([H])[n][n][c]2[C]([H])([H])[c]2[c]([H])[n][c]([H])[c]([H])[c]2[H])[c]([H])[c]1[H]

$$$$
