
     RDKit          3D

 44 47  0  0  0  0  0  0  0  0999 V2000
    5.0372    1.7296   16.9291 H   0  0  0  0  0  0  0  0  0  0  0  0
    5.4976    1.2727   17.8028 C   0  0  0  0  0  0  0  0  0  0  0  0
    6.6237    0.5820   17.5797 N   0  0  0  0  0  0  0  0  0  0  0  0
    7.2115    0.0090   18.6426 C   0  0  0  0  0  0  0  0  0  0  0  0
    8.1227   -0.5361   18.4074 H   0  0  0  0  0  0  0  0  0  0  0  0
    6.7407    0.0715   19.9701 C   0  0  0  0  0  0  0  0  0  0  0  0
    7.5221   -0.5104   21.1837 C   0  0  2  0  0  0  0  0  0  0  0  0
    8.1647    0.7405   21.9453 C   0  0  1  0  0  0  0  0  0  0  0  0
    7.3036    1.3863   22.1825 H   0  0  0  0  0  0  0  0  0  0  0  0
    8.8189    0.4607   23.3105 C   0  0  0  0  0  0  0  0  0  0  0  0
    8.0464    0.5157   24.4936 C   0  0  0  0  0  0  0  0  0  0  0  0
    6.9800    0.7207   24.4274 H   0  0  0  0  0  0  0  0  0  0  0  0
    8.6182    0.3192   25.7549 C   0  0  0  0  0  0  0  0  0  0  0  0
    7.9958    0.3688   26.6476 H   0  0  0  0  0  0  0  0  0  0  0  0
    9.9904    0.0657   25.8657 C   0  0  0  0  0  0  0  0  0  0  0  0
   10.4410   -0.0518   26.8494 H   0  0  0  0  0  0  0  0  0  0  0  0
   10.7700   -0.0145   24.7104 C   0  0  0  0  0  0  0  0  0  0  0  0
   11.8293   -0.2578   24.7834 H   0  0  0  0  0  0  0  0  0  0  0  0
   10.1955    0.2008   23.4508 C   0  0  0  0  0  0  0  0  0  0  0  0
   10.8360    0.2193   22.5691 H   0  0  0  0  0  0  0  0  0  0  0  0
    9.0777    1.5618   21.0038 C   0  0  0  0  0  0  0  0  0  0  0  0
    9.7192    0.9223   20.3831 H   0  0  0  0  0  0  0  0  0  0  0  0
    8.4650    2.1668   20.3267 H   0  0  0  0  0  0  0  0  0  0  0  0
    9.7226    2.2510   21.5564 H   0  0  0  0  0  0  0  0  0  0  0  0
    8.5667   -1.6218   20.8033 C   0  0  0  0  0  0  0  0  0  0  0  0
    9.5026   -1.4029   21.3311 H   0  0  0  0  0  0  0  0  0  0  0  0
    8.8241   -1.6756   19.7464 H   0  0  0  0  0  0  0  0  0  0  0  0
    8.0212   -2.9436   21.4017 C   0  0  2  0  0  0  0  0  0  0  0  0
    8.7745   -3.7363   21.4060 H   0  0  0  0  0  0  0  0  0  0  0  0
    6.6601   -3.4042   20.8302 C   0  0  0  0  0  0  0  0  0  0  0  0
    6.5854   -3.5287   19.7487 H   0  0  0  0  0  0  0  0  0  0  0  0
    6.4006   -4.3814   21.2612 H   0  0  0  0  0  0  0  0  0  0  0  0
    5.6943   -2.3012   21.3319 C   0  0  0  0  0  0  0  0  0  0  0  0
    4.8918   -2.7237   21.9414 H   0  0  0  0  0  0  0  0  0  0  0  0
    5.2573   -1.7613   20.4926 H   0  0  0  0  0  0  0  0  0  0  0  0
    6.6118   -1.3640   22.1550 C   0  0  1  0  0  0  0  0  0  0  0  0
    6.0830   -0.7358   22.8742 H   0  0  0  0  0  0  0  0  0  0  0  0
    7.5691   -2.4067   22.7680 C   0  0  0  0  0  0  0  0  0  0  0  0
    8.3983   -1.9838   23.3339 H   0  0  0  0  0  0  0  0  0  0  0  0
    7.0591   -3.1517   23.3931 H   0  0  0  0  0  0  0  0  0  0  0  0
    5.5511    0.7998   20.1634 C   0  0  0  0  0  0  0  0  0  0  0  0
    5.1093    0.8948   21.1595 H   0  0  0  0  0  0  0  0  0  0  0  0
    4.9186    1.3993   19.0681 C   0  0  0  0  0  0  0  0  0  0  0  0
    3.9975    1.9633   19.1781 H   0  0  0  0  0  0  0  0  0  0  0  0
  1  2  1  0
  2  3  2  0
  3  4  1  0
  4  5  1  0
  4  6  2  0
  7  6  1  6
  7  8  1  0
  8  9  1  1
  8 10  1  0
 10 11  2  0
 11 12  1  0
 11 13  1  0
 13 14  1  0
 13 15  2  0
 15 16  1  0
 15 17  1  0
 17 18  1  0
 17 19  2  0
 19 20  1  0
  8 21  1  0
 21 22  1  0
 21 23  1  0
 21 24  1  0
  7 25  1  0
 25 26  1  0
 25 27  1  0
 25 28  1  0
 28 29  1  1
 28 30  1  0
 30 31  1  0
 30 32  1  0
 30 33  1  0
 33 34  1  0
 33 35  1  0
 33 36  1  0
 36 37  1  1
 36 38  1  0
 38 39  1  0
 38 40  1  0
  6 41  1  0
 41 42  1  0
 41 43  2  0
 43 44  1  0
 43  2  1  0
 36  7  1  0
 19 10  1  0
 38 28  1  0
M  END
>  <plip>  (1) 
-0.0

>  <filename>  (1) 
[H][c]1[n][c]([H])[c]([C@]2([C@@]([H])([c]3[c]([H])[c]([H])[c]([H])[c]([H])[c]3[H])[C]([H])([H])[H])[C]([H])([H])[C@]3([H])[C]([H])([H])[C]([H])([H])[C@@]2([H])[C]3([H])[H])[c]([H])[c]1[H]

$$$$
