
     RDKit          3D

 46 47  0  0  0  0  0  0  0  0999 V2000
    4.9760    1.8274   16.9528 H   0  0  0  0  0  0  0  0  0  0  0  0
    5.4206    1.2871   17.7817 C   0  0  0  0  0  0  0  0  0  0  0  0
    6.5736    0.6526   17.5302 N   0  0  0  0  0  0  0  0  0  0  0  0
    7.1694    0.0266   18.5607 C   0  0  0  0  0  0  0  0  0  0  0  0
    8.1190   -0.4552   18.3191 H   0  0  0  0  0  0  0  0  0  0  0  0
    6.6561   -0.0253   19.8585 C   0  0  0  0  0  0  0  0  0  0  0  0
    7.3597   -0.7421   21.0205 C   0  0  0  0  0  0  0  0  0  0  0  0
    7.4215    0.1202   22.1767 O   0  0  0  0  0  0  0  0  0  0  0  0
    7.9817    1.4171   21.9784 C   0  0  0  0  0  0  0  0  0  0  0  0
    8.5167    1.4880   21.0181 H   0  0  0  0  0  0  0  0  0  0  0  0
    7.1674    2.1521   21.9344 H   0  0  0  0  0  0  0  0  0  0  0  0
    8.9784    1.7460   23.0982 C   0  0  0  0  0  0  0  0  0  0  0  0
    9.5809    0.8501   23.2990 H   0  0  0  0  0  0  0  0  0  0  0  0
    8.4528    1.9459   24.0373 H   0  0  0  0  0  0  0  0  0  0  0  0
    9.8962    2.8575   22.8298 N   0  0  0  0  0  0  0  0  0  0  0  0
    9.2641    4.1641   22.6153 C   0  0  0  0  0  0  0  0  0  0  0  0
    8.6391    4.2060   21.7008 H   0  0  0  0  0  0  0  0  0  0  0  0
   10.0524    4.9090   22.4549 H   0  0  0  0  0  0  0  0  0  0  0  0
    8.4395    4.6370   23.8046 C   0  0  0  0  0  0  0  0  0  0  0  0
    9.0435    4.6395   24.7152 H   0  0  0  0  0  0  0  0  0  0  0  0
    7.5615    4.0096   23.9812 H   0  0  0  0  0  0  0  0  0  0  0  0
    8.0755    5.6536   23.6292 H   0  0  0  0  0  0  0  0  0  0  0  0
   10.9273    2.5433   21.8412 C   0  0  0  0  0  0  0  0  0  0  0  0
   11.1698    1.4763   21.9198 H   0  0  0  0  0  0  0  0  0  0  0  0
   10.5911    2.7034   20.7975 H   0  0  0  0  0  0  0  0  0  0  0  0
   12.2130    3.3091   22.1123 C   0  0  0  0  0  0  0  0  0  0  0  0
   12.9459    3.1535   21.3209 H   0  0  0  0  0  0  0  0  0  0  0  0
   12.0318    4.3833   22.1884 H   0  0  0  0  0  0  0  0  0  0  0  0
   12.6388    2.9684   23.0587 H   0  0  0  0  0  0  0  0  0  0  0  0
    8.8017   -1.2258   20.7418 C   0  0  0  0  0  0  0  0  0  0  0  0
    8.8406   -1.7821   19.8093 H   0  0  0  0  0  0  0  0  0  0  0  0
    9.4606   -0.3619   20.6200 H   0  0  0  0  0  0  0  0  0  0  0  0
    9.3324   -2.1088   21.8815 C   0  0  0  0  0  0  0  0  0  0  0  0
    9.5181   -1.4928   22.7768 H   0  0  0  0  0  0  0  0  0  0  0  0
   10.2821   -2.5796   21.6084 H   0  0  0  0  0  0  0  0  0  0  0  0
    8.4495   -3.1793   22.1803 O   0  0  0  0  0  0  0  0  0  0  0  0
    7.1566   -2.7447   22.5764 C   0  0  0  0  0  0  0  0  0  0  0  0
    7.1939   -2.1668   23.5170 H   0  0  0  0  0  0  0  0  0  0  0  0
    6.5901   -3.6584   22.7795 H   0  0  0  0  0  0  0  0  0  0  0  0
    6.5072   -1.9450   21.4504 C   0  0  0  0  0  0  0  0  0  0  0  0
    5.5169   -1.5965   21.7376 H   0  0  0  0  0  0  0  0  0  0  0  0
    6.3846   -2.6062   20.5857 H   0  0  0  0  0  0  0  0  0  0  0  0
    5.4418    0.6521   20.0933 C   0  0  0  0  0  0  0  0  0  0  0  0
    5.0205    0.6988   21.1014 H   0  0  0  0  0  0  0  0  0  0  0  0
    4.8090    1.3066   19.0413 C   0  0  0  0  0  0  0  0  0  0  0  0
    3.8765    1.8391   19.1854 H   0  0  0  0  0  0  0  0  0  0  0  0
  1  2  1  0
  2  3  2  0
  3  4  1  0
  4  5  1  0
  4  6  2  0
  6  7  1  0
  7  8  1  0
  8  9  1  0
  9 10  1  0
  9 11  1  0
  9 12  1  0
 12 13  1  0
 12 14  1  0
 12 15  1  0
 15 16  1  0
 16 17  1  0
 16 18  1  0
 16 19  1  0
 19 20  1  0
 19 21  1  0
 19 22  1  0
 15 23  1  0
 23 24  1  0
 23 25  1  0
 23 26  1  0
 26 27  1  0
 26 28  1  0
 26 29  1  0
  7 30  1  0
 30 31  1  0
 30 32  1  0
 30 33  1  0
 33 34  1  0
 33 35  1  0
 33 36  1  0
 36 37  1  0
 37 38  1  0
 37 39  1  0
 37 40  1  0
 40 41  1  0
 40 42  1  0
  6 43  1  0
 43 44  1  0
 43 45  2  0
 45 46  1  0
 45  2  1  0
 40  7  1  0
M  END
>  <plip>  (1) 
-0.034482758620689655

>  <filename>  (1) 
[H][c]1[n][c]([H])[c]([C]2([O][C]([H])([H])[C]([H])([H])[N]([C]([H])([H])[C]([H])([H])[H])[C]([H])([H])[C]([H])([H])[H])[C]([H])([H])[C]([H])([H])[O][C]([H])([H])[C]2([H])[H])[c]([H])[c]1[H]

$$$$
