
     RDKit          3D

 48 49  0  0  0  0  0  0  0  0999 V2000
    5.6968   -2.8511   19.2228 C   0  0  0  0  0  0  0  0  0  0  0  0
    5.9115   -2.3687   20.5325 O   0  0  0  0  0  0  0  0  0  0  0  0
    7.2096   -1.8988   20.8222 C   0  0  0  0  0  0  0  0  0  0  0  0
    7.6517   -2.4793   22.0157 O   0  0  0  0  0  0  0  0  0  0  0  0
    7.7329   -3.8977   22.0014 C   0  0  0  0  0  0  0  0  0  0  0  0
    8.2918   -4.2767   21.1290 H   0  0  0  0  0  0  0  0  0  0  0  0
    8.2640   -4.1965   22.9102 H   0  0  0  0  0  0  0  0  0  0  0  0
    6.7354   -4.3529   22.0046 H   0  0  0  0  0  0  0  0  0  0  0  0
    7.1981   -0.3472   20.9426 C   0  0  0  0  0  0  0  0  0  0  0  0
    8.5353    0.2610   21.0294 N   0  0  0  0  0  0  0  0  0  0  0  0
    8.6853    1.5508   21.4725 C   0  0  0  0  0  0  0  0  0  0  0  0
    7.7290    2.2626   21.7165 O   0  0  0  0  0  0  0  0  0  0  0  0
   10.1177    2.0504   21.5954 C   0  0  0  0  0  0  0  0  0  0  0  0
   10.4805    2.6463   22.9734 C   0  0  0  0  0  0  0  0  0  0  0  0
   10.3159    1.6316   24.1325 C   0  0  0  0  0  0  0  0  0  0  0  0
   10.9430    0.3103   23.7709 C   0  0  0  0  0  0  0  0  0  0  0  0
   10.1323   -0.7679   23.3897 C   0  0  0  0  0  0  0  0  0  0  0  0
   10.6716   -1.8297   22.6612 C   0  0  0  0  0  0  0  0  0  0  0  0
   12.0162   -1.8144   22.2824 C   0  0  0  0  0  0  0  0  0  0  0  0
   12.8343   -0.7868   22.7451 C   0  0  0  0  0  0  0  0  0  0  0  0
   14.5402   -0.8440   22.4626 Cl  0  0  0  0  0  0  0  0  0  0  0  0
   12.3261    0.2350   23.5395 C   0  0  0  0  0  0  0  0  0  0  0  0
   13.0130    0.9763   23.9366 H   0  0  0  0  0  0  0  0  0  0  0  0
   12.4566   -2.5520   21.6327 H   0  0  0  0  0  0  0  0  0  0  0  0
   10.0329   -2.6574   22.3873 H   0  0  0  0  0  0  0  0  0  0  0  0
    9.0651   -0.7386   23.5989 H   0  0  0  0  0  0  0  0  0  0  0  0
   10.7632    2.0310   25.0470 H   0  0  0  0  0  0  0  0  0  0  0  0
    9.2486    1.4962   24.3515 H   0  0  0  0  0  0  0  0  0  0  0  0
    9.8820    3.5433   23.1720 H   0  0  0  0  0  0  0  0  0  0  0  0
   11.5295    2.9753   22.9287 H   0  0  0  0  0  0  0  0  0  0  0  0
   10.8243    1.2551   21.3441 H   0  0  0  0  0  0  0  0  0  0  0  0
   10.2417    2.8103   20.8252 H   0  0  0  0  0  0  0  0  0  0  0  0
    9.3566   -0.3261   21.0834 H   0  0  0  0  0  0  0  0  0  0  0  0
    6.4784    0.3246   19.7831 C   0  0  0  0  0  0  0  0  0  0  0  0
    5.1897    0.8520   19.9236 C   0  0  0  0  0  0  0  0  0  0  0  0
    4.5672    1.4240   18.8081 C   0  0  0  0  0  0  0  0  0  0  0  0
    5.2578    1.4340   17.5932 C   0  0  0  0  0  0  0  0  0  0  0  0
    6.4870    0.9213   17.4310 N   0  0  0  0  0  0  0  0  0  0  0  0
    7.0814    0.4065   18.5169 C   0  0  0  0  0  0  0  0  0  0  0  0
    8.0930    0.0307   18.3486 H   0  0  0  0  0  0  0  0  0  0  0  0
    4.8108    1.8680   16.7029 H   0  0  0  0  0  0  0  0  0  0  0  0
    3.5796    1.8669   18.8735 H   0  0  0  0  0  0  0  0  0  0  0  0
    4.6936    0.8338   20.8961 H   0  0  0  0  0  0  0  0  0  0  0  0
    6.6348   -0.1765   21.8732 H   0  0  0  0  0  0  0  0  0  0  0  0
    7.9177   -2.1454   20.0183 H   0  0  0  0  0  0  0  0  0  0  0  0
    6.1136   -2.1832   18.4540 H   0  0  0  0  0  0  0  0  0  0  0  0
    6.1182   -3.8587   19.0794 H   0  0  0  0  0  0  0  0  0  0  0  0
    4.6137   -2.9046   19.0879 H   0  0  0  0  0  0  0  0  0  0  0  0
  1  2  1  0
  2  3  1  0
  3  4  1  0
  4  5  1  0
  5  6  1  0
  5  7  1  0
  5  8  1  0
  3  9  1  0
  9 10  1  0
 10 11  1  0
 11 12  2  0
 11 13  1  0
 13 14  1  0
 14 15  1  0
 15 16  1  0
 16 17  2  0
 17 18  1  0
 18 19  2  0
 19 20  1  0
 20 21  1  0
 20 22  2  0
 22 23  1  0
 19 24  1  0
 18 25  1  0
 17 26  1  0
 15 27  1  0
 15 28  1  0
 14 29  1  0
 14 30  1  0
 13 31  1  0
 13 32  1  0
 10 33  1  0
  9 34  1  0
 34 35  2  0
 35 36  1  0
 36 37  2  0
 37 38  1  0
 38 39  2  0
 39 40  1  0
 37 41  1  0
 36 42  1  0
 35 43  1  0
  9 44  1  0
  3 45  1  0
  1 46  1  0
  1 47  1  0
  1 48  1  0
 22 16  1  0
 39 34  1  0
M  END
>  <plip>  (1) 
-0.10344827586206896

>  <filename>  (1) 
[H][c]1[n][c]([H])[c]([C]([H])([N]([H])[C](=[O])[C]([H])([H])[C]([H])([H])[C]([H])([H])[c]2[c]([H])[c]([H])[c]([H])[c]([Cl])[c]2[H])[C]([H])([O][C]([H])([H])[H])[O][C]([H])([H])[H])[c]([H])[c]1[H]

$$$$
