
     RDKit          3D

 30 32  0  0  0  0  0  0  0  0999 V2000
    8.5235    4.1698   23.8778 H   0  0  0  0  0  0  0  0  0  0  0  0
    8.7339    3.3346   23.2055 C   0  0  0  0  0  0  0  0  0  0  0  0
    9.7862    3.4731   22.3992 N   0  0  0  0  0  0  0  0  0  0  0  0
    9.9615    2.4669   21.5627 C   0  0  0  0  0  0  0  0  0  0  0  0
   11.0391    2.5497   20.7644 N   0  0  0  0  0  0  0  0  0  0  0  0
   10.8011    2.0890   19.9060 H   0  0  0  0  0  0  0  0  0  0  0  0
   11.2180    3.5389   20.7069 H   0  0  0  0  0  0  0  0  0  0  0  0
    9.2259    1.3980   21.3636 N   0  0  0  0  0  0  0  0  0  0  0  0
    8.2625    1.2578   22.2497 C   0  0  0  0  0  0  0  0  0  0  0  0
    7.5664    0.0893   22.1483 N   0  0  0  0  0  0  0  0  0  0  0  0
    7.0708   -0.5355   23.2659 C   0  0  0  0  0  0  0  0  0  0  0  0
    7.0483   -0.1140   24.3894 O   0  0  0  0  0  0  0  0  0  0  0  0
    6.6170   -1.7532   22.8990 O   0  0  0  0  0  0  0  0  0  0  0  0
    6.7125   -1.9437   21.4888 C   0  0  0  0  0  0  0  0  0  0  0  0
    5.6959   -2.0209   21.0883 H   0  0  0  0  0  0  0  0  0  0  0  0
    7.2603   -2.8729   21.3142 H   0  0  0  0  0  0  0  0  0  0  0  0
    7.4359   -0.6975   20.9316 C   0  0  1  0  0  0  0  0  0  0  0  0
    8.4329   -0.9528   20.5435 H   0  0  0  0  0  0  0  0  0  0  0  0
    6.6809    0.0380   19.8423 C   0  0  0  0  0  0  0  0  0  0  0  0
    7.1819    0.0973   18.5351 C   0  0  0  0  0  0  0  0  0  0  0  0
    8.1286   -0.3876   18.2848 H   0  0  0  0  0  0  0  0  0  0  0  0
    6.5627    0.7096   17.5175 N   0  0  0  0  0  0  0  0  0  0  0  0
    5.3984    1.3187   17.7874 C   0  0  0  0  0  0  0  0  0  0  0  0
    4.9069    1.8132   16.9529 H   0  0  0  0  0  0  0  0  0  0  0  0
    4.8124    1.3300   19.0562 C   0  0  0  0  0  0  0  0  0  0  0  0
    3.8699    1.8389   19.2139 H   0  0  0  0  0  0  0  0  0  0  0  0
    5.4615    0.6786   20.1012 C   0  0  0  0  0  0  0  0  0  0  0  0
    5.0449    0.6809   21.1093 H   0  0  0  0  0  0  0  0  0  0  0  0
    7.9384    2.2097   23.2187 C   0  0  0  0  0  0  0  0  0  0  0  0
    7.1582    2.0161   23.9282 H   0  0  0  0  0  0  0  0  0  0  0  0
  1  2  1  0
  2  3  2  0
  3  4  1  0
  4  5  1  0
  5  6  1  0
  5  7  1  0
  4  8  2  0
  8  9  1  0
  9 10  1  0
 10 11  1  0
 11 12  2  0
 11 13  1  0
 13 14  1  0
 14 15  1  0
 14 16  1  0
 14 17  1  0
 17 18  1  6
 17 19  1  0
 19 20  2  0
 20 21  1  0
 20 22  1  0
 22 23  2  0
 23 24  1  0
 23 25  1  0
 25 26  1  0
 25 27  2  0
 27 28  1  0
  9 29  2  0
 29 30  1  0
 29  2  1  0
 17 10  1  0
 27 19  1  0
M  END
>  <plip>  (1) 
-0.10714285714285714

>  <filename>  (1) 
[H][c]1[n][c]([N]([H])[H])[n][c]([N]2[C](=[O])[O][C]([H])([H])[C@@]2([H])[c]2[c]([H])[n][c]([H])[c]([H])[c]2[H])[c]1[H]

$$$$
