
     RDKit          3D

 29 30  0  0  0  0  0  0  0  0999 V2000
    4.9162    1.7942   16.9873 H   0  0  0  0  0  0  0  0  0  0  0  0
    5.3939    1.2978   17.8295 C   0  0  0  0  0  0  0  0  0  0  0  0
    6.5570    0.6807   17.5644 N   0  0  0  0  0  0  0  0  0  0  0  0
    7.1591    0.0619   18.5852 C   0  0  0  0  0  0  0  0  0  0  0  0
    8.1110   -0.4198   18.3546 H   0  0  0  0  0  0  0  0  0  0  0  0
    6.6586   -0.0064   19.8967 C   0  0  0  0  0  0  0  0  0  0  0  0
    7.4795   -0.7056   20.9814 C   0  0  1  0  0  0  0  0  0  0  0  0
    8.1633   -1.4080   20.4929 H   0  0  0  0  0  0  0  0  0  0  0  0
    8.3775    0.2918   21.7103 C   0  0  0  0  0  0  0  0  0  0  0  0
    9.7010    0.1469   21.5400 N   0  0  0  0  0  0  0  0  0  0  0  0
   10.5093    1.0087   22.1636 C   0  0  0  0  0  0  0  0  0  0  0  0
   11.5730    0.8473   22.0087 H   0  0  0  0  0  0  0  0  0  0  0  0
   10.0780    2.0706   22.9805 C   0  0  0  0  0  0  0  0  0  0  0  0
   11.0457    3.0232   23.6314 C   0  0  0  0  0  0  0  0  0  0  0  0
   11.2550    3.8797   22.9805 H   0  0  0  0  0  0  0  0  0  0  0  0
   10.6318    3.4231   24.5617 H   0  0  0  0  0  0  0  0  0  0  0  0
   12.0034    2.5471   23.8670 H   0  0  0  0  0  0  0  0  0  0  0  0
    8.6947    2.2233   23.1324 C   0  0  0  0  0  0  0  0  0  0  0  0
    8.2990    3.0372   23.7443 H   0  0  0  0  0  0  0  0  0  0  0  0
    7.8436    1.3254   22.4948 C   0  0  0  0  0  0  0  0  0  0  0  0
    6.7703    1.4377   22.5826 H   0  0  0  0  0  0  0  0  0  0  0  0
    6.5981   -1.5070   21.9564 C   0  0  0  0  0  0  0  0  0  0  0  0
    5.8897   -2.1377   21.4090 H   0  0  0  0  0  0  0  0  0  0  0  0
    7.1973   -2.1471   22.6141 H   0  0  0  0  0  0  0  0  0  0  0  0
    6.0414   -0.8223   22.5989 H   0  0  0  0  0  0  0  0  0  0  0  0
    5.4413    0.6452   20.1474 C   0  0  0  0  0  0  0  0  0  0  0  0
    4.9913    0.6336   21.1434 H   0  0  0  0  0  0  0  0  0  0  0  0
    4.8069    1.3092   19.0963 C   0  0  0  0  0  0  0  0  0  0  0  0
    3.8766    1.8411   19.2493 H   0  0  0  0  0  0  0  0  0  0  0  0
  1  2  1  0
  2  3  2  0
  3  4  1  0
  4  5  1  0
  4  6  2  0
  6  7  1  0
  7  8  1  6
  7  9  1  0
  9 10  2  0
 10 11  1  0
 11 12  1  0
 11 13  2  0
 13 14  1  0
 14 15  1  0
 14 16  1  0
 14 17  1  0
 13 18  1  0
 18 19  1  0
 18 20  2  0
 20 21  1  0
  7 22  1  0
 22 23  1  0
 22 24  1  0
 22 25  1  0
  6 26  1  0
 26 27  1  0
 26 28  2  0
 28 29  1  0
 28  2  1  0
 20  9  1  0
M  END
>  <plip>  (1) 
-0.10714285714285714

>  <filename>  (1) 
[H][c]1[n][c]([H])[c]([C@@]([H])([c]2[n][c]([H])[c]([C]([H])([H])[H])[c]([H])[c]2[H])[C]([H])([H])[H])[c]([H])[c]1[H]

$$$$
