
     RDKit          3D

 36 37  0  0  0  0  0  0  0  0999 V2000
   11.2382   -0.0842   25.7871 C   0  0  0  0  0  0  0  0  0  0  0  0
   10.2579    0.8870   25.4369 O   0  0  0  0  0  0  0  0  0  0  0  0
   10.1697    1.2581   24.1448 C   0  0  0  0  0  0  0  0  0  0  0  0
   11.0680    1.0528   23.3554 O   0  0  0  0  0  0  0  0  0  0  0  0
    8.8310    1.9034   23.8626 C   0  0  0  0  0  0  0  0  0  0  0  0
    8.0133    2.3508   24.9249 C   0  0  0  0  0  0  0  0  0  0  0  0
    6.7973    2.9773   24.6721 C   0  0  0  0  0  0  0  0  0  0  0  0
    6.3800    3.1938   23.3563 C   0  0  0  0  0  0  0  0  0  0  0  0
    7.1807    2.7492   22.3087 C   0  0  0  0  0  0  0  0  0  0  0  0
    8.3806    2.0589   22.5335 C   0  0  0  0  0  0  0  0  0  0  0  0
    9.1164    1.4717   21.3537 C   0  0  0  0  0  0  0  0  0  0  0  0
    9.0640   -0.0617   21.2706 C   0  0  0  0  0  0  0  0  0  0  0  0
    7.4680   -0.8764   21.2370 S   0  0  0  0  0  0  0  0  0  0  0  0
    6.7829   -0.6789   22.5013 O   0  0  0  0  0  0  0  0  0  0  0  0
    7.7624   -2.2063   20.7234 O   0  0  0  0  0  0  0  0  0  0  0  0
    6.5896   -0.0209   20.0067 C   0  0  0  0  0  0  0  0  0  0  0  0
    5.4243    0.7202   20.2281 C   0  0  0  0  0  0  0  0  0  0  0  0
    4.8741    1.3499   19.1145 C   0  0  0  0  0  0  0  0  0  0  0  0
    5.5180    1.2369   17.8798 C   0  0  0  0  0  0  0  0  0  0  0  0
    6.6324    0.5180   17.6969 N   0  0  0  0  0  0  0  0  0  0  0  0
    7.1535   -0.1174   18.7417 C   0  0  0  0  0  0  0  0  0  0  0  0
    8.0440   -0.7115   18.5256 H   0  0  0  0  0  0  0  0  0  0  0  0
    5.1185    1.7347   16.9982 H   0  0  0  0  0  0  0  0  0  0  0  0
    3.9660    1.9337   19.1861 H   0  0  0  0  0  0  0  0  0  0  0  0
    4.9766    0.8396   21.2197 H   0  0  0  0  0  0  0  0  0  0  0  0
    9.5577   -0.5224   22.1281 H   0  0  0  0  0  0  0  0  0  0  0  0
    9.5608   -0.4344   20.3721 H   0  0  0  0  0  0  0  0  0  0  0  0
    8.7085    1.9205   20.4419 H   0  0  0  0  0  0  0  0  0  0  0  0
   10.1707    1.7526   21.4198 H   0  0  0  0  0  0  0  0  0  0  0  0
    6.8612    2.9126   21.2838 H   0  0  0  0  0  0  0  0  0  0  0  0
    5.4359    3.6941   23.1500 H   0  0  0  0  0  0  0  0  0  0  0  0
    6.1646    3.3009   25.4923 H   0  0  0  0  0  0  0  0  0  0  0  0
    8.3449    2.2170   25.9519 H   0  0  0  0  0  0  0  0  0  0  0  0
   12.2533    0.2962   25.6373 H   0  0  0  0  0  0  0  0  0  0  0  0
   11.0580   -0.2766   26.8426 H   0  0  0  0  0  0  0  0  0  0  0  0
   11.1053   -1.0033   25.2021 H   0  0  0  0  0  0  0  0  0  0  0  0
  1  2  1  0
  2  3  1  0
  3  4  2  0
  3  5  1  0
  5  6  2  0
  6  7  1  0
  7  8  2  0
  8  9  1  0
  9 10  2  0
 10 11  1  0
 11 12  1  0
 12 13  1  0
 13 14  2  0
 13 15  2  0
 13 16  1  0
 16 17  2  0
 17 18  1  0
 18 19  2  0
 19 20  1  0
 20 21  2  0
 21 22  1  0
 19 23  1  0
 18 24  1  0
 17 25  1  0
 12 26  1  0
 12 27  1  0
 11 28  1  0
 11 29  1  0
  9 30  1  0
  8 31  1  0
  7 32  1  0
  6 33  1  0
  1 34  1  0
  1 35  1  0
  1 36  1  0
 10  5  1  0
 21 16  1  0
M  END
>  <plip>  (1) 
-0.0

>  <filename>  (1) 
[H][c]1[n][c]([H])[c]([S](=[O])(=[O])[C]([H])([H])[C]([H])([H])[c]2[c]([H])[c]([H])[c]([H])[c]([H])[c]2[C](=[O])[O][C]([H])([H])[H])[c]([H])[c]1[H]

$$$$
