
     RDKit          3D

 38 40  0  0  0  0  0  0  0  0999 V2000
    4.9275    1.7917   17.0048 H   0  0  0  0  0  0  0  0  0  0  0  0
    5.4023    1.2867   17.8435 C   0  0  0  0  0  0  0  0  0  0  0  0
    6.5596    0.6626   17.5664 N   0  0  0  0  0  0  0  0  0  0  0  0
    7.1892    0.0585   18.5808 C   0  0  0  0  0  0  0  0  0  0  0  0
    8.1404   -0.4176   18.3512 H   0  0  0  0  0  0  0  0  0  0  0  0
    6.6897    0.0147   19.9049 C   0  0  0  0  0  0  0  0  0  0  0  0
    7.3900   -0.6530   20.9771 N   0  0  0  0  0  0  0  0  0  0  0  0
    8.7639   -0.5879   21.1891 C   0  0  0  0  0  0  0  0  0  0  0  0
    9.5388    0.0477   20.5169 O   0  0  0  0  0  0  0  0  0  0  0  0
    9.1280   -1.4603   22.3712 C   0  0  0  0  0  0  0  0  0  0  0  0
    9.7153   -0.8508   23.0694 H   0  0  0  0  0  0  0  0  0  0  0  0
    9.8004   -2.2459   22.0119 H   0  0  0  0  0  0  0  0  0  0  0  0
    7.7920   -1.9849   22.9238 C   0  0  1  0  0  0  0  0  0  0  0  0
    7.7341   -3.0800   22.9372 H   0  0  0  0  0  0  0  0  0  0  0  0
    7.4769   -1.4609   24.3577 C   0  0  0  0  0  0  0  0  0  0  0  0
    7.4347   -0.3639   24.3326 H   0  0  0  0  0  0  0  0  0  0  0  0
    8.3280   -1.7227   25.0041 H   0  0  0  0  0  0  0  0  0  0  0  0
    6.2221   -2.0245   25.0041 C   0  0  0  0  0  0  0  0  0  0  0  0
    6.1870   -3.3600   25.4471 C   0  0  0  0  0  0  0  0  0  0  0  0
    7.0943   -3.9523   25.3788 H   0  0  0  0  0  0  0  0  0  0  0  0
    5.0074   -3.9165   25.9430 C   0  0  0  0  0  0  0  0  0  0  0  0
    5.0066   -4.9427   26.3029 H   0  0  0  0  0  0  0  0  0  0  0  0
    3.8292   -3.1614   25.9990 C   0  0  0  0  0  0  0  0  0  0  0  0
    2.9008   -3.5953   26.3575 H   0  0  0  0  0  0  0  0  0  0  0  0
    3.8544   -1.8316   25.5704 C   0  0  0  0  0  0  0  0  0  0  0  0
    2.7646   -1.0234   25.4679 O   0  0  0  0  0  0  0  0  0  0  0  0
    1.5070   -1.4679   25.9361 C   0  0  0  0  0  0  0  0  0  0  0  0
    1.1303   -2.3362   25.3746 H   0  0  0  0  0  0  0  0  0  0  0  0
    0.8381   -0.6183   25.7865 H   0  0  0  0  0  0  0  0  0  0  0  0
    1.5468   -1.7272   27.0029 H   0  0  0  0  0  0  0  0  0  0  0  0
    5.0662   -1.2577   25.1394 C   0  0  0  0  0  0  0  0  0  0  0  0
    5.0322   -0.2315   24.7771 H   0  0  0  0  0  0  0  0  0  0  0  0
    6.7855   -1.5843   21.8294 C   0  0  0  0  0  0  0  0  0  0  0  0
    5.7050   -2.0759   21.6360 O   0  0  0  0  0  0  0  0  0  0  0  0
    5.4661    0.6344   20.1671 C   0  0  0  0  0  0  0  0  0  0  0  0
    5.0425    0.5885   21.1690 H   0  0  0  0  0  0  0  0  0  0  0  0
    4.8237    1.2996   19.1166 C   0  0  0  0  0  0  0  0  0  0  0  0
    3.8914    1.8289   19.2683 H   0  0  0  0  0  0  0  0  0  0  0  0
  1  2  1  0
  2  3  2  0
  3  4  1  0
  4  5  1  0
  4  6  2  0
  6  7  1  0
  7  8  1  0
  8  9  2  0
  8 10  1  0
 10 11  1  0
 10 12  1  0
 10 13  1  0
 13 14  1  1
 13 15  1  0
 15 16  1  0
 15 17  1  0
 15 18  1  0
 18 19  2  0
 19 20  1  0
 19 21  1  0
 21 22  1  0
 21 23  2  0
 23 24  1  0
 23 25  1  0
 25 26  1  0
 26 27  1  0
 27 28  1  0
 27 29  1  0
 27 30  1  0
 25 31  2  0
 31 32  1  0
 13 33  1  0
 33 34  2  0
  6 35  1  0
 35 36  1  0
 35 37  2  0
 37 38  1  0
 37  2  1  0
 33  7  1  0
 31 18  1  0
M  END
>  <plip>  (1) 
-0.10714285714285714

>  <filename>  (1) 
[H][c]1[n][c]([H])[c]([N]2[C](=[O])[C]([H])([H])[C@@]([H])([C]([H])([H])[c]3[c]([H])[c]([H])[c]([H])[c]([O][C]([H])([H])[H])[c]3[H])[C]2=[O])[c]([H])[c]1[H]

$$$$
