
     RDKit          3D

 40 42  0  0  0  0  0  0  0  0999 V2000
    4.7284    2.2849   29.1881 C   0  0  0  0  0  0  0  0  0  0  0  0
    6.0769    1.6705   29.4839 C   0  0  0  0  0  0  0  0  0  0  0  0
    6.5407    1.7335   30.6045 O   0  0  0  0  0  0  0  0  0  0  0  0
    6.8288    0.9948   28.3610 C   0  0  0  0  0  0  0  0  0  0  0  0
    8.0941    0.4381   28.6355 C   0  0  0  0  0  0  0  0  0  0  0  0
    8.8141   -0.2434   27.6560 C   0  0  0  0  0  0  0  0  0  0  0  0
    8.2890   -0.3345   26.3644 C   0  0  0  0  0  0  0  0  0  0  0  0
    8.8758   -1.0141   25.1633 C   0  0  0  0  0  0  0  0  0  0  0  0
    7.9284   -0.6333   23.9998 N   0  0  0  0  0  4  0  0  0  0  0  0
    7.5859   -1.8103   23.0812 C   0  0  0  0  0  0  0  0  0  0  0  0
    6.7656   -1.5638   21.7875 C   0  0  0  0  0  0  0  0  0  0  0  0
    5.7367   -2.1576   21.5569 O   0  0  0  0  0  0  0  0  0  0  0  0
    7.3531   -0.6493   20.9304 N   0  0  0  0  0  0  0  0  0  0  0  0
    6.6831    0.0165   19.8616 C   0  0  0  0  0  0  0  0  0  0  0  0
    5.4617    0.6472   20.1176 C   0  0  0  0  0  0  0  0  0  0  0  0
    4.8172    1.3163   19.0737 C   0  0  0  0  0  0  0  0  0  0  0  0
    5.4083    1.3090   17.8064 C   0  0  0  0  0  0  0  0  0  0  0  0
    6.5747    0.6970   17.5425 N   0  0  0  0  0  0  0  0  0  0  0  0
    7.2052    0.0820   18.5509 C   0  0  0  0  0  0  0  0  0  0  0  0
    8.1488   -0.4135   18.3128 H   0  0  0  0  0  0  0  0  0  0  0  0
    4.9268    1.8117   16.9717 H   0  0  0  0  0  0  0  0  0  0  0  0
    3.8788    1.8362   19.2348 H   0  0  0  0  0  0  0  0  0  0  0  0
    5.0414    0.5889   21.1224 H   0  0  0  0  0  0  0  0  0  0  0  0
    8.3592   -0.6032   20.9710 H   0  0  0  0  0  0  0  0  0  0  0  0
    6.9815   -2.5515   23.6125 H   0  0  0  0  0  0  0  0  0  0  0  0
    8.5031   -2.3138   22.7514 H   0  0  0  0  0  0  0  0  0  0  0  0
    6.6716    0.0069   24.6330 C   0  0  0  0  0  0  0  0  0  0  0  0
    7.0478    0.2367   26.0684 C   0  0  0  0  0  0  0  0  0  0  0  0
    6.3133    0.8891   27.0566 C   0  0  0  0  0  0  0  0  0  0  0  0
    5.3399    1.3139   26.8212 H   0  0  0  0  0  0  0  0  0  0  0  0
    6.4174    0.9241   24.0926 H   0  0  0  0  0  0  0  0  0  0  0  0
    5.8409   -0.6938   24.5139 H   0  0  0  0  0  0  0  0  0  0  0  0
    8.4158    0.1389   23.4830 H   0  0  0  0  0  0  0  0  0  0  0  0
    9.8938   -0.6835   24.9381 H   0  0  0  0  0  0  0  0  0  0  0  0
    8.8908   -2.1027   25.2695 H   0  0  0  0  0  0  0  0  0  0  0  0
    9.7728   -0.6877   27.9152 H   0  0  0  0  0  0  0  0  0  0  0  0
    8.4944    0.5130   29.6437 H   0  0  0  0  0  0  0  0  0  0  0  0
    4.0316    1.5201   28.8320 H   0  0  0  0  0  0  0  0  0  0  0  0
    4.3382    2.7355   30.1020 H   0  0  0  0  0  0  0  0  0  0  0  0
    4.8290    3.0524   28.4147 H   0  0  0  0  0  0  0  0  0  0  0  0
  1  2  1  0
  2  3  2  0
  2  4  1  0
  4  5  2  0
  5  6  1  0
  6  7  2  0
  7  8  1  0
  8  9  1  0
  9 10  1  0
 10 11  1  0
 11 12  2  0
 11 13  1  0
 13 14  1  0
 14 15  2  0
 15 16  1  0
 16 17  2  0
 17 18  1  0
 18 19  2  0
 19 20  1  0
 17 21  1  0
 16 22  1  0
 15 23  1  0
 13 24  1  0
 10 25  1  0
 10 26  1  0
  9 27  1  0
 27 28  1  0
 28 29  2  0
 29 30  1  0
 27 31  1  0
 27 32  1  0
  9 33  1  0
  8 34  1  0
  8 35  1  0
  6 36  1  0
  5 37  1  0
  1 38  1  0
  1 39  1  0
  1 40  1  0
 29  4  1  0
 28  7  1  0
 19 14  1  0
M  CHG  1   9   1
M  END
>  <plip>  (1) 
-0.06896551724137931

>  <filename>  (1) 
[H][c]1[n][c]([H])[c]([N]([H])[C](=[O])[C]([H])([H])[N+]2([H])[C]([H])([H])[c]3[c]([H])[c]([H])[c]([C](=[O])[C]([H])([H])[H])[c]([H])[c]3[C]2([H])[H])[c]([H])[c]1[H]

$$$$
