
     RDKit          3D

 30 32  0  0  0  0  0  0  0  0999 V2000
    4.9282    1.7791   16.9971 H   0  0  0  0  0  0  0  0  0  0  0  0
    5.4073    1.2907   17.8452 C   0  0  0  0  0  0  0  0  0  0  0  0
    6.5700    0.6712   17.5917 N   0  0  0  0  0  0  0  0  0  0  0  0
    7.1661    0.0498   18.6107 C   0  0  0  0  0  0  0  0  0  0  0  0
    8.1105   -0.4386   18.3763 H   0  0  0  0  0  0  0  0  0  0  0  0
    6.6445    0.0198   19.9120 C   0  0  0  0  0  0  0  0  0  0  0  0
    7.3972   -0.7524   20.9510 C   0  0  0  0  0  0  0  0  0  0  0  0
    7.7621   -1.8886   20.7269 O   0  0  0  0  0  0  0  0  0  0  0  0
    7.7372   -0.0551   22.2821 C   0  0  0  0  0  0  0  0  0  0  0  0
    6.7433   -0.2711   23.4020 C   0  0  0  0  0  0  0  0  0  0  0  0
    6.7105   -1.5398   24.0072 C   0  0  0  0  0  0  0  0  0  0  0  0
    7.3876   -2.2941   23.6264 H   0  0  0  0  0  0  0  0  0  0  0  0
    5.8730   -1.8395   25.0798 C   0  0  0  0  0  0  0  0  0  0  0  0
    5.8683   -2.8227   25.5399 H   0  0  0  0  0  0  0  0  0  0  0  0
    5.0221   -0.8465   25.5620 C   0  0  0  0  0  0  0  0  0  0  0  0
    3.9498   -1.2004   26.8764 Cl  0  0  0  0  0  0  0  0  0  0  0  0
    5.0014    0.4263   24.9958 C   0  0  0  0  0  0  0  0  0  0  0  0
    4.3245    1.1909   25.3653 H   0  0  0  0  0  0  0  0  0  0  0  0
    5.8560    0.6929   23.9203 C   0  0  0  0  0  0  0  0  0  0  0  0
    5.7555    2.2901   23.2505 Cl  0  0  0  0  0  0  0  0  0  0  0  0
    8.6072    1.1896   22.2604 C   0  0  0  0  0  0  0  0  0  0  0  0
    8.4672    1.9298   23.0464 H   0  0  0  0  0  0  0  0  0  0  0  0
    8.8695    1.6173   21.2951 H   0  0  0  0  0  0  0  0  0  0  0  0
    9.2153   -0.1189   22.6517 C   0  0  0  0  0  0  0  0  0  0  0  0
    9.4479   -0.2881   23.6999 H   0  0  0  0  0  0  0  0  0  0  0  0
    9.8740   -0.6298   21.9526 H   0  0  0  0  0  0  0  0  0  0  0  0
    5.4321    0.6716   20.1738 C   0  0  0  0  0  0  0  0  0  0  0  0
    4.9903    0.6434   21.1735 H   0  0  0  0  0  0  0  0  0  0  0  0
    4.8054    1.3175   19.1084 C   0  0  0  0  0  0  0  0  0  0  0  0
    3.8689    1.8479   19.2530 H   0  0  0  0  0  0  0  0  0  0  0  0
  1  2  1  0
  2  3  2  0
  3  4  1  0
  4  5  1  0
  4  6  2  0
  6  7  1  0
  7  8  2  0
  7  9  1  0
  9 10  1  0
 10 11  2  0
 11 12  1  0
 11 13  1  0
 13 14  1  0
 13 15  2  0
 15 16  1  0
 15 17  1  0
 17 18  1  0
 17 19  2  0
 19 20  1  0
  9 21  1  0
 21 22  1  0
 21 23  1  0
 21 24  1  0
 24 25  1  0
 24 26  1  0
  6 27  1  0
 27 28  1  0
 27 29  2  0
 29 30  1  0
 29  2  1  0
 24  9  1  0
 19 10  1  0
M  END
>  <plip>  (1) 
-0.03571428571428571

>  <filename>  (1) 
[H][c]1[n][c]([H])[c]([C](=[O])[C]2([c]3[c]([H])[c]([H])[c]([Cl])[c]([H])[c]3[Cl])[C]([H])([H])[C]2([H])[H])[c]([H])[c]1[H]

$$$$
