
     RDKit          3D

 44 46  0  0  0  0  0  0  0  0999 V2000
   10.0957    2.7206   23.2922 C   0  0  0  0  0  0  0  0  0  0  0  0
    8.8095    2.1373   22.9073 N   0  0  0  0  0  0  0  0  0  0  0  0
    8.8535    1.0764   21.9755 C   0  0  0  0  0  0  0  0  0  0  0  0
    9.7684    0.9081   21.1876 O   0  0  0  0  0  0  0  0  0  0  0  0
    7.8031    0.2018   22.1067 N   0  0  0  0  0  0  0  0  0  0  0  0
    7.4529   -0.6907   21.0095 C   0  0  0  0  0  0  0  0  0  0  0  0
    6.6882    0.0602   19.9241 C   0  0  0  0  0  0  0  0  0  0  0  0
    5.4602    0.7091   20.1512 C   0  0  0  0  0  0  0  0  0  0  0  0
    4.8146    1.3375   19.0856 C   0  0  0  0  0  0  0  0  0  0  0  0
    5.4137    1.3025   17.8237 C   0  0  0  0  0  0  0  0  0  0  0  0
    6.5786    0.6880   17.5822 N   0  0  0  0  0  0  0  0  0  0  0  0
    7.1910    0.0964   18.6169 C   0  0  0  0  0  0  0  0  0  0  0  0
    8.1428   -0.3857   18.3829 H   0  0  0  0  0  0  0  0  0  0  0  0
    4.9345    1.7840   16.9747 H   0  0  0  0  0  0  0  0  0  0  0  0
    3.8670    1.8457   19.2174 H   0  0  0  0  0  0  0  0  0  0  0  0
    5.0107    0.7406   21.1462 H   0  0  0  0  0  0  0  0  0  0  0  0
    6.6455   -1.8798   21.5819 C   0  0  0  0  0  0  0  0  0  0  0  0
    7.3475   -2.6929   22.6879 C   0  0  0  0  0  0  0  0  0  0  0  0
    8.0381   -3.8033   21.9030 C   0  0  0  0  0  0  0  0  0  0  0  0
    7.1911   -4.0784   20.8050 O   0  0  0  0  0  0  0  0  0  0  0  0
    6.3112   -2.9892   20.5679 C   0  0  0  0  0  0  0  0  0  0  0  0
    6.3939   -2.6756   19.5176 H   0  0  0  0  0  0  0  0  0  0  0  0
    5.2859   -3.3461   20.7294 H   0  0  0  0  0  0  0  0  0  0  0  0
    9.0290   -3.4664   21.5553 H   0  0  0  0  0  0  0  0  0  0  0  0
    8.1679   -4.7269   22.4810 H   0  0  0  0  0  0  0  0  0  0  0  0
    6.6060   -3.1124   23.3811 H   0  0  0  0  0  0  0  0  0  0  0  0
    8.0595   -2.1020   23.2679 H   0  0  0  0  0  0  0  0  0  0  0  0
    5.7199   -1.4408   21.9535 H   0  0  0  0  0  0  0  0  0  0  0  0
    8.3984   -1.0668   20.5941 H   0  0  0  0  0  0  0  0  0  0  0  0
    7.0457    0.6113   22.6271 H   0  0  0  0  0  0  0  0  0  0  0  0
    7.6046    2.8122   23.3018 C   0  0  0  0  0  0  0  0  0  0  0  0
    7.4062    3.2520   24.6306 C   0  0  0  0  0  0  0  0  0  0  0  0
    6.2905    3.8582   25.0547 N   0  0  0  0  0  0  0  0  0  0  0  0
    5.3230    4.0988   24.1655 C   0  0  0  0  0  0  0  0  0  0  0  0
    5.4317    3.7629   22.8058 C   0  0  0  0  0  0  0  0  0  0  0  0
    4.3244    4.0489   21.9319 C   0  0  0  0  0  0  0  0  0  0  0  0
    3.3736    4.2730   21.3092 N   0  0  0  0  0  0  0  0  0  0  0  0
    6.5957    3.1095   22.3728 C   0  0  0  0  0  0  0  0  0  0  0  0
    6.7310    2.8735   21.3203 H   0  0  0  0  0  0  0  0  0  0  0  0
    4.4173    4.5685   24.5394 H   0  0  0  0  0  0  0  0  0  0  0  0
    8.1924    3.0880   25.3683 H   0  0  0  0  0  0  0  0  0  0  0  0
   10.7746    2.7082   22.4351 H   0  0  0  0  0  0  0  0  0  0  0  0
    9.9409    3.7547   23.6079 H   0  0  0  0  0  0  0  0  0  0  0  0
   10.5634    2.1691   24.1196 H   0  0  0  0  0  0  0  0  0  0  0  0
  1  2  1  0
  2  3  1  0
  3  4  2  0
  3  5  1  0
  5  6  1  0
  6  7  1  0
  7  8  2  0
  8  9  1  0
  9 10  2  0
 10 11  1  0
 11 12  2  0
 12 13  1  0
 10 14  1  0
  9 15  1  0
  8 16  1  0
  6 17  1  0
 17 18  1  0
 18 19  1  0
 19 20  1  0
 20 21  1  0
 21 22  1  0
 21 23  1  0
 19 24  1  0
 19 25  1  0
 18 26  1  0
 18 27  1  0
 17 28  1  0
  6 29  1  0
  5 30  1  0
  2 31  1  0
 31 32  2  0
 32 33  1  0
 33 34  2  0
 34 35  1  0
 35 36  1  0
 36 37  3  0
 35 38  2  0
 38 39  1  0
 34 40  1  0
 32 41  1  0
  1 42  1  0
  1 43  1  0
  1 44  1  0
 12  7  1  0
 21 17  1  0
 38 31  1  0
M  END
>  <plip>  (1) 
-0.06896551724137931

>  <filename>  (1) 
[H][c]1[n][c]([H])[c]([C]([H])([N]([H])[C](=[O])[N]([c]2[c]([H])[n][c]([H])[c]([C]#[N])[c]2[H])[C]([H])([H])[H])[C]2([H])[C]([H])([H])[O][C]([H])([H])[C]2([H])[H])[c]([H])[c]1[H]

$$$$
