
     RDKit          3D

 24 25  0  0  0  0  0  0  0  0999 V2000
    5.0102    1.8785   17.0296 H   0  0  0  0  0  0  0  0  0  0  0  0
    5.4891    1.3080   17.8180 C   0  0  0  0  0  0  0  0  0  0  0  0
    6.6444    0.6552   17.5678 N   0  0  0  0  0  0  0  0  0  0  0  0
    7.2008   -0.0440   18.5872 C   0  0  0  0  0  0  0  0  0  0  0  0
    8.1323   -0.5579   18.3736 H   0  0  0  0  0  0  0  0  0  0  0  0
    6.6249   -0.1193   19.8877 C   0  0  0  0  0  0  0  0  0  0  0  0
    7.0972   -0.8045   21.0156 N   0  0  0  0  0  0  0  0  0  0  0  0
    6.6074   -0.5836   21.8869 H   0  0  0  0  0  0  0  0  0  0  0  0
    8.6509   -1.4465   21.1728 S   0  0  0  0  0  0  0  0  0  0  0  0
    9.4804    0.0066   21.7338 C   0  0  0  0  0  0  0  0  0  0  0  0
    9.8789    0.9445   20.7853 C   0  0  0  0  0  0  0  0  0  0  0  0
    9.6262    0.7361   19.7483 H   0  0  0  0  0  0  0  0  0  0  0  0
   10.5807    2.1014   21.1553 C   0  0  0  0  0  0  0  0  0  0  0  0
   10.9157    2.8075   20.4021 H   0  0  0  0  0  0  0  0  0  0  0  0
   10.8466    2.3550   22.5078 C   0  0  0  0  0  0  0  0  0  0  0  0
   11.4021    3.2454   22.8090 H   0  0  0  0  0  0  0  0  0  0  0  0
   10.3820    1.4514   23.4722 C   0  0  0  0  0  0  0  0  0  0  0  0
   10.6279    1.8038   25.3238 Br  0  0  0  0  0  0  0  0  0  0  0  0
    9.7288    0.2718   23.0892 C   0  0  0  0  0  0  0  0  0  0  0  0
    9.4155   -0.4298   23.8567 H   0  0  0  0  0  0  0  0  0  0  0  0
    5.4420    0.5585   20.1181 C   0  0  0  0  0  0  0  0  0  0  0  0
    4.9983    0.5101   21.1115 H   0  0  0  0  0  0  0  0  0  0  0  0
    4.8685    1.2797   19.0751 C   0  0  0  0  0  0  0  0  0  0  0  0
    3.9500    1.8259   19.2459 H   0  0  0  0  0  0  0  0  0  0  0  0
  1  2  1  0
  2  3  2  0
  3  4  1  0
  4  5  1  0
  4  6  2  0
  6  7  1  0
  7  8  1  0
  7  9  1  0
  9 10  1  0
 10 11  2  0
 11 12  1  0
 11 13  1  0
 13 14  1  0
 13 15  2  0
 15 16  1  0
 15 17  1  0
 17 18  1  0
 17 19  2  0
 19 20  1  0
  6 21  1  0
 21 22  1  0
 21 23  2  0
 23 24  1  0
 23  2  1  0
 19 10  1  0
M  END
>  <plip>  (1) 
-0.10714285714285714

>  <filename>  (1) 
[H][c]1[n][c]([H])[c]([N]([H])[S][c]2[c]([H])[c]([H])[c]([H])[c]([Br])[c]2[H])[c]([H])[c]1[H]

$$$$
