
     RDKit          3D

 27 28  0  0  0  0  0  0  0  0999 V2000
    4.9168    1.7817   16.9958 H   0  0  0  0  0  0  0  0  0  0  0  0
    5.3993    1.2928   17.8401 C   0  0  0  0  0  0  0  0  0  0  0  0
    6.5641    0.6779   17.5781 N   0  0  0  0  0  0  0  0  0  0  0  0
    7.1766    0.0602   18.5958 C   0  0  0  0  0  0  0  0  0  0  0  0
    8.1215   -0.4239   18.3630 H   0  0  0  0  0  0  0  0  0  0  0  0
    6.6699   -0.0002   19.9147 C   0  0  0  0  0  0  0  0  0  0  0  0
    7.3684   -0.6966   20.9650 C   0  0  0  0  0  0  0  0  0  0  0  0
    7.9220   -1.2703   21.8755 C   0  0  0  0  0  0  0  0  0  0  0  0
    8.5941   -1.9294   22.8482 N   0  0  0  0  0  0  0  0  0  0  0  0
    8.0597   -1.9947   24.1625 C   0  0  0  0  0  0  0  0  0  0  0  0
    6.8229   -1.3861   24.5157 C   0  0  0  0  0  0  0  0  0  0  0  0
    6.2445   -0.8433   23.7792 H   0  0  0  0  0  0  0  0  0  0  0  0
    6.2794   -1.4206   25.7396 N   0  0  0  0  0  0  0  0  0  0  0  0
    6.9439   -2.0721   26.6998 C   0  0  0  0  0  0  0  0  0  0  0  0
    6.4791   -2.0844   27.6820 H   0  0  0  0  0  0  0  0  0  0  0  0
    8.1644   -2.7076   26.4740 C   0  0  0  0  0  0  0  0  0  0  0  0
    8.6607   -3.2240   27.2849 H   0  0  0  0  0  0  0  0  0  0  0  0
    8.7321   -2.6717   25.1968 C   0  0  0  0  0  0  0  0  0  0  0  0
    9.6825   -3.1630   25.0099 H   0  0  0  0  0  0  0  0  0  0  0  0
    9.8688   -2.5629   22.5252 C   0  0  0  0  0  0  0  0  0  0  0  0
   10.6840   -2.1435   23.1281 H   0  0  0  0  0  0  0  0  0  0  0  0
    9.8205   -3.6420   22.7125 H   0  0  0  0  0  0  0  0  0  0  0  0
   10.1173   -2.4097   21.4719 H   0  0  0  0  0  0  0  0  0  0  0  0
    5.4434    0.6501   20.1593 C   0  0  0  0  0  0  0  0  0  0  0  0
    5.0074    0.6344   21.1588 H   0  0  0  0  0  0  0  0  0  0  0  0
    4.8055    1.3102   19.1066 C   0  0  0  0  0  0  0  0  0  0  0  0
    3.8733    1.8436   19.2562 H   0  0  0  0  0  0  0  0  0  0  0  0
  1  2  1  0
  2  3  2  0
  3  4  1  0
  4  5  1  0
  4  6  2  0
  6  7  1  0
  7  8  3  0
  8  9  1  0
  9 10  1  0
 10 11  2  0
 11 12  1  0
 11 13  1  0
 13 14  2  0
 14 15  1  0
 14 16  1  0
 16 17  1  0
 16 18  2  0
 18 19  1  0
  9 20  1  0
 20 21  1  0
 20 22  1  0
 20 23  1  0
  6 24  1  0
 24 25  1  0
 24 26  2  0
 26 27  1  0
 26  2  1  0
 18 10  1  0
M  END
>  <plip>  (1) 
-0.03571428571428571

>  <filename>  (1) 
[H][c]1[n][c]([H])[c]([C]#[C][N]([c]2[c]([H])[n][c]([H])[c]([H])[c]2[H])[C]([H])([H])[H])[c]([H])[c]1[H]

$$$$
