
     RDKit          3D

 42 43  0  0  0  0  0  0  0  0999 V2000
    5.3105    1.8006   16.7740 H   0  0  0  0  0  0  0  0  0  0  0  0
    5.5828    1.2200   17.6526 C   0  0  0  0  0  0  0  0  0  0  0  0
    6.7151    0.5015   17.5610 N   0  0  0  0  0  0  0  0  0  0  0  0
    7.0973   -0.1887   18.6438 C   0  0  0  0  0  0  0  0  0  0  0  0
    8.0298   -0.7432   18.5491 H   0  0  0  0  0  0  0  0  0  0  0  0
    6.3924   -0.2045   19.8672 C   0  0  0  0  0  0  0  0  0  0  0  0
    6.9787   -0.7855   21.1034 C   0  0  0  0  0  0  0  0  0  0  0  0
    7.6642   -2.3713   21.1489 S   0  0  0  0  0  0  0  0  0  0  0  0
    8.2396   -2.1570   22.7559 C   0  0  0  0  0  0  0  0  0  0  0  0
    8.8406   -2.9268   23.2278 H   0  0  0  0  0  0  0  0  0  0  0  0
    7.8895   -0.9344   23.2450 C   0  0  0  0  0  0  0  0  0  0  0  0
    8.1500   -0.5866   24.2425 H   0  0  0  0  0  0  0  0  0  0  0  0
    7.1597   -0.1353   22.3030 C   0  0  0  0  0  0  0  0  0  0  0  0
    6.7905    1.3130   22.5013 C   0  0  0  0  0  0  0  0  0  0  0  0
    5.7358    1.4706   22.2553 H   0  0  0  0  0  0  0  0  0  0  0  0
    6.8659    1.5693   23.5648 H   0  0  0  0  0  0  0  0  0  0  0  0
    7.6506    2.2791   21.6558 C   0  0  0  0  0  0  0  0  0  0  0  0
    7.3758    2.1602   20.6008 H   0  0  0  0  0  0  0  0  0  0  0  0
    7.3730    3.3084   21.9115 H   0  0  0  0  0  0  0  0  0  0  0  0
    9.1646    2.0559   21.8072 C   0  0  0  0  0  0  0  0  0  0  0  0
    9.7067    2.7969   21.2058 H   0  0  0  0  0  0  0  0  0  0  0  0
    9.3912    1.0760   21.3584 H   0  0  0  0  0  0  0  0  0  0  0  0
    9.6652    2.0723   23.2575 C   0  0  0  0  0  0  0  0  0  0  0  0
    9.6577    3.1014   23.6385 H   0  0  0  0  0  0  0  0  0  0  0  0
    8.9534    1.5273   23.8910 H   0  0  0  0  0  0  0  0  0  0  0  0
   11.0406    1.4273   23.4467 C   0  0  0  0  0  0  0  0  0  0  0  0
   10.9385    0.3746   23.1535 H   0  0  0  0  0  0  0  0  0  0  0  0
   11.2885    1.4243   24.5175 H   0  0  0  0  0  0  0  0  0  0  0  0
   12.1955    2.0641   22.6651 C   0  0  0  0  0  0  0  0  0  0  0  0
   12.0578    1.8780   21.5882 H   0  0  0  0  0  0  0  0  0  0  0  0
   12.1520    3.1530   22.7960 H   0  0  0  0  0  0  0  0  0  0  0  0
   13.5723    1.5821   23.1425 C   0  0  0  0  0  0  0  0  0  0  0  0
   13.6418    1.7661   24.2228 H   0  0  0  0  0  0  0  0  0  0  0  0
   14.3565    2.1902   22.6740 H   0  0  0  0  0  0  0  0  0  0  0  0
   13.8851    0.1135   22.8919 C   0  0  0  0  0  0  0  0  0  0  0  0
   14.0723   -0.0925   21.8359 H   0  0  0  0  0  0  0  0  0  0  0  0
   14.7770   -0.1951   23.4468 H   0  0  0  0  0  0  0  0  0  0  0  0
   13.0807   -0.5530   23.2246 H   0  0  0  0  0  0  0  0  0  0  0  0
    5.1646    0.4746   19.8987 C   0  0  0  0  0  0  0  0  0  0  0  0
    4.5300    0.4187   20.7843 H   0  0  0  0  0  0  0  0  0  0  0  0
    4.7723    1.2262   18.7902 C   0  0  0  0  0  0  0  0  0  0  0  0
    3.8785    1.8373   18.8123 H   0  0  0  0  0  0  0  0  0  0  0  0
  1  2  1  0
  2  3  2  0
  3  4  1  0
  4  5  1  0
  4  6  2  0
  6  7  1  0
  7  8  1  0
  8  9  1  0
  9 10  1  0
  9 11  2  0
 11 12  1  0
 11 13  1  0
 13 14  1  0
 14 15  1  0
 14 16  1  0
 14 17  1  0
 17 18  1  0
 17 19  1  0
 17 20  1  0
 20 21  1  0
 20 22  1  0
 20 23  1  0
 23 24  1  0
 23 25  1  0
 23 26  1  0
 26 27  1  0
 26 28  1  0
 26 29  1  0
 29 30  1  0
 29 31  1  0
 29 32  1  0
 32 33  1  0
 32 34  1  0
 32 35  1  0
 35 36  1  0
 35 37  1  0
 35 38  1  0
  6 39  1  0
 39 40  1  0
 39 41  2  0
 41 42  1  0
 41  2  1  0
 13  7  2  0
M  END
>  <plip>  (1) 
-0.03571428571428571

>  <filename>  (1) 
[H][c]1[n][c]([H])[c](-[c]2[s][c]([H])[c]([H])[c]2[C]([H])([H])[C]([H])([H])[C]([H])([H])[C]([H])([H])[C]([H])([H])[C]([H])([H])[C]([H])([H])[C]([H])([H])[H])[c]([H])[c]1[H]

$$$$
