
     RDKit          3D

 33 35  0  0  0  0  0  0  0  0999 V2000
    4.9413    1.8441   17.0888 H   0  0  0  0  0  0  0  0  0  0  0  0
    5.4315    1.2999   17.8939 C   0  0  0  0  0  0  0  0  0  0  0  0
    6.5879    0.6834   17.5823 N   0  0  0  0  0  0  0  0  0  0  0  0
    7.2136    0.0311   18.5686 C   0  0  0  0  0  0  0  0  0  0  0  0
    8.1428   -0.4727   18.3004 H   0  0  0  0  0  0  0  0  0  0  0  0
    6.7568   -0.0666   19.9118 C   0  0  0  0  0  0  0  0  0  0  0  0
    7.4844   -0.8390   20.8279 N   0  0  0  0  0  0  0  0  0  0  0  0
    8.4087   -1.0898   20.4886 H   0  0  0  0  0  0  0  0  0  0  0  0
    7.4474   -0.7740   22.2792 C   0  0  0  0  0  0  0  0  0  0  0  0
    7.8027    0.5085   23.0608 C   0  0  0  0  0  0  0  0  0  0  0  0
    9.0989    0.6802   23.3965 N   0  0  0  0  0  0  0  0  0  0  0  0
    9.4365    1.7395   24.1151 C   0  0  0  0  0  0  0  0  0  0  0  0
   10.7331    1.9181   24.4568 O   0  0  0  0  0  0  0  0  0  0  0  0
   11.6560    0.9174   24.0176 C   0  0  0  0  0  0  0  0  0  0  0  0
   11.3772   -0.0589   24.4299 H   0  0  0  0  0  0  0  0  0  0  0  0
   12.6461    1.2057   24.3673 H   0  0  0  0  0  0  0  0  0  0  0  0
   11.6477    0.8439   22.9243 H   0  0  0  0  0  0  0  0  0  0  0  0
    8.5157    2.7032   24.5583 C   0  0  0  0  0  0  0  0  0  0  0  0
    8.8947    3.5325   25.1379 H   0  0  0  0  0  0  0  0  0  0  0  0
    7.1818    2.5337   24.2233 C   0  0  0  0  0  0  0  0  0  0  0  0
    6.4290    3.2520   24.5540 H   0  0  0  0  0  0  0  0  0  0  0  0
    6.8136    1.4075   23.4682 C   0  0  0  0  0  0  0  0  0  0  0  0
    5.7751    1.2136   23.2236 H   0  0  0  0  0  0  0  0  0  0  0  0
    6.5002   -1.7735   22.9130 C   0  0  0  0  0  0  0  0  0  0  0  0
    5.8239   -2.2921   22.2335 H   0  0  0  0  0  0  0  0  0  0  0  0
    6.0848   -1.5442   23.8920 H   0  0  0  0  0  0  0  0  0  0  0  0
    7.9684   -2.0648   22.8501 C   0  0  0  0  0  0  0  0  0  0  0  0
    8.3190   -2.8016   22.1288 H   0  0  0  0  0  0  0  0  0  0  0  0
    8.5500   -1.9862   23.7674 H   0  0  0  0  0  0  0  0  0  0  0  0
    5.5405    0.5652   20.2023 C   0  0  0  0  0  0  0  0  0  0  0  0
    5.1323    0.5042   21.2078 H   0  0  0  0  0  0  0  0  0  0  0  0
    4.8760    1.2592   19.1769 C   0  0  0  0  0  0  0  0  0  0  0  0
    3.9432    1.7780   19.3690 H   0  0  0  0  0  0  0  0  0  0  0  0
  1  2  1  0
  2  3  2  0
  3  4  1  0
  4  5  1  0
  4  6  2  0
  6  7  1  0
  7  8  1  0
  7  9  1  0
  9 10  1  0
 10 11  2  0
 11 12  1  0
 12 13  1  0
 13 14  1  0
 14 15  1  0
 14 16  1  0
 14 17  1  0
 12 18  2  0
 18 19  1  0
 18 20  1  0
 20 21  1  0
 20 22  2  0
 22 23  1  0
  9 24  1  0
 24 25  1  0
 24 26  1  0
 24 27  1  0
 27 28  1  0
 27 29  1  0
  6 30  1  0
 30 31  1  0
 30 32  2  0
 32 33  1  0
 32  2  1  0
 27  9  1  0
 22 10  1  0
M  END
>  <plip>  (1) 
-0.03571428571428571

>  <filename>  (1) 
[H][c]1[n][c]([H])[c]([N]([H])[C]2([c]3[n][c]([O][C]([H])([H])[H])[c]([H])[c]([H])[c]3[H])[C]([H])([H])[C]2([H])[H])[c]([H])[c]1[H]

$$$$
