
     RDKit          3D

 54 57  0  0  0  0  0  0  0  0999 V2000
    6.0713   -6.5067   25.8848 C   0  0  0  0  0  0  0  0  0  0  0  0
    5.9714   -5.7784   27.2049 C   0  0  0  0  0  0  0  0  0  0  0  0
    6.1702   -6.4625   28.4086 C   0  0  0  0  0  0  0  0  0  0  0  0
    6.0535   -5.8175   29.6505 C   0  0  0  0  0  0  0  0  0  0  0  0
    5.6924   -4.4681   29.6901 C   0  0  0  0  0  0  0  0  0  0  0  0
    5.5248   -3.7666   28.4907 C   0  0  0  0  0  0  0  0  0  0  0  0
    5.7585   -4.3816   27.2527 C   0  0  0  0  0  0  0  0  0  0  0  0
    5.9812   -3.5770   26.0090 C   0  0  2  0  0  0  0  0  0  0  0  0
    5.3863   -2.2378   25.7235 C   0  0  0  0  0  0  0  0  0  0  0  0
    4.9390   -3.4410   24.9211 C   0  0  1  0  0  0  0  0  0  0  0  0
    5.2158   -3.7085   23.4717 C   0  0  0  0  0  0  0  0  0  0  0  0
    4.4959   -4.4566   22.8263 O   0  0  0  0  0  0  0  0  0  0  0  0
    6.2643   -3.0663   22.8914 N   0  0  0  0  0  0  0  0  0  0  0  0
    6.3738   -3.0187   21.4450 C   0  0  0  0  0  0  0  0  0  0  0  0
    7.4321   -2.0466   20.9351 C   0  0  2  0  0  0  0  0  0  0  0  0
    8.8824   -2.3646   21.3821 C   0  0  0  0  0  0  0  0  0  0  0  0
    9.3735   -1.1087   22.0988 C   0  0  0  0  0  0  0  0  0  0  0  0
    8.6091   -0.0203   21.4316 N   0  0  0  0  0  4  0  0  0  0  0  0
    8.7097    1.2966   22.0892 C   0  0  0  0  0  0  0  0  0  0  0  0
    8.0729    2.0282   21.5805 H   0  0  0  0  0  0  0  0  0  0  0  0
    8.3738    1.2266   23.1351 H   0  0  0  0  0  0  0  0  0  0  0  0
    9.7461    1.6580   22.0953 H   0  0  0  0  0  0  0  0  0  0  0  0
    7.1916   -0.5442   21.2339 C   0  0  1  0  0  0  0  0  0  0  0  0
    6.5410    0.2259   20.1019 C   0  0  0  0  0  0  0  0  0  0  0  0
    5.2920    0.8537   20.2243 C   0  0  0  0  0  0  0  0  0  0  0  0
    4.7526    1.5000   19.1073 C   0  0  0  0  0  0  0  0  0  0  0  0
    5.4713    1.4944   17.9092 C   0  0  0  0  0  0  0  0  0  0  0  0
    6.6713    0.9096   17.7746 N   0  0  0  0  0  0  0  0  0  0  0  0
    7.1873    0.3159   18.8531 C   0  0  0  0  0  0  0  0  0  0  0  0
    8.1684   -0.1385   18.6995 H   0  0  0  0  0  0  0  0  0  0  0  0
    5.0753    1.9733   17.0155 H   0  0  0  0  0  0  0  0  0  0  0  0
    3.7972    2.0127   19.1499 H   0  0  0  0  0  0  0  0  0  0  0  0
    4.7513    0.8396   21.1741 H   0  0  0  0  0  0  0  0  0  0  0  0
    6.6280   -0.3871   22.1652 H   0  0  0  0  0  0  0  0  0  0  0  0
    8.9600    0.0537   20.4582 H   0  0  0  0  0  0  0  0  0  0  0  0
    9.1283   -1.1260   23.1702 H   0  0  0  0  0  0  0  0  0  0  0  0
   10.4529   -0.9517   22.0009 H   0  0  0  0  0  0  0  0  0  0  0  0
    8.9588   -3.2506   22.0189 H   0  0  0  0  0  0  0  0  0  0  0  0
    9.5203   -2.5548   20.5111 H   0  0  0  0  0  0  0  0  0  0  0  0
    7.3659   -2.1197   19.8488 H   0  0  0  0  0  0  0  0  0  0  0  0
    5.3911   -2.7616   21.0300 H   0  0  0  0  0  0  0  0  0  0  0  0
    6.5953   -4.0285   21.0687 H   0  0  0  0  0  0  0  0  0  0  0  0
    6.8531   -2.5164   23.4878 H   0  0  0  0  0  0  0  0  0  0  0  0
    3.9427   -3.8064   25.1563 H   0  0  0  0  0  0  0  0  0  0  0  0
    4.6637   -1.8022   26.4100 H   0  0  0  0  0  0  0  0  0  0  0  0
    6.0661   -1.5098   25.2846 H   0  0  0  0  0  0  0  0  0  0  0  0
    7.0106   -3.6762   25.6547 H   0  0  0  0  0  0  0  0  0  0  0  0
    5.2753   -2.7082   28.4951 H   0  0  0  0  0  0  0  0  0  0  0  0
    5.6112   -3.9671   30.6552 H   0  0  0  0  0  0  0  0  0  0  0  0
    6.2368   -6.3428   30.5867 H   0  0  0  0  0  0  0  0  0  0  0  0
    6.4367   -7.5131   28.3397 H   0  0  0  0  0  0  0  0  0  0  0  0
    5.9390   -7.5805   26.0210 H   0  0  0  0  0  0  0  0  0  0  0  0
    5.3181   -6.1630   25.1654 H   0  0  0  0  0  0  0  0  0  0  0  0
    7.0567   -6.3374   25.4326 H   0  0  0  0  0  0  0  0  0  0  0  0
  1  2  1  0
  2  3  2  0
  3  4  1  0
  4  5  2  0
  5  6  1  0
  6  7  2  0
  7  8  1  0
  8  9  1  0
  9 10  1  0
 10 11  1  0
 11 12  2  0
 11 13  1  0
 13 14  1  0
 14 15  1  0
 15 16  1  0
 16 17  1  0
 17 18  1  0
 18 19  1  0
 19 20  1  0
 19 21  1  0
 19 22  1  0
 18 23  1  0
 23 24  1  0
 24 25  2  0
 25 26  1  0
 26 27  2  0
 27 28  1  0
 28 29  2  0
 29 30  1  0
 27 31  1  0
 26 32  1  0
 25 33  1  0
 23 34  1  1
 18 35  1  0
 17 36  1  0
 17 37  1  0
 16 38  1  0
 16 39  1  0
 15 40  1  6
 14 41  1  0
 14 42  1  0
 13 43  1  0
 10 44  1  1
  9 45  1  0
  9 46  1  0
  8 47  1  6
  6 48  1  0
  5 49  1  0
  4 50  1  0
  3 51  1  0
  1 52  1  0
  1 53  1  0
  1 54  1  0
  7  2  1  0
 10  8  1  0
 23 15  1  0
 29 24  1  0
M  CHG  1  18   1
M  END
>  <plip>  (1) 
-0.13793103448275862

>  <filename>  (1) 
[H][c]1[n][c]([H])[c]([C@@]2([H])[C@]([H])([C]([H])([H])[N]([H])[C](=[O])[C@]3([H])[C]([H])([H])[C@@]3([H])[c]3[c]([H])[c]([H])[c]([H])[c]([H])[c]3[C]([H])([H])[H])[C]([H])([H])[C]([H])([H])[N+]2([H])[C]([H])([H])[H])[c]([H])[c]1[H]

$$$$
