
     RDKit          3D

 37 38  0  0  0  0  0  0  0  0999 V2000
    5.9492   -4.6768   20.9330 C   0  0  0  0  0  0  0  0  0  0  0  0
    7.0011   -4.1558   21.8855 C   0  0  0  0  0  0  0  0  0  0  0  0
    7.4678   -2.9609   21.8938 N   0  0  0  0  0  0  0  0  0  0  0  0
    6.8670   -2.1497   20.9311 O   0  0  0  0  0  0  0  0  0  0  0  0
    7.3611   -0.8103   20.9861 C   0  0  0  0  0  0  0  0  0  0  0  0
    6.6531   -0.0114   19.9137 C   0  0  0  0  0  0  0  0  0  0  0  0
    5.4436    0.6481   20.1613 C   0  0  0  0  0  0  0  0  0  0  0  0
    4.8079    1.3085   19.1054 C   0  0  0  0  0  0  0  0  0  0  0  0
    5.4028    1.2900   17.8381 C   0  0  0  0  0  0  0  0  0  0  0  0
    6.5644    0.6702   17.5813 N   0  0  0  0  0  0  0  0  0  0  0  0
    7.1640    0.0510   18.6070 C   0  0  0  0  0  0  0  0  0  0  0  0
    8.1117   -0.4240   18.3673 H   0  0  0  0  0  0  0  0  0  0  0  0
    4.9301    1.7856   16.9913 H   0  0  0  0  0  0  0  0  0  0  0  0
    3.8769    1.8409   19.2495 H   0  0  0  0  0  0  0  0  0  0  0  0
    5.0038    0.6352   21.1641 H   0  0  0  0  0  0  0  0  0  0  0  0
    7.1643   -0.3846   21.9788 H   0  0  0  0  0  0  0  0  0  0  0  0
    8.4469   -0.8166   20.8356 H   0  0  0  0  0  0  0  0  0  0  0  0
    7.5593   -5.0904   22.9394 C   0  0  0  0  0  0  0  0  0  0  0  0
    6.9657   -4.8285   24.3094 C   0  0  0  0  0  0  0  0  0  0  0  0
    7.5993   -3.9420   25.1848 C   0  0  0  0  0  0  0  0  0  0  0  0
    7.0200   -3.6101   26.4126 C   0  0  0  0  0  0  0  0  0  0  0  0
    5.7969   -4.1753   26.7799 C   0  0  0  0  0  0  0  0  0  0  0  0
    5.1538   -5.0758   25.9138 C   0  0  0  0  0  0  0  0  0  0  0  0
    3.7948   -5.6521   26.2812 C   0  0  0  0  0  0  0  0  0  0  0  0
    3.5947   -6.8748   25.7515 F   0  0  0  0  0  0  0  0  0  0  0  0
    2.7904   -4.8738   25.8312 F   0  0  0  0  0  0  0  0  0  0  0  0
    3.6265   -5.7647   27.6127 F   0  0  0  0  0  0  0  0  0  0  0  0
    5.7355   -5.3871   24.6740 C   0  0  0  0  0  0  0  0  0  0  0  0
    5.2202   -6.0590   23.9862 H   0  0  0  0  0  0  0  0  0  0  0  0
    5.3458   -3.9200   27.7393 H   0  0  0  0  0  0  0  0  0  0  0  0
    7.5168   -2.9128   27.0829 H   0  0  0  0  0  0  0  0  0  0  0  0
    8.5456   -3.4990   24.8807 H   0  0  0  0  0  0  0  0  0  0  0  0
    7.3617   -6.1263   22.6495 H   0  0  0  0  0  0  0  0  0  0  0  0
    8.6459   -4.9951   22.9636 H   0  0  0  0  0  0  0  0  0  0  0  0
    5.0399   -4.0837   21.0434 H   0  0  0  0  0  0  0  0  0  0  0  0
    5.7085   -5.7225   21.1321 H   0  0  0  0  0  0  0  0  0  0  0  0
    6.2724   -4.5875   19.8918 H   0  0  0  0  0  0  0  0  0  0  0  0
  1  2  1  0
  2  3  2  3
  3  4  1  0
  4  5  1  0
  5  6  1  0
  6  7  2  0
  7  8  1  0
  8  9  2  0
  9 10  1  0
 10 11  2  0
 11 12  1  0
  9 13  1  0
  8 14  1  0
  7 15  1  0
  5 16  1  0
  5 17  1  0
  2 18  1  0
 18 19  1  0
 19 20  2  0
 20 21  1  0
 21 22  2  0
 22 23  1  0
 23 24  1  0
 24 25  1  0
 24 26  1  0
 24 27  1  0
 23 28  2  0
 28 29  1  0
 22 30  1  0
 21 31  1  0
 20 32  1  0
 18 33  1  0
 18 34  1  0
  1 35  1  0
  1 36  1  0
  1 37  1  0
 11  6  1  0
 28 19  1  0
M  END
>  <plip>  (1) 
-0.06896551724137931

>  <filename>  (1) 
[H][c]1[n][c]([H])[c]([C]([H])([H])[O][N]=[C]([C]([H])([H])[H])[C]([H])([H])[c]2[c]([H])[c]([H])[c]([H])[c]([C]([F])([F])[F])[c]2[H])[c]([H])[c]1[H]

$$$$
