
     RDKit          3D

 23 24  0  0  0  0  0  0  0  0999 V2000
   12.2875   -2.3678   22.6721 H   0  0  0  0  0  0  0  0  0  0  0  0
   11.2050   -2.4909   22.6538 C   0  0  0  0  0  0  0  0  0  0  0  0
   10.6755   -3.4344   23.4208 N   0  0  0  0  0  0  0  0  0  0  0  0
    9.3563   -3.6118   23.3105 C   0  0  0  0  0  0  0  0  0  0  0  0
    8.9416   -4.4146   23.9152 H   0  0  0  0  0  0  0  0  0  0  0  0
    8.5594   -2.8730   22.4715 C   0  0  0  0  0  0  0  0  0  0  0  0
    7.5087   -3.0490   22.2998 H   0  0  0  0  0  0  0  0  0  0  0  0
    9.2420   -1.8922   21.7555 C   0  0  0  0  0  0  0  0  0  0  0  0
    8.6560   -1.0480   20.8506 N   0  0  0  0  0  0  0  0  0  0  0  0
    9.3681   -0.3366   20.7162 H   0  0  0  0  0  0  0  0  0  0  0  0
    7.3419   -0.5925   20.9810 N   0  0  0  0  0  0  0  0  0  0  0  0
    6.7950   -0.7360   21.8270 H   0  0  0  0  0  0  0  0  0  0  0  0
    6.7066   -0.0051   19.9096 C   0  0  0  0  0  0  0  0  0  0  0  0
    7.2174    0.0335   18.5905 C   0  0  0  0  0  0  0  0  0  0  0  0
    8.1592   -0.4649   18.3565 H   0  0  0  0  0  0  0  0  0  0  0  0
    6.6008    0.6612   17.5791 N   0  0  0  0  0  0  0  0  0  0  0  0
    5.4366    1.2829   17.8390 C   0  0  0  0  0  0  0  0  0  0  0  0
    4.9599    1.7856   17.0028 H   0  0  0  0  0  0  0  0  0  0  0  0
    4.8365    1.2870   19.1072 C   0  0  0  0  0  0  0  0  0  0  0  0
    3.8945    1.8093   19.2621 H   0  0  0  0  0  0  0  0  0  0  0  0
    5.4726    0.6269   20.1511 C   0  0  0  0  0  0  0  0  0  0  0  0
    5.0578    0.6088   21.1619 H   0  0  0  0  0  0  0  0  0  0  0  0
   10.5514   -1.6771   21.8406 N   0  0  0  0  0  0  0  0  0  0  0  0
  1  2  1  0
  2  3  2  0
  3  4  1  0
  4  5  1  0
  4  6  2  0
  6  7  1  0
  6  8  1  0
  8  9  1  0
  9 10  1  0
  9 11  1  0
 11 12  1  0
 11 13  1  0
 13 14  2  0
 14 15  1  0
 14 16  1  0
 16 17  2  0
 17 18  1  0
 17 19  1  0
 19 20  1  0
 19 21  2  0
 21 22  1  0
  8 23  2  0
 23  2  1  0
 21 13  1  0
M  END
>  <plip>  (1) 
-0.10714285714285714

>  <filename>  (1) 
[H][c]1[n][c]([H])[c]([H])[c]([N]([H])[N]([H])[c]2[c]([H])[n][c]([H])[c]([H])[c]2[H])[n]1

$$$$
