
     RDKit          3D

 49 52  0  0  0  0  0  0  0  0999 V2000
    7.1981   -3.9012   24.3452 C   0  0  0  0  0  0  0  0  0  0  0  0
    6.6867   -3.0396   23.3154 O   0  0  0  0  0  0  0  0  0  0  0  0
    7.2965   -3.0819   22.1172 C   0  0  0  0  0  0  0  0  0  0  0  0
    8.2235   -3.8153   21.8554 O   0  0  0  0  0  0  0  0  0  0  0  0
    6.6708   -2.1516   21.1264 C   0  0  0  0  0  0  0  0  0  0  0  0
    7.3595   -0.7804   21.0498 C   0  0  0  0  0  0  0  0  0  0  0  0
    8.8675   -0.9355   20.7959 C   0  0  0  0  0  0  0  0  0  0  0  0
    9.0765   -1.6721   20.0151 H   0  0  0  0  0  0  0  0  0  0  0  0
    9.2969    0.0314   20.5299 H   0  0  0  0  0  0  0  0  0  0  0  0
    9.3431   -1.2778   21.7171 H   0  0  0  0  0  0  0  0  0  0  0  0
    7.1845   -0.1266   22.3379 N   0  0  0  0  0  0  0  0  0  0  0  0
    7.6103    1.1532   22.5594 C   0  0  0  0  0  0  0  0  0  0  0  0
    8.1633    1.8069   21.6752 O   0  0  0  0  0  0  0  0  0  0  0  0
    7.3708    1.7529   23.9374 C   0  0  0  0  0  0  0  0  0  0  0  0
    6.7875    1.0902   24.9463 N   0  0  0  0  0  0  0  0  0  0  0  0
    6.7904    1.9374   25.9797 N   0  0  0  0  0  0  0  0  0  0  0  0
    7.3482    3.1325   25.6828 C   0  0  0  0  0  0  0  0  0  0  0  0
    7.5357    4.3206   26.4866 C   0  0  0  0  0  0  0  0  0  0  0  0
    8.1931    5.4007   25.8536 C   0  0  0  0  0  0  0  0  0  0  0  0
    8.6431    5.3469   24.5685 O   0  0  0  0  0  0  0  0  0  0  0  0
    8.3575    4.2590   23.6712 C   0  0  0  0  0  0  0  0  0  0  0  0
    7.7378    3.0606   24.3603 C   0  0  0  0  0  0  0  0  0  0  0  0
    7.7079    4.6499   22.8718 H   0  0  0  0  0  0  0  0  0  0  0  0
    9.3076    3.9996   23.1830 H   0  0  0  0  0  0  0  0  0  0  0  0
    8.4289    6.5950   26.5539 C   0  0  0  0  0  0  0  0  0  0  0  0
    7.9979    6.7213   27.8743 C   0  0  0  0  0  0  0  0  0  0  0  0
    7.3323    5.6554   28.5080 C   0  0  0  0  0  0  0  0  0  0  0  0
    7.1064    4.4725   27.8186 C   0  0  0  0  0  0  0  0  0  0  0  0
    6.5888    3.6425   28.2920 H   0  0  0  0  0  0  0  0  0  0  0  0
    6.9896    5.7530   29.5347 H   0  0  0  0  0  0  0  0  0  0  0  0
    8.1722    7.6485   28.4211 H   0  0  0  0  0  0  0  0  0  0  0  0
    8.9437    7.4011   26.0366 H   0  0  0  0  0  0  0  0  0  0  0  0
    6.4017    1.6501   26.8675 H   0  0  0  0  0  0  0  0  0  0  0  0
    6.6551   -0.5943   23.0627 H   0  0  0  0  0  0  0  0  0  0  0  0
    6.6508   -0.0021   19.9311 C   0  0  0  0  0  0  0  0  0  0  0  0
    5.4199    0.6436   20.1446 C   0  0  0  0  0  0  0  0  0  0  0  0
    4.7955    1.3022   19.0860 C   0  0  0  0  0  0  0  0  0  0  0  0
    5.4046    1.2797   17.8260 C   0  0  0  0  0  0  0  0  0  0  0  0
    6.5641    0.6570   17.5832 N   0  0  0  0  0  0  0  0  0  0  0  0
    7.1619    0.0520   18.6257 C   0  0  0  0  0  0  0  0  0  0  0  0
    8.1212   -0.4066   18.3823 H   0  0  0  0  0  0  0  0  0  0  0  0
    4.9476    1.7863   16.9774 H   0  0  0  0  0  0  0  0  0  0  0  0
    3.8686    1.8441   19.2323 H   0  0  0  0  0  0  0  0  0  0  0  0
    4.9711    0.6567   21.1398 H   0  0  0  0  0  0  0  0  0  0  0  0
    5.6085   -2.0097   21.3361 H   0  0  0  0  0  0  0  0  0  0  0  0
    6.7757   -2.6415   20.1614 H   0  0  0  0  0  0  0  0  0  0  0  0
    6.5551   -3.7008   25.2035 H   0  0  0  0  0  0  0  0  0  0  0  0
    7.1434   -4.9570   24.0504 H   0  0  0  0  0  0  0  0  0  0  0  0
    8.2439   -3.6553   24.5667 H   0  0  0  0  0  0  0  0  0  0  0  0
  1  2  1  0
  2  3  1  0
  3  4  2  0
  3  5  1  0
  5  6  1  0
  6  7  1  0
  7  8  1  0
  7  9  1  0
  7 10  1  0
  6 11  1  0
 11 12  1  0
 12 13  2  0
 12 14  1  0
 14 15  2  0
 15 16  1  0
 16 17  1  0
 17 18  1  0
 18 19  2  0
 19 20  1  0
 20 21  1  0
 21 22  1  0
 21 23  1  0
 21 24  1  0
 19 25  1  0
 25 26  2  0
 26 27  1  0
 27 28  2  0
 28 29  1  0
 27 30  1  0
 26 31  1  0
 25 32  1  0
 16 33  1  0
 11 34  1  0
  6 35  1  0
 35 36  2  0
 36 37  1  0
 37 38  2  0
 38 39  1  0
 39 40  2  0
 40 41  1  0
 38 42  1  0
 37 43  1  0
 36 44  1  0
  5 45  1  0
  5 46  1  0
  1 47  1  0
  1 48  1  0
  1 49  1  0
 22 14  1  0
 40 35  1  0
 22 17  2  0
 28 18  1  0
M  END
>  <plip>  (1) 
-0.07142857142857142

>  <filename>  (1) 
[H][c]1[n][c]([H])[c]([C]([N]([H])[C](=[O])[c]2[n][n]([H])[c]3[c]2[C]([H])([H])[O][c]2[c]([H])[c]([H])[c]([H])[c]([H])[c]2-3)([C]([H])([H])[H])[C]([H])([H])[C](=[O])[O][C]([H])([H])[H])[c]([H])[c]1[H]

$$$$
