
     RDKit          3D

 41 43  0  0  0  0  0  0  0  0999 V2000
    8.4337   -4.1845   23.4234 C   0  0  0  0  0  0  0  0  0  0  0  0
    7.7587   -3.7427   24.7124 C   0  0  0  0  0  0  0  0  0  0  0  0
    7.4465   -4.6469   25.7121 C   0  0  0  0  0  0  0  0  0  0  0  0
    6.7928   -4.2513   26.9137 C   0  0  0  0  0  0  0  0  0  0  0  0
    6.4503   -2.9376   27.1340 C   0  0  0  0  0  0  0  0  0  0  0  0
    6.7704   -1.9512   26.1607 C   0  0  0  0  0  0  0  0  0  0  0  0
    6.4745   -0.5637   26.3238 C   0  0  0  0  0  0  0  0  0  0  0  0
    6.8304    0.3183   25.3361 C   0  0  0  0  0  0  0  0  0  0  0  0
    7.4887   -0.1660   24.1616 C   0  0  0  0  0  0  0  0  0  0  0  0
    7.9809    0.8706   23.1121 C   0  0  0  0  0  0  0  0  0  0  0  0
    8.2133    2.0297   23.4290 O   0  0  0  0  0  0  0  0  0  0  0  0
    8.2141    0.4129   21.8121 N   0  0  0  0  0  0  0  0  0  0  0  0
    9.2940    1.0606   21.0699 C   0  0  0  0  0  0  0  0  0  0  0  0
    9.4686    0.5381   20.1271 H   0  0  0  0  0  0  0  0  0  0  0  0
   10.2233    1.0211   21.6497 H   0  0  0  0  0  0  0  0  0  0  0  0
    9.0520    2.1120   20.8788 H   0  0  0  0  0  0  0  0  0  0  0  0
    7.3719   -0.6096   21.1544 C   0  0  0  0  0  0  0  0  0  0  0  0
    8.0017   -2.1090   20.9352 C   0  0  0  0  0  0  0  0  0  0  0  0
    9.2222   -2.2282   20.7221 O   0  0  0  0  0  0  0  0  0  0  0  0
    7.1288   -3.0106   20.9725 O   0  0  0  0  0  1  0  0  0  0  0  0
    6.6403   -0.0033   19.9415 C   0  0  0  0  0  0  0  0  0  0  0  0
    5.4159    0.6620   20.1380 C   0  0  0  0  0  0  0  0  0  0  0  0
    4.7978    1.3050   19.0613 C   0  0  0  0  0  0  0  0  0  0  0  0
    5.4279    1.2759   17.8131 C   0  0  0  0  0  0  0  0  0  0  0  0
    6.5847    0.6379   17.5934 N   0  0  0  0  0  0  0  0  0  0  0  0
    7.1677    0.0241   18.6392 C   0  0  0  0  0  0  0  0  0  0  0  0
    8.1108   -0.4774   18.4205 H   0  0  0  0  0  0  0  0  0  0  0  0
    4.9818    1.7796   16.9537 H   0  0  0  0  0  0  0  0  0  0  0  0
    3.8625    1.8434   19.1754 H   0  0  0  0  0  0  0  0  0  0  0  0
    4.9615    0.7052   21.1292 H   0  0  0  0  0  0  0  0  0  0  0  0
    6.5932   -0.8666   21.8696 H   0  0  0  0  0  0  0  0  0  0  0  0
    7.7469   -1.4521   23.9740 N   0  0  0  0  0  0  0  0  0  0  0  0
    7.4263   -2.3563   24.9410 C   0  0  0  0  0  0  0  0  0  0  0  0
    6.6407    1.3812   25.4309 H   0  0  0  0  0  0  0  0  0  0  0  0
    5.9835   -0.2248   27.2399 H   0  0  0  0  0  0  0  0  0  0  0  0
    5.9301   -2.6324   28.0423 H   0  0  0  0  0  0  0  0  0  0  0  0
    6.5666   -5.0078   27.6611 H   0  0  0  0  0  0  0  0  0  0  0  0
    7.7081   -5.6975   25.5806 H   0  0  0  0  0  0  0  0  0  0  0  0
    8.7347   -5.2391   23.4824 H   0  0  0  0  0  0  0  0  0  0  0  0
    9.3280   -3.5829   23.2207 H   0  0  0  0  0  0  0  0  0  0  0  0
    7.7986   -4.0459   22.5305 H   0  0  0  0  0  0  0  0  0  0  0  0
  1  2  1  0
  2  3  2  0
  3  4  1  0
  4  5  2  0
  5  6  1  0
  6  7  2  0
  7  8  1  0
  8  9  2  0
  9 10  1  0
 10 11  2  0
 10 12  1  0
 12 13  1  0
 13 14  1  0
 13 15  1  0
 13 16  1  0
 12 17  1  0
 17 18  1  0
 18 19  2  0
 18 20  1  0
 17 21  1  0
 21 22  2  0
 22 23  1  0
 23 24  2  0
 24 25  1  0
 25 26  2  0
 26 27  1  0
 24 28  1  0
 23 29  1  0
 22 30  1  0
 17 31  1  0
  9 32  1  0
 32 33  2  0
  8 34  1  0
  7 35  1  0
  5 36  1  0
  4 37  1  0
  3 38  1  0
  1 39  1  0
  1 40  1  0
  1 41  1  0
 33  2  1  0
 33  6  1  0
 26 21  1  0
M  CHG  1  20  -1
M  END
>  <plip>  (1) 
-0.03571428571428571

>  <filename>  (1) 
[H][c]1[n][c]([H])[c]([C]([H])([C](=[O])[O-])[N]([C](=[O])[c]2[n][c]3[c]([C]([H])([H])[H])[c]([H])[c]([H])[c]([H])[c]3[c]([H])[c]2[H])[C]([H])([H])[H])[c]([H])[c]1[H]

$$$$
