
     RDKit          3D

 43 45  0  0  0  0  0  0  0  0999 V2000
    5.4635   -2.2879   27.0011 C   0  0  0  0  0  0  0  0  0  0  0  0
    6.7469   -1.6096   26.5430 C   0  0  1  0  0  0  0  0  0  0  0  0
    6.7824   -1.5296   25.0856 N   0  0  0  0  0  0  0  0  0  0  0  0
    7.8519   -1.8910   24.3202 C   0  0  0  0  0  0  0  0  0  0  0  0
    8.8081   -2.4977   24.7853 O   0  0  0  0  0  0  0  0  0  0  0  0
    7.8507   -1.5096   22.8638 C   0  0  0  0  0  0  0  0  0  0  0  0
    8.8419   -1.8282   22.0006 C   0  0  0  0  0  0  0  0  0  0  0  0
    8.5289   -1.3095   20.7772 O   0  0  0  0  0  0  0  0  0  0  0  0
    7.3403   -0.6786   20.9686 C   0  0  0  0  0  0  0  0  0  0  0  0
    6.6563    0.0147   19.8917 C   0  0  0  0  0  0  0  0  0  0  0  0
    5.4329    0.6575   20.1559 C   0  0  0  0  0  0  0  0  0  0  0  0
    4.8040    1.3117   19.1058 C   0  0  0  0  0  0  0  0  0  0  0  0
    5.4082    1.2876   17.8422 C   0  0  0  0  0  0  0  0  0  0  0  0
    6.5730    0.6722   17.5845 N   0  0  0  0  0  0  0  0  0  0  0  0
    7.1847    0.0552   18.6003 C   0  0  0  0  0  0  0  0  0  0  0  0
    8.1305   -0.4318   18.3719 H   0  0  0  0  0  0  0  0  0  0  0  0
    4.9226    1.7740   17.0011 H   0  0  0  0  0  0  0  0  0  0  0  0
    3.8721    1.8450   19.2587 H   0  0  0  0  0  0  0  0  0  0  0  0
    5.0092    0.6306   21.1663 H   0  0  0  0  0  0  0  0  0  0  0  0
    6.8925   -0.7635   22.1778 N   0  0  0  0  0  0  0  0  0  0  0  0
    9.7709   -2.3783   22.0770 H   0  0  0  0  0  0  0  0  0  0  0  0
    6.0104   -1.0864   24.6106 H   0  0  0  0  0  0  0  0  0  0  0  0
    6.9739   -0.2370   27.2276 C   0  0  0  0  0  0  0  0  0  0  0  0
    8.3496    0.3801   26.8480 C   0  0  0  0  0  0  0  0  0  0  0  0
    8.2377    1.4917   25.7972 C   0  0  0  0  0  0  0  0  0  0  0  0
    7.3441    2.6574   26.2810 C   0  0  0  0  0  0  0  0  0  0  0  0
    6.2363    2.2133   27.2658 C   0  0  0  0  0  0  0  0  0  0  0  0
    5.8031    0.7630   27.0245 C   0  0  0  0  0  0  0  0  0  0  0  0
    4.9707    0.5052   27.6897 H   0  0  0  0  0  0  0  0  0  0  0  0
    5.4119    0.6833   26.0004 H   0  0  0  0  0  0  0  0  0  0  0  0
    5.3728    2.8830   27.1867 H   0  0  0  0  0  0  0  0  0  0  0  0
    6.5997    2.3077   28.2980 H   0  0  0  0  0  0  0  0  0  0  0  0
    6.8880    3.1337   25.4046 H   0  0  0  0  0  0  0  0  0  0  0  0
    7.9627    3.4216   26.7665 H   0  0  0  0  0  0  0  0  0  0  0  0
    7.8124    1.0636   24.8828 H   0  0  0  0  0  0  0  0  0  0  0  0
    9.2317    1.8628   25.5294 H   0  0  0  0  0  0  0  0  0  0  0  0
    8.7778    0.8042   27.7580 H   0  0  0  0  0  0  0  0  0  0  0  0
    9.0517   -0.3943   26.5180 H   0  0  0  0  0  0  0  0  0  0  0  0
    7.0146   -0.4441   28.3065 H   0  0  0  0  0  0  0  0  0  0  0  0
    7.5886   -2.2518   26.8229 H   0  0  0  0  0  0  0  0  0  0  0  0
    4.5724   -1.7302   26.6916 H   0  0  0  0  0  0  0  0  0  0  0  0
    5.4390   -2.3695   28.0937 H   0  0  0  0  0  0  0  0  0  0  0  0
    5.3951   -3.2986   26.5898 H   0  0  0  0  0  0  0  0  0  0  0  0
  1  2  1  0
  2  3  1  0
  3  4  1  0
  4  5  2  0
  4  6  1  0
  6  7  2  0
  7  8  1  0
  8  9  1  0
  9 10  1  0
 10 11  2  0
 11 12  1  0
 12 13  2  0
 13 14  1  0
 14 15  2  0
 15 16  1  0
 13 17  1  0
 12 18  1  0
 11 19  1  0
  9 20  2  0
  7 21  1  0
  3 22  1  0
  2 23  1  0
 23 24  1  0
 24 25  1  0
 25 26  1  0
 26 27  1  0
 27 28  1  0
 28 29  1  0
 28 30  1  0
 27 31  1  0
 27 32  1  0
 26 33  1  0
 26 34  1  0
 25 35  1  0
 25 36  1  0
 24 37  1  0
 24 38  1  0
 23 39  1  0
  2 40  1  1
  1 41  1  0
  1 42  1  0
  1 43  1  0
 20  6  1  0
 28 23  1  0
 15 10  1  0
M  END
>  <plip>  (1) 
-0.07142857142857142

>  <filename>  (1) 
[H][c]1[n][c]([H])[c](-[c]2[n][c]([C](=[O])[N]([H])[C@]([H])([C]([H])([H])[H])[C]3([H])[C]([H])([H])[C]([H])([H])[C]([H])([H])[C]([H])([H])[C]3([H])[H])[c]([H])[o]2)[c]([H])[c]1[H]

$$$$
