
     RDKit          3D

 28 30  0  0  0  0  0  0  0  0999 V2000
    4.8918    1.8491   16.9121 H   0  0  0  0  0  0  0  0  0  0  0  0
    5.3667    1.3343   17.7447 C   0  0  0  0  0  0  0  0  0  0  0  0
    6.5261    0.7134   17.4669 N   0  0  0  0  0  0  0  0  0  0  0  0
    7.1490    0.0915   18.4765 C   0  0  0  0  0  0  0  0  0  0  0  0
    8.0877   -0.4121   18.2537 H   0  0  0  0  0  0  0  0  0  0  0  0
    6.6562    0.0624   19.7970 C   0  0  0  0  0  0  0  0  0  0  0  0
    7.3709   -0.5932   20.8742 N   0  0  0  0  0  0  0  0  0  0  0  0
    7.8600    0.1665   21.9726 C   0  0  0  0  0  0  0  0  0  0  0  0
    7.6437    1.3549   22.0623 O   0  0  0  0  0  0  0  0  0  0  0  0
    8.6203   -0.5595   22.9636 C   0  0  0  0  0  0  0  0  0  0  0  0
    9.0238    0.0440   23.7550 H   0  0  0  0  0  0  0  0  0  0  0  0
    8.7414   -1.8960   22.9315 C   0  0  0  0  0  0  0  0  0  0  0  0
    9.2573   -2.6996   24.0357 C   0  0  0  0  0  0  0  0  0  0  0  0
    9.6394   -4.3771   23.8064 S   0  0  0  0  0  0  0  0  0  0  0  0
    9.8694   -4.6075   25.4919 C   0  0  0  0  0  0  0  0  0  0  0  0
   10.2843   -6.1618   26.0943 Cl  0  0  0  0  0  0  0  0  0  0  0  0
    9.6512   -3.4703   26.2146 C   0  0  0  0  0  0  0  0  0  0  0  0
    9.7373   -3.4246   27.2969 H   0  0  0  0  0  0  0  0  0  0  0  0
    9.3084   -2.3718   25.3693 C   0  0  0  0  0  0  0  0  0  0  0  0
    9.0818   -1.3734   25.7406 H   0  0  0  0  0  0  0  0  0  0  0  0
    8.2619   -2.5429   21.7980 N   0  0  0  0  0  0  0  0  0  0  0  0
    8.0153   -3.5145   21.8648 H   0  0  0  0  0  0  0  0  0  0  0  0
    7.2722   -1.9702   21.0231 C   0  0  0  0  0  0  0  0  0  0  0  0
    6.4338   -2.6730   20.5164 O   0  0  0  0  0  0  0  0  0  0  0  0
    5.4435    0.6970   20.0669 C   0  0  0  0  0  0  0  0  0  0  0  0
    5.0540    0.6906   21.0838 H   0  0  0  0  0  0  0  0  0  0  0  0
    4.7816    1.3415   19.0141 C   0  0  0  0  0  0  0  0  0  0  0  0
    3.8453    1.8658   19.1738 H   0  0  0  0  0  0  0  0  0  0  0  0
  1  2  1  0
  2  3  2  0
  3  4  1  0
  4  5  1  0
  4  6  2  0
  6  7  1  0
  7  8  1  0
  8  9  2  0
  8 10  1  0
 10 11  1  0
 10 12  2  0
 12 13  1  0
 13 14  1  0
 14 15  1  0
 15 16  1  0
 15 17  2  0
 17 18  1  0
 17 19  1  0
 19 20  1  0
 12 21  1  0
 21 22  1  0
 21 23  1  0
 23 24  2  0
  6 25  1  0
 25 26  1  0
 25 27  2  0
 27 28  1  0
 27  2  1  0
 23  7  1  0
 19 13  2  0
M  END
>  <plip>  (1) 
-0.06451612903225806

>  <filename>  (1) 
[H][c]1[n][c]([H])[c](-[n]2[c](=[O])[c]([H])[c](-[c]3[s][c]([Cl])[c]([H])[c]3[H])[n]([H])[c]2=[O])[c]([H])[c]1[H]

$$$$
