
     RDKit          3D

 55 57  0  0  0  0  0  0  0  0999 V2000
    4.0160   -8.1630   24.2610 C   0  0  0  0  0  0  0  0  0  0  0  0
    3.7116   -6.8396   23.9373 O   0  0  0  0  0  0  0  0  0  0  0  0
    2.4296   -6.5148   23.6712 C   0  0  0  0  0  0  0  0  0  0  0  0
    1.4177   -7.4351   23.3879 C   0  0  0  0  0  0  0  0  0  0  0  0
    0.1736   -6.9212   23.0365 C   0  0  0  0  0  0  0  0  0  0  0  0
   -0.1017   -5.6180   22.9771 N   0  0  0  0  0  0  0  0  0  0  0  0
    0.8883   -4.7636   23.2818 C   0  0  0  0  0  0  0  0  0  0  0  0
    2.1759   -5.1366   23.6576 C   0  0  0  0  0  0  0  0  0  0  0  0
    3.3297   -4.1822   23.9249 C   0  0  0  0  0  0  0  0  0  0  0  0
    4.2871   -4.1366   22.7254 C   0  0  0  0  0  0  0  0  0  0  0  0
    5.2940   -3.0881   22.8435 N   0  0  0  0  0  0  0  0  0  0  0  0
    5.8864   -2.6046   21.6887 C   0  0  0  0  0  0  0  0  0  0  0  0
    5.8552   -3.1360   20.5993 O   0  0  0  0  0  0  0  0  0  0  0  0
    6.5160   -1.4099   21.9721 N   0  0  0  0  0  0  0  0  0  0  0  0
    7.3629   -0.7920   20.9621 C   0  0  0  0  0  0  0  0  0  0  0  0
    8.4677    0.0962   21.5914 C   0  0  0  0  0  0  0  0  0  0  0  0
    8.1123    1.4791   22.0403 N   0  0  0  0  0  4  0  0  0  0  0  0
    7.3573    1.5664   23.3485 C   0  0  0  0  0  0  0  0  0  0  0  0
    7.5141    3.0291   23.7715 C   0  0  0  0  0  0  0  0  0  0  0  0
    8.8052    3.5380   23.0889 C   0  0  0  0  0  0  0  0  0  0  0  0
    9.3116    2.3833   22.2191 C   0  0  0  0  0  0  0  0  0  0  0  0
    9.7058    2.6998   21.2486 H   0  0  0  0  0  0  0  0  0  0  0  0
   10.0984    1.8178   22.7346 H   0  0  0  0  0  0  0  0  0  0  0  0
    9.5721    3.8251   23.8140 H   0  0  0  0  0  0  0  0  0  0  0  0
    8.6067    4.4242   22.4778 H   0  0  0  0  0  0  0  0  0  0  0  0
    7.5608    3.1092   24.8613 H   0  0  0  0  0  0  0  0  0  0  0  0
    6.6480    3.6157   23.4499 H   0  0  0  0  0  0  0  0  0  0  0  0
    6.3210    1.2500   23.2028 H   0  0  0  0  0  0  0  0  0  0  0  0
    7.8243    0.8956   24.0799 H   0  0  0  0  0  0  0  0  0  0  0  0
    7.4883    1.8941   21.2992 H   0  0  0  0  0  0  0  0  0  0  0  0
    9.2852    0.1743   20.8681 H   0  0  0  0  0  0  0  0  0  0  0  0
    8.8692   -0.4645   22.4458 H   0  0  0  0  0  0  0  0  0  0  0  0
    6.5584   -0.0750   19.8930 C   0  0  0  0  0  0  0  0  0  0  0  0
    5.3711    0.6320   20.1242 C   0  0  0  0  0  0  0  0  0  0  0  0
    4.7991    1.3536   19.0705 C   0  0  0  0  0  0  0  0  0  0  0  0
    5.4295    1.3394   17.8219 C   0  0  0  0  0  0  0  0  0  0  0  0
    6.5524    0.6494   17.5739 N   0  0  0  0  0  0  0  0  0  0  0  0
    7.0793   -0.0429   18.5908 C   0  0  0  0  0  0  0  0  0  0  0  0
    7.9786   -0.6125   18.3522 H   0  0  0  0  0  0  0  0  0  0  0  0
    5.0174    1.9011   16.9832 H   0  0  0  0  0  0  0  0  0  0  0  0
    3.8904    1.9301   19.2010 H   0  0  0  0  0  0  0  0  0  0  0  0
    4.8998    0.6044   21.1090 H   0  0  0  0  0  0  0  0  0  0  0  0
    7.9186   -1.5796   20.4407 H   0  0  0  0  0  0  0  0  0  0  0  0
    6.8754   -1.4363   22.9112 H   0  0  0  0  0  0  0  0  0  0  0  0
    5.0323   -2.2858   23.3960 H   0  0  0  0  0  0  0  0  0  0  0  0
    4.7783   -5.1073   22.6365 H   0  0  0  0  0  0  0  0  0  0  0  0
    3.6924   -4.0159   21.8144 H   0  0  0  0  0  0  0  0  0  0  0  0
    3.8964   -4.5045   24.8053 H   0  0  0  0  0  0  0  0  0  0  0  0
    2.9393   -3.1899   24.1675 H   0  0  0  0  0  0  0  0  0  0  0  0
    0.6401   -3.7057   23.2119 H   0  0  0  0  0  0  0  0  0  0  0  0
   -0.6488   -7.5956   22.8035 H   0  0  0  0  0  0  0  0  0  0  0  0
    1.5883   -8.5023   23.4423 H   0  0  0  0  0  0  0  0  0  0  0  0
    3.6207   -8.8315   23.4911 H   0  0  0  0  0  0  0  0  0  0  0  0
    3.6059   -8.4343   25.2407 H   0  0  0  0  0  0  0  0  0  0  0  0
    5.1001   -8.2395   24.2797 H   0  0  0  0  0  0  0  0  0  0  0  0
  1  2  1  0
  2  3  1  0
  3  4  2  0
  4  5  1  0
  5  6  2  0
  6  7  1  0
  7  8  2  0
  8  9  1  0
  9 10  1  0
 10 11  1  0
 11 12  1  0
 12 13  2  0
 12 14  1  0
 14 15  1  0
 15 16  1  0
 16 17  1  0
 17 18  1  0
 18 19  1  0
 19 20  1  0
 20 21  1  0
 21 22  1  0
 21 23  1  0
 20 24  1  0
 20 25  1  0
 19 26  1  0
 19 27  1  0
 18 28  1  0
 18 29  1  0
 17 30  1  0
 16 31  1  0
 16 32  1  0
 15 33  1  0
 33 34  2  0
 34 35  1  0
 35 36  2  0
 36 37  1  0
 37 38  2  0
 38 39  1  0
 36 40  1  0
 35 41  1  0
 34 42  1  0
 15 43  1  0
 14 44  1  0
 11 45  1  0
 10 46  1  0
 10 47  1  0
  9 48  1  0
  9 49  1  0
  7 50  1  0
  5 51  1  0
  4 52  1  0
  1 53  1  0
  1 54  1  0
  1 55  1  0
  8  3  1  0
 21 17  1  0
 38 33  1  0
M  CHG  1  17   1
M  END
>  <plip>  (1) 
-0.13333333333333333

>  <filename>  (1) 
[H][c]1[n][c]([H])[c]([C]([H])([N]([H])[C](=[O])[N]([H])[C]([H])([H])[C]([H])([H])[c]2[c]([H])[n][c]([H])[c]([H])[c]2[O][C]([H])([H])[H])[C]([H])([H])[N+]2([H])[C]([H])([H])[C]([H])([H])[C]([H])([H])[C]2([H])[H])[c]([H])[c]1[H]

$$$$
