
     RDKit          3D

 46 48  0  0  0  0  0  0  0  0999 V2000
    7.3381    3.2590   22.7775 C   0  0  0  0  0  0  0  0  0  0  0  0
    8.8411    3.2449   22.6802 C   0  0  0  0  0  0  0  0  0  0  0  0
    9.5849    2.3290   21.9909 C   0  0  0  0  0  0  0  0  0  0  0  0
    9.1478    1.1200   21.2737 C   0  0  0  0  0  0  0  0  0  0  0  0
    9.6482    0.7496   20.2256 O   0  0  0  0  0  0  0  0  0  0  0  0
    8.1682    0.4160   21.8992 N   0  0  0  0  0  0  0  0  0  0  0  0
    7.3461   -0.5510   21.1762 C   0  0  0  0  0  0  0  0  0  0  0  0
    8.1558   -1.7822   20.7257 C   0  0  0  0  0  0  0  0  0  0  0  0
    8.5901   -2.8150   21.7855 N   0  0  0  0  0  4  0  0  0  0  0  0
    7.4196   -3.5749   22.3298 C   0  0  0  0  0  0  0  0  0  0  0  0
    7.7438   -4.4302   22.9317 H   0  0  0  0  0  0  0  0  0  0  0  0
    6.7900   -3.9320   21.5082 H   0  0  0  0  0  0  0  0  0  0  0  0
    6.8155   -2.9171   22.9622 H   0  0  0  0  0  0  0  0  0  0  0  0
    9.4637   -2.2356   22.8699 C   0  0  0  0  0  0  0  0  0  0  0  0
    8.8599   -1.6098   23.5310 H   0  0  0  0  0  0  0  0  0  0  0  0
    9.9300   -3.0297   23.4663 H   0  0  0  0  0  0  0  0  0  0  0  0
   10.2398   -1.6073   22.4212 H   0  0  0  0  0  0  0  0  0  0  0  0
    9.1993   -3.4753   21.2611 H   0  0  0  0  0  0  0  0  0  0  0  0
    9.0552   -1.3975   20.2462 H   0  0  0  0  0  0  0  0  0  0  0  0
    7.5426   -2.3152   19.9940 H   0  0  0  0  0  0  0  0  0  0  0  0
    6.6398    0.0869   19.9803 C   0  0  0  0  0  0  0  0  0  0  0  0
    5.4113    0.7289   20.1685 C   0  0  0  0  0  0  0  0  0  0  0  0
    4.7915    1.3488   19.0812 C   0  0  0  0  0  0  0  0  0  0  0  0
    5.4206    1.3115   17.8338 C   0  0  0  0  0  0  0  0  0  0  0  0
    6.5918    0.6982   17.6223 N   0  0  0  0  0  0  0  0  0  0  0  0
    7.1834    0.1180   18.6785 C   0  0  0  0  0  0  0  0  0  0  0  0
    8.1411   -0.3502   18.4529 H   0  0  0  0  0  0  0  0  0  0  0  0
    4.9696    1.7933   16.9681 H   0  0  0  0  0  0  0  0  0  0  0  0
    3.8430    1.8593   19.1855 H   0  0  0  0  0  0  0  0  0  0  0  0
    4.9422    0.7491   21.1563 H   0  0  0  0  0  0  0  0  0  0  0  0
    6.5790   -0.8617   21.8924 H   0  0  0  0  0  0  0  0  0  0  0  0
    7.7395    0.9296   22.6455 H   0  0  0  0  0  0  0  0  0  0  0  0
   11.2741    2.7177   21.8905 S   0  0  0  0  0  0  0  0  0  0  0  0
   11.0448    4.1016   22.9124 C   0  0  0  0  0  0  0  0  0  0  0  0
   12.0225    5.0152   23.3583 C   0  0  0  0  0  0  0  0  0  0  0  0
   11.6332    6.0853   24.1557 C   0  0  0  0  0  0  0  0  0  0  0  0
   10.2778    6.2398   24.4935 C   0  0  0  0  0  0  0  0  0  0  0  0
    9.9262    7.2812   25.2659 F   0  0  0  0  0  0  0  0  0  0  0  0
    9.2949    5.3688   24.0609 C   0  0  0  0  0  0  0  0  0  0  0  0
    9.6798    4.2700   23.2550 C   0  0  0  0  0  0  0  0  0  0  0  0
    8.2564    5.5400   24.3245 H   0  0  0  0  0  0  0  0  0  0  0  0
   12.3548    6.8043   24.5300 H   0  0  0  0  0  0  0  0  0  0  0  0
   13.0646    4.8831   23.0709 H   0  0  0  0  0  0  0  0  0  0  0  0
    6.9635    4.2842   22.7752 H   0  0  0  0  0  0  0  0  0  0  0  0
    6.9653    2.7868   23.6932 H   0  0  0  0  0  0  0  0  0  0  0  0
    6.8733    2.7546   21.9228 H   0  0  0  0  0  0  0  0  0  0  0  0
  1  2  1  0
  2  3  2  0
  3  4  1  0
  4  5  2  0
  4  6  1  0
  6  7  1  0
  7  8  1  0
  8  9  1  0
  9 10  1  0
 10 11  1  0
 10 12  1  0
 10 13  1  0
  9 14  1  0
 14 15  1  0
 14 16  1  0
 14 17  1  0
  9 18  1  0
  8 19  1  0
  8 20  1  0
  7 21  1  0
 21 22  2  0
 22 23  1  0
 23 24  2  0
 24 25  1  0
 25 26  2  0
 26 27  1  0
 24 28  1  0
 23 29  1  0
 22 30  1  0
  7 31  1  0
  6 32  1  0
  3 33  1  0
 33 34  1  0
 34 35  2  0
 35 36  1  0
 36 37  2  0
 37 38  1  0
 37 39  1  0
 39 40  2  0
 39 41  1  0
 36 42  1  0
 35 43  1  0
  1 44  1  0
  1 45  1  0
  1 46  1  0
 40  2  1  0
 26 21  1  0
 40 34  1  0
M  CHG  1   9   1
M  END
>  <plip>  (1) 
-0.1

>  <filename>  (1) 
[H][c]1[n][c]([H])[c]([C]([H])([N]([H])[C](=[O])[c]2[s][c]3[c]([H])[c]([H])[c]([F])[c]([H])[c]3[c]2[C]([H])([H])[H])[C]([H])([H])[N+]([H])([C]([H])([H])[H])[C]([H])([H])[H])[c]([H])[c]1[H]

$$$$
