
     RDKit          3D

 24 25  0  0  0  0  0  0  0  0999 V2000
    4.9188    1.7896   16.9901 H   0  0  0  0  0  0  0  0  0  0  0  0
    5.3973    1.2966   17.8329 C   0  0  0  0  0  0  0  0  0  0  0  0
    6.5611    0.6801   17.5725 N   0  0  0  0  0  0  0  0  0  0  0  0
    7.1623    0.0457   18.5886 C   0  0  0  0  0  0  0  0  0  0  0  0
    8.1157   -0.4296   18.3625 H   0  0  0  0  0  0  0  0  0  0  0  0
    6.6374   -0.0266   19.8944 C   0  0  0  0  0  0  0  0  0  0  0  0
    7.5296   -0.8440   21.1964 S   0  0  0  0  0  0  0  0  0  0  0  0
    8.5118    0.6006   21.7105 C   0  0  0  0  0  0  0  0  0  0  0  0
    7.8193    1.4103   21.9526 H   0  0  0  0  0  0  0  0  0  0  0  0
    9.1278    0.9274   20.8672 H   0  0  0  0  0  0  0  0  0  0  0  0
    9.3556    0.2770   22.9102 C   0  0  1  0  0  0  0  0  0  0  0  0
   10.1008   -0.4905   22.7281 H   0  0  0  0  0  0  0  0  0  0  0  0
    9.7256    1.3916   23.8479 C   0  0  0  0  0  0  0  0  0  0  0  0
   10.7283    1.4259   24.2597 H   0  0  0  0  0  0  0  0  0  0  0  0
    9.2903    2.3638   23.6284 H   0  0  0  0  0  0  0  0  0  0  0  0
    8.7650    0.3294   24.2932 C   0  0  1  0  0  0  0  0  0  0  0  0
    9.1652   -0.4009   25.0083 H   0  0  0  0  0  0  0  0  0  0  0  0
    7.3900    0.7289   24.3890 N   0  0  0  0  0  0  0  0  0  0  0  0
    6.7786   -0.0764   24.2974 H   0  0  0  0  0  0  0  0  0  0  0  0
    7.2153    1.1712   25.2830 H   0  0  0  0  0  0  0  0  0  0  0  0
    5.4285    0.6353   20.1527 C   0  0  0  0  0  0  0  0  0  0  0  0
    5.0072    0.6299   21.1619 H   0  0  0  0  0  0  0  0  0  0  0  0
    4.8022    1.3072   19.1004 C   0  0  0  0  0  0  0  0  0  0  0  0
    3.8754    1.8444   19.2550 H   0  0  0  0  0  0  0  0  0  0  0  0
  1  2  1  0
  2  3  2  0
  3  4  1  0
  4  5  1  0
  4  6  2  0
  6  7  1  0
  7  8  1  0
  8  9  1  0
  8 10  1  0
  8 11  1  0
 11 12  1  6
 11 13  1  0
 13 14  1  0
 13 15  1  0
 13 16  1  0
 16 17  1  1
 16 18  1  0
 18 19  1  0
 18 20  1  0
  6 21  1  0
 21 22  1  0
 21 23  2  0
 23 24  1  0
 23  2  1  0
 16 11  1  0
M  END
>  <plip>  (1) 
-0.03571428571428571

>  <filename>  (1) 
[H][c]1[n][c]([H])[c]([S][C]([H])([H])[C@@]2([H])[C]([H])([H])[C@@]2([H])[N]([H])[H])[c]([H])[c]1[H]

$$$$
