
     RDKit          3D

 27 28  0  0  0  0  0  0  0  0999 V2000
    4.9171    1.8223   16.9622 H   0  0  0  0  0  0  0  0  0  0  0  0
    5.3710    1.3012   17.8068 C   0  0  0  0  0  0  0  0  0  0  0  0
    6.5279    0.6691   17.5553 N   0  0  0  0  0  0  0  0  0  0  0  0
    7.1401    0.0492   18.5702 C   0  0  0  0  0  0  0  0  0  0  0  0
    8.0921   -0.4200   18.3210 H   0  0  0  0  0  0  0  0  0  0  0  0
    6.6474    0.0243   19.8914 C   0  0  0  0  0  0  0  0  0  0  0  0
    7.4069   -0.5838   21.0452 C   0  0  0  0  0  0  0  0  0  0  0  0
    8.0215   -1.4401   20.7498 H   0  0  0  0  0  0  0  0  0  0  0  0
    6.7655   -0.9265   21.8660 H   0  0  0  0  0  0  0  0  0  0  0  0
    8.6556    0.4801   21.8471 S   0  0  0  0  0  4  0  0  0  0  0  0
    9.1801   -0.3493   22.9414 O   0  0  0  0  0  0  0  0  0  0  0  0
    7.5298    1.5424   22.5667 O   0  0  0  0  0  0  0  0  0  0  0  0
    8.0167    2.6972   23.2535 C   0  0  0  0  0  0  0  0  0  0  0  0
    7.0466    3.5096   23.8496 C   0  0  0  0  0  0  0  0  0  0  0  0
    5.9920    3.2675   23.7512 H   0  0  0  0  0  0  0  0  0  0  0  0
    7.4499    4.6370   24.5805 C   0  0  0  0  0  0  0  0  0  0  0  0
    6.7289    5.2858   25.0692 H   0  0  0  0  0  0  0  0  0  0  0  0
    8.8078    4.9423   24.6916 C   0  0  0  0  0  0  0  0  0  0  0  0
    9.3120    6.3352   25.6045 Cl  0  0  0  0  0  0  0  0  0  0  0  0
    9.7683    4.1435   24.0759 C   0  0  0  0  0  0  0  0  0  0  0  0
   10.8141    4.4095   24.1723 H   0  0  0  0  0  0  0  0  0  0  0  0
    9.3739    3.0178   23.3477 C   0  0  0  0  0  0  0  0  0  0  0  0
   10.1354    2.4101   22.8699 H   0  0  0  0  0  0  0  0  0  0  0  0
    5.4252    0.6660   20.1257 C   0  0  0  0  0  0  0  0  0  0  0  0
    5.0386    0.6836   21.1432 H   0  0  0  0  0  0  0  0  0  0  0  0
    4.7749    1.3150   19.0695 C   0  0  0  0  0  0  0  0  0  0  0  0
    3.8507    1.8580   19.2152 H   0  0  0  0  0  0  0  0  0  0  0  0
  1  2  1  0
  2  3  2  0
  3  4  1  0
  4  5  1  0
  4  6  2  0
  6  7  1  0
  7  8  1  0
  7  9  1  0
  7 10  1  0
 10 11  2  0
 10 12  1  6
 12 13  1  0
 13 14  2  0
 14 15  1  0
 14 16  1  0
 16 17  1  0
 16 18  2  0
 18 19  1  0
 18 20  1  0
 20 21  1  0
 20 22  2  0
 22 23  1  0
  6 24  1  0
 24 25  1  0
 24 26  2  0
 26 27  1  0
 26  2  1  0
 22 13  1  0
M  END
>  <plip>  (1) 
-0.03571428571428571

>  <filename>  (1) 
[H][c]1[n][c]([H])[c]([C]([H])([H])[S@@](=[O])[O][c]2[c]([H])[c]([H])[c]([Cl])[c]([H])[c]2[H])[c]([H])[c]1[H]

$$$$
