
     RDKit          3D

 39 42  0  0  0  0  0  0  0  0999 V2000
    4.9476    1.7884   16.9863 H   0  0  0  0  0  0  0  0  0  0  0  0
    5.4069    1.2894   17.8371 C   0  0  0  0  0  0  0  0  0  0  0  0
    6.5673    0.6608   17.5928 N   0  0  0  0  0  0  0  0  0  0  0  0
    7.1587    0.0471   18.6224 C   0  0  0  0  0  0  0  0  0  0  0  0
    8.1116   -0.4331   18.3935 H   0  0  0  0  0  0  0  0  0  0  0  0
    6.6256    0.0003   19.9209 C   0  0  0  0  0  0  0  0  0  0  0  0
    7.3388   -0.6946   21.0201 C   0  0  0  0  0  0  0  0  0  0  0  0
    6.6399   -1.3935   21.8505 N   0  0  0  0  0  0  0  0  0  0  0  0
    7.2767   -2.0549   22.8939 N   0  0  0  0  0  0  0  0  0  0  0  0
    6.3395   -2.6837   23.8222 C   0  0  1  0  0  0  0  0  0  0  0  0
    5.3291   -2.5467   23.4332 H   0  0  0  0  0  0  0  0  0  0  0  0
    6.6628   -3.9494   24.5522 C   0  0  0  0  0  0  0  0  0  0  0  0
    7.6465   -4.3908   24.4153 H   0  0  0  0  0  0  0  0  0  0  0  0
    5.8417   -4.6546   24.6810 H   0  0  0  0  0  0  0  0  0  0  0  0
    6.5591   -2.6476   25.3223 C   0  0  2  0  0  0  0  0  0  0  0  0
    7.5093   -2.2067   25.6269 H   0  0  0  0  0  0  0  0  0  0  0  0
    5.4390   -2.4034   26.2911 C   0  0  0  0  0  0  0  0  0  0  0  0
    5.6931   -1.6992   27.4810 C   0  0  0  0  0  0  0  0  0  0  0  0
    6.6953   -1.3196   27.6704 H   0  0  0  0  0  0  0  0  0  0  0  0
    4.6885   -1.4906   28.4323 C   0  0  0  0  0  0  0  0  0  0  0  0
    4.9112   -0.9435   29.3480 H   0  0  0  0  0  0  0  0  0  0  0  0
    3.3989   -1.9877   28.2105 C   0  0  0  0  0  0  0  0  0  0  0  0
    2.6135   -1.8278   28.9455 H   0  0  0  0  0  0  0  0  0  0  0  0
    3.1286   -2.6958   27.0333 C   0  0  0  0  0  0  0  0  0  0  0  0
    2.1341   -3.0983   26.8508 H   0  0  0  0  0  0  0  0  0  0  0  0
    4.1372   -2.9008   26.0877 C   0  0  0  0  0  0  0  0  0  0  0  0
    3.9140   -3.4747   25.1915 H   0  0  0  0  0  0  0  0  0  0  0  0
    8.6522   -2.2082   23.0400 C   0  0  0  0  0  0  0  0  0  0  0  0
    9.1852   -2.7127   24.0184 O   0  0  0  0  0  0  0  0  0  0  0  0
    9.4616   -1.7302   21.8403 C   0  0  0  0  0  0  0  0  0  0  0  0
   10.4790   -1.5646   22.1986 H   0  0  0  0  0  0  0  0  0  0  0  0
    9.5010   -2.5707   21.1327 H   0  0  0  0  0  0  0  0  0  0  0  0
    8.8315   -0.4891   21.1954 C   0  0  0  0  0  0  0  0  0  0  0  0
    9.3032   -0.2332   20.2421 H   0  0  0  0  0  0  0  0  0  0  0  0
    8.9690    0.3962   21.8356 H   0  0  0  0  0  0  0  0  0  0  0  0
    5.4042    0.6504   20.1563 C   0  0  0  0  0  0  0  0  0  0  0  0
    4.9709    0.6338   21.1570 H   0  0  0  0  0  0  0  0  0  0  0  0
    4.7945    1.3158   19.0952 C   0  0  0  0  0  0  0  0  0  0  0  0
    3.8648    1.8562   19.2317 H   0  0  0  0  0  0  0  0  0  0  0  0
  1  2  1  0
  2  3  2  0
  3  4  1  0
  4  5  1  0
  4  6  2  0
  6  7  1  0
  7  8  2  0
  8  9  1  0
  9 10  1  0
 10 11  1  1
 10 12  1  0
 12 13  1  0
 12 14  1  0
 12 15  1  0
 15 16  1  6
 15 17  1  0
 17 18  2  0
 18 19  1  0
 18 20  1  0
 20 21  1  0
 20 22  2  0
 22 23  1  0
 22 24  1  0
 24 25  1  0
 24 26  2  0
 26 27  1  0
  9 28  1  0
 28 29  2  0
 28 30  1  0
 30 31  1  0
 30 32  1  0
 30 33  1  0
 33 34  1  0
 33 35  1  0
  6 36  1  0
 36 37  1  0
 36 38  2  0
 38 39  1  0
 38  2  1  0
 33  7  1  0
 15 10  1  0
 26 17  1  0
M  END
>  <plip>  (1) 
-0.0

>  <filename>  (1) 
[H][c]1[n][c]([H])[c]([C]2=[N][N]([C@@]3([H])[C]([H])([H])[C@]3([H])[c]3[c]([H])[c]([H])[c]([H])[c]([H])[c]3[H])[C](=[O])[C]([H])([H])[C]2([H])[H])[c]([H])[c]1[H]

$$$$
