
     RDKit          3D

 44 46  0  0  0  0  0  0  0  0999 V2000
    5.8882   -2.9042   19.6909 O   0  0  0  0  0  0  0  0  0  0  0  0
    5.8675   -2.8508   20.9072 C   0  0  0  0  0  0  0  0  0  0  0  0
    5.2253   -3.9410   21.7385 C   0  0  0  0  0  0  0  0  0  0  0  0
    6.1484   -4.3846   22.8027 C   0  0  0  0  0  0  0  0  0  0  0  0
    7.0724   -5.2926   22.5519 N   0  0  0  0  0  0  0  0  0  0  0  0
    7.7348   -5.4636   23.7230 N   0  0  0  0  0  0  0  0  0  0  0  0
    7.2471   -4.6783   24.7229 C   0  0  0  0  0  0  0  0  0  0  0  0
    7.5803   -4.5569   26.0855 C   0  0  0  0  0  0  0  0  0  0  0  0
    6.8559   -3.6432   26.8381 C   0  0  0  0  0  0  0  0  0  0  0  0
    5.8239   -2.8461   26.2763 C   0  0  0  0  0  0  0  0  0  0  0  0
    5.4958   -2.9717   24.9355 C   0  0  0  0  0  0  0  0  0  0  0  0
    6.2073   -3.9158   24.1495 C   0  0  0  0  0  0  0  0  0  0  0  0
    4.6896   -2.3853   24.5050 H   0  0  0  0  0  0  0  0  0  0  0  0
    5.2939   -2.1223   26.8901 H   0  0  0  0  0  0  0  0  0  0  0  0
    7.0671   -3.5671   27.8906 H   0  0  0  0  0  0  0  0  0  0  0  0
    8.3651   -5.1611   26.5269 H   0  0  0  0  0  0  0  0  0  0  0  0
    8.4518   -6.1692   23.8225 H   0  0  0  0  0  0  0  0  0  0  0  0
    4.2945   -3.5869   22.1917 H   0  0  0  0  0  0  0  0  0  0  0  0
    5.0039   -4.7683   21.0696 H   0  0  0  0  0  0  0  0  0  0  0  0
    6.3921   -1.8267   21.6287 N   0  0  0  0  0  0  0  0  0  0  0  0
    7.2571   -0.8254   21.0210 C   0  0  0  0  0  0  0  0  0  0  0  0
    7.8263    0.1596   22.0619 C   0  0  0  0  0  0  0  0  0  0  0  0
    8.9614   -0.3460   22.9744 C   0  0  0  0  0  0  0  0  0  0  0  0
    8.6389   -1.4813   23.9445 C   0  0  0  0  0  0  0  0  0  0  0  0
    9.7267   -1.6891   24.8317 O   0  0  0  0  0  0  0  0  0  0  0  0
    9.7853   -0.9050   25.3894 H   0  0  0  0  0  0  0  0  0  0  0  0
    7.7064   -1.2893   24.5040 H   0  0  0  0  0  0  0  0  0  0  0  0
    8.5066   -2.4247   23.4068 H   0  0  0  0  0  0  0  0  0  0  0  0
    9.8224   -0.6604   22.3692 H   0  0  0  0  0  0  0  0  0  0  0  0
    9.3133    0.5040   23.5779 H   0  0  0  0  0  0  0  0  0  0  0  0
    8.2190    1.0195   21.5017 H   0  0  0  0  0  0  0  0  0  0  0  0
    7.0027    0.5625   22.6695 H   0  0  0  0  0  0  0  0  0  0  0  0
    6.5182   -0.0967   19.9012 C   0  0  0  0  0  0  0  0  0  0  0  0
    5.3155    0.5994   20.0933 C   0  0  0  0  0  0  0  0  0  0  0  0
    4.7778    1.3230   19.0227 C   0  0  0  0  0  0  0  0  0  0  0  0
    5.4519    1.3112   17.7950 C   0  0  0  0  0  0  0  0  0  0  0  0
    6.5888    0.6334   17.5821 N   0  0  0  0  0  0  0  0  0  0  0  0
    7.0844   -0.0554   18.6211 C   0  0  0  0  0  0  0  0  0  0  0  0
    7.9948   -0.6213   18.4129 H   0  0  0  0  0  0  0  0  0  0  0  0
    5.0586    1.8500   16.9343 H   0  0  0  0  0  0  0  0  0  0  0  0
    3.8577    1.8911   19.1202 H   0  0  0  0  0  0  0  0  0  0  0  0
    4.8010    0.5780   21.0591 H   0  0  0  0  0  0  0  0  0  0  0  0
    8.1115   -1.3386   20.5481 H   0  0  0  0  0  0  0  0  0  0  0  0
    6.3057   -1.8843   22.6311 H   0  0  0  0  0  0  0  0  0  0  0  0
  1  2  2  0
  2  3  1  0
  3  4  1  0
  4  5  2  0
  5  6  1  0
  6  7  1  0
  7  8  2  0
  8  9  1  0
  9 10  2  0
 10 11  1  0
 11 12  2  0
 11 13  1  0
 10 14  1  0
  9 15  1  0
  8 16  1  0
  6 17  1  0
  3 18  1  0
  3 19  1  0
  2 20  1  0
 20 21  1  0
 21 22  1  0
 22 23  1  0
 23 24  1  0
 24 25  1  0
 25 26  1  0
 24 27  1  0
 24 28  1  0
 23 29  1  0
 23 30  1  0
 22 31  1  0
 22 32  1  0
 21 33  1  0
 33 34  2  0
 34 35  1  0
 35 36  2  0
 36 37  1  0
 37 38  2  0
 38 39  1  0
 36 40  1  0
 35 41  1  0
 34 42  1  0
 21 43  1  0
 20 44  1  0
 12  4  1  0
 38 33  1  0
 12  7  1  0
M  END
>  <plip>  (1) 
-0.13333333333333333

>  <filename>  (1) 
[H][O][C]([H])([H])[C]([H])([H])[C]([H])([H])[C]([H])([c]1[c]([H])[n][c]([H])[c]([H])[c]1[H])[N]([H])[C](=[O])[C]([H])([H])[c]1[n][n]([H])[c]2[c]([H])[c]([H])[c]([H])[c]([H])[c]12

$$$$
