
     RDKit          3D

 38 40  0  0  0  0  0  0  0  0999 V2000
    7.8041    1.4856   20.2683 H   0  0  0  0  0  0  0  0  0  0  0  0
    8.6182    1.8809   20.6000 O   0  0  0  0  0  0  0  0  0  0  0  0
    9.0724    0.9768   21.5437 C   0  0  1  0  0  0  0  0  0  0  0  0
   10.1709    0.9660   21.4666 H   0  0  0  0  0  0  0  0  0  0  0  0
    8.7500    1.4261   22.9802 C   0  0  0  0  0  0  0  0  0  0  0  0
    9.7480    1.3435   23.9752 C   0  0  0  0  0  0  0  0  0  0  0  0
   10.7374    0.9575   23.7281 H   0  0  0  0  0  0  0  0  0  0  0  0
    9.4869    1.7497   25.2870 C   0  0  0  0  0  0  0  0  0  0  0  0
   10.2662    1.6843   26.0439 H   0  0  0  0  0  0  0  0  0  0  0  0
    8.2287    2.2526   25.6265 C   0  0  0  0  0  0  0  0  0  0  0  0
    8.0278    2.5755   26.6430 H   0  0  0  0  0  0  0  0  0  0  0  0
    7.2252    2.3330   24.6518 C   0  0  0  0  0  0  0  0  0  0  0  0
    6.2419    2.7179   24.9056 H   0  0  0  0  0  0  0  0  0  0  0  0
    7.4881    1.9286   23.3407 C   0  0  0  0  0  0  0  0  0  0  0  0
    6.7001    2.0189   22.5902 H   0  0  0  0  0  0  0  0  0  0  0  0
    8.6080   -0.3841   21.1737 N   0  0  0  0  0  0  0  0  0  0  0  0
    9.3578   -1.3733   21.9605 C   0  0  0  0  0  0  0  0  0  0  0  0
    9.2002   -1.2458   23.0455 H   0  0  0  0  0  0  0  0  0  0  0  0
   10.4285   -1.2598   21.7450 H   0  0  0  0  0  0  0  0  0  0  0  0
    8.9739   -2.8063   21.6303 C   0  0  0  0  0  0  0  0  0  0  0  0
    9.5102   -3.4814   22.3042 H   0  0  0  0  0  0  0  0  0  0  0  0
    9.2648   -3.0389   20.5992 H   0  0  0  0  0  0  0  0  0  0  0  0
    7.5937   -3.0372   21.8453 O   0  0  0  0  0  0  0  0  0  0  0  0
    6.7907   -2.1635   21.0678 C   0  0  0  0  0  0  0  0  0  0  0  0
    6.8453   -2.4411   20.0038 H   0  0  0  0  0  0  0  0  0  0  0  0
    5.7607   -2.3067   21.4129 H   0  0  0  0  0  0  0  0  0  0  0  0
    7.1392   -0.6439   21.1922 C   0  0  2  0  0  0  0  0  0  0  0  0
    6.7090   -0.3030   22.1487 H   0  0  0  0  0  0  0  0  0  0  0  0
    6.4642    0.0706   20.0300 C   0  0  0  0  0  0  0  0  0  0  0  0
    7.0872    0.0558   18.7636 C   0  0  0  0  0  0  0  0  0  0  0  0
    8.0533   -0.4288   18.6249 H   0  0  0  0  0  0  0  0  0  0  0  0
    6.5816    0.6400   17.6730 N   0  0  0  0  0  0  0  0  0  0  0  0
    5.4183    1.2958   17.8080 C   0  0  0  0  0  0  0  0  0  0  0  0
    5.0455    1.7951   16.9161 H   0  0  0  0  0  0  0  0  0  0  0  0
    4.7061    1.3554   19.0104 C   0  0  0  0  0  0  0  0  0  0  0  0
    3.7782    1.9146   19.0552 H   0  0  0  0  0  0  0  0  0  0  0  0
    5.2286    0.7163   20.1431 C   0  0  0  0  0  0  0  0  0  0  0  0
    4.7035    0.7461   21.1004 H   0  0  0  0  0  0  0  0  0  0  0  0
  1  2  1  0
  2  3  1  0
  3  4  1  1
  3  5  1  0
  5  6  2  0
  6  7  1  0
  6  8  1  0
  8  9  1  0
  8 10  2  0
 10 11  1  0
 10 12  1  0
 12 13  1  0
 12 14  2  0
 14 15  1  0
  3 16  1  0
 16 17  1  0
 17 18  1  0
 17 19  1  0
 17 20  1  0
 20 21  1  0
 20 22  1  0
 20 23  1  0
 23 24  1  0
 24 25  1  0
 24 26  1  0
 24 27  1  0
 27 28  1  1
 27 29  1  0
 29 30  2  0
 30 31  1  0
 30 32  1  0
 32 33  2  0
 33 34  1  0
 33 35  1  0
 35 36  1  0
 35 37  2  0
 37 38  1  0
 14  5  1  0
 27 16  1  0
 37 29  1  0
M  END
>  <plip>  (1) 
-0.06896551724137931

>  <filename>  (1) 
[H][O][C@@]([H])([c]1[c]([H])[c]([H])[c]([H])[c]([H])[c]1[H])[N]1[C]([H])([H])[C]([H])([H])[O][C]([H])([H])[C@]1([H])[c]1[c]([H])[n][c]([H])[c]([H])[c]1[H]

$$$$
