
     RDKit          3D

 50 52  0  0  0  0  0  0  0  0999 V2000
    6.3018   -4.1471   20.1014 C   0  0  0  0  0  0  0  0  0  0  0  0
    6.4445   -2.7347   20.0548 O   0  0  0  0  0  0  0  0  0  0  0  0
    6.5951   -2.0548   21.2622 C   0  0  0  0  0  0  0  0  0  0  0  0
    7.5183   -2.7169   22.1084 O   0  0  0  0  0  0  0  0  0  0  0  0
    7.0248   -3.1119   23.3738 C   0  0  0  0  0  0  0  0  0  0  0  0
    7.7631   -3.7925   23.7975 H   0  0  0  0  0  0  0  0  0  0  0  0
    6.0617   -3.6451   23.2983 H   0  0  0  0  0  0  0  0  0  0  0  0
    6.9066   -2.2541   24.0553 H   0  0  0  0  0  0  0  0  0  0  0  0
    7.0950   -0.5627   21.0396 C   0  0  0  0  0  0  0  0  0  0  0  0
    8.5649   -0.4682   20.9942 N   0  0  0  0  0  0  0  0  0  0  0  0
    9.2023    0.6673   21.4298 C   0  0  0  0  0  0  0  0  0  0  0  0
    8.6862    1.7617   21.3576 O   0  0  0  0  0  0  0  0  0  0  0  0
   10.6434    0.3884   22.0335 C   0  0  1  0  0  0  0  0  0  0  0  0
   11.3514    1.6900   22.4035 C   0  0  0  0  0  0  0  0  0  0  0  0
   10.8109    2.2307   23.1896 H   0  0  0  0  0  0  0  0  0  0  0  0
   11.3998    2.3405   21.5252 H   0  0  0  0  0  0  0  0  0  0  0  0
   12.3706    1.4857   22.7396 H   0  0  0  0  0  0  0  0  0  0  0  0
   10.6445   -0.5642   23.1652 N   0  0  0  0  0  0  0  0  0  0  0  0
    9.8789   -0.3218   24.3816 C   0  0  0  0  0  0  0  0  0  0  0  0
    9.6705   -1.7134   24.9315 C   0  0  0  0  0  0  0  0  0  0  0  0
    8.9084   -2.1795   26.0056 C   0  0  0  0  0  0  0  0  0  0  0  0
    9.1050   -3.4951   26.4537 C   0  0  0  0  0  0  0  0  0  0  0  0
   10.0307   -4.3419   25.8124 C   0  0  0  0  0  0  0  0  0  0  0  0
   10.7203   -3.9020   24.6791 C   0  0  0  0  0  0  0  0  0  0  0  0
   10.4825   -2.6002   24.2249 C   0  0  0  0  0  0  0  0  0  0  0  0
   11.0095   -1.8956   23.0199 C   0  0  0  0  0  0  0  0  0  0  0  0
   11.6129   -2.3493   22.0688 O   0  0  0  0  0  0  0  0  0  0  0  0
   11.4361   -4.5379   24.1686 H   0  0  0  0  0  0  0  0  0  0  0  0
   10.1998   -5.3429   26.2034 H   0  0  0  0  0  0  0  0  0  0  0  0
    8.5271   -3.8654   27.2969 H   0  0  0  0  0  0  0  0  0  0  0  0
    8.1538   -1.5486   26.4713 H   0  0  0  0  0  0  0  0  0  0  0  0
    8.9433    0.2095   24.1671 H   0  0  0  0  0  0  0  0  0  0  0  0
   10.4573    0.2657   25.1106 H   0  0  0  0  0  0  0  0  0  0  0  0
   11.2028   -0.1171   21.2337 H   0  0  0  0  0  0  0  0  0  0  0  0
    9.0184   -1.3283   21.2595 H   0  0  0  0  0  0  0  0  0  0  0  0
    6.4988    0.1821   19.8654 C   0  0  0  0  0  0  0  0  0  0  0  0
    5.2781    0.8637   19.9827 C   0  0  0  0  0  0  0  0  0  0  0  0
    4.7390    1.4851   18.8538 C   0  0  0  0  0  0  0  0  0  0  0  0
    5.4498    1.4169   17.6497 C   0  0  0  0  0  0  0  0  0  0  0  0
    6.6293    0.7941   17.5161 N   0  0  0  0  0  0  0  0  0  0  0  0
    7.1395    0.2186   18.6163 C   0  0  0  0  0  0  0  0  0  0  0  0
    8.1169   -0.2458   18.5002 H   0  0  0  0  0  0  0  0  0  0  0  0
    5.0496    1.8831   16.7507 H   0  0  0  0  0  0  0  0  0  0  0  0
    3.8051    2.0371   18.9009 H   0  0  0  0  0  0  0  0  0  0  0  0
    4.7668    0.9388   20.9453 H   0  0  0  0  0  0  0  0  0  0  0  0
    6.7365   -0.0552   21.9528 H   0  0  0  0  0  0  0  0  0  0  0  0
    5.6087   -1.9815   21.7638 H   0  0  0  0  0  0  0  0  0  0  0  0
    6.2730   -4.4755   19.0594 H   0  0  0  0  0  0  0  0  0  0  0  0
    5.3836   -4.4519   20.6166 H   0  0  0  0  0  0  0  0  0  0  0  0
    7.1517   -4.6332   20.5958 H   0  0  0  0  0  0  0  0  0  0  0  0
  1  2  1  0
  2  3  1  0
  3  4  1  0
  4  5  1  0
  5  6  1  0
  5  7  1  0
  5  8  1  0
  3  9  1  0
  9 10  1  0
 10 11  1  0
 11 12  2  0
 11 13  1  0
 13 14  1  0
 14 15  1  0
 14 16  1  0
 14 17  1  0
 13 18  1  0
 18 19  1  0
 19 20  1  0
 20 21  2  0
 21 22  1  0
 22 23  2  0
 23 24  1  0
 24 25  2  0
 25 26  1  0
 26 27  2  0
 24 28  1  0
 23 29  1  0
 22 30  1  0
 21 31  1  0
 19 32  1  0
 19 33  1  0
 13 34  1  6
 10 35  1  0
  9 36  1  0
 36 37  2  0
 37 38  1  0
 38 39  2  0
 39 40  1  0
 40 41  2  0
 41 42  1  0
 39 43  1  0
 38 44  1  0
 37 45  1  0
  9 46  1  0
  3 47  1  0
  1 48  1  0
  1 49  1  0
  1 50  1  0
 26 18  1  0
 41 36  1  0
 25 20  1  0
M  END
>  <plip>  (1) 
-0.1724137931034483

>  <filename>  (1) 
[H][c]1[n][c]([H])[c]([C]([H])([N]([H])[C](=[O])[C@]([H])([N]2[C](=[O])[c]3[c]([H])[c]([H])[c]([H])[c]([H])[c]3[C]2([H])[H])[C]([H])([H])[H])[C]([H])([O][C]([H])([H])[H])[O][C]([H])([H])[H])[c]([H])[c]1[H]

$$$$
