
     RDKit          3D

 46 47  0  0  0  0  0  0  0  0999 V2000
    7.7877   -1.9769   20.7832 C   0  0  0  0  0  0  0  0  0  0  0  0
    7.4219   -0.5736   20.9884 N   0  0  0  0  0  0  0  0  0  0  0  0
    7.6916   -0.0204   22.2536 C   0  0  0  0  0  0  0  0  0  0  0  0
    7.9829   -0.7096   23.2137 O   0  0  0  0  0  0  0  0  0  0  0  0
    7.6305    1.3451   22.2920 N   0  0  0  0  0  0  0  0  0  0  0  0
    7.7507    2.1422   23.5174 C   0  0  0  0  0  0  0  0  0  0  0  0
    6.8644    3.4295   23.5909 C   0  0  0  0  0  0  0  0  0  0  0  0
    5.8239    3.5090   22.9577 O   0  0  0  0  0  0  0  0  0  0  0  0
    7.3014    4.4574   24.4126 N   0  0  0  0  0  0  0  0  0  0  0  0
    8.2680    4.2633   25.4936 C   0  0  0  0  0  0  0  0  0  0  0  0
    9.3013    4.1549   25.1301 H   0  0  0  0  0  0  0  0  0  0  0  0
    8.0198    3.3819   26.1012 H   0  0  0  0  0  0  0  0  0  0  0  0
    8.2370    5.1331   26.1608 H   0  0  0  0  0  0  0  0  0  0  0  0
    6.6964    5.8021   24.2235 C   0  0  0  0  0  0  0  0  0  0  0  0
    6.8836    6.3304   22.7814 C   0  0  0  0  0  0  0  0  0  0  0  0
    6.3861    7.7930   22.6248 C   0  0  0  0  0  0  0  0  0  0  0  0
    5.1581    8.1388   23.5131 C   0  0  0  0  0  0  0  0  0  0  0  0
    4.3501    6.8829   23.8809 C   0  0  0  0  0  0  0  0  0  0  0  0
    5.2028    5.8560   24.6734 C   0  0  0  0  0  0  0  0  0  0  0  0
    4.7485    4.8669   24.5700 H   0  0  0  0  0  0  0  0  0  0  0  0
    5.1936    6.1095   25.7429 H   0  0  0  0  0  0  0  0  0  0  0  0
    3.4574    7.1510   24.4603 H   0  0  0  0  0  0  0  0  0  0  0  0
    3.9837    6.4056   22.9572 H   0  0  0  0  0  0  0  0  0  0  0  0
    4.5195    8.8734   23.0047 H   0  0  0  0  0  0  0  0  0  0  0  0
    5.4990    8.6266   24.4389 H   0  0  0  0  0  0  0  0  0  0  0  0
    7.1955    8.4956   22.8595 H   0  0  0  0  0  0  0  0  0  0  0  0
    6.1449    7.9547   21.5651 H   0  0  0  0  0  0  0  0  0  0  0  0
    6.3374    5.6707   22.0955 H   0  0  0  0  0  0  0  0  0  0  0  0
    7.9445    6.2575   22.5142 H   0  0  0  0  0  0  0  0  0  0  0  0
    7.2628    6.4810   24.8819 H   0  0  0  0  0  0  0  0  0  0  0  0
    8.8000    2.4161   23.7103 H   0  0  0  0  0  0  0  0  0  0  0  0
    7.4498    1.4958   24.3542 H   0  0  0  0  0  0  0  0  0  0  0  0
    7.5382    1.7722   21.3812 H   0  0  0  0  0  0  0  0  0  0  0  0
    6.6944    0.0705   19.9320 C   0  0  0  0  0  0  0  0  0  0  0  0
    5.4513    0.6777   20.1587 C   0  0  0  0  0  0  0  0  0  0  0  0
    4.7981    1.3113   19.0907 C   0  0  0  0  0  0  0  0  0  0  0  0
    5.3897    1.2950   17.8228 C   0  0  0  0  0  0  0  0  0  0  0  0
    6.5523    0.6716   17.5713 N   0  0  0  0  0  0  0  0  0  0  0  0
    7.1709    0.0723   18.5977 C   0  0  0  0  0  0  0  0  0  0  0  0
    8.1097   -0.4285   18.3656 H   0  0  0  0  0  0  0  0  0  0  0  0
    4.9207    1.7997   16.9793 H   0  0  0  0  0  0  0  0  0  0  0  0
    3.8646    1.8418   19.2398 H   0  0  0  0  0  0  0  0  0  0  0  0
    5.0202    0.6558   21.1571 H   0  0  0  0  0  0  0  0  0  0  0  0
    7.1912   -2.3531   19.9474 H   0  0  0  0  0  0  0  0  0  0  0  0
    7.5704   -2.5784   21.6703 H   0  0  0  0  0  0  0  0  0  0  0  0
    8.8587   -2.0789   20.5588 H   0  0  0  0  0  0  0  0  0  0  0  0
  1  2  1  0
  2  3  1  0
  3  4  2  0
  3  5  1  0
  5  6  1  0
  6  7  1  0
  7  8  2  0
  7  9  1  0
  9 10  1  0
 10 11  1  0
 10 12  1  0
 10 13  1  0
  9 14  1  0
 14 15  1  0
 15 16  1  0
 16 17  1  0
 17 18  1  0
 18 19  1  0
 19 20  1  0
 19 21  1  0
 18 22  1  0
 18 23  1  0
 17 24  1  0
 17 25  1  0
 16 26  1  0
 16 27  1  0
 15 28  1  0
 15 29  1  0
 14 30  1  0
  6 31  1  0
  6 32  1  0
  5 33  1  0
  2 34  1  0
 34 35  2  0
 35 36  1  0
 36 37  2  0
 37 38  1  0
 38 39  2  0
 39 40  1  0
 37 41  1  0
 36 42  1  0
 35 43  1  0
  1 44  1  0
  1 45  1  0
  1 46  1  0
 19 14  1  0
 39 34  1  0
M  END
>  <plip>  (1) 
-0.03571428571428571

>  <filename>  (1) 
[H][c]1[n][c]([H])[c]([N]([C](=[O])[N]([H])[C]([H])([H])[C](=[O])[N]([C]([H])([H])[H])[C]2([H])[C]([H])([H])[C]([H])([H])[C]([H])([H])[C]([H])([H])[C]2([H])[H])[C]([H])([H])[H])[c]([H])[c]1[H]

$$$$
