
     RDKit          3D

 33 34  0  0  0  0  0  0  0  0999 V2000
    4.9322    1.7997   17.0010 H   0  0  0  0  0  0  0  0  0  0  0  0
    5.4083    1.2946   17.8391 C   0  0  0  0  0  0  0  0  0  0  0  0
    6.5733    0.6825   17.5748 N   0  0  0  0  0  0  0  0  0  0  0  0
    7.1895    0.0591   18.5834 C   0  0  0  0  0  0  0  0  0  0  0  0
    8.1385   -0.4263   18.3627 H   0  0  0  0  0  0  0  0  0  0  0  0
    6.6646   -0.0268   19.8900 C   0  0  0  0  0  0  0  0  0  0  0  0
    7.3606   -0.7311   20.9014 N   0  0  0  0  0  0  0  0  0  0  0  0
    6.8117   -1.6044   21.8467 C   0  0  0  0  0  0  0  0  0  0  0  0
    5.7851   -2.2211   21.8219 O   0  0  0  0  0  0  0  0  0  0  0  0
    7.7665   -1.6959   22.8477 N   0  0  0  0  0  0  0  0  0  0  0  0
    7.6567   -2.4110   23.5442 H   0  0  0  0  0  0  0  0  0  0  0  0
    9.0123   -1.3519   22.3975 C   0  0  0  0  0  0  0  0  0  0  0  0
   10.0501   -1.5991   22.9413 O   0  0  0  0  0  0  0  0  0  0  0  0
    8.8040   -0.5812   21.1209 C   0  0  2  0  0  0  0  0  0  0  0  0
    9.4360   -0.9905   20.3283 H   0  0  0  0  0  0  0  0  0  0  0  0
    9.3810    0.7999   21.3776 C   0  0  0  0  0  0  0  0  0  0  0  0
   10.3962    1.1492   20.8095 O   0  0  0  0  0  0  0  0  0  0  0  0
    8.7575    1.5700   22.2906 N   0  0  0  0  0  0  0  0  0  0  0  0
    7.8974    1.2324   22.6752 H   0  0  0  0  0  0  0  0  0  0  0  0
    9.1967    2.9469   22.4779 C   0  0  0  0  0  0  0  0  0  0  0  0
    8.4078    3.5081   22.9879 H   0  0  0  0  0  0  0  0  0  0  0  0
    9.3104    3.3768   21.4811 H   0  0  0  0  0  0  0  0  0  0  0  0
   10.5274    3.0105   23.2322 C   0  0  0  0  0  0  0  0  0  0  0  0
   11.2647    2.4285   22.6696 H   0  0  0  0  0  0  0  0  0  0  0  0
   10.3965    2.4944   24.1883 H   0  0  0  0  0  0  0  0  0  0  0  0
   11.0408    4.4311   23.4572 C   0  0  0  0  0  0  0  0  0  0  0  0
   11.9752    4.4248   24.0285 H   0  0  0  0  0  0  0  0  0  0  0  0
   11.2416    4.9422   22.5079 H   0  0  0  0  0  0  0  0  0  0  0  0
   10.3140    5.0341   24.0130 H   0  0  0  0  0  0  0  0  0  0  0  0
    5.4448    0.6174   20.1573 C   0  0  0  0  0  0  0  0  0  0  0  0
    5.0150    0.5759   21.1606 H   0  0  0  0  0  0  0  0  0  0  0  0
    4.8142    1.2978   19.1086 C   0  0  0  0  0  0  0  0  0  0  0  0
    3.8810    1.8333   19.2604 H   0  0  0  0  0  0  0  0  0  0  0  0
  1  2  1  0
  2  3  2  0
  3  4  1  0
  4  5  1  0
  4  6  2  0
  6  7  1  0
  7  8  1  0
  8  9  2  0
  8 10  1  0
 10 11  1  0
 10 12  1  0
 12 13  2  0
 12 14  1  0
 14 15  1  6
 14 16  1  0
 16 17  2  0
 16 18  1  0
 18 19  1  0
 18 20  1  0
 20 21  1  0
 20 22  1  0
 20 23  1  0
 23 24  1  0
 23 25  1  0
 23 26  1  0
 26 27  1  0
 26 28  1  0
 26 29  1  0
  6 30  1  0
 30 31  1  0
 30 32  2  0
 32 33  1  0
 32  2  1  0
 14  7  1  0
M  END
>  <plip>  (1) 
-0.07142857142857142

>  <filename>  (1) 
[H][c]1[n][c]([H])[c]([N]2[C](=[O])[N]([H])[C](=[O])[C@]2([H])[C](=[O])[N]([H])[C]([H])([H])[C]([H])([H])[C]([H])([H])[H])[c]([H])[c]1[H]

$$$$
