
     RDKit          3D

 38 39  0  0  0  0  0  0  0  0999 V2000
    4.9265    1.7871   16.9714 H   0  0  0  0  0  0  0  0  0  0  0  0
    5.3909    1.2968   17.8231 C   0  0  0  0  0  0  0  0  0  0  0  0
    6.5522    0.6711   17.5801 N   0  0  0  0  0  0  0  0  0  0  0  0
    7.1751    0.1047   18.6216 C   0  0  0  0  0  0  0  0  0  0  0  0
    8.1012   -0.4228   18.3969 H   0  0  0  0  0  0  0  0  0  0  0  0
    6.6987    0.1604   19.9523 C   0  0  0  0  0  0  0  0  0  0  0  0
    7.4211   -0.4579   21.0242 N   0  0  0  0  0  0  0  0  0  0  0  0
    7.7309    0.0972   22.2595 C   0  0  0  0  0  0  0  0  0  0  0  0
    8.2580   -0.5292   23.1369 O   0  0  0  0  0  0  0  0  0  0  0  0
    7.3601    1.4213   22.3124 O   0  0  0  0  0  0  0  0  0  0  0  0
    7.6718    2.1428   23.4436 C   0  0  0  0  0  0  0  0  0  0  0  0
    8.2548    1.7252   24.4057 O   0  0  0  0  0  0  0  0  0  0  0  0
    7.2144    3.4374   23.3455 N   0  0  0  0  0  0  0  0  0  0  0  0
    6.7059    4.1088   22.1361 C   0  0  0  0  0  0  0  0  0  0  0  0
    6.1948    3.3919   21.4894 H   0  0  0  0  0  0  0  0  0  0  0  0
    7.5402    4.5313   21.5618 H   0  0  0  0  0  0  0  0  0  0  0  0
    5.7299    5.2415   22.4973 C   0  0  0  0  0  0  0  0  0  0  0  0
    4.8066    4.7947   22.9146 H   0  0  0  0  0  0  0  0  0  0  0  0
    5.4487    5.7658   21.5751 H   0  0  0  0  0  0  0  0  0  0  0  0
    6.3274    6.2028   23.4334 N   0  0  0  0  0  0  0  0  0  0  0  0
    5.4566    7.3433   23.6882 C   0  0  0  0  0  0  0  0  0  0  0  0
    4.4931    7.0748   24.1657 H   0  0  0  0  0  0  0  0  0  0  0  0
    5.2306    7.8627   22.7498 H   0  0  0  0  0  0  0  0  0  0  0  0
    5.9598    8.0666   24.3399 H   0  0  0  0  0  0  0  0  0  0  0  0
    6.7136    5.5036   24.6608 C   0  0  0  0  0  0  0  0  0  0  0  0
    7.1987    6.2159   25.3421 H   0  0  0  0  0  0  0  0  0  0  0  0
    5.8327    5.0890   25.1906 H   0  0  0  0  0  0  0  0  0  0  0  0
    7.7082    4.3830   24.3622 C   0  0  0  0  0  0  0  0  0  0  0  0
    8.6568    4.8313   24.0344 H   0  0  0  0  0  0  0  0  0  0  0  0
    7.9141    3.8195   25.2753 H   0  0  0  0  0  0  0  0  0  0  0  0
    7.8045   -1.8594   20.8280 C   0  0  0  0  0  0  0  0  0  0  0  0
    7.1404   -2.3067   20.0892 H   0  0  0  0  0  0  0  0  0  0  0  0
    7.7042   -2.4093   21.7651 H   0  0  0  0  0  0  0  0  0  0  0  0
    8.8404   -1.9562   20.4837 H   0  0  0  0  0  0  0  0  0  0  0  0
    5.4424    0.7399   20.1684 C   0  0  0  0  0  0  0  0  0  0  0  0
    4.9925    0.7001   21.1617 H   0  0  0  0  0  0  0  0  0  0  0  0
    4.7852    1.3319   19.0844 C   0  0  0  0  0  0  0  0  0  0  0  0
    3.8318    1.8353   19.2096 H   0  0  0  0  0  0  0  0  0  0  0  0
  1  2  1  0
  2  3  2  0
  3  4  1  0
  4  5  1  0
  4  6  2  0
  6  7  1  0
  7  8  1  0
  8  9  2  0
  8 10  1  0
 10 11  1  0
 11 12  2  0
 11 13  1  0
 13 14  1  0
 14 15  1  0
 14 16  1  0
 14 17  1  0
 17 18  1  0
 17 19  1  0
 17 20  1  0
 20 21  1  0
 21 22  1  0
 21 23  1  0
 21 24  1  0
 20 25  1  0
 25 26  1  0
 25 27  1  0
 25 28  1  0
 28 29  1  0
 28 30  1  0
  7 31  1  0
 31 32  1  0
 31 33  1  0
 31 34  1  0
  6 35  1  0
 35 36  1  0
 35 37  2  0
 37 38  1  0
 37  2  1  0
 28 13  1  0
M  END
>  <plip>  (1) 
-0.03571428571428571

>  <filename>  (1) 
[H][c]1[n][c]([H])[c]([N]([C](=[O])[O][C](=[O])[N]2[C]([H])([H])[C]([H])([H])[N]([C]([H])([H])[H])[C]([H])([H])[C]2([H])[H])[C]([H])([H])[H])[c]([H])[c]1[H]

$$$$
