
     RDKit          3D

 25 26  0  0  0  0  0  0  0  0999 V2000
    5.1505    1.7419   16.9548 H   0  0  0  0  0  0  0  0  0  0  0  0
    5.5510    1.2203   17.8234 C   0  0  0  0  0  0  0  0  0  0  0  0
    6.7140    0.5800   17.6401 N   0  0  0  0  0  0  0  0  0  0  0  0
    7.2446   -0.0507   18.6994 C   0  0  0  0  0  0  0  0  0  0  0  0
    8.2073   -0.5296   18.5288 H   0  0  0  0  0  0  0  0  0  0  0  0
    6.6424   -0.1030   19.9639 C   0  0  0  0  0  0  0  0  0  0  0  0
    7.3463   -0.7703   21.1170 C   0  0  2  0  0  0  0  0  0  0  0  0
    6.7657   -0.5356   22.0289 H   0  0  0  0  0  0  0  0  0  0  0  0
    8.7085   -0.2400   21.1786 N   0  0  0  0  0  0  0  0  0  0  0  0
    9.1092   -0.5356   22.0646 H   0  0  0  0  0  0  0  0  0  0  0  0
    8.6333    0.7726   21.2057 H   0  0  0  0  0  0  0  0  0  0  0  0
    7.3611   -2.2918   21.0383 C   0  0  1  0  0  0  0  0  0  0  0  0
    6.7071   -2.7053   20.2779 H   0  0  0  0  0  0  0  0  0  0  0  0
    8.5349   -3.1888   21.3492 C   0  0  0  0  0  0  0  0  0  0  0  0
    9.4895   -2.7185   21.5830 H   0  0  0  0  0  0  0  0  0  0  0  0
    8.6143   -4.1062   20.7862 H   0  0  0  0  0  0  0  0  0  0  0  0
    7.4347   -3.0512   22.3447 C   0  0  1  0  0  0  0  0  0  0  0  0
    6.7206   -3.8793   22.4621 H   0  0  0  0  0  0  0  0  0  0  0  0
    7.8221   -2.2716   23.4921 N   0  0  0  0  0  0  0  0  0  0  0  0
    7.0707   -2.1163   24.1526 H   0  0  0  0  0  0  0  0  0  0  0  0
    8.5842   -2.7104   24.0008 H   0  0  0  0  0  0  0  0  0  0  0  0
    5.4185    0.5612   20.1294 C   0  0  0  0  0  0  0  0  0  0  0  0
    4.9189    0.5647   21.0996 H   0  0  0  0  0  0  0  0  0  0  0  0
    4.8656    1.2399   19.0419 C   0  0  0  0  0  0  0  0  0  0  0  0
    3.9386    1.7961   19.1293 H   0  0  0  0  0  0  0  0  0  0  0  0
  1  2  1  0
  2  3  2  0
  3  4  1  0
  4  5  1  0
  4  6  2  0
  6  7  1  0
  7  8  1  1
  7  9  1  0
  9 10  1  0
  9 11  1  0
  7 12  1  0
 12 13  1  6
 12 14  1  0
 14 15  1  0
 14 16  1  0
 14 17  1  0
 17 18  1  1
 17 19  1  0
 19 20  1  0
 19 21  1  0
  6 22  1  0
 22 23  1  0
 22 24  2  0
 24 25  1  0
 24  2  1  0
 17 12  1  0
M  END
>  <plip>  (1) 
-0.10714285714285714

>  <filename>  (1) 
[H][c]1[n][c]([H])[c]([C@]([H])([N]([H])[H])[C@@]2([H])[C]([H])([H])[C@@]2([H])[N]([H])[H])[c]([H])[c]1[H]

$$$$
