
     RDKit          3D

 37 39  0  0  0  0  0  0  0  0999 V2000
    4.9161    1.7865   16.9896 H   0  0  0  0  0  0  0  0  0  0  0  0
    5.3942    1.2971   17.8324 C   0  0  0  0  0  0  0  0  0  0  0  0
    6.5585    0.6827   17.5710 N   0  0  0  0  0  0  0  0  0  0  0  0
    7.1714    0.0655   18.5849 C   0  0  0  0  0  0  0  0  0  0  0  0
    8.1179   -0.4202   18.3600 H   0  0  0  0  0  0  0  0  0  0  0  0
    6.6584    0.0117   19.8949 C   0  0  0  0  0  0  0  0  0  0  0  0
    7.3530   -0.6848   20.9339 C   0  0  0  0  0  0  0  0  0  0  0  0
    7.9176   -1.2524   21.8362 C   0  0  0  0  0  0  0  0  0  0  0  0
    8.6417   -1.9319   22.9273 C   0  0  2  0  0  0  0  0  0  0  0  0
    8.4425   -3.0037   22.8073 H   0  0  0  0  0  0  0  0  0  0  0  0
    8.1537   -1.5349   24.2586 N   0  0  0  0  0  0  0  0  0  0  0  0
    7.0075   -2.1729   24.7900 C   0  0  0  0  0  0  0  0  0  0  0  0
    7.0340   -3.5557   25.1000 C   0  0  0  0  0  0  0  0  0  0  0  0
    7.9442   -4.1141   24.8983 H   0  0  0  0  0  0  0  0  0  0  0  0
    6.0278   -4.2361   25.6580 N   0  0  0  0  0  0  0  0  0  0  0  0
    4.9049   -3.5615   25.9333 C   0  0  0  0  0  0  0  0  0  0  0  0
    4.1027   -4.1421   26.3816 H   0  0  0  0  0  0  0  0  0  0  0  0
    4.7522   -2.1990   25.6684 C   0  0  0  0  0  0  0  0  0  0  0  0
    3.8199   -1.7049   25.9120 H   0  0  0  0  0  0  0  0  0  0  0  0
    5.8121   -1.4878   25.0949 C   0  0  0  0  0  0  0  0  0  0  0  0
    5.7271   -0.4248   24.8627 H   0  0  0  0  0  0  0  0  0  0  0  0
    8.4837   -0.1688   24.6713 C   0  0  0  0  0  0  0  0  0  0  0  0
    7.9799    0.6073   24.0613 H   0  0  0  0  0  0  0  0  0  0  0  0
    8.1325   -0.0365   25.7013 H   0  0  0  0  0  0  0  0  0  0  0  0
    9.9990    0.0438   24.6152 C   0  0  0  0  0  0  0  0  0  0  0  0
   10.4668   -0.6112   25.3605 H   0  0  0  0  0  0  0  0  0  0  0  0
   10.2360    1.0734   24.9032 H   0  0  0  0  0  0  0  0  0  0  0  0
   10.5536   -0.2763   23.2242 C   0  0  0  0  0  0  0  0  0  0  0  0
   10.1425    0.4333   22.4898 H   0  0  0  0  0  0  0  0  0  0  0  0
   11.6439   -0.1643   23.2061 H   0  0  0  0  0  0  0  0  0  0  0  0
   10.1641   -1.7047   22.8208 C   0  0  0  0  0  0  0  0  0  0  0  0
   10.6473   -2.4260   23.4875 H   0  0  0  0  0  0  0  0  0  0  0  0
   10.5043   -1.9291   21.8033 H   0  0  0  0  0  0  0  0  0  0  0  0
    5.4338    0.6578   20.1518 C   0  0  0  0  0  0  0  0  0  0  0  0
    5.0037    0.6375   21.1561 H   0  0  0  0  0  0  0  0  0  0  0  0
    4.8009    1.3156   19.0979 C   0  0  0  0  0  0  0  0  0  0  0  0
    3.8699    1.8459   19.2511 H   0  0  0  0  0  0  0  0  0  0  0  0
  1  2  1  0
  2  3  2  0
  3  4  1  0
  4  5  1  0
  4  6  2  0
  6  7  1  0
  7  8  3  0
  8  9  1  0
  9 10  1  6
  9 11  1  0
 11 12  1  0
 12 13  2  0
 13 14  1  0
 13 15  1  0
 15 16  2  0
 16 17  1  0
 16 18  1  0
 18 19  1  0
 18 20  2  0
 20 21  1  0
 11 22  1  0
 22 23  1  0
 22 24  1  0
 22 25  1  0
 25 26  1  0
 25 27  1  0
 25 28  1  0
 28 29  1  0
 28 30  1  0
 28 31  1  0
 31 32  1  0
 31 33  1  0
  6 34  1  0
 34 35  1  0
 34 36  2  0
 36 37  1  0
 36  2  1  0
 31  9  1  0
 20 12  1  0
M  END
>  <plip>  (1) 
-0.03571428571428571

>  <filename>  (1) 
[H][c]1[n][c]([H])[c]([C]#[C][C@]2([H])[N]([c]3[c]([H])[n][c]([H])[c]([H])[c]3[H])[C]([H])([H])[C]([H])([H])[C]([H])([H])[C]2([H])[H])[c]([H])[c]1[H]

$$$$
