
     RDKit          3D

 46 49  0  0  0  0  0  0  0  0999 V2000
    6.2582   -3.1270   19.9927 O   0  0  0  0  0  0  0  0  0  0  0  0
    6.0089   -2.8575   21.1507 C   0  0  0  0  0  0  0  0  0  0  0  0
    6.5508   -1.7424   21.7541 N   0  0  0  0  0  0  0  0  0  0  0  0
    7.3932   -0.8044   21.0145 C   0  0  0  0  0  0  0  0  0  0  0  0
    6.6242   -0.0507   19.9277 C   0  0  0  0  0  0  0  0  0  0  0  0
    5.4391    0.6679   20.1594 C   0  0  0  0  0  0  0  0  0  0  0  0
    4.8419    1.3325   19.0841 C   0  0  0  0  0  0  0  0  0  0  0  0
    5.4552    1.2794   17.8293 C   0  0  0  0  0  0  0  0  0  0  0  0
    6.5748    0.5853   17.5814 N   0  0  0  0  0  0  0  0  0  0  0  0
    7.1206   -0.0719   18.6165 C   0  0  0  0  0  0  0  0  0  0  0  0
    8.0213   -0.6502   18.3891 H   0  0  0  0  0  0  0  0  0  0  0  0
    5.0259    1.8088   16.9821 H   0  0  0  0  0  0  0  0  0  0  0  0
    3.9195    1.8889   19.2036 H   0  0  0  0  0  0  0  0  0  0  0  0
    4.9918    0.7174   21.1540 H   0  0  0  0  0  0  0  0  0  0  0  0
    8.1597    0.0836   22.0451 C   0  0  0  0  0  0  0  0  0  0  0  0
    9.2736    0.9210   21.4165 C   0  0  0  0  0  0  0  0  0  0  0  0
    8.5772    2.2600   21.1726 C   0  0  0  0  0  0  0  0  0  0  0  0
    7.6405    2.3612   22.3753 C   0  0  0  0  0  0  0  0  0  0  0  0
    7.3194    1.0162   22.7332 O   0  0  0  0  0  0  0  0  0  0  0  0
    6.7074    2.8978   22.1549 H   0  0  0  0  0  0  0  0  0  0  0  0
    8.1236    2.8588   23.2311 H   0  0  0  0  0  0  0  0  0  0  0  0
    9.2799    3.0891   21.1164 H   0  0  0  0  0  0  0  0  0  0  0  0
    7.9850    2.2293   20.2535 H   0  0  0  0  0  0  0  0  0  0  0  0
   10.0983    1.0382   22.1326 H   0  0  0  0  0  0  0  0  0  0  0  0
    9.6698    0.4538   20.5087 H   0  0  0  0  0  0  0  0  0  0  0  0
    8.5534   -0.6121   22.7979 H   0  0  0  0  0  0  0  0  0  0  0  0
    8.1741   -1.3910   20.5103 H   0  0  0  0  0  0  0  0  0  0  0  0
    6.0263   -1.2919   22.4915 H   0  0  0  0  0  0  0  0  0  0  0  0
    5.1452   -3.7345   22.0517 C   0  0  0  0  0  0  0  0  0  0  0  0
    4.6509   -4.8998   21.6172 N   0  0  0  0  0  0  0  0  0  0  0  0
    3.8289   -5.3131   22.5698 N   0  0  0  0  0  0  0  0  0  0  0  0
    3.7655   -4.4830   23.6495 C   0  0  0  0  0  0  0  0  0  0  0  0
    2.8628   -4.6676   24.8108 C   0  0  0  0  0  0  0  0  0  0  0  0
    3.3636   -4.4170   26.1048 C   0  0  0  0  0  0  0  0  0  0  0  0
    2.5739   -4.5811   27.2448 C   0  0  0  0  0  0  0  0  0  0  0  0
    1.2392   -4.9731   27.1161 C   0  0  0  0  0  0  0  0  0  0  0  0
    0.6972   -5.1775   25.8465 C   0  0  0  0  0  0  0  0  0  0  0  0
    1.4967   -5.0198   24.7107 C   0  0  0  0  0  0  0  0  0  0  0  0
    0.7161   -5.2330   23.1614 Cl  0  0  0  0  0  0  0  0  0  0  0  0
   -0.3477   -5.4360   25.7200 H   0  0  0  0  0  0  0  0  0  0  0  0
    0.6134   -5.1046   27.9958 H   0  0  0  0  0  0  0  0  0  0  0  0
    2.9887   -4.3873   28.2289 H   0  0  0  0  0  0  0  0  0  0  0  0
    4.3970   -4.0896   26.1933 H   0  0  0  0  0  0  0  0  0  0  0  0
    4.6662   -3.4806   23.3611 C   0  0  0  0  0  0  0  0  0  0  0  0
    4.9795   -2.7164   24.0583 H   0  0  0  0  0  0  0  0  0  0  0  0
    3.2775   -6.1441   22.4125 H   0  0  0  0  0  0  0  0  0  0  0  0
  1  2  2  0
  2  3  1  0
  3  4  1  0
  4  5  1  0
  5  6  2  0
  6  7  1  0
  7  8  2  0
  8  9  1  0
  9 10  2  0
 10 11  1  0
  8 12  1  0
  7 13  1  0
  6 14  1  0
  4 15  1  0
 15 16  1  0
 16 17  1  0
 17 18  1  0
 18 19  1  0
 18 20  1  0
 18 21  1  0
 17 22  1  0
 17 23  1  0
 16 24  1  0
 16 25  1  0
 15 26  1  0
  4 27  1  0
  3 28  1  0
  2 29  1  0
 29 30  2  0
 30 31  1  0
 31 32  1  0
 32 33  1  0
 33 34  2  0
 34 35  1  0
 35 36  2  0
 36 37  1  0
 37 38  2  0
 38 39  1  0
 37 40  1  0
 36 41  1  0
 35 42  1  0
 34 43  1  0
 32 44  2  0
 44 45  1  0
 31 46  1  0
 10  5  1  0
 19 15  1  0
 44 29  1  0
 38 33  1  0
M  END
>  <plip>  (1) 
-0.1724137931034483

>  <filename>  (1) 
[H][c]1[n][c]([H])[c]([C]([H])([N]([H])[C](=[O])[c]2[n][n]([H])[c](-[c]3[c]([H])[c]([H])[c]([H])[c]([H])[c]3[Cl])[c]2[H])[C]2([H])[O][C]([H])([H])[C]([H])([H])[C]2([H])[H])[c]([H])[c]1[H]

$$$$
