
     RDKit          3D

 39 41  0  0  0  0  0  0  0  0999 V2000
    8.9170   -2.1288   22.9765 O   0  0  0  0  0  0  0  0  0  0  0  0
    7.7049   -1.9860   23.0676 C   0  0  0  0  0  0  0  0  0  0  0  0
    6.8895   -1.2885   22.0437 C   0  0  0  0  0  0  0  0  0  0  0  0
    7.4222   -0.7297   20.9537 C   0  0  0  0  0  0  0  0  0  0  0  0
    6.6616   -0.0022   19.9135 C   0  0  0  0  0  0  0  0  0  0  0  0
    5.4365    0.6465   20.1513 C   0  0  0  0  0  0  0  0  0  0  0  0
    4.8033    1.3065   19.0962 C   0  0  0  0  0  0  0  0  0  0  0  0
    5.3976    1.2926   17.8322 C   0  0  0  0  0  0  0  0  0  0  0  0
    6.5637    0.6772   17.5783 N   0  0  0  0  0  0  0  0  0  0  0  0
    7.1699    0.0656   18.5990 C   0  0  0  0  0  0  0  0  0  0  0  0
    8.1208   -0.4082   18.3538 H   0  0  0  0  0  0  0  0  0  0  0  0
    4.9319    1.7959   16.9857 H   0  0  0  0  0  0  0  0  0  0  0  0
    3.8722    1.8400   19.2403 H   0  0  0  0  0  0  0  0  0  0  0  0
    5.0013    0.6600   21.1502 H   0  0  0  0  0  0  0  0  0  0  0  0
    8.4995   -0.8376   20.8015 H   0  0  0  0  0  0  0  0  0  0  0  0
    5.8180   -1.2863   22.1718 H   0  0  0  0  0  0  0  0  0  0  0  0
    7.0098   -2.4734   24.1354 N   0  0  0  0  0  0  0  0  0  0  0  0
    7.6568   -3.3674   25.0917 C   0  0  0  0  0  0  0  0  0  0  0  0
    8.0880   -4.7294   24.4973 C   0  0  0  0  0  0  0  0  0  0  0  0
    6.9108   -5.5012   23.9816 C   0  0  0  0  0  0  0  0  0  0  0  0
    6.4422   -5.5459   22.7009 C   0  0  0  0  0  0  0  0  0  0  0  0
    5.2723   -6.2801   22.6531 N   0  0  0  0  0  0  0  0  0  0  0  0
    4.9535   -6.7048   23.9152 C   0  0  0  0  0  0  0  0  0  0  0  0
    3.8829   -7.5055   24.3582 C   0  0  0  0  0  0  0  0  0  0  0  0
    3.8482   -7.7842   25.7112 C   0  0  0  0  0  0  0  0  0  0  0  0
    2.8383   -8.5323   26.1801 F   0  0  0  0  0  0  0  0  0  0  0  0
    4.8295   -7.3364   26.6210 C   0  0  0  0  0  0  0  0  0  0  0  0
    5.8847   -6.5577   26.1626 C   0  0  0  0  0  0  0  0  0  0  0  0
    5.9526   -6.2134   24.7915 C   0  0  0  0  0  0  0  0  0  0  0  0
    6.6753   -6.2417   26.8430 H   0  0  0  0  0  0  0  0  0  0  0  0
    4.7540   -7.6511   27.6554 H   0  0  0  0  0  0  0  0  0  0  0  0
    3.1157   -7.9136   23.7122 H   0  0  0  0  0  0  0  0  0  0  0  0
    4.7167   -6.4829   21.8414 H   0  0  0  0  0  0  0  0  0  0  0  0
    6.8364   -5.0488   21.8225 H   0  0  0  0  0  0  0  0  0  0  0  0
    8.5983   -5.3092   25.2810 H   0  0  0  0  0  0  0  0  0  0  0  0
    8.8302   -4.5478   23.7084 H   0  0  0  0  0  0  0  0  0  0  0  0
    6.9650   -3.5335   25.9272 H   0  0  0  0  0  0  0  0  0  0  0  0
    8.5546   -2.8676   25.4715 H   0  0  0  0  0  0  0  0  0  0  0  0
    6.0050   -2.4145   24.0973 H   0  0  0  0  0  0  0  0  0  0  0  0
  1  2  2  0
  2  3  1  0
  3  4  2  3
  4  5  1  0
  5  6  2  0
  6  7  1  0
  7  8  2  0
  8  9  1  0
  9 10  2  0
 10 11  1  0
  8 12  1  0
  7 13  1  0
  6 14  1  0
  4 15  1  0
  3 16  1  0
  2 17  1  0
 17 18  1  0
 18 19  1  0
 19 20  1  0
 20 21  2  0
 21 22  1  0
 22 23  1  0
 23 24  2  0
 24 25  1  0
 25 26  1  0
 25 27  2  0
 27 28  1  0
 28 29  2  0
 28 30  1  0
 27 31  1  0
 24 32  1  0
 22 33  1  0
 21 34  1  0
 19 35  1  0
 19 36  1  0
 18 37  1  0
 18 38  1  0
 17 39  1  0
 10  5  1  0
 29 20  1  0
 29 23  1  0
M  END
>  <plip>  (1) 
-0.10344827586206896

>  <filename>  (1) 
[H][C]([C](=[O])[N]([H])[C]([H])([H])[C]([H])([H])[c]1[c]([H])[n]([H])[c]2[c]([H])[c]([F])[c]([H])[c]([H])[c]12)=[C]([H])[c]1[c]([H])[n][c]([H])[c]([H])[c]1[H]

$$$$
