
     RDKit          3D

 27 28  0  0  0  0  0  0  0  0999 V2000
    5.0765    1.7463   17.0052 H   0  0  0  0  0  0  0  0  0  0  0  0
    5.4890    1.2459   17.8801 C   0  0  0  0  0  0  0  0  0  0  0  0
    6.6429    0.5974   17.6926 N   0  0  0  0  0  0  0  0  0  0  0  0
    7.1959    0.0045   18.7592 C   0  0  0  0  0  0  0  0  0  0  0  0
    8.1203   -0.5346   18.5569 H   0  0  0  0  0  0  0  0  0  0  0  0
    6.6717    0.0239   20.0620 C   0  0  0  0  0  0  0  0  0  0  0  0
    7.4481   -0.5544   21.2795 C   0  0  0  0  0  0  0  0  0  0  0  0
    6.6614   -1.6533   22.0040 C   0  0  0  0  0  0  0  0  0  0  0  0
    5.8069   -2.8357   21.0561 S   0  0  0  0  0  0  0  0  0  0  0  0
    5.2715   -3.6642   22.4705 C   0  0  0  0  0  0  0  0  0  0  0  0
    4.2339   -5.0302   22.3438 Cl  0  0  0  0  0  0  0  0  0  0  0  0
    5.7496   -3.0957   23.6100 C   0  0  0  0  0  0  0  0  0  0  0  0
    5.5446   -3.4863   24.6009 H   0  0  0  0  0  0  0  0  0  0  0  0
    6.5572   -1.9435   23.3430 C   0  0  0  0  0  0  0  0  0  0  0  0
    7.0226   -1.3575   24.1342 H   0  0  0  0  0  0  0  0  0  0  0  0
    7.7817    0.6168   22.2310 C   0  0  0  0  0  0  0  0  0  0  0  0
    6.8904    1.1432   22.5820 H   0  0  0  0  0  0  0  0  0  0  0  0
    8.3401    0.2528   23.0988 H   0  0  0  0  0  0  0  0  0  0  0  0
    8.4192    1.3471   21.7199 H   0  0  0  0  0  0  0  0  0  0  0  0
    8.8014   -1.1924   20.8705 C   0  0  0  0  0  0  0  0  0  0  0  0
    9.4243   -0.4889   20.3142 H   0  0  0  0  0  0  0  0  0  0  0  0
    8.6330   -2.0910   20.2721 H   0  0  0  0  0  0  0  0  0  0  0  0
    9.3728   -1.4737   21.7597 H   0  0  0  0  0  0  0  0  0  0  0  0
    5.4263    0.6612   20.2170 C   0  0  0  0  0  0  0  0  0  0  0  0
    4.9156    0.6716   21.1824 H   0  0  0  0  0  0  0  0  0  0  0  0
    4.8293    1.2818   19.1117 C   0  0  0  0  0  0  0  0  0  0  0  0
    3.8825    1.8079   19.1855 H   0  0  0  0  0  0  0  0  0  0  0  0
  1  2  1  0
  2  3  2  0
  3  4  1  0
  4  5  1  0
  4  6  2  0
  6  7  1  0
  7  8  1  0
  8  9  1  0
  9 10  1  0
 10 11  1  0
 10 12  2  0
 12 13  1  0
 12 14  1  0
 14 15  1  0
  7 16  1  0
 16 17  1  0
 16 18  1  0
 16 19  1  0
  7 20  1  0
 20 21  1  0
 20 22  1  0
 20 23  1  0
  6 24  1  0
 24 25  1  0
 24 26  2  0
 26 27  1  0
 26  2  1  0
 14  8  2  0
M  END
>  <plip>  (1) 
-0.0

>  <filename>  (1) 
[H][c]1[n][c]([H])[c]([C]([c]2[s][c]([Cl])[c]([H])[c]2[H])([C]([H])([H])[H])[C]([H])([H])[H])[c]([H])[c]1[H]

$$$$
