
     RDKit          3D

 24 25  0  0  0  0  0  0  0  0999 V2000
    9.0516   -3.3240   26.9559 H   0  0  0  0  0  0  0  0  0  0  0  0
    8.4081   -2.7604   26.2723 C   0  0  0  0  0  0  0  0  0  0  0  0
    8.8296   -2.6564   25.0018 N   0  0  0  0  0  0  0  0  0  0  0  0
    8.0296   -1.9678   24.1815 C   0  0  0  0  0  0  0  0  0  0  0  0
    8.5330   -1.9171   22.9038 N   0  0  0  0  0  0  0  0  0  0  0  0
    9.4119   -2.4194   22.9478 H   0  0  0  0  0  0  0  0  0  0  0  0
    7.9476   -1.2851   21.8695 C   0  0  0  0  0  0  0  0  0  0  0  0
    7.3733   -0.7056   20.9792 C   0  0  0  0  0  0  0  0  0  0  0  0
    6.6756   -0.0117   19.9223 C   0  0  0  0  0  0  0  0  0  0  0  0
    7.1858    0.0450   18.6018 C   0  0  0  0  0  0  0  0  0  0  0  0
    8.1333   -0.4325   18.3598 H   0  0  0  0  0  0  0  0  0  0  0  0
    6.5743    0.6643   17.5847 N   0  0  0  0  0  0  0  0  0  0  0  0
    5.4119    1.2830   17.8468 C   0  0  0  0  0  0  0  0  0  0  0  0
    4.9415    1.7855   17.0058 H   0  0  0  0  0  0  0  0  0  0  0  0
    4.8129    1.3009   19.1101 C   0  0  0  0  0  0  0  0  0  0  0  0
    3.8786    1.8349   19.2543 H   0  0  0  0  0  0  0  0  0  0  0  0
    5.4515    0.6434   20.1632 C   0  0  0  0  0  0  0  0  0  0  0  0
    5.0135    0.6375   21.1611 H   0  0  0  0  0  0  0  0  0  0  0  0
    6.8250   -1.3609   24.5309 C   0  0  0  0  0  0  0  0  0  0  0  0
    6.3004   -0.8406   23.7440 H   0  0  0  0  0  0  0  0  0  0  0  0
    6.4008   -1.4765   25.8487 C   0  0  0  0  0  0  0  0  0  0  0  0
    5.4627   -1.0213   26.1749 H   0  0  0  0  0  0  0  0  0  0  0  0
    7.2124   -2.1946   26.7395 C   0  0  0  0  0  0  0  0  0  0  0  0
    6.9225   -2.3142   27.7739 H   0  0  0  0  0  0  0  0  0  0  0  0
  1  2  1  0
  2  3  2  0
  3  4  1  0
  4  5  1  0
  5  6  1  0
  5  7  1  0
  7  8  3  0
  8  9  1  0
  9 10  2  0
 10 11  1  0
 10 12  1  0
 12 13  2  0
 13 14  1  0
 13 15  1  0
 15 16  1  0
 15 17  2  0
 17 18  1  0
  4 19  2  0
 19 20  1  0
 19 21  1  0
 21 22  1  0
 21 23  2  0
 23 24  1  0
 23  2  1  0
 17  9  1  0
M  END
>  <plip>  (1) 
-0.03571428571428571

>  <filename>  (1) 
[H][c]1[n][c]([N]([H])[C]#[C][c]2[c]([H])[n][c]([H])[c]([H])[c]2[H])[c]([H])[c]([H])[c]1[H]

$$$$
