
     RDKit          3D

 41 43  0  0  0  0  0  0  0  0999 V2000
    6.4164   -2.6190   19.5551 H   0  0  0  0  0  0  0  0  0  0  0  0
    6.7275   -3.0690   20.3524 O   0  0  0  0  0  0  0  0  0  0  0  0
    6.6329   -2.1191   21.3860 C   0  0  1  0  0  0  0  0  0  0  0  0
    5.5742   -1.8955   21.5922 H   0  0  0  0  0  0  0  0  0  0  0  0
    7.2471   -2.8404   22.4821 N   0  0  0  0  0  0  0  0  0  0  0  0
    7.7934   -3.5598   22.0269 H   0  0  0  0  0  0  0  0  0  0  0  0
    6.3378   -3.4806   23.3271 C   0  0  0  0  0  0  0  0  0  0  0  0
    5.1348   -3.3465   23.2880 O   0  0  0  0  0  0  0  0  0  0  0  0
    7.0228   -4.2857   24.2110 N   0  0  0  0  0  0  0  0  0  0  0  0
    7.9545   -3.9310   24.3337 H   0  0  0  0  0  0  0  0  0  0  0  0
    6.3957   -4.8618   25.3370 C   0  0  0  0  0  0  0  0  0  0  0  0
    7.0267   -4.8493   26.5859 C   0  0  0  0  0  0  0  0  0  0  0  0
    7.9989   -4.3814   26.7071 H   0  0  0  0  0  0  0  0  0  0  0  0
    6.3881   -5.4203   27.6944 C   0  0  0  0  0  0  0  0  0  0  0  0
    6.8498   -5.4037   28.6752 H   0  0  0  0  0  0  0  0  0  0  0  0
    5.1332   -6.0122   27.5365 C   0  0  0  0  0  0  0  0  0  0  0  0
    4.3274   -6.7361   28.8961 Cl  0  0  0  0  0  0  0  0  0  0  0  0
    4.5041   -6.0303   26.2895 C   0  0  0  0  0  0  0  0  0  0  0  0
    3.5159   -6.4631   26.1822 H   0  0  0  0  0  0  0  0  0  0  0  0
    5.1374   -5.4573   25.1904 C   0  0  0  0  0  0  0  0  0  0  0  0
    4.6609   -5.4252   24.2191 H   0  0  0  0  0  0  0  0  0  0  0  0
    7.2964   -0.7354   21.0788 C   0  0  0  0  0  0  0  0  0  0  0  0
    6.6069   -0.0244   19.9219 C   0  0  0  0  0  0  0  0  0  0  0  0
    7.1379    0.0077   18.6158 C   0  0  0  0  0  0  0  0  0  0  0  0
    8.0831   -0.4967   18.4094 H   0  0  0  0  0  0  0  0  0  0  0  0
    6.5761    0.6344   17.5739 N   0  0  0  0  0  0  0  0  0  0  0  0
    5.4219    1.2815   17.8042 C   0  0  0  0  0  0  0  0  0  0  0  0
    4.9869    1.7989   16.9529 H   0  0  0  0  0  0  0  0  0  0  0  0
    4.7872    1.3046   19.0515 C   0  0  0  0  0  0  0  0  0  0  0  0
    3.8583    1.8539   19.1775 H   0  0  0  0  0  0  0  0  0  0  0  0
    5.3836    0.6388   20.1204 C   0  0  0  0  0  0  0  0  0  0  0  0
    4.9245    0.6409   21.1123 H   0  0  0  0  0  0  0  0  0  0  0  0
    7.3904    0.1033   22.3993 C   0  0  0  0  0  0  0  0  0  0  0  0
    6.8312   -0.3239   23.2409 H   0  0  0  0  0  0  0  0  0  0  0  0
    7.0780    1.1460   22.2873 H   0  0  0  0  0  0  0  0  0  0  0  0
    8.9198   -0.1125   22.4124 C   0  0  0  0  0  0  0  0  0  0  0  0
    9.2314   -0.8048   23.1936 H   0  0  0  0  0  0  0  0  0  0  0  0
    9.5254    0.7940   22.4819 H   0  0  0  0  0  0  0  0  0  0  0  0
    8.8518   -0.7629   21.0147 C   0  0  0  0  0  0  0  0  0  0  0  0
    9.2616   -0.1112   20.2378 H   0  0  0  0  0  0  0  0  0  0  0  0
    9.2854   -1.7613   20.8932 H   0  0  0  0  0  0  0  0  0  0  0  0
  1  2  1  0
  2  3  1  0
  3  4  1  1
  3  5  1  0
  5  6  1  0
  5  7  1  0
  7  8  2  0
  7  9  1  0
  9 10  1  0
  9 11  1  0
 11 12  2  0
 12 13  1  0
 12 14  1  0
 14 15  1  0
 14 16  2  0
 16 17  1  0
 16 18  1  0
 18 19  1  0
 18 20  2  0
 20 21  1  0
  3 22  1  0
 22 23  1  0
 23 24  2  0
 24 25  1  0
 24 26  1  0
 26 27  2  0
 27 28  1  0
 27 29  1  0
 29 30  1  0
 29 31  2  0
 31 32  1  0
 22 33  1  0
 33 34  1  0
 33 35  1  0
 33 36  1  0
 36 37  1  0
 36 38  1  0
 36 39  1  0
 39 40  1  0
 39 41  1  0
 20 11  1  0
 39 22  1  0
 31 23  1  0
M  END
>  <plip>  (1) 
-0.03571428571428571

>  <filename>  (1) 
[H][O][C@@]([H])([N]([H])[C](=[O])[N]([H])[c]1[c]([H])[c]([H])[c]([Cl])[c]([H])[c]1[H])[C]1([c]2[c]([H])[n][c]([H])[c]([H])[c]2[H])[C]([H])([H])[C]([H])([H])[C]1([H])[H]

$$$$
