
     RDKit          3D

 36 38  0  0  0  0  0  0  0  0999 V2000
    8.9448   -3.2106   22.8015 H   0  0  0  0  0  0  0  0  0  0  0  0
    8.4594   -2.3266   22.4174 C   0  0  0  0  0  0  0  0  0  0  0  0
    8.1644   -1.2838   23.1192 N   0  0  0  0  0  0  0  0  0  0  0  0
    7.5695   -0.3285   22.3156 C   0  0  0  0  0  0  0  0  0  0  0  0
    7.2231    0.9895   22.8673 C   0  0  0  0  0  0  0  0  0  0  0  0
    6.6372    1.0827   24.1403 C   0  0  0  0  0  0  0  0  0  0  0  0
    6.4588    0.1714   24.7045 H   0  0  0  0  0  0  0  0  0  0  0  0
    6.3040    2.3185   24.6742 C   0  0  0  0  0  0  0  0  0  0  0  0
    5.8716    2.3525   25.6695 H   0  0  0  0  0  0  0  0  0  0  0  0
    6.5371    3.5065   23.9605 C   0  0  0  0  0  0  0  0  0  0  0  0
    6.1744    4.8560   24.5521 C   0  0  0  0  0  0  0  0  0  0  0  0
    6.4395    5.6250   23.8164 H   0  0  0  0  0  0  0  0  0  0  0  0
    6.9796    5.1478   25.8262 C   0  0  0  0  0  0  0  0  0  0  0  0
    6.7280    4.4392   26.6236 H   0  0  0  0  0  0  0  0  0  0  0  0
    6.7749    6.1570   26.2006 H   0  0  0  0  0  0  0  0  0  0  0  0
    8.0549    5.0598   25.6418 H   0  0  0  0  0  0  0  0  0  0  0  0
    4.6655    4.9719   24.8078 C   0  0  0  0  0  0  0  0  0  0  0  0
    4.3381    4.2580   25.5721 H   0  0  0  0  0  0  0  0  0  0  0  0
    4.3990    5.9766   25.1541 H   0  0  0  0  0  0  0  0  0  0  0  0
    4.0948    4.7583   23.8985 H   0  0  0  0  0  0  0  0  0  0  0  0
    7.1215    3.4093   22.6873 C   0  0  0  0  0  0  0  0  0  0  0  0
    7.3050    4.3202   22.1221 H   0  0  0  0  0  0  0  0  0  0  0  0
    7.4629    2.1757   22.1434 C   0  0  0  0  0  0  0  0  0  0  0  0
    7.9010    2.1328   21.1474 H   0  0  0  0  0  0  0  0  0  0  0  0
    7.3656   -0.7006   20.9941 C   0  0  0  0  0  0  0  0  0  0  0  0
    6.6615    0.0020   19.9018 C   0  0  0  0  0  0  0  0  0  0  0  0
    7.1677    0.0575   18.5842 C   0  0  0  0  0  0  0  0  0  0  0  0
    8.1184   -0.4219   18.3651 H   0  0  0  0  0  0  0  0  0  0  0  0
    6.5652    0.6813   17.5675 N   0  0  0  0  0  0  0  0  0  0  0  0
    5.4002    1.2967   17.8353 C   0  0  0  0  0  0  0  0  0  0  0  0
    4.9152    1.7856   16.9945 H   0  0  0  0  0  0  0  0  0  0  0  0
    4.8020    1.3063   19.0998 C   0  0  0  0  0  0  0  0  0  0  0  0
    3.8717    1.8438   19.2563 H   0  0  0  0  0  0  0  0  0  0  0  0
    5.4341    0.6400   20.1500 C   0  0  0  0  0  0  0  0  0  0  0  0
    5.0217    0.6332   21.1633 H   0  0  0  0  0  0  0  0  0  0  0  0
    8.0094   -2.2683   20.7801 S   0  0  0  0  0  0  0  0  0  0  0  0
  1  2  1  0
  2  3  2  0
  3  4  1  0
  4  5  1  0
  5  6  2  0
  6  7  1  0
  6  8  1  0
  8  9  1  0
  8 10  2  0
 10 11  1  0
 11 12  1  0
 11 13  1  0
 13 14  1  0
 13 15  1  0
 13 16  1  0
 11 17  1  0
 17 18  1  0
 17 19  1  0
 17 20  1  0
 10 21  1  0
 21 22  1  0
 21 23  2  0
 23 24  1  0
  4 25  2  0
 25 26  1  0
 26 27  2  0
 27 28  1  0
 27 29  1  0
 29 30  2  0
 30 31  1  0
 30 32  1  0
 32 33  1  0
 32 34  2  0
 34 35  1  0
 25 36  1  0
 36  2  1  0
 23  5  1  0
 34 26  1  0
M  END
>  <plip>  (1) 
-0.03571428571428571

>  <filename>  (1) 
[H][c]1[n][c](-[c]2[c]([H])[c]([H])[c]([C]([H])([C]([H])([H])[H])[C]([H])([H])[H])[c]([H])[c]2[H])[c](-[c]2[c]([H])[n][c]([H])[c]([H])[c]2[H])[s]1

$$$$
