
     RDKit          3D

 36 37  0  0  0  0  0  0  0  0999 V2000
    4.9145    1.7796   16.9957 H   0  0  0  0  0  0  0  0  0  0  0  0
    5.4006    1.2951   17.8384 C   0  0  0  0  0  0  0  0  0  0  0  0
    6.5674    0.6816   17.5780 N   0  0  0  0  0  0  0  0  0  0  0  0
    7.1723    0.0706   18.6032 C   0  0  0  0  0  0  0  0  0  0  0  0
    8.1191   -0.4212   18.3845 H   0  0  0  0  0  0  0  0  0  0  0  0
    6.6437    0.0085   19.9017 C   0  0  0  0  0  0  0  0  0  0  0  0
    7.3940   -0.7384   20.9682 C   0  0  0  0  0  0  0  0  0  0  0  0
    7.4902   -1.7982   20.6860 H   0  0  0  0  0  0  0  0  0  0  0  0
    6.8295   -0.7008   21.9127 H   0  0  0  0  0  0  0  0  0  0  0  0
    8.7081   -0.2270   21.1059 O   0  0  0  0  0  0  0  0  0  0  0  0
    8.9964    0.5936   22.2508 C   0  0  0  0  0  0  0  0  0  0  0  0
   10.4362    1.0559   22.0333 C   0  0  0  0  0  0  0  0  0  0  0  0
   10.5166    1.7148   21.1614 H   0  0  0  0  0  0  0  0  0  0  0  0
   10.7933    1.6115   22.9067 H   0  0  0  0  0  0  0  0  0  0  0  0
   11.1001    0.1998   21.8866 H   0  0  0  0  0  0  0  0  0  0  0  0
    8.9231   -0.2711   23.5172 C   0  0  0  0  0  0  0  0  0  0  0  0
    7.8925   -0.4921   23.8178 H   0  0  0  0  0  0  0  0  0  0  0  0
    9.4355   -1.2231   23.3467 H   0  0  0  0  0  0  0  0  0  0  0  0
    9.4091    0.2330   24.3558 H   0  0  0  0  0  0  0  0  0  0  0  0
    8.0334    1.8248   22.3108 C   0  0  0  0  0  0  0  0  0  0  0  0
    7.0081    1.4685   22.4771 H   0  0  0  0  0  0  0  0  0  0  0  0
    8.0207    2.2941   21.3190 H   0  0  0  0  0  0  0  0  0  0  0  0
    8.3626    2.8357   23.3810 C   0  0  0  0  0  0  0  0  0  0  0  0
    9.1689    3.9579   23.1272 C   0  0  0  0  0  0  0  0  0  0  0  0
    9.5482    4.1086   22.1209 H   0  0  0  0  0  0  0  0  0  0  0  0
    9.5317    4.8645   24.0453 N   0  0  0  0  0  0  0  0  0  0  0  0
    9.0812    4.6724   25.2899 C   0  0  0  0  0  0  0  0  0  0  0  0
    9.3731    5.4174   26.0230 H   0  0  0  0  0  0  0  0  0  0  0  0
    8.2818    3.5917   25.6662 C   0  0  0  0  0  0  0  0  0  0  0  0
    7.9450    3.4876   26.6898 H   0  0  0  0  0  0  0  0  0  0  0  0
    7.9183    2.6566   24.6988 C   0  0  0  0  0  0  0  0  0  0  0  0
    7.2997    1.7950   24.9548 H   0  0  0  0  0  0  0  0  0  0  0  0
    5.4318    0.6560   20.1544 C   0  0  0  0  0  0  0  0  0  0  0  0
    4.9953    0.6342   21.1593 H   0  0  0  0  0  0  0  0  0  0  0  0
    4.7980    1.3169   19.1002 C   0  0  0  0  0  0  0  0  0  0  0  0
    3.8663    1.8492   19.2558 H   0  0  0  0  0  0  0  0  0  0  0  0
  1  2  1  0
  2  3  2  0
  3  4  1  0
  4  5  1  0
  4  6  2  0
  6  7  1  0
  7  8  1  0
  7  9  1  0
  7 10  1  0
 10 11  1  0
 11 12  1  0
 12 13  1  0
 12 14  1  0
 12 15  1  0
 11 16  1  0
 16 17  1  0
 16 18  1  0
 16 19  1  0
 11 20  1  0
 20 21  1  0
 20 22  1  0
 20 23  1  0
 23 24  2  0
 24 25  1  0
 24 26  1  0
 26 27  2  0
 27 28  1  0
 27 29  1  0
 29 30  1  0
 29 31  2  0
 31 32  1  0
  6 33  1  0
 33 34  1  0
 33 35  2  0
 35 36  1  0
 35  2  1  0
 31 23  1  0
M  END
>  <plip>  (1) 
-0.10714285714285714

>  <filename>  (1) 
[H][c]1[n][c]([H])[c]([C]([H])([H])[O][C]([C]([H])([H])[H])([C]([H])([H])[H])[C]([H])([H])[c]2[c]([H])[n][c]([H])[c]([H])[c]2[H])[c]([H])[c]1[H]

$$$$
