
     RDKit          3D

 34 36  0  0  0  0  0  0  0  0999 V2000
    5.0002    1.8485   16.9394 H   0  0  0  0  0  0  0  0  0  0  0  0
    5.4296    1.3427   17.8002 C   0  0  0  0  0  0  0  0  0  0  0  0
    6.6014    0.7255   17.5906 N   0  0  0  0  0  0  0  0  0  0  0  0
    7.1652    0.1088   18.6333 C   0  0  0  0  0  0  0  0  0  0  0  0
    8.1082   -0.4029   18.4381 H   0  0  0  0  0  0  0  0  0  0  0  0
    6.6070    0.0720   19.9213 C   0  0  0  0  0  0  0  0  0  0  0  0
    7.3740   -0.6039   21.0344 C   0  0  0  0  0  0  0  0  0  0  0  0
    6.7798   -0.6120   21.9568 H   0  0  0  0  0  0  0  0  0  0  0  0
    7.5474   -1.6489   20.7613 H   0  0  0  0  0  0  0  0  0  0  0  0
    8.6907   -0.0092   21.2854 N   0  0  0  0  0  0  0  0  0  0  0  0
    9.9030   -0.6169   21.0674 C   0  0  0  0  0  0  0  0  0  0  0  0
    9.9624   -1.6552   20.7633 H   0  0  0  0  0  0  0  0  0  0  0  0
   10.9228    0.1662   21.3206 N   0  0  0  0  0  0  0  0  0  0  0  0
   10.3640    1.3569   21.7291 C   0  0  0  0  0  0  0  0  0  0  0  0
   10.9291    2.2297   22.0292 H   0  0  0  0  0  0  0  0  0  0  0  0
    8.9916    1.2613   21.7231 C   0  0  0  0  0  0  0  0  0  0  0  0
    7.9622    2.1330   22.1271 N   0  0  0  0  0  0  0  0  0  0  0  0
    7.0181    1.8233   21.9754 H   0  0  0  0  0  0  0  0  0  0  0  0
    8.1361    3.4150   22.5977 C   0  0  0  0  0  0  0  0  0  0  0  0
    9.2411    3.8489   22.8580 O   0  0  0  0  0  0  0  0  0  0  0  0
    6.8511    4.2560   22.8097 C   0  0  0  0  0  0  0  0  0  0  0  0
    7.0080    5.5390   23.3782 C   0  0  0  0  0  0  0  0  0  0  0  0
    8.0034    5.9330   23.5672 H   0  0  0  0  0  0  0  0  0  0  0  0
    5.8855    6.3117   23.6880 C   0  0  0  0  0  0  0  0  0  0  0  0
    6.0123    7.2823   24.1599 H   0  0  0  0  0  0  0  0  0  0  0  0
    4.6252    5.9239   23.4566 N   0  0  0  0  0  0  0  0  0  0  0  0
    4.4639    4.7338   22.8658 C   0  0  0  0  0  0  0  0  0  0  0  0
    3.4316    4.4362   22.6906 H   0  0  0  0  0  0  0  0  0  0  0  0
    5.5172    3.8753   22.5106 C   0  0  0  0  0  0  0  0  0  0  0  0
    5.2449    2.9592   21.9837 H   0  0  0  0  0  0  0  0  0  0  0  0
    5.3577    0.6751   20.1069 C   0  0  0  0  0  0  0  0  0  0  0  0
    4.8492    0.6081   21.0718 H   0  0  0  0  0  0  0  0  0  0  0  0
    4.7635    1.3394   19.0297 C   0  0  0  0  0  0  0  0  0  0  0  0
    3.8142    1.8539   19.1302 H   0  0  0  0  0  0  0  0  0  0  0  0
  1  2  1  0
  2  3  2  0
  3  4  1  0
  4  5  1  0
  4  6  2  0
  6  7  1  0
  7  8  1  0
  7  9  1  0
  7 10  1  0
 10 11  1  0
 11 12  1  0
 11 13  2  0
 13 14  1  0
 14 15  1  0
 14 16  2  0
 16 17  1  0
 17 18  1  0
 17 19  1  0
 19 20  2  0
 19 21  1  0
 21 22  2  0
 22 23  1  0
 22 24  1  0
 24 25  1  0
 24 26  2  0
 26 27  1  0
 27 28  1  0
 27 29  2  0
 29 30  1  0
  6 31  1  0
 31 32  1  0
 31 33  2  0
 33 34  1  0
 33  2  1  0
 16 10  1  0
 29 21  1  0
M  END
>  <plip>  (1) 
-0.03571428571428571

>  <filename>  (1) 
[H][c]1[n][c]([H])[c]([C]([H])([H])[n]2[c]([H])[n][c]([H])[c]2[N]([H])[C](=[O])[c]2[c]([H])[c]([H])[n][c]([H])[c]2[H])[c]([H])[c]1[H]

$$$$
