
     RDKit          3D

 37 39  0  0  0  0  0  0  0  0999 V2000
    5.5624   -3.3048   21.7037 C   0  0  0  0  0  0  0  0  0  0  0  0
    6.2415   -2.7630   20.5964 O   0  0  0  0  0  0  0  0  0  0  0  0
    7.4318   -2.0796   20.9240 C   0  0  0  0  0  0  0  0  0  0  0  0
    7.2996   -0.5490   21.1685 C   0  0  1  0  0  0  0  0  0  0  0  0
    8.6447   -0.0062   21.3003 N   0  0  0  0  0  0  0  0  0  0  0  0
    9.4032   -0.1870   22.3747 C   0  0  0  0  0  0  0  0  0  0  0  0
    8.8243   -0.9027   23.3608 N   0  0  0  0  0  0  0  0  0  0  0  0
    9.4879   -0.9900   24.4986 C   0  0  0  0  0  0  0  0  0  0  0  0
   10.7476   -0.4026   24.6463 C   0  0  0  0  0  0  0  0  0  0  0  0
   11.6506   -0.2666   25.6845 N   0  0  0  0  0  0  0  0  0  0  0  0
   12.6439    0.3806   25.1484 C   0  0  0  0  0  0  0  0  0  0  0  0
   12.4749    0.6951   23.8199 N   0  0  0  0  0  0  0  0  0  0  0  0
   13.4317    1.3168   22.9243 C   0  0  0  0  0  0  0  0  0  0  0  0
   13.4011    2.4075   22.9911 H   0  0  0  0  0  0  0  0  0  0  0  0
   14.4410    0.9804   23.1694 H   0  0  0  0  0  0  0  0  0  0  0  0
   13.1841    1.0203   21.9033 H   0  0  0  0  0  0  0  0  0  0  0  0
   11.2366    0.2218   23.4810 C   0  0  0  0  0  0  0  0  0  0  0  0
   10.6100    0.3700   22.3230 N   0  0  0  0  0  0  0  0  0  0  0  0
   13.5408    0.6614   25.6816 H   0  0  0  0  0  0  0  0  0  0  0  0
    9.0057   -1.5332   25.3145 H   0  0  0  0  0  0  0  0  0  0  0  0
    9.0833    0.6048   20.6381 H   0  0  0  0  0  0  0  0  0  0  0  0
    6.6272    0.1814   20.0461 C   0  0  0  0  0  0  0  0  0  0  0  0
    5.3782    0.8008   20.1792 C   0  0  0  0  0  0  0  0  0  0  0  0
    4.7964    1.3754   19.0493 C   0  0  0  0  0  0  0  0  0  0  0  0
    5.4894    1.3216   17.8374 C   0  0  0  0  0  0  0  0  0  0  0  0
    6.6912    0.7419   17.6937 N   0  0  0  0  0  0  0  0  0  0  0  0
    7.2376    0.1980   18.7847 C   0  0  0  0  0  0  0  0  0  0  0  0
    8.2201   -0.2594   18.6358 H   0  0  0  0  0  0  0  0  0  0  0  0
    5.0671    1.7608   16.9383 H   0  0  0  0  0  0  0  0  0  0  0  0
    3.8336    1.8715   19.0952 H   0  0  0  0  0  0  0  0  0  0  0  0
    4.8859    0.8453   21.1535 H   0  0  0  0  0  0  0  0  0  0  0  0
    6.7296   -0.4183   22.1065 H   0  0  0  0  0  0  0  0  0  0  0  0
    8.1270   -2.1441   20.0955 H   0  0  0  0  0  0  0  0  0  0  0  0
    7.9498   -2.5337   21.7754 H   0  0  0  0  0  0  0  0  0  0  0  0
    6.0794   -4.1960   22.0955 H   0  0  0  0  0  0  0  0  0  0  0  0
    4.5726   -3.5879   21.3454 H   0  0  0  0  0  0  0  0  0  0  0  0
    5.4511   -2.5805   22.5252 H   0  0  0  0  0  0  0  0  0  0  0  0
  1  2  1  0
  2  3  1  0
  3  4  1  0
  4  5  1  0
  5  6  1  0
  6  7  2  0
  7  8  1  0
  8  9  2  0
  9 10  1  0
 10 11  2  0
 11 12  1  0
 12 13  1  0
 13 14  1  0
 13 15  1  0
 13 16  1  0
 12 17  1  0
 17 18  2  0
 11 19  1  0
  8 20  1  0
  5 21  1  0
  4 22  1  0
 22 23  2  0
 23 24  1  0
 24 25  2  0
 25 26  1  0
 26 27  2  0
 27 28  1  0
 25 29  1  0
 24 30  1  0
 23 31  1  0
  4 32  1  1
  3 33  1  0
  3 34  1  0
  1 35  1  0
  1 36  1  0
  1 37  1  0
 18  6  1  0
 27 22  1  0
 17  9  1  0
M  END
>  <plip>  (1) 
-0.10714285714285714

>  <filename>  (1) 
[H][c]1[n][c]([H])[c]([C@]([H])([N]([H])[c]2[n][c]([H])[c]3[n][c]([H])[n]([C]([H])([H])[H])[c]3[n]2)[C]([H])([H])[O][C]([H])([H])[H])[c]([H])[c]1[H]

$$$$
