
     RDKit          3D

 33 34  0  0  0  0  0  0  0  0999 V2000
    5.0799    1.8389   17.0036 H   0  0  0  0  0  0  0  0  0  0  0  0
    5.4833    1.2893   17.8473 C   0  0  0  0  0  0  0  0  0  0  0  0
    6.6244    0.6145   17.6331 N   0  0  0  0  0  0  0  0  0  0  0  0
    7.1497   -0.0585   18.6643 C   0  0  0  0  0  0  0  0  0  0  0  0
    8.0750   -0.6075   18.4956 H   0  0  0  0  0  0  0  0  0  0  0  0
    6.5705   -0.0942   19.9540 C   0  0  0  0  0  0  0  0  0  0  0  0
    7.1055   -0.8323   21.0373 N   0  0  0  0  0  0  0  0  0  0  0  0
    7.2440   -0.2637   21.8776 H   0  0  0  0  0  0  0  0  0  0  0  0
    8.3624   -1.4348   20.7774 N   0  0  0  0  0  0  0  0  0  0  0  0
    8.2198   -2.4231   20.9990 H   0  0  0  0  0  0  0  0  0  0  0  0
    9.2665   -0.8738   21.7541 N   0  0  0  0  0  0  0  0  0  0  0  0
    9.6940    0.4572   21.2473 C   0  0  0  0  0  0  0  0  0  0  0  0
    8.8577    1.1665   21.3079 H   0  0  0  0  0  0  0  0  0  0  0  0
    9.9123    0.3573   20.1802 H   0  0  0  0  0  0  0  0  0  0  0  0
   10.8695    1.0783   22.0087 C   0  0  0  0  0  0  0  0  0  0  0  0
   10.4964    1.5133   22.9464 H   0  0  0  0  0  0  0  0  0  0  0  0
   11.2740    1.9096   21.4115 H   0  0  0  0  0  0  0  0  0  0  0  0
   12.0008    0.0897   22.3293 C   0  0  0  0  0  0  0  0  0  0  0  0
   12.4937   -0.1932   21.4041 H   0  0  0  0  0  0  0  0  0  0  0  0
   13.0547    0.7253   23.2441 C   0  0  0  0  0  0  0  0  0  0  0  0
   13.4547    1.6358   22.7776 H   0  0  0  0  0  0  0  0  0  0  0  0
   12.6283    1.0201   24.2133 H   0  0  0  0  0  0  0  0  0  0  0  0
   13.8962    0.0473   23.4383 H   0  0  0  0  0  0  0  0  0  0  0  0
   11.4449   -1.2448   22.8304 C   0  0  0  0  0  0  0  0  0  0  0  0
   12.2461   -1.9912   22.8250 H   0  0  0  0  0  0  0  0  0  0  0  0
   11.0175   -1.1402   23.8367 H   0  0  0  0  0  0  0  0  0  0  0  0
   10.3921   -1.8082   21.8969 C   0  0  0  0  0  0  0  0  0  0  0  0
   10.0142   -2.7519   22.3174 H   0  0  0  0  0  0  0  0  0  0  0  0
   10.8539   -2.0329   20.9152 H   0  0  0  0  0  0  0  0  0  0  0  0
    5.3772    0.6051   20.1558 C   0  0  0  0  0  0  0  0  0  0  0  0
    4.9201    0.5765   21.1449 H   0  0  0  0  0  0  0  0  0  0  0  0
    4.8223    1.3074   19.0851 C   0  0  0  0  0  0  0  0  0  0  0  0
    3.9129    1.8845   19.2058 H   0  0  0  0  0  0  0  0  0  0  0  0
  1  2  1  0
  2  3  2  0
  3  4  1  0
  4  5  1  0
  4  6  2  0
  6  7  1  0
  7  8  1  0
  7  9  1  0
  9 10  1  0
  9 11  1  0
 11 12  1  0
 12 13  1  0
 12 14  1  0
 12 15  1  0
 15 16  1  0
 15 17  1  0
 15 18  1  0
 18 19  1  0
 18 20  1  0
 20 21  1  0
 20 22  1  0
 20 23  1  0
 18 24  1  0
 24 25  1  0
 24 26  1  0
 24 27  1  0
 27 28  1  0
 27 29  1  0
  6 30  1  0
 30 31  1  0
 30 32  2  0
 32 33  1  0
 32  2  1  0
 27 11  1  0
M  END
>  <plip>  (1) 
-0.03571428571428571

>  <filename>  (1) 
[H][c]1[n][c]([H])[c]([N]([H])[N]([H])[N]2[C]([H])([H])[C]([H])([H])[C]([H])([C]([H])([H])[H])[C]([H])([H])[C]2([H])[H])[c]([H])[c]1[H]

$$$$
