
     RDKit          3D

 34 35  0  0  0  0  0  0  0  0999 V2000
   11.5029   -0.0087   26.9878 H   0  0  0  0  0  0  0  0  0  0  0  0
   10.8607    0.2373   26.3024 O   0  0  0  0  0  0  0  0  0  0  0  0
   11.7134    0.4211   25.2768 C   0  0  0  0  0  0  0  0  0  0  0  0
   12.8891    0.2068   25.4365 O   0  0  0  0  0  0  0  0  0  0  0  0
   11.1062    0.9769   24.0196 C   0  0  0  0  0  0  0  0  0  0  0  0
   11.2770    2.0581   24.0891 H   0  0  0  0  0  0  0  0  0  0  0  0
   11.7088    0.6442   23.1680 H   0  0  0  0  0  0  0  0  0  0  0  0
    9.6234    0.6955   23.7963 C   0  0  0  0  0  0  0  0  0  0  0  0
    9.3054    1.2897   22.9339 H   0  0  0  0  0  0  0  0  0  0  0  0
    9.0598    1.0406   24.6731 H   0  0  0  0  0  0  0  0  0  0  0  0
    9.3099   -0.7828   23.5322 C   0  0  0  0  0  0  0  0  0  0  0  0
    9.6884   -1.4024   24.3571 H   0  0  0  0  0  0  0  0  0  0  0  0
    9.8230   -1.1264   22.6239 H   0  0  0  0  0  0  0  0  0  0  0  0
    7.8287   -1.0711   23.3587 C   0  0  0  0  0  0  0  0  0  0  0  0
    7.1798   -0.4138   22.2600 N   0  0  0  0  0  0  0  0  0  0  0  0
    6.6347    0.4078   22.4423 H   0  0  0  0  0  0  0  0  0  0  0  0
    7.3964   -0.7644   20.9699 C   0  0  0  0  0  0  0  0  0  0  0  0
    8.1855   -1.6458   20.6602 O   0  0  0  0  0  0  0  0  0  0  0  0
    6.6250    0.0044   19.9648 C   0  0  0  0  0  0  0  0  0  0  0  0
    7.1757    0.0158   18.6823 C   0  0  0  0  0  0  0  0  0  0  0  0
    8.1138   -0.5063   18.4956 H   0  0  0  0  0  0  0  0  0  0  0  0
    6.6198    0.6460   17.6445 N   0  0  0  0  0  0  0  0  0  0  0  0
    5.4601    1.2845   17.8606 C   0  0  0  0  0  0  0  0  0  0  0  0
    5.0229    1.7847   16.9993 H   0  0  0  0  0  0  0  0  0  0  0  0
    4.8196    1.3237   19.1047 C   0  0  0  0  0  0  0  0  0  0  0  0
    3.8909    1.8715   19.2181 H   0  0  0  0  0  0  0  0  0  0  0  0
    5.4148    0.6816   20.1865 C   0  0  0  0  0  0  0  0  0  0  0  0
    4.9415    0.7053   21.1720 H   0  0  0  0  0  0  0  0  0  0  0  0
    6.9672   -1.2669   24.5642 C   0  0  0  0  0  0  0  0  0  0  0  0
    5.9556   -0.8753   24.5254 H   0  0  0  0  0  0  0  0  0  0  0  0
    7.4490   -1.2122   25.5369 H   0  0  0  0  0  0  0  0  0  0  0  0
    7.2923   -2.4393   23.6833 C   0  0  0  0  0  0  0  0  0  0  0  0
    7.9894   -3.1968   24.0335 H   0  0  0  0  0  0  0  0  0  0  0  0
    6.5019   -2.7967   23.0302 H   0  0  0  0  0  0  0  0  0  0  0  0
  1  2  1  0
  2  3  1  0
  3  4  2  0
  3  5  1  0
  5  6  1  0
  5  7  1  0
  5  8  1  0
  8  9  1  0
  8 10  1  0
  8 11  1  0
 11 12  1  0
 11 13  1  0
 11 14  1  0
 14 15  1  0
 15 16  1  0
 15 17  1  0
 17 18  2  0
 17 19  1  0
 19 20  2  0
 20 21  1  0
 20 22  1  0
 22 23  2  0
 23 24  1  0
 23 25  1  0
 25 26  1  0
 25 27  2  0
 27 28  1  0
 14 29  1  0
 29 30  1  0
 29 31  1  0
 29 32  1  0
 32 33  1  0
 32 34  1  0
 32 14  1  0
 27 19  1  0
M  END
>  <plip>  (1) 
-0.034482758620689655

>  <filename>  (1) 
[H][O][C](=[O])[C]([H])([H])[C]([H])([H])[C]([H])([H])[C]1([N]([H])[C](=[O])[c]2[c]([H])[n][c]([H])[c]([H])[c]2[H])[C]([H])([H])[C]1([H])[H]

$$$$
