
     RDKit          3D

 29 31  0  0  0  0  0  0  0  0999 V2000
    5.0393    1.8464   17.0971 H   0  0  0  0  0  0  0  0  0  0  0  0
    5.5071    1.2438   17.8742 C   0  0  0  0  0  0  0  0  0  0  0  0
    6.6456    0.6124   17.5428 N   0  0  0  0  0  0  0  0  0  0  0  0
    7.2595   -0.1227   18.4801 C   0  0  0  0  0  0  0  0  0  0  0  0
    8.1884   -0.6181   18.1943 H   0  0  0  0  0  0  0  0  0  0  0  0
    6.7583   -0.2670   19.7888 C   0  0  0  0  0  0  0  0  0  0  0  0
    7.4531   -1.0328   20.7914 N   0  0  0  0  0  0  0  0  0  0  0  0
    8.5889   -0.6497   21.5198 C   0  0  0  0  0  0  0  0  0  0  0  0
    9.7332    0.6325   21.0975 S   0  0  0  0  0  0  0  0  0  0  0  0
    9.0829    1.9845   22.0882 C   0  0  0  0  0  0  0  0  0  0  0  0
    9.7159    2.3809   23.2752 C   0  0  0  0  0  0  0  0  0  0  0  0
   10.5825    1.8251   23.6284 H   0  0  0  0  0  0  0  0  0  0  0  0
    9.2094    3.4694   23.9965 C   0  0  0  0  0  0  0  0  0  0  0  0
    9.6858    3.7660   24.9291 H   0  0  0  0  0  0  0  0  0  0  0  0
    8.0895    4.1662   23.5283 C   0  0  0  0  0  0  0  0  0  0  0  0
    7.7267    5.0314   24.0784 H   0  0  0  0  0  0  0  0  0  0  0  0
    7.4524    3.7574   22.3512 C   0  0  0  0  0  0  0  0  0  0  0  0
    6.5800    4.3056   22.0028 H   0  0  0  0  0  0  0  0  0  0  0  0
    7.9482    2.6668   21.6290 C   0  0  0  0  0  0  0  0  0  0  0  0
    7.4820    2.3446   20.6991 H   0  0  0  0  0  0  0  0  0  0  0  0
    8.7713   -1.4143   22.5515 N   0  0  0  0  0  0  0  0  0  0  0  0
    7.7390   -2.2953   22.4882 N   0  0  0  0  0  0  0  0  0  0  0  0
    7.5852   -2.9901   23.1999 H   0  0  0  0  0  0  0  0  0  0  0  0
    6.8998   -2.1277   21.4505 C   0  0  0  0  0  0  0  0  0  0  0  0
    5.5799   -3.0688   21.0803 S   0  0  0  0  0  0  0  0  0  0  0  0
    5.5504    0.3587   20.1164 C   0  0  0  0  0  0  0  0  0  0  0  0
    5.1222    0.2403   21.1158 H   0  0  0  0  0  0  0  0  0  0  0  0
    4.9256    1.1465   19.1446 C   0  0  0  0  0  0  0  0  0  0  0  0
    4.0116    1.6897   19.3622 H   0  0  0  0  0  0  0  0  0  0  0  0
  1  2  1  0
  2  3  2  0
  3  4  1  0
  4  5  1  0
  4  6  2  0
  6  7  1  0
  7  8  1  0
  8  9  1  0
  9 10  1  0
 10 11  2  0
 11 12  1  0
 11 13  1  0
 13 14  1  0
 13 15  2  0
 15 16  1  0
 15 17  1  0
 17 18  1  0
 17 19  2  0
 19 20  1  0
  8 21  2  0
 21 22  1  0
 22 23  1  0
 22 24  1  0
 24 25  2  0
  6 26  1  0
 26 27  1  0
 26 28  2  0
 28 29  1  0
 28  2  1  0
 24  7  1  0
 19 10  1  0
M  END
>  <plip>  (1) 
-0.03571428571428571

>  <filename>  (1) 
[H][c]1[n][c]([H])[c](-[n]2[c]([S][c]3[c]([H])[c]([H])[c]([H])[c]([H])[c]3[H])[n][n]([H])[c]2=[S])[c]([H])[c]1[H]

$$$$
