
     RDKit          3D

 34 37  0  0  0  0  0  0  0  0999 V2000
    6.6154    1.8783   22.1852 H   0  0  0  0  0  0  0  0  0  0  0  0
    6.7853    1.0250   22.8469 C   0  0  0  0  0  0  0  0  0  0  0  0
    6.4678    1.1267   24.1708 C   0  0  0  0  0  0  0  0  0  0  0  0
    6.2837    2.6314   25.0628 S   0  0  0  0  0  0  0  0  0  0  0  0
    5.7391    1.7945   26.5188 C   0  0  0  0  0  0  0  0  0  0  0  0
    5.3468    2.4848   27.9420 S   0  0  0  0  0  0  0  0  0  0  0  0
    5.6807    0.4626   26.2565 N   0  0  0  0  0  0  0  0  0  0  0  0
    5.4274   -0.2096   26.9596 H   0  0  0  0  0  0  0  0  0  0  0  0
    6.1033   -0.0138   25.0291 C   0  0  0  0  0  0  0  0  0  0  0  0
    6.1469   -1.1943   24.7797 O   0  0  0  0  0  0  0  0  0  0  0  0
    7.4018   -0.1367   22.2793 C   0  0  0  0  0  0  0  0  0  0  0  0
    7.3812   -0.5779   20.9050 C   0  0  0  0  0  0  0  0  0  0  0  0
    6.6207    0.0355   19.8275 C   0  0  0  0  0  0  0  0  0  0  0  0
    7.1163    0.0265   18.5085 C   0  0  0  0  0  0  0  0  0  0  0  0
    8.0367   -0.5052   18.2728 H   0  0  0  0  0  0  0  0  0  0  0  0
    6.5301    0.6618   17.4899 N   0  0  0  0  0  0  0  0  0  0  0  0
    5.3890    1.3196   17.7464 C   0  0  0  0  0  0  0  0  0  0  0  0
    4.9459    1.8616   16.9147 H   0  0  0  0  0  0  0  0  0  0  0  0
    4.7723    1.3335   19.0021 C   0  0  0  0  0  0  0  0  0  0  0  0
    3.8452    1.8707   19.1504 H   0  0  0  0  0  0  0  0  0  0  0  0
    5.3968    0.6838   20.0619 C   0  0  0  0  0  0  0  0  0  0  0  0
    4.9545    0.6893   21.0594 H   0  0  0  0  0  0  0  0  0  0  0  0
    8.1777   -1.6233   20.7098 N   0  0  0  0  0  0  0  0  0  0  0  0
    8.6862   -1.8484   21.9216 N   0  0  0  0  0  0  0  0  0  0  0  0
    8.2957   -1.0171   22.8831 C   0  0  0  0  0  0  0  0  0  0  0  0
    9.1078   -1.2392   24.1306 C   0  0  0  0  0  0  0  0  0  0  0  0
    9.5493   -0.3024   24.4825 H   0  0  0  0  0  0  0  0  0  0  0  0
    8.4896   -1.6429   24.9367 H   0  0  0  0  0  0  0  0  0  0  0  0
   10.1852   -2.2487   23.6423 C   0  0  0  0  0  0  0  0  0  0  0  0
   11.1091   -1.7155   23.4103 H   0  0  0  0  0  0  0  0  0  0  0  0
   10.4133   -3.0145   24.3848 H   0  0  0  0  0  0  0  0  0  0  0  0
    9.6508   -2.8372   22.3099 C   0  0  0  0  0  0  0  0  0  0  0  0
    9.1696   -3.8191   22.3942 H   0  0  0  0  0  0  0  0  0  0  0  0
   10.4232   -2.8717   21.5480 H   0  0  0  0  0  0  0  0  0  0  0  0
  1  2  1  0
  2  3  2  3
  3  4  1  0
  4  5  1  0
  5  6  2  0
  5  7  1  0
  7  8  1  0
  7  9  1  0
  9 10  2  0
  2 11  1  0
 11 12  1  0
 12 13  1  0
 13 14  2  0
 14 15  1  0
 14 16  1  0
 16 17  2  0
 17 18  1  0
 17 19  1  0
 19 20  1  0
 19 21  2  0
 21 22  1  0
 12 23  2  0
 23 24  1  0
 24 25  1  0
 25 26  1  0
 26 27  1  0
 26 28  1  0
 26 29  1  0
 29 30  1  0
 29 31  1  0
 29 32  1  0
 32 33  1  0
 32 34  1  0
  9  3  1  0
 25 11  2  0
 21 13  1  0
 32 24  1  0
M  END
>  <plip>  (1) 
-0.07142857142857142

>  <filename>  (1) 
[H][C](=[C]1[S][C](=[S])[N]([H])[C]1=[O])[c]1[c](-[c]2[c]([H])[n][c]([H])[c]([H])[c]2[H])[n][n]2[c]1[C]([H])([H])[C]([H])([H])[C]2([H])[H]

$$$$
