
     RDKit          3D

 43 45  0  0  0  0  0  0  0  0999 V2000
    8.0983   -3.4099   22.5558 C   0  0  0  0  0  0  0  0  0  0  0  0
    8.8602   -2.5310   21.9103 C   0  0  0  0  0  0  0  0  0  0  0  0
    8.3059   -1.6996   20.7789 C   0  0  0  0  0  0  0  0  0  0  0  0
    7.3479   -0.5581   21.1727 C   0  0  1  0  0  0  0  0  0  0  0  0
    7.9837    0.4928   21.9579 N   0  0  0  0  0  0  0  0  0  0  0  0
    9.0223    1.2270   21.4942 C   0  0  0  0  0  0  0  0  0  0  0  0
    9.5740    0.9929   20.4304 O   0  0  0  0  0  0  0  0  0  0  0  0
    9.4789    2.3391   22.3660 C   0  0  0  0  0  0  0  0  0  0  0  0
   10.7291    2.8807   22.1405 C   0  0  0  0  0  0  0  0  0  0  0  0
   11.1634    3.9558   22.9527 C   0  0  0  0  0  0  0  0  0  0  0  0
   12.4324    4.5847   22.8062 C   0  0  0  0  0  0  0  0  0  0  0  0
   12.7843    5.6194   23.6359 C   0  0  0  0  0  0  0  0  0  0  0  0
   11.9048    6.0994   24.6601 C   0  0  0  0  0  0  0  0  0  0  0  0
   12.3589    7.2319   25.5538 C   0  0  0  0  0  0  0  0  0  0  0  0
   13.4454    7.2141   25.6845 H   0  0  0  0  0  0  0  0  0  0  0  0
   11.9058    7.1736   26.5494 H   0  0  0  0  0  0  0  0  0  0  0  0
   12.1020    8.2120   25.1356 H   0  0  0  0  0  0  0  0  0  0  0  0
   10.6661    5.5046   24.7994 C   0  0  0  0  0  0  0  0  0  0  0  0
   10.2641    4.4349   23.9577 C   0  0  0  0  0  0  0  0  0  0  0  0
    9.0120    3.9079   24.1467 N   0  0  0  0  0  0  0  0  0  0  0  0
    8.6515    2.9152   23.3703 C   0  0  0  0  0  0  0  0  0  0  0  0
    7.6329    2.5551   23.5182 H   0  0  0  0  0  0  0  0  0  0  0  0
    9.9363    5.8067   25.5424 H   0  0  0  0  0  0  0  0  0  0  0  0
   13.7576    6.0903   23.5187 H   0  0  0  0  0  0  0  0  0  0  0  0
   13.1083    4.2292   22.0262 H   0  0  0  0  0  0  0  0  0  0  0  0
   11.3529    2.5010   21.3259 H   0  0  0  0  0  0  0  0  0  0  0  0
    7.8448    0.5277   22.9489 H   0  0  0  0  0  0  0  0  0  0  0  0
    6.6447    0.0496   19.9587 C   0  0  0  0  0  0  0  0  0  0  0  0
    5.4180    0.6934   20.1559 C   0  0  0  0  0  0  0  0  0  0  0  0
    4.7869    1.3167   19.0790 C   0  0  0  0  0  0  0  0  0  0  0  0
    5.4100    1.2763   17.8276 C   0  0  0  0  0  0  0  0  0  0  0  0
    6.5750    0.6551   17.6054 N   0  0  0  0  0  0  0  0  0  0  0  0
    7.1761    0.0735   18.6574 C   0  0  0  0  0  0  0  0  0  0  0  0
    8.1294   -0.4009   18.4194 H   0  0  0  0  0  0  0  0  0  0  0  0
    4.9574    1.7783   16.9745 H   0  0  0  0  0  0  0  0  0  0  0  0
    3.8476    1.8451   19.2060 H   0  0  0  0  0  0  0  0  0  0  0  0
    4.9757    0.7047   21.1533 H   0  0  0  0  0  0  0  0  0  0  0  0
    6.5671   -0.9767   21.8318 H   0  0  0  0  0  0  0  0  0  0  0  0
    9.1047   -1.3061   20.1507 H   0  0  0  0  0  0  0  0  0  0  0  0
    7.6713   -2.3370   20.1688 H   0  0  0  0  0  0  0  0  0  0  0  0
    9.9001   -2.3748   22.2060 H   0  0  0  0  0  0  0  0  0  0  0  0
    7.0635   -3.5548   22.2485 H   0  0  0  0  0  0  0  0  0  0  0  0
    8.4670   -4.0083   23.3826 H   0  0  0  0  0  0  0  0  0  0  0  0
  1  2  2  3
  2  3  1  0
  3  4  1  0
  4  5  1  0
  5  6  1  0
  6  7  2  0
  6  8  1  0
  8  9  2  0
  9 10  1  0
 10 11  2  0
 11 12  1  0
 12 13  2  0
 13 14  1  0
 14 15  1  0
 14 16  1  0
 14 17  1  0
 13 18  1  0
 18 19  2  0
 19 20  1  0
 20 21  2  0
 21 22  1  0
 18 23  1  0
 12 24  1  0
 11 25  1  0
  9 26  1  0
  5 27  1  0
  4 28  1  0
 28 29  2  0
 29 30  1  0
 30 31  2  0
 31 32  1  0
 32 33  2  0
 33 34  1  0
 31 35  1  0
 30 36  1  0
 29 37  1  0
  4 38  1  1
  3 39  1  0
  3 40  1  0
  2 41  1  0
  1 42  1  0
  1 43  1  0
 21  8  1  0
 33 28  1  0
 19 10  1  0
M  END
>  <plip>  (1) 
-0.10714285714285714

>  <filename>  (1) 
[H][C]([H])=[C]([H])[C]([H])([H])[C@]([H])([c]1[c]([H])[n][c]([H])[c]([H])[c]1[H])[N]([H])[C](=[O])[c]1[c]([H])[n][c]2[c]([H])[c]([C]([H])([H])[H])[c]([H])[c]([H])[c]2[c]1[H]

$$$$
