
     RDKit          3D

 47 49  0  0  0  0  0  0  0  0999 V2000
    8.2409   -1.2378   23.2381 C   0  0  0  0  0  0  0  0  0  0  0  0
    7.6103   -0.2896   22.2189 C   0  0  0  0  0  0  0  0  0  0  0  0
    7.3746   -0.7066   20.9671 C   0  0  0  0  0  0  0  0  0  0  0  0
    6.6317    0.0123   19.9003 C   0  0  0  0  0  0  0  0  0  0  0  0
    5.4171    0.6679   20.1357 C   0  0  0  0  0  0  0  0  0  0  0  0
    4.7826    1.3188   19.0756 C   0  0  0  0  0  0  0  0  0  0  0  0
    5.3897    1.3007   17.8163 C   0  0  0  0  0  0  0  0  0  0  0  0
    6.5502    0.6719   17.5618 N   0  0  0  0  0  0  0  0  0  0  0  0
    7.1457    0.0534   18.5868 C   0  0  0  0  0  0  0  0  0  0  0  0
    8.0963   -0.4304   18.3583 H   0  0  0  0  0  0  0  0  0  0  0  0
    4.9321    1.8116   16.9712 H   0  0  0  0  0  0  0  0  0  0  0  0
    3.8534    1.8585   19.2183 H   0  0  0  0  0  0  0  0  0  0  0  0
    4.9930    0.6670   21.1402 H   0  0  0  0  0  0  0  0  0  0  0  0
    7.7821   -1.6813   20.6656 H   0  0  0  0  0  0  0  0  0  0  0  0
    7.3583    1.1680   22.5679 C   0  0  0  0  0  0  0  0  0  0  0  0
    7.5530    2.0984   21.7988 O   0  0  0  0  0  0  0  0  0  0  0  0
    6.8824    1.3757   23.8297 N   0  0  0  0  0  0  0  0  0  0  0  0
    6.7123    2.7233   24.3823 C   0  0  0  0  0  0  0  0  0  0  0  0
    8.0587    3.4609   24.6887 C   0  0  0  0  0  0  0  0  0  0  0  0
    8.8351    2.7286   25.7807 C   0  0  0  0  0  0  0  0  0  0  0  0
    9.1131    1.7231   25.4523 H   0  0  0  0  0  0  0  0  0  0  0  0
    9.7317    3.2994   25.9778 H   0  0  0  0  0  0  0  0  0  0  0  0
    8.2681    2.6388   26.7153 H   0  0  0  0  0  0  0  0  0  0  0  0
    7.9046    4.8751   25.0261 N   0  0  0  0  0  0  0  0  0  0  0  0
    7.5650    5.3304   26.3768 C   0  0  0  0  0  0  0  0  0  0  0  0
    7.1775    6.8213   26.2173 C   0  0  0  0  0  0  0  0  0  0  0  0
    7.2232    7.0411   24.7219 C   0  0  0  0  0  0  0  0  0  0  0  0
    6.9111    8.1694   23.9671 C   0  0  0  0  0  0  0  0  0  0  0  0
    7.0136    8.1169   22.5693 C   0  0  0  0  0  0  0  0  0  0  0  0
    7.4365    6.9414   21.9332 C   0  0  0  0  0  0  0  0  0  0  0  0
    7.7474    5.7940   22.6797 C   0  0  0  0  0  0  0  0  0  0  0  0
    7.6415    5.8617   24.0830 C   0  0  0  0  0  0  0  0  0  0  0  0
    8.0337    4.8646   22.1869 H   0  0  0  0  0  0  0  0  0  0  0  0
    7.5201    6.9244   20.8461 H   0  0  0  0  0  0  0  0  0  0  0  0
    6.7776    9.0006   21.9800 H   0  0  0  0  0  0  0  0  0  0  0  0
    6.5952    9.0852   24.4614 H   0  0  0  0  0  0  0  0  0  0  0  0
    7.8737    7.4872   26.7438 H   0  0  0  0  0  0  0  0  0  0  0  0
    6.1809    7.0232   26.6308 H   0  0  0  0  0  0  0  0  0  0  0  0
    8.4110    5.1934   27.0678 H   0  0  0  0  0  0  0  0  0  0  0  0
    6.7260    4.7426   26.7822 H   0  0  0  0  0  0  0  0  0  0  0  0
    8.6575    3.4358   23.7679 H   0  0  0  0  0  0  0  0  0  0  0  0
    6.1624    3.3403   23.6607 H   0  0  0  0  0  0  0  0  0  0  0  0
    6.1249    2.6611   25.3099 H   0  0  0  0  0  0  0  0  0  0  0  0
    6.7289    0.5447   24.3750 H   0  0  0  0  0  0  0  0  0  0  0  0
    7.5133   -1.8595   23.7763 H   0  0  0  0  0  0  0  0  0  0  0  0
    8.9313   -1.9383   22.7504 H   0  0  0  0  0  0  0  0  0  0  0  0
    8.8279   -0.7032   23.9894 H   0  0  0  0  0  0  0  0  0  0  0  0
  1  2  1  0
  2  3  2  3
  3  4  1  0
  4  5  2  0
  5  6  1  0
  6  7  2  0
  7  8  1  0
  8  9  2  0
  9 10  1  0
  7 11  1  0
  6 12  1  0
  5 13  1  0
  3 14  1  0
  2 15  1  0
 15 16  2  0
 15 17  1  0
 17 18  1  0
 18 19  1  0
 19 20  1  0
 20 21  1  0
 20 22  1  0
 20 23  1  0
 19 24  1  0
 24 25  1  0
 25 26  1  0
 26 27  1  0
 27 28  2  0
 28 29  1  0
 29 30  2  0
 30 31  1  0
 31 32  2  0
 31 33  1  0
 30 34  1  0
 29 35  1  0
 28 36  1  0
 26 37  1  0
 26 38  1  0
 25 39  1  0
 25 40  1  0
 19 41  1  0
 18 42  1  0
 18 43  1  0
 17 44  1  0
  1 45  1  0
  1 46  1  0
  1 47  1  0
  9  4  1  0
 32 24  1  0
 32 27  1  0
M  END
>  <plip>  (1) 
-0.10714285714285714

>  <filename>  (1) 
[H][C](=[C]([C](=[O])[N]([H])[C]([H])([H])[C]([H])([N]1[c]2[c]([H])[c]([H])[c]([H])[c]([H])[c]2[C]([H])([H])[C]1([H])[H])[C]([H])([H])[H])[C]([H])([H])[H])[c]1[c]([H])[n][c]([H])[c]([H])[c]1[H]

$$$$
