
     RDKit          3D

 47 50  0  0  0  0  0  0  0  0999 V2000
    9.7289    1.6594   22.8767 C   0  0  0  0  0  0  0  0  0  0  0  0
    9.1934    0.7201   21.9262 O   0  0  0  0  0  0  0  0  0  0  0  0
    7.9126    0.3694   22.0990 C   0  0  0  0  0  0  0  0  0  0  0  0
    7.2002    0.7492   23.0029 O   0  0  0  0  0  0  0  0  0  0  0  0
    7.4681   -0.6326   20.9982 C   0  0  0  0  0  0  0  0  0  0  0  0
    6.5848   -1.7642   21.5854 N   0  0  0  0  0  4  0  0  0  0  0  0
    7.3193   -2.7256   22.4284 C   0  0  2  0  0  0  0  0  0  0  0  0
    7.7712   -4.0120   21.8103 C   0  0  0  0  0  0  0  0  0  0  0  0
    6.6939   -4.0223   22.8888 C   0  0  2  0  0  0  0  0  0  0  0  0
    5.2424   -4.2712   22.4485 C   0  0  0  0  0  0  0  0  0  0  0  0
    4.6846   -5.5899   22.9821 C   0  0  0  0  0  0  0  0  0  0  0  0
    4.7624   -5.5878   24.5161 C   0  0  0  0  0  0  0  0  0  0  0  0
    6.1705   -5.2962   25.0266 C   0  0  0  0  0  0  0  0  0  0  0  0
    6.5650   -5.7983   26.2747 C   0  0  0  0  0  0  0  0  0  0  0  0
    7.8407   -5.5734   26.7906 C   0  0  0  0  0  0  0  0  0  0  0  0
    8.7551   -4.8236   26.0416 C   0  0  0  0  0  0  0  0  0  0  0  0
    8.3820   -4.3116   24.7990 C   0  0  0  0  0  0  0  0  0  0  0  0
    7.0825   -4.5276   24.2648 C   0  0  0  0  0  0  0  0  0  0  0  0
    9.1239   -3.7647   24.2245 H   0  0  0  0  0  0  0  0  0  0  0  0
    9.7609   -4.6458   26.4215 H   0  0  0  0  0  0  0  0  0  0  0  0
    8.1199   -5.9868   27.7587 H   0  0  0  0  0  0  0  0  0  0  0  0
    5.8463   -6.3920   26.8377 H   0  0  0  0  0  0  0  0  0  0  0  0
    4.0815   -4.8173   24.9164 H   0  0  0  0  0  0  0  0  0  0  0  0
    4.4141   -6.5453   24.9243 H   0  0  0  0  0  0  0  0  0  0  0  0
    5.2763   -6.4253   22.5773 H   0  0  0  0  0  0  0  0  0  0  0  0
    3.6520   -5.7375   22.6404 H   0  0  0  0  0  0  0  0  0  0  0  0
    4.6314   -3.4329   22.8260 H   0  0  0  0  0  0  0  0  0  0  0  0
    5.1793   -4.2411   21.3525 H   0  0  0  0  0  0  0  0  0  0  0  0
    8.7564   -4.3949   22.0550 H   0  0  0  0  0  0  0  0  0  0  0  0
    7.4591   -4.1887   20.7805 H   0  0  0  0  0  0  0  0  0  0  0  0
    7.9792   -2.2470   23.1480 H   0  0  0  0  0  0  0  0  0  0  0  0
    6.1341   -2.2394   20.7582 H   0  0  0  0  0  0  0  0  0  0  0  0
    5.8308   -1.2847   22.1627 H   0  0  0  0  0  0  0  0  0  0  0  0
    6.6474   -0.0090   19.8910 C   0  0  0  0  0  0  0  0  0  0  0  0
    5.4282    0.6398   20.1395 C   0  0  0  0  0  0  0  0  0  0  0  0
    4.7924    1.2980   19.0873 C   0  0  0  0  0  0  0  0  0  0  0  0
    5.3875    1.2857   17.8224 C   0  0  0  0  0  0  0  0  0  0  0  0
    6.5377    0.6496   17.5603 N   0  0  0  0  0  0  0  0  0  0  0  0
    7.1444    0.0276   18.5786 C   0  0  0  0  0  0  0  0  0  0  0  0
    8.1033   -0.4379   18.3459 H   0  0  0  0  0  0  0  0  0  0  0  0
    4.9291    1.8105   16.9841 H   0  0  0  0  0  0  0  0  0  0  0  0
    3.8721    1.8484   19.2381 H   0  0  0  0  0  0  0  0  0  0  0  0
    5.0093    0.6655   21.1469 H   0  0  0  0  0  0  0  0  0  0  0  0
    8.3904   -1.0682   20.6222 H   0  0  0  0  0  0  0  0  0  0  0  0
   10.7666    1.7978   22.5695 H   0  0  0  0  0  0  0  0  0  0  0  0
    9.6598    1.2589   23.8957 H   0  0  0  0  0  0  0  0  0  0  0  0
    9.1658    2.5992   22.8341 H   0  0  0  0  0  0  0  0  0  0  0  0
  1  2  1  0
  2  3  1  0
  3  4  2  0
  3  5  1  0
  5  6  1  0
  6  7  1  0
  7  8  1  0
  9  8  1  6
  9 10  1  0
 10 11  1  0
 11 12  1  0
 12 13  1  0
 13 14  2  0
 14 15  1  0
 15 16  2  0
 16 17  1  0
 17 18  2  0
 17 19  1  0
 16 20  1  0
 15 21  1  0
 14 22  1  0
 12 23  1  0
 12 24  1  0
 11 25  1  0
 11 26  1  0
 10 27  1  0
 10 28  1  0
  8 29  1  0
  8 30  1  0
  7 31  1  1
  6 32  1  0
  6 33  1  0
  5 34  1  0
 34 35  2  0
 35 36  1  0
 36 37  2  0
 37 38  1  0
 38 39  2  0
 39 40  1  0
 37 41  1  0
 36 42  1  0
 35 43  1  0
  5 44  1  0
  1 45  1  0
  1 46  1  0
  1 47  1  0
  9  7  1  0
 18 13  1  0
 39 34  1  0
 18  9  1  0
M  CHG  1   6   1
M  END
>  <plip>  (1) 
-0.06896551724137931

>  <filename>  (1) 
[H][c]1[n][c]([H])[c]([C]([H])([C](=[O])[O][C]([H])([H])[H])[N+]([H])([H])[C@]2([H])[C]([H])([H])[C@@]23[c]2[c]([H])[c]([H])[c]([H])[c]([H])[c]2[C]([H])([H])[C]([H])([H])[C]3([H])[H])[c]([H])[c]1[H]

$$$$
