
     RDKit          3D

 32 34  0  0  0  0  0  0  0  0999 V2000
    9.9549    0.0664   20.4759 O   0  0  0  0  0  0  0  0  0  0  0  0
    9.4237    0.6906   21.3743 C   0  0  0  0  0  0  0  0  0  0  0  0
   10.0420    1.9084   22.0496 C   0  0  0  0  0  0  0  0  0  0  0  0
    9.5965    2.0171   23.5190 C   0  0  0  0  0  0  0  0  0  0  0  0
    8.1004    1.7669   23.6608 C   0  0  0  0  0  0  0  0  0  0  0  0
    7.4710    0.9511   22.8656 N   0  0  0  0  0  0  0  0  0  0  0  0
    8.1685    0.3317   21.8531 N   0  0  0  0  0  0  0  0  0  0  0  0
    7.4094   -0.6395   21.0394 C   0  0  0  0  0  0  0  0  0  0  0  0
    6.6630    0.0227   19.9047 C   0  0  0  0  0  0  0  0  0  0  0  0
    5.4390    0.6540   20.1490 C   0  0  0  0  0  0  0  0  0  0  0  0
    4.8007    1.3069   19.0952 C   0  0  0  0  0  0  0  0  0  0  0  0
    5.3986    1.2910   17.8326 C   0  0  0  0  0  0  0  0  0  0  0  0
    6.5622    0.6775   17.5737 N   0  0  0  0  0  0  0  0  0  0  0  0
    7.1753    0.0699   18.5998 C   0  0  0  0  0  0  0  0  0  0  0  0
    8.1276   -0.4120   18.3705 H   0  0  0  0  0  0  0  0  0  0  0  0
    4.9231    1.7897   16.9880 H   0  0  0  0  0  0  0  0  0  0  0  0
    3.8719    1.8424   19.2435 H   0  0  0  0  0  0  0  0  0  0  0  0
    5.0179    0.6402   21.1564 H   0  0  0  0  0  0  0  0  0  0  0  0
    6.7236   -1.1319   21.7331 H   0  0  0  0  0  0  0  0  0  0  0  0
    8.1210   -1.3807   20.6581 H   0  0  0  0  0  0  0  0  0  0  0  0
    7.3124    2.3847   24.7372 C   0  0  0  0  0  0  0  0  0  0  0  0
    5.9630    2.2815   24.9396 C   0  0  0  0  0  0  0  0  0  0  0  0
    5.5193    2.9813   26.0924 C   0  0  0  0  0  0  0  0  0  0  0  0
    6.5352    3.6072   26.7452 C   0  0  0  0  0  0  0  0  0  0  0  0
    8.0467    3.3595   25.9723 S   0  0  0  0  0  0  0  0  0  0  0  0
    6.4831    4.2024   27.6459 H   0  0  0  0  0  0  0  0  0  0  0  0
    4.4864    3.0094   26.4229 H   0  0  0  0  0  0  0  0  0  0  0  0
    5.3284    1.7085   24.2744 H   0  0  0  0  0  0  0  0  0  0  0  0
   10.1164    1.2626   24.1302 H   0  0  0  0  0  0  0  0  0  0  0  0
    9.8722    2.9859   23.9484 H   0  0  0  0  0  0  0  0  0  0  0  0
   11.1270    1.8231   21.9516 H   0  0  0  0  0  0  0  0  0  0  0  0
    9.7591    2.8055   21.4772 H   0  0  0  0  0  0  0  0  0  0  0  0
  1  2  2  0
  2  3  1  0
  3  4  1  0
  4  5  1  0
  5  6  2  0
  6  7  1  0
  7  8  1  0
  8  9  1  0
  9 10  2  0
 10 11  1  0
 11 12  2  0
 12 13  1  0
 13 14  2  0
 14 15  1  0
 12 16  1  0
 11 17  1  0
 10 18  1  0
  8 19  1  0
  8 20  1  0
  5 21  1  0
 21 22  2  0
 22 23  1  0
 23 24  2  0
 24 25  1  0
 24 26  1  0
 23 27  1  0
 22 28  1  0
  4 29  1  0
  4 30  1  0
  3 31  1  0
  3 32  1  0
  7  2  1  0
 14  9  1  0
 25 21  1  0
M  END
>  <plip>  (1) 
-0.03571428571428571

>  <filename>  (1) 
[H][c]1[n][c]([H])[c]([C]([H])([H])[N]2[N]=[C]([c]3[s][c]([H])[c]([H])[c]3[H])[C]([H])([H])[C]([H])([H])[C]2=[O])[c]([H])[c]1[H]

$$$$
