
     RDKit          3D

 32 34  0  0  0  0  0  0  0  0999 V2000
    7.7827    0.1588   22.1512 C   0  0  0  0  0  0  0  0  0  0  0  0
    7.3875   -0.8089   21.0312 C   0  0  1  0  0  0  0  0  0  0  0  0
    6.6705   -1.9856   21.4648 N   0  0  0  0  0  0  0  0  0  0  0  0
    7.2121   -2.9085   22.2666 C   0  0  0  0  0  0  0  0  0  0  0  0
    8.5067   -2.8636   22.4921 N   0  0  0  0  0  0  0  0  0  0  0  0
    8.9514   -3.8141   23.3239 C   0  0  0  0  0  0  0  0  0  0  0  0
    8.1536   -4.8265   23.8246 C   0  0  0  0  0  0  0  0  0  0  0  0
    9.0124   -5.8929   24.8771 S   0  0  0  0  0  0  0  0  0  0  0  0
   10.4521   -4.9519   24.6746 C   0  0  0  0  0  0  0  0  0  0  0  0
   10.2822   -3.8847   23.8529 C   0  0  0  0  0  0  0  0  0  0  0  0
   11.0548   -3.1830   23.5595 H   0  0  0  0  0  0  0  0  0  0  0  0
   11.3579   -5.2827   25.1713 H   0  0  0  0  0  0  0  0  0  0  0  0
    6.8207   -4.7603   23.4051 C   0  0  0  0  0  0  0  0  0  0  0  0
    5.9179   -5.7107   23.6725 N   0  0  0  0  0  0  0  0  0  0  0  0
    6.0909   -6.2596   24.4932 H   0  0  0  0  0  0  0  0  0  0  0  0
    5.0190   -5.2730   23.5388 H   0  0  0  0  0  0  0  0  0  0  0  0
    6.3104   -3.7822   22.7040 N   0  0  0  0  0  0  0  0  0  0  0  0
    5.6849   -1.9784   21.6463 H   0  0  0  0  0  0  0  0  0  0  0  0
    6.5909   -0.1198   19.9551 C   0  0  0  0  0  0  0  0  0  0  0  0
    5.3826    0.5552   20.1822 C   0  0  0  0  0  0  0  0  0  0  0  0
    4.8050    1.2506   19.1187 C   0  0  0  0  0  0  0  0  0  0  0  0
    5.4435    1.2394   17.8741 C   0  0  0  0  0  0  0  0  0  0  0  0
    6.5805    0.5716   17.6313 N   0  0  0  0  0  0  0  0  0  0  0  0
    7.1203   -0.0880   18.6625 C   0  0  0  0  0  0  0  0  0  0  0  0
    8.0599   -0.6056   18.4609 H   0  0  0  0  0  0  0  0  0  0  0  0
    5.0237    1.7762   17.0266 H   0  0  0  0  0  0  0  0  0  0  0  0
    3.8857    1.8121   19.2428 H   0  0  0  0  0  0  0  0  0  0  0  0
    4.9104    0.5590   21.1698 H   0  0  0  0  0  0  0  0  0  0  0  0
    8.3258   -1.1689   20.5834 H   0  0  0  0  0  0  0  0  0  0  0  0
    8.4361   -0.3459   22.8685 H   0  0  0  0  0  0  0  0  0  0  0  0
    6.9047    0.5499   22.6766 H   0  0  0  0  0  0  0  0  0  0  0  0
    8.3194    1.0034   21.7069 H   0  0  0  0  0  0  0  0  0  0  0  0
  1  2  1  0
  2  3  1  0
  3  4  1  0
  4  5  2  0
  5  6  1  0
  6  7  2  0
  7  8  1  0
  8  9  1  0
  9 10  2  0
 10 11  1  0
  9 12  1  0
  7 13  1  0
 13 14  1  0
 14 15  1  0
 14 16  1  0
 13 17  2  0
  3 18  1  0
  2 19  1  0
 19 20  2  0
 20 21  1  0
 21 22  2  0
 22 23  1  0
 23 24  2  0
 24 25  1  0
 22 26  1  0
 21 27  1  0
 20 28  1  0
  2 29  1  6
  1 30  1  0
  1 31  1  0
  1 32  1  0
 17  4  1  0
 24 19  1  0
 10  6  1  0
M  END
>  <plip>  (1) 
-0.06896551724137931

>  <filename>  (1) 
[H][c]1[n][c]([H])[c]([C@]([H])([N]([H])[c]2[n][c]([N]([H])[H])[c]3[s][c]([H])[c]([H])[c]3[n]2)[C]([H])([H])[H])[c]([H])[c]1[H]

$$$$
