
     RDKit          3D

 30 31  0  0  0  0  0  0  0  0999 V2000
    6.4730   -1.2056   21.7375 H   0  0  0  0  0  0  0  0  0  0  0  0
    7.1686   -0.6695   21.0794 C   0  0  0  0  0  0  0  0  0  0  0  0
    8.4602   -0.5734   21.4364 C   0  0  0  0  0  0  0  0  0  0  0  0
    9.0719   -1.5023   22.4457 C   0  0  0  0  0  0  0  0  0  0  0  0
    8.2981   -1.9560   23.4489 N   0  0  0  0  0  0  0  0  0  0  0  0
    8.8052   -2.8426   24.3146 C   0  0  0  0  0  0  0  0  0  0  0  0
    7.8457   -3.3037   25.3828 C   0  0  0  0  0  0  0  0  0  0  0  0
    7.8061   -4.3960   25.4552 H   0  0  0  0  0  0  0  0  0  0  0  0
    6.8472   -2.9329   25.1325 H   0  0  0  0  0  0  0  0  0  0  0  0
    8.1331   -2.9113   26.3641 H   0  0  0  0  0  0  0  0  0  0  0  0
   10.1234   -3.3283   24.2138 C   0  0  0  0  0  0  0  0  0  0  0  0
   10.4783   -4.0922   24.8986 H   0  0  0  0  0  0  0  0  0  0  0  0
   10.9359   -2.8585   23.1835 C   0  0  0  0  0  0  0  0  0  0  0  0
   11.9561   -3.2238   23.0502 H   0  0  0  0  0  0  0  0  0  0  0  0
   10.4016   -1.9342   22.2883 C   0  0  0  0  0  0  0  0  0  0  0  0
   10.9684   -1.5791   21.4412 H   0  0  0  0  0  0  0  0  0  0  0  0
    9.3581    0.4524   20.7697 C   0  0  0  0  0  0  0  0  0  0  0  0
    8.7933    1.3636   20.5550 H   0  0  0  0  0  0  0  0  0  0  0  0
   10.2291    0.7191   21.3761 H   0  0  0  0  0  0  0  0  0  0  0  0
    9.7058    0.0630   19.8048 H   0  0  0  0  0  0  0  0  0  0  0  0
    6.5307   -0.0218   19.9072 C   0  0  0  0  0  0  0  0  0  0  0  0
    7.0941    0.0288   18.6078 C   0  0  0  0  0  0  0  0  0  0  0  0
    8.0271   -0.4898   18.4013 H   0  0  0  0  0  0  0  0  0  0  0  0
    6.5519    0.6741   17.5651 N   0  0  0  0  0  0  0  0  0  0  0  0
    5.4016    1.3263   17.7778 C   0  0  0  0  0  0  0  0  0  0  0  0
    5.0051    1.8887   16.9340 H   0  0  0  0  0  0  0  0  0  0  0  0
    4.7292    1.3172   19.0064 C   0  0  0  0  0  0  0  0  0  0  0  0
    3.8020    1.8711   19.1149 H   0  0  0  0  0  0  0  0  0  0  0  0
    5.2898    0.6206   20.0781 C   0  0  0  0  0  0  0  0  0  0  0  0
    4.8027    0.5996   21.0528 H   0  0  0  0  0  0  0  0  0  0  0  0
  1  2  1  0
  2  3  2  3
  3  4  1  0
  4  5  2  0
  5  6  1  0
  6  7  1  0
  7  8  1  0
  7  9  1  0
  7 10  1  0
  6 11  2  0
 11 12  1  0
 11 13  1  0
 13 14  1  0
 13 15  2  0
 15 16  1  0
  3 17  1  0
 17 18  1  0
 17 19  1  0
 17 20  1  0
  2 21  1  0
 21 22  2  0
 22 23  1  0
 22 24  1  0
 24 25  2  0
 25 26  1  0
 25 27  1  0
 27 28  1  0
 27 29  2  0
 29 30  1  0
 15  4  1  0
 29 21  1  0
M  END
>  <plip>  (1) 
-0.07142857142857142

>  <filename>  (1) 
[H][C](=[C]([c]1[n][c]([C]([H])([H])[H])[c]([H])[c]([H])[c]1[H])[C]([H])([H])[H])[c]1[c]([H])[n][c]([H])[c]([H])[c]1[H]

$$$$
