
     RDKit          3D

 29 31  0  0  0  0  0  0  0  0999 V2000
    4.8069    1.3102   19.1071 C   0  0  0  0  0  0  0  0  0  0  0  0
    5.4034    1.2912   17.8417 C   0  0  0  0  0  0  0  0  0  0  0  0
    6.5679    0.6754   17.5831 N   0  0  0  0  0  0  0  0  0  0  0  0
    7.1769    0.0696   18.6113 C   0  0  0  0  0  0  0  0  0  0  0  0
    6.6699    0.0173   19.9167 C   0  0  0  0  0  0  0  0  0  0  0  0
    7.4274   -0.6843   21.0150 C   0  0  0  0  0  0  0  0  0  0  0  0
    8.3091    0.2744   21.6120 O   0  0  0  0  0  0  0  0  0  0  0  0
    9.1118   -0.0481   22.6504 C   0  0  0  0  0  0  0  0  0  0  0  0
    9.1912   -1.2912   23.2289 C   0  0  0  0  0  0  0  0  0  0  0  0
   10.0897   -1.4598   24.3040 C   0  0  0  0  0  0  0  0  0  0  0  0
   10.8639   -0.5311   24.8077 N   0  0  0  0  0  0  0  0  0  0  0  0
   10.7936    0.7023   24.2433 C   0  0  0  0  0  0  0  0  0  0  0  0
   11.6203    1.6319   24.8012 N   0  0  0  0  0  0  0  0  0  0  0  0
   11.5850    2.8386   24.2911 C   0  0  0  0  0  0  0  0  0  0  0  0
   10.7652    3.2507   23.2102 C   0  0  0  0  0  0  0  0  0  0  0  0
    9.9302    2.3340   22.6350 C   0  0  0  0  0  0  0  0  0  0  0  0
    9.9280    1.0117   23.1518 C   0  0  0  0  0  0  0  0  0  0  0  0
    9.2731    2.5843   21.8034 H   0  0  0  0  0  0  0  0  0  0  0  0
   10.8076    4.2765   22.8557 H   0  0  0  0  0  0  0  0  0  0  0  0
   12.2094    3.6084   24.7286 H   0  0  0  0  0  0  0  0  0  0  0  0
   10.1487   -2.4464   24.7547 H   0  0  0  0  0  0  0  0  0  0  0  0
    8.5862   -2.1201   22.8779 H   0  0  0  0  0  0  0  0  0  0  0  0
    8.0072   -1.5233   20.6038 H   0  0  0  0  0  0  0  0  0  0  0  0
    6.7186   -1.0694   21.7635 H   0  0  0  0  0  0  0  0  0  0  0  0
    5.4457    0.6530   20.1610 C   0  0  0  0  0  0  0  0  0  0  0  0
    5.0070    0.6369   21.1628 H   0  0  0  0  0  0  0  0  0  0  0  0
    8.1199   -0.4206   18.3744 H   0  0  0  0  0  0  0  0  0  0  0  0
    4.9199    1.7793   16.9965 H   0  0  0  0  0  0  0  0  0  0  0  0
    3.8736    1.8430   19.2564 H   0  0  0  0  0  0  0  0  0  0  0  0
  1  2  2  0
  2  3  1  0
  3  4  2  0
  4  5  1  0
  5  6  1  0
  6  7  1  0
  7  8  1  0
  8  9  2  0
  9 10  1  0
 10 11  2  0
 11 12  1  0
 12 13  2  0
 13 14  1  0
 14 15  2  0
 15 16  1  0
 16 17  2  0
 16 18  1  0
 15 19  1  0
 14 20  1  0
 10 21  1  0
  9 22  1  0
  6 23  1  0
  6 24  1  0
  5 25  2  0
 25 26  1  0
  4 27  1  0
  2 28  1  0
  1 29  1  0
 25  1  1  0
 17  8  1  0
 17 12  1  0
M  END
>  <plip>  (1) 
-0.07142857142857142

>  <filename>  (1) 
[H][c]1[n][c]([H])[c]([C]([H])([H])[O][c]2[c]([H])[c]([H])[n][c]3[n][c]([H])[c]([H])[c]([H])[c]23)[c]([H])[c]1[H]

$$$$
