
     RDKit          3D

 28 29  0  0  0  0  0  0  0  0999 V2000
    4.9294    1.8214   16.9766 H   0  0  0  0  0  0  0  0  0  0  0  0
    5.3884    1.3030   17.8171 C   0  0  0  0  0  0  0  0  0  0  0  0
    6.5478    0.6775   17.5600 N   0  0  0  0  0  0  0  0  0  0  0  0
    7.1410    0.0448   18.5796 C   0  0  0  0  0  0  0  0  0  0  0  0
    8.0996   -0.4219   18.3438 H   0  0  0  0  0  0  0  0  0  0  0  0
    6.6365   -0.0234   19.8958 C   0  0  0  0  0  0  0  0  0  0  0  0
    7.4143   -0.6963   21.0138 C   0  0  0  0  0  0  0  0  0  0  0  0
    8.0057   -1.5309   20.6202 H   0  0  0  0  0  0  0  0  0  0  0  0
    6.7222   -1.1177   21.7526 H   0  0  0  0  0  0  0  0  0  0  0  0
    8.4160    0.2193   21.7850 C   0  0  2  0  0  0  0  0  0  0  0  0
    8.8164   -0.3821   22.6106 H   0  0  0  0  0  0  0  0  0  0  0  0
    7.6965    1.3830   22.4574 C   0  0  0  0  0  0  0  0  0  0  0  0
    7.1772    1.2497   23.7354 N   0  0  0  0  0  0  0  0  0  0  0  0
    6.6117    2.3508   24.1210 C   0  0  0  0  0  0  0  0  0  0  0  0
    6.0463    2.5699   25.4840 C   0  0  0  0  0  0  0  0  0  0  0  0
    5.1794    3.2357   25.4370 H   0  0  0  0  0  0  0  0  0  0  0  0
    6.8091    3.0269   26.1300 H   0  0  0  0  0  0  0  0  0  0  0  0
    5.7756    1.5963   25.8982 H   0  0  0  0  0  0  0  0  0  0  0  0
    6.6110    3.6230   22.9311 S   0  0  0  0  0  0  0  0  0  0  0  0
    7.4707    2.5851   21.8732 C   0  0  0  0  0  0  0  0  0  0  0  0
    7.7237    2.8249   20.8586 H   0  0  0  0  0  0  0  0  0  0  0  0
    9.5496    0.5277   20.8826 N   0  0  0  0  0  0  0  0  0  0  0  0
   10.2555    1.0682   21.3810 H   0  0  0  0  0  0  0  0  0  0  0  0
    9.2307    1.1159   20.1160 H   0  0  0  0  0  0  0  0  0  0  0  0
    5.4174    0.6346   20.1328 C   0  0  0  0  0  0  0  0  0  0  0  0
    5.0087    0.6553   21.1463 H   0  0  0  0  0  0  0  0  0  0  0  0
    4.7884    1.3061   19.0798 C   0  0  0  0  0  0  0  0  0  0  0  0
    3.8611    1.8523   19.2221 H   0  0  0  0  0  0  0  0  0  0  0  0
  1  2  1  0
  2  3  2  0
  3  4  1  0
  4  5  1  0
  4  6  2  0
  6  7  1  0
  7  8  1  0
  7  9  1  0
  7 10  1  0
 10 11  1  1
 10 12  1  0
 12 13  1  0
 13 14  2  0
 14 15  1  0
 15 16  1  0
 15 17  1  0
 15 18  1  0
 14 19  1  0
 19 20  1  0
 20 21  1  0
 10 22  1  0
 22 23  1  0
 22 24  1  0
  6 25  1  0
 25 26  1  0
 25 27  2  0
 27 28  1  0
 27  2  1  0
 20 12  2  0
M  END
>  <plip>  (1) 
-0.03571428571428571

>  <filename>  (1) 
[H][c]1[n][c]([H])[c]([C]([H])([H])[C@]([H])([c]2[n][c]([C]([H])([H])[H])[s][c]2[H])[N]([H])[H])[c]([H])[c]1[H]

$$$$
