
     RDKit          3D

 29 31  0  0  0  0  0  0  0  0999 V2000
    5.0361    2.0024   16.5926 H   0  0  0  0  0  0  0  0  0  0  0  0
    5.3812    1.4005   17.4296 C   0  0  0  0  0  0  0  0  0  0  0  0
    6.4947    0.6798   17.2229 N   0  0  0  0  0  0  0  0  0  0  0  0
    6.9609   -0.0510   18.2458 C   0  0  0  0  0  0  0  0  0  0  0  0
    7.8786   -0.6040   18.0690 H   0  0  0  0  0  0  0  0  0  0  0  0
    6.3465   -0.0846   19.5100 C   0  0  0  0  0  0  0  0  0  0  0  0
    6.9085   -0.8468   20.5466 O   0  0  0  0  0  0  0  0  0  0  0  0
    7.3216   -0.1733   21.6720 C   0  0  0  0  0  0  0  0  0  0  0  0
    7.1898    1.0058   21.8700 O   0  0  0  0  0  0  0  0  0  0  0  0
    7.9095   -1.0774   22.5010 N   0  0  0  0  0  0  0  0  0  0  0  0
    7.9351   -2.0117   22.1378 H   0  0  0  0  0  0  0  0  0  0  0  0
    8.2362   -0.8070   23.8323 C   0  0  0  0  0  0  0  0  0  0  0  0
    8.6161    0.4127   24.2868 C   0  0  0  0  0  0  0  0  0  0  0  0
    8.5761    1.3228   23.7040 H   0  0  0  0  0  0  0  0  0  0  0  0
    9.0755    0.4015   25.9579 S   0  0  0  0  0  0  0  0  0  0  0  0
    8.6544   -1.2897   26.0944 C   0  0  0  0  0  0  0  0  0  0  0  0
    8.6660   -2.0830   27.2494 C   0  0  0  0  0  0  0  0  0  0  0  0
    8.9996   -1.6423   28.1797 H   0  0  0  0  0  0  0  0  0  0  0  0
    8.2277   -3.4011   27.1551 C   0  0  0  0  0  0  0  0  0  0  0  0
    8.2600   -4.0484   28.0247 H   0  0  0  0  0  0  0  0  0  0  0  0
    7.7262   -3.9231   25.9454 C   0  0  0  0  0  0  0  0  0  0  0  0
    7.3458   -4.9416   25.9086 H   0  0  0  0  0  0  0  0  0  0  0  0
    7.6865   -3.1302   24.8057 C   0  0  0  0  0  0  0  0  0  0  0  0
    7.2304   -3.4960   23.8859 H   0  0  0  0  0  0  0  0  0  0  0  0
    8.1978   -1.8164   24.8655 C   0  0  0  0  0  0  0  0  0  0  0  0
    5.1747    0.6499   19.7129 C   0  0  0  0  0  0  0  0  0  0  0  0
    4.6977    0.6523   20.6919 H   0  0  0  0  0  0  0  0  0  0  0  0
    4.6832    1.4066   18.6426 C   0  0  0  0  0  0  0  0  0  0  0  0
    3.7931    2.0235   18.7411 H   0  0  0  0  0  0  0  0  0  0  0  0
  1  2  1  0
  2  3  2  0
  3  4  1  0
  4  5  1  0
  4  6  2  0
  6  7  1  0
  7  8  1  0
  8  9  2  0
  8 10  1  0
 10 11  1  0
 10 12  1  0
 12 13  2  0
 13 14  1  0
 13 15  1  0
 15 16  1  0
 16 17  2  0
 17 18  1  0
 17 19  1  0
 19 20  1  0
 19 21  2  0
 21 22  1  0
 21 23  1  0
 23 24  1  0
 23 25  2  0
  6 26  1  0
 26 27  1  0
 26 28  2  0
 28 29  1  0
 28  2  1  0
 25 12  1  0
 25 16  1  0
M  END
>  <plip>  (1) 
-0.03571428571428571

>  <filename>  (1) 
[H][c]1[n][c]([H])[c]([O][C](=[O])[N]([H])[c]2[c]([H])[s][c]3[c]([H])[c]([H])[c]([H])[c]([H])[c]23)[c]([H])[c]1[H]

$$$$
