
     RDKit          3D

 32 33  0  0  0  0  0  0  0  0999 V2000
    5.8967   -3.5740   28.2636 H   0  0  0  0  0  0  0  0  0  0  0  0
    5.1217   -3.4396   27.7043 O   0  0  0  0  0  0  0  0  0  0  0  0
    5.5350   -2.7836   26.5151 C   0  0  0  0  0  0  0  0  0  0  0  0
    4.6504   -2.2846   26.1057 H   0  0  0  0  0  0  0  0  0  0  0  0
    6.2887   -2.0071   26.7079 H   0  0  0  0  0  0  0  0  0  0  0  0
    6.0774   -3.7825   25.4746 C   0  0  0  0  0  0  0  0  0  0  0  0
    5.3220   -4.5549   25.3038 H   0  0  0  0  0  0  0  0  0  0  0  0
    6.9625   -4.2810   25.8929 H   0  0  0  0  0  0  0  0  0  0  0  0
    6.4394   -3.1824   24.1934 N   0  0  0  0  0  0  0  0  0  0  0  0
    5.8303   -3.1429   23.3815 H   0  0  0  0  0  0  0  0  0  0  0  0
    7.5868   -2.4914   24.0531 C   0  0  0  0  0  0  0  0  0  0  0  0
    8.3956   -2.3064   24.9519 O   0  0  0  0  0  0  0  0  0  0  0  0
    7.8476   -2.0184   22.7731 N   0  0  0  0  0  0  0  0  0  0  0  0
    6.8647   -1.7242   21.8528 C   0  0  0  0  0  0  0  0  0  0  0  0
    5.7739   -2.2642   21.7801 O   0  0  0  0  0  0  0  0  0  0  0  0
    7.3831   -0.7570   21.0128 N   0  0  0  0  0  0  0  0  0  0  0  0
    6.6856   -0.0877   19.9678 C   0  0  0  0  0  0  0  0  0  0  0  0
    7.2201    0.0129   18.6597 C   0  0  0  0  0  0  0  0  0  0  0  0
    8.1811   -0.4511   18.4370 H   0  0  0  0  0  0  0  0  0  0  0  0
    6.6200    0.6505   17.6471 N   0  0  0  0  0  0  0  0  0  0  0  0
    5.4507    1.2602   17.8971 C   0  0  0  0  0  0  0  0  0  0  0  0
    4.9821    1.7663   17.0533 H   0  0  0  0  0  0  0  0  0  0  0  0
    4.8468    1.2427   19.1580 C   0  0  0  0  0  0  0  0  0  0  0  0
    3.9178    1.7788   19.2995 H   0  0  0  0  0  0  0  0  0  0  0  0
    5.4578    0.5469   20.2098 C   0  0  0  0  0  0  0  0  0  0  0  0
    5.0247    0.5125   21.2072 H   0  0  0  0  0  0  0  0  0  0  0  0
    8.8330   -0.6691   21.1450 C   0  0  0  0  0  0  0  0  0  0  0  0
    9.3340   -1.2092   20.3273 H   0  0  0  0  0  0  0  0  0  0  0  0
    9.1553    0.3744   21.1353 H   0  0  0  0  0  0  0  0  0  0  0  0
    9.1134   -1.3445   22.4915 C   0  0  0  0  0  0  0  0  0  0  0  0
    9.3530   -0.6352   23.2955 H   0  0  0  0  0  0  0  0  0  0  0  0
    9.9243   -2.0770   22.4176 H   0  0  0  0  0  0  0  0  0  0  0  0
  1  2  1  0
  2  3  1  0
  3  4  1  0
  3  5  1  0
  3  6  1  0
  6  7  1  0
  6  8  1  0
  6  9  1  0
  9 10  1  0
  9 11  1  0
 11 12  2  0
 11 13  1  0
 13 14  1  0
 14 15  2  0
 14 16  1  0
 16 17  1  0
 17 18  2  0
 18 19  1  0
 18 20  1  0
 20 21  2  0
 21 22  1  0
 21 23  1  0
 23 24  1  0
 23 25  2  0
 25 26  1  0
 16 27  1  0
 27 28  1  0
 27 29  1  0
 27 30  1  0
 30 31  1  0
 30 32  1  0
 30 13  1  0
 25 17  1  0
M  END
>  <plip>  (1) 
-0.07142857142857142

>  <filename>  (1) 
[H][O][C]([H])([H])[C]([H])([H])[N]([H])[C](=[O])[N]1[C](=[O])[N]([c]2[c]([H])[n][c]([H])[c]([H])[c]2[H])[C]([H])([H])[C]1([H])[H]

$$$$
