
     RDKit          3D

 35 37  0  0  0  0  0  0  0  0999 V2000
    4.9083    1.7450   16.7810 H   0  0  0  0  0  0  0  0  0  0  0  0
    5.3454    1.3754   17.7052 C   0  0  0  0  0  0  0  0  0  0  0  0
    6.5816    0.8592   17.6013 N   0  0  0  0  0  0  0  0  0  0  0  0
    7.1750    0.4296   18.7177 C   0  0  0  0  0  0  0  0  0  0  0  0
    8.1963    0.0629   18.5966 H   0  0  0  0  0  0  0  0  0  0  0  0
    6.5641    0.4703   19.9901 C   0  0  0  0  0  0  0  0  0  0  0  0
    7.2436   -0.0386   21.1263 N   0  0  0  0  0  0  0  0  0  0  0  0
    7.0617    0.1911   22.4750 C   0  0  0  0  0  0  0  0  0  0  0  0
    6.3611    0.9153   22.8683 H   0  0  0  0  0  0  0  0  0  0  0  0
    7.8398   -0.5592   23.2115 N   0  0  0  0  0  0  0  0  0  0  0  0
    8.5464   -1.3444   22.3267 C   0  0  0  0  0  0  0  0  0  0  0  0
    9.2931   -2.5848   22.7297 C   0  0  0  0  0  0  0  0  0  0  0  0
   10.2254   -2.7029   22.1635 H   0  0  0  0  0  0  0  0  0  0  0  0
    9.5325   -2.5230   23.7999 H   0  0  0  0  0  0  0  0  0  0  0  0
    8.5241   -3.7567   22.4296 O   0  0  0  0  0  0  0  0  0  0  0  0
    7.5066   -4.0083   23.4143 C   0  0  0  0  0  0  0  0  0  0  0  0
    6.7780   -4.6559   22.9177 H   0  0  0  0  0  0  0  0  0  0  0  0
    7.0000   -3.0758   23.7113 H   0  0  0  0  0  0  0  0  0  0  0  0
    8.1763   -4.6659   24.6031 C   0  0  0  0  0  0  0  0  0  0  0  0
    8.5372   -3.9070   25.7254 C   0  0  0  0  0  0  0  0  0  0  0  0
    8.0942   -2.9226   25.8833 H   0  0  0  0  0  0  0  0  0  0  0  0
    9.5203   -4.3725   26.6049 C   0  0  0  0  0  0  0  0  0  0  0  0
    9.8697   -3.7268   27.4009 H   0  0  0  0  0  0  0  0  0  0  0  0
   10.0945   -5.6312   26.4098 C   0  0  0  0  0  0  0  0  0  0  0  0
   10.8824   -5.9762   27.0719 H   0  0  0  0  0  0  0  0  0  0  0  0
    9.6539   -6.4459   25.3647 C   0  0  0  0  0  0  0  0  0  0  0  0
   10.0704   -7.4438   25.2454 H   0  0  0  0  0  0  0  0  0  0  0  0
    8.6994   -5.9636   24.4649 C   0  0  0  0  0  0  0  0  0  0  0  0
    8.4023   -6.5711   23.6137 H   0  0  0  0  0  0  0  0  0  0  0  0
    8.2210   -1.0110   21.0530 C   0  0  0  0  0  0  0  0  0  0  0  0
    8.5587   -1.4378   20.1272 H   0  0  0  0  0  0  0  0  0  0  0  0
    5.2731    1.0006   20.0873 C   0  0  0  0  0  0  0  0  0  0  0  0
    4.7631    1.0613   21.0490 H   0  0  0  0  0  0  0  0  0  0  0  0
    4.6578    1.4584   18.9193 C   0  0  0  0  0  0  0  0  0  0  0  0
    3.6668    1.8970   18.9465 H   0  0  0  0  0  0  0  0  0  0  0  0
  1  2  1  0
  2  3  2  0
  3  4  1  0
  4  5  1  0
  4  6  2  0
  6  7  1  0
  7  8  1  0
  8  9  1  0
  8 10  2  0
 10 11  1  0
 11 12  1  0
 12 13  1  0
 12 14  1  0
 12 15  1  0
 15 16  1  0
 16 17  1  0
 16 18  1  0
 16 19  1  0
 19 20  2  0
 20 21  1  0
 20 22  1  0
 22 23  1  0
 22 24  2  0
 24 25  1  0
 24 26  1  0
 26 27  1  0
 26 28  2  0
 28 29  1  0
 11 30  2  0
 30 31  1  0
  6 32  1  0
 32 33  1  0
 32 34  2  0
 34 35  1  0
 34  2  1  0
 30  7  1  0
 28 19  1  0
M  END
>  <plip>  (1) 
-0.06896551724137931

>  <filename>  (1) 
[H][c]1[n][c]([H])[c](-[n]2[c]([H])[n][c]([C]([H])([H])[O][C]([H])([H])[c]3[c]([H])[c]([H])[c]([H])[c]([H])[c]3[H])[c]2[H])[c]([H])[c]1[H]

$$$$
