
     RDKit          3D

 50 52  0  0  0  0  0  0  0  0999 V2000
   11.2899    0.0571   24.6552 C   0  0  0  0  0  0  0  0  0  0  0  0
    9.9605    0.2338   25.0815 O   0  0  0  0  0  0  0  0  0  0  0  0
    9.1031    0.7315   24.0678 C   0  0  0  0  0  0  0  0  0  0  0  0
    8.6013   -0.3688   23.1291 C   0  0  0  0  0  0  0  0  0  0  0  0
    7.7777    0.1977   21.9623 C   0  0  0  0  0  0  0  0  0  0  0  0
    7.2235   -0.8427   20.9717 C   0  0  0  0  0  0  0  0  0  0  0  0
    6.3116   -1.7132   21.6892 N   0  0  0  0  0  0  0  0  0  0  0  0
    5.7629   -2.8335   21.1565 C   0  0  0  0  0  0  0  0  0  0  0  0
    5.6219   -3.0266   19.9640 O   0  0  0  0  0  0  0  0  0  0  0  0
    5.3219   -3.9125   22.1686 C   0  0  0  0  0  0  0  0  0  0  0  0
    5.8818   -3.8153   23.5531 C   0  0  0  0  0  0  0  0  0  0  0  0
    5.3203   -3.5983   24.7910 C   0  0  0  0  0  0  0  0  0  0  0  0
    6.2623   -3.3479   25.7449 N   0  0  0  0  0  0  0  0  0  0  0  0
    7.4263   -3.3995   25.1100 C   0  0  0  0  0  0  0  0  0  0  0  0
    8.7533   -3.1788   25.6069 C   0  0  0  0  0  0  0  0  0  0  0  0
    8.9709   -2.7777   27.0227 C   0  0  0  0  0  0  0  0  0  0  0  0
    9.2077   -1.7097   27.1152 H   0  0  0  0  0  0  0  0  0  0  0  0
    8.0829   -2.9733   27.6266 H   0  0  0  0  0  0  0  0  0  0  0  0
    9.8152   -3.3396   27.4319 H   0  0  0  0  0  0  0  0  0  0  0  0
    9.8080   -3.3453   24.7330 C   0  0  0  0  0  0  0  0  0  0  0  0
    9.6010   -3.6183   23.3569 C   0  0  0  0  0  0  0  0  0  0  0  0
    8.3293   -3.7749   22.8855 C   0  0  0  0  0  0  0  0  0  0  0  0
    7.2548   -3.6975   23.7610 N   0  0  0  0  0  0  0  0  0  0  0  0
    8.0829   -3.9180   21.8430 H   0  0  0  0  0  0  0  0  0  0  0  0
   10.4648   -3.6218   22.6995 H   0  0  0  0  0  0  0  0  0  0  0  0
   10.8311   -3.2770   25.0956 H   0  0  0  0  0  0  0  0  0  0  0  0
    4.2714   -3.5659   25.0520 H   0  0  0  0  0  0  0  0  0  0  0  0
    5.5743   -4.8682   21.6907 H   0  0  0  0  0  0  0  0  0  0  0  0
    4.2318   -3.8753   22.2018 H   0  0  0  0  0  0  0  0  0  0  0  0
    6.3828   -1.6768   22.6918 H   0  0  0  0  0  0  0  0  0  0  0  0
    6.5134   -0.1684   19.8201 C   0  0  0  0  0  0  0  0  0  0  0  0
    5.3236    0.5468   20.0123 C   0  0  0  0  0  0  0  0  0  0  0  0
    4.8167    1.3067   18.9584 C   0  0  0  0  0  0  0  0  0  0  0  0
    5.4983    1.2983   17.7358 C   0  0  0  0  0  0  0  0  0  0  0  0
    6.6063    0.5771   17.5117 N   0  0  0  0  0  0  0  0  0  0  0  0
    7.0849   -0.1360   18.5439 C   0  0  0  0  0  0  0  0  0  0  0  0
    7.9916   -0.7099   18.3420 H   0  0  0  0  0  0  0  0  0  0  0  0
    5.1382    1.9004   16.9028 H   0  0  0  0  0  0  0  0  0  0  0  0
    3.9311    1.9197   19.0790 H   0  0  0  0  0  0  0  0  0  0  0  0
    4.8076    0.5124   20.9747 H   0  0  0  0  0  0  0  0  0  0  0  0
    8.0676   -1.4305   20.5656 H   0  0  0  0  0  0  0  0  0  0  0  0
    8.3927    0.9154   21.4013 H   0  0  0  0  0  0  0  0  0  0  0  0
    6.9240    0.7743   22.3537 H   0  0  0  0  0  0  0  0  0  0  0  0
    8.0162   -1.0768   23.7303 H   0  0  0  0  0  0  0  0  0  0  0  0
    9.4581   -0.9396   22.7419 H   0  0  0  0  0  0  0  0  0  0  0  0
    9.6114    1.5261   23.4912 H   0  0  0  0  0  0  0  0  0  0  0  0
    8.2583    1.1920   24.5969 H   0  0  0  0  0  0  0  0  0  0  0  0
   11.7520    1.0168   24.3641 H   0  0  0  0  0  0  0  0  0  0  0  0
   11.3640   -0.6310   23.7972 H   0  0  0  0  0  0  0  0  0  0  0  0
   11.8494   -0.3706   25.4923 H   0  0  0  0  0  0  0  0  0  0  0  0
  1  2  1  0
  2  3  1  0
  3  4  1  0
  4  5  1  0
  5  6  1  0
  6  7  1  0
  7  8  1  0
  8  9  2  0
  8 10  1  0
 10 11  1  0
 11 12  2  0
 12 13  1  0
 13 14  2  0
 14 15  1  0
 15 16  1  0
 16 17  1  0
 16 18  1  0
 16 19  1  0
 15 20  2  0
 20 21  1  0
 21 22  2  0
 22 23  1  0
 22 24  1  0
 21 25  1  0
 20 26  1  0
 12 27  1  0
 10 28  1  0
 10 29  1  0
  7 30  1  0
  6 31  1  0
 31 32  2  0
 32 33  1  0
 33 34  2  0
 34 35  1  0
 35 36  2  0
 36 37  1  0
 34 38  1  0
 33 39  1  0
 32 40  1  0
  6 41  1  0
  5 42  1  0
  5 43  1  0
  4 44  1  0
  4 45  1  0
  3 46  1  0
  3 47  1  0
  1 48  1  0
  1 49  1  0
  1 50  1  0
 23 11  1  0
 36 31  1  0
 23 14  1  0
M  END
>  <plip>  (1) 
-0.16666666666666666

>  <filename>  (1) 
[H][c]1[n][c]([H])[c]([C]([H])([N]([H])[C](=[O])[C]([H])([H])[c]2[c]([H])[n][c]3[c]([C]([H])([H])[H])[c]([H])[c]([H])[c]([H])[n]23)[C]([H])([H])[C]([H])([H])[C]([H])([H])[O][C]([H])([H])[H])[c]([H])[c]1[H]

$$$$
