
     RDKit          3D

 31 33  0  0  0  0  0  0  0  0999 V2000
    4.9177    1.8068   16.9683 H   0  0  0  0  0  0  0  0  0  0  0  0
    5.3823    1.2998   17.8145 C   0  0  0  0  0  0  0  0  0  0  0  0
    6.5447    0.6786   17.5580 N   0  0  0  0  0  0  0  0  0  0  0  0
    7.1533    0.0737   18.5845 C   0  0  0  0  0  0  0  0  0  0  0  0
    8.1054   -0.4042   18.3506 H   0  0  0  0  0  0  0  0  0  0  0  0
    6.6570    0.0550   19.9082 C   0  0  0  0  0  0  0  0  0  0  0  0
    7.3730   -0.6263   21.0294 C   0  0  0  0  0  0  0  0  0  0  0  0
    7.7240   -1.9649   20.8943 C   0  0  0  0  0  0  0  0  0  0  0  0
    7.3621   -2.4669   20.0057 H   0  0  0  0  0  0  0  0  0  0  0  0
    8.3994   -2.6907   21.7892 N   0  0  0  0  0  0  0  0  0  0  0  0
    8.7128   -2.0906   22.9441 C   0  0  0  0  0  0  0  0  0  0  0  0
    9.2368   -2.7187   23.6688 H   0  0  0  0  0  0  0  0  0  0  0  0
    8.3542   -0.7765   23.2446 C   0  0  0  0  0  0  0  0  0  0  0  0
    8.5849   -0.3374   24.2081 H   0  0  0  0  0  0  0  0  0  0  0  0
    7.6633   -0.0422   22.2721 C   0  0  0  0  0  0  0  0  0  0  0  0
    7.3173    1.2666   22.4464 O   0  0  0  0  0  0  0  0  0  0  0  0
    6.8777    1.7874   23.6398 C   0  0  0  0  0  0  0  0  0  0  0  0
    7.1097    3.1537   23.8270 C   0  0  0  0  0  0  0  0  0  0  0  0
    7.6087    3.7079   23.0347 H   0  0  0  0  0  0  0  0  0  0  0  0
    6.6882    3.7622   25.0105 C   0  0  0  0  0  0  0  0  0  0  0  0
    6.8766    4.8222   25.1609 H   0  0  0  0  0  0  0  0  0  0  0  0
    6.0237    3.0134   25.9920 C   0  0  0  0  0  0  0  0  0  0  0  0
    5.7099    3.4879   26.9156 H   0  0  0  0  0  0  0  0  0  0  0  0
    5.7666    1.6576   25.7756 C   0  0  0  0  0  0  0  0  0  0  0  0
    5.2559    1.0668   26.5325 H   0  0  0  0  0  0  0  0  0  0  0  0
    6.1794    1.0373   24.5936 C   0  0  0  0  0  0  0  0  0  0  0  0
    5.9807   -0.0124   24.3976 H   0  0  0  0  0  0  0  0  0  0  0  0
    5.4298    0.6818   20.1392 C   0  0  0  0  0  0  0  0  0  0  0  0
    5.0243    0.6625   21.1484 H   0  0  0  0  0  0  0  0  0  0  0  0
    4.7844    1.3154   19.0785 C   0  0  0  0  0  0  0  0  0  0  0  0
    3.8554    1.8485   19.2288 H   0  0  0  0  0  0  0  0  0  0  0  0
  1  2  1  0
  2  3  2  0
  3  4  1  0
  4  5  1  0
  4  6  2  0
  6  7  1  0
  7  8  2  0
  8  9  1  0
  8 10  1  0
 10 11  2  0
 11 12  1  0
 11 13  1  0
 13 14  1  0
 13 15  2  0
 15 16  1  0
 16 17  1  0
 17 18  2  0
 18 19  1  0
 18 20  1  0
 20 21  1  0
 20 22  2  0
 22 23  1  0
 22 24  1  0
 24 25  1  0
 24 26  2  0
 26 27  1  0
  6 28  1  0
 28 29  1  0
 28 30  2  0
 30 31  1  0
 30  2  1  0
 15  7  1  0
 26 17  1  0
M  END
>  <plip>  (1) 
-0.0

>  <filename>  (1) 
[H][c]1[n][c]([H])[c](-[c]2[c]([H])[n][c]([H])[c]([H])[c]2[O][c]2[c]([H])[c]([H])[c]([H])[c]([H])[c]2[H])[c]([H])[c]1[H]

$$$$
