
     RDKit          3D

 34 35  0  0  0  0  0  0  0  0999 V2000
    7.8735   -3.0900   21.0172 O   0  0  0  0  0  0  0  0  0  0  0  0
    7.0069   -2.2575   21.2260 C   0  0  0  0  0  0  0  0  0  0  0  0
    7.3113   -0.7614   21.0548 C   0  0  0  0  0  0  0  0  0  0  0  0
    6.6160   -0.0040   19.9142 C   0  0  0  0  0  0  0  0  0  0  0  0
    5.4020    0.6623   20.1394 C   0  0  0  0  0  0  0  0  0  0  0  0
    4.7793    1.3277   19.0792 C   0  0  0  0  0  0  0  0  0  0  0  0
    5.3975    1.3080   17.8283 C   0  0  0  0  0  0  0  0  0  0  0  0
    6.5588    0.6874   17.5802 N   0  0  0  0  0  0  0  0  0  0  0  0
    7.1496    0.0620   18.6070 C   0  0  0  0  0  0  0  0  0  0  0  0
    8.1083   -0.4086   18.3810 H   0  0  0  0  0  0  0  0  0  0  0  0
    4.9348    1.7998   16.9775 H   0  0  0  0  0  0  0  0  0  0  0  0
    3.8489    1.8704   19.2045 H   0  0  0  0  0  0  0  0  0  0  0  0
    4.9697    0.6886   21.1441 H   0  0  0  0  0  0  0  0  0  0  0  0
    7.0888   -0.2653   22.0075 H   0  0  0  0  0  0  0  0  0  0  0  0
    8.4011   -0.7357   20.9489 H   0  0  0  0  0  0  0  0  0  0  0  0
    5.7307   -2.5994   21.5700 N   0  0  0  0  0  0  0  0  0  0  0  0
    5.3458   -3.9997   21.6752 C   0  0  0  0  0  0  0  0  0  0  0  0
    6.1976   -4.7757   22.6846 C   0  0  0  0  0  0  0  0  0  0  0  0
    6.0974   -4.1578   24.0293 C   0  0  0  0  0  0  0  0  0  0  0  0
    6.9277   -3.1401   24.2945 N   0  0  0  0  0  0  0  0  0  0  0  0
    6.8521   -2.5829   25.4903 C   0  0  0  0  0  0  0  0  0  0  0  0
    8.0124   -1.1762   25.9242 C   0  0  0  0  0  0  0  0  0  0  0  0
    7.7817   -0.7891   27.0672 O   0  0  0  0  0  0  0  0  0  0  0  0
    8.7956   -0.8496   25.0499 O   0  0  0  0  0  1  0  0  0  0  0  0
    5.9142   -2.9940   26.4431 C   0  0  0  0  0  0  0  0  0  0  0  0
    5.0806   -4.0357   26.0509 C   0  0  0  0  0  0  0  0  0  0  0  0
    5.1604   -4.6128   24.8544 N   0  0  0  0  0  0  0  0  0  0  0  0
    4.3065   -4.4401   26.6993 H   0  0  0  0  0  0  0  0  0  0  0  0
    5.8210   -2.5398   27.4203 H   0  0  0  0  0  0  0  0  0  0  0  0
    5.8712   -5.8164   22.7271 H   0  0  0  0  0  0  0  0  0  0  0  0
    7.2376   -4.7121   22.3707 H   0  0  0  0  0  0  0  0  0  0  0  0
    4.2836   -4.0559   21.9394 H   0  0  0  0  0  0  0  0  0  0  0  0
    5.4558   -4.4656   20.6897 H   0  0  0  0  0  0  0  0  0  0  0  0
    5.2203   -1.9059   22.0944 H   0  0  0  0  0  0  0  0  0  0  0  0
  1  2  2  0
  2  3  1  0
  3  4  1  0
  4  5  2  0
  5  6  1  0
  6  7  2  0
  7  8  1  0
  8  9  2  0
  9 10  1  0
  7 11  1  0
  6 12  1  0
  5 13  1  0
  3 14  1  0
  3 15  1  0
  2 16  1  0
 16 17  1  0
 17 18  1  0
 18 19  1  0
 19 20  2  0
 20 21  1  0
 21 22  1  0
 22 23  2  0
 22 24  1  0
 21 25  2  0
 25 26  1  0
 26 27  2  0
 26 28  1  0
 25 29  1  0
 18 30  1  0
 18 31  1  0
 17 32  1  0
 17 33  1  0
 16 34  1  0
  9  4  1  0
 27 19  1  0
M  CHG  1  24  -1
M  END
>  <plip>  (1) 
-0.06896551724137931

>  <filename>  (1) 
[H][c]1[n][c]([C]([H])([H])[C]([H])([H])[N]([H])[C](=[O])[C]([H])([H])[c]2[c]([H])[n][c]([H])[c]([H])[c]2[H])[n][c]([C](=[O])[O-])[c]1[H]

$$$$
