
     RDKit          3D

 20 21  0  0  0  0  0  0  0  0999 V2000
    5.0532    1.7821   16.9758 H   0  0  0  0  0  0  0  0  0  0  0  0
    5.4470    1.2709   17.8490 C   0  0  0  0  0  0  0  0  0  0  0  0
    6.6076    0.6219   17.6752 N   0  0  0  0  0  0  0  0  0  0  0  0
    7.1386    0.0253   18.7464 C   0  0  0  0  0  0  0  0  0  0  0  0
    8.0790   -0.4932   18.5828 H   0  0  0  0  0  0  0  0  0  0  0  0
    6.5438    0.0222   20.0318 C   0  0  0  0  0  0  0  0  0  0  0  0
    7.1809   -0.6712   21.1632 C   0  0  0  0  0  0  0  0  0  0  0  0
    6.4553   -1.9314   22.0954 S   0  0  0  0  0  0  0  0  0  0  0  0
    7.8587   -2.3003   22.9320 N   0  0  0  0  0  0  0  0  0  0  0  0
    8.8202   -1.5131   22.5597 C   0  0  0  0  0  0  0  0  0  0  0  0
    9.8119   -1.6297   22.9887 H   0  0  0  0  0  0  0  0  0  0  0  0
    8.4701   -0.5269   21.5930 C   0  0  0  0  0  0  0  0  0  0  0  0
    9.4415    0.3155   20.8814 C   0  0  0  0  0  0  0  0  0  0  0  0
    9.0266    1.2754   20.5652 H   0  0  0  0  0  0  0  0  0  0  0  0
   10.5719    0.5336   21.5941 F   0  0  0  0  0  0  0  0  0  0  0  0
    9.7995   -0.3923   19.7633 F   0  0  0  0  0  0  0  0  0  0  0  0
    5.3120    0.6721   20.1770 C   0  0  0  0  0  0  0  0  0  0  0  0
    4.8234    0.6838   21.1533 H   0  0  0  0  0  0  0  0  0  0  0  0
    4.7637    1.3139   19.0699 C   0  0  0  0  0  0  0  0  0  0  0  0
    3.8416    1.8748   19.1485 H   0  0  0  0  0  0  0  0  0  0  0  0
  1  2  1  0
  2  3  2  0
  3  4  1  0
  4  5  1  0
  4  6  2  0
  6  7  1  0
  7  8  1  0
  8  9  1  0
  9 10  2  0
 10 11  1  0
 10 12  1  0
 12 13  1  0
 13 14  1  0
 13 15  1  0
 13 16  1  0
  6 17  1  0
 17 18  1  0
 17 19  2  0
 19 20  1  0
 19  2  1  0
 12  7  2  0
M  END
>  <plip>  (1) 
-0.0

>  <filename>  (1) 
[H][c]1[n][c]([H])[c](-[c]2[s][n][c]([H])[c]2[C]([H])([F])[F])[c]([H])[c]1[H]

$$$$
