
     RDKit          3D

 40 43  0  0  0  0  0  0  0  0999 V2000
    8.7425    3.7126   22.0633 Br  0  0  0  0  0  0  0  0  0  0  0  0
   10.2597    2.7282   22.7061 C   0  0  0  0  0  0  0  0  0  0  0  0
   11.5682    3.2452   22.6894 C   0  0  0  0  0  0  0  0  0  0  0  0
   12.0222    4.4491   22.2448 O   0  0  0  0  0  0  0  0  0  0  0  0
   13.4585    4.3289   22.2597 C   0  0  0  0  0  0  0  0  0  0  0  0
   13.8022    3.1361   22.9857 O   0  0  0  0  0  0  0  0  0  0  0  0
   12.6256    2.4845   23.1583 C   0  0  0  0  0  0  0  0  0  0  0  0
   12.4143    1.2168   23.7092 C   0  0  0  0  0  0  0  0  0  0  0  0
   11.1113    0.7138   23.7673 C   0  0  0  0  0  0  0  0  0  0  0  0
   10.0448    1.4458   23.2252 C   0  0  0  0  0  0  0  0  0  0  0  0
    8.6663    0.8545   23.1951 C   0  0  0  0  0  0  0  0  0  0  0  0
    8.5547    0.0387   21.9664 N   0  0  0  0  0  4  0  0  0  0  0  0
    9.4103   -1.1497   22.1390 C   0  0  0  0  0  0  0  0  0  0  0  0
    8.7970   -2.1808   21.2353 C   0  0  0  0  0  0  0  0  0  0  0  0
    7.3041   -1.9063   21.3651 C   0  0  0  0  0  0  0  0  0  0  0  0
    7.1912   -0.3996   21.6283 C   0  0  0  0  0  0  0  0  0  0  0  0
    6.7077    0.3022   20.3837 C   0  0  0  0  0  0  0  0  0  0  0  0
    5.4566    0.9355   20.3619 C   0  0  0  0  0  0  0  0  0  0  0  0
    4.9950    1.4253   19.1380 C   0  0  0  0  0  0  0  0  0  0  0  0
    5.7741    1.2787   17.9860 C   0  0  0  0  0  0  0  0  0  0  0  0
    6.9909    0.7010   18.0122 N   0  0  0  0  0  0  0  0  0  0  0  0
    7.4484    0.2353   19.1900 C   0  0  0  0  0  0  0  0  0  0  0  0
    8.4215   -0.2473   19.2063 H   0  0  0  0  0  0  0  0  0  0  0  0
    5.3804    1.6382   17.0375 H   0  0  0  0  0  0  0  0  0  0  0  0
    4.0326    1.9203   19.0587 H   0  0  0  0  0  0  0  0  0  0  0  0
    4.8443    1.0357   21.2600 H   0  0  0  0  0  0  0  0  0  0  0  0
    6.4942   -0.2075   22.4556 H   0  0  0  0  0  0  0  0  0  0  0  0
    6.8878   -2.4462   22.2218 H   0  0  0  0  0  0  0  0  0  0  0  0
    6.7696   -2.2194   20.4602 H   0  0  0  0  0  0  0  0  0  0  0  0
    9.0642   -3.1963   21.5406 H   0  0  0  0  0  0  0  0  0  0  0  0
    9.1422   -2.0067   20.2116 H   0  0  0  0  0  0  0  0  0  0  0  0
    9.3674   -1.4816   23.1845 H   0  0  0  0  0  0  0  0  0  0  0  0
   10.4594   -0.9643   21.8742 H   0  0  0  0  0  0  0  0  0  0  0  0
    8.8962    0.5882   21.1765 H   0  0  0  0  0  0  0  0  0  0  0  0
    7.9238    1.6624   23.2198 H   0  0  0  0  0  0  0  0  0  0  0  0
    8.5398    0.2336   24.0912 H   0  0  0  0  0  0  0  0  0  0  0  0
   10.9275   -0.2568   24.2241 H   0  0  0  0  0  0  0  0  0  0  0  0
   13.2484    0.6316   24.0865 H   0  0  0  0  0  0  0  0  0  0  0  0
   13.9378    5.2121   22.6984 H   0  0  0  0  0  0  0  0  0  0  0  0
   13.8128    4.2216   21.2337 H   0  0  0  0  0  0  0  0  0  0  0  0
  1  2  1  0
  2  3  2  0
  3  4  1  0
  4  5  1  0
  5  6  1  0
  6  7  1  0
  7  8  2  0
  8  9  1  0
  9 10  2  0
 10 11  1  0
 11 12  1  0
 12 13  1  0
 13 14  1  0
 14 15  1  0
 15 16  1  0
 16 17  1  0
 17 18  2  0
 18 19  1  0
 19 20  2  0
 20 21  1  0
 21 22  2  0
 22 23  1  0
 20 24  1  0
 19 25  1  0
 18 26  1  0
 16 27  1  0
 15 28  1  0
 15 29  1  0
 14 30  1  0
 14 31  1  0
 13 32  1  0
 13 33  1  0
 12 34  1  0
 11 35  1  0
 11 36  1  0
  9 37  1  0
  8 38  1  0
  5 39  1  0
  5 40  1  0
 10  2  1  0
 16 12  1  0
 22 17  1  0
  7  3  1  0
M  CHG  1  12   1
M  END
>  <plip>  (1) 
-0.06666666666666667

>  <filename>  (1) 
[H][c]1[n][c]([H])[c]([C]2([H])[C]([H])([H])[C]([H])([H])[C]([H])([H])[N+]2([H])[C]([H])([H])[c]2[c]([H])[c]([H])[c]3[c]([c]2[Br])[O][C]([H])([H])[O]3)[c]([H])[c]1[H]

$$$$
