
     RDKit          3D

 34 36  0  0  0  0  0  0  0  0999 V2000
    4.9724    1.7957   16.9497 H   0  0  0  0  0  0  0  0  0  0  0  0
    5.4162    1.3200   17.8229 C   0  0  0  0  0  0  0  0  0  0  0  0
    6.5962    0.7125   17.6272 N   0  0  0  0  0  0  0  0  0  0  0  0
    7.1701    0.1348   18.6937 C   0  0  0  0  0  0  0  0  0  0  0  0
    8.1330   -0.3377   18.5076 H   0  0  0  0  0  0  0  0  0  0  0  0
    6.6073    0.0978   19.9820 C   0  0  0  0  0  0  0  0  0  0  0  0
    7.3109   -0.6828   21.0868 C   0  0  2  0  0  0  0  0  0  0  0  0
    6.9416   -0.3313   22.0605 H   0  0  0  0  0  0  0  0  0  0  0  0
    8.7828   -0.4755   21.0466 N   0  0  0  0  0  0  0  0  0  0  0  0
    9.1596    0.5416   21.9784 O   0  0  0  0  0  0  0  0  0  0  0  0
    9.6547    1.6912   21.2826 C   0  0  0  0  0  0  0  0  0  0  0  0
   10.4716    1.3779   20.6213 H   0  0  0  0  0  0  0  0  0  0  0  0
    8.8383    2.0755   20.6559 H   0  0  0  0  0  0  0  0  0  0  0  0
   10.0949    2.7196   22.3034 C   0  0  0  0  0  0  0  0  0  0  0  0
    9.2544    3.2060   22.7910 H   0  0  0  0  0  0  0  0  0  0  0  0
   11.3296    3.5697   22.1365 C   0  0  0  0  0  0  0  0  0  0  0  0
   11.9408    3.4344   21.2479 H   0  0  0  0  0  0  0  0  0  0  0  0
   11.2814    4.6102   22.4517 H   0  0  0  0  0  0  0  0  0  0  0  0
   11.3034    2.4888   23.1768 C   0  0  0  0  0  0  0  0  0  0  0  0
   11.8890    1.5908   22.9963 H   0  0  0  0  0  0  0  0  0  0  0  0
   11.2627    2.7737   24.2262 H   0  0  0  0  0  0  0  0  0  0  0  0
    9.4753   -1.7242   21.4211 C   0  0  0  0  0  0  0  0  0  0  0  0
   10.2199   -1.9619   20.6549 H   0  0  0  0  0  0  0  0  0  0  0  0
   10.0225   -1.5710   22.3568 H   0  0  0  0  0  0  0  0  0  0  0  0
    8.4035   -2.8238   21.5715 C   0  0  0  0  0  0  0  0  0  0  0  0
    8.2604   -3.0585   22.6325 H   0  0  0  0  0  0  0  0  0  0  0  0
    8.6915   -3.7537   21.0697 H   0  0  0  0  0  0  0  0  0  0  0  0
    7.1227   -2.2136   20.9787 C   0  0  0  0  0  0  0  0  0  0  0  0
    6.9798   -2.5055   19.9369 H   0  0  0  0  0  0  0  0  0  0  0  0
    6.2260   -2.5508   21.5079 H   0  0  0  0  0  0  0  0  0  0  0  0
    5.3654    0.7382   20.1617 C   0  0  0  0  0  0  0  0  0  0  0  0
    4.8783    0.7626   21.1385 H   0  0  0  0  0  0  0  0  0  0  0  0
    4.7622    1.3566   19.0578 C   0  0  0  0  0  0  0  0  0  0  0  0
    3.8073    1.8690   19.1447 H   0  0  0  0  0  0  0  0  0  0  0  0
  1  2  1  0
  2  3  2  0
  3  4  1  0
  4  5  1  0
  4  6  2  0
  6  7  1  0
  7  8  1  1
  7  9  1  0
  9 10  1  0
 10 11  1  0
 11 12  1  0
 11 13  1  0
 11 14  1  0
 14 15  1  0
 14 16  1  0
 16 17  1  0
 16 18  1  0
 16 19  1  0
 19 20  1  0
 19 21  1  0
  9 22  1  0
 22 23  1  0
 22 24  1  0
 22 25  1  0
 25 26  1  0
 25 27  1  0
 25 28  1  0
 28 29  1  0
 28 30  1  0
  6 31  1  0
 31 32  1  0
 31 33  2  0
 33 34  1  0
 33  2  1  0
 28  7  1  0
 19 14  1  0
M  END
>  <plip>  (1) 
-0.07142857142857142

>  <filename>  (1) 
[H][c]1[n][c]([H])[c]([C@]2([H])[N]([O][C]([H])([H])[C]3([H])[C]([H])([H])[C]3([H])[H])[C]([H])([H])[C]([H])([H])[C]2([H])[H])[c]([H])[c]1[H]

$$$$
