
     RDKit          3D

 32 34  0  0  0  0  0  0  0  0999 V2000
    4.9135    1.7741   17.0041 H   0  0  0  0  0  0  0  0  0  0  0  0
    5.4047    1.2890   17.8451 C   0  0  0  0  0  0  0  0  0  0  0  0
    6.5692    0.6772   17.5814 N   0  0  0  0  0  0  0  0  0  0  0  0
    7.1832    0.0597   18.5968 C   0  0  0  0  0  0  0  0  0  0  0  0
    8.1273   -0.4300   18.3742 H   0  0  0  0  0  0  0  0  0  0  0  0
    6.6710    0.0051   19.9021 C   0  0  0  0  0  0  0  0  0  0  0  0
    7.4157   -0.7149   20.9496 C   0  0  0  0  0  0  0  0  0  0  0  0
    8.6088   -1.2585   20.7299 N   0  0  0  0  0  0  0  0  0  0  0  0
    8.9334   -1.8242   21.9165 N   0  0  0  0  0  0  0  0  0  0  0  0
    9.8183   -2.2866   22.0403 H   0  0  0  0  0  0  0  0  0  0  0  0
    7.9891   -1.6399   22.8767 C   0  0  0  0  0  0  0  0  0  0  0  0
    8.0396   -2.1333   24.1546 N   0  0  0  0  0  0  0  0  0  0  0  0
    7.5197   -1.3103   25.2600 C   0  0  0  0  0  0  0  0  0  0  0  0
    6.6928   -0.6807   24.9109 H   0  0  0  0  0  0  0  0  0  0  0  0
    8.2962   -0.6266   25.6426 H   0  0  0  0  0  0  0  0  0  0  0  0
    7.0316   -2.1922   26.4189 C   0  0  0  0  0  0  0  0  0  0  0  0
    6.7369   -1.5706   27.2717 H   0  0  0  0  0  0  0  0  0  0  0  0
    6.1321   -2.7361   26.1049 H   0  0  0  0  0  0  0  0  0  0  0  0
    8.0308   -3.1784   26.8627 N   0  0  0  0  0  0  0  0  0  0  0  0
    8.8579   -2.6567   27.1632 H   0  0  0  0  0  0  0  0  0  0  0  0
    8.4341   -4.0056   25.7144 C   0  0  0  0  0  0  0  0  0  0  0  0
    7.5614   -4.5853   25.3892 H   0  0  0  0  0  0  0  0  0  0  0  0
    9.1857   -4.7324   26.0383 H   0  0  0  0  0  0  0  0  0  0  0  0
    8.9712   -3.1959   24.5245 C   0  0  0  0  0  0  0  0  0  0  0  0
    9.1108   -3.8684   23.6707 H   0  0  0  0  0  0  0  0  0  0  0  0
    9.9570   -2.7831   24.7959 H   0  0  0  0  0  0  0  0  0  0  0  0
    6.9887   -0.9197   22.2730 C   0  0  0  0  0  0  0  0  0  0  0  0
    6.0633   -0.6173   22.7218 H   0  0  0  0  0  0  0  0  0  0  0  0
    5.4484    0.6484   20.1582 C   0  0  0  0  0  0  0  0  0  0  0  0
    5.0045    0.6357   21.1563 H   0  0  0  0  0  0  0  0  0  0  0  0
    4.8082    1.3080   19.1125 C   0  0  0  0  0  0  0  0  0  0  0  0
    3.8748    1.8422   19.2656 H   0  0  0  0  0  0  0  0  0  0  0  0
  1  2  1  0
  2  3  2  0
  3  4  1  0
  4  5  1  0
  4  6  2  0
  6  7  1  0
  7  8  2  0
  8  9  1  0
  9 10  1  0
  9 11  1  0
 11 12  1  0
 12 13  1  0
 13 14  1  0
 13 15  1  0
 13 16  1  0
 16 17  1  0
 16 18  1  0
 16 19  1  0
 19 20  1  0
 19 21  1  0
 21 22  1  0
 21 23  1  0
 21 24  1  0
 24 25  1  0
 24 26  1  0
 11 27  2  0
 27 28  1  0
  6 29  1  0
 29 30  1  0
 29 31  2  0
 31 32  1  0
 31  2  1  0
 27  7  1  0
 24 12  1  0
M  END
>  <plip>  (1) 
-0.034482758620689655

>  <filename>  (1) 
[H][c]1[n][c]([H])[c](-[c]2[n][n]([H])[c]([N]3[C]([H])([H])[C]([H])([H])[N]([H])[C]([H])([H])[C]3([H])[H])[c]2[H])[c]([H])[c]1[H]

$$$$
