
     RDKit          3D

 37 38  0  0  0  0  0  0  0  0999 V2000
    4.9210    1.7957   16.9821 H   0  0  0  0  0  0  0  0  0  0  0  0
    5.3922    1.3019   17.8293 C   0  0  0  0  0  0  0  0  0  0  0  0
    6.5549    0.6834   17.5729 N   0  0  0  0  0  0  0  0  0  0  0  0
    7.1489    0.0563   18.5950 C   0  0  0  0  0  0  0  0  0  0  0  0
    8.1007   -0.4193   18.3599 H   0  0  0  0  0  0  0  0  0  0  0  0
    6.6267   -0.0178   19.8967 C   0  0  0  0  0  0  0  0  0  0  0  0
    7.3964   -0.6992   21.0059 C   0  0  0  0  0  0  0  0  0  0  0  0
    6.7112   -1.0455   21.7949 H   0  0  0  0  0  0  0  0  0  0  0  0
    7.8915   -1.6052   20.6343 H   0  0  0  0  0  0  0  0  0  0  0  0
    8.4424    0.2222   21.5669 C   0  0  0  0  0  0  0  0  0  0  0  0
    9.7738    0.3950   21.1384 C   0  0  0  0  0  0  0  0  0  0  0  0
   10.3064   -0.2058   20.4123 H   0  0  0  0  0  0  0  0  0  0  0  0
   10.3963    1.4053   21.7191 N   0  0  0  0  0  0  0  0  0  0  0  0
    9.4440    1.9166   22.5457 N   0  0  0  0  0  0  0  0  0  0  0  0
    9.6388    2.6811   23.1675 H   0  0  0  0  0  0  0  0  0  0  0  0
    8.2722    1.2376   22.4856 C   0  0  0  0  0  0  0  0  0  0  0  0
    7.1787    1.5300   23.2476 N   0  0  0  0  0  0  0  0  0  0  0  0
    6.4300    0.8754   23.1216 H   0  0  0  0  0  0  0  0  0  0  0  0
    6.9619    2.7855   23.9590 C   0  0  0  0  0  0  0  0  0  0  0  0
    7.8187    2.9609   24.6198 H   0  0  0  0  0  0  0  0  0  0  0  0
    6.0832    2.6669   24.6020 H   0  0  0  0  0  0  0  0  0  0  0  0
    6.7909    4.0153   23.0449 C   0  0  0  0  0  0  0  0  0  0  0  0
    7.6456    4.0260   22.3564 H   0  0  0  0  0  0  0  0  0  0  0  0
    5.9010    3.8710   22.4035 H   0  0  0  0  0  0  0  0  0  0  0  0
    6.7164    5.2817   23.7899 N   0  0  0  0  0  0  0  0  0  0  0  0
    5.3733    5.5262   24.3053 C   0  0  0  0  0  0  0  0  0  0  0  0
    5.0546    4.7063   24.9575 H   0  0  0  0  0  0  0  0  0  0  0  0
    4.6177    5.6280   23.4988 H   0  0  0  0  0  0  0  0  0  0  0  0
    5.3658    6.4473   24.8991 H   0  0  0  0  0  0  0  0  0  0  0  0
    7.1587    6.4004   22.9661 C   0  0  0  0  0  0  0  0  0  0  0  0
    7.1098    7.3306   23.5433 H   0  0  0  0  0  0  0  0  0  0  0  0
    8.2026    6.2475   22.6690 H   0  0  0  0  0  0  0  0  0  0  0  0
    6.5532    6.5367   22.0455 H   0  0  0  0  0  0  0  0  0  0  0  0
    5.4237    0.6493   20.1447 C   0  0  0  0  0  0  0  0  0  0  0  0
    4.9906    0.6416   21.1485 H   0  0  0  0  0  0  0  0  0  0  0  0
    4.7966    1.3204   19.0923 C   0  0  0  0  0  0  0  0  0  0  0  0
    3.8673    1.8502   19.2405 H   0  0  0  0  0  0  0  0  0  0  0  0
  1  2  1  0
  2  3  2  0
  3  4  1  0
  4  5  1  0
  4  6  2  0
  6  7  1  0
  7  8  1  0
  7  9  1  0
  7 10  1  0
 10 11  1  0
 11 12  1  0
 11 13  2  0
 13 14  1  0
 14 15  1  0
 14 16  1  0
 16 17  1  0
 17 18  1  0
 17 19  1  0
 19 20  1  0
 19 21  1  0
 19 22  1  0
 22 23  1  0
 22 24  1  0
 22 25  1  0
 25 26  1  0
 26 27  1  0
 26 28  1  0
 26 29  1  0
 25 30  1  0
 30 31  1  0
 30 32  1  0
 30 33  1  0
  6 34  1  0
 34 35  1  0
 34 36  2  0
 36 37  1  0
 36  2  1  0
 16 10  2  0
M  END
>  <plip>  (1) 
-0.10714285714285714

>  <filename>  (1) 
[H][c]1[n][c]([H])[c]([C]([H])([H])[c]2[c]([H])[n][n]([H])[c]2[N]([H])[C]([H])([H])[C]([H])([H])[N]([C]([H])([H])[H])[C]([H])([H])[H])[c]([H])[c]1[H]

$$$$
