
     RDKit          3D

 38 39  0  0  0  0  0  0  0  0999 V2000
    4.9229    1.7981   16.9725 H   0  0  0  0  0  0  0  0  0  0  0  0
    5.3980    1.3091   17.8202 C   0  0  0  0  0  0  0  0  0  0  0  0
    6.5610    0.6899   17.5731 N   0  0  0  0  0  0  0  0  0  0  0  0
    7.1792    0.1053   18.6115 C   0  0  0  0  0  0  0  0  0  0  0  0
    8.1038   -0.4063   18.3434 H   0  0  0  0  0  0  0  0  0  0  0  0
    6.6995    0.0821   19.9408 C   0  0  0  0  0  0  0  0  0  0  0  0
    7.4826   -0.6080   21.0810 C   0  0  2  0  0  0  0  0  0  0  0  0
    8.5916    0.3122   21.6774 C   0  0  0  0  0  0  0  0  0  0  0  0
    9.3108    0.5387   20.8834 H   0  0  0  0  0  0  0  0  0  0  0  0
    9.1489   -0.2192   22.4572 H   0  0  0  0  0  0  0  0  0  0  0  0
    8.0324    1.6032   22.1977 C   0  0  0  0  0  0  0  0  0  0  0  0
    7.5412    1.6333   23.3793 N   0  0  0  0  0  0  0  0  0  0  0  0
    6.9502    2.7932   23.8298 N   0  0  0  0  0  0  0  0  0  0  0  0
    6.9558    3.6725   23.3306 H   0  0  0  0  0  0  0  0  0  0  0  0
    6.3971    2.9283   25.0680 C   0  0  0  0  0  0  0  0  0  0  0  0
    5.8216    4.3979   25.5869 S   0  0  0  0  0  0  0  0  0  0  0  0
    6.3515    1.8156   25.7897 N   0  0  0  0  0  0  0  0  0  0  0  0
    6.8216    1.0140   25.4025 H   0  0  0  0  0  0  0  0  0  0  0  0
    6.0085    1.8567   26.7279 H   0  0  0  0  0  0  0  0  0  0  0  0
    7.9790    2.7623   21.2575 C   0  0  0  0  0  0  0  0  0  0  0  0
    8.3486    2.4438   20.2840 H   0  0  0  0  0  0  0  0  0  0  0  0
    8.5689    3.6164   21.6117 H   0  0  0  0  0  0  0  0  0  0  0  0
    6.9400    3.0951   21.1366 H   0  0  0  0  0  0  0  0  0  0  0  0
    8.1002   -1.9472   20.6176 C   0  0  0  0  0  0  0  0  0  0  0  0
    7.3228   -2.4216   20.0039 H   0  0  0  0  0  0  0  0  0  0  0  0
    9.0071   -1.8076   20.0138 H   0  0  0  0  0  0  0  0  0  0  0  0
    8.3276   -2.7998   21.7873 N   0  0  0  0  0  0  0  0  0  0  0  0
    9.2820   -2.7093   22.1167 H   0  0  0  0  0  0  0  0  0  0  0  0
    7.3740   -2.3608   22.8230 C   0  0  0  0  0  0  0  0  0  0  0  0
    6.7096   -3.1906   23.0944 H   0  0  0  0  0  0  0  0  0  0  0  0
    7.8913   -2.0584   23.7470 H   0  0  0  0  0  0  0  0  0  0  0  0
    6.5804   -1.1958   22.1980 C   0  0  0  0  0  0  0  0  0  0  0  0
    6.2754   -0.4504   22.9352 H   0  0  0  0  0  0  0  0  0  0  0  0
    5.6841   -1.6038   21.7132 H   0  0  0  0  0  0  0  0  0  0  0  0
    5.4630    0.7208   20.1550 C   0  0  0  0  0  0  0  0  0  0  0  0
    5.0022    0.7074   21.1457 H   0  0  0  0  0  0  0  0  0  0  0  0
    4.8075    1.3425   19.0864 C   0  0  0  0  0  0  0  0  0  0  0  0
    3.8546    1.8457   19.2224 H   0  0  0  0  0  0  0  0  0  0  0  0
  1  2  1  0
  2  3  2  0
  3  4  1  0
  4  5  1  0
  4  6  2  0
  6  7  1  0
  7  8  1  1
  8  9  1  0
  8 10  1  0
  8 11  1  0
 11 12  2  3
 12 13  1  0
 13 14  1  0
 13 15  1  0
 15 16  2  0
 15 17  1  0
 17 18  1  0
 17 19  1  0
 11 20  1  0
 20 21  1  0
 20 22  1  0
 20 23  1  0
  7 24  1  0
 24 25  1  0
 24 26  1  0
 24 27  1  0
 27 28  1  0
 27 29  1  0
 29 30  1  0
 29 31  1  0
 29 32  1  0
 32 33  1  0
 32 34  1  0
  6 35  1  0
 35 36  1  0
 35 37  2  0
 37 38  1  0
 37  2  1  0
 32  7  1  0
M  END
>  <plip>  (1) 
-0.0

>  <filename>  (1) 
[H][c]1[n][c]([H])[c]([C@]2([C]([H])([H])[C](=[N][N]([H])[C](=[S])[N]([H])[H])[C]([H])([H])[H])[C]([H])([H])[N]([H])[C]([H])([H])[C]2([H])[H])[c]([H])[c]1[H]

$$$$
