
     RDKit          3D

 28 29  0  0  0  0  0  0  0  0999 V2000
    9.6087    2.3791   22.4367 H   0  0  0  0  0  0  0  0  0  0  0  0
    9.5984    1.7096   23.1273 O   0  0  0  0  0  0  0  0  0  0  0  0
    8.3984    1.0254   22.8818 C   0  0  1  0  0  0  0  0  0  0  0  0
    8.2926    0.2585   23.6676 H   0  0  0  0  0  0  0  0  0  0  0  0
    7.1390    1.8844   22.9234 C   0  0  0  0  0  0  0  0  0  0  0  0
    6.9398    2.9678   22.0529 C   0  0  0  0  0  0  0  0  0  0  0  0
    7.7041    3.2007   21.3155 H   0  0  0  0  0  0  0  0  0  0  0  0
    5.7626    3.7225   22.1011 C   0  0  0  0  0  0  0  0  0  0  0  0
    5.6228    4.5490   21.4039 H   0  0  0  0  0  0  0  0  0  0  0  0
    4.7638    3.4093   23.0340 C   0  0  0  0  0  0  0  0  0  0  0  0
    3.8529    4.0025   23.0772 H   0  0  0  0  0  0  0  0  0  0  0  0
    4.9468    2.3308   23.9053 C   0  0  0  0  0  0  0  0  0  0  0  0
    4.1874    2.0825   24.6432 H   0  0  0  0  0  0  0  0  0  0  0  0
    6.1230    1.5748   23.8468 C   0  0  0  0  0  0  0  0  0  0  0  0
    6.2589    0.7392   24.5312 H   0  0  0  0  0  0  0  0  0  0  0  0
    8.6446    0.4610   21.5633 N   0  0  0  0  0  0  0  0  0  0  0  0
    9.6425    0.2771   21.5054 H   0  0  0  0  0  0  0  0  0  0  0  0
    7.6271   -0.8331   21.1118 S   0  0  0  0  0  0  0  0  0  0  0  0
    6.6434    0.0062   19.8932 C   0  0  0  0  0  0  0  0  0  0  0  0
    7.1662    0.0708   18.5982 C   0  0  0  0  0  0  0  0  0  0  0  0
    8.1208   -0.4120   18.3926 H   0  0  0  0  0  0  0  0  0  0  0  0
    6.5618    0.6875   17.5796 N   0  0  0  0  0  0  0  0  0  0  0  0
    5.3919    1.2975   17.8368 C   0  0  0  0  0  0  0  0  0  0  0  0
    4.9297    1.7994   16.9875 H   0  0  0  0  0  0  0  0  0  0  0  0
    4.7878    1.2974   19.0996 C   0  0  0  0  0  0  0  0  0  0  0  0
    3.8665    1.8489   19.2419 H   0  0  0  0  0  0  0  0  0  0  0  0
    5.4147    0.6251   20.1540 C   0  0  0  0  0  0  0  0  0  0  0  0
    5.0158    0.6368   21.1694 H   0  0  0  0  0  0  0  0  0  0  0  0
  1  2  1  0
  2  3  1  0
  3  4  1  1
  3  5  1  0
  5  6  2  0
  6  7  1  0
  6  8  1  0
  8  9  1  0
  8 10  2  0
 10 11  1  0
 10 12  1  0
 12 13  1  0
 12 14  2  0
 14 15  1  0
  3 16  1  0
 16 17  1  0
 16 18  1  0
 18 19  1  0
 19 20  2  0
 20 21  1  0
 20 22  1  0
 22 23  2  0
 23 24  1  0
 23 25  1  0
 25 26  1  0
 25 27  2  0
 27 28  1  0
 14  5  1  0
 27 19  1  0
M  END
>  <plip>  (1) 
-0.10714285714285714

>  <filename>  (1) 
[H][O][C@@]([H])([c]1[c]([H])[c]([H])[c]([H])[c]([H])[c]1[H])[N]([H])[S][c]1[c]([H])[n][c]([H])[c]([H])[c]1[H]

$$$$
