
     RDKit          3D

 38 39  0  0  0  0  0  0  0  0999 V2000
    9.4917   -0.2204   20.1474 O   0  0  0  0  0  0  0  0  0  0  0  0
    8.6808   -0.6379   20.9485 C   0  0  0  0  0  0  0  0  0  0  0  0
    7.3196   -0.5211   20.7801 N   0  0  0  0  0  0  0  0  0  0  0  0
    6.6224    0.0843   19.7089 C   0  0  0  0  0  0  0  0  0  0  0  0
    5.3765    0.6564   19.9958 C   0  0  0  0  0  0  0  0  0  0  0  0
    4.6975    1.3360   18.9814 C   0  0  0  0  0  0  0  0  0  0  0  0
    5.2626    1.3904   17.7041 C   0  0  0  0  0  0  0  0  0  0  0  0
    6.4203    0.7855   17.3878 N   0  0  0  0  0  0  0  0  0  0  0  0
    7.0816    0.1525   18.3664 C   0  0  0  0  0  0  0  0  0  0  0  0
    8.0157   -0.3312   18.0919 H   0  0  0  0  0  0  0  0  0  0  0  0
    4.7741    1.9332   16.8998 H   0  0  0  0  0  0  0  0  0  0  0  0
    3.7558    1.8376   19.1762 H   0  0  0  0  0  0  0  0  0  0  0  0
    4.9676    0.5895   21.0033 H   0  0  0  0  0  0  0  0  0  0  0  0
    6.7765   -0.8045   21.5749 H   0  0  0  0  0  0  0  0  0  0  0  0
    8.9798   -1.3736   22.0872 N   0  0  0  0  0  0  0  0  0  0  0  0
   10.3990   -1.5720   22.4193 C   0  0  0  0  0  0  0  0  0  0  0  0
   10.5809   -2.8410   23.2601 C   0  0  0  0  0  0  0  0  0  0  0  0
   11.9198   -3.2605   23.1013 O   0  0  0  0  0  0  0  0  0  0  0  0
   12.1743   -3.8222   23.8425 H   0  0  0  0  0  0  0  0  0  0  0  0
    9.8623   -3.5958   22.9118 H   0  0  0  0  0  0  0  0  0  0  0  0
   10.3505   -2.6155   24.3056 H   0  0  0  0  0  0  0  0  0  0  0  0
   10.9874   -0.3326   23.0972 C   0  0  0  0  0  0  0  0  0  0  0  0
   12.1363    0.2970   22.6035 C   0  0  0  0  0  0  0  0  0  0  0  0
   12.5568    1.5351   23.1032 C   0  0  0  0  0  0  0  0  0  0  0  0
   11.8352    2.1414   24.1369 C   0  0  0  0  0  0  0  0  0  0  0  0
   10.7340    1.4917   24.7101 C   0  0  0  0  0  0  0  0  0  0  0  0
   10.3520    0.2472   24.2126 C   0  0  0  0  0  0  0  0  0  0  0  0
    9.3668   -0.5395   24.7959 O   0  0  0  0  0  0  0  0  0  0  0  0
    8.4990   -0.1195   25.7348 C   0  0  0  0  0  0  0  0  0  0  0  0
    7.8671    1.0158   25.3984 F   0  0  0  0  0  0  0  0  0  0  0  0
    9.0827    0.0765   26.9213 F   0  0  0  0  0  0  0  0  0  0  0  0
    7.5783   -1.0748   25.8796 F   0  0  0  0  0  0  0  0  0  0  0  0
   10.1771    1.9421   25.5233 H   0  0  0  0  0  0  0  0  0  0  0  0
   12.1001    3.1405   24.4721 H   0  0  0  0  0  0  0  0  0  0  0  0
   13.4217    2.0333   22.6717 H   0  0  0  0  0  0  0  0  0  0  0  0
   12.7122   -0.2010   21.8254 H   0  0  0  0  0  0  0  0  0  0  0  0
   10.9571   -1.7448   21.4919 H   0  0  0  0  0  0  0  0  0  0  0  0
    8.4540   -1.0681   22.8925 H   0  0  0  0  0  0  0  0  0  0  0  0
  1  2  2  0
  2  3  1  0
  3  4  1  0
  4  5  2  0
  5  6  1  0
  6  7  2  0
  7  8  1  0
  8  9  2  0
  9 10  1  0
  7 11  1  0
  6 12  1  0
  5 13  1  0
  3 14  1  0
  2 15  1  0
 15 16  1  0
 16 17  1  0
 17 18  1  0
 18 19  1  0
 17 20  1  0
 17 21  1  0
 16 22  1  0
 22 23  2  0
 23 24  1  0
 24 25  2  0
 25 26  1  0
 26 27  2  0
 27 28  1  0
 28 29  1  0
 29 30  1  0
 29 31  1  0
 29 32  1  0
 26 33  1  0
 25 34  1  0
 24 35  1  0
 23 36  1  0
 16 37  1  0
 15 38  1  0
  9  4  1  0
 27 22  1  0
M  END
>  <plip>  (1) 
-0.13333333333333333

>  <filename>  (1) 
[H][O][C]([H])([H])[C]([H])([c]1[c]([H])[c]([H])[c]([H])[c]([H])[c]1[O][C]([F])([F])[F])[N]([H])[C](=[O])[N]([H])[c]1[c]([H])[n][c]([H])[c]([H])[c]1[H]

$$$$
