
     RDKit          3D

 20 21  0  0  0  0  0  0  0  0999 V2000
    6.9034   -0.7164   22.0093 H   0  0  0  0  0  0  0  0  0  0  0  0
    7.3520   -0.7013   21.0085 C   0  0  0  0  0  0  0  0  0  0  0  0
    8.4857   -1.2420   20.7550 N   0  0  0  0  0  0  0  0  0  0  0  0
    9.1009   -1.8539   21.8075 N   0  0  0  0  0  0  0  0  0  0  0  0
    8.5742   -2.0731   23.0261 N   0  0  0  0  0  0  0  0  0  0  0  0
    9.5823   -2.6572   23.6412 C   0  0  0  0  0  0  0  0  0  0  0  0
    9.4936   -2.9886   24.6652 H   0  0  0  0  0  0  0  0  0  0  0  0
   10.7166   -2.8222   22.9080 N   0  0  0  0  0  0  0  0  0  0  0  0
   10.3714   -2.3032   21.7528 C   0  0  0  0  0  0  0  0  0  0  0  0
   10.9302   -2.2490   20.8315 H   0  0  0  0  0  0  0  0  0  0  0  0
    6.6442   -0.0175   19.9392 C   0  0  0  0  0  0  0  0  0  0  0  0
    7.1893    0.0158   18.6384 C   0  0  0  0  0  0  0  0  0  0  0  0
    8.1392   -0.4765   18.4399 H   0  0  0  0  0  0  0  0  0  0  0  0
    6.6018    0.6375   17.6162 N   0  0  0  0  0  0  0  0  0  0  0  0
    5.4414    1.2672   17.8641 C   0  0  0  0  0  0  0  0  0  0  0  0
    4.9881    1.7798   17.0204 H   0  0  0  0  0  0  0  0  0  0  0  0
    4.8148    1.2938   19.1175 C   0  0  0  0  0  0  0  0  0  0  0  0
    3.8796    1.8305   19.2505 H   0  0  0  0  0  0  0  0  0  0  0  0
    5.4328    0.6409   20.1806 C   0  0  0  0  0  0  0  0  0  0  0  0
    5.0041    0.6462   21.1864 H   0  0  0  0  0  0  0  0  0  0  0  0
  1  2  1  0
  2  3  2  3
  3  4  1  0
  4  5  1  0
  5  6  2  0
  6  7  1  0
  6  8  1  0
  8  9  2  0
  9 10  1  0
  2 11  1  0
 11 12  2  0
 12 13  1  0
 12 14  1  0
 14 15  2  0
 15 16  1  0
 15 17  1  0
 17 18  1  0
 17 19  2  0
 19 20  1  0
  9  4  1  0
 19 11  1  0
M  END
>  <plip>  (1) 
-0.0

>  <filename>  (1) 
[H][C](=[N][n]1[n][c]([H])[n][c]1[H])[c]1[c]([H])[n][c]([H])[c]([H])[c]1[H]

$$$$
