
     RDKit          3D

 44 45  0  0  0  0  0  0  0  0999 V2000
    6.2641   -7.1436   22.2545 C   0  0  0  0  0  0  0  0  0  0  0  0
    6.6066   -6.1814   23.3989 C   0  0  0  0  0  0  0  0  0  0  0  0
    6.1322   -4.7488   23.1752 C   0  0  0  0  0  0  0  0  0  0  0  0
    6.4501   -3.8261   24.3646 C   0  0  0  0  0  0  0  0  0  0  0  0
    7.5246   -3.5974   24.4128 H   0  0  0  0  0  0  0  0  0  0  0  0
    6.1587   -4.2871   25.3168 H   0  0  0  0  0  0  0  0  0  0  0  0
    5.9157   -2.8740   24.2868 H   0  0  0  0  0  0  0  0  0  0  0  0
    6.7261   -4.1771   21.8761 C   0  0  0  0  0  0  0  0  0  0  0  0
    5.7780   -2.8554   21.2332 S   0  0  0  0  0  0  0  0  0  0  0  0
    4.4568   -2.9621   21.8175 O   0  0  0  0  0  0  0  0  0  0  0  0
    5.9756   -2.7841   19.8014 O   0  0  0  0  0  0  0  0  0  0  0  0
    6.3808   -1.5368   22.0268 N   0  0  0  0  0  0  0  0  0  0  0  0
    7.2749   -0.6412   21.2882 C   0  0  0  0  0  0  0  0  0  0  0  0
    6.5764   -0.0330   20.0750 C   0  0  0  0  0  0  0  0  0  0  0  0
    5.3761    0.6880   20.1961 C   0  0  0  0  0  0  0  0  0  0  0  0
    4.8308    1.3136   19.0726 C   0  0  0  0  0  0  0  0  0  0  0  0
    5.5011    1.2069   17.8504 C   0  0  0  0  0  0  0  0  0  0  0  0
    6.6222    0.4931   17.6964 N   0  0  0  0  0  0  0  0  0  0  0  0
    7.1188   -0.1181   18.7839 C   0  0  0  0  0  0  0  0  0  0  0  0
    8.0224   -0.6977   18.5981 H   0  0  0  0  0  0  0  0  0  0  0  0
    5.1214    1.7059   16.9604 H   0  0  0  0  0  0  0  0  0  0  0  0
    3.9158    1.8914   19.1365 H   0  0  0  0  0  0  0  0  0  0  0  0
    4.8783    0.7812   21.1636 H   0  0  0  0  0  0  0  0  0  0  0  0
    8.6073   -1.3539   21.0029 C   0  0  0  0  0  0  0  0  0  0  0  0
    9.6257   -0.2243   20.7865 C   0  0  0  0  0  0  0  0  0  0  0  0
    9.1160    0.9355   21.6760 C   0  0  0  0  0  0  0  0  0  0  0  0
    7.7956    0.4159   22.2779 C   0  0  0  0  0  0  0  0  0  0  0  0
    8.0033   -0.1272   23.2056 H   0  0  0  0  0  0  0  0  0  0  0  0
    7.0531    1.1867   22.5068 H   0  0  0  0  0  0  0  0  0  0  0  0
    9.8281    1.1963   22.4634 H   0  0  0  0  0  0  0  0  0  0  0  0
    8.9515    1.8349   21.0741 H   0  0  0  0  0  0  0  0  0  0  0  0
   10.6473   -0.5402   21.0160 H   0  0  0  0  0  0  0  0  0  0  0  0
    9.6247    0.0854   19.7393 H   0  0  0  0  0  0  0  0  0  0  0  0
    8.8872   -1.9116   21.9062 H   0  0  0  0  0  0  0  0  0  0  0  0
    8.5308   -2.0629   20.1826 H   0  0  0  0  0  0  0  0  0  0  0  0
    5.4764   -1.1253   22.2507 H   0  0  0  0  0  0  0  0  0  0  0  0
    6.7203   -4.8838   21.0429 H   0  0  0  0  0  0  0  0  0  0  0  0
    7.7333   -3.7744   21.9953 H   0  0  0  0  0  0  0  0  0  0  0  0
    5.0330   -4.8040   23.0744 H   0  0  0  0  0  0  0  0  0  0  0  0
    7.6892   -6.2002   23.5971 H   0  0  0  0  0  0  0  0  0  0  0  0
    6.1051   -6.5071   24.3188 H   0  0  0  0  0  0  0  0  0  0  0  0
    6.5256   -8.1767   22.4959 H   0  0  0  0  0  0  0  0  0  0  0  0
    6.8255   -6.8904   21.3498 H   0  0  0  0  0  0  0  0  0  0  0  0
    5.1941   -7.1133   22.0067 H   0  0  0  0  0  0  0  0  0  0  0  0
  1  2  1  0
  2  3  1  0
  3  4  1  0
  4  5  1  0
  4  6  1  0
  4  7  1  0
  3  8  1  0
  8  9  1  0
  9 10  2  0
  9 11  2  0
  9 12  1  0
 12 13  1  0
 13 14  1  0
 14 15  2  0
 15 16  1  0
 16 17  2  0
 17 18  1  0
 18 19  2  0
 19 20  1  0
 17 21  1  0
 16 22  1  0
 15 23  1  0
 13 24  1  0
 24 25  1  0
 25 26  1  0
 26 27  1  0
 27 28  1  0
 27 29  1  0
 26 30  1  0
 26 31  1  0
 25 32  1  0
 25 33  1  0
 24 34  1  0
 24 35  1  0
 12 36  1  0
  8 37  1  0
  8 38  1  0
  3 39  1  0
  2 40  1  0
  2 41  1  0
  1 42  1  0
  1 43  1  0
  1 44  1  0
 27 13  1  0
 19 14  1  0
M  END
>  <plip>  (1) 
-0.2413793103448276

>  <filename>  (1) 
[H][c]1[n][c]([H])[c]([C]2([N]([H])[S](=[O])(=[O])[C]([H])([H])[C]([H])([C]([H])([H])[H])[C]([H])([H])[C]([H])([H])[H])[C]([H])([H])[C]([H])([H])[C]([H])([H])[C]2([H])[H])[c]([H])[c]1[H]

$$$$
