
     RDKit          3D

 31 34  0  0  0  0  0  0  0  0999 V2000
    5.0288    1.7486   16.9132 H   0  0  0  0  0  0  0  0  0  0  0  0
    5.4898    1.2592   17.7681 C   0  0  0  0  0  0  0  0  0  0  0  0
    6.6554    0.6310   17.5379 N   0  0  0  0  0  0  0  0  0  0  0  0
    7.2617    0.0420   18.5704 C   0  0  0  0  0  0  0  0  0  0  0  0
    8.2011   -0.4685   18.3725 H   0  0  0  0  0  0  0  0  0  0  0  0
    6.7444    0.0658   19.8789 C   0  0  0  0  0  0  0  0  0  0  0  0
    7.4787   -0.5510   20.9378 N   0  0  0  0  0  0  0  0  0  0  0  0
    8.0255   -1.7761   20.7742 N   0  0  0  0  0  0  0  0  0  0  0  0
    8.6360   -2.0601   21.8580 N   0  0  0  0  0  0  0  0  0  0  0  0
    8.5355   -1.0603   22.7620 N   0  0  0  0  0  0  0  0  0  0  0  0
    7.8055   -0.1311   22.1869 C   0  0  0  0  0  0  0  0  0  0  0  0
    7.4152    1.4242   22.9165 S   0  0  0  0  0  0  0  0  0  0  0  0
    6.2745    0.9397   24.2055 C   0  0  0  0  0  0  0  0  0  0  0  0
    4.9480    1.2207   24.1431 C   0  0  0  0  0  0  0  0  0  0  0  0
    4.4432    1.7803   23.3697 H   0  0  0  0  0  0  0  0  0  0  0  0
    4.2844    0.6744   25.2135 N   0  0  0  0  0  0  0  0  0  0  0  0
    3.2923    0.5110   25.2534 H   0  0  0  0  0  0  0  0  0  0  0  0
    5.1909    0.0034   26.0033 C   0  0  0  0  0  0  0  0  0  0  0  0
    4.9882   -0.6873   27.2090 C   0  0  0  0  0  0  0  0  0  0  0  0
    3.9952   -0.7699   27.6427 H   0  0  0  0  0  0  0  0  0  0  0  0
    6.1108   -1.2257   27.8325 C   0  0  0  0  0  0  0  0  0  0  0  0
    5.9788   -1.7419   28.7791 H   0  0  0  0  0  0  0  0  0  0  0  0
    7.4096   -1.0546   27.2899 C   0  0  0  0  0  0  0  0  0  0  0  0
    8.2725   -1.4403   27.8312 H   0  0  0  0  0  0  0  0  0  0  0  0
    7.6010   -0.3683   26.0959 C   0  0  0  0  0  0  0  0  0  0  0  0
    8.6034   -0.2272   25.6904 H   0  0  0  0  0  0  0  0  0  0  0  0
    6.4783    0.1655   25.4206 C   0  0  0  0  0  0  0  0  0  0  0  0
    5.5189    0.6853   20.1094 C   0  0  0  0  0  0  0  0  0  0  0  0
    5.0731    0.6910   21.1032 H   0  0  0  0  0  0  0  0  0  0  0  0
    4.8788    1.2943   19.0259 C   0  0  0  0  0  0  0  0  0  0  0  0
    3.9293    1.7981   19.1570 H   0  0  0  0  0  0  0  0  0  0  0  0
  1  2  1  0
  2  3  2  0
  3  4  1  0
  4  5  1  0
  4  6  2  0
  6  7  1  0
  7  8  1  0
  8  9  2  0
  9 10  1  0
 10 11  2  0
 11 12  1  0
 12 13  1  0
 13 14  2  0
 14 15  1  0
 14 16  1  0
 16 17  1  0
 16 18  1  0
 18 19  2  0
 19 20  1  0
 19 21  1  0
 21 22  1  0
 21 23  2  0
 23 24  1  0
 23 25  1  0
 25 26  1  0
 25 27  2  0
  6 28  1  0
 28 29  1  0
 28 30  2  0
 30 31  1  0
 30  2  1  0
 11  7  1  0
 27 13  1  0
 27 18  1  0
M  END
>  <plip>  (1) 
-0.06896551724137931

>  <filename>  (1) 
[H][c]1[n][c]([H])[c](-[n]2[n][n][n][c]2[S][c]2[c]([H])[n]([H])[c]3[c]([H])[c]([H])[c]([H])[c]([H])[c]23)[c]([H])[c]1[H]

$$$$
