
     RDKit          3D

 21 22  0  0  0  0  0  0  0  0999 V2000
   10.9630   -2.8054   21.8349 H   0  0  0  0  0  0  0  0  0  0  0  0
   11.2220   -1.5562   21.4132 S   0  0  0  0  0  0  0  0  0  0  0  0
    9.6796   -1.2261   20.5206 C   0  0  0  0  0  0  0  0  0  0  0  0
    9.4988   -1.9173   19.6911 H   0  0  0  0  0  0  0  0  0  0  0  0
    9.8364   -0.2409   20.0641 H   0  0  0  0  0  0  0  0  0  0  0  0
    8.4759   -1.1826   21.4131 C   0  0  0  0  0  0  0  0  0  0  0  0
    7.3026   -0.5014   21.2638 C   0  0  0  0  0  0  0  0  0  0  0  0
    6.6387    0.0772   20.0998 C   0  0  0  0  0  0  0  0  0  0  0  0
    7.1855    0.0230   18.7968 C   0  0  0  0  0  0  0  0  0  0  0  0
    8.1101   -0.5155   18.6097 H   0  0  0  0  0  0  0  0  0  0  0  0
    6.6331    0.5919   17.7252 N   0  0  0  0  0  0  0  0  0  0  0  0
    5.4721    1.2432   17.9092 C   0  0  0  0  0  0  0  0  0  0  0  0
    5.0593    1.7280   17.0289 H   0  0  0  0  0  0  0  0  0  0  0  0
    4.8057    1.3045   19.1372 C   0  0  0  0  0  0  0  0  0  0  0  0
    3.8581    1.8289   19.2088 H   0  0  0  0  0  0  0  0  0  0  0  0
    5.3915    0.7041   20.2512 C   0  0  0  0  0  0  0  0  0  0  0  0
    4.9137    0.6950   21.2302 H   0  0  0  0  0  0  0  0  0  0  0  0
    6.9745   -0.6232   22.7446 C   0  0  0  0  0  0  0  0  0  0  0  0
    6.2633   -0.0531   23.5201 O   0  0  0  0  0  0  0  0  0  0  0  0
    8.1834   -1.6570   22.7760 C   0  0  0  0  0  0  0  0  0  0  0  0
    8.6319   -2.4953   23.5160 O   0  0  0  0  0  0  0  0  0  0  0  0
  1  2  1  0
  2  3  1  0
  3  4  1  0
  3  5  1  0
  3  6  1  0
  6  7  2  0
  7  8  1  0
  8  9  2  0
  9 10  1  0
  9 11  1  0
 11 12  2  0
 12 13  1  0
 12 14  1  0
 14 15  1  0
 14 16  2  0
 16 17  1  0
  7 18  1  0
 18 19  2  0
 18 20  1  0
 20 21  2  0
 20  6  1  0
 16  8  1  0
M  END
>  <plip>  (1) 
-0.03571428571428571

>  <filename>  (1) 
[H][S][C]([H])([H])[c]1[c](-[c]2[c]([H])[n][c]([H])[c]([H])[c]2[H])[c](=[O])[c]1=[O]

$$$$
