
     RDKit          3D

 44 46  0  0  0  0  0  0  0  0999 V2000
   10.0273    1.6209   22.2929 C   0  0  0  0  0  0  0  0  0  0  0  0
    9.2979    0.6240   21.5595 O   0  0  0  0  0  0  0  0  0  0  0  0
    8.0430    0.3566   21.9805 C   0  0  0  0  0  0  0  0  0  0  0  0
    7.5122    0.8908   22.9189 O   0  0  0  0  0  0  0  0  0  0  0  0
    7.4059   -0.7072   21.0393 C   0  0  1  0  0  0  0  0  0  0  0  0
    6.5580   -1.5715   21.8345 O   0  0  0  0  0  0  0  0  0  0  0  0
    5.9798   -2.6258   21.2109 C   0  0  0  0  0  0  0  0  0  0  0  0
    6.1280   -2.8890   20.0458 O   0  0  0  0  0  0  0  0  0  0  0  0
    5.0943   -3.4430   22.1272 C   0  0  0  0  0  0  0  0  0  0  0  0
    5.9873   -4.6103   23.2149 S   0  0  0  0  0  0  0  0  0  0  0  0
    4.5596   -5.2081   24.1026 C   0  0  0  0  0  0  0  0  0  0  0  0
    4.1140   -4.5686   25.2725 C   0  0  0  0  0  0  0  0  0  0  0  0
    2.9808   -5.0416   25.9483 C   0  0  0  0  0  0  0  0  0  0  0  0
    2.2848   -6.1486   25.4461 C   0  0  0  0  0  0  0  0  0  0  0  0
    1.0562   -6.8306   26.0111 C   0  0  0  0  0  0  0  0  0  0  0  0
    0.7533   -7.9934   25.0180 C   0  0  0  0  0  0  0  0  0  0  0  0
    1.8327   -7.9377   23.8960 C   0  0  0  0  0  0  0  0  0  0  0  0
    2.7172   -6.7716   24.2689 C   0  0  0  0  0  0  0  0  0  0  0  0
    3.8498   -6.3038   23.5937 C   0  0  0  0  0  0  0  0  0  0  0  0
    4.1951   -6.7725   22.6765 H   0  0  0  0  0  0  0  0  0  0  0  0
    2.4165   -8.8654   23.8325 H   0  0  0  0  0  0  0  0  0  0  0  0
    1.3906   -7.7955   22.9010 H   0  0  0  0  0  0  0  0  0  0  0  0
   -0.2524   -7.8923   24.5967 H   0  0  0  0  0  0  0  0  0  0  0  0
    0.7789   -8.9593   25.5331 H   0  0  0  0  0  0  0  0  0  0  0  0
    1.2455   -7.1952   27.0293 H   0  0  0  0  0  0  0  0  0  0  0  0
    0.2164   -6.1282   26.0967 H   0  0  0  0  0  0  0  0  0  0  0  0
    2.6476   -4.5463   26.8577 H   0  0  0  0  0  0  0  0  0  0  0  0
    4.6537   -3.7002   25.6450 H   0  0  0  0  0  0  0  0  0  0  0  0
    4.5074   -2.8323   22.7922 H   0  0  0  0  0  0  0  0  0  0  0  0
    4.4079   -3.9989   21.4992 H   0  0  0  0  0  0  0  0  0  0  0  0
    6.6420   -0.0318   19.8984 C   0  0  0  0  0  0  0  0  0  0  0  0
    5.4312    0.6299   20.1435 C   0  0  0  0  0  0  0  0  0  0  0  0
    4.7981    1.2964   19.0908 C   0  0  0  0  0  0  0  0  0  0  0  0
    5.4047    1.2854   17.8298 C   0  0  0  0  0  0  0  0  0  0  0  0
    6.5582    0.6531   17.5688 N   0  0  0  0  0  0  0  0  0  0  0  0
    7.1518    0.0178   18.5926 C   0  0  0  0  0  0  0  0  0  0  0  0
    8.1041   -0.4568   18.3493 H   0  0  0  0  0  0  0  0  0  0  0  0
    4.9472    1.8099   16.9916 H   0  0  0  0  0  0  0  0  0  0  0  0
    3.8738    1.8456   19.2378 H   0  0  0  0  0  0  0  0  0  0  0  0
    5.0094    0.6358   21.1498 H   0  0  0  0  0  0  0  0  0  0  0  0
    8.2323   -1.2976   20.6353 H   0  0  0  0  0  0  0  0  0  0  0  0
   10.1293    1.3187   23.3393 H   0  0  0  0  0  0  0  0  0  0  0  0
    9.5002    2.5792   22.2591 H   0  0  0  0  0  0  0  0  0  0  0  0
   10.9998    1.6890   21.8006 H   0  0  0  0  0  0  0  0  0  0  0  0
  1  2  1  0
  2  3  1  0
  3  4  2  0
  3  5  1  0
  5  6  1  0
  6  7  1  0
  7  8  2  0
  7  9  1  0
  9 10  1  0
 10 11  1  0
 11 12  2  0
 12 13  1  0
 13 14  2  0
 14 15  1  0
 15 16  1  0
 16 17  1  0
 17 18  1  0
 18 19  2  0
 19 20  1  0
 17 21  1  0
 17 22  1  0
 16 23  1  0
 16 24  1  0
 15 25  1  0
 15 26  1  0
 13 27  1  0
 12 28  1  0
  9 29  1  0
  9 30  1  0
  5 31  1  0
 31 32  2  0
 32 33  1  0
 33 34  2  0
 34 35  1  0
 35 36  2  0
 36 37  1  0
 34 38  1  0
 33 39  1  0
 32 40  1  0
  5 41  1  6
  1 42  1  0
  1 43  1  0
  1 44  1  0
 19 11  1  0
 36 31  1  0
 18 14  1  0
M  END
>  <plip>  (1) 
-0.07142857142857142

>  <filename>  (1) 
[H][c]1[n][c]([H])[c]([C@]([H])([O][C](=[O])[C]([H])([H])[S][c]2[c]([H])[c]([H])[c]3[c]([c]2[H])[C]([H])([H])[C]([H])([H])[C]3([H])[H])[C](=[O])[O][C]([H])([H])[H])[c]([H])[c]1[H]

$$$$
