
     RDKit          3D

 46 48  0  0  0  0  0  0  0  0999 V2000
   11.1576   -0.1023   21.3651 C   0  0  0  0  0  0  0  0  0  0  0  0
    9.8945   -0.5672   20.8721 O   0  0  0  0  0  0  0  0  0  0  0  0
    8.7696   -0.0226   21.4268 C   0  0  0  0  0  0  0  0  0  0  0  0
    8.7470    0.9382   22.1982 O   0  0  0  0  0  0  0  0  0  0  0  0
    7.3990   -0.6830   21.0676 C   0  0  0  0  0  0  0  0  0  0  0  0
    7.3917   -2.1249   20.6926 N   0  0  0  0  0  4  0  0  0  0  0  0
    7.8571   -2.9954   21.8111 C   0  0  0  0  0  0  0  0  0  0  0  0
    6.7466   -3.3411   22.8138 C   0  0  0  0  0  0  0  0  0  0  0  0
    7.3177   -4.1964   23.8177 O   0  0  0  0  0  0  0  0  0  0  0  0
    6.5042   -4.6679   24.8212 C   0  0  0  0  0  0  0  0  0  0  0  0
    7.1028   -5.5003   25.7701 C   0  0  0  0  0  0  0  0  0  0  0  0
    6.3661   -6.0380   26.8299 C   0  0  0  0  0  0  0  0  0  0  0  0
    5.0050   -5.7448   26.9583 C   0  0  0  0  0  0  0  0  0  0  0  0
    4.2617   -6.2765   28.0202 C   0  0  0  0  0  0  0  0  0  0  0  0
    2.9015   -5.9854   28.1538 C   0  0  0  0  0  0  0  0  0  0  0  0
    1.8982   -6.7178   29.6087 Br  0  0  0  0  0  0  0  0  0  0  0  0
    2.2802   -5.1542   27.2154 C   0  0  0  0  0  0  0  0  0  0  0  0
    3.0132   -4.6150   26.1481 C   0  0  0  0  0  0  0  0  0  0  0  0
    4.3796   -4.9034   26.0090 C   0  0  0  0  0  0  0  0  0  0  0  0
    5.1356   -4.3715   24.9478 C   0  0  0  0  0  0  0  0  0  0  0  0
    4.6719   -3.7212   24.2145 H   0  0  0  0  0  0  0  0  0  0  0  0
    2.5230   -3.9693   25.4246 H   0  0  0  0  0  0  0  0  0  0  0  0
    1.2225   -4.9343   27.3292 H   0  0  0  0  0  0  0  0  0  0  0  0
    4.7386   -6.9220   28.7531 H   0  0  0  0  0  0  0  0  0  0  0  0
    6.8455   -6.6844   27.5603 H   0  0  0  0  0  0  0  0  0  0  0  0
    8.1601   -5.7237   25.6717 H   0  0  0  0  0  0  0  0  0  0  0  0
    6.3677   -2.4188   23.2640 H   0  0  0  0  0  0  0  0  0  0  0  0
    5.9238   -3.8542   22.3029 H   0  0  0  0  0  0  0  0  0  0  0  0
    8.6640   -2.4923   22.3601 H   0  0  0  0  0  0  0  0  0  0  0  0
    8.2726   -3.9320   21.4250 H   0  0  0  0  0  0  0  0  0  0  0  0
    7.9957   -2.2591   19.8734 H   0  0  0  0  0  0  0  0  0  0  0  0
    6.4421   -2.3835   20.4182 H   0  0  0  0  0  0  0  0  0  0  0  0
    6.6737   -0.0342   19.9107 C   0  0  0  0  0  0  0  0  0  0  0  0
    5.4581    0.6113   20.1526 C   0  0  0  0  0  0  0  0  0  0  0  0
    4.8302    1.2678   19.0966 C   0  0  0  0  0  0  0  0  0  0  0  0
    5.4125    1.2466   17.8301 C   0  0  0  0  0  0  0  0  0  0  0  0
    6.5563    0.5797   17.5758 N   0  0  0  0  0  0  0  0  0  0  0  0
    7.1767   -0.0384   18.5951 C   0  0  0  0  0  0  0  0  0  0  0  0
    8.1169   -0.5378   18.3809 H   0  0  0  0  0  0  0  0  0  0  0  0
    4.9434    1.8225   17.0378 H   0  0  0  0  0  0  0  0  0  0  0  0
    3.9123    1.8316   19.2492 H   0  0  0  0  0  0  0  0  0  0  0  0
    5.0185    0.6259   21.1478 H   0  0  0  0  0  0  0  0  0  0  0  0
    6.8077   -0.5423   21.9805 H   0  0  0  0  0  0  0  0  0  0  0  0
   11.2502   -0.3261   22.4309 H   0  0  0  0  0  0  0  0  0  0  0  0
   11.9674   -0.6123   20.8392 H   0  0  0  0  0  0  0  0  0  0  0  0
   11.2832    0.9724   21.2108 H   0  0  0  0  0  0  0  0  0  0  0  0
  1  2  1  0
  2  3  1  0
  3  4  2  0
  3  5  1  0
  5  6  1  0
  6  7  1  0
  7  8  1  0
  8  9  1  0
  9 10  1  0
 10 11  2  0
 11 12  1  0
 12 13  2  0
 13 14  1  0
 14 15  2  0
 15 16  1  0
 15 17  1  0
 17 18  2  0
 18 19  1  0
 19 20  2  0
 20 21  1  0
 18 22  1  0
 17 23  1  0
 14 24  1  0
 12 25  1  0
 11 26  1  0
  8 27  1  0
  8 28  1  0
  7 29  1  0
  7 30  1  0
  6 31  1  0
  6 32  1  0
  5 33  1  0
 33 34  2  0
 34 35  1  0
 35 36  2  0
 36 37  1  0
 37 38  2  0
 38 39  1  0
 36 40  1  0
 35 41  1  0
 34 42  1  0
  5 43  1  0
  1 44  1  0
  1 45  1  0
  1 46  1  0
 20 10  1  0
 38 33  1  0
 19 13  1  0
M  CHG  1   6   1
M  END
>  <plip>  (1) 
-0.10714285714285714

>  <filename>  (1) 
[H][c]1[n][c]([H])[c]([C]([H])([C](=[O])[O][C]([H])([H])[H])[N+]([H])([H])[C]([H])([H])[C]([H])([H])[O][c]2[c]([H])[c]([H])[c]3[c]([H])[c]([Br])[c]([H])[c]([H])[c]3[c]2[H])[c]([H])[c]1[H]

$$$$
