
     RDKit          3D

 32 33  0  0  0  0  0  0  0  0999 V2000
    7.9796   -3.0525   23.0052 H   0  0  0  0  0  0  0  0  0  0  0  0
    8.5390   -2.2679   22.8532 O   0  0  0  0  0  0  0  0  0  0  0  0
    7.7542   -1.1795   23.2687 N   0  0  0  0  0  0  0  0  0  0  0  0
    7.3371   -0.2029   22.3195 C   0  0  0  0  0  0  0  0  0  0  0  0
    6.9693    0.8965   22.6767 O   0  0  0  0  0  0  0  0  0  0  0  0
    7.3529   -0.6432   21.0096 N   0  0  0  0  0  0  0  0  0  0  0  0
    7.9355   -1.4534   20.8700 H   0  0  0  0  0  0  0  0  0  0  0  0
    6.6855   -0.0078   19.9231 C   0  0  0  0  0  0  0  0  0  0  0  0
    7.1945    0.0216   18.6031 C   0  0  0  0  0  0  0  0  0  0  0  0
    8.1454   -0.4565   18.3618 H   0  0  0  0  0  0  0  0  0  0  0  0
    6.5790    0.6456   17.5872 N   0  0  0  0  0  0  0  0  0  0  0  0
    5.4180    1.2738   17.8393 C   0  0  0  0  0  0  0  0  0  0  0  0
    4.9578    1.7901   17.0011 H   0  0  0  0  0  0  0  0  0  0  0  0
    4.8159    1.2923   19.1009 C   0  0  0  0  0  0  0  0  0  0  0  0
    3.8799    1.8291   19.2511 H   0  0  0  0  0  0  0  0  0  0  0  0
    5.4646    0.6462   20.1566 C   0  0  0  0  0  0  0  0  0  0  0  0
    5.0632    0.6615   21.1652 H   0  0  0  0  0  0  0  0  0  0  0  0
    7.7198   -0.9225   24.6740 C   0  0  0  0  0  0  0  0  0  0  0  0
    8.8021   -1.2474   25.5168 C   0  0  0  0  0  0  0  0  0  0  0  0
    9.6954   -1.6790   25.0849 H   0  0  0  0  0  0  0  0  0  0  0  0
    8.7189   -0.9842   26.8864 C   0  0  0  0  0  0  0  0  0  0  0  0
    9.5501   -1.2224   27.5519 H   0  0  0  0  0  0  0  0  0  0  0  0
    7.5639   -0.4073   27.4262 C   0  0  0  0  0  0  0  0  0  0  0  0
    7.4850   -0.1512   28.4715 H   0  0  0  0  0  0  0  0  0  0  0  0
    6.4956   -0.1266   26.5770 C   0  0  0  0  0  0  0  0  0  0  0  0
    5.2824    0.4142   26.9864 O   0  0  0  0  0  0  0  0  0  0  0  0
    5.0332    0.7010   28.2788 C   0  0  0  0  0  0  0  0  0  0  0  0
    3.8109    1.2074   28.3374 F   0  0  0  0  0  0  0  0  0  0  0  0
    5.0804   -0.3786   29.0763 F   0  0  0  0  0  0  0  0  0  0  0  0
    5.8860    1.6053   28.7913 F   0  0  0  0  0  0  0  0  0  0  0  0
    6.5624   -0.3478   25.2107 C   0  0  0  0  0  0  0  0  0  0  0  0
    5.7293   -0.0513   24.5889 H   0  0  0  0  0  0  0  0  0  0  0  0
  1  2  1  0
  2  3  1  0
  3  4  1  0
  4  5  2  0
  4  6  1  0
  6  7  1  0
  6  8  1  0
  8  9  2  0
  9 10  1  0
  9 11  1  0
 11 12  2  0
 12 13  1  0
 12 14  1  0
 14 15  1  0
 14 16  2  0
 16 17  1  0
  3 18  1  0
 18 19  2  0
 19 20  1  0
 19 21  1  0
 21 22  1  0
 21 23  2  0
 23 24  1  0
 23 25  1  0
 25 26  1  0
 26 27  1  0
 27 28  1  0
 27 29  1  0
 27 30  1  0
 25 31  2  0
 31 32  1  0
 16  8  1  0
 31 18  1  0
M  END
>  <plip>  (1) 
-0.0

>  <filename>  (1) 
[H][O][N]([C](=[O])[N]([H])[c]1[c]([H])[n][c]([H])[c]([H])[c]1[H])[c]1[c]([H])[c]([H])[c]([H])[c]([O][C]([F])([F])[F])[c]1[H]

$$$$
