
     RDKit          3D

 37 39  0  0  0  0  0  0  0  0999 V2000
    8.8090   -1.2026   20.9146 C   0  0  0  0  0  0  0  0  0  0  0  0
    7.4301   -0.5737   21.2558 C   0  0  0  0  0  0  0  0  0  0  0  0
    7.6991    0.5500   22.2873 C   0  0  0  0  0  0  0  0  0  0  0  0
    8.3755    1.2817   21.8299 H   0  0  0  0  0  0  0  0  0  0  0  0
    8.1793    0.1401   23.1808 H   0  0  0  0  0  0  0  0  0  0  0  0
    6.7863    1.0726   22.5926 H   0  0  0  0  0  0  0  0  0  0  0  0
    6.7138    0.0498   20.0347 C   0  0  0  0  0  0  0  0  0  0  0  0
    5.4691    0.6898   20.1916 C   0  0  0  0  0  0  0  0  0  0  0  0
    4.8805    1.3225   19.0924 C   0  0  0  0  0  0  0  0  0  0  0  0
    5.5412    1.2943   17.8596 C   0  0  0  0  0  0  0  0  0  0  0  0
    6.7084    0.6627   17.6777 N   0  0  0  0  0  0  0  0  0  0  0  0
    7.2601    0.0628   18.7416 C   0  0  0  0  0  0  0  0  0  0  0  0
    8.2024   -0.4453   18.5479 H   0  0  0  0  0  0  0  0  0  0  0  0
    5.1117    1.7749   16.9794 H   0  0  0  0  0  0  0  0  0  0  0  0
    3.9291    1.8387   19.1703 H   0  0  0  0  0  0  0  0  0  0  0  0
    4.9637    0.6973   21.1611 H   0  0  0  0  0  0  0  0  0  0  0  0
    6.5748   -1.6937   21.8326 C   0  0  0  0  0  0  0  0  0  0  0  0
    5.9480   -2.6216   21.1861 N   0  0  0  0  0  0  0  0  0  0  0  0
    5.3090   -3.4114   22.1373 N   0  0  0  0  0  0  0  0  0  0  0  0
    5.6093   -2.9019   23.2842 C   0  0  0  0  0  0  0  0  0  0  0  0
    5.0631   -3.2056   24.6243 C   0  0  0  0  0  0  0  0  0  0  0  0
    5.9938   -4.0762   25.4067 C   0  0  0  0  0  0  0  0  0  0  0  0
    7.0787   -3.5502   26.1186 C   0  0  0  0  0  0  0  0  0  0  0  0
    7.9189   -4.4222   26.8149 C   0  0  0  0  0  0  0  0  0  0  0  0
    7.6156   -5.7882   26.7807 C   0  0  0  0  0  0  0  0  0  0  0  0
    6.4853   -6.2064   26.0713 C   0  0  0  0  0  0  0  0  0  0  0  0
    5.7014   -5.3788   25.3693 N   0  0  0  0  0  0  0  0  0  0  0  0
    6.1869   -7.2539   26.0628 H   0  0  0  0  0  0  0  0  0  0  0  0
    8.2249   -6.5237   27.2918 H   0  0  0  0  0  0  0  0  0  0  0  0
    8.7876   -4.0500   27.3608 H   0  0  0  0  0  0  0  0  0  0  0  0
    7.2254   -2.4754   26.1315 H   0  0  0  0  0  0  0  0  0  0  0  0
    4.1294   -3.7488   24.4827 H   0  0  0  0  0  0  0  0  0  0  0  0
    4.8774   -2.2564   25.1327 H   0  0  0  0  0  0  0  0  0  0  0  0
    6.4555   -1.8529   23.1838 O   0  0  0  0  0  0  0  0  0  0  0  0
    9.4093   -0.5233   20.2948 H   0  0  0  0  0  0  0  0  0  0  0  0
    9.3508   -1.3776   21.8497 H   0  0  0  0  0  0  0  0  0  0  0  0
    8.7168   -2.1671   20.4126 H   0  0  0  0  0  0  0  0  0  0  0  0
  1  2  1  0
  2  3  1  0
  3  4  1  0
  3  5  1  0
  3  6  1  0
  2  7  1  0
  7  8  2  0
  8  9  1  0
  9 10  2  0
 10 11  1  0
 11 12  2  0
 12 13  1  0
 10 14  1  0
  9 15  1  0
  8 16  1  0
  2 17  1  0
 17 18  2  0
 18 19  1  0
 19 20  2  0
 20 21  1  0
 21 22  1  0
 22 23  2  0
 23 24  1  0
 24 25  2  0
 25 26  1  0
 26 27  2  0
 26 28  1  0
 25 29  1  0
 24 30  1  0
 23 31  1  0
 21 32  1  0
 21 33  1  0
 20 34  1  0
  1 35  1  0
  1 36  1  0
  1 37  1  0
 12  7  1  0
 34 17  1  0
 27 22  1  0
M  END
>  <plip>  (1) 
-0.10714285714285714

>  <filename>  (1) 
[H][c]1[n][c]([C]([H])([H])[c]2[n][n][c]([C]([c]3[c]([H])[n][c]([H])[c]([H])[c]3[H])([C]([H])([H])[H])[C]([H])([H])[H])[o]2)[c]([H])[c]([H])[c]1[H]

$$$$
