
     RDKit          3D

 36 38  0  0  0  0  0  0  0  0999 V2000
    4.9396    1.7953   16.9984 H   0  0  0  0  0  0  0  0  0  0  0  0
    5.4082    1.2846   17.8375 C   0  0  0  0  0  0  0  0  0  0  0  0
    6.5701    0.6615   17.5765 N   0  0  0  0  0  0  0  0  0  0  0  0
    7.1680    0.0144   18.5827 C   0  0  0  0  0  0  0  0  0  0  0  0
    8.1208   -0.4586   18.3556 H   0  0  0  0  0  0  0  0  0  0  0  0
    6.6424   -0.0250   19.8888 C   0  0  0  0  0  0  0  0  0  0  0  0
    7.3379   -0.6964   20.9435 N   0  0  0  0  0  0  0  0  0  0  0  0
    7.7146   -1.9773   20.6453 N   0  0  0  0  0  0  0  0  0  0  0  0
    8.3483   -2.6571   21.5477 C   0  0  0  0  0  0  0  0  0  0  0  0
    8.5864   -3.6736   21.2404 H   0  0  0  0  0  0  0  0  0  0  0  0
    8.7226   -2.1302   22.8428 C   0  0  0  0  0  0  0  0  0  0  0  0
    9.4016   -2.9970   23.8807 C   0  0  0  0  0  0  0  0  0  0  0  0
   10.0500   -2.3687   24.5053 H   0  0  0  0  0  0  0  0  0  0  0  0
   10.0674   -3.7224   23.3975 H   0  0  0  0  0  0  0  0  0  0  0  0
    8.3839   -3.7093   24.7584 C   0  0  0  0  0  0  0  0  0  0  0  0
    7.8610   -3.0787   25.9019 C   0  0  0  0  0  0  0  0  0  0  0  0
    8.2197   -2.0868   26.1805 H   0  0  0  0  0  0  0  0  0  0  0  0
    6.8750   -3.6922   26.6783 C   0  0  0  0  0  0  0  0  0  0  0  0
    6.4786   -3.1867   27.5579 H   0  0  0  0  0  0  0  0  0  0  0  0
    6.3725   -4.9474   26.3009 C   0  0  0  0  0  0  0  0  0  0  0  0
    5.3557   -5.6859   27.1466 C   0  0  0  0  0  0  0  0  0  0  0  0
    5.9441   -6.4518   28.0870 F   0  0  0  0  0  0  0  0  0  0  0  0
    4.5253   -4.8407   27.7863 F   0  0  0  0  0  0  0  0  0  0  0  0
    4.5869   -6.5119   26.4062 F   0  0  0  0  0  0  0  0  0  0  0  0
    6.8442   -5.5509   25.1274 C   0  0  0  0  0  0  0  0  0  0  0  0
    6.3384   -6.4420   24.7877 H   0  0  0  0  0  0  0  0  0  0  0  0
    7.8654   -4.9585   24.3850 C   0  0  0  0  0  0  0  0  0  0  0  0
    8.2505   -5.4506   23.4925 H   0  0  0  0  0  0  0  0  0  0  0  0
    8.3456   -0.8496   23.1252 C   0  0  0  0  0  0  0  0  0  0  0  0
    8.5477   -0.3602   24.0730 H   0  0  0  0  0  0  0  0  0  0  0  0
    7.6249   -0.0165   22.1815 C   0  0  0  0  0  0  0  0  0  0  0  0
    7.2959    1.1417   22.3792 O   0  0  0  0  0  0  0  0  0  0  0  0
    5.4411    0.6301   20.1558 C   0  0  0  0  0  0  0  0  0  0  0  0
    5.0488    0.6449   21.1703 H   0  0  0  0  0  0  0  0  0  0  0  0
    4.8106    1.2910   19.0982 C   0  0  0  0  0  0  0  0  0  0  0  0
    3.8880    1.8325   19.2557 H   0  0  0  0  0  0  0  0  0  0  0  0
  1  2  1  0
  2  3  2  0
  3  4  1  0
  4  5  1  0
  4  6  2  0
  6  7  1  0
  7  8  1  0
  8  9  2  0
  9 10  1  0
  9 11  1  0
 11 12  1  0
 12 13  1  0
 12 14  1  0
 12 15  1  0
 15 16  2  0
 16 17  1  0
 16 18  1  0
 18 19  1  0
 18 20  2  0
 20 21  1  0
 21 22  1  0
 21 23  1  0
 21 24  1  0
 20 25  1  0
 25 26  1  0
 25 27  2  0
 27 28  1  0
 11 29  2  0
 29 30  1  0
 29 31  1  0
 31 32  2  0
  6 33  1  0
 33 34  1  0
 33 35  2  0
 35 36  1  0
 35  2  1  0
 31  7  1  0
 27 15  1  0
M  END
>  <plip>  (1) 
-0.03571428571428571

>  <filename>  (1) 
[H][c]1[n][c]([H])[c](-[n]2[n][c]([H])[c]([C]([H])([H])[c]3[c]([H])[c]([H])[c]([C]([F])([F])[F])[c]([H])[c]3[H])[c]([H])[c]2=[O])[c]([H])[c]1[H]

$$$$
