
     RDKit          3D

 38 40  0  0  0  0  0  0  0  0999 V2000
    8.2014   -0.5310   23.0858 C   0  0  0  0  0  0  0  0  0  0  0  0
    7.7428    0.0555   21.7888 N   0  0  0  0  0  4  0  0  0  0  0  0
    7.1658   -0.9703   20.8355 C   0  0  0  0  0  0  0  0  0  0  0  0
    6.4586   -0.2152   19.7456 C   0  0  0  0  0  0  0  0  0  0  0  0
    5.3210    0.5516   20.0218 C   0  0  0  0  0  0  0  0  0  0  0  0
    4.7983    1.3531   19.0050 C   0  0  0  0  0  0  0  0  0  0  0  0
    5.4311    1.3755   17.7589 C   0  0  0  0  0  0  0  0  0  0  0  0
    6.5189    0.6425   17.4774 N   0  0  0  0  0  0  0  0  0  0  0  0
    7.0078   -0.1252   18.4595 C   0  0  0  0  0  0  0  0  0  0  0  0
    7.9156   -0.6791   18.2185 H   0  0  0  0  0  0  0  0  0  0  0  0
    5.0452    2.0032   16.9562 H   0  0  0  0  0  0  0  0  0  0  0  0
    3.9501    2.0013   19.1845 H   0  0  0  0  0  0  0  0  0  0  0  0
    4.8655    0.5296   21.0166 H   0  0  0  0  0  0  0  0  0  0  0  0
    6.4873   -1.6335   21.3885 H   0  0  0  0  0  0  0  0  0  0  0  0
    7.9875   -1.5780   20.4365 H   0  0  0  0  0  0  0  0  0  0  0  0
    8.8973    0.8665   21.1320 C   0  0  0  0  0  0  0  0  0  0  0  0
    9.3727    2.0599   21.9128 C   0  0  0  0  0  0  0  0  0  0  0  0
    8.7104    3.1640   22.1375 N   0  0  0  0  0  0  0  0  0  0  0  0
    9.5656    3.9379   22.9125 C   0  0  0  0  0  0  0  0  0  0  0  0
    9.3908    5.2141   23.4819 C   0  0  0  0  0  0  0  0  0  0  0  0
   10.4152    5.6996   24.2978 C   0  0  0  0  0  0  0  0  0  0  0  0
   10.3451    7.0483   25.0606 C   0  0  0  0  0  0  0  0  0  0  0  0
   11.2825    7.2667   25.8743 O   0  0  0  0  0  0  0  0  0  0  0  0
    9.4110    7.8594   24.8636 O   0  0  0  0  0  1  0  0  0  0  0  0
   11.6195    4.9738   24.5150 C   0  0  0  0  0  0  0  0  0  0  0  0
   11.8275    3.7475   23.9007 C   0  0  0  0  0  0  0  0  0  0  0  0
   10.7736    3.2470   23.1363 C   0  0  0  0  0  0  0  0  0  0  0  0
   10.6190    2.0604   22.4700 N   0  0  0  0  0  0  0  0  0  0  0  0
   11.2630    1.2914   22.4717 H   0  0  0  0  0  0  0  0  0  0  0  0
   12.7619    3.2020   23.9845 H   0  0  0  0  0  0  0  0  0  0  0  0
   12.3810    5.3688   25.1841 H   0  0  0  0  0  0  0  0  0  0  0  0
    8.4760    5.7541   23.2415 H   0  0  0  0  0  0  0  0  0  0  0  0
    9.7399    0.1840   20.9787 H   0  0  0  0  0  0  0  0  0  0  0  0
    8.5319    1.2083   20.1658 H   0  0  0  0  0  0  0  0  0  0  0  0
    6.9770    0.7624   21.9321 H   0  0  0  0  0  0  0  0  0  0  0  0
    7.3964   -1.0768   23.5944 H   0  0  0  0  0  0  0  0  0  0  0  0
    8.5801    0.2481   23.7532 H   0  0  0  0  0  0  0  0  0  0  0  0
    9.0205   -1.2370   22.8968 H   0  0  0  0  0  0  0  0  0  0  0  0
  1  2  1  0
  2  3  1  0
  3  4  1  0
  4  5  2  0
  5  6  1  0
  6  7  2  0
  7  8  1  0
  8  9  2  0
  9 10  1  0
  7 11  1  0
  6 12  1  0
  5 13  1  0
  3 14  1  0
  3 15  1  0
  2 16  1  0
 16 17  1  0
 17 18  2  0
 18 19  1  0
 19 20  2  0
 20 21  1  0
 21 22  1  0
 22 23  2  0
 22 24  1  0
 21 25  2  0
 25 26  1  0
 26 27  2  0
 27 28  1  0
 28 29  1  0
 26 30  1  0
 25 31  1  0
 20 32  1  0
 16 33  1  0
 16 34  1  0
  2 35  1  0
  1 36  1  0
  1 37  1  0
  1 38  1  0
  9  4  1  0
 28 17  1  0
 27 19  1  0
M  CHG  2   2   1  24  -1
M  END
>  <plip>  (1) 
-0.17857142857142858

>  <filename>  (1) 
[H][c]1[n][c]([H])[c]([C]([H])([H])[N+]([H])([C]([H])([H])[H])[C]([H])([H])[c]2[n][c]3[c]([H])[c]([C](=[O])[O-])[c]([H])[c]([H])[c]3[n]2[H])[c]([H])[c]1[H]

$$$$
