
     RDKit          3D

 30 31  0  0  0  0  0  0  0  0999 V2000
    4.9868    1.7313   16.9860 H   0  0  0  0  0  0  0  0  0  0  0  0
    5.4498    1.2555   17.8469 C   0  0  0  0  0  0  0  0  0  0  0  0
    6.6110    0.6191   17.6127 N   0  0  0  0  0  0  0  0  0  0  0  0
    7.1968    0.0072   18.6432 C   0  0  0  0  0  0  0  0  0  0  0  0
    8.1409   -0.5007   18.4458 H   0  0  0  0  0  0  0  0  0  0  0  0
    6.6681    0.0102   19.9547 C   0  0  0  0  0  0  0  0  0  0  0  0
    7.3237   -0.6776   21.0006 N   0  0  0  0  0  0  0  0  0  0  0  0
    7.3666   -0.3991   22.3794 C   0  0  0  0  0  0  0  0  0  0  0  0
    6.7098    0.4154   22.9947 O   0  0  0  0  0  0  0  0  0  0  0  0
    8.3442   -1.3324   22.8408 C   0  0  0  0  0  0  0  0  0  0  0  0
    8.7426   -1.2620   24.4834 S   0  0  0  0  0  0  0  0  0  0  0  0
    9.8605   -2.1687   24.6645 O   0  0  0  0  0  0  0  0  0  0  0  0
    8.7653    0.1113   24.9183 O   0  0  0  0  0  0  0  0  0  0  0  0
    7.4462   -1.9818   25.2042 N   0  0  0  0  0  0  0  0  0  0  0  0
    6.2365   -1.1986   25.4039 C   0  0  0  0  0  0  0  0  0  0  0  0
    5.6335   -1.6751   26.1861 H   0  0  0  0  0  0  0  0  0  0  0  0
    5.6405   -1.1037   24.4946 H   0  0  0  0  0  0  0  0  0  0  0  0
    6.4992   -0.1966   25.7414 H   0  0  0  0  0  0  0  0  0  0  0  0
    7.3341   -3.4261   25.0733 C   0  0  0  0  0  0  0  0  0  0  0  0
    8.3107   -3.8806   25.2472 H   0  0  0  0  0  0  0  0  0  0  0  0
    6.6573   -3.8038   25.8491 H   0  0  0  0  0  0  0  0  0  0  0  0
    6.9695   -3.7454   24.0874 H   0  0  0  0  0  0  0  0  0  0  0  0
    8.7497   -2.1587   21.8661 C   0  0  0  0  0  0  0  0  0  0  0  0
    9.3532   -3.0607   21.8930 H   0  0  0  0  0  0  0  0  0  0  0  0
    8.2185   -1.7088   20.6789 N   0  0  0  0  0  0  0  0  0  0  0  0
    7.8401   -2.3760   20.0109 H   0  0  0  0  0  0  0  0  0  0  0  0
    5.4708    0.6966   20.1971 C   0  0  0  0  0  0  0  0  0  0  0  0
    5.0684    0.7467   21.2063 H   0  0  0  0  0  0  0  0  0  0  0  0
    4.8511    1.3157   19.1089 C   0  0  0  0  0  0  0  0  0  0  0  0
    3.9170    1.8510   19.2300 H   0  0  0  0  0  0  0  0  0  0  0  0
  1  2  1  0
  2  3  2  0
  3  4  1  0
  4  5  1  0
  4  6  2  0
  6  7  1  0
  7  8  1  0
  8  9  2  0
  8 10  1  0
 10 11  1  0
 11 12  2  0
 11 13  2  0
 11 14  1  0
 14 15  1  0
 15 16  1  0
 15 17  1  0
 15 18  1  0
 14 19  1  0
 19 20  1  0
 19 21  1  0
 19 22  1  0
 10 23  2  0
 23 24  1  0
 23 25  1  0
 25 26  1  0
  6 27  1  0
 27 28  1  0
 27 29  2  0
 29 30  1  0
 29  2  1  0
 25  7  1  0
M  END
>  <plip>  (1) 
-0.034482758620689655

>  <filename>  (1) 
[H][c]1[n][c]([H])[c](-[n]2[c](=[O])[c]([S](=[O])(=[O])[N]([C]([H])([H])[H])[C]([H])([H])[H])[c]([H])[n]2[H])[c]([H])[c]1[H]

$$$$
