
     RDKit          3D

 48 52  0  0  0  0  0  0  0  0999 V2000
    9.5383    0.6986   20.2761 O   0  0  0  0  0  0  0  0  0  0  0  0
    9.1259    0.9266   21.4096 C   0  0  0  0  0  0  0  0  0  0  0  0
    8.0231    0.3195   21.9200 N   0  0  0  0  0  0  0  0  0  0  0  0
    7.1774   -0.6360   21.2085 C   0  0  0  0  0  0  0  0  0  0  0  0
    6.5334    0.0313   19.9985 C   0  0  0  0  0  0  0  0  0  0  0  0
    5.3227    0.7180   20.1534 C   0  0  0  0  0  0  0  0  0  0  0  0
    4.7542    1.3536   19.0484 C   0  0  0  0  0  0  0  0  0  0  0  0
    5.4241    1.2873   17.8214 C   0  0  0  0  0  0  0  0  0  0  0  0
    6.5923    0.6523   17.6530 N   0  0  0  0  0  0  0  0  0  0  0  0
    7.1340    0.0620   18.7315 C   0  0  0  0  0  0  0  0  0  0  0  0
    8.1179   -0.3788   18.5762 H   0  0  0  0  0  0  0  0  0  0  0  0
    5.0059    1.7651   16.9372 H   0  0  0  0  0  0  0  0  0  0  0  0
    3.8227    1.9042   19.1291 H   0  0  0  0  0  0  0  0  0  0  0  0
    4.8480    0.7665   21.1353 H   0  0  0  0  0  0  0  0  0  0  0  0
    7.8926   -1.9799   20.9102 C   0  0  0  0  0  0  0  0  0  0  0  0
    8.6536   -2.6355   22.0930 C   0  0  0  0  0  0  0  0  0  0  0  0
    7.8330   -3.8966   22.4050 C   0  0  0  0  0  0  0  0  0  0  0  0
    7.1968   -4.1984   21.0544 C   0  0  0  0  0  0  0  0  0  0  0  0
    6.8955   -2.9241   20.5102 O   0  0  0  0  0  0  0  0  0  0  0  0
    7.8923   -4.7664   20.4179 H   0  0  0  0  0  0  0  0  0  0  0  0
    6.2666   -4.7713   21.1091 H   0  0  0  0  0  0  0  0  0  0  0  0
    8.4476   -4.7220   22.7794 H   0  0  0  0  0  0  0  0  0  0  0  0
    7.0481   -3.6860   23.1419 H   0  0  0  0  0  0  0  0  0  0  0  0
    8.7545   -1.9669   22.9546 H   0  0  0  0  0  0  0  0  0  0  0  0
    9.6715   -2.8910   21.7668 H   0  0  0  0  0  0  0  0  0  0  0  0
    8.5957   -1.7892   20.0925 H   0  0  0  0  0  0  0  0  0  0  0  0
    6.3725   -0.9053   21.9013 H   0  0  0  0  0  0  0  0  0  0  0  0
    7.7159    0.6566   22.8197 H   0  0  0  0  0  0  0  0  0  0  0  0
    9.8322    1.9002   22.3420 C   0  0  0  0  0  0  0  0  0  0  0  0
    9.4330    2.1529   23.5967 N   0  0  0  0  0  0  0  0  0  0  0  0
   10.2797    3.0733   24.0645 N   0  0  0  0  0  0  0  0  0  0  0  0
   11.2237    3.4299   23.1635 C   0  0  0  0  0  0  0  0  0  0  0  0
   12.2193    4.4801   23.1657 C   0  0  0  0  0  0  0  0  0  0  0  0
   12.8935    4.6827   21.9391 C   0  0  0  0  0  0  0  0  0  0  0  0
   12.7843    3.8450   20.8710 O   0  0  0  0  0  0  0  0  0  0  0  0
   11.8154    2.7945   20.8042 C   0  0  0  0  0  0  0  0  0  0  0  0
   10.9680    2.6782   22.0346 C   0  0  0  0  0  0  0  0  0  0  0  0
   11.2101    2.9616   19.9138 H   0  0  0  0  0  0  0  0  0  0  0  0
   12.3322    1.8469   20.6293 H   0  0  0  0  0  0  0  0  0  0  0  0
   13.7052    5.8083   21.7618 C   0  0  0  0  0  0  0  0  0  0  0  0
   13.8216    6.7491   22.7735 C   0  0  0  0  0  0  0  0  0  0  0  0
   13.1956    6.5337   24.0158 C   0  0  0  0  0  0  0  0  0  0  0  0
   12.4452    5.3862   24.2209 C   0  0  0  0  0  0  0  0  0  0  0  0
   12.0010    5.1771   25.1884 H   0  0  0  0  0  0  0  0  0  0  0  0
   13.2966    7.2562   24.8197 H   0  0  0  0  0  0  0  0  0  0  0  0
   14.4551    7.6209   22.6196 H   0  0  0  0  0  0  0  0  0  0  0  0
   14.2190    5.9238   20.8200 H   0  0  0  0  0  0  0  0  0  0  0  0
   10.1651    3.4024   25.0136 H   0  0  0  0  0  0  0  0  0  0  0  0
  1  2  2  0
  2  3  1  0
  3  4  1  0
  4  5  1  0
  5  6  2  0
  6  7  1  0
  7  8  2  0
  8  9  1  0
  9 10  2  0
 10 11  1  0
  8 12  1  0
  7 13  1  0
  6 14  1  0
  4 15  1  0
 15 16  1  0
 16 17  1  0
 17 18  1  0
 18 19  1  0
 18 20  1  0
 18 21  1  0
 17 22  1  0
 17 23  1  0
 16 24  1  0
 16 25  1  0
 15 26  1  0
  4 27  1  0
  3 28  1  0
  2 29  1  0
 29 30  2  0
 30 31  1  0
 31 32  1  0
 32 33  1  0
 33 34  2  0
 34 35  1  0
 35 36  1  0
 36 37  1  0
 36 38  1  0
 36 39  1  0
 34 40  1  0
 40 41  2  0
 41 42  1  0
 42 43  2  0
 43 44  1  0
 42 45  1  0
 41 46  1  0
 40 47  1  0
 31 48  1  0
 10  5  1  0
 19 15  1  0
 37 29  1  0
 37 32  2  0
 43 33  1  0
M  END
>  <plip>  (1) 
-0.1

>  <filename>  (1) 
[H][c]1[n][c]([H])[c]([C]([H])([N]([H])[C](=[O])[c]2[n][n]([H])[c]3[c]2[C]([H])([H])[O][c]2[c]([H])[c]([H])[c]([H])[c]([H])[c]2-3)[C]2([H])[O][C]([H])([H])[C]([H])([H])[C]2([H])[H])[c]([H])[c]1[H]

$$$$
