
     RDKit          3D

 33 34  0  0  0  0  0  0  0  0999 V2000
    9.3902   -1.1326   21.0055 H   0  0  0  0  0  0  0  0  0  0  0  0
    8.6823   -1.6687   20.4533 N   0  0  0  0  0  0  0  0  0  0  0  0
    7.4789   -0.8581   21.2181 S   0  0  1  0  0  6  0  0  0  0  0  0
    8.1436    0.0520   22.1636 O   0  0  0  0  0  0  0  0  0  0  0  0
    6.5398   -0.0192   20.0092 C   0  0  0  0  0  0  0  0  0  0  0  0
    7.1549   -0.0351   18.7674 C   0  0  0  0  0  0  0  0  0  0  0  0
    8.1048   -0.5698   18.6643 H   0  0  0  0  0  0  0  0  0  0  0  0
    6.6216    0.5607   17.7061 N   0  0  0  0  0  0  0  0  0  0  0  0
    5.4639    1.2224   17.8752 C   0  0  0  0  0  0  0  0  0  0  0  0
    5.0755    1.7392   16.9988 H   0  0  0  0  0  0  0  0  0  0  0  0
    4.7834    1.2758   19.0951 C   0  0  0  0  0  0  0  0  0  0  0  0
    3.8673    1.8518   19.1621 H   0  0  0  0  0  0  0  0  0  0  0  0
    5.3207    0.6299   20.2105 C   0  0  0  0  0  0  0  0  0  0  0  0
    4.8084    0.6440   21.1727 H   0  0  0  0  0  0  0  0  0  0  0  0
    6.4787   -2.0838   21.9677 C   0  0  0  0  0  0  0  0  0  0  0  0
    6.2004   -2.1989   23.3233 C   0  0  0  0  0  0  0  0  0  0  0  0
    6.5664   -1.4768   24.0530 H   0  0  0  0  0  0  0  0  0  0  0  0
    5.3517   -3.2256   23.7535 C   0  0  0  0  0  0  0  0  0  0  0  0
    5.0201   -3.2651   24.7786 H   0  0  0  0  0  0  0  0  0  0  0  0
    4.8829   -4.1778   22.8400 C   0  0  0  0  0  0  0  0  0  0  0  0
    4.0299   -5.1968   23.1251 O   0  0  0  0  0  0  0  0  0  0  0  0
    3.5167   -5.3127   24.4373 C   0  0  0  0  0  0  0  0  0  0  0  0
    2.8692   -6.1899   24.4304 H   0  0  0  0  0  0  0  0  0  0  0  0
    2.9262   -4.4303   24.7233 H   0  0  0  0  0  0  0  0  0  0  0  0
    4.3233   -5.4587   25.1690 H   0  0  0  0  0  0  0  0  0  0  0  0
    5.2782   -4.1062   21.5042 C   0  0  0  0  0  0  0  0  0  0  0  0
    5.0077   -4.9250   20.8583 H   0  0  0  0  0  0  0  0  0  0  0  0
    6.0009   -3.0190   21.0509 C   0  0  0  0  0  0  0  0  0  0  0  0
    6.2461   -2.7452   19.7565 O   0  0  0  0  0  0  0  0  0  0  0  0
    5.8001   -3.6449   18.7598 C   0  0  0  0  0  0  0  0  0  0  0  0
    6.1526   -3.2220   17.8207 H   0  0  0  0  0  0  0  0  0  0  0  0
    6.2197   -4.6516   18.9054 H   0  0  0  0  0  0  0  0  0  0  0  0
    4.7111   -3.7066   18.7251 H   0  0  0  0  0  0  0  0  0  0  0  0
  1  2  1  0
  2  3  2  0
  3  4  2  0
  3  5  1  6
  5  6  2  0
  6  7  1  0
  6  8  1  0
  8  9  2  0
  9 10  1  0
  9 11  1  0
 11 12  1  0
 11 13  2  0
 13 14  1  0
  3 15  1  0
 15 16  2  0
 16 17  1  0
 16 18  1  0
 18 19  1  0
 18 20  2  0
 20 21  1  0
 21 22  1  0
 22 23  1  0
 22 24  1  0
 22 25  1  0
 20 26  1  0
 26 27  1  0
 26 28  2  0
 28 29  1  0
 29 30  1  0
 30 31  1  0
 30 32  1  0
 30 33  1  0
 13  5  1  0
 28 15  1  0
M  END
>  <plip>  (1) 
-0.06896551724137931

>  <filename>  (1) 
[H][N]=[S@@](=[O])([c]1[c]([H])[n][c]([H])[c]([H])[c]1[H])[c]1[c]([H])[c]([H])[c]([O][C]([H])([H])[H])[c]([H])[c]1[O][C]([H])([H])[H]

$$$$
