
     RDKit          3D

 44 46  0  0  0  0  0  0  0  0999 V2000
    6.0343   -2.8366   20.6583 C   0  0  0  0  0  0  0  0  0  0  0  0
    6.6452   -1.8282   21.6309 C   0  0  0  0  0  0  0  0  0  0  0  0
    7.4579   -2.5691   22.6956 C   0  0  0  0  0  0  0  0  0  0  0  0
    8.3422   -3.0343   22.2493 H   0  0  0  0  0  0  0  0  0  0  0  0
    6.8486   -3.3503   23.1631 H   0  0  0  0  0  0  0  0  0  0  0  0
    7.7828   -1.8728   23.4748 H   0  0  0  0  0  0  0  0  0  0  0  0
    7.5063   -0.7627   20.9227 C   0  0  0  0  0  0  0  0  0  0  0  0
    7.9153    0.3259   21.9322 C   0  0  0  0  0  0  0  0  0  0  0  0
    7.0300    0.8824   22.5791 O   0  0  0  0  0  0  0  0  0  0  0  0
    9.1796    0.9040   21.8461 N   0  0  0  0  0  0  0  0  0  0  0  0
   10.3556    0.0279   21.7946 C   0  0  0  0  0  0  0  0  0  0  0  0
   11.4986    0.5611   22.6738 C   0  0  0  0  0  0  0  0  0  0  0  0
   11.8147    2.0060   22.2913 C   0  0  0  0  0  0  0  0  0  0  0  0
   10.5582    2.8458   22.4184 C   0  0  0  0  0  0  0  0  0  0  0  0
   10.6122    4.1920   22.8290 C   0  0  0  0  0  0  0  0  0  0  0  0
    9.4639    4.9943   22.8030 C   0  0  0  0  0  0  0  0  0  0  0  0
    9.5603    6.8427   23.3026 Br  0  0  0  0  0  0  0  0  0  0  0  0
    8.2566    4.4651   22.3440 C   0  0  0  0  0  0  0  0  0  0  0  0
    8.1751    3.1148   22.0008 C   0  0  0  0  0  0  0  0  0  0  0  0
    9.3085    2.2823   22.0918 C   0  0  0  0  0  0  0  0  0  0  0  0
    7.2164    2.7149   21.6763 H   0  0  0  0  0  0  0  0  0  0  0  0
    7.3913    5.1167   22.2529 H   0  0  0  0  0  0  0  0  0  0  0  0
   11.5336    4.6690   23.1480 H   0  0  0  0  0  0  0  0  0  0  0  0
   12.6252    2.4091   22.9081 H   0  0  0  0  0  0  0  0  0  0  0  0
   12.1588    2.0183   21.2537 H   0  0  0  0  0  0  0  0  0  0  0  0
   12.3862   -0.0719   22.5504 H   0  0  0  0  0  0  0  0  0  0  0  0
   11.2018    0.5256   23.7252 H   0  0  0  0  0  0  0  0  0  0  0  0
   10.6982   -0.0779   20.7644 H   0  0  0  0  0  0  0  0  0  0  0  0
   10.0899   -0.9740   22.1457 H   0  0  0  0  0  0  0  0  0  0  0  0
    6.7247   -0.0827   19.7983 C   0  0  0  0  0  0  0  0  0  0  0  0
    5.5305    0.5787   20.0957 C   0  0  0  0  0  0  0  0  0  0  0  0
    4.8806    1.2609   19.0694 C   0  0  0  0  0  0  0  0  0  0  0  0
    5.4314    1.2722   17.7827 C   0  0  0  0  0  0  0  0  0  0  0  0
    6.5684    0.6178   17.4794 N   0  0  0  0  0  0  0  0  0  0  0  0
    7.1948   -0.0460   18.4698 C   0  0  0  0  0  0  0  0  0  0  0  0
    8.1310   -0.5448   18.2413 H   0  0  0  0  0  0  0  0  0  0  0  0
    4.9105    1.8150   16.9997 H   0  0  0  0  0  0  0  0  0  0  0  0
    3.9651    1.8075   19.2664 H   0  0  0  0  0  0  0  0  0  0  0  0
    5.1392    0.5838   21.1130 H   0  0  0  0  0  0  0  0  0  0  0  0
    8.4021   -1.2388   20.5151 H   0  0  0  0  0  0  0  0  0  0  0  0
    5.8261   -1.3075   22.1203 H   0  0  0  0  0  0  0  0  0  0  0  0
    5.5048   -2.3166   19.8548 H   0  0  0  0  0  0  0  0  0  0  0  0
    6.8079   -3.4652   20.2196 H   0  0  0  0  0  0  0  0  0  0  0  0
    5.3246   -3.4861   21.1803 H   0  0  0  0  0  0  0  0  0  0  0  0
  1  2  1  0
  2  3  1  0
  3  4  1  0
  3  5  1  0
  3  6  1  0
  2  7  1  0
  7  8  1  0
  8  9  2  0
  8 10  1  0
 10 11  1  0
 11 12  1  0
 12 13  1  0
 13 14  1  0
 14 15  2  0
 15 16  1  0
 16 17  1  0
 16 18  2  0
 18 19  1  0
 19 20  2  0
 19 21  1  0
 18 22  1  0
 15 23  1  0
 13 24  1  0
 13 25  1  0
 12 26  1  0
 12 27  1  0
 11 28  1  0
 11 29  1  0
  7 30  1  0
 30 31  2  0
 31 32  1  0
 32 33  2  0
 33 34  1  0
 34 35  2  0
 35 36  1  0
 33 37  1  0
 32 38  1  0
 31 39  1  0
  7 40  1  0
  2 41  1  0
  1 42  1  0
  1 43  1  0
  1 44  1  0
 20 10  1  0
 35 30  1  0
 20 14  1  0
M  END
>  <plip>  (1) 
-0.07142857142857142

>  <filename>  (1) 
[H][c]1[n][c]([H])[c]([C]([H])([C](=[O])[N]2[c]3[c]([H])[c]([H])[c]([Br])[c]([H])[c]3[C]([H])([H])[C]([H])([H])[C]2([H])[H])[C]([H])([C]([H])([H])[H])[C]([H])([H])[H])[c]([H])[c]1[H]

$$$$
