
     RDKit          3D

 36 37  0  0  0  0  0  0  0  0999 V2000
    6.1749   -2.7786   21.4732 C   0  0  0  0  0  0  0  0  0  0  0  0
    7.3970   -2.0705   20.9187 C   0  0  0  0  0  0  0  0  0  0  0  0
    7.3454   -0.6111   21.0186 N   0  0  0  0  0  0  0  0  0  0  0  0
    7.7455   -0.0243   22.2148 C   0  0  0  0  0  0  0  0  0  0  0  0
    7.9595   -0.6906   23.2144 O   0  0  0  0  0  0  0  0  0  0  0  0
    8.0546    1.4684   22.1719 C   0  0  0  0  0  0  0  0  0  0  0  0
    9.2925    1.7748   21.2796 C   0  0  0  0  0  0  0  0  0  0  0  0
   10.5689    1.1096   21.7155 C   0  0  0  0  0  0  0  0  0  0  0  0
   11.0117   -0.0797   21.2323 C   0  0  0  0  0  0  0  0  0  0  0  0
   12.3945   -0.6114   22.1003 S   0  0  0  0  0  0  0  0  0  0  0  0
   12.2884    0.8347   23.0655 C   0  0  0  0  0  0  0  0  0  0  0  0
   13.2335    1.0891   24.1889 C   0  0  0  0  0  0  0  0  0  0  0  0
   14.2266    0.6942   23.9610 H   0  0  0  0  0  0  0  0  0  0  0  0
   13.2719    2.1667   24.3337 H   0  0  0  0  0  0  0  0  0  0  0  0
   12.8636    0.6174   25.1088 H   0  0  0  0  0  0  0  0  0  0  0  0
   11.3151    1.6319   22.7489 N   0  0  0  0  0  0  0  0  0  0  0  0
   10.5774   -0.6487   20.4277 H   0  0  0  0  0  0  0  0  0  0  0  0
    9.0443    1.4290   20.2716 H   0  0  0  0  0  0  0  0  0  0  0  0
    9.4626    2.8531   21.2326 H   0  0  0  0  0  0  0  0  0  0  0  0
    8.1955    1.7902   23.2076 H   0  0  0  0  0  0  0  0  0  0  0  0
    7.1944    2.0021   21.7548 H   0  0  0  0  0  0  0  0  0  0  0  0
    6.6802    0.0606   19.9382 C   0  0  0  0  0  0  0  0  0  0  0  0
    5.4441    0.6746   20.1616 C   0  0  0  0  0  0  0  0  0  0  0  0
    4.7995    1.3106   19.0943 C   0  0  0  0  0  0  0  0  0  0  0  0
    5.3966    1.2903   17.8301 C   0  0  0  0  0  0  0  0  0  0  0  0
    6.5569    0.6650   17.5785 N   0  0  0  0  0  0  0  0  0  0  0  0
    7.1734    0.0650   18.6069 C   0  0  0  0  0  0  0  0  0  0  0  0
    8.1109   -0.4319   18.3545 H   0  0  0  0  0  0  0  0  0  0  0  0
    4.9298    1.7978   16.9880 H   0  0  0  0  0  0  0  0  0  0  0  0
    3.8638    1.8389   19.2417 H   0  0  0  0  0  0  0  0  0  0  0  0
    5.0057    0.6299   21.1593 H   0  0  0  0  0  0  0  0  0  0  0  0
    7.4373   -2.2497   19.8497 H   0  0  0  0  0  0  0  0  0  0  0  0
    8.3243   -2.4246   21.3812 H   0  0  0  0  0  0  0  0  0  0  0  0
    5.3006   -2.4799   20.8948 H   0  0  0  0  0  0  0  0  0  0  0  0
    5.9975   -2.5653   22.5311 H   0  0  0  0  0  0  0  0  0  0  0  0
    6.3036   -3.8581   21.3574 H   0  0  0  0  0  0  0  0  0  0  0  0
  1  2  1  0
  2  3  1  0
  3  4  1  0
  4  5  2  0
  4  6  1  0
  6  7  1  0
  7  8  1  0
  8  9  2  0
  9 10  1  0
 10 11  1  0
 11 12  1  0
 12 13  1  0
 12 14  1  0
 12 15  1  0
 11 16  2  0
  9 17  1  0
  7 18  1  0
  7 19  1  0
  6 20  1  0
  6 21  1  0
  3 22  1  0
 22 23  2  0
 23 24  1  0
 24 25  2  0
 25 26  1  0
 26 27  2  0
 27 28  1  0
 25 29  1  0
 24 30  1  0
 23 31  1  0
  2 32  1  0
  2 33  1  0
  1 34  1  0
  1 35  1  0
  1 36  1  0
 16  8  1  0
 27 22  1  0
M  END
>  <plip>  (1) 
-0.07142857142857142

>  <filename>  (1) 
[H][c]1[n][c]([H])[c]([N]([C](=[O])[C]([H])([H])[C]([H])([H])[c]2[n][c]([C]([H])([H])[H])[s][c]2[H])[C]([H])([H])[C]([H])([H])[H])[c]([H])[c]1[H]

$$$$
