
     RDKit          3D

 38 40  0  0  0  0  0  0  0  0999 V2000
    8.3112   -0.4679   23.1671 C   0  0  0  0  0  0  0  0  0  0  0  0
    7.8988    0.1626   21.8668 N   0  0  0  0  0  4  0  0  0  0  0  0
    7.2215   -0.8187   20.9386 C   0  0  0  0  0  0  0  0  0  0  0  0
    6.5235   -0.0675   19.8400 C   0  0  0  0  0  0  0  0  0  0  0  0
    5.3581    0.6713   20.0830 C   0  0  0  0  0  0  0  0  0  0  0  0
    4.7967    1.3941   19.0283 C   0  0  0  0  0  0  0  0  0  0  0  0
    5.4177    1.3671   17.7763 C   0  0  0  0  0  0  0  0  0  0  0  0
    6.5319    0.6626   17.5271 N   0  0  0  0  0  0  0  0  0  0  0  0
    7.0589   -0.0269   18.5455 C   0  0  0  0  0  0  0  0  0  0  0  0
    7.9719   -0.5794   18.3186 H   0  0  0  0  0  0  0  0  0  0  0  0
    5.0065    1.9316   16.9394 H   0  0  0  0  0  0  0  0  0  0  0  0
    3.9122    2.0043   19.1691 H   0  0  0  0  0  0  0  0  0  0  0  0
    4.9059    0.6778   21.0785 H   0  0  0  0  0  0  0  0  0  0  0  0
    7.9778   -1.5025   20.5282 H   0  0  0  0  0  0  0  0  0  0  0  0
    6.5101   -1.4207   21.5176 H   0  0  0  0  0  0  0  0  0  0  0  0
    9.0994    0.8633   21.1978 C   0  0  0  0  0  0  0  0  0  0  0  0
    9.7060    1.9301   22.0462 C   0  0  0  0  0  0  0  0  0  0  0  0
   10.9669    2.1140   22.5109 C   0  0  0  0  0  0  0  0  0  0  0  0
   10.9588    3.3889   23.1922 C   0  0  0  0  0  0  0  0  0  0  0  0
   11.9291    4.1538   23.8586 C   0  0  0  0  0  0  0  0  0  0  0  0
   11.5470    5.3586   24.4379 C   0  0  0  0  0  0  0  0  0  0  0  0
   10.2071    5.8118   24.3358 C   0  0  0  0  0  0  0  0  0  0  0  0
    9.8993    7.1829   25.0597 C   0  0  0  0  0  0  0  0  0  0  0  0
    8.8548    7.8249   24.8046 O   0  0  0  0  0  0  0  0  0  0  0  0
   10.7608    7.5929   25.8859 O   0  0  0  0  0  1  0  0  0  0  0  0
    9.2267    5.0822   23.6533 C   0  0  0  0  0  0  0  0  0  0  0  0
    9.6428    3.8661   23.0886 C   0  0  0  0  0  0  0  0  0  0  0  0
    8.8783    2.9733   22.3929 O   0  0  0  0  0  0  0  0  0  0  0  0
    8.1905    5.3895   23.5400 H   0  0  0  0  0  0  0  0  0  0  0  0
   12.2820    5.9472   24.9870 H   0  0  0  0  0  0  0  0  0  0  0  0
   12.9564    3.8011   23.9037 H   0  0  0  0  0  0  0  0  0  0  0  0
   11.8065    1.4396   22.4011 H   0  0  0  0  0  0  0  0  0  0  0  0
    8.7357    1.3137   20.2710 H   0  0  0  0  0  0  0  0  0  0  0  0
    9.8590    0.1126   20.9543 H   0  0  0  0  0  0  0  0  0  0  0  0
    7.2236    0.9500   22.0262 H   0  0  0  0  0  0  0  0  0  0  0  0
    8.6945    0.2906   23.8560 H   0  0  0  0  0  0  0  0  0  0  0  0
    7.4752   -0.9895   23.6501 H   0  0  0  0  0  0  0  0  0  0  0  0
    9.1118   -1.1997   22.9922 H   0  0  0  0  0  0  0  0  0  0  0  0
  1  2  1  0
  2  3  1  0
  3  4  1  0
  4  5  2  0
  5  6  1  0
  6  7  2  0
  7  8  1  0
  8  9  2  0
  9 10  1  0
  7 11  1  0
  6 12  1  0
  5 13  1  0
  3 14  1  0
  3 15  1  0
  2 16  1  0
 16 17  1  0
 17 18  2  0
 18 19  1  0
 19 20  2  0
 20 21  1  0
 21 22  2  0
 22 23  1  0
 23 24  2  0
 23 25  1  0
 22 26  1  0
 26 27  2  0
 27 28  1  0
 26 29  1  0
 21 30  1  0
 20 31  1  0
 18 32  1  0
 16 33  1  0
 16 34  1  0
  2 35  1  0
  1 36  1  0
  1 37  1  0
  1 38  1  0
  9  4  1  0
 28 17  1  0
 27 19  1  0
M  CHG  2   2   1  25  -1
M  END
>  <plip>  (1) 
-0.14285714285714285

>  <filename>  (1) 
[H][c]1[n][c]([H])[c]([C]([H])([H])[N+]([H])([C]([H])([H])[H])[C]([H])([H])[c]2[o][c]3[c]([H])[c]([C](=[O])[O-])[c]([H])[c]([H])[c]3[c]2[H])[c]([H])[c]1[H]

$$$$
