
     RDKit          3D

 42 44  0  0  0  0  0  0  0  0999 V2000
    8.5057   -4.7239   26.3542 H   0  0  0  0  0  0  0  0  0  0  0  0
    7.8624   -4.0519   26.0934 O   0  0  0  0  0  0  0  0  0  0  0  0
    7.9739   -3.9009   24.6791 C   0  0  2  0  0  0  0  0  0  0  0  0
    9.0288   -3.7779   24.3966 H   0  0  0  0  0  0  0  0  0  0  0  0
    7.2495   -2.6163   24.2553 C   0  0  0  0  0  0  0  0  0  0  0  0
    6.2128   -2.6553   24.6372 H   0  0  0  0  0  0  0  0  0  0  0  0
    7.7401   -1.7875   24.7698 H   0  0  0  0  0  0  0  0  0  0  0  0
    7.3045   -2.4025   22.7900 N   0  0  0  0  0  0  0  0  0  0  0  0
    6.7530   -1.1174   22.2746 C   0  0  1  0  0  0  0  0  0  0  0  0
    5.7067   -1.2894   21.9892 H   0  0  0  0  0  0  0  0  0  0  0  0
    6.7718    0.0668   23.2809 C   0  0  0  0  0  0  0  0  0  0  0  0
    6.1072    0.8585   22.9112 H   0  0  0  0  0  0  0  0  0  0  0  0
    6.3606   -0.2353   24.2528 H   0  0  0  0  0  0  0  0  0  0  0  0
    8.1636    0.6823   23.4389 C   0  0  0  0  0  0  0  0  0  0  0  0
    8.8632   -0.0358   23.8843 H   0  0  0  0  0  0  0  0  0  0  0  0
    8.1376    1.5540   24.1047 H   0  0  0  0  0  0  0  0  0  0  0  0
    8.7274    1.0889   22.1543 N   0  0  0  0  0  0  0  0  0  0  0  0
    8.0751    1.7531   21.7350 H   0  0  0  0  0  0  0  0  0  0  0  0
    8.8287   -0.0569   21.2517 C   0  0  0  0  0  0  0  0  0  0  0  0
    9.2939    0.2801   20.3197 H   0  0  0  0  0  0  0  0  0  0  0  0
    9.5214   -0.7771   21.6998 H   0  0  0  0  0  0  0  0  0  0  0  0
    7.4868   -0.7630   20.9431 C   0  0  2  0  0  0  0  0  0  0  0  0
    7.7499   -1.7173   20.4664 H   0  0  0  0  0  0  0  0  0  0  0  0
    6.6540   -0.0076   19.9058 C   0  0  0  0  0  0  0  0  0  0  0  0
    7.1539    0.0625   18.5891 C   0  0  0  0  0  0  0  0  0  0  0  0
    8.1050   -0.4181   18.3598 H   0  0  0  0  0  0  0  0  0  0  0  0
    6.5557    0.6790   17.5701 N   0  0  0  0  0  0  0  0  0  0  0  0
    5.3952    1.2991   17.8345 C   0  0  0  0  0  0  0  0  0  0  0  0
    4.9129    1.7868   16.9932 H   0  0  0  0  0  0  0  0  0  0  0  0
    4.8112    1.3137   19.1033 C   0  0  0  0  0  0  0  0  0  0  0  0
    3.8771    1.8405   19.2588 H   0  0  0  0  0  0  0  0  0  0  0  0
    5.4411    0.6491   20.1576 C   0  0  0  0  0  0  0  0  0  0  0  0
    4.9897    0.6363   21.1529 H   0  0  0  0  0  0  0  0  0  0  0  0
    6.6630   -3.5567   22.1187 C   0  0  0  0  0  0  0  0  0  0  0  0
    5.6029   -3.6540   22.4319 H   0  0  0  0  0  0  0  0  0  0  0  0
    6.6468   -3.4126   21.0316 H   0  0  0  0  0  0  0  0  0  0  0  0
    7.3844   -4.8677   22.4385 C   0  0  0  0  0  0  0  0  0  0  0  0
    6.8952   -5.7000   21.9172 H   0  0  0  0  0  0  0  0  0  0  0  0
    8.4108   -4.8122   22.0568 H   0  0  0  0  0  0  0  0  0  0  0  0
    7.4050   -5.1208   23.9491 C   0  0  0  0  0  0  0  0  0  0  0  0
    6.3862   -5.3014   24.3207 H   0  0  0  0  0  0  0  0  0  0  0  0
    7.9920   -6.0167   24.1931 H   0  0  0  0  0  0  0  0  0  0  0  0
  1  2  1  0
  2  3  1  0
  3  4  1  1
  3  5  1  0
  5  6  1  0
  5  7  1  0
  5  8  1  0
  8  9  1  0
  9 10  1  6
  9 11  1  0
 11 12  1  0
 11 13  1  0
 11 14  1  0
 14 15  1  0
 14 16  1  0
 14 17  1  0
 17 18  1  0
 17 19  1  0
 19 20  1  0
 19 21  1  0
 19 22  1  0
 22 23  1  6
 22 24  1  0
 24 25  2  0
 25 26  1  0
 25 27  1  0
 27 28  2  0
 28 29  1  0
 28 30  1  0
 30 31  1  0
 30 32  2  0
 32 33  1  0
  8 34  1  0
 34 35  1  0
 34 36  1  0
 34 37  1  0
 37 38  1  0
 37 39  1  0
 37 40  1  0
 40 41  1  0
 40 42  1  0
 40  3  1  0
 22  9  1  0
 32 24  1  0
M  END
>  <plip>  (1) 
-0.10714285714285714

>  <filename>  (1) 
[H][O][C@]1([H])[C]([H])([H])[N]([C@@]2([H])[C]([H])([H])[C]([H])([H])[N]([H])[C]([H])([H])[C@]2([H])[c]2[c]([H])[n][c]([H])[c]([H])[c]2[H])[C]([H])([H])[C]([H])([H])[C]1([H])[H]

$$$$
