
     RDKit          3D

 51 54  0  0  0  0  0  0  0  0999 V2000
    8.7467    1.1733   22.1056 C   0  0  0  0  0  0  0  0  0  0  0  0
    8.6652   -0.1092   21.3735 N   0  0  0  0  0  4  0  0  0  0  0  0
    9.4756   -1.2212   21.9567 C   0  0  0  0  0  0  0  0  0  0  0  0
    8.9018   -2.4755   21.2960 C   0  0  0  0  0  0  0  0  0  0  0  0
    7.4527   -2.1212   20.8710 C   0  0  1  0  0  0  0  0  0  0  0  0
    6.3656   -3.0576   21.3827 C   0  0  0  0  0  0  0  0  0  0  0  0
    6.2348   -2.9991   22.8205 N   0  0  0  0  0  0  0  0  0  0  0  0
    5.3257   -3.7672   23.4799 C   0  0  0  0  0  0  0  0  0  0  0  0
    4.4582   -4.3979   22.8987 O   0  0  0  0  0  0  0  0  0  0  0  0
    5.5181   -3.7203   24.9721 C   0  0  2  0  0  0  0  0  0  0  0  0
    6.7739   -4.1732   25.6831 C   0  0  0  0  0  0  0  0  0  0  0  0
    5.5112   -4.9869   25.7837 C   0  0  1  0  0  0  0  0  0  0  0  0
    4.7564   -5.0756   27.0765 C   0  0  0  0  0  0  0  0  0  0  0  0
    3.3886   -4.7675   27.1603 C   0  0  0  0  0  0  0  0  0  0  0  0
    2.7145   -4.8671   28.3831 C   0  0  0  0  0  0  0  0  0  0  0  0
    3.3956   -5.2801   29.5331 C   0  0  0  0  0  0  0  0  0  0  0  0
    4.7415   -5.6238   29.4249 C   0  0  0  0  0  0  0  0  0  0  0  0
    5.3958   -6.0539   30.5170 F   0  0  0  0  0  0  0  0  0  0  0  0
    5.4272   -5.5350   28.2190 C   0  0  0  0  0  0  0  0  0  0  0  0
    6.4739   -5.8166   28.1683 H   0  0  0  0  0  0  0  0  0  0  0  0
    2.9031   -5.3700   30.4942 H   0  0  0  0  0  0  0  0  0  0  0  0
    1.6552   -4.6237   28.4425 H   0  0  0  0  0  0  0  0  0  0  0  0
    2.8625   -4.4505   26.2629 H   0  0  0  0  0  0  0  0  0  0  0  0
    5.5027   -5.9156   25.2091 H   0  0  0  0  0  0  0  0  0  0  0  0
    7.6036   -4.6128   25.1303 H   0  0  0  0  0  0  0  0  0  0  0  0
    7.0573   -3.5813   26.5531 H   0  0  0  0  0  0  0  0  0  0  0  0
    5.0632   -2.8287   25.4033 H   0  0  0  0  0  0  0  0  0  0  0  0
    6.9650   -2.5998   23.3826 H   0  0  0  0  0  0  0  0  0  0  0  0
    5.3961   -2.8081   20.9380 H   0  0  0  0  0  0  0  0  0  0  0  0
    6.5973   -4.0863   21.0633 H   0  0  0  0  0  0  0  0  0  0  0  0
    7.2421   -0.6276   21.1948 C   0  0  2  0  0  0  0  0  0  0  0  0
    6.5748    0.1275   20.0656 C   0  0  0  0  0  0  0  0  0  0  0  0
    5.3433    0.7779   20.2018 C   0  0  0  0  0  0  0  0  0  0  0  0
    4.7736    1.3829   19.0775 C   0  0  0  0  0  0  0  0  0  0  0  0
    5.4567    1.3346   17.8605 C   0  0  0  0  0  0  0  0  0  0  0  0
    6.6392    0.7195   17.7106 N   0  0  0  0  0  0  0  0  0  0  0  0
    7.1733    0.1414   18.7898 C   0  0  0  0  0  0  0  0  0  0  0  0
    8.1195   -0.3737   18.6073 H   0  0  0  0  0  0  0  0  0  0  0  0
    5.0315    1.7938   16.9678 H   0  0  0  0  0  0  0  0  0  0  0  0
    3.8209    1.8929   19.1342 H   0  0  0  0  0  0  0  0  0  0  0  0
    4.8368    0.8063   21.1684 H   0  0  0  0  0  0  0  0  0  0  0  0
    6.6974   -0.4730   22.1378 H   0  0  0  0  0  0  0  0  0  0  0  0
    7.3600   -2.1737   19.7881 H   0  0  0  0  0  0  0  0  0  0  0  0
    8.9638   -3.3518   21.9514 H   0  0  0  0  0  0  0  0  0  0  0  0
    9.5102   -2.7062   20.4180 H   0  0  0  0  0  0  0  0  0  0  0  0
    9.3566   -1.2477   23.0463 H   0  0  0  0  0  0  0  0  0  0  0  0
   10.5409   -1.0887   21.7354 H   0  0  0  0  0  0  0  0  0  0  0  0
    8.9945    0.0421   20.3984 H   0  0  0  0  0  0  0  0  0  0  0  0
    9.7864    1.5112   22.2088 H   0  0  0  0  0  0  0  0  0  0  0  0
    8.3298    1.0565   23.1179 H   0  0  0  0  0  0  0  0  0  0  0  0
    8.1565    1.9401   21.5912 H   0  0  0  0  0  0  0  0  0  0  0  0
  1  2  1  0
  2  3  1  0
  3  4  1  0
  4  5  1  0
  5  6  1  0
  6  7  1  0
  7  8  1  0
  8  9  2  0
  8 10  1  0
 10 11  1  0
 11 12  1  0
 12 13  1  0
 13 14  2  0
 14 15  1  0
 15 16  2  0
 16 17  1  0
 17 18  1  0
 17 19  2  0
 19 20  1  0
 16 21  1  0
 15 22  1  0
 14 23  1  0
 12 24  1  6
 11 25  1  0
 11 26  1  0
 10 27  1  1
  7 28  1  0
  6 29  1  0
  6 30  1  0
  5 31  1  0
 31 32  1  0
 32 33  2  0
 33 34  1  0
 34 35  2  0
 35 36  1  0
 36 37  2  0
 37 38  1  0
 35 39  1  0
 34 40  1  0
 33 41  1  0
 31 42  1  1
  5 43  1  6
  4 44  1  0
  4 45  1  0
  3 46  1  0
  3 47  1  0
  2 48  1  0
  1 49  1  0
  1 50  1  0
  1 51  1  0
 31  2  1  0
 37 32  1  0
 12 10  1  0
 19 13  1  0
M  CHG  1   2   1
M  END
>  <plip>  (1) 
-0.10344827586206896

>  <filename>  (1) 
[H][c]1[n][c]([H])[c]([C@@]2([H])[C@]([H])([C]([H])([H])[N]([H])[C](=[O])[C@]3([H])[C]([H])([H])[C@@]3([H])[c]3[c]([H])[c]([H])[c]([H])[c]([F])[c]3[H])[C]([H])([H])[C]([H])([H])[N+]2([H])[C]([H])([H])[H])[c]([H])[c]1[H]

$$$$
