
     RDKit          3D

 32 34  0  0  0  0  0  0  0  0999 V2000
    4.9102    1.8136   16.9758 H   0  0  0  0  0  0  0  0  0  0  0  0
    5.3929    1.3125   17.8096 C   0  0  0  0  0  0  0  0  0  0  0  0
    6.5619    0.7081   17.5415 N   0  0  0  0  0  0  0  0  0  0  0  0
    7.1848    0.0908   18.5448 C   0  0  0  0  0  0  0  0  0  0  0  0
    8.1391   -0.3735   18.2988 H   0  0  0  0  0  0  0  0  0  0  0  0
    6.6802    0.0352   19.8510 C   0  0  0  0  0  0  0  0  0  0  0  0
    7.3964   -0.6400   20.8620 N   0  0  0  0  0  0  0  0  0  0  0  0
    7.0980   -0.4482   22.1562 N   0  0  0  0  0  0  0  0  0  0  0  0
    7.8961   -1.2677   22.8294 C   0  0  0  0  0  0  0  0  0  0  0  0
    7.9170   -1.3153   24.3038 C   0  0  0  0  0  0  0  0  0  0  0  0
    7.1319   -0.4663   25.1091 C   0  0  0  0  0  0  0  0  0  0  0  0
    6.4503    0.2490   24.6514 H   0  0  0  0  0  0  0  0  0  0  0  0
    7.2548   -0.5397   26.4993 C   0  0  0  0  0  0  0  0  0  0  0  0
    6.6864    0.1361   27.1323 H   0  0  0  0  0  0  0  0  0  0  0  0
    8.1145   -1.4747   27.0849 C   0  0  0  0  0  0  0  0  0  0  0  0
    8.3014   -1.5240   28.1389 H   0  0  0  0  0  0  0  0  0  0  0  0
    8.8340   -2.3487   26.2861 C   0  0  0  0  0  0  0  0  0  0  0  0
    9.6231   -3.2977   26.9438 O   0  0  0  0  0  0  0  0  0  0  0  0
    9.8888   -4.4896   26.3555 C   0  0  0  0  0  0  0  0  0  0  0  0
   10.5057   -5.2607   27.2369 F   0  0  0  0  0  0  0  0  0  0  0  0
   10.7015   -4.3408   25.2898 F   0  0  0  0  0  0  0  0  0  0  0  0
    8.7975   -5.1424   25.9270 F   0  0  0  0  0  0  0  0  0  0  0  0
    8.7855   -2.2405   24.9079 C   0  0  0  0  0  0  0  0  0  0  0  0
    9.4465   -2.8596   24.3243 H   0  0  0  0  0  0  0  0  0  0  0  0
    8.7076   -2.0246   21.9399 C   0  0  0  0  0  0  0  0  0  0  0  0
    9.4234   -2.7982   22.1726 H   0  0  0  0  0  0  0  0  0  0  0  0
    8.3725   -1.5726   20.7015 C   0  0  0  0  0  0  0  0  0  0  0  0
    8.7713   -1.8004   19.7297 H   0  0  0  0  0  0  0  0  0  0  0  0
    5.4558    0.6576   20.1285 C   0  0  0  0  0  0  0  0  0  0  0  0
    5.0626    0.6247   21.1454 H   0  0  0  0  0  0  0  0  0  0  0  0
    4.8066    1.3089   19.0819 C   0  0  0  0  0  0  0  0  0  0  0  0
    3.8691    1.8283   19.2479 H   0  0  0  0  0  0  0  0  0  0  0  0
  1  2  1  0
  2  3  2  0
  3  4  1  0
  4  5  1  0
  4  6  2  0
  6  7  1  0
  7  8  1  0
  8  9  2  0
  9 10  1  0
 10 11  2  0
 11 12  1  0
 11 13  1  0
 13 14  1  0
 13 15  2  0
 15 16  1  0
 15 17  1  0
 17 18  1  0
 18 19  1  0
 19 20  1  0
 19 21  1  0
 19 22  1  0
 17 23  2  0
 23 24  1  0
  9 25  1  0
 25 26  1  0
 25 27  2  0
 27 28  1  0
  6 29  1  0
 29 30  1  0
 29 31  2  0
 31 32  1  0
 31  2  1  0
 27  7  1  0
 23 10  1  0
M  END
>  <plip>  (1) 
-0.034482758620689655

>  <filename>  (1) 
[H][c]1[n][c]([H])[c](-[n]2[n][c](-[c]3[c]([H])[c]([H])[c]([H])[c]([O][C]([F])([F])[F])[c]3[H])[c]([H])[c]2[H])[c]([H])[c]1[H]

$$$$
