
     RDKit          3D

 35 36  0  0  0  0  0  0  0  0999 V2000
   10.1124   -2.8391   22.9943 N   0  0  0  0  0  0  0  0  0  0  0  0
    9.1648   -2.7810   22.0241 C   0  0  0  0  0  0  0  0  0  0  0  0
    9.5233   -2.7004   20.8661 O   0  0  0  0  0  0  0  0  0  0  0  0
    7.7082   -2.8167   22.5178 C   0  0  0  0  0  0  0  0  0  0  0  0
    7.2114   -4.2306   22.9399 C   0  0  0  0  0  0  0  0  0  0  0  0
    7.8915   -4.7238   24.2029 C   0  0  0  0  0  0  0  0  0  0  0  0
    8.7662   -5.8206   24.2303 C   0  0  0  0  0  0  0  0  0  0  0  0
    9.4443   -6.1738   25.4078 C   0  0  0  0  0  0  0  0  0  0  0  0
    9.2723   -5.4094   26.5641 C   0  0  0  0  0  0  0  0  0  0  0  0
    8.3864   -4.3270   26.5582 C   0  0  0  0  0  0  0  0  0  0  0  0
    7.6790   -4.0119   25.3967 C   0  0  0  0  0  0  0  0  0  0  0  0
    6.9443   -3.2072   25.4079 H   0  0  0  0  0  0  0  0  0  0  0  0
    8.2571   -3.7178   27.4482 H   0  0  0  0  0  0  0  0  0  0  0  0
    9.8367   -5.6479   27.4609 H   0  0  0  0  0  0  0  0  0  0  0  0
   10.1126   -7.0319   25.4379 H   0  0  0  0  0  0  0  0  0  0  0  0
    8.9376   -6.3876   23.3191 H   0  0  0  0  0  0  0  0  0  0  0  0
    6.1343   -4.1578   23.1380 H   0  0  0  0  0  0  0  0  0  0  0  0
    7.3394   -4.9267   22.1026 H   0  0  0  0  0  0  0  0  0  0  0  0
    6.5049   -2.1175   21.3263 S   0  0  0  0  0  0  0  0  0  0  0  0
    7.2624   -0.4951   20.9509 C   0  0  0  0  0  0  0  0  0  0  0  0
    6.5188    0.1757   19.8197 C   0  0  0  0  0  0  0  0  0  0  0  0
    5.2953    0.8401   19.9956 C   0  0  0  0  0  0  0  0  0  0  0  0
    4.6985    1.4592   18.8930 C   0  0  0  0  0  0  0  0  0  0  0  0
    5.3505    1.3961   17.6563 C   0  0  0  0  0  0  0  0  0  0  0  0
    6.5044    0.7432   17.4593 N   0  0  0  0  0  0  0  0  0  0  0  0
    7.0573    0.1510   18.5240 C   0  0  0  0  0  0  0  0  0  0  0  0
    7.9990   -0.3695   18.3429 H   0  0  0  0  0  0  0  0  0  0  0  0
    4.9314    1.8839   16.7795 H   0  0  0  0  0  0  0  0  0  0  0  0
    3.7649    2.0072   18.9792 H   0  0  0  0  0  0  0  0  0  0  0  0
    4.8247    0.8826   20.9800 H   0  0  0  0  0  0  0  0  0  0  0  0
    8.3025   -0.6877   20.6629 H   0  0  0  0  0  0  0  0  0  0  0  0
    7.2841    0.1364   21.8490 H   0  0  0  0  0  0  0  0  0  0  0  0
    7.7067   -2.1962   23.4186 H   0  0  0  0  0  0  0  0  0  0  0  0
    9.9312   -2.6466   23.9614 H   0  0  0  0  0  0  0  0  0  0  0  0
   11.0149   -2.6541   22.5887 H   0  0  0  0  0  0  0  0  0  0  0  0
  1  2  1  0
  2  3  2  0
  2  4  1  0
  4  5  1  0
  5  6  1  0
  6  7  2  0
  7  8  1  0
  8  9  2  0
  9 10  1  0
 10 11  2  0
 11 12  1  0
 10 13  1  0
  9 14  1  0
  8 15  1  0
  7 16  1  0
  5 17  1  0
  5 18  1  0
  4 19  1  0
 19 20  1  0
 20 21  1  0
 21 22  2  0
 22 23  1  0
 23 24  2  0
 24 25  1  0
 25 26  2  0
 26 27  1  0
 24 28  1  0
 23 29  1  0
 22 30  1  0
 20 31  1  0
 20 32  1  0
  4 33  1  0
  1 34  1  0
  1 35  1  0
 11  6  1  0
 26 21  1  0
M  END
>  <plip>  (1) 
-0.06896551724137931

>  <filename>  (1) 
[H][c]1[n][c]([H])[c]([C]([H])([H])[S][C]([H])([C](=[O])[N]([H])[H])[C]([H])([H])[c]2[c]([H])[c]([H])[c]([H])[c]([H])[c]2[H])[c]([H])[c]1[H]

$$$$
