
     RDKit          3D

 32 33  0  0  0  0  0  0  0  0999 V2000
    9.1286    1.7244   20.6453 H   0  0  0  0  0  0  0  0  0  0  0  0
    9.7305    1.2448   21.4121 C   0  0  0  0  0  0  0  0  0  0  0  0
    9.1769    0.3484   22.2411 C   0  0  0  0  0  0  0  0  0  0  0  0
    7.6750    0.0496   22.2400 C   0  0  0  0  0  0  0  0  0  0  0  0
    7.1257    0.9985   22.3016 H   0  0  0  0  0  0  0  0  0  0  0  0
    7.4287   -0.5195   23.1500 H   0  0  0  0  0  0  0  0  0  0  0  0
    7.1492   -0.7070   21.0932 N   0  0  0  0  0  0  0  0  0  0  0  0
    6.5792    0.0002   19.9950 C   0  0  0  0  0  0  0  0  0  0  0  0
    7.1328    0.0225   18.6859 C   0  0  0  0  0  0  0  0  0  0  0  0
    8.0583   -0.5171   18.5045 H   0  0  0  0  0  0  0  0  0  0  0  0
    6.6074    0.6552   17.6231 N   0  0  0  0  0  0  0  0  0  0  0  0
    5.4567    1.3203   17.8082 C   0  0  0  0  0  0  0  0  0  0  0  0
    5.0406    1.8338   16.9385 H   0  0  0  0  0  0  0  0  0  0  0  0
    4.8052    1.3729   19.0469 C   0  0  0  0  0  0  0  0  0  0  0  0
    3.8790    1.9356   19.1353 H   0  0  0  0  0  0  0  0  0  0  0  0
    5.3759    0.7273   20.1538 C   0  0  0  0  0  0  0  0  0  0  0  0
    4.8941    0.7623   21.1334 H   0  0  0  0  0  0  0  0  0  0  0  0
    7.8076   -1.9859   20.8649 C   0  0  0  0  0  0  0  0  0  0  0  0
    8.7929   -1.9047   20.3702 H   0  0  0  0  0  0  0  0  0  0  0  0
    7.9786   -2.4753   21.8307 H   0  0  0  0  0  0  0  0  0  0  0  0
    7.1523   -2.6440   20.2849 H   0  0  0  0  0  0  0  0  0  0  0  0
   10.0327   -0.3249   23.3104 C   0  0  0  0  0  0  0  0  0  0  0  0
    9.7287    0.0859   24.2838 H   0  0  0  0  0  0  0  0  0  0  0  0
    9.8284   -1.4021   23.3641 H   0  0  0  0  0  0  0  0  0  0  0  0
   11.5432   -0.0964   23.1200 C   0  0  0  0  0  0  0  0  0  0  0  0
   11.9458   -0.7718   22.3464 H   0  0  0  0  0  0  0  0  0  0  0  0
   12.0711   -0.3261   24.0497 H   0  0  0  0  0  0  0  0  0  0  0  0
   11.8619    1.2786   22.7319 N   0  0  0  0  0  0  0  0  0  0  0  0
   11.4964    1.9031   23.4517 H   0  0  0  0  0  0  0  0  0  0  0  0
   11.2034    1.6224   21.4724 C   0  0  0  0  0  0  0  0  0  0  0  0
   11.3318    2.6968   21.2938 H   0  0  0  0  0  0  0  0  0  0  0  0
   11.7508    1.1037   20.6745 H   0  0  0  0  0  0  0  0  0  0  0  0
  1  2  1  0
  2  3  2  0
  3  4  1  0
  4  5  1  0
  4  6  1  0
  4  7  1  0
  7  8  1  0
  8  9  2  0
  9 10  1  0
  9 11  1  0
 11 12  2  0
 12 13  1  0
 12 14  1  0
 14 15  1  0
 14 16  2  0
 16 17  1  0
  7 18  1  0
 18 19  1  0
 18 20  1  0
 18 21  1  0
  3 22  1  0
 22 23  1  0
 22 24  1  0
 22 25  1  0
 25 26  1  0
 25 27  1  0
 25 28  1  0
 28 29  1  0
 28 30  1  0
 30 31  1  0
 30 32  1  0
 30  2  1  0
 16  8  1  0
M  END
>  <plip>  (1) 
-0.03571428571428571

>  <filename>  (1) 
[H][C]1=[C]([C]([H])([H])[N]([c]2[c]([H])[n][c]([H])[c]([H])[c]2[H])[C]([H])([H])[H])[C]([H])([H])[C]([H])([H])[N]([H])[C]1([H])[H]

$$$$
