
     RDKit          3D

 28 30  0  0  0  0  0  0  0  0999 V2000
    4.9197    1.7813   16.9920 H   0  0  0  0  0  0  0  0  0  0  0  0
    5.4011    1.2920   17.8338 C   0  0  0  0  0  0  0  0  0  0  0  0
    6.5636    0.6769   17.5730 N   0  0  0  0  0  0  0  0  0  0  0  0
    7.1644    0.0557   18.5975 C   0  0  0  0  0  0  0  0  0  0  0  0
    8.1129   -0.4333   18.3812 H   0  0  0  0  0  0  0  0  0  0  0  0
    6.6395    0.0185   19.8892 C   0  0  0  0  0  0  0  0  0  0  0  0
    7.4332   -0.6277   20.9961 C   0  0  0  0  0  0  0  0  0  0  0  0
    8.3553    0.3352   21.6328 N   0  0  0  0  0  0  0  0  0  0  0  0
    8.0151    1.2430   22.6374 C   0  0  0  0  0  0  0  0  0  0  0  0
    7.0390    1.2056   23.1086 H   0  0  0  0  0  0  0  0  0  0  0  0
    9.0798    2.0706   22.8458 C   0  0  0  0  0  0  0  0  0  0  0  0
    9.1198    2.8669   23.5787 H   0  0  0  0  0  0  0  0  0  0  0  0
   10.1076    1.6983   21.9227 C   0  0  0  0  0  0  0  0  0  0  0  0
   11.0845    2.1544   21.8184 H   0  0  0  0  0  0  0  0  0  0  0  0
    9.6350    0.6537   21.1835 C   0  0  0  0  0  0  0  0  0  0  0  0
   10.0810    0.0803   20.3826 H   0  0  0  0  0  0  0  0  0  0  0  0
    6.5454   -1.1355   21.9659 O   0  0  0  0  0  0  0  0  0  0  0  0
    6.9168   -2.4594   22.3222 C   0  0  0  0  0  0  0  0  0  0  0  0
    6.0892   -3.1305   22.0731 H   0  0  0  0  0  0  0  0  0  0  0  0
    7.1229   -2.4986   23.3957 H   0  0  0  0  0  0  0  0  0  0  0  0
    8.1719   -2.7387   21.4849 C   0  0  0  0  0  0  0  0  0  0  0  0
    9.0900   -2.6548   22.0781 H   0  0  0  0  0  0  0  0  0  0  0  0
    8.1271   -3.7122   20.9937 H   0  0  0  0  0  0  0  0  0  0  0  0
    8.1295   -1.7344   20.4805 O   0  0  0  0  0  0  0  0  0  0  0  0
    5.4248    0.6568   20.1495 C   0  0  0  0  0  0  0  0  0  0  0  0
    5.0034    0.6273   21.1599 H   0  0  0  0  0  0  0  0  0  0  0  0
    4.7965    1.3150   19.0972 C   0  0  0  0  0  0  0  0  0  0  0  0
    3.8673    1.8490   19.2530 H   0  0  0  0  0  0  0  0  0  0  0  0
  1  2  1  0
  2  3  2  0
  3  4  1  0
  4  5  1  0
  4  6  2  0
  6  7  1  0
  7  8  1  0
  8  9  1  0
  9 10  1  0
  9 11  2  0
 11 12  1  0
 11 13  1  0
 13 14  1  0
 13 15  2  0
 15 16  1  0
  7 17  1  0
 17 18  1  0
 18 19  1  0
 18 20  1  0
 18 21  1  0
 21 22  1  0
 21 23  1  0
 21 24  1  0
  6 25  1  0
 25 26  1  0
 25 27  2  0
 27 28  1  0
 27  2  1  0
 24  7  1  0
 15  8  1  0
M  END
>  <plip>  (1) 
-0.0

>  <filename>  (1) 
[H][c]1[n][c]([H])[c]([C]2([n]3[c]([H])[c]([H])[c]([H])[c]3[H])[O][C]([H])([H])[C]([H])([H])[O]2)[c]([H])[c]1[H]

$$$$
