
     RDKit          3D

 49 51  0  0  0  0  0  0  0  0999 V2000
    2.6484   -0.4959   26.1372 C   0  0  0  0  0  0  0  0  0  0  0  0
    4.1409   -0.8472   25.9757 C   0  0  0  0  0  0  0  0  0  0  0  0
    4.8330    0.0587   24.9485 C   0  0  0  0  0  0  0  0  0  0  0  0
    4.2639    0.9667   24.3701 O   0  0  0  0  0  0  0  0  0  0  0  0
    6.1634   -0.1824   24.7495 N   0  0  0  0  0  0  0  0  0  0  0  0
    6.8171    0.2295   23.5165 C   0  0  0  0  0  0  0  0  0  0  0  0
    6.7971   -0.8855   22.4582 C   0  0  2  0  0  0  0  0  0  0  0  0
    7.3999   -2.2261   22.9316 C   0  0  0  0  0  0  0  0  0  0  0  0
    7.6301   -2.9687   21.6264 C   0  0  0  0  0  0  0  0  0  0  0  0
    8.1029   -1.8911   20.6676 N   0  0  0  0  0  4  0  0  0  0  0  0
    9.5909   -1.8705   20.5921 C   0  0  0  0  0  0  0  0  0  0  0  0
    9.9316   -1.0943   19.8980 H   0  0  0  0  0  0  0  0  0  0  0  0
    9.9865   -2.8361   20.2597 H   0  0  0  0  0  0  0  0  0  0  0  0
   10.0346   -1.6468   21.5717 H   0  0  0  0  0  0  0  0  0  0  0  0
    7.5091   -0.5376   21.1426 C   0  0  1  0  0  0  0  0  0  0  0  0
    6.6467    0.0424   20.0298 C   0  0  0  0  0  0  0  0  0  0  0  0
    5.4263    0.7195   20.2099 C   0  0  0  0  0  0  0  0  0  0  0  0
    4.8241    1.3318   19.1047 C   0  0  0  0  0  0  0  0  0  0  0  0
    5.4570    1.2661   17.8596 C   0  0  0  0  0  0  0  0  0  0  0  0
    6.6095    0.6109   17.6603 N   0  0  0  0  0  0  0  0  0  0  0  0
    7.1606    0.0091   18.7155 C   0  0  0  0  0  0  0  0  0  0  0  0
    8.0902   -0.5175   18.5026 H   0  0  0  0  0  0  0  0  0  0  0  0
    5.0268    1.7481   16.9839 H   0  0  0  0  0  0  0  0  0  0  0  0
    3.8866    1.8718   19.1885 H   0  0  0  0  0  0  0  0  0  0  0  0
    4.9437    0.7846   21.1946 H   0  0  0  0  0  0  0  0  0  0  0  0
    8.3575    0.1328   21.3253 H   0  0  0  0  0  0  0  0  0  0  0  0
    7.6606   -2.0362   19.7386 H   0  0  0  0  0  0  0  0  0  0  0  0
    8.3698   -3.7712   21.6813 H   0  0  0  0  0  0  0  0  0  0  0  0
    6.6976   -3.3913   21.2469 H   0  0  0  0  0  0  0  0  0  0  0  0
    6.7394   -2.7801   23.6075 H   0  0  0  0  0  0  0  0  0  0  0  0
    8.3583   -2.0779   23.4484 H   0  0  0  0  0  0  0  0  0  0  0  0
    5.7738   -1.0986   22.1512 H   0  0  0  0  0  0  0  0  0  0  0  0
    7.8555    0.4986   23.7533 H   0  0  0  0  0  0  0  0  0  0  0  0
    6.3041    1.1355   23.1617 H   0  0  0  0  0  0  0  0  0  0  0  0
    6.4906   -1.0477   25.1459 H   0  0  0  0  0  0  0  0  0  0  0  0
    4.3683   -2.3004   25.5766 C   0  0  0  0  0  0  0  0  0  0  0  0
    5.2375   -3.1576   26.2832 C   0  0  0  0  0  0  0  0  0  0  0  0
    5.3296   -4.5038   25.9075 C   0  0  0  0  0  0  0  0  0  0  0  0
    4.5837   -4.9347   24.8043 C   0  0  0  0  0  0  0  0  0  0  0  0
    3.7952   -4.0014   24.1308 C   0  0  0  0  0  0  0  0  0  0  0  0
    3.6794   -2.7243   24.5132 N   0  0  0  0  0  0  0  0  0  0  0  0
    3.2401   -4.2825   23.2356 H   0  0  0  0  0  0  0  0  0  0  0  0
    4.6033   -5.9603   24.4550 H   0  0  0  0  0  0  0  0  0  0  0  0
    5.9490   -5.2054   26.4712 H   0  0  0  0  0  0  0  0  0  0  0  0
    5.7907   -2.7695   27.1331 H   0  0  0  0  0  0  0  0  0  0  0  0
    4.6545   -0.6667   26.9300 H   0  0  0  0  0  0  0  0  0  0  0  0
    2.5099    0.5662   26.3628 H   0  0  0  0  0  0  0  0  0  0  0  0
    2.1099   -0.6955   25.2039 H   0  0  0  0  0  0  0  0  0  0  0  0
    2.2042   -1.1087   26.9299 H   0  0  0  0  0  0  0  0  0  0  0  0
  1  2  1  0
  2  3  1  0
  3  4  2  0
  3  5  1  0
  5  6  1  0
  6  7  1  0
  7  8  1  0
  8  9  1  0
  9 10  1  0
 10 11  1  0
 11 12  1  0
 11 13  1  0
 11 14  1  0
 10 15  1  0
 15 16  1  0
 16 17  2  0
 17 18  1  0
 18 19  2  0
 19 20  1  0
 20 21  2  0
 21 22  1  0
 19 23  1  0
 18 24  1  0
 17 25  1  0
 15 26  1  1
 10 27  1  0
  9 28  1  0
  9 29  1  0
  8 30  1  0
  8 31  1  0
  7 32  1  6
  6 33  1  0
  6 34  1  0
  5 35  1  0
  2 36  1  0
 36 37  2  0
 37 38  1  0
 38 39  2  0
 39 40  1  0
 40 41  2  0
 40 42  1  0
 39 43  1  0
 38 44  1  0
 37 45  1  0
  2 46  1  0
  1 47  1  0
  1 48  1  0
  1 49  1  0
 15  7  1  0
 21 16  1  0
 41 36  1  0
M  CHG  1  10   1
M  END
>  <plip>  (1) 
-0.06896551724137931

>  <filename>  (1) 
[H][c]1[n][c]([C]([H])([C](=[O])[N]([H])[C]([H])([H])[C@]2([H])[C]([H])([H])[C]([H])([H])[N+]([H])([C]([H])([H])[H])[C@@]2([H])[c]2[c]([H])[n][c]([H])[c]([H])[c]2[H])[C]([H])([H])[H])[c]([H])[c]([H])[c]1[H]

$$$$
