
     RDKit          3D

 38 39  0  0  0  0  0  0  0  0999 V2000
    4.9096    1.7812   16.9930 H   0  0  0  0  0  0  0  0  0  0  0  0
    5.4000    1.2950   17.8341 C   0  0  0  0  0  0  0  0  0  0  0  0
    6.5660    0.6785   17.5703 N   0  0  0  0  0  0  0  0  0  0  0  0
    7.1777    0.0675   18.5961 C   0  0  0  0  0  0  0  0  0  0  0  0
    8.1201   -0.4301   18.3731 H   0  0  0  0  0  0  0  0  0  0  0  0
    6.6672   -0.0015   19.9109 C   0  0  0  0  0  0  0  0  0  0  0  0
    7.3546   -0.7120   20.9350 N   0  0  0  0  0  0  0  0  0  0  0  0
    6.6633   -1.6605   21.7148 C   0  0  0  0  0  0  0  0  0  0  0  0
    5.7228   -2.5160   21.1130 C   0  0  0  0  0  0  0  0  0  0  0  0
    5.5166   -2.4219   20.0485 H   0  0  0  0  0  0  0  0  0  0  0  0
    5.0525   -3.4646   21.8829 C   0  0  0  0  0  0  0  0  0  0  0  0
    4.3305   -4.1179   21.4348 H   0  0  0  0  0  0  0  0  0  0  0  0
    5.2693   -3.6228   23.2565 C   0  0  0  0  0  0  0  0  0  0  0  0
    4.5331   -4.6697   24.1197 C   0  0  0  0  0  0  0  0  0  0  0  0
    3.5314   -5.5235   23.3182 C   0  0  0  0  0  0  0  0  0  0  0  0
    3.0369   -6.2505   23.9720 H   0  0  0  0  0  0  0  0  0  0  0  0
    4.0256   -6.0886   22.5206 H   0  0  0  0  0  0  0  0  0  0  0  0
    2.7462   -4.9098   22.8638 H   0  0  0  0  0  0  0  0  0  0  0  0
    5.5659   -5.6276   24.7525 C   0  0  0  0  0  0  0  0  0  0  0  0
    5.0718   -6.4062   25.3443 H   0  0  0  0  0  0  0  0  0  0  0  0
    6.1657   -6.1197   23.9794 H   0  0  0  0  0  0  0  0  0  0  0  0
    6.2584   -5.1008   25.4170 H   0  0  0  0  0  0  0  0  0  0  0  0
    3.7487   -3.9517   25.2392 C   0  0  0  0  0  0  0  0  0  0  0  0
    4.4116   -3.3974   25.9114 H   0  0  0  0  0  0  0  0  0  0  0  0
    3.1878   -4.6685   25.8494 H   0  0  0  0  0  0  0  0  0  0  0  0
    3.0355   -3.2342   24.8191 H   0  0  0  0  0  0  0  0  0  0  0  0
    6.2153   -2.7658   23.8400 C   0  0  0  0  0  0  0  0  0  0  0  0
    6.4328   -2.8368   24.8980 H   0  0  0  0  0  0  0  0  0  0  0  0
    6.8991   -1.8070   23.0922 C   0  0  0  0  0  0  0  0  0  0  0  0
    7.6154   -1.1552   23.5755 H   0  0  0  0  0  0  0  0  0  0  0  0
    8.6780   -0.2518   21.3176 C   0  0  0  0  0  0  0  0  0  0  0  0
    9.1868    0.1875   20.4549 H   0  0  0  0  0  0  0  0  0  0  0  0
    9.2835   -1.0957   21.6607 H   0  0  0  0  0  0  0  0  0  0  0  0
    8.6537    0.5177   22.1035 H   0  0  0  0  0  0  0  0  0  0  0  0
    5.4454    0.6514   20.1610 C   0  0  0  0  0  0  0  0  0  0  0  0
    5.0127    0.6225   21.1676 H   0  0  0  0  0  0  0  0  0  0  0  0
    4.8087    1.3138   19.1059 C   0  0  0  0  0  0  0  0  0  0  0  0
    3.8722    1.8448   19.2614 H   0  0  0  0  0  0  0  0  0  0  0  0
  1  2  1  0
  2  3  2  0
  3  4  1  0
  4  5  1  0
  4  6  2  0
  6  7  1  0
  7  8  1  0
  8  9  2  0
  9 10  1  0
  9 11  1  0
 11 12  1  0
 11 13  2  0
 13 14  1  0
 14 15  1  0
 15 16  1  0
 15 17  1  0
 15 18  1  0
 14 19  1  0
 19 20  1  0
 19 21  1  0
 19 22  1  0
 14 23  1  0
 23 24  1  0
 23 25  1  0
 23 26  1  0
 13 27  1  0
 27 28  1  0
 27 29  2  0
 29 30  1  0
  7 31  1  0
 31 32  1  0
 31 33  1  0
 31 34  1  0
  6 35  1  0
 35 36  1  0
 35 37  2  0
 37 38  1  0
 37  2  1  0
 29  8  1  0
M  END
>  <plip>  (1) 
-0.06896551724137931

>  <filename>  (1) 
[H][c]1[n][c]([H])[c]([N]([c]2[c]([H])[c]([H])[c]([C]([C]([H])([H])[H])([C]([H])([H])[H])[C]([H])([H])[H])[c]([H])[c]2[H])[C]([H])([H])[H])[c]([H])[c]1[H]

$$$$
