
     RDKit          3D

 38 39  0  0  0  0  0  0  0  0999 V2000
   14.3963    0.8787   22.6473 C   0  0  0  0  0  0  0  0  0  0  0  0
   13.1081    1.6479   22.6458 C   0  0  0  0  0  0  0  0  0  0  0  0
   12.0551    0.9346   23.0711 N   0  0  0  0  0  0  0  0  0  0  0  0
   10.8382    1.4921   23.0261 C   0  0  0  0  0  0  0  0  0  0  0  0
    9.7286    0.7084   23.7090 C   0  0  0  0  0  0  0  0  0  0  0  0
    9.0264   -0.3656   22.8595 N   0  0  0  0  0  4  0  0  0  0  0  0
   10.0223   -1.4447   22.4762 C   0  0  0  0  0  0  0  0  0  0  0  0
   10.6996   -1.0477   21.7139 H   0  0  0  0  0  0  0  0  0  0  0  0
   10.6367   -1.7067   23.3430 H   0  0  0  0  0  0  0  0  0  0  0  0
    9.5304   -2.3435   22.0965 H   0  0  0  0  0  0  0  0  0  0  0  0
    8.3435    0.2574   21.6524 C   0  0  0  0  0  0  0  0  0  0  0  0
    7.3668   -0.7019   20.9702 C   0  0  0  0  0  0  0  0  0  0  0  0
    6.6055   -0.0290   19.8464 C   0  0  0  0  0  0  0  0  0  0  0  0
    5.3982    0.6398   20.0889 C   0  0  0  0  0  0  0  0  0  0  0  0
    4.7761    1.3245   19.0416 C   0  0  0  0  0  0  0  0  0  0  0  0
    5.3845    1.3254   17.7826 C   0  0  0  0  0  0  0  0  0  0  0  0
    6.5318    0.6863   17.5182 N   0  0  0  0  0  0  0  0  0  0  0  0
    7.1153    0.0334   18.5327 C   0  0  0  0  0  0  0  0  0  0  0  0
    8.0546   -0.4614   18.2843 H   0  0  0  0  0  0  0  0  0  0  0  0
    4.9359    1.8707   16.9541 H   0  0  0  0  0  0  0  0  0  0  0  0
    3.8534    1.8710   19.1905 H   0  0  0  0  0  0  0  0  0  0  0  0
    4.9545    0.6409   21.0880 H   0  0  0  0  0  0  0  0  0  0  0  0
    6.6793   -1.0728   21.7421 H   0  0  0  0  0  0  0  0  0  0  0  0
    7.9288   -1.5687   20.5997 H   0  0  0  0  0  0  0  0  0  0  0  0
    7.8218    1.1648   21.9761 H   0  0  0  0  0  0  0  0  0  0  0  0
    9.1158    0.5798   20.9498 H   0  0  0  0  0  0  0  0  0  0  0  0
    8.2683   -0.7903   23.4410 H   0  0  0  0  0  0  0  0  0  0  0  0
    8.9703    1.4034   24.0814 H   0  0  0  0  0  0  0  0  0  0  0  0
   10.2088    0.1993   24.5470 H   0  0  0  0  0  0  0  0  0  0  0  0
   10.6166    2.7539   22.4533 C   0  0  0  0  0  0  0  0  0  0  0  0
   11.7139    3.5363   22.0945 C   0  0  0  0  0  0  0  0  0  0  0  0
   12.9834    2.9766   22.2259 C   0  0  0  0  0  0  0  0  0  0  0  0
   13.8808    3.5377   21.9946 H   0  0  0  0  0  0  0  0  0  0  0  0
   11.5813    4.5729   21.7695 H   0  0  0  0  0  0  0  0  0  0  0  0
    9.6045    3.1067   22.3054 H   0  0  0  0  0  0  0  0  0  0  0  0
   15.2858    1.5150   22.6647 H   0  0  0  0  0  0  0  0  0  0  0  0
   14.4296    0.2440   21.7554 H   0  0  0  0  0  0  0  0  0  0  0  0
   14.3701    0.2056   23.5056 H   0  0  0  0  0  0  0  0  0  0  0  0
  1  2  1  0
  2  3  2  0
  3  4  1  0
  4  5  1  0
  5  6  1  0
  6  7  1  0
  7  8  1  0
  7  9  1  0
  7 10  1  0
  6 11  1  0
 11 12  1  0
 12 13  1  0
 13 14  2  0
 14 15  1  0
 15 16  2  0
 16 17  1  0
 17 18  2  0
 18 19  1  0
 16 20  1  0
 15 21  1  0
 14 22  1  0
 12 23  1  0
 12 24  1  0
 11 25  1  0
 11 26  1  0
  6 27  1  0
  5 28  1  0
  5 29  1  0
  4 30  2  0
 30 31  1  0
 31 32  2  0
 32 33  1  0
 31 34  1  0
 30 35  1  0
  1 36  1  0
  1 37  1  0
  1 38  1  0
 32  2  1  0
 18 13  1  0
M  CHG  1   6   1
M  END
>  <plip>  (1) 
-0.0

>  <filename>  (1) 
[H][c]1[n][c]([H])[c]([C]([H])([H])[C]([H])([H])[N+]([H])([C]([H])([H])[H])[C]([H])([H])[c]2[n][c]([C]([H])([H])[H])[c]([H])[c]([H])[c]2[H])[c]([H])[c]1[H]

$$$$
