
     RDKit          3D

 35 36  0  0  0  0  0  0  0  0999 V2000
    5.0604    1.7885   16.9885 H   0  0  0  0  0  0  0  0  0  0  0  0
    5.5062    1.2905   17.8453 C   0  0  0  0  0  0  0  0  0  0  0  0
    6.6642    0.6602   17.6084 N   0  0  0  0  0  0  0  0  0  0  0  0
    7.2456    0.0355   18.6337 C   0  0  0  0  0  0  0  0  0  0  0  0
    8.1861   -0.4652   18.3945 H   0  0  0  0  0  0  0  0  0  0  0  0
    6.7055   -0.0068   19.9267 C   0  0  0  0  0  0  0  0  0  0  0  0
    7.4068   -0.7333   20.9950 C   0  0  0  0  0  0  0  0  0  0  0  0
    6.9116   -1.0693   22.0446 O   0  0  0  0  0  0  0  0  0  0  0  0
    8.7442   -0.9556   20.7207 N   0  0  0  0  0  0  0  0  0  0  0  0
    9.2731   -0.2170   20.2952 H   0  0  0  0  0  0  0  0  0  0  0  0
    9.6149   -1.5700   21.9891 S   0  0  0  0  0  0  0  0  0  0  0  0
    9.3156   -2.9927   22.0298 O   0  0  0  0  0  0  0  0  0  0  0  0
   10.9327   -1.0375   21.6499 O   0  0  0  0  0  0  0  0  0  0  0  0
    9.0984   -0.5918   24.0298 C   0  0  0  0  0  0  0  0  0  0  0  0
    9.0213   -1.2763   25.0042 O   0  0  0  0  0  0  0  0  0  0  0  0
    8.7022    0.7156   23.9160 N   0  0  0  0  0  0  0  0  0  0  0  0
    9.4390    1.7187   23.1378 C   0  0  0  0  0  0  0  0  0  0  0  0
   10.1145    1.2059   22.4516 H   0  0  0  0  0  0  0  0  0  0  0  0
   10.0642    2.3158   23.8188 H   0  0  0  0  0  0  0  0  0  0  0  0
    8.4866    2.6501   22.3832 C   0  0  0  0  0  0  0  0  0  0  0  0
    9.0628    3.4372   21.8845 H   0  0  0  0  0  0  0  0  0  0  0  0
    7.9737    2.0894   21.5913 H   0  0  0  0  0  0  0  0  0  0  0  0
    7.4478    3.2629   23.3313 C   0  0  0  0  0  0  0  0  0  0  0  0
    7.9536    3.9110   24.0635 H   0  0  0  0  0  0  0  0  0  0  0  0
    6.7485    3.9057   22.7830 H   0  0  0  0  0  0  0  0  0  0  0  0
    6.7006    2.1458   24.0705 C   0  0  0  0  0  0  0  0  0  0  0  0
    6.1507    1.5252   23.3459 H   0  0  0  0  0  0  0  0  0  0  0  0
    5.9594    2.5581   24.7658 H   0  0  0  0  0  0  0  0  0  0  0  0
    7.6827    1.2561   24.8385 C   0  0  0  0  0  0  0  0  0  0  0  0
    8.1766    1.8272   25.6416 H   0  0  0  0  0  0  0  0  0  0  0  0
    7.1698    0.4102   25.3052 H   0  0  0  0  0  0  0  0  0  0  0  0
    5.4703    0.6300   20.1589 C   0  0  0  0  0  0  0  0  0  0  0  0
    4.9930    0.6117   21.1461 H   0  0  0  0  0  0  0  0  0  0  0  0
    4.8736    1.2990   19.0938 C   0  0  0  0  0  0  0  0  0  0  0  0
    3.9303    1.8219   19.2033 H   0  0  0  0  0  0  0  0  0  0  0  0
  1  2  1  0
  2  3  2  0
  3  4  1  0
  4  5  1  0
  4  6  2  0
  6  7  1  0
  7  8  2  0
  7  9  1  0
  9 10  1  0
  9 11  1  0
 11 12  2  0
 11 13  2  0
 11 14  1  0
 14 15  2  0
 14 16  1  0
 16 17  1  0
 17 18  1  0
 17 19  1  0
 17 20  1  0
 20 21  1  0
 20 22  1  0
 20 23  1  0
 23 24  1  0
 23 25  1  0
 23 26  1  0
 26 27  1  0
 26 28  1  0
 26 29  1  0
 29 30  1  0
 29 31  1  0
  6 32  1  0
 32 33  1  0
 32 34  2  0
 34 35  1  0
 34  2  1  0
 29 16  1  0
M  END
>  <plip>  (1) 
-0.03333333333333333

>  <filename>  (1) 
[H][c]1[n][c]([H])[c]([C](=[O])[N]([H])[S](=[O])(=[O])[C](=[O])[N]2[C]([H])([H])[C]([H])([H])[C]([H])([H])[C]([H])([H])[C]2([H])[H])[c]([H])[c]1[H]

$$$$
