
     RDKit          3D

 52 55  0  0  0  0  0  0  0  0999 V2000
    8.8503   -2.7977   21.0678 O   0  0  0  0  0  0  0  0  0  0  0  0
    7.7647   -2.2582   21.2041 C   0  0  0  0  0  0  0  0  0  0  0  0
    6.6348   -3.0048   21.4154 N   0  0  0  0  0  0  0  0  0  0  0  0
    6.7170   -4.4722   21.3773 C   0  0  0  0  0  0  0  0  0  0  0  0
    5.6197   -5.2184   22.0626 C   0  0  0  0  0  0  0  0  0  0  0  0
    5.3027   -5.3921   23.3832 C   0  0  0  0  0  0  0  0  0  0  0  0
    4.2251   -6.2400   23.3634 N   0  0  0  0  0  0  0  0  0  0  0  0
    3.4614   -6.8242   24.4068 C   0  0  0  0  0  0  0  0  0  0  0  0
    2.4313   -7.7409   24.1453 C   0  0  0  0  0  0  0  0  0  0  0  0
    1.6949   -8.2482   25.2183 C   0  0  0  0  0  0  0  0  0  0  0  0
    2.0344   -7.8585   26.5140 C   0  0  0  0  0  0  0  0  0  0  0  0
    3.0387   -7.0084   26.7735 N   0  0  0  0  0  0  0  0  0  0  0  0
    3.7124   -6.5311   25.7585 C   0  0  0  0  0  0  0  0  0  0  0  0
    4.7203   -5.7085   26.0658 F   0  0  0  0  0  0  0  0  0  0  0  0
    1.4879   -8.2418   27.3719 H   0  0  0  0  0  0  0  0  0  0  0  0
    0.8763   -8.9391   25.0544 H   0  0  0  0  0  0  0  0  0  0  0  0
    2.2312   -8.0602   23.1208 H   0  0  0  0  0  0  0  0  0  0  0  0
    3.9278   -6.5614   22.0934 N   0  0  0  0  0  0  0  0  0  0  0  0
    4.7616   -5.9672   21.3193 N   0  0  0  0  0  0  0  0  0  0  0  0
    5.7507   -5.0372   24.2913 H   0  0  0  0  0  0  0  0  0  0  0  0
    6.7519   -4.8428   20.3430 H   0  0  0  0  0  0  0  0  0  0  0  0
    7.6813   -4.7355   21.8333 H   0  0  0  0  0  0  0  0  0  0  0  0
    5.7606   -2.5257   21.2605 H   0  0  0  0  0  0  0  0  0  0  0  0
    7.5495   -0.7172   21.2264 C   0  0  0  0  0  0  0  0  0  0  0  0
    6.7856   -0.1309   20.0211 C   0  0  0  0  0  0  0  0  0  0  0  0
    5.5458    0.4994   20.2176 C   0  0  0  0  0  0  0  0  0  0  0  0
    4.9318    1.1528   19.1429 C   0  0  0  0  0  0  0  0  0  0  0  0
    5.5739    1.1483   17.9017 C   0  0  0  0  0  0  0  0  0  0  0  0
    6.7342    0.5159   17.6673 N   0  0  0  0  0  0  0  0  0  0  0  0
    7.3158   -0.0967   18.7119 C   0  0  0  0  0  0  0  0  0  0  0  0
    8.2569   -0.6054   18.4964 H   0  0  0  0  0  0  0  0  0  0  0  0
    5.1246    1.6625   17.0549 H   0  0  0  0  0  0  0  0  0  0  0  0
    4.0036    1.7007   19.2711 H   0  0  0  0  0  0  0  0  0  0  0  0
    5.0851    0.5044   21.2083 H   0  0  0  0  0  0  0  0  0  0  0  0
    8.8870    0.0177   21.4992 C   0  0  0  0  0  0  0  0  0  0  0  0
    8.7474    1.5634   21.5762 C   0  0  0  0  0  0  0  0  0  0  0  0
    9.9309    2.2372   22.3205 C   0  0  0  0  0  0  0  0  0  0  0  0
   11.2260    1.4124   22.2224 C   0  0  0  0  0  0  0  0  0  0  0  0
   11.0485   -0.0116   22.8123 C   0  0  0  0  0  0  0  0  0  0  0  0
    9.5847   -0.4882   22.7746 C   0  0  0  0  0  0  0  0  0  0  0  0
    9.0314   -0.0986   23.6429 H   0  0  0  0  0  0  0  0  0  0  0  0
    9.5560   -1.5785   22.8459 H   0  0  0  0  0  0  0  0  0  0  0  0
   11.6603   -0.7214   22.2383 H   0  0  0  0  0  0  0  0  0  0  0  0
   11.4011   -0.0730   23.8502 H   0  0  0  0  0  0  0  0  0  0  0  0
   12.0484    1.9207   22.7345 H   0  0  0  0  0  0  0  0  0  0  0  0
   11.5162    1.3372   21.1646 H   0  0  0  0  0  0  0  0  0  0  0  0
   10.0949    3.2519   21.9456 H   0  0  0  0  0  0  0  0  0  0  0  0
    9.6720    2.3389   23.3831 H   0  0  0  0  0  0  0  0  0  0  0  0
    8.6505    1.9644   20.5593 H   0  0  0  0  0  0  0  0  0  0  0  0
    7.8093    1.8304   22.0827 H   0  0  0  0  0  0  0  0  0  0  0  0
    9.5453   -0.2054   20.6460 H   0  0  0  0  0  0  0  0  0  0  0  0
    6.9090   -0.5551   22.1064 H   0  0  0  0  0  0  0  0  0  0  0  0
  1  2  2  0
  2  3  1  0
  3  4  1  0
  4  5  1  0
  5  6  2  0
  6  7  1  0
  7  8  1  0
  8  9  2  0
  9 10  1  0
 10 11  2  0
 11 12  1  0
 12 13  2  0
 13 14  1  0
 11 15  1  0
 10 16  1  0
  9 17  1  0
  7 18  1  0
 18 19  2  0
  6 20  1  0
  4 21  1  0
  4 22  1  0
  3 23  1  0
  2 24  1  0
 24 25  1  0
 25 26  2  0
 26 27  1  0
 27 28  2  0
 28 29  1  0
 29 30  2  0
 30 31  1  0
 28 32  1  0
 27 33  1  0
 26 34  1  0
 24 35  1  0
 35 36  1  0
 36 37  1  0
 37 38  1  0
 38 39  1  0
 39 40  1  0
 40 41  1  0
 40 42  1  0
 39 43  1  0
 39 44  1  0
 38 45  1  0
 38 46  1  0
 37 47  1  0
 37 48  1  0
 36 49  1  0
 36 50  1  0
 35 51  1  0
 24 52  1  0
 19  5  1  0
 30 25  1  0
 40 35  1  0
 13  8  1  0
M  END
>  <plip>  (1) 
-0.10344827586206896

>  <filename>  (1) 
[H][c]1[n][c]([F])[c](-[n]2[n][n][c]([C]([H])([H])[N]([H])[C](=[O])[C]([H])([c]3[c]([H])[n][c]([H])[c]([H])[c]3[H])[C]3([H])[C]([H])([H])[C]([H])([H])[C]([H])([H])[C]([H])([H])[C]3([H])[H])[c]2[H])[c]([H])[c]1[H]

$$$$
