
     RDKit          3D

 25 27  0  0  0  0  0  0  0  0999 V2000
    8.5654   -3.7100   21.4321 H   0  0  0  0  0  0  0  0  0  0  0  0
    8.2894   -2.6883   21.6607 C   0  0  0  0  0  0  0  0  0  0  0  0
    8.5292   -2.2534   22.8967 N   0  0  0  0  0  0  0  0  0  0  0  0
    8.1969   -0.9949   23.1620 C   0  0  0  0  0  0  0  0  0  0  0  0
    8.4058   -0.6401   24.1650 H   0  0  0  0  0  0  0  0  0  0  0  0
    7.6273   -0.1492   22.2141 C   0  0  0  0  0  0  0  0  0  0  0  0
    7.3929    1.2271   22.5181 N   0  0  0  0  0  0  0  0  0  0  0  0
    6.8959    1.6118   23.7138 N   0  0  0  0  0  0  0  0  0  0  0  0
    6.8626    2.9259   23.5944 C   0  0  0  0  0  0  0  0  0  0  0  0
    6.5186    3.5749   24.3900 H   0  0  0  0  0  0  0  0  0  0  0  0
    7.3213    3.4230   22.4164 N   0  0  0  0  0  0  0  0  0  0  0  0
    7.6501    2.3339   21.7700 C   0  0  0  0  0  0  0  0  0  0  0  0
    8.0451    2.2371   20.7650 H   0  0  0  0  0  0  0  0  0  0  0  0
    7.3648   -0.7380   20.9619 C   0  0  0  0  0  0  0  0  0  0  0  0
    6.6453   -0.0084   19.9057 C   0  0  0  0  0  0  0  0  0  0  0  0
    7.1723    0.0402   18.6111 C   0  0  0  0  0  0  0  0  0  0  0  0
    8.1207   -0.4388   18.3766 H   0  0  0  0  0  0  0  0  0  0  0  0
    6.5785    0.6734   17.5973 N   0  0  0  0  0  0  0  0  0  0  0  0
    5.4110    1.2886   17.8472 C   0  0  0  0  0  0  0  0  0  0  0  0
    4.9251    1.7764   17.0027 H   0  0  0  0  0  0  0  0  0  0  0  0
    4.8078    1.3041   19.1095 C   0  0  0  0  0  0  0  0  0  0  0  0
    3.8776    1.8412   19.2601 H   0  0  0  0  0  0  0  0  0  0  0  0
    5.4340    0.6471   20.1645 C   0  0  0  0  0  0  0  0  0  0  0  0
    5.0060    0.6490   21.1715 H   0  0  0  0  0  0  0  0  0  0  0  0
    7.7462   -1.9786   20.6767 N   0  0  0  0  0  0  0  0  0  0  0  0
  1  2  1  0
  2  3  2  0
  3  4  1  0
  4  5  1  0
  4  6  2  0
  6  7  1  0
  7  8  1  0
  8  9  2  0
  9 10  1  0
  9 11  1  0
 11 12  2  0
 12 13  1  0
  6 14  1  0
 14 15  1  0
 15 16  2  0
 16 17  1  0
 16 18  1  0
 18 19  2  0
 19 20  1  0
 19 21  1  0
 21 22  1  0
 21 23  2  0
 23 24  1  0
 14 25  2  0
 25  2  1  0
 12  7  1  0
 23 15  1  0
M  END
>  <plip>  (1) 
-0.0

>  <filename>  (1) 
[H][c]1[n][c]([H])[c](-[n]2[n][c]([H])[n][c]2[H])[c](-[c]2[c]([H])[n][c]([H])[c]([H])[c]2[H])[n]1

$$$$
