
     RDKit          3D

 46 47  0  0  0  0  0  0  0  0999 V2000
    6.2060    6.3105   26.3765 C   0  0  0  0  0  0  0  0  0  0  0  0
    7.5633    6.6665   25.7382 C   0  0  0  0  0  0  0  0  0  0  0  0
    8.0577    5.5636   24.8227 C   0  0  0  0  0  0  0  0  0  0  0  0
    7.6906    5.5357   23.4659 C   0  0  0  0  0  0  0  0  0  0  0  0
    8.1100    4.4971   22.6303 C   0  0  0  0  0  0  0  0  0  0  0  0
    8.9083    3.4533   23.1218 C   0  0  0  0  0  0  0  0  0  0  0  0
    9.2936    2.2994   22.2258 C   0  0  0  0  0  0  0  0  0  0  0  0
    8.2129    1.2183   22.2664 C   0  0  0  0  0  0  0  0  0  0  0  0
    8.5801    0.0164   21.4168 N   0  0  0  0  0  4  0  0  0  0  0  0
    9.5379   -0.8834   22.1579 C   0  0  0  0  0  0  0  0  0  0  0  0
   10.4459   -1.6763   21.2399 C   0  0  0  0  0  0  0  0  0  0  0  0
   11.3086   -2.4702   22.0352 O   0  0  0  0  0  0  0  0  0  0  0  0
   10.8960   -3.3126   22.2656 H   0  0  0  0  0  0  0  0  0  0  0  0
    9.8511   -2.2477   20.5061 H   0  0  0  0  0  0  0  0  0  0  0  0
   11.0784   -0.9783   20.6792 H   0  0  0  0  0  0  0  0  0  0  0  0
    8.9896   -1.5939   22.7959 H   0  0  0  0  0  0  0  0  0  0  0  0
   10.1921   -0.3114   22.8227 H   0  0  0  0  0  0  0  0  0  0  0  0
    7.3585   -0.7549   20.9807 C   0  0  0  0  0  0  0  0  0  0  0  0
    6.6352   -0.0019   19.9034 C   0  0  0  0  0  0  0  0  0  0  0  0
    5.4244    0.6559   20.1451 C   0  0  0  0  0  0  0  0  0  0  0  0
    4.7951    1.3186   19.0890 C   0  0  0  0  0  0  0  0  0  0  0  0
    5.4034    1.3049   17.8293 C   0  0  0  0  0  0  0  0  0  0  0  0
    6.5725    0.6975   17.5902 N   0  0  0  0  0  0  0  0  0  0  0  0
    7.1751    0.0776   18.6103 C   0  0  0  0  0  0  0  0  0  0  0  0
    8.1278   -0.3951   18.3707 H   0  0  0  0  0  0  0  0  0  0  0  0
    4.9424    1.8020   16.9753 H   0  0  0  0  0  0  0  0  0  0  0  0
    3.8636    1.8544   19.2223 H   0  0  0  0  0  0  0  0  0  0  0  0
    4.9908    0.6530   21.1482 H   0  0  0  0  0  0  0  0  0  0  0  0
    6.7143   -0.9153   21.8539 H   0  0  0  0  0  0  0  0  0  0  0  0
    7.6845   -1.7414   20.6375 H   0  0  0  0  0  0  0  0  0  0  0  0
    8.9940    0.3981   20.5313 H   0  0  0  0  0  0  0  0  0  0  0  0
    7.2622    1.6260   21.9118 H   0  0  0  0  0  0  0  0  0  0  0  0
    8.0566    0.8932   23.3055 H   0  0  0  0  0  0  0  0  0  0  0  0
    9.4276    2.6357   21.1888 H   0  0  0  0  0  0  0  0  0  0  0  0
   10.2544    1.8743   22.5498 H   0  0  0  0  0  0  0  0  0  0  0  0
    9.2533    3.4621   24.4838 C   0  0  0  0  0  0  0  0  0  0  0  0
    8.8351    4.5026   25.3207 C   0  0  0  0  0  0  0  0  0  0  0  0
    9.0963    4.4942   26.3775 H   0  0  0  0  0  0  0  0  0  0  0  0
    9.8366    2.6375   24.8894 H   0  0  0  0  0  0  0  0  0  0  0  0
    7.8054    4.4854   21.5859 H   0  0  0  0  0  0  0  0  0  0  0  0
    7.0613    6.3309   23.0692 H   0  0  0  0  0  0  0  0  0  0  0  0
    8.3148    6.8572   26.5176 H   0  0  0  0  0  0  0  0  0  0  0  0
    7.4832    7.6038   25.1685 H   0  0  0  0  0  0  0  0  0  0  0  0
    5.8426    7.1027   27.0401 H   0  0  0  0  0  0  0  0  0  0  0  0
    5.4458    6.1409   25.6034 H   0  0  0  0  0  0  0  0  0  0  0  0
    6.2826    5.3857   26.9620 H   0  0  0  0  0  0  0  0  0  0  0  0
  1  2  1  0
  2  3  1  0
  3  4  2  0
  4  5  1  0
  5  6  2  0
  6  7  1  0
  7  8  1  0
  8  9  1  0
  9 10  1  0
 10 11  1  0
 11 12  1  0
 12 13  1  0
 11 14  1  0
 11 15  1  0
 10 16  1  0
 10 17  1  0
  9 18  1  0
 18 19  1  0
 19 20  2  0
 20 21  1  0
 21 22  2  0
 22 23  1  0
 23 24  2  0
 24 25  1  0
 22 26  1  0
 21 27  1  0
 20 28  1  0
 18 29  1  0
 18 30  1  0
  9 31  1  0
  8 32  1  0
  8 33  1  0
  7 34  1  0
  7 35  1  0
  6 36  1  0
 36 37  2  0
 37 38  1  0
 36 39  1  0
  5 40  1  0
  4 41  1  0
  2 42  1  0
  2 43  1  0
  1 44  1  0
  1 45  1  0
  1 46  1  0
 37  3  1  0
 24 19  1  0
M  CHG  1   9   1
M  END
>  <plip>  (1) 
-0.10714285714285714

>  <filename>  (1) 
[H][O][C]([H])([H])[C]([H])([H])[N+]([H])([C]([H])([H])[c]1[c]([H])[n][c]([H])[c]([H])[c]1[H])[C]([H])([H])[C]([H])([H])[c]1[c]([H])[c]([H])[c]([C]([H])([H])[C]([H])([H])[H])[c]([H])[c]1[H]

$$$$
