
     RDKit          3D

 36 38  0  0  0  0  0  0  0  0999 V2000
    9.2570   -3.3354   21.2398 H   0  0  0  0  0  0  0  0  0  0  0  0
    8.7248   -2.4374   21.5312 C   0  0  0  0  0  0  0  0  0  0  0  0
    8.7676   -2.1168   22.8243 N   0  0  0  0  0  0  0  0  0  0  0  0
    8.1330   -0.9851   23.1898 C   0  0  0  0  0  0  0  0  0  0  0  0
    8.1855   -0.4708   24.6620 C   0  0  0  0  0  0  0  0  0  0  0  0
    7.5456    0.5166   25.0003 O   0  0  0  0  0  0  0  0  0  0  0  0
    8.9775   -1.1580   25.5385 N   0  0  0  0  0  0  0  0  0  0  0  0
    9.2983   -2.0556   25.2013 H   0  0  0  0  0  0  0  0  0  0  0  0
    8.7596   -0.9909   26.9681 C   0  0  0  0  0  0  0  0  0  0  0  0
    9.5076   -1.5902   27.4955 H   0  0  0  0  0  0  0  0  0  0  0  0
    8.9524    0.0544   27.2300 H   0  0  0  0  0  0  0  0  0  0  0  0
    7.3611   -1.3781   27.4177 C   0  0  0  0  0  0  0  0  0  0  0  0
    6.8878   -2.6980   27.3086 C   0  0  0  0  0  0  0  0  0  0  0  0
    7.4875   -3.4605   26.8145 H   0  0  0  0  0  0  0  0  0  0  0  0
    5.6666   -3.0557   27.8938 C   0  0  0  0  0  0  0  0  0  0  0  0
    5.3337   -4.0925   27.8749 H   0  0  0  0  0  0  0  0  0  0  0  0
    4.8840   -2.0850   28.5297 C   0  0  0  0  0  0  0  0  0  0  0  0
    3.9476   -2.3599   29.0069 H   0  0  0  0  0  0  0  0  0  0  0  0
    5.2925   -0.7479   28.5306 C   0  0  0  0  0  0  0  0  0  0  0  0
    4.6596    0.0250   28.9609 H   0  0  0  0  0  0  0  0  0  0  0  0
    6.5136   -0.3954   27.9558 C   0  0  0  0  0  0  0  0  0  0  0  0
    6.8042    0.6521   27.8832 H   0  0  0  0  0  0  0  0  0  0  0  0
    7.4013   -0.2468   22.2677 C   0  0  0  0  0  0  0  0  0  0  0  0
    6.8662    0.6385   22.5747 H   0  0  0  0  0  0  0  0  0  0  0  0
    7.4036   -0.6923   20.9490 C   0  0  0  0  0  0  0  0  0  0  0  0
    6.6444    0.0037   19.9047 C   0  0  0  0  0  0  0  0  0  0  0  0
    7.1700    0.0258   18.6058 C   0  0  0  0  0  0  0  0  0  0  0  0
    8.1068   -0.4869   18.3983 H   0  0  0  0  0  0  0  0  0  0  0  0
    6.5912    0.6600   17.5842 N   0  0  0  0  0  0  0  0  0  0  0  0
    5.4332    1.2911   17.8308 C   0  0  0  0  0  0  0  0  0  0  0  0
    4.9811    1.8097   16.9887 H   0  0  0  0  0  0  0  0  0  0  0  0
    4.8081    1.3016   19.0824 C   0  0  0  0  0  0  0  0  0  0  0  0
    3.8733    1.8315   19.2173 H   0  0  0  0  0  0  0  0  0  0  0  0
    5.4244    0.6485   20.1456 C   0  0  0  0  0  0  0  0  0  0  0  0
    4.9712    0.6333   21.1399 H   0  0  0  0  0  0  0  0  0  0  0  0
    8.1062   -1.7593   20.5697 N   0  0  0  0  0  0  0  0  0  0  0  0
  1  2  1  0
  2  3  2  0
  3  4  1  0
  4  5  1  0
  5  6  2  0
  5  7  1  0
  7  8  1  0
  7  9  1  0
  9 10  1  0
  9 11  1  0
  9 12  1  0
 12 13  2  0
 13 14  1  0
 13 15  1  0
 15 16  1  0
 15 17  2  0
 17 18  1  0
 17 19  1  0
 19 20  1  0
 19 21  2  0
 21 22  1  0
  4 23  2  0
 23 24  1  0
 23 25  1  0
 25 26  1  0
 26 27  2  0
 27 28  1  0
 27 29  1  0
 29 30  2  0
 30 31  1  0
 30 32  1  0
 32 33  1  0
 32 34  2  0
 34 35  1  0
 25 36  2  0
 36  2  1  0
 21 12  1  0
 34 26  1  0
M  END
>  <plip>  (1) 
-0.034482758620689655

>  <filename>  (1) 
[H][c]1[n][c]([C](=[O])[N]([H])[C]([H])([H])[c]2[c]([H])[c]([H])[c]([H])[c]([H])[c]2[H])[c]([H])[c](-[c]2[c]([H])[n][c]([H])[c]([H])[c]2[H])[n]1

$$$$
