
     RDKit          3D

 31 32  0  0  0  0  0  0  0  0999 V2000
    4.9259    1.7670   16.9403 H   0  0  0  0  0  0  0  0  0  0  0  0
    5.3938    1.3017   17.8090 C   0  0  0  0  0  0  0  0  0  0  0  0
    6.5656    0.6805   17.6012 N   0  0  0  0  0  0  0  0  0  0  0  0
    7.1487    0.0993   18.6564 C   0  0  0  0  0  0  0  0  0  0  0  0
    8.1011   -0.3931   18.4705 H   0  0  0  0  0  0  0  0  0  0  0  0
    6.6294    0.1081   19.9618 C   0  0  0  0  0  0  0  0  0  0  0  0
    7.3947   -0.5553   21.0354 C   0  0  0  0  0  0  0  0  0  0  0  0
    8.2406   -1.6511   20.9944 C   0  0  0  0  0  0  0  0  0  0  0  0
    8.6190   -2.1800   20.1502 H   0  0  0  0  0  0  0  0  0  0  0  0
    8.5797   -1.9195   22.3190 C   0  0  0  0  0  0  0  0  0  0  0  0
    9.1844   -2.7202   22.7149 H   0  0  0  0  0  0  0  0  0  0  0  0
    8.0390   -1.0452   23.1521 N   0  0  0  0  0  0  0  0  0  0  0  0
    7.3473   -0.2343   22.3574 N   0  0  0  0  0  0  0  0  0  0  0  0
    6.8472    0.9576   22.8085 O   0  0  0  0  0  0  0  0  0  0  0  0
    6.9936    1.2680   24.2458 C   0  0  0  0  0  0  0  0  0  0  0  0
    6.2243    2.5916   24.2860 C   0  0  0  0  0  0  0  0  0  0  0  0
    6.1979    3.0217   25.2945 H   0  0  0  0  0  0  0  0  0  0  0  0
    6.6984    3.3160   23.6111 H   0  0  0  0  0  0  0  0  0  0  0  0
    5.1919    2.4233   23.9537 H   0  0  0  0  0  0  0  0  0  0  0  0
    8.4680    1.4902   24.6194 C   0  0  0  0  0  0  0  0  0  0  0  0
    9.0424    0.5598   24.6269 H   0  0  0  0  0  0  0  0  0  0  0  0
    8.9309    2.1833   23.9079 H   0  0  0  0  0  0  0  0  0  0  0  0
    8.5377    1.9428   25.6169 H   0  0  0  0  0  0  0  0  0  0  0  0
    6.2906    0.2086   25.1033 C   0  0  0  0  0  0  0  0  0  0  0  0
    6.1917    0.5619   26.1367 H   0  0  0  0  0  0  0  0  0  0  0  0
    6.8297   -0.7419   25.1148 H   0  0  0  0  0  0  0  0  0  0  0  0
    5.2841    0.0350   24.7078 H   0  0  0  0  0  0  0  0  0  0  0  0
    5.3990    0.7598   20.1567 C   0  0  0  0  0  0  0  0  0  0  0  0
    4.9649    0.8136   21.1528 H   0  0  0  0  0  0  0  0  0  0  0  0
    4.7705    1.3504   19.0607 C   0  0  0  0  0  0  0  0  0  0  0  0
    3.8201    1.8598   19.1623 H   0  0  0  0  0  0  0  0  0  0  0  0
  1  2  1  0
  2  3  2  0
  3  4  1  0
  4  5  1  0
  4  6  2  0
  6  7  1  0
  7  8  2  0
  8  9  1  0
  8 10  1  0
 10 11  1  0
 10 12  2  0
 12 13  1  0
 13 14  1  0
 14 15  1  0
 15 16  1  0
 16 17  1  0
 16 18  1  0
 16 19  1  0
 15 20  1  0
 20 21  1  0
 20 22  1  0
 20 23  1  0
 15 24  1  0
 24 25  1  0
 24 26  1  0
 24 27  1  0
  6 28  1  0
 28 29  1  0
 28 30  2  0
 30 31  1  0
 30  2  1  0
 13  7  1  0
M  END
>  <plip>  (1) 
-0.03571428571428571

>  <filename>  (1) 
[H][c]1[n][c]([H])[c](-[c]2[c]([H])[c]([H])[n][n]2[O][C]([C]([H])([H])[H])([C]([H])([H])[H])[C]([H])([H])[H])[c]([H])[c]1[H]

$$$$
