
     RDKit          3D

 31 34  0  0  0  0  0  0  0  0999 V2000
    4.9247    1.8227   16.9679 H   0  0  0  0  0  0  0  0  0  0  0  0
    5.3910    1.3225   17.8103 C   0  0  0  0  0  0  0  0  0  0  0  0
    6.5545    0.7043   17.5537 N   0  0  0  0  0  0  0  0  0  0  0  0
    7.1538    0.0927   18.5831 C   0  0  0  0  0  0  0  0  0  0  0  0
    8.1008   -0.3956   18.3542 H   0  0  0  0  0  0  0  0  0  0  0  0
    6.6497    0.0538   19.9088 C   0  0  0  0  0  0  0  0  0  0  0  0
    7.3444   -0.7035   20.9914 C   0  0  0  0  0  0  0  0  0  0  0  0
    7.7506   -2.0164   21.0796 C   0  0  0  0  0  0  0  0  0  0  0  0
    7.6331   -2.8196   20.3845 H   0  0  0  0  0  0  0  0  0  0  0  0
    8.2812   -2.2651   22.3004 N   0  0  0  0  0  0  0  0  0  0  0  0
    8.2151   -1.1858   23.0050 N   0  0  0  0  0  0  0  0  0  0  0  0
    7.6368   -0.2284   22.2490 N   0  0  0  0  0  0  0  0  0  0  0  0
    7.3601    1.0216   22.8127 C   0  0  0  0  0  0  0  0  0  0  0  0
    7.3886    2.2289   22.1846 C   0  0  0  0  0  0  0  0  0  0  0  0
    7.6000    2.4284   21.1414 H   0  0  0  0  0  0  0  0  0  0  0  0
    7.0841    3.2098   23.0965 N   0  0  0  0  0  0  0  0  0  0  0  0
    7.0853    4.1963   22.9014 H   0  0  0  0  0  0  0  0  0  0  0  0
    6.8437    2.6353   24.3271 C   0  0  0  0  0  0  0  0  0  0  0  0
    6.5316    3.2179   25.5689 C   0  0  0  0  0  0  0  0  0  0  0  0
    6.4589    4.2986   25.6726 H   0  0  0  0  0  0  0  0  0  0  0  0
    6.3367    2.3656   26.6522 C   0  0  0  0  0  0  0  0  0  0  0  0
    6.1095    2.7870   27.6298 H   0  0  0  0  0  0  0  0  0  0  0  0
    6.4381    0.9550   26.5195 C   0  0  0  0  0  0  0  0  0  0  0  0
    6.2728    0.3211   27.3900 H   0  0  0  0  0  0  0  0  0  0  0  0
    6.7525    0.3820   25.2946 C   0  0  0  0  0  0  0  0  0  0  0  0
    6.8401   -0.6977   25.1757 H   0  0  0  0  0  0  0  0  0  0  0  0
    6.9833    1.2361   24.1877 C   0  0  0  0  0  0  0  0  0  0  0  0
    5.4171    0.6994   20.1356 C   0  0  0  0  0  0  0  0  0  0  0  0
    4.9751    0.6972   21.1358 H   0  0  0  0  0  0  0  0  0  0  0  0
    4.7814    1.3388   19.0676 C   0  0  0  0  0  0  0  0  0  0  0  0
    3.8324    1.8494   19.1966 H   0  0  0  0  0  0  0  0  0  0  0  0
  1  2  1  0
  2  3  2  0
  3  4  1  0
  4  5  1  0
  4  6  2  0
  6  7  1  0
  7  8  2  0
  8  9  1  0
  8 10  1  0
 10 11  2  0
 11 12  1  0
 12 13  1  0
 13 14  2  0
 14 15  1  0
 14 16  1  0
 16 17  1  0
 16 18  1  0
 18 19  2  0
 19 20  1  0
 19 21  1  0
 21 22  1  0
 21 23  2  0
 23 24  1  0
 23 25  1  0
 25 26  1  0
 25 27  2  0
  6 28  1  0
 28 29  1  0
 28 30  2  0
 30 31  1  0
 30  2  1  0
 12  7  1  0
 27 13  1  0
 27 18  1  0
M  END
>  <plip>  (1) 
-0.034482758620689655

>  <filename>  (1) 
[H][c]1[n][c]([H])[c](-[c]2[c]([H])[n][n][n]2-[c]2[c]([H])[n]([H])[c]3[c]([H])[c]([H])[c]([H])[c]([H])[c]23)[c]([H])[c]1[H]

$$$$
