
     RDKit          3D

 29 31  0  0  0  0  0  0  0  0999 V2000
    8.8031   -3.1992   22.1127 H   0  0  0  0  0  0  0  0  0  0  0  0
    8.3140   -2.2504   21.9341 C   0  0  0  0  0  0  0  0  0  0  0  0
    8.0553   -1.3685   22.9319 N   0  0  0  0  0  0  0  0  0  0  0  0
    7.5009   -0.3598   22.2970 C   0  0  0  0  0  0  0  0  0  0  0  0
    7.2188    0.9122   22.8902 C   0  0  0  0  0  0  0  0  0  0  0  0
    6.5590    1.1617   24.1224 C   0  0  0  0  0  0  0  0  0  0  0  0
    6.0749    0.1219   25.0687 C   0  0  0  0  0  0  0  0  0  0  0  0
    6.9431   -0.3673   25.5228 H   0  0  0  0  0  0  0  0  0  0  0  0
    5.4254    0.5493   25.8368 H   0  0  0  0  0  0  0  0  0  0  0  0
    5.5509   -0.6580   24.5106 H   0  0  0  0  0  0  0  0  0  0  0  0
    6.4381    2.4482   24.3228 N   0  0  0  0  0  0  0  0  0  0  0  0
    7.0530    3.0660   23.2417 O   0  0  0  0  0  0  0  0  0  0  0  0
    7.5191    2.1428   22.4049 C   0  0  0  0  0  0  0  0  0  0  0  0
    8.1793    2.5010   21.1327 C   0  0  0  0  0  0  0  0  0  0  0  0
    8.5834    3.5151   21.1503 H   0  0  0  0  0  0  0  0  0  0  0  0
    8.9541    1.7652   20.8898 H   0  0  0  0  0  0  0  0  0  0  0  0
    7.4156    2.4062   20.3544 H   0  0  0  0  0  0  0  0  0  0  0  0
    7.3783   -0.6627   20.9543 N   0  0  0  0  0  0  0  0  0  0  0  0
    6.6577   -0.0044   19.9134 C   0  0  0  0  0  0  0  0  0  0  0  0
    7.1681    0.0098   18.5979 C   0  0  0  0  0  0  0  0  0  0  0  0
    8.1095   -0.4808   18.3670 H   0  0  0  0  0  0  0  0  0  0  0  0
    6.5679    0.6414   17.5854 N   0  0  0  0  0  0  0  0  0  0  0  0
    5.4148    1.2854   17.8376 C   0  0  0  0  0  0  0  0  0  0  0  0
    4.9585    1.8040   16.9978 H   0  0  0  0  0  0  0  0  0  0  0  0
    4.8158    1.3044   19.1022 C   0  0  0  0  0  0  0  0  0  0  0  0
    3.8821    1.8414   19.2394 H   0  0  0  0  0  0  0  0  0  0  0  0
    5.4424    0.6475   20.1654 C   0  0  0  0  0  0  0  0  0  0  0  0
    5.0187    0.6538   21.1704 H   0  0  0  0  0  0  0  0  0  0  0  0
    7.9351   -1.8809   20.7284 N   0  0  0  0  0  0  0  0  0  0  0  0
  1  2  1  0
  2  3  1  0
  3  4  2  0
  4  5  1  0
  5  6  1  0
  6  7  1  0
  7  8  1  0
  7  9  1  0
  7 10  1  0
  6 11  2  0
 11 12  1  0
 12 13  1  0
 13 14  1  0
 14 15  1  0
 14 16  1  0
 14 17  1  0
  4 18  1  0
 18 19  1  0
 19 20  2  0
 20 21  1  0
 20 22  1  0
 22 23  2  0
 23 24  1  0
 23 25  1  0
 25 26  1  0
 25 27  2  0
 27 28  1  0
 18 29  1  0
 29  2  2  0
 13  5  2  0
 27 19  1  0
M  END
>  <plip>  (1) 
-0.0

>  <filename>  (1) 
[H][c]1[n][c](-[c]2[c]([C]([H])([H])[H])[n][o][c]2[C]([H])([H])[H])[n](-[c]2[c]([H])[n][c]([H])[c]([H])[c]2[H])[n]1

$$$$
