
     RDKit          3D

 22 23  0  0  0  0  0  0  0  0999 V2000
    6.6703   -0.9712   21.8228 H   0  0  0  0  0  0  0  0  0  0  0  0
    7.3288   -0.6581   21.0154 C   0  0  0  0  0  0  0  0  0  0  0  0
    8.6430   -0.8494   21.1254 C   0  0  0  0  0  0  0  0  0  0  0  0
    9.3412   -0.5065   20.3709 H   0  0  0  0  0  0  0  0  0  0  0  0
    9.2623   -1.5213   22.1871 N   0  0  0  0  0  0  0  0  0  0  0  0
    8.6612   -2.2376   23.1939 C   0  0  0  0  0  0  0  0  0  0  0  0
    7.5989   -2.1977   23.3768 H   0  0  0  0  0  0  0  0  0  0  0  0
    9.5232   -2.9227   23.8921 N   0  0  0  0  0  0  0  0  0  0  0  0
   10.7455   -2.6568   23.3187 C   0  0  0  0  0  0  0  0  0  0  0  0
   11.6362   -3.1335   23.6888 H   0  0  0  0  0  0  0  0  0  0  0  0
   10.6172   -1.7811   22.2818 C   0  0  0  0  0  0  0  0  0  0  0  0
   11.3285   -1.3134   21.6159 H   0  0  0  0  0  0  0  0  0  0  0  0
    6.6493    0.0072   19.8899 C   0  0  0  0  0  0  0  0  0  0  0  0
    7.1683    0.0690   18.5792 C   0  0  0  0  0  0  0  0  0  0  0  0
    8.1117   -0.4222   18.3443 H   0  0  0  0  0  0  0  0  0  0  0  0
    6.5608    0.6894   17.5605 N   0  0  0  0  0  0  0  0  0  0  0  0
    5.3963    1.3062   17.8186 C   0  0  0  0  0  0  0  0  0  0  0  0
    4.9288    1.8123   16.9769 H   0  0  0  0  0  0  0  0  0  0  0  0
    4.7866    1.3136   19.0791 C   0  0  0  0  0  0  0  0  0  0  0  0
    3.8549    1.8504   19.2248 H   0  0  0  0  0  0  0  0  0  0  0  0
    5.4176    0.6430   20.1247 C   0  0  0  0  0  0  0  0  0  0  0  0
    4.9889    0.6322   21.1277 H   0  0  0  0  0  0  0  0  0  0  0  0
  1  2  1  0
  2  3  2  3
  3  4  1  0
  3  5  1  0
  5  6  1  0
  6  7  1  0
  6  8  2  0
  8  9  1  0
  9 10  1  0
  9 11  2  0
 11 12  1  0
  2 13  1  0
 13 14  2  0
 14 15  1  0
 14 16  1  0
 16 17  2  0
 17 18  1  0
 17 19  1  0
 19 20  1  0
 19 21  2  0
 21 22  1  0
 11  5  1  0
 21 13  1  0
M  END
>  <plip>  (1) 
-0.03571428571428571

>  <filename>  (1) 
[H][C](=[C]([H])[n]1[c]([H])[n][c]([H])[c]1[H])[c]1[c]([H])[n][c]([H])[c]([H])[c]1[H]

$$$$
