
     RDKit          3D

 30 32  0  0  0  0  0  0  0  0999 V2000
    4.8935    1.8952   16.8729 H   0  0  0  0  0  0  0  0  0  0  0  0
    5.3385    1.3524   17.7018 C   0  0  0  0  0  0  0  0  0  0  0  0
    6.4819    0.6995   17.4322 N   0  0  0  0  0  0  0  0  0  0  0  0
    7.0853    0.0580   18.4449 C   0  0  0  0  0  0  0  0  0  0  0  0
    8.0015   -0.4809   18.1994 H   0  0  0  0  0  0  0  0  0  0  0  0
    6.5840    0.0216   19.7720 C   0  0  0  0  0  0  0  0  0  0  0  0
    7.2714   -0.6391   20.8409 N   0  0  0  0  0  0  0  0  0  0  0  0
    8.5947   -0.3765   21.1575 C   0  0  0  0  0  0  0  0  0  0  0  0
    9.5147   -1.1824   21.7919 C   0  0  0  0  0  0  0  0  0  0  0  0
    9.2945   -2.1507   22.2256 H   0  0  0  0  0  0  0  0  0  0  0  0
   10.7368   -0.4356   21.9018 C   0  0  0  0  0  0  0  0  0  0  0  0
   12.0349   -0.6763   22.4229 C   0  0  0  0  0  0  0  0  0  0  0  0
   12.3042   -1.6880   22.7090 H   0  0  0  0  0  0  0  0  0  0  0  0
   12.9356    0.3805   22.5511 C   0  0  0  0  0  0  0  0  0  0  0  0
   13.9019    0.2353   23.0390 H   0  0  0  0  0  0  0  0  0  0  0  0
   12.5763    1.6756   22.0967 C   0  0  0  0  0  0  0  0  0  0  0  0
   13.2875    2.4867   22.2202 H   0  0  0  0  0  0  0  0  0  0  0  0
   11.3454    1.9271   21.4995 C   0  0  0  0  0  0  0  0  0  0  0  0
   11.0654    2.9192   21.1499 H   0  0  0  0  0  0  0  0  0  0  0  0
   10.4511    0.8601   21.3924 C   0  0  0  0  0  0  0  0  0  0  0  0
    9.1715    0.8475   20.8760 N   0  0  0  0  0  0  0  0  0  0  0  0
    8.6423    1.6622   20.6196 H   0  0  0  0  0  0  0  0  0  0  0  0
    6.6101   -1.6893   21.6072 C   0  0  0  0  0  0  0  0  0  0  0  0
    7.0839   -2.6742   21.4550 H   0  0  0  0  0  0  0  0  0  0  0  0
    5.5690   -1.7723   21.2913 H   0  0  0  0  0  0  0  0  0  0  0  0
    6.6283   -1.4620   22.6835 H   0  0  0  0  0  0  0  0  0  0  0  0
    5.3482    0.6523   20.0057 C   0  0  0  0  0  0  0  0  0  0  0  0
    4.9096    0.6018   21.0026 H   0  0  0  0  0  0  0  0  0  0  0  0
    4.7285    1.3509   18.9622 C   0  0  0  0  0  0  0  0  0  0  0  0
    3.7979    1.8933   19.1128 H   0  0  0  0  0  0  0  0  0  0  0  0
  1  2  1  0
  2  3  2  0
  3  4  1  0
  4  5  1  0
  4  6  2  0
  6  7  1  0
  7  8  1  0
  8  9  2  0
  9 10  1  0
  9 11  1  0
 11 12  2  0
 12 13  1  0
 12 14  1  0
 14 15  1  0
 14 16  2  0
 16 17  1  0
 16 18  1  0
 18 19  1  0
 18 20  2  0
 20 21  1  0
 21 22  1  0
  7 23  1  0
 23 24  1  0
 23 25  1  0
 23 26  1  0
  6 27  1  0
 27 28  1  0
 27 29  2  0
 29 30  1  0
 29  2  1  0
 21  8  1  0
 20 11  1  0
M  END
>  <plip>  (1) 
-0.14285714285714285

>  <filename>  (1) 
[H][c]1[n][c]([H])[c]([N]([c]2[c]([H])[c]3[c]([H])[c]([H])[c]([H])[c]([H])[c]3[n]2[H])[C]([H])([H])[H])[c]([H])[c]1[H]

$$$$
