
     RDKit          3D

 36 37  0  0  0  0  0  0  0  0999 V2000
    8.9471    3.8039   24.6432 C   0  0  0  0  0  0  0  0  0  0  0  0
   10.1821    4.3771   23.9143 C   0  0  0  0  0  0  0  0  0  0  0  0
   10.7650    5.6261   24.6102 C   0  0  0  0  0  0  0  0  0  0  0  0
   11.7738    6.2784   24.3809 N   0  0  0  0  0  0  0  0  0  0  0  0
   12.7139    5.5428   21.7765 C   0  0  0  0  0  0  0  0  0  0  0  0
   12.9530    5.3555   22.0389 C   0  0  0  0  0  0  0  0  0  0  0  0
   10.6476    3.8582   22.7630 C   0  0  0  0  0  0  0  0  0  0  0  0
    9.9113    2.6638   22.1024 C   0  0  0  0  0  0  0  0  0  0  0  0
   10.0999    1.2514   22.7449 C   0  0  0  0  0  0  0  0  0  0  0  0
    9.3797    0.2473   21.9706 N   0  0  0  0  0  0  0  0  0  0  0  0
    8.0238    0.1448   21.9682 C   0  0  0  0  0  0  0  0  0  0  0  0
    7.3114    0.7745   22.7352 O   0  0  0  0  0  0  0  0  0  0  0  0
    7.4017   -0.8025   20.8502 C   0  0  0  0  0  0  0  0  0  0  0  0
    8.3952   -1.6072   20.3249 F   0  0  0  0  0  0  0  0  0  0  0  0
    6.5206   -1.6527   21.4469 F   0  0  0  0  0  0  0  0  0  0  0  0
    6.7021   -0.0627   19.7316 C   0  0  0  0  0  0  0  0  0  0  0  0
    5.6897    0.8591   20.0281 C   0  0  0  0  0  0  0  0  0  0  0  0
    5.0907    1.5303   18.9642 C   0  0  0  0  0  0  0  0  0  0  0  0
    5.5236    1.2608   17.6619 C   0  0  0  0  0  0  0  0  0  0  0  0
    6.4857    0.3731   17.3723 N   0  0  0  0  0  0  0  0  0  0  0  0
    7.0499   -0.2804   18.3906 C   0  0  0  0  0  0  0  0  0  0  0  0
    7.8277   -0.9960   18.1333 H   0  0  0  0  0  0  0  0  0  0  0  0
    5.0821    1.7787   16.8126 H   0  0  0  0  0  0  0  0  0  0  0  0
    4.3114    2.2646   19.1268 H   0  0  0  0  0  0  0  0  0  0  0  0
    5.4044    1.0516   21.0634 H   0  0  0  0  0  0  0  0  0  0  0  0
    9.8918   -0.3306   21.3257 H   0  0  0  0  0  0  0  0  0  0  0  0
    9.7207    1.2415   23.7684 H   0  0  0  0  0  0  0  0  0  0  0  0
   11.1325    0.8956   22.8016 H   0  0  0  0  0  0  0  0  0  0  0  0
   10.1334    2.5409   21.0357 H   0  0  0  0  0  0  0  0  0  0  0  0
    8.7997    2.7933   22.1376 H   0  0  0  0  0  0  0  0  0  0  0  0
   11.9152    4.8343   22.2906 H   0  0  0  0  0  0  0  0  0  0  0  0
   12.9080    4.5341   21.1693 H   0  0  0  0  0  0  0  0  0  0  0  0
   10.0645    5.9046   25.4668 H   0  0  0  0  0  0  0  0  0  0  0  0
    8.7987    4.2814   25.6143 H   0  0  0  0  0  0  0  0  0  0  0  0
    8.0270    3.9464   24.0622 H   0  0  0  0  0  0  0  0  0  0  0  0
    9.0455    2.7326   24.8366 H   0  0  0  0  0  0  0  0  0  0  0  0
  1  2  1  0
  2  3  2  0
  3  4  1  0
  4  5  2  0
  5  6  1  0
  6  7  2  0
  7  8  1  0
  8  9  1  0
  9 10  1  0
 10 11  1  0
 11 12  2  0
 11 13  1  0
 13 14  1  0
 13 15  1  0
 13 16  1  0
 16 17  2  0
 17 18  1  0
 18 19  2  0
 19 20  1  0
 20 21  2  0
 21 22  1  0
 19 23  1  0
 18 24  1  0
 17 25  1  0
 10 26  1  0
  9 27  1  0
  9 28  1  0
  8 29  1  0
  8 30  1  0
  6 31  1  0
  5 32  1  0
  3 33  1  0
  1 34  1  0
  1 35  1  0
  1 36  1  0
  7  2  1  0
 21 16  1  0
M  END
>  <plip>  (1) 
-0.06451612903225806

>  <filename>  (1) 
[H][c]1[n][c]([H])[c]([C]([F])([F])[C](=[O])[N]([H])[C]([H])([H])[C]([H])([H])[c]2[c]([H])[c]([H])[n][c]([H])[c]2[C]([H])([H])[H])[c]([H])[c]1[H]

$$$$
