
     RDKit          3D

 33 35  0  0  0  0  0  0  0  0999 V2000
    8.5105    0.4011   21.3751 C   0  0  0  0  0  0  0  0  0  0  0  0
    7.0736   -0.1187   21.1913 C   0  0  0  0  0  0  0  0  0  0  0  0
    6.8868   -1.9667   21.0155 S   0  0  0  0  0  0  0  0  0  0  0  0
    7.1615   -2.7204   22.6045 C   0  0  0  0  0  0  0  0  0  0  0  0
    6.0894   -3.1920   23.3381 C   0  0  0  0  0  0  0  0  0  0  0  0
    6.3301   -3.9575   24.5086 C   0  0  0  0  0  0  0  0  0  0  0  0
    7.5230   -4.2628   24.9722 N   0  0  0  0  0  0  0  0  0  0  0  0
    8.6013   -3.7956   24.2727 C   0  0  0  0  0  0  0  0  0  0  0  0
    9.8933   -4.1926   24.7352 C   0  0  0  0  0  0  0  0  0  0  0  0
   11.0244   -3.7912   24.0634 C   0  0  0  0  0  0  0  0  0  0  0  0
   10.9180   -2.9750   22.9081 C   0  0  0  0  0  0  0  0  0  0  0  0
    9.6849   -2.6047   22.4179 C   0  0  0  0  0  0  0  0  0  0  0  0
    8.4918   -3.0073   23.0810 C   0  0  0  0  0  0  0  0  0  0  0  0
    9.6041   -2.0327   21.5020 H   0  0  0  0  0  0  0  0  0  0  0  0
   11.8009   -2.6929   22.3459 H   0  0  0  0  0  0  0  0  0  0  0  0
   12.0028   -4.1097   24.4055 H   0  0  0  0  0  0  0  0  0  0  0  0
    9.9265   -4.8300   25.6138 H   0  0  0  0  0  0  0  0  0  0  0  0
    5.4780   -4.3464   25.0659 H   0  0  0  0  0  0  0  0  0  0  0  0
    5.0729   -3.0160   23.0009 H   0  0  0  0  0  0  0  0  0  0  0  0
    6.4294    0.4162   19.9214 C   0  0  0  0  0  0  0  0  0  0  0  0
    5.2095    1.1060   19.9505 C   0  0  0  0  0  0  0  0  0  0  0  0
    4.6708    1.5854   18.7540 C   0  0  0  0  0  0  0  0  0  0  0  0
    5.3739    1.3661   17.5659 C   0  0  0  0  0  0  0  0  0  0  0  0
    6.5295    0.6875   17.5042 N   0  0  0  0  0  0  0  0  0  0  0  0
    7.0292    0.2288   18.6605 C   0  0  0  0  0  0  0  0  0  0  0  0
    7.9668   -0.3213   18.5717 H   0  0  0  0  0  0  0  0  0  0  0  0
    4.9970    1.7583   16.6240 H   0  0  0  0  0  0  0  0  0  0  0  0
    3.7384    2.1415   18.7374 H   0  0  0  0  0  0  0  0  0  0  0  0
    4.6945    1.2813   20.8979 H   0  0  0  0  0  0  0  0  0  0  0  0
    6.4770    0.1815   22.0635 H   0  0  0  0  0  0  0  0  0  0  0  0
    8.4859    1.4969   21.3373 H   0  0  0  0  0  0  0  0  0  0  0  0
    8.9464    0.1060   22.3374 H   0  0  0  0  0  0  0  0  0  0  0  0
    9.1747    0.0522   20.5739 H   0  0  0  0  0  0  0  0  0  0  0  0
  1  2  1  0
  2  3  1  0
  3  4  1  0
  4  5  2  0
  5  6  1  0
  6  7  2  0
  7  8  1  0
  8  9  2  0
  9 10  1  0
 10 11  2  0
 11 12  1  0
 12 13  2  0
 12 14  1  0
 11 15  1  0
 10 16  1  0
  9 17  1  0
  6 18  1  0
  5 19  1  0
  2 20  1  0
 20 21  2  0
 21 22  1  0
 22 23  2  0
 23 24  1  0
 24 25  2  0
 25 26  1  0
 23 27  1  0
 22 28  1  0
 21 29  1  0
  2 30  1  0
  1 31  1  0
  1 32  1  0
  1 33  1  0
 13  4  1  0
 25 20  1  0
 13  8  1  0
M  END
>  <plip>  (1) 
-0.07142857142857142

>  <filename>  (1) 
[H][c]1[n][c]([H])[c]([C]([H])([S][c]2[c]([H])[c]([H])[n][c]3[c]([H])[c]([H])[c]([H])[c]([H])[c]23)[C]([H])([H])[H])[c]([H])[c]1[H]

$$$$
