
     RDKit          3D

 35 37  0  0  0  0  0  0  0  0999 V2000
    4.8068    1.3113   19.1062 C   0  0  0  0  0  0  0  0  0  0  0  0
    5.4071    1.2888   17.8411 C   0  0  0  0  0  0  0  0  0  0  0  0
    6.5691    0.6693   17.5908 N   0  0  0  0  0  0  0  0  0  0  0  0
    7.1695    0.0600   18.6139 C   0  0  0  0  0  0  0  0  0  0  0  0
    6.6514    0.0079   19.9146 C   0  0  0  0  0  0  0  0  0  0  0  0
    7.3810   -0.7026   20.9767 C   0  0  0  0  0  0  0  0  0  0  0  0
    8.7164   -0.9612   20.9932 C   0  0  0  0  0  0  0  0  0  0  0  0
    9.1503   -1.7743   22.4418 S   0  0  0  0  0  0  0  0  0  0  0  0
    7.4873   -1.7093   22.9333 C   0  0  0  0  0  0  0  0  0  0  0  0
    7.0555   -2.2259   24.2692 C   0  0  0  0  0  0  0  0  0  0  0  0
    7.4280   -1.0697   25.6191 S   0  0  0  0  0  0  0  0  0  0  0  0
    6.0997    0.1206   25.2769 C   0  0  0  0  0  0  0  0  0  0  0  0
    6.1806    1.3250   26.2041 C   0  0  0  0  0  0  0  0  0  0  0  0
    7.3991    2.2281   25.9763 C   0  0  0  0  0  0  0  0  0  0  0  0
    6.9025    3.6146   26.3909 C   0  0  0  0  0  0  0  0  0  0  0  0
    5.4820    3.5815   26.3600 O   0  0  0  0  0  0  0  0  0  0  0  0
    5.0132    2.2968   25.9972 C   0  0  0  0  0  0  0  0  0  0  0  0
    4.1432    2.0520   26.6225 H   0  0  0  0  0  0  0  0  0  0  0  0
    4.6747    2.3010   24.9465 H   0  0  0  0  0  0  0  0  0  0  0  0
    7.2211    3.8679   27.4116 H   0  0  0  0  0  0  0  0  0  0  0  0
    7.2658    4.4026   25.7150 H   0  0  0  0  0  0  0  0  0  0  0  0
    7.6911    2.2170   24.9186 H   0  0  0  0  0  0  0  0  0  0  0  0
    8.2712    1.9123   26.5543 H   0  0  0  0  0  0  0  0  0  0  0  0
    6.1700    0.9810   27.2459 H   0  0  0  0  0  0  0  0  0  0  0  0
    5.1414   -0.3969   25.3894 H   0  0  0  0  0  0  0  0  0  0  0  0
    6.1694    0.4399   24.2288 H   0  0  0  0  0  0  0  0  0  0  0  0
    5.9797   -2.4125   24.2634 H   0  0  0  0  0  0  0  0  0  0  0  0
    7.5535   -3.1647   24.5100 H   0  0  0  0  0  0  0  0  0  0  0  0
    6.6947   -1.1312   22.0926 N   0  0  0  0  0  0  0  0  0  0  0  0
    9.4441   -0.6829   20.2497 H   0  0  0  0  0  0  0  0  0  0  0  0
    5.4300    0.6547   20.1607 C   0  0  0  0  0  0  0  0  0  0  0  0
    5.0000    0.6294   21.1663 H   0  0  0  0  0  0  0  0  0  0  0  0
    8.1110   -0.4267   18.3666 H   0  0  0  0  0  0  0  0  0  0  0  0
    4.9262    1.7761   16.9969 H   0  0  0  0  0  0  0  0  0  0  0  0
    3.8737    1.8441   19.2557 H   0  0  0  0  0  0  0  0  0  0  0  0
  1  2  2  0
  2  3  1  0
  3  4  2  0
  4  5  1  0
  5  6  1  0
  6  7  2  0
  7  8  1  0
  8  9  1  0
  9 10  1  0
 10 11  1  0
 11 12  1  0
 12 13  1  0
 13 14  1  0
 14 15  1  0
 15 16  1  0
 16 17  1  0
 17 18  1  0
 17 19  1  0
 15 20  1  0
 15 21  1  0
 14 22  1  0
 14 23  1  0
 13 24  1  0
 12 25  1  0
 12 26  1  0
 10 27  1  0
 10 28  1  0
  9 29  2  0
  7 30  1  0
  5 31  2  0
 31 32  1  0
  4 33  1  0
  2 34  1  0
  1 35  1  0
 31  1  1  0
 29  6  1  0
 17 13  1  0
M  END
>  <plip>  (1) 
-0.03571428571428571

>  <filename>  (1) 
[H][c]1[n][c]([H])[c](-[c]2[n][c]([C]([H])([H])[S][C]([H])([H])[C]3([H])[C]([H])([H])[O][C]([H])([H])[C]3([H])[H])[s][c]2[H])[c]([H])[c]1[H]

$$$$
