
     RDKit          3D

 46 47  0  0  0  0  0  0  0  0999 V2000
    6.7647    2.4382   21.6046 N   0  0  0  0  0  4  0  0  0  0  0  0
    6.9712    1.1496   22.3591 C   0  0  0  0  0  0  0  0  0  0  0  0
    7.5503   -0.0106   21.5070 C   0  0  0  0  0  0  0  0  0  0  0  0
    6.4833   -0.8519   20.7537 C   0  0  0  0  0  0  0  0  0  0  0  0
    5.8542   -0.1240   19.5918 C   0  0  0  0  0  0  0  0  0  0  0  0
    4.7954    0.7754   19.7819 C   0  0  0  0  0  0  0  0  0  0  0  0
    4.4606    1.6524   18.7467 C   0  0  0  0  0  0  0  0  0  0  0  0
    5.1457    1.5429   17.5324 C   0  0  0  0  0  0  0  0  0  0  0  0
    6.0789    0.6129   17.2855 N   0  0  0  0  0  0  0  0  0  0  0  0
    6.3930   -0.2093   18.2928 C   0  0  0  0  0  0  0  0  0  0  0  0
    7.1353   -0.9759   18.0631 H   0  0  0  0  0  0  0  0  0  0  0  0
    4.9219    2.2207   16.7149 H   0  0  0  0  0  0  0  0  0  0  0  0
    3.7060    2.4222   18.8661 H   0  0  0  0  0  0  0  0  0  0  0  0
    4.2504    0.7992   20.7276 H   0  0  0  0  0  0  0  0  0  0  0  0
    6.9626   -1.7754   20.3979 H   0  0  0  0  0  0  0  0  0  0  0  0
    5.7095   -1.1715   21.4663 H   0  0  0  0  0  0  0  0  0  0  0  0
    8.7297    0.3827   20.5862 C   0  0  0  0  0  0  0  0  0  0  0  0
    9.9330    0.6927   21.4155 N   0  0  0  0  0  4  0  0  0  0  0  0
   10.9629   -0.4149   21.4651 C   0  0  0  0  0  0  0  0  0  0  0  0
   11.7436   -0.2747   22.7761 C   0  0  0  0  0  0  0  0  0  0  0  0
   12.0507    1.2014   23.1744 C   0  0  0  0  0  0  0  0  0  0  0  0
   13.4276    1.2740   23.8300 C   0  0  0  0  0  0  0  0  0  0  0  0
   13.3052    0.5794   25.0581 O   0  0  0  0  0  0  0  0  0  0  0  0
   14.1344    0.6035   25.5487 H   0  0  0  0  0  0  0  0  0  0  0  0
   14.1643    0.7880   23.1532 H   0  0  0  0  0  0  0  0  0  0  0  0
   13.7401    2.3258   23.9649 H   0  0  0  0  0  0  0  0  0  0  0  0
   11.9314    2.1460   21.9693 C   0  0  0  0  0  0  0  0  0  0  0  0
   10.6231    2.0150   21.1690 C   0  0  0  0  0  0  0  0  0  0  0  0
    9.9368    2.8278   21.4154 H   0  0  0  0  0  0  0  0  0  0  0  0
   10.8440    2.1195   20.1040 H   0  0  0  0  0  0  0  0  0  0  0  0
   12.0655    3.1879   22.2752 H   0  0  0  0  0  0  0  0  0  0  0  0
   12.7513    1.9180   21.2877 H   0  0  0  0  0  0  0  0  0  0  0  0
   11.3260    1.5250   23.9385 H   0  0  0  0  0  0  0  0  0  0  0  0
   12.6709   -0.8516   22.6802 H   0  0  0  0  0  0  0  0  0  0  0  0
   11.1778   -0.7348   23.5930 H   0  0  0  0  0  0  0  0  0  0  0  0
   10.4701   -1.3925   21.4058 H   0  0  0  0  0  0  0  0  0  0  0  0
   11.6386   -0.3249   20.6047 H   0  0  0  0  0  0  0  0  0  0  0  0
    9.5918    0.7539   22.3919 H   0  0  0  0  0  0  0  0  0  0  0  0
    8.4867    1.2117   19.9060 H   0  0  0  0  0  0  0  0  0  0  0  0
    8.9647   -0.4688   19.9272 H   0  0  0  0  0  0  0  0  0  0  0  0
    7.9939   -0.6864   22.2559 H   0  0  0  0  0  0  0  0  0  0  0  0
    7.6399    1.3530   23.2048 H   0  0  0  0  0  0  0  0  0  0  0  0
    6.0170    0.8280   22.7976 H   0  0  0  0  0  0  0  0  0  0  0  0
    6.2500    3.1533   22.1556 H   0  0  0  0  0  0  0  0  0  0  0  0
    6.2268    2.2584   20.7293 H   0  0  0  0  0  0  0  0  0  0  0  0
    7.6814    2.8443   21.3361 H   0  0  0  0  0  0  0  0  0  0  0  0
  1  2  1  0
  2  3  1  0
  3  4  1  0
  4  5  1  0
  5  6  2  0
  6  7  1  0
  7  8  2  0
  8  9  1  0
  9 10  2  0
 10 11  1  0
  8 12  1  0
  7 13  1  0
  6 14  1  0
  4 15  1  0
  4 16  1  0
  3 17  1  0
 17 18  1  0
 18 19  1  0
 19 20  1  0
 20 21  1  0
 21 22  1  0
 22 23  1  0
 23 24  1  0
 22 25  1  0
 22 26  1  0
 21 27  1  0
 27 28  1  0
 28 29  1  0
 28 30  1  0
 27 31  1  0
 27 32  1  0
 21 33  1  0
 20 34  1  0
 20 35  1  0
 19 36  1  0
 19 37  1  0
 18 38  1  0
 17 39  1  0
 17 40  1  0
  3 41  1  0
  2 42  1  0
  2 43  1  0
  1 44  1  0
  1 45  1  0
  1 46  1  0
 10  5  1  0
 28 18  1  0
M  CHG  2   1   1  18   1
M  END
>  <plip>  (1) 
-0.1724137931034483

>  <filename>  (1) 
[H][O][C]([H])([H])[C]1([H])[C]([H])([H])[C]([H])([H])[N+]([H])([C]([H])([H])[C]([H])([C]([H])([H])[c]2[c]([H])[n][c]([H])[c]([H])[c]2[H])[C]([H])([H])[N+]([H])([H])[H])[C]([H])([H])[C]1([H])[H]

$$$$
