
     RDKit          3D

 29 30  0  0  0  0  0  0  0  0999 V2000
    4.9914    1.7738   17.0014 H   0  0  0  0  0  0  0  0  0  0  0  0
    5.4307    1.2696   17.8612 C   0  0  0  0  0  0  0  0  0  0  0  0
    6.5840    0.6296   17.6369 N   0  0  0  0  0  0  0  0  0  0  0  0
    7.1604    0.0133   18.6721 C   0  0  0  0  0  0  0  0  0  0  0  0
    8.1189   -0.4431   18.4365 H   0  0  0  0  0  0  0  0  0  0  0  0
    6.6254   -0.0432   19.9717 C   0  0  0  0  0  0  0  0  0  0  0  0
    7.3671   -0.7722   21.0573 C   0  0  0  0  0  0  0  0  0  0  0  0
    6.6614   -1.3885   21.9249 N   0  0  0  0  0  0  0  0  0  0  0  0
    7.1564   -2.1978   22.9533 C   0  0  0  0  0  0  0  0  0  0  0  0
    8.3987   -2.6825   22.9352 N   0  0  0  0  0  0  0  0  0  0  0  0
    8.7689   -3.4906   23.9427 C   0  0  0  0  0  0  0  0  0  0  0  0
    9.7955   -3.8615   23.8963 H   0  0  0  0  0  0  0  0  0  0  0  0
    7.9311   -3.8421   25.0019 C   0  0  0  0  0  0  0  0  0  0  0  0
    8.2879   -4.4852   25.7950 H   0  0  0  0  0  0  0  0  0  0  0  0
    6.6106   -3.3462   25.0312 C   0  0  0  0  0  0  0  0  0  0  0  0
    5.5952   -3.6759   26.1094 C   0  0  0  0  0  0  0  0  0  0  0  0
    6.0749   -3.8585   27.0738 H   0  0  0  0  0  0  0  0  0  0  0  0
    5.0079   -4.5668   25.8566 H   0  0  0  0  0  0  0  0  0  0  0  0
    4.8745   -2.8605   26.2499 H   0  0  0  0  0  0  0  0  0  0  0  0
    6.2468   -2.5243   23.9873 C   0  0  0  0  0  0  0  0  0  0  0  0
    5.2458   -2.1620   23.9971 H   0  0  0  0  0  0  0  0  0  0  0  0
    8.8677   -0.6870   21.0445 C   0  0  0  0  0  0  0  0  0  0  0  0
    9.2915   -1.6412   20.7254 H   0  0  0  0  0  0  0  0  0  0  0  0
    9.2683   -0.5097   22.0456 H   0  0  0  0  0  0  0  0  0  0  0  0
    9.1952    0.1103   20.3772 H   0  0  0  0  0  0  0  0  0  0  0  0
    5.4048    0.6286   20.1855 C   0  0  0  0  0  0  0  0  0  0  0  0
    4.9535    0.6350   21.1797 H   0  0  0  0  0  0  0  0  0  0  0  0
    4.8106    1.3000   19.1159 C   0  0  0  0  0  0  0  0  0  0  0  0
    3.8815    1.8488   19.2314 H   0  0  0  0  0  0  0  0  0  0  0  0
  1  2  1  0
  2  3  2  0
  3  4  1  0
  4  5  1  0
  4  6  2  0
  6  7  1  0
  7  8  2  3
  8  9  1  0
  9 10  2  0
 10 11  1  0
 11 12  1  0
 11 13  2  0
 13 14  1  0
 13 15  1  0
 15 16  1  0
 16 17  1  0
 16 18  1  0
 16 19  1  0
 15 20  2  0
 20 21  1  0
  7 22  1  0
 22 23  1  0
 22 24  1  0
 22 25  1  0
  6 26  1  0
 26 27  1  0
 26 28  2  0
 28 29  1  0
 28  2  1  0
 20  9  1  0
M  END
>  <plip>  (1) 
-0.0

>  <filename>  (1) 
[H][c]1[n][c]([H])[c]([C](=[N][c]2[n][c]([H])[c]([H])[c]([C]([H])([H])[H])[c]2[H])[C]([H])([H])[H])[c]([H])[c]1[H]

$$$$
