
     RDKit          3D

 28 29  0  0  0  0  0  0  0  0999 V2000
    8.1590   -2.8070   22.5747 H   0  0  0  0  0  0  0  0  0  0  0  0
    7.3774   -3.0740   21.8644 C   0  0  0  0  0  0  0  0  0  0  0  0
    6.9073   -2.1799   20.9906 C   0  0  0  0  0  0  0  0  0  0  0  0
    6.1888   -2.4680   20.2259 H   0  0  0  0  0  0  0  0  0  0  0  0
    7.3658   -0.7419   20.9612 C   0  0  0  0  0  0  0  0  0  0  0  0
    7.1851   -0.1732   22.1963 F   0  0  0  0  0  0  0  0  0  0  0  0
    8.7227   -0.6963   20.7326 F   0  0  0  0  0  0  0  0  0  0  0  0
    6.6528    0.0675   19.9084 C   0  0  0  0  0  0  0  0  0  0  0  0
    7.1673    0.0788   18.6088 C   0  0  0  0  0  0  0  0  0  0  0  0
    8.1180   -0.3996   18.3838 H   0  0  0  0  0  0  0  0  0  0  0  0
    6.5572    0.6717   17.5807 N   0  0  0  0  0  0  0  0  0  0  0  0
    5.3941    1.2938   17.8178 C   0  0  0  0  0  0  0  0  0  0  0  0
    4.9434    1.7954   16.9614 H   0  0  0  0  0  0  0  0  0  0  0  0
    4.7905    1.3283   19.0805 C   0  0  0  0  0  0  0  0  0  0  0  0
    3.8495    1.8538   19.2068 H   0  0  0  0  0  0  0  0  0  0  0  0
    5.4269    0.6979   20.1498 C   0  0  0  0  0  0  0  0  0  0  0  0
    4.9873    0.6972   21.1469 H   0  0  0  0  0  0  0  0  0  0  0  0
    6.9715   -4.4845   21.9570 C   0  0  0  0  0  0  0  0  0  0  0  0
    5.7565   -4.9610   21.4391 C   0  0  0  0  0  0  0  0  0  0  0  0
    5.0978   -4.2326   20.9770 H   0  0  0  0  0  0  0  0  0  0  0  0
    5.4225   -6.3151   21.5524 C   0  0  0  0  0  0  0  0  0  0  0  0
    4.4718   -6.6894   21.1852 H   0  0  0  0  0  0  0  0  0  0  0  0
    6.3210   -7.2079   22.1503 C   0  0  0  0  0  0  0  0  0  0  0  0
    6.0638   -8.2579   22.2457 H   0  0  0  0  0  0  0  0  0  0  0  0
    7.5487   -6.7450   22.6436 C   0  0  0  0  0  0  0  0  0  0  0  0
    8.2855   -7.4289   23.0542 H   0  0  0  0  0  0  0  0  0  0  0  0
    7.8476   -5.3872   22.5850 C   0  0  0  0  0  0  0  0  0  0  0  0
    8.7751   -5.0210   23.0223 H   0  0  0  0  0  0  0  0  0  0  0  0
  1  2  1  0
  2  3  2  3
  3  4  1  0
  3  5  1  0
  5  6  1  0
  5  7  1  0
  5  8  1  0
  8  9  2  0
  9 10  1  0
  9 11  1  0
 11 12  2  0
 12 13  1  0
 12 14  1  0
 14 15  1  0
 14 16  2  0
 16 17  1  0
  2 18  1  0
 18 19  2  0
 19 20  1  0
 19 21  1  0
 21 22  1  0
 21 23  2  0
 23 24  1  0
 23 25  1  0
 25 26  1  0
 25 27  2  0
 27 28  1  0
 16  8  1  0
 27 18  1  0
M  END
>  <plip>  (1) 
-0.06451612903225806

>  <filename>  (1) 
[H][C](=[C]([H])[C]([F])([F])[c]1[c]([H])[n][c]([H])[c]([H])[c]1[H])[c]1[c]([H])[c]([H])[c]([H])[c]([H])[c]1[H]

$$$$
