
     RDKit          3D

 40 43  0  0  0  0  0  0  0  0999 V2000
    4.9345    1.8048   16.9765 H   0  0  0  0  0  0  0  0  0  0  0  0
    5.3988    1.2973   17.8189 C   0  0  0  0  0  0  0  0  0  0  0  0
    6.5559    0.6757   17.5661 N   0  0  0  0  0  0  0  0  0  0  0  0
    7.1666    0.0519   18.5867 C   0  0  0  0  0  0  0  0  0  0  0  0
    8.1196   -0.4105   18.3327 H   0  0  0  0  0  0  0  0  0  0  0  0
    6.6656   -0.0053   19.9008 C   0  0  0  0  0  0  0  0  0  0  0  0
    7.3528   -0.7377   21.0710 C   0  0  2  0  0  0  0  0  0  0  0  0
    6.4051   -1.8998   21.4903 C   0  0  0  0  0  0  0  0  0  0  0  0
    6.2415   -2.5294   20.6044 H   0  0  0  0  0  0  0  0  0  0  0  0
    5.4358   -1.4445   21.7008 H   0  0  0  0  0  0  0  0  0  0  0  0
    6.8620   -2.7763   22.6393 C   0  0  0  0  0  0  0  0  0  0  0  0
    6.5893   -2.4096   23.9854 C   0  0  0  0  0  0  0  0  0  0  0  0
    6.0447   -1.4859   24.1771 H   0  0  0  0  0  0  0  0  0  0  0  0
    7.0276   -3.1802   25.0580 C   0  0  0  0  0  0  0  0  0  0  0  0
    6.8153   -2.8784   26.0794 H   0  0  0  0  0  0  0  0  0  0  0  0
    7.7583   -4.3609   24.8076 C   0  0  0  0  0  0  0  0  0  0  0  0
    8.3731   -5.3690   25.6355 C   0  0  0  0  0  0  0  0  0  0  0  0
    8.3550   -5.4267   26.7155 H   0  0  0  0  0  0  0  0  0  0  0  0
    8.9782   -6.2582   24.7993 C   0  0  0  0  0  0  0  0  0  0  0  0
    9.6104   -7.1007   25.0370 H   0  0  0  0  0  0  0  0  0  0  0  0
    8.7486   -5.8921   23.4865 N   0  0  0  0  0  0  0  0  0  0  0  0
    9.0762   -6.3643   22.6626 H   0  0  0  0  0  0  0  0  0  0  0  0
    8.0189   -4.7311   23.4630 C   0  0  0  0  0  0  0  0  0  0  0  0
    7.5741   -3.9496   22.3794 C   0  0  0  0  0  0  0  0  0  0  0  0
    7.8026   -4.1967   21.3465 H   0  0  0  0  0  0  0  0  0  0  0  0
    7.6989    0.2806   22.2089 C   0  0  0  0  0  0  0  0  0  0  0  0
    6.9021    1.0128   22.3801 H   0  0  0  0  0  0  0  0  0  0  0  0
    7.8816   -0.2386   23.1587 H   0  0  0  0  0  0  0  0  0  0  0  0
    8.9477    0.9459   21.8087 N   0  0  0  0  0  0  0  0  0  0  0  0
    8.7123    1.7784   21.2795 H   0  0  0  0  0  0  0  0  0  0  0  0
    9.6533    0.0299   20.8951 C   0  0  0  0  0  0  0  0  0  0  0  0
   10.6674   -0.1970   21.2526 H   0  0  0  0  0  0  0  0  0  0  0  0
    9.7238    0.4898   19.9049 H   0  0  0  0  0  0  0  0  0  0  0  0
    8.7876   -1.2287   20.7809 C   0  0  0  0  0  0  0  0  0  0  0  0
    9.0845   -1.9523   21.5515 H   0  0  0  0  0  0  0  0  0  0  0  0
    8.8877   -1.7139   19.8101 H   0  0  0  0  0  0  0  0  0  0  0  0
    5.4378    0.6481   20.1305 C   0  0  0  0  0  0  0  0  0  0  0  0
    4.9946    0.6537   21.1292 H   0  0  0  0  0  0  0  0  0  0  0  0
    4.8038    1.3123   19.0833 C   0  0  0  0  0  0  0  0  0  0  0  0
    3.8749    1.8446   19.2361 H   0  0  0  0  0  0  0  0  0  0  0  0
  1  2  1  0
  2  3  2  0
  3  4  1  0
  4  5  1  0
  4  6  2  0
  6  7  1  0
  7  8  1  1
  8  9  1  0
  8 10  1  0
  8 11  1  0
 11 12  2  0
 12 13  1  0
 12 14  1  0
 14 15  1  0
 14 16  2  0
 16 17  1  0
 17 18  1  0
 17 19  2  0
 19 20  1  0
 19 21  1  0
 21 22  1  0
 21 23  1  0
 23 24  2  0
 24 25  1  0
  7 26  1  0
 26 27  1  0
 26 28  1  0
 26 29  1  0
 29 30  1  0
 29 31  1  0
 31 32  1  0
 31 33  1  0
 31 34  1  0
 34 35  1  0
 34 36  1  0
  6 37  1  0
 37 38  1  0
 37 39  2  0
 39 40  1  0
 39  2  1  0
 34  7  1  0
 24 11  1  0
 23 16  1  0
M  END
>  <plip>  (1) 
-0.10714285714285714

>  <filename>  (1) 
[H][c]1[n][c]([H])[c]([C@]2([C]([H])([H])[c]3[c]([H])[c]([H])[c]4[c]([H])[c]([H])[n]([H])[c]4[c]3[H])[C]([H])([H])[N]([H])[C]([H])([H])[C]2([H])[H])[c]([H])[c]1[H]

$$$$
