
     RDKit          3D

 35 37  0  0  0  0  0  0  0  0999 V2000
   10.0800    0.7682   27.4113 H   0  0  0  0  0  0  0  0  0  0  0  0
    9.7151    0.8012   26.5137 O   0  0  0  0  0  0  0  0  0  0  0  0
    9.7100   -0.4860   25.9282 C   0  0  2  0  0  0  0  0  0  0  0  0
   10.6891   -0.7103   25.4627 H   0  0  0  0  0  0  0  0  0  0  0  0
    8.6723   -0.4098   24.8194 C   0  0  0  0  0  0  0  0  0  0  0  0
    8.9887    0.3535   24.1052 H   0  0  0  0  0  0  0  0  0  0  0  0
    7.7039   -0.0821   25.2384 H   0  0  0  0  0  0  0  0  0  0  0  0
    8.5776   -1.7089   24.1403 N   0  0  0  0  0  0  0  0  0  0  0  0
    7.8664   -1.6456   22.9332 N   0  0  0  0  0  0  0  0  0  0  0  0
    7.0660   -0.5865   22.3793 C   0  0  0  0  0  0  0  0  0  0  0  0
    6.4050    0.2052   23.0296 O   0  0  0  0  0  0  0  0  0  0  0  0
    7.3406   -0.6671   20.9189 C   0  0  0  0  0  0  0  0  0  0  0  0
    6.6714    0.0910   19.8324 C   0  0  0  0  0  0  0  0  0  0  0  0
    7.1588    0.1181   18.4975 C   0  0  0  0  0  0  0  0  0  0  0  0
    8.0967   -0.3690   18.2376 H   0  0  0  0  0  0  0  0  0  0  0  0
    6.5422    0.7140   17.4713 N   0  0  0  0  0  0  0  0  0  0  0  0
    5.3830    1.3417   17.7340 C   0  0  0  0  0  0  0  0  0  0  0  0
    4.8889    1.8100   16.8846 H   0  0  0  0  0  0  0  0  0  0  0  0
    4.8157    1.3993   19.0111 C   0  0  0  0  0  0  0  0  0  0  0  0
    3.8762    1.9238   19.1496 H   0  0  0  0  0  0  0  0  0  0  0  0
    5.4756    0.7874   20.0807 C   0  0  0  0  0  0  0  0  0  0  0  0
    5.0966    0.8281   21.1032 H   0  0  0  0  0  0  0  0  0  0  0  0
    8.3655   -1.5438   20.7743 C   0  0  0  0  0  0  0  0  0  0  0  0
    8.9345   -1.7673   19.8789 H   0  0  0  0  0  0  0  0  0  0  0  0
    8.6535   -2.2227   21.9357 N   0  0  0  0  0  0  0  0  0  0  0  0
    9.6089   -2.2230   22.2856 H   0  0  0  0  0  0  0  0  0  0  0  0
    8.1070   -2.7853   25.0400 C   0  0  0  0  0  0  0  0  0  0  0  0
    7.1082   -2.5300   25.4393 H   0  0  0  0  0  0  0  0  0  0  0  0
    8.0155   -3.7079   24.4527 H   0  0  0  0  0  0  0  0  0  0  0  0
    9.1248   -2.9362   26.1868 C   0  0  0  0  0  0  0  0  0  0  0  0
   10.0720   -3.2909   25.7568 H   0  0  0  0  0  0  0  0  0  0  0  0
    8.7992   -3.7175   26.8821 H   0  0  0  0  0  0  0  0  0  0  0  0
    9.3337   -1.5919   26.9245 C   0  0  0  0  0  0  0  0  0  0  0  0
    8.4100   -1.2932   27.4473 H   0  0  0  0  0  0  0  0  0  0  0  0
   10.1075   -1.6514   27.7015 H   0  0  0  0  0  0  0  0  0  0  0  0
  1  2  1  0
  2  3  1  0
  3  4  1  6
  3  5  1  0
  5  6  1  0
  5  7  1  0
  5  8  1  0
  8  9  1  0
  9 10  1  0
 10 11  2  0
 10 12  1  0
 12 13  1  0
 13 14  2  0
 14 15  1  0
 14 16  1  0
 16 17  2  0
 17 18  1  0
 17 19  1  0
 19 20  1  0
 19 21  2  0
 21 22  1  0
 12 23  2  0
 23 24  1  0
 23 25  1  0
 25 26  1  0
  8 27  1  0
 27 28  1  0
 27 29  1  0
 27 30  1  0
 30 31  1  0
 30 32  1  0
 30 33  1  0
 33 34  1  0
 33 35  1  0
 33  3  1  0
 25  9  1  0
 21 13  1  0
M  END
>  <plip>  (1) 
-0.1

>  <filename>  (1) 
[H][O][C@]1([H])[C]([H])([H])[N]([n]2[c](=[O])[c](-[c]3[c]([H])[n][c]([H])[c]([H])[c]3[H])[c]([H])[n]2[H])[C]([H])([H])[C]([H])([H])[C]1([H])[H]

$$$$
