
     RDKit          3D

 29 30  0  0  0  0  0  0  0  0999 V2000
    4.9986    1.8585   16.9492 H   0  0  0  0  0  0  0  0  0  0  0  0
    5.4255    1.3052   17.7847 C   0  0  0  0  0  0  0  0  0  0  0  0
    6.5667    0.6406   17.5496 N   0  0  0  0  0  0  0  0  0  0  0  0
    7.1230   -0.0065   18.5817 C   0  0  0  0  0  0  0  0  0  0  0  0
    8.0498   -0.5398   18.3609 H   0  0  0  0  0  0  0  0  0  0  0  0
    6.5987   -0.0241   19.8831 C   0  0  0  0  0  0  0  0  0  0  0  0
    7.3348   -0.6855   21.0283 C   0  0  2  0  0  0  0  0  0  0  0  0
    8.1515   -1.3125   20.6375 H   0  0  0  0  0  0  0  0  0  0  0  0
    6.4658   -1.5719   21.6657 F   0  0  0  0  0  0  0  0  0  0  0  0
    7.8571    0.3008   22.0949 C   0  0  0  0  0  0  0  0  0  0  0  0
    8.2226   -0.2963   22.9394 H   0  0  0  0  0  0  0  0  0  0  0  0
    7.0016    0.8800   22.4697 H   0  0  0  0  0  0  0  0  0  0  0  0
    8.9845    1.2149   21.5897 C   0  0  1  0  0  0  0  0  0  0  0  0
    8.6226    1.7697   20.7100 H   0  0  0  0  0  0  0  0  0  0  0  0
    9.5843    2.2606   22.5515 C   0  0  0  0  0  0  0  0  0  0  0  0
    8.9890    3.1676   22.6955 H   0  0  0  0  0  0  0  0  0  0  0  0
    9.7649    1.8188   23.5440 H   0  0  0  0  0  0  0  0  0  0  0  0
   10.8748    2.6328   21.9641 N   0  0  0  0  0  0  0  0  0  0  0  0
   10.7143    3.3740   21.2868 H   0  0  0  0  0  0  0  0  0  0  0  0
   11.3938    1.4612   21.2462 C   0  0  0  0  0  0  0  0  0  0  0  0
   12.2864    1.0525   21.7356 H   0  0  0  0  0  0  0  0  0  0  0  0
   11.6992    1.7528   20.2391 H   0  0  0  0  0  0  0  0  0  0  0  0
   10.2572    0.4266   21.2517 C   0  0  0  0  0  0  0  0  0  0  0  0
   10.4396   -0.2767   22.0749 H   0  0  0  0  0  0  0  0  0  0  0  0
   10.1415   -0.1575   20.3360 H   0  0  0  0  0  0  0  0  0  0  0  0
    5.3773    0.6447   20.0946 C   0  0  0  0  0  0  0  0  0  0  0  0
    4.9110    0.6550   21.0793 H   0  0  0  0  0  0  0  0  0  0  0  0
    4.7871    1.3168   19.0263 C   0  0  0  0  0  0  0  0  0  0  0  0
    3.8624    1.8740   19.1539 H   0  0  0  0  0  0  0  0  0  0  0  0
  1  2  1  0
  2  3  2  0
  3  4  1  0
  4  5  1  0
  4  6  2  0
  6  7  1  0
  7  8  1  6
  7  9  1  0
  7 10  1  0
 10 11  1  0
 10 12  1  0
 10 13  1  0
 13 14  1  6
 13 15  1  0
 15 16  1  0
 15 17  1  0
 15 18  1  0
 18 19  1  0
 18 20  1  0
 20 21  1  0
 20 22  1  0
 20 23  1  0
 23 24  1  0
 23 25  1  0
  6 26  1  0
 26 27  1  0
 26 28  2  0
 28 29  1  0
 28  2  1  0
 23 13  1  0
M  END
>  <plip>  (1) 
-0.10714285714285714

>  <filename>  (1) 
[H][c]1[n][c]([H])[c]([C@]([H])([F])[C]([H])([H])[C@@]2([H])[C]([H])([H])[N]([H])[C]([H])([H])[C]2([H])[H])[c]([H])[c]1[H]

$$$$
