
     RDKit          3D

 34 37  0  0  0  0  0  0  0  0999 V2000
    5.0087    1.7139   16.8952 H   0  0  0  0  0  0  0  0  0  0  0  0
    5.4689    1.2418   17.7594 C   0  0  0  0  0  0  0  0  0  0  0  0
    6.6046    0.5663   17.5255 N   0  0  0  0  0  0  0  0  0  0  0  0
    7.1960   -0.0253   18.5656 C   0  0  0  0  0  0  0  0  0  0  0  0
    8.1210   -0.5636   18.3562 H   0  0  0  0  0  0  0  0  0  0  0  0
    6.6872    0.0298   19.8752 C   0  0  0  0  0  0  0  0  0  0  0  0
    7.4167   -0.6624   20.9391 C   0  0  0  0  0  0  0  0  0  0  0  0
    8.3149   -1.6037   20.7679 N   0  0  0  0  0  0  0  0  0  0  0  0
    8.7781   -2.0164   21.9972 N   0  0  0  0  0  0  0  0  0  0  0  0
    8.1440   -1.2906   22.8780 C   0  0  0  0  0  0  0  0  0  0  0  0
    8.1625   -1.0092   24.5957 S   0  0  0  0  0  0  0  0  0  0  0  0
    6.9790    0.2832   24.3176 C   0  0  0  0  0  0  0  0  0  0  0  0
    6.4846    1.1006   25.3231 N   0  0  0  0  0  0  0  0  0  0  0  0
    6.8252    0.9412   26.6821 C   0  0  0  0  0  0  0  0  0  0  0  0
    6.4495   -0.2443   28.0281 C   0  0  0  0  0  0  0  0  0  0  0  0
    7.2557   -1.4074   27.5371 H   0  0  0  0  0  0  0  0  0  0  0  0
    6.5537   -0.5651   27.9464 C   0  0  0  0  0  0  0  0  0  0  0  0
    5.3681   -0.9036   28.0181 H   0  0  0  0  0  0  0  0  0  0  0  0
    7.2285    0.4778   29.2124 C   0  0  0  0  0  0  0  0  0  0  0  0
    6.8297    0.3291   30.2253 H   0  0  0  0  0  0  0  0  0  0  0  0
    7.7322    1.7204   28.7933 C   0  0  0  0  0  0  0  0  0  0  0  0
    8.2459    2.4285   29.4277 H   0  0  0  0  0  0  0  0  0  0  0  0
    7.4569    1.9426   27.3740 C   0  0  0  0  0  0  0  0  0  0  0  0
    7.7468    2.8737   26.8668 H   0  0  0  0  0  0  0  0  0  0  0  0
    5.8329    2.3633   24.8838 C   0  0  0  0  0  0  0  0  0  0  0  0
    5.4416    2.8947   25.7579 H   0  0  0  0  0  0  0  0  0  0  0  0
    4.9978    2.1685   24.1952 H   0  0  0  0  0  0  0  0  0  0  0  0
    6.5319    3.0275   24.3499 H   0  0  0  0  0  0  0  0  0  0  0  0
    6.6131    0.4722   23.0799 N   0  0  0  0  0  0  0  0  0  0  0  0
    7.2657   -0.4342   22.2913 N   0  0  0  0  0  0  0  0  0  0  0  0
    5.5018    0.7410   20.1105 C   0  0  0  0  0  0  0  0  0  0  0  0
    5.1005    0.8142   21.1220 H   0  0  0  0  0  0  0  0  0  0  0  0
    4.8828    1.3518   19.0244 C   0  0  0  0  0  0  0  0  0  0  0  0
    3.9712    1.9235   19.1473 H   0  0  0  0  0  0  0  0  0  0  0  0
  1  2  1  0
  2  3  2  0
  3  4  1  0
  4  5  1  0
  4  6  2  0
  6  7  1  0
  7  8  2  0
  8  9  1  0
  9 10  2  0
 10 11  1  0
 11 12  1  0
 12 13  1  0
 13 14  1  0
 14 15  2  0
 15 16  1  0
 15 17  1  0
 17 18  1  0
 17 19  2  0
 19 20  1  0
 19 21  1  0
 21 22  1  0
 21 23  2  0
 23 24  1  0
 13 25  1  0
 25 26  1  0
 25 27  1  0
 25 28  1  0
 12 29  2  0
 29 30  1  0
  6 31  1  0
 31 32  1  0
 31 33  2  0
 33 34  1  0
 33  2  1  0
 30  7  1  0
 30 10  1  0
 23 14  1  0
M  END
>  <plip>  (1) 
-0.06896551724137931

>  <filename>  (1) 
[H][c]1[n][c]([H])[c](-[c]2[n][n][c]3[s][c]([N]([c]4[c]([H])[c]([H])[c]([H])[c]([H])[c]4[H])[C]([H])([H])[H])[n][n]23)[c]([H])[c]1[H]

$$$$
