
     RDKit          3D

 33 35  0  0  0  0  0  0  0  0999 V2000
    4.9394    1.7881   16.9957 H   0  0  0  0  0  0  0  0  0  0  0  0
    5.3991    1.2885   17.8471 C   0  0  0  0  0  0  0  0  0  0  0  0
    6.5582    0.6697   17.5935 N   0  0  0  0  0  0  0  0  0  0  0  0
    7.1659    0.0542   18.6089 C   0  0  0  0  0  0  0  0  0  0  0  0
    8.1114   -0.4198   18.3575 H   0  0  0  0  0  0  0  0  0  0  0  0
    6.6603    0.0032   19.9154 C   0  0  0  0  0  0  0  0  0  0  0  0
    7.3975   -0.7072   20.9592 C   0  0  0  0  0  0  0  0  0  0  0  0
    6.8445   -0.7863   22.2287 N   0  0  0  0  0  0  0  0  0  0  0  0
    7.7030   -1.4576   22.9156 C   0  0  0  0  0  0  0  0  0  0  0  0
    7.6767   -1.8205   24.2169 N   0  0  0  0  0  0  0  0  0  0  0  0
    8.3392   -2.5478   24.4035 H   0  0  0  0  0  0  0  0  0  0  0  0
    6.6960   -1.4342   25.1553 C   0  0  0  0  0  0  0  0  0  0  0  0
    6.2413   -2.3138   26.1403 C   0  0  0  0  0  0  0  0  0  0  0  0
    6.6532   -3.3178   26.1767 H   0  0  0  0  0  0  0  0  0  0  0  0
    5.2555   -1.9125   27.0581 C   0  0  0  0  0  0  0  0  0  0  0  0
    4.8957   -2.5998   27.8170 H   0  0  0  0  0  0  0  0  0  0  0  0
    4.7380   -0.6124   26.9971 C   0  0  0  0  0  0  0  0  0  0  0  0
    3.7778   -0.1023   27.8138 O   0  0  0  0  0  0  0  0  0  0  0  0
    3.2178   -0.8888   28.8462 C   0  0  0  0  0  0  0  0  0  0  0  0
    3.9753   -1.2102   29.5753 H   0  0  0  0  0  0  0  0  0  0  0  0
    2.7028   -1.7763   28.4516 H   0  0  0  0  0  0  0  0  0  0  0  0
    2.4935   -0.2331   29.3359 H   0  0  0  0  0  0  0  0  0  0  0  0
    5.2185    0.2818   26.0245 C   0  0  0  0  0  0  0  0  0  0  0  0
    4.7923    1.2804   26.0023 H   0  0  0  0  0  0  0  0  0  0  0  0
    6.1851   -0.1269   25.1114 C   0  0  0  0  0  0  0  0  0  0  0  0
    6.5584    0.5328   24.3329 H   0  0  0  0  0  0  0  0  0  0  0  0
    8.7882   -1.8667   22.2316 O   0  0  0  0  0  0  0  0  0  0  0  0
    8.5844   -1.3536   20.9605 C   0  0  0  0  0  0  0  0  0  0  0  0
    9.3514   -1.5102   20.2202 H   0  0  0  0  0  0  0  0  0  0  0  0
    5.4356    0.6503   20.1700 C   0  0  0  0  0  0  0  0  0  0  0  0
    5.0038    0.6375   21.1731 H   0  0  0  0  0  0  0  0  0  0  0  0
    4.8047    1.3055   19.1136 C   0  0  0  0  0  0  0  0  0  0  0  0
    3.8742    1.8399   19.2466 H   0  0  0  0  0  0  0  0  0  0  0  0
  1  2  1  0
  2  3  2  0
  3  4  1  0
  4  5  1  0
  4  6  2  0
  6  7  1  0
  7  8  1  0
  8  9  2  0
  9 10  1  0
 10 11  1  0
 10 12  1  0
 12 13  2  0
 13 14  1  0
 13 15  1  0
 15 16  1  0
 15 17  2  0
 17 18  1  0
 18 19  1  0
 19 20  1  0
 19 21  1  0
 19 22  1  0
 17 23  1  0
 23 24  1  0
 23 25  2  0
 25 26  1  0
  9 27  1  0
 27 28  1  0
 28 29  1  0
  6 30  1  0
 30 31  1  0
 30 32  2  0
 32 33  1  0
 32  2  1  0
 28  7  2  0
 25 12  1  0
M  END
>  <plip>  (1) 
-0.0

>  <filename>  (1) 
[H][c]1[n][c]([H])[c](-[c]2[n][c]([N]([H])[c]3[c]([H])[c]([H])[c]([O][C]([H])([H])[H])[c]([H])[c]3[H])[o][c]2[H])[c]([H])[c]1[H]

$$$$
