
     RDKit          3D

 47 50  0  0  0  0  0  0  0  0999 V2000
    8.8294   -0.7031   23.5571 O   0  0  0  0  0  0  0  0  0  0  0  0
    9.3122   -0.1130   22.6074 C   0  0  0  0  0  0  0  0  0  0  0  0
   10.7195    0.4312   22.6461 C   0  0  0  0  0  0  0  0  0  0  0  0
   10.6238    1.8845   22.9404 C   0  0  0  0  0  0  0  0  0  0  0  0
   11.0596    2.7155   22.0443 N   0  0  0  0  0  0  0  0  0  0  0  0
   10.7715    4.0010   22.4855 O   0  0  0  0  0  0  0  0  0  0  0  0
   10.1287    3.9128   23.6615 C   0  0  0  0  0  0  0  0  0  0  0  0
    9.6066    4.9750   24.4132 C   0  0  0  0  0  0  0  0  0  0  0  0
    8.9578    4.6508   25.5971 C   0  0  0  0  0  0  0  0  0  0  0  0
    8.8577    3.3069   26.0151 C   0  0  0  0  0  0  0  0  0  0  0  0
    8.2200    3.0534   27.1724 F   0  0  0  0  0  0  0  0  0  0  0  0
    9.3770    2.2577   25.2763 C   0  0  0  0  0  0  0  0  0  0  0  0
   10.0133    2.5805   24.0530 C   0  0  0  0  0  0  0  0  0  0  0  0
    9.2585    1.2429   25.6350 H   0  0  0  0  0  0  0  0  0  0  0  0
    8.5060    5.4165   26.2185 H   0  0  0  0  0  0  0  0  0  0  0  0
    9.7139    5.9960   24.0608 H   0  0  0  0  0  0  0  0  0  0  0  0
   11.2570   -0.1102   23.4269 H   0  0  0  0  0  0  0  0  0  0  0  0
   11.2339    0.2816   21.6934 H   0  0  0  0  0  0  0  0  0  0  0  0
    8.6072    0.1299   21.4706 N   0  0  0  0  0  0  0  0  0  0  0  0
    7.3342   -0.5486   21.2005 C   0  0  0  0  0  0  0  0  0  0  0  0
    7.6312   -2.0484   21.0027 C   0  0  0  0  0  0  0  0  0  0  0  0
    6.4572   -2.9685   20.6806 C   0  0  0  0  0  0  0  0  0  0  0  0
    6.8310   -4.4533   20.8504 C   0  0  0  0  0  0  0  0  0  0  0  0
    5.7397   -5.1427   20.0489 C   0  0  0  0  0  0  0  0  0  0  0  0
    5.4468   -4.2714   18.9669 O   0  0  0  0  0  0  0  0  0  0  0  0
    5.8332   -2.9371   19.2635 C   0  0  0  0  0  0  0  0  0  0  0  0
    4.9628   -2.2735   19.2142 H   0  0  0  0  0  0  0  0  0  0  0  0
    6.5004   -2.5753   18.4667 H   0  0  0  0  0  0  0  0  0  0  0  0
    6.0211   -6.1164   19.6365 H   0  0  0  0  0  0  0  0  0  0  0  0
    4.8510   -5.3039   20.6789 H   0  0  0  0  0  0  0  0  0  0  0  0
    7.8276   -4.6753   20.4453 H   0  0  0  0  0  0  0  0  0  0  0  0
    6.8362   -4.7772   21.8975 H   0  0  0  0  0  0  0  0  0  0  0  0
    5.6445   -2.7525   21.3928 H   0  0  0  0  0  0  0  0  0  0  0  0
    8.4351   -2.1352   20.2676 H   0  0  0  0  0  0  0  0  0  0  0  0
    8.0842   -2.3759   21.9454 H   0  0  0  0  0  0  0  0  0  0  0  0
    6.6280    0.1237   20.0461 C   0  0  0  0  0  0  0  0  0  0  0  0
    5.3792    0.7526   20.1872 C   0  0  0  0  0  0  0  0  0  0  0  0
    4.7864    1.3458   19.0688 C   0  0  0  0  0  0  0  0  0  0  0  0
    5.4618    1.2903   17.8456 C   0  0  0  0  0  0  0  0  0  0  0  0
    6.6508    0.6910   17.6834 N   0  0  0  0  0  0  0  0  0  0  0  0
    7.2077    0.1303   18.7673 C   0  0  0  0  0  0  0  0  0  0  0  0
    8.1649   -0.3678   18.5926 H   0  0  0  0  0  0  0  0  0  0  0  0
    5.0321    1.7495   16.9594 H   0  0  0  0  0  0  0  0  0  0  0  0
    3.8288    1.8538   19.1339 H   0  0  0  0  0  0  0  0  0  0  0  0
    4.8864    0.7874   21.1623 H   0  0  0  0  0  0  0  0  0  0  0  0
    6.7056   -0.4516   22.0968 H   0  0  0  0  0  0  0  0  0  0  0  0
    9.0624    0.6220   20.7257 H   0  0  0  0  0  0  0  0  0  0  0  0
  1  2  2  0
  2  3  1  0
  3  4  1  0
  4  5  2  0
  5  6  1  0
  6  7  1  0
  7  8  2  0
  8  9  1  0
  9 10  2  0
 10 11  1  0
 10 12  1  0
 12 13  2  0
 12 14  1  0
  9 15  1  0
  8 16  1  0
  3 17  1  0
  3 18  1  0
  2 19  1  0
 19 20  1  0
 20 21  1  0
 21 22  1  0
 22 23  1  0
 23 24  1  0
 24 25  1  0
 25 26  1  0
 26 27  1  0
 26 28  1  0
 24 29  1  0
 24 30  1  0
 23 31  1  0
 23 32  1  0
 22 33  1  0
 21 34  1  0
 21 35  1  0
 20 36  1  0
 36 37  2  0
 37 38  1  0
 38 39  2  0
 39 40  1  0
 40 41  2  0
 41 42  1  0
 39 43  1  0
 38 44  1  0
 37 45  1  0
 20 46  1  0
 19 47  1  0
 13  4  1  0
 26 22  1  0
 41 36  1  0
 13  7  1  0
M  END
>  <plip>  (1) 
-0.1724137931034483

>  <filename>  (1) 
[H][c]1[n][c]([H])[c]([C]([H])([N]([H])[C](=[O])[C]([H])([H])[c]2[n][o][c]3[c]([H])[c]([H])[c]([F])[c]([H])[c]23)[C]([H])([H])[C]2([H])[C]([H])([H])[O][C]([H])([H])[C]2([H])[H])[c]([H])[c]1[H]

$$$$
