
     RDKit          3D

 22 23  0  0  0  0  0  0  0  0999 V2000
    4.9146    1.7745   17.0020 H   0  0  0  0  0  0  0  0  0  0  0  0
    5.4059    1.2917   17.8425 C   0  0  0  0  0  0  0  0  0  0  0  0
    6.5714    0.6809   17.5824 N   0  0  0  0  0  0  0  0  0  0  0  0
    7.1722    0.0558   18.5981 C   0  0  0  0  0  0  0  0  0  0  0  0
    8.1218   -0.4323   18.3844 H   0  0  0  0  0  0  0  0  0  0  0  0
    6.6267   -0.0090   19.8826 C   0  0  0  0  0  0  0  0  0  0  0  0
    7.4241   -0.6396   20.9947 C   0  0  0  0  0  0  0  0  0  0  0  0
    8.1380   -1.7071   20.5287 F   0  0  0  0  0  0  0  0  0  0  0  0
    6.5790   -1.1719   21.9288 F   0  0  0  0  0  0  0  0  0  0  0  0
    8.3294    0.3055   21.6385 N   0  0  0  0  0  0  0  0  0  0  0  0
    9.6176    0.6103   21.2163 C   0  0  0  0  0  0  0  0  0  0  0  0
   10.0963    0.0663   20.4081 H   0  0  0  0  0  0  0  0  0  0  0  0
   10.0896    1.6292   21.9871 C   0  0  0  0  0  0  0  0  0  0  0  0
   11.0688    2.0806   21.9097 H   0  0  0  0  0  0  0  0  0  0  0  0
    9.0612    1.9917   22.8998 C   0  0  0  0  0  0  0  0  0  0  0  0
    9.1098    2.7718   23.6464 H   0  0  0  0  0  0  0  0  0  0  0  0
    7.9896    1.1852   22.6601 C   0  0  0  0  0  0  0  0  0  0  0  0
    7.0132    1.1680   23.1392 H   0  0  0  0  0  0  0  0  0  0  0  0
    5.4296    0.6527   20.1550 C   0  0  0  0  0  0  0  0  0  0  0  0
    5.0046    0.6315   21.1624 H   0  0  0  0  0  0  0  0  0  0  0  0
    4.8024    1.3158   19.1069 C   0  0  0  0  0  0  0  0  0  0  0  0
    3.8711    1.8470   19.2628 H   0  0  0  0  0  0  0  0  0  0  0  0
  1  2  1  0
  2  3  2  0
  3  4  1  0
  4  5  1  0
  4  6  2  0
  6  7  1  0
  7  8  1  0
  7  9  1  0
  7 10  1  0
 10 11  1  0
 11 12  1  0
 11 13  2  0
 13 14  1  0
 13 15  1  0
 15 16  1  0
 15 17  2  0
 17 18  1  0
  6 19  1  0
 19 20  1  0
 19 21  2  0
 21 22  1  0
 21  2  1  0
 17 10  1  0
M  END
>  <plip>  (1) 
-0.034482758620689655

>  <filename>  (1) 
[H][c]1[n][c]([H])[c]([C]([F])([F])[n]2[c]([H])[c]([H])[c]([H])[c]2[H])[c]([H])[c]1[H]

$$$$
