
     RDKit          3D

 44 46  0  0  0  0  0  0  0  0999 V2000
    6.6621   -3.6432   23.0293 C   0  0  0  0  0  0  0  0  0  0  0  0
    7.3887   -2.7531   22.2177 O   0  0  0  0  0  0  0  0  0  0  0  0
    6.6030   -1.9943   21.3304 C   0  0  0  0  0  0  0  0  0  0  0  0
    7.4068   -0.7671   20.8635 C   0  0  2  0  0  0  0  0  0  0  0  0
    7.6737    0.1121   21.9824 N   0  0  0  0  0  0  0  0  0  0  0  0
    8.9042    0.4676   22.4181 C   0  0  0  0  0  0  0  0  0  0  0  0
    9.9240    0.2753   21.7851 O   0  0  0  0  0  0  0  0  0  0  0  0
    8.8562    1.1888   23.7664 C   0  0  0  0  0  0  0  0  0  0  0  0
    8.1960    0.4661   24.9643 C   0  0  0  0  0  0  0  0  0  0  0  0
    6.7913    0.2506   24.6719 O   0  0  0  0  0  0  0  0  0  0  0  0
    6.1231   -0.7785   25.3154 C   0  0  0  0  0  0  0  0  0  0  0  0
    4.7260   -0.7479   25.3588 C   0  0  0  0  0  0  0  0  0  0  0  0
    4.0176   -1.8543   25.8502 C   0  0  0  0  0  0  0  0  0  0  0  0
    4.7087   -2.9849   26.3030 C   0  0  0  0  0  0  0  0  0  0  0  0
    6.1075   -2.9978   26.3044 C   0  0  0  0  0  0  0  0  0  0  0  0
    6.8250   -1.8901   25.8356 C   0  0  0  0  0  0  0  0  0  0  0  0
    8.2251   -1.8619   25.8200 N   0  0  0  0  0  0  0  0  0  0  0  0
    8.9741   -0.7921   25.4445 C   0  0  0  0  0  0  0  0  0  0  0  0
   10.1857   -0.7947   25.5415 O   0  0  0  0  0  0  0  0  0  0  0  0
    8.7898   -2.6086   26.1997 H   0  0  0  0  0  0  0  0  0  0  0  0
    6.6537   -3.8721   26.6467 H   0  0  0  0  0  0  0  0  0  0  0  0
    4.1602   -3.8667   26.6264 H   0  0  0  0  0  0  0  0  0  0  0  0
    2.9308   -1.8373   25.8685 H   0  0  0  0  0  0  0  0  0  0  0  0
    4.2167    0.1188   24.9472 H   0  0  0  0  0  0  0  0  0  0  0  0
    8.2450    1.1419   25.8280 H   0  0  0  0  0  0  0  0  0  0  0  0
    9.8830    1.4412   24.0358 H   0  0  0  0  0  0  0  0  0  0  0  0
    8.3070    2.1242   23.6010 H   0  0  0  0  0  0  0  0  0  0  0  0
    6.9408    0.2819   22.6463 H   0  0  0  0  0  0  0  0  0  0  0  0
    6.6889    0.0111   19.7806 C   0  0  0  0  0  0  0  0  0  0  0  0
    5.4657    0.6607   20.0075 C   0  0  0  0  0  0  0  0  0  0  0  0
    4.8575    1.3309   18.9451 C   0  0  0  0  0  0  0  0  0  0  0  0
    5.4916    1.3396   17.6978 C   0  0  0  0  0  0  0  0  0  0  0  0
    6.6689    0.7411   17.4651 N   0  0  0  0  0  0  0  0  0  0  0  0
    7.2447    0.1121   18.4978 C   0  0  0  0  0  0  0  0  0  0  0  0
    8.2142   -0.3462   18.2979 H   0  0  0  0  0  0  0  0  0  0  0  0
    5.0382    1.8525   16.8512 H   0  0  0  0  0  0  0  0  0  0  0  0
    3.9284    1.8730   19.0820 H   0  0  0  0  0  0  0  0  0  0  0  0
    5.0015    0.6659   20.9989 H   0  0  0  0  0  0  0  0  0  0  0  0
    8.3692   -1.1380   20.4840 H   0  0  0  0  0  0  0  0  0  0  0  0
    5.6841   -1.6388   21.8291 H   0  0  0  0  0  0  0  0  0  0  0  0
    6.2981   -2.5944   20.4609 H   0  0  0  0  0  0  0  0  0  0  0  0
    6.2811   -4.5057   22.4618 H   0  0  0  0  0  0  0  0  0  0  0  0
    5.8083   -3.1466   23.5081 H   0  0  0  0  0  0  0  0  0  0  0  0
    7.3378   -3.9977   23.8128 H   0  0  0  0  0  0  0  0  0  0  0  0
  1  2  1  0
  2  3  1  0
  3  4  1  0
  4  5  1  0
  5  6  1  0
  6  7  2  0
  6  8  1  0
  8  9  1  0
  9 10  1  0
 10 11  1  0
 11 12  2  0
 12 13  1  0
 13 14  2  0
 14 15  1  0
 15 16  2  0
 16 17  1  0
 17 18  1  0
 18 19  2  0
 17 20  1  0
 15 21  1  0
 14 22  1  0
 13 23  1  0
 12 24  1  0
  9 25  1  0
  8 26  1  0
  8 27  1  0
  5 28  1  0
  4 29  1  0
 29 30  2  0
 30 31  1  0
 31 32  2  0
 32 33  1  0
 33 34  2  0
 34 35  1  0
 32 36  1  0
 31 37  1  0
 30 38  1  0
  4 39  1  6
  3 40  1  0
  3 41  1  0
  1 42  1  0
  1 43  1  0
  1 44  1  0
 18  9  1  0
 34 29  1  0
 16 11  1  0
M  END
>  <plip>  (1) 
-0.10344827586206896

>  <filename>  (1) 
[H][c]1[n][c]([H])[c]([C@@]([H])([N]([H])[C](=[O])[C]([H])([H])[C]2([H])[O][c]3[c]([H])[c]([H])[c]([H])[c]([H])[c]3[N]([H])[C]2=[O])[C]([H])([H])[O][C]([H])([H])[H])[c]([H])[c]1[H]

$$$$
