
     RDKit          3D

 32 34  0  0  0  0  0  0  0  0999 V2000
    7.9671   -0.9145   26.6572 C   0  0  0  0  0  0  0  0  0  0  0  0
    8.1520   -0.5746   25.1671 C   0  0  0  0  0  0  0  0  0  0  0  0
    7.7984   -1.8072   24.2671 C   0  0  0  0  0  0  0  0  0  0  0  0
    7.8958   -1.5607   22.7966 C   0  0  0  0  0  0  0  0  0  0  0  0
    8.8365   -1.9164   21.9881 N   0  0  0  0  0  0  0  0  0  0  0  0
    8.5324   -1.3645   20.7507 N   0  0  0  0  0  0  0  0  0  0  0  0
    7.4227   -0.7205   20.9072 C   0  0  0  0  0  0  0  0  0  0  0  0
    6.6510    0.0170   19.9106 C   0  0  0  0  0  0  0  0  0  0  0  0
    5.4298    0.6631   20.1628 C   0  0  0  0  0  0  0  0  0  0  0  0
    4.7950    1.3127   19.1049 C   0  0  0  0  0  0  0  0  0  0  0  0
    5.3989    1.2910   17.8423 C   0  0  0  0  0  0  0  0  0  0  0  0
    6.5609    0.6681   17.5933 N   0  0  0  0  0  0  0  0  0  0  0  0
    7.1671    0.0563   18.6115 C   0  0  0  0  0  0  0  0  0  0  0  0
    8.1169   -0.4323   18.3907 H   0  0  0  0  0  0  0  0  0  0  0  0
    4.9416    1.7968   16.9931 H   0  0  0  0  0  0  0  0  0  0  0  0
    3.8604    1.8495   19.2312 H   0  0  0  0  0  0  0  0  0  0  0  0
    4.9775    0.6653   21.1531 H   0  0  0  0  0  0  0  0  0  0  0  0
    6.9552   -0.8033   22.1774 O   0  0  0  0  0  0  0  0  0  0  0  0
    6.7778   -2.1243   24.5010 H   0  0  0  0  0  0  0  0  0  0  0  0
    8.4686   -2.6466   24.4899 H   0  0  0  0  0  0  0  0  0  0  0  0
    9.5185   -0.0007   24.8605 C   0  0  0  0  0  0  0  0  0  0  0  0
    9.9124    1.1255   24.2060 C   0  0  0  0  0  0  0  0  0  0  0  0
   11.3512    1.1119   24.1796 C   0  0  0  0  0  0  0  0  0  0  0  0
   11.7090   -0.0189   24.8306 C   0  0  0  0  0  0  0  0  0  0  0  0
   10.6130   -0.7035   25.2430 O   0  0  0  0  0  0  0  0  0  0  0  0
   12.6504   -0.4600   25.1098 H   0  0  0  0  0  0  0  0  0  0  0  0
   12.0342    1.8234   23.7317 H   0  0  0  0  0  0  0  0  0  0  0  0
    9.2321    1.8596   23.7941 H   0  0  0  0  0  0  0  0  0  0  0  0
    7.4612    0.2450   24.9130 H   0  0  0  0  0  0  0  0  0  0  0  0
    8.6031   -1.7470   26.9803 H   0  0  0  0  0  0  0  0  0  0  0  0
    8.2031   -0.0524   27.2882 H   0  0  0  0  0  0  0  0  0  0  0  0
    6.9296   -1.1927   26.8612 H   0  0  0  0  0  0  0  0  0  0  0  0
  1  2  1  0
  2  3  1  0
  3  4  1  0
  4  5  2  0
  5  6  1  0
  6  7  2  0
  7  8  1  0
  8  9  2  0
  9 10  1  0
 10 11  2  0
 11 12  1  0
 12 13  2  0
 13 14  1  0
 11 15  1  0
 10 16  1  0
  9 17  1  0
  7 18  1  0
  3 19  1  0
  3 20  1  0
  2 21  1  0
 21 22  2  0
 22 23  1  0
 23 24  2  0
 24 25  1  0
 24 26  1  0
 23 27  1  0
 22 28  1  0
  2 29  1  0
  1 30  1  0
  1 31  1  0
  1 32  1  0
 18  4  1  0
 25 21  1  0
 13  8  1  0
M  END
>  <plip>  (1) 
-0.03571428571428571

>  <filename>  (1) 
[H][c]1[n][c]([H])[c](-[c]2[n][n][c]([C]([H])([H])[C]([H])([c]3[o][c]([H])[c]([H])[c]3[H])[C]([H])([H])[H])[o]2)[c]([H])[c]1[H]

$$$$
