
     RDKit          3D

 36 38  0  0  0  0  0  0  0  0999 V2000
    5.0678    1.8492   16.9489 H   0  0  0  0  0  0  0  0  0  0  0  0
    5.4853    1.3256   17.8084 C   0  0  0  0  0  0  0  0  0  0  0  0
    6.6269    0.6577   17.5895 N   0  0  0  0  0  0  0  0  0  0  0  0
    7.1706    0.0126   18.6238 C   0  0  0  0  0  0  0  0  0  0  0  0
    8.0979   -0.5196   18.4217 H   0  0  0  0  0  0  0  0  0  0  0  0
    6.6141   -0.0125   19.9082 C   0  0  0  0  0  0  0  0  0  0  0  0
    7.3426   -0.8479   20.8969 C   0  0  0  0  0  0  0  0  0  0  0  0
    8.2016   -1.6480   20.5604 O   0  0  0  0  0  0  0  0  0  0  0  0
    6.9938   -0.6752   22.1914 N   0  0  0  0  0  0  0  0  0  0  0  0
    6.4980    0.1681   22.4283 H   0  0  0  0  0  0  0  0  0  0  0  0
    7.5750   -1.4679   23.2730 C   0  0  1  0  0  0  0  0  0  0  0  0
    8.5378   -1.8582   22.9189 H   0  0  0  0  0  0  0  0  0  0  0  0
    7.8360   -0.5242   24.4285 C   0  0  0  0  0  0  0  0  0  0  0  0
    6.9731   -0.4131   25.4987 C   0  0  0  0  0  0  0  0  0  0  0  0
    6.0884   -1.0429   25.5529 H   0  0  0  0  0  0  0  0  0  0  0  0
    7.1993    0.5124   26.5535 C   0  0  0  0  0  0  0  0  0  0  0  0
    6.4749    0.5947   27.3620 H   0  0  0  0  0  0  0  0  0  0  0  0
    8.3237    1.3023   26.5546 C   0  0  0  0  0  0  0  0  0  0  0  0
    8.5449    1.9916   27.3623 H   0  0  0  0  0  0  0  0  0  0  0  0
    9.2631    1.2185   25.4821 C   0  0  0  0  0  0  0  0  0  0  0  0
   10.3978    1.9791   25.5658 N   0  0  0  0  0  0  0  0  0  0  0  0
   11.2108    1.9755   24.5377 C   0  0  0  0  0  0  0  0  0  0  0  0
   12.1108    2.5741   24.6350 H   0  0  0  0  0  0  0  0  0  0  0  0
   10.9895    1.2518   23.3369 C   0  0  0  0  0  0  0  0  0  0  0  0
   11.7055    1.3383   22.5256 H   0  0  0  0  0  0  0  0  0  0  0  0
    9.8817    0.4445   23.2562 C   0  0  0  0  0  0  0  0  0  0  0  0
    9.6833   -0.1368   22.3554 H   0  0  0  0  0  0  0  0  0  0  0  0
    8.9860    0.3571   24.3692 C   0  0  0  0  0  0  0  0  0  0  0  0
    6.6981   -2.6947   23.5492 C   0  0  0  0  0  0  0  0  0  0  0  0
    5.6750   -2.4023   23.8056 H   0  0  0  0  0  0  0  0  0  0  0  0
    6.6623   -3.2845   22.6283 H   0  0  0  0  0  0  0  0  0  0  0  0
    7.1048   -3.3235   24.3502 H   0  0  0  0  0  0  0  0  0  0  0  0
    5.4101    0.6806   20.1271 C   0  0  0  0  0  0  0  0  0  0  0  0
    4.8925    0.6847   21.0926 H   0  0  0  0  0  0  0  0  0  0  0  0
    4.8406    1.3599   19.0513 C   0  0  0  0  0  0  0  0  0  0  0  0
    3.9134    1.9151   19.1535 H   0  0  0  0  0  0  0  0  0  0  0  0
  1  2  1  0
  2  3  2  0
  3  4  1  0
  4  5  1  0
  4  6  2  0
  6  7  1  0
  7  8  2  0
  7  9  1  0
  9 10  1  0
  9 11  1  0
 11 12  1  6
 11 13  1  0
 13 14  2  0
 14 15  1  0
 14 16  1  0
 16 17  1  0
 16 18  2  0
 18 19  1  0
 18 20  1  0
 20 21  2  0
 21 22  1  0
 22 23  1  0
 22 24  2  0
 24 25  1  0
 24 26  1  0
 26 27  1  0
 26 28  2  0
 11 29  1  0
 29 30  1  0
 29 31  1  0
 29 32  1  0
  6 33  1  0
 33 34  1  0
 33 35  2  0
 35 36  1  0
 35  2  1  0
 28 13  1  0
 28 20  1  0
M  END
>  <plip>  (1) 
-0.034482758620689655

>  <filename>  (1) 
[H][c]1[n][c]([H])[c]([C](=[O])[N]([H])[C@@]([H])([c]2[c]([H])[c]([H])[c]([H])[c]3[n][c]([H])[c]([H])[c]([H])[c]23)[C]([H])([H])[H])[c]([H])[c]1[H]

$$$$
