
     RDKit          3D

 26 27  0  0  0  0  0  0  0  0999 V2000
    7.2661   -0.5872   20.9816 C   0  0  0  0  0  0  0  0  0  0  0  0
    8.5854   -0.8045   21.0813 C   0  0  0  0  0  0  0  0  0  0  0  0
    9.1918   -1.5563   22.2502 C   0  0  0  0  0  0  0  0  0  0  0  0
   10.7227   -1.6940   22.3241 C   0  0  0  0  0  0  0  0  0  0  0  0
   10.8841   -2.8682   23.2982 C   0  0  0  0  0  0  0  0  0  0  0  0
    9.7654   -3.7138   23.0718 O   0  0  0  0  0  0  0  0  0  0  0  0
    8.7835   -3.0418   22.3037 C   0  0  0  0  0  0  0  0  0  0  0  0
    7.8106   -3.1855   22.7838 H   0  0  0  0  0  0  0  0  0  0  0  0
    8.7482   -3.4595   21.2833 H   0  0  0  0  0  0  0  0  0  0  0  0
   11.8098   -3.4351   23.1479 H   0  0  0  0  0  0  0  0  0  0  0  0
   10.8595   -2.5415   24.3474 H   0  0  0  0  0  0  0  0  0  0  0  0
   11.1219   -1.9815   21.3430 H   0  0  0  0  0  0  0  0  0  0  0  0
   11.2298   -0.7873   22.6701 H   0  0  0  0  0  0  0  0  0  0  0  0
    8.8302   -1.0952   23.1859 H   0  0  0  0  0  0  0  0  0  0  0  0
    9.2616   -0.4422   20.3020 H   0  0  0  0  0  0  0  0  0  0  0  0
    6.5615    0.0521   19.8517 C   0  0  0  0  0  0  0  0  0  0  0  0
    5.3186    0.6856   20.0489 C   0  0  0  0  0  0  0  0  0  0  0  0
    4.7224    1.3515   18.9781 C   0  0  0  0  0  0  0  0  0  0  0  0
    5.3641    1.3560   17.7373 C   0  0  0  0  0  0  0  0  0  0  0  0
    6.5260    0.7193   17.5103 N   0  0  0  0  0  0  0  0  0  0  0  0
    7.0981    0.0991   18.5507 C   0  0  0  0  0  0  0  0  0  0  0  0
    8.0368   -0.4089   18.3341 H   0  0  0  0  0  0  0  0  0  0  0  0
    4.9344    1.8934   16.8917 H   0  0  0  0  0  0  0  0  0  0  0  0
    3.7847    1.8834   19.0928 H   0  0  0  0  0  0  0  0  0  0  0  0
    4.8480    0.6745   21.0297 H   0  0  0  0  0  0  0  0  0  0  0  0
    6.6149   -0.8599   21.8183 H   0  0  0  0  0  0  0  0  0  0  0  0
  1  2  2  3
  2  3  1  0
  3  4  1  0
  4  5  1  0
  5  6  1  0
  6  7  1  0
  7  8  1  0
  7  9  1  0
  5 10  1  0
  5 11  1  0
  4 12  1  0
  4 13  1  0
  3 14  1  0
  2 15  1  0
  1 16  1  0
 16 17  2  0
 17 18  1  0
 18 19  2  0
 19 20  1  0
 20 21  2  0
 21 22  1  0
 19 23  1  0
 18 24  1  0
 17 25  1  0
  1 26  1  0
  7  3  1  0
 21 16  1  0
M  END
>  <plip>  (1) 
-0.0

>  <filename>  (1) 
[H][C](=[C]([H])[C]1([H])[C]([H])([H])[O][C]([H])([H])[C]1([H])[H])[c]1[c]([H])[n][c]([H])[c]([H])[c]1[H]

$$$$
