
     RDKit          3D

 35 36  0  0  0  0  0  0  0  0999 V2000
    7.0576    0.9182   22.6368 O   0  0  0  0  0  0  0  0  0  0  0  0
    7.3762   -0.1993   22.2859 C   0  0  0  0  0  0  0  0  0  0  0  0
    7.8507   -1.2724   23.2930 C   0  0  0  0  0  0  0  0  0  0  0  0
    6.8003   -1.8625   24.0943 O   0  0  0  0  0  0  0  0  0  0  0  0
    5.9219   -2.7105   23.5057 C   0  0  0  0  0  0  0  0  0  0  0  0
    6.0308   -3.1108   22.3691 O   0  0  0  0  0  0  0  0  0  0  0  0
    4.7994   -3.0350   24.4731 C   0  0  0  0  0  0  0  0  0  0  0  0
    5.1785   -4.1820   25.3757 C   0  0  0  0  0  0  0  0  0  0  0  0
    4.9699   -5.4871   24.9198 C   0  0  0  0  0  0  0  0  0  0  0  0
    5.2697   -6.5834   25.7249 C   0  0  0  0  0  0  0  0  0  0  0  0
    5.8193   -6.3931   26.9988 C   0  0  0  0  0  0  0  0  0  0  0  0
    6.0329   -7.4842   27.7693 O   0  0  0  0  0  0  0  0  0  0  0  0
    6.6982   -7.2738   28.4413 H   0  0  0  0  0  0  0  0  0  0  0  0
    6.1179   -5.0833   27.4117 C   0  0  0  0  0  0  0  0  0  0  0  0
    6.9649   -4.8715   28.9157 Cl  0  0  0  0  0  0  0  0  0  0  0  0
    5.7942   -3.9810   26.6147 C   0  0  0  0  0  0  0  0  0  0  0  0
    6.0573   -2.9830   26.9505 H   0  0  0  0  0  0  0  0  0  0  0  0
    5.1170   -7.5990   25.3828 H   0  0  0  0  0  0  0  0  0  0  0  0
    4.5961   -5.6290   23.9094 H   0  0  0  0  0  0  0  0  0  0  0  0
    3.9123   -3.2862   23.8865 H   0  0  0  0  0  0  0  0  0  0  0  0
    4.5825   -2.1345   25.0534 H   0  0  0  0  0  0  0  0  0  0  0  0
    8.4185   -2.0514   22.7792 H   0  0  0  0  0  0  0  0  0  0  0  0
    8.4919   -0.7868   24.0244 H   0  0  0  0  0  0  0  0  0  0  0  0
    7.3945   -0.6313   20.9733 N   0  0  0  0  0  0  0  0  0  0  0  0
    6.7115    0.0156   19.8956 C   0  0  0  0  0  0  0  0  0  0  0  0
    5.4946    0.6649   20.1377 C   0  0  0  0  0  0  0  0  0  0  0  0
    4.8420    1.2938   19.0723 C   0  0  0  0  0  0  0  0  0  0  0  0
    5.4301    1.2783   17.8039 C   0  0  0  0  0  0  0  0  0  0  0  0
    6.5859    0.6449   17.5456 N   0  0  0  0  0  0  0  0  0  0  0  0
    7.2022    0.0282   18.5649 C   0  0  0  0  0  0  0  0  0  0  0  0
    8.1354   -0.4696   18.3109 H   0  0  0  0  0  0  0  0  0  0  0  0
    4.9582    1.7954   16.9690 H   0  0  0  0  0  0  0  0  0  0  0  0
    3.9018    1.8095   19.2273 H   0  0  0  0  0  0  0  0  0  0  0  0
    5.0890    0.6774   21.1495 H   0  0  0  0  0  0  0  0  0  0  0  0
    7.5207   -1.6307   20.8848 H   0  0  0  0  0  0  0  0  0  0  0  0
  1  2  2  0
  2  3  1  0
  3  4  1  0
  4  5  1  0
  5  6  2  0
  5  7  1  0
  7  8  1  0
  8  9  2  0
  9 10  1  0
 10 11  2  0
 11 12  1  0
 12 13  1  0
 11 14  1  0
 14 15  1  0
 14 16  2  0
 16 17  1  0
 10 18  1  0
  9 19  1  0
  7 20  1  0
  7 21  1  0
  3 22  1  0
  3 23  1  0
  2 24  1  0
 24 25  1  0
 25 26  2  0
 26 27  1  0
 27 28  2  0
 28 29  1  0
 29 30  2  0
 30 31  1  0
 28 32  1  0
 27 33  1  0
 26 34  1  0
 24 35  1  0
 16  8  1  0
 30 25  1  0
M  END
>  <plip>  (1) 
-0.10344827586206896

>  <filename>  (1) 
[H][O][c]1[c]([H])[c]([H])[c]([C]([H])([H])[C](=[O])[O][C]([H])([H])[C](=[O])[N]([H])[c]2[c]([H])[n][c]([H])[c]([H])[c]2[H])[c]([H])[c]1[Cl]

$$$$
