
     RDKit          3D

 34 36  0  0  0  0  0  0  0  0999 V2000
    6.6592   -1.4033   21.5492 H   0  0  0  0  0  0  0  0  0  0  0  0
    7.2666   -0.6773   20.9972 C   0  0  0  0  0  0  0  0  0  0  0  0
    8.5393   -0.4803   21.3859 C   0  0  0  0  0  0  0  0  0  0  0  0
    9.1186   -1.3232   22.4722 C   0  0  0  0  0  0  0  0  0  0  0  0
   10.4095   -1.9183   22.3097 C   0  0  0  0  0  0  0  0  0  0  0  0
   10.9953   -1.6178   21.4465 H   0  0  0  0  0  0  0  0  0  0  0  0
   10.8853   -2.8501   23.1974 C   0  0  0  0  0  0  0  0  0  0  0  0
   11.8528   -3.3189   23.0426 H   0  0  0  0  0  0  0  0  0  0  0  0
   10.1421   -3.1848   24.3690 C   0  0  0  0  0  0  0  0  0  0  0  0
   10.6090   -4.1233   25.3428 C   0  0  0  0  0  0  0  0  0  0  0  0
   11.5046   -4.7061   25.1471 H   0  0  0  0  0  0  0  0  0  0  0  0
    9.9453   -4.2783   26.5374 C   0  0  0  0  0  0  0  0  0  0  0  0
   10.3279   -4.9524   27.3020 H   0  0  0  0  0  0  0  0  0  0  0  0
    8.7460   -3.5508   26.7824 C   0  0  0  0  0  0  0  0  0  0  0  0
    8.2447   -3.6663   27.7365 H   0  0  0  0  0  0  0  0  0  0  0  0
    8.2106   -2.7295   25.8232 C   0  0  0  0  0  0  0  0  0  0  0  0
    7.2834   -2.1910   26.0082 H   0  0  0  0  0  0  0  0  0  0  0  0
    8.8969   -2.5064   24.5954 C   0  0  0  0  0  0  0  0  0  0  0  0
    8.3926   -1.6116   23.6111 C   0  0  0  0  0  0  0  0  0  0  0  0
    7.4329   -1.1265   23.7802 H   0  0  0  0  0  0  0  0  0  0  0  0
    9.3987    0.5611   20.7199 C   0  0  0  0  0  0  0  0  0  0  0  0
    9.7271    0.1711   19.7540 H   0  0  0  0  0  0  0  0  0  0  0  0
    8.8120    1.4636   20.5163 H   0  0  0  0  0  0  0  0  0  0  0  0
   10.2729    0.8268   21.3194 H   0  0  0  0  0  0  0  0  0  0  0  0
    6.5841   -0.0069   19.8674 C   0  0  0  0  0  0  0  0  0  0  0  0
    7.1133    0.0517   18.5590 C   0  0  0  0  0  0  0  0  0  0  0  0
    8.0571   -0.4471   18.3370 H   0  0  0  0  0  0  0  0  0  0  0  0
    6.5321    0.6896   17.5349 N   0  0  0  0  0  0  0  0  0  0  0  0
    5.3793    1.3266   17.7913 C   0  0  0  0  0  0  0  0  0  0  0  0
    4.9356    1.8614   16.9576 H   0  0  0  0  0  0  0  0  0  0  0  0
    4.7505    1.3227   19.0419 C   0  0  0  0  0  0  0  0  0  0  0  0
    3.8244    1.8696   19.1837 H   0  0  0  0  0  0  0  0  0  0  0  0
    5.3533    0.6310   20.0905 C   0  0  0  0  0  0  0  0  0  0  0  0
    4.9212    0.6239   21.0912 H   0  0  0  0  0  0  0  0  0  0  0  0
  1  2  1  0
  2  3  2  3
  3  4  1  0
  4  5  2  0
  5  6  1  0
  5  7  1  0
  7  8  1  0
  7  9  2  0
  9 10  1  0
 10 11  1  0
 10 12  2  0
 12 13  1  0
 12 14  1  0
 14 15  1  0
 14 16  2  0
 16 17  1  0
 16 18  1  0
 18 19  2  0
 19 20  1  0
  3 21  1  0
 21 22  1  0
 21 23  1  0
 21 24  1  0
  2 25  1  0
 25 26  2  0
 26 27  1  0
 26 28  1  0
 28 29  2  0
 29 30  1  0
 29 31  1  0
 31 32  1  0
 31 33  2  0
 33 34  1  0
 19  4  1  0
 33 25  1  0
 18  9  1  0
M  END
>  <plip>  (1) 
-0.03571428571428571

>  <filename>  (1) 
[H][C](=[C]([c]1[c]([H])[c]([H])[c]2[c]([H])[c]([H])[c]([H])[c]([H])[c]2[c]1[H])[C]([H])([H])[H])[c]1[c]([H])[n][c]([H])[c]([H])[c]1[H]

$$$$
