
     RDKit          3D

 33 35  0  0  0  0  0  0  0  0999 V2000
   10.5052   -3.4482   23.5599 H   0  0  0  0  0  0  0  0  0  0  0  0
    9.4331   -3.5581   23.3919 C   0  0  0  0  0  0  0  0  0  0  0  0
    8.7798   -2.7090   22.5767 C   0  0  0  0  0  0  0  0  0  0  0  0
    7.6941   -2.7622   22.4699 H   0  0  0  0  0  0  0  0  0  0  0  0
    9.3425   -1.6232   21.8167 C   0  0  0  0  0  0  0  0  0  0  0  0
    8.6759   -0.6783   21.0544 C   0  0  0  0  0  0  0  0  0  0  0  0
    7.3107   -0.6684   20.9102 O   0  0  0  0  0  0  0  0  0  0  0  0
    6.7012    0.0062   19.8740 C   0  0  0  0  0  0  0  0  0  0  0  0
    7.1905    0.0237   18.5552 C   0  0  0  0  0  0  0  0  0  0  0  0
    8.1165   -0.4982   18.3184 H   0  0  0  0  0  0  0  0  0  0  0  0
    6.5779    0.6541   17.5431 N   0  0  0  0  0  0  0  0  0  0  0  0
    5.4278    1.2899   17.8165 C   0  0  0  0  0  0  0  0  0  0  0  0
    4.9541    1.8109   16.9879 H   0  0  0  0  0  0  0  0  0  0  0  0
    4.8428    1.3007   19.0890 C   0  0  0  0  0  0  0  0  0  0  0  0
    3.9096    1.8328   19.2488 H   0  0  0  0  0  0  0  0  0  0  0  0
    5.4843    0.6420   20.1425 C   0  0  0  0  0  0  0  0  0  0  0  0
    5.0704    0.6182   21.1510 H   0  0  0  0  0  0  0  0  0  0  0  0
    9.6690    0.2141   20.6144 C   0  0  0  0  0  0  0  0  0  0  0  0
    9.5448    1.0830   19.9966 H   0  0  0  0  0  0  0  0  0  0  0  0
   10.8708   -0.1549   21.0441 N   0  0  0  0  0  0  0  0  0  0  0  0
   10.6567   -1.2635   21.7563 N   0  0  0  0  0  0  0  0  0  0  0  0
   11.4550   -1.7563   22.1289 H   0  0  0  0  0  0  0  0  0  0  0  0
    8.7605   -4.6027   24.1751 C   0  0  0  0  0  0  0  0  0  0  0  0
    9.3730   -5.1262   25.3305 C   0  0  0  0  0  0  0  0  0  0  0  0
   10.4064   -4.8746   25.5588 H   0  0  0  0  0  0  0  0  0  0  0  0
    8.6469   -5.9291   26.2139 C   0  0  0  0  0  0  0  0  0  0  0  0
    9.0904   -6.2854   27.1384 H   0  0  0  0  0  0  0  0  0  0  0  0
    7.3126   -6.2380   25.9439 C   0  0  0  0  0  0  0  0  0  0  0  0
    6.7346   -6.8394   26.6390 H   0  0  0  0  0  0  0  0  0  0  0  0
    6.7171   -5.7892   24.7653 C   0  0  0  0  0  0  0  0  0  0  0  0
    5.6863   -6.0400   24.5370 H   0  0  0  0  0  0  0  0  0  0  0  0
    7.4460   -5.0107   23.8751 C   0  0  0  0  0  0  0  0  0  0  0  0
    6.9860   -4.7307   22.9336 H   0  0  0  0  0  0  0  0  0  0  0  0
  1  2  1  0
  2  3  2  3
  3  4  1  0
  3  5  1  0
  5  6  2  0
  6  7  1  0
  7  8  1  0
  8  9  2  0
  9 10  1  0
  9 11  1  0
 11 12  2  0
 12 13  1  0
 12 14  1  0
 14 15  1  0
 14 16  2  0
 16 17  1  0
  6 18  1  0
 18 19  1  0
 18 20  2  0
 20 21  1  0
 21 22  1  0
  2 23  1  0
 23 24  2  0
 24 25  1  0
 24 26  1  0
 26 27  1  0
 26 28  2  0
 28 29  1  0
 28 30  1  0
 30 31  1  0
 30 32  2  0
 32 33  1  0
 21  5  1  0
 32 23  1  0
 16  8  1  0
M  END
>  <plip>  (1) 
-0.10344827586206896

>  <filename>  (1) 
[H][C](=[C]([H])[c]1[c]([O][c]2[c]([H])[n][c]([H])[c]([H])[c]2[H])[c]([H])[n][n]1[H])[c]1[c]([H])[c]([H])[c]([H])[c]([H])[c]1[H]

$$$$
