
     RDKit          3D

 31 33  0  0  0  0  0  0  0  0999 V2000
    4.9180    1.7989   16.9844 H   0  0  0  0  0  0  0  0  0  0  0  0
    5.3882    1.2984   17.8280 C   0  0  0  0  0  0  0  0  0  0  0  0
    6.5476    0.6771   17.5627 N   0  0  0  0  0  0  0  0  0  0  0  0
    7.1488    0.0367   18.5697 C   0  0  0  0  0  0  0  0  0  0  0  0
    8.1164   -0.4160   18.3639 H   0  0  0  0  0  0  0  0  0  0  0  0
    6.6250   -0.0353   19.8732 C   0  0  0  0  0  0  0  0  0  0  0  0
    7.5613   -0.8633   21.1660 S   0  0  0  0  0  0  0  0  0  0  0  0
    8.5990    0.5012   21.6105 C   0  0  0  0  0  0  0  0  0  0  0  0
    9.7311    0.8036   21.0166 N   0  0  0  0  0  0  0  0  0  0  0  0
   10.1486    1.9611   21.5745 N   0  0  0  0  0  0  0  0  0  0  0  0
    9.3246    2.3713   22.4662 N   0  0  0  0  0  0  0  0  0  0  0  0
    8.3304    1.4604   22.5178 N   0  0  0  0  0  0  0  0  0  0  0  0
    7.1741    1.6287   23.3739 C   0  0  0  0  0  0  0  0  0  0  0  0
    6.3170    1.9353   22.7771 H   0  0  0  0  0  0  0  0  0  0  0  0
    7.4188    2.4126   24.0946 H   0  0  0  0  0  0  0  0  0  0  0  0
    6.7725    0.4233   23.9679 O   0  0  0  0  0  0  0  0  0  0  0  0
    7.5705   -0.2112   24.8834 C   0  0  0  0  0  0  0  0  0  0  0  0
    8.7673    0.3188   25.3867 C   0  0  0  0  0  0  0  0  0  0  0  0
    9.1335    1.2827   25.0402 H   0  0  0  0  0  0  0  0  0  0  0  0
    9.4844   -0.4277   26.3304 C   0  0  0  0  0  0  0  0  0  0  0  0
   10.4119   -0.0312   26.7365 H   0  0  0  0  0  0  0  0  0  0  0  0
    9.0331   -1.6743   26.7598 C   0  0  0  0  0  0  0  0  0  0  0  0
    9.6204   -2.2491   27.4671 H   0  0  0  0  0  0  0  0  0  0  0  0
    7.8349   -2.1876   26.2528 C   0  0  0  0  0  0  0  0  0  0  0  0
    7.4775   -3.1568   26.5884 H   0  0  0  0  0  0  0  0  0  0  0  0
    7.1007   -1.4615   25.3165 C   0  0  0  0  0  0  0  0  0  0  0  0
    6.1675   -1.8345   24.9047 H   0  0  0  0  0  0  0  0  0  0  0  0
    5.4255    0.6310   20.1492 C   0  0  0  0  0  0  0  0  0  0  0  0
    5.0224    0.6343   21.1700 H   0  0  0  0  0  0  0  0  0  0  0  0
    4.7993    1.3092   19.0979 C   0  0  0  0  0  0  0  0  0  0  0  0
    3.8732    1.8466   19.2508 H   0  0  0  0  0  0  0  0  0  0  0  0
  1  2  1  0
  2  3  2  0
  3  4  1  0
  4  5  1  0
  4  6  2  0
  6  7  1  0
  7  8  1  0
  8  9  2  0
  9 10  1  0
 10 11  2  0
 11 12  1  0
 12 13  1  0
 13 14  1  0
 13 15  1  0
 13 16  1  0
 16 17  1  0
 17 18  2  0
 18 19  1  0
 18 20  1  0
 20 21  1  0
 20 22  2  0
 22 23  1  0
 22 24  1  0
 24 25  1  0
 24 26  2  0
 26 27  1  0
  6 28  1  0
 28 29  1  0
 28 30  2  0
 30 31  1  0
 30  2  1  0
 12  8  1  0
 26 17  1  0
M  END
>  <plip>  (1) 
-0.034482758620689655

>  <filename>  (1) 
[H][c]1[n][c]([H])[c]([S][c]2[n][n][n][n]2[C]([H])([H])[O][c]2[c]([H])[c]([H])[c]([H])[c]([H])[c]2[H])[c]([H])[c]1[H]

$$$$
