
     RDKit          3D

 26 27  0  0  0  0  0  0  0  0999 V2000
    5.0104    1.7117   16.8790 H   0  0  0  0  0  0  0  0  0  0  0  0
    5.4568    1.2382   17.7539 C   0  0  0  0  0  0  0  0  0  0  0  0
    6.6172    0.5900   17.5631 N   0  0  0  0  0  0  0  0  0  0  0  0
    7.1900   -0.0158   18.6142 C   0  0  0  0  0  0  0  0  0  0  0  0
    8.1362   -0.5260   18.4184 H   0  0  0  0  0  0  0  0  0  0  0  0
    6.6446   -0.0006   19.9226 C   0  0  0  0  0  0  0  0  0  0  0  0
    7.2382   -0.6486   21.0469 N   0  0  0  0  0  0  0  0  0  0  0  0
    7.9748   -1.3227   20.9448 H   0  0  0  0  0  0  0  0  0  0  0  0
    7.4284   -0.1280   22.2842 C   0  0  0  0  0  0  0  0  0  0  0  0
    6.8891    0.9447   22.7106 N   0  0  0  0  0  0  0  0  0  0  0  0
    7.2458    1.4180   23.9158 C   0  0  0  0  0  0  0  0  0  0  0  0
    7.9940    0.9745   24.8965 N   0  0  0  0  0  0  0  0  0  0  0  0
    7.9354    1.9304   25.9058 N   0  0  0  0  0  0  0  0  0  0  0  0
    7.1712    2.8651   25.4680 C   0  0  0  0  0  0  0  0  0  0  0  0
    6.7270    4.1280   26.1224 C   0  0  0  0  0  0  0  0  0  0  0  0
    5.7210    4.3634   25.7761 H   0  0  0  0  0  0  0  0  0  0  0  0
    6.7221    4.0352   27.2084 H   0  0  0  0  0  0  0  0  0  0  0  0
    7.3758    4.9613   25.8377 H   0  0  0  0  0  0  0  0  0  0  0  0
    6.7094    2.6294   24.2244 O   0  0  0  0  0  0  0  0  0  0  0  0
    8.2394   -0.9782   22.9728 N   0  0  0  0  0  0  0  0  0  0  0  0
    8.3049   -0.6718   23.9360 H   0  0  0  0  0  0  0  0  0  0  0  0
    7.7954   -1.8731   22.8817 H   0  0  0  0  0  0  0  0  0  0  0  0
    5.4355    0.6838   20.1000 C   0  0  0  0  0  0  0  0  0  0  0  0
    5.0129    0.7322   21.0995 H   0  0  0  0  0  0  0  0  0  0  0  0
    4.8283    1.2971   18.9995 C   0  0  0  0  0  0  0  0  0  0  0  0
    3.8886    1.8242   19.1064 H   0  0  0  0  0  0  0  0  0  0  0  0
  1  2  1  0
  2  3  2  0
  3  4  1  0
  4  5  1  0
  4  6  2  0
  6  7  1  0
  7  8  1  0
  7  9  1  0
  9 10  2  3
 10 11  1  0
 11 12  2  0
 12 13  1  0
 13 14  2  0
 14 15  1  0
 15 16  1  0
 15 17  1  0
 15 18  1  0
 14 19  1  0
  9 20  1  0
 20 21  1  0
 20 22  1  0
  6 23  1  0
 23 24  1  0
 23 25  2  0
 25 26  1  0
 25  2  1  0
 19 11  1  0
M  END
>  <plip>  (1) 
-0.07142857142857142

>  <filename>  (1) 
[H][c]1[n][c]([H])[c]([N]([H])[C](=[N][c]2[n][n][c]([C]([H])([H])[H])[o]2)[N]([H])[H])[c]([H])[c]1[H]

$$$$
