
     RDKit          3D

 38 40  0  0  0  0  0  0  0  0999 V2000
    4.9148    1.7943   16.9852 H   0  0  0  0  0  0  0  0  0  0  0  0
    5.3951    1.2992   17.8241 C   0  0  0  0  0  0  0  0  0  0  0  0
    6.5528    0.6803   17.5508 N   0  0  0  0  0  0  0  0  0  0  0  0
    7.1489    0.0580   18.5751 C   0  0  0  0  0  0  0  0  0  0  0  0
    8.1030   -0.4172   18.3501 H   0  0  0  0  0  0  0  0  0  0  0  0
    6.6454   -0.0158   19.8858 C   0  0  0  0  0  0  0  0  0  0  0  0
    7.3872   -0.7261   20.9951 C   0  0  0  0  0  0  0  0  0  0  0  0
    8.0362   -1.5117   20.5842 H   0  0  0  0  0  0  0  0  0  0  0  0
    6.6589   -1.2238   21.6528 H   0  0  0  0  0  0  0  0  0  0  0  0
    8.2725    0.2071   21.8932 C   0  0  1  0  0  0  0  0  0  0  0  0
    7.4369    1.2433   22.5118 C   0  0  0  0  0  0  0  0  0  0  0  0
    6.7857    2.1207   23.0263 C   0  0  0  0  0  0  0  0  0  0  0  0
    5.9870    3.1534   23.6299 C   0  0  0  0  0  0  0  0  0  0  0  0
    6.2969    3.6480   24.9125 C   0  0  0  0  0  0  0  0  0  0  0  0
    7.1572    3.2456   25.4421 H   0  0  0  0  0  0  0  0  0  0  0  0
    5.5059    4.6423   25.4915 C   0  0  0  0  0  0  0  0  0  0  0  0
    5.7549    5.0186   26.4828 H   0  0  0  0  0  0  0  0  0  0  0  0
    4.3992    5.1534   24.8005 C   0  0  0  0  0  0  0  0  0  0  0  0
    3.7882    5.9295   25.2531 H   0  0  0  0  0  0  0  0  0  0  0  0
    4.0818    4.6681   23.5249 C   0  0  0  0  0  0  0  0  0  0  0  0
    3.2267    5.0667   22.9804 H   0  0  0  0  0  0  0  0  0  0  0  0
    4.8734    3.6753   22.9482 C   0  0  0  0  0  0  0  0  0  0  0  0
    4.6478    3.2931   21.9531 H   0  0  0  0  0  0  0  0  0  0  0  0
    9.0243   -0.6266   22.9682 C   0  0  0  0  0  0  0  0  0  0  0  0
    8.4138   -1.4798   23.2970 H   0  0  0  0  0  0  0  0  0  0  0  0
    9.2105   -0.0030   23.8575 H   0  0  0  0  0  0  0  0  0  0  0  0
   10.2702   -1.0816   22.3396 N   0  0  0  0  0  0  0  0  0  0  0  0
   11.0272   -1.0487   23.0095 H   0  0  0  0  0  0  0  0  0  0  0  0
   10.5698   -0.2334   21.1812 C   0  0  0  0  0  0  0  0  0  0  0  0
   10.5517   -0.8400   20.2733 H   0  0  0  0  0  0  0  0  0  0  0  0
   11.5731    0.2131   21.2382 H   0  0  0  0  0  0  0  0  0  0  0  0
    9.4696    0.8254   21.1243 C   0  0  0  0  0  0  0  0  0  0  0  0
    9.1950    1.0681   20.0989 H   0  0  0  0  0  0  0  0  0  0  0  0
    9.8003    1.7532   21.6015 H   0  0  0  0  0  0  0  0  0  0  0  0
    5.4354    0.6481   20.1476 C   0  0  0  0  0  0  0  0  0  0  0  0
    5.0285    0.6367   21.1627 H   0  0  0  0  0  0  0  0  0  0  0  0
    4.8040    1.3119   19.0932 C   0  0  0  0  0  0  0  0  0  0  0  0
    3.8703    1.8461   19.2432 H   0  0  0  0  0  0  0  0  0  0  0  0
  1  2  1  0
  2  3  2  0
  3  4  1  0
  4  5  1  0
  4  6  2  0
  6  7  1  0
  7  8  1  0
  7  9  1  0
  7 10  1  0
 10 11  1  1
 11 12  3  0
 12 13  1  0
 13 14  2  0
 14 15  1  0
 14 16  1  0
 16 17  1  0
 16 18  2  0
 18 19  1  0
 18 20  1  0
 20 21  1  0
 20 22  2  0
 22 23  1  0
 10 24  1  0
 24 25  1  0
 24 26  1  0
 24 27  1  0
 27 28  1  0
 27 29  1  0
 29 30  1  0
 29 31  1  0
 29 32  1  0
 32 33  1  0
 32 34  1  0
  6 35  1  0
 35 36  1  0
 35 37  2  0
 37 38  1  0
 37  2  1  0
 32 10  1  0
 22 13  1  0
M  END
>  <plip>  (1) 
-0.03571428571428571

>  <filename>  (1) 
[H][c]1[n][c]([H])[c]([C]([H])([H])[C@@]2([C]#[C][c]3[c]([H])[c]([H])[c]([H])[c]([H])[c]3[H])[C]([H])([H])[N]([H])[C]([H])([H])[C]2([H])[H])[c]([H])[c]1[H]

$$$$
