
     RDKit          3D

 43 44  0  0  0  0  0  0  0  0999 V2000
    7.9663   -0.4132   24.5504 C   0  0  0  0  0  0  0  0  0  0  0  0
    8.8878    0.3243   23.6102 C   0  0  0  0  0  0  0  0  0  0  0  0
    9.0220    1.6629   23.6213 C   0  0  0  0  0  0  0  0  0  0  0  0
    8.4578    2.5424   24.6472 C   0  0  0  0  0  0  0  0  0  0  0  0
    8.6631    2.2891   26.0142 C   0  0  0  0  0  0  0  0  0  0  0  0
    8.0498    3.0804   26.9837 C   0  0  0  0  0  0  0  0  0  0  0  0
    7.2744    4.1778   26.6008 C   0  0  0  0  0  0  0  0  0  0  0  0
    7.0851    4.4602   25.2438 C   0  0  0  0  0  0  0  0  0  0  0  0
    7.6179    3.6150   24.2626 C   0  0  0  0  0  0  0  0  0  0  0  0
    7.2088    3.7349   22.8007 C   0  0  0  0  0  0  0  0  0  0  0  0
    6.7118    2.5657   22.3232 F   0  0  0  0  0  0  0  0  0  0  0  0
    8.2642    4.0347   22.0110 F   0  0  0  0  0  0  0  0  0  0  0  0
    6.2710    4.6679   22.5807 F   0  0  0  0  0  0  0  0  0  0  0  0
    6.4988    5.3284   24.9475 H   0  0  0  0  0  0  0  0  0  0  0  0
    6.7779    4.7759   27.3577 H   0  0  0  0  0  0  0  0  0  0  0  0
    8.1531    2.8085   28.0281 H   0  0  0  0  0  0  0  0  0  0  0  0
    9.2973    1.4605   26.3094 H   0  0  0  0  0  0  0  0  0  0  0  0
    9.4782    2.1815   22.7759 H   0  0  0  0  0  0  0  0  0  0  0  0
    9.4584   -0.4347   22.4355 C   0  0  0  0  0  0  0  0  0  0  0  0
    8.6614   -0.0656   21.2432 N   0  0  0  0  0  4  0  0  0  0  0  0
    7.2112   -0.5431   21.2176 C   0  0  0  0  0  0  0  0  0  0  0  0
    7.1535   -2.0629   21.1122 C   0  0  0  0  0  0  0  0  0  0  0  0
    6.1680   -2.4112   20.7970 H   0  0  0  0  0  0  0  0  0  0  0  0
    7.4186   -2.5307   22.0650 H   0  0  0  0  0  0  0  0  0  0  0  0
    7.8849   -2.3834   20.3739 H   0  0  0  0  0  0  0  0  0  0  0  0
    6.5846    0.1814   20.0616 C   0  0  0  0  0  0  0  0  0  0  0  0
    5.3391    0.8292   20.1652 C   0  0  0  0  0  0  0  0  0  0  0  0
    4.7806    1.3975   19.0170 C   0  0  0  0  0  0  0  0  0  0  0  0
    5.4882    1.3079   17.8154 C   0  0  0  0  0  0  0  0  0  0  0  0
    6.6634    0.6783   17.6917 N   0  0  0  0  0  0  0  0  0  0  0  0
    7.1843    0.1338   18.7947 C   0  0  0  0  0  0  0  0  0  0  0  0
    8.1331   -0.3829   18.6486 H   0  0  0  0  0  0  0  0  0  0  0  0
    5.0895    1.7427   16.9024 H   0  0  0  0  0  0  0  0  0  0  0  0
    3.8298    1.9210   19.0393 H   0  0  0  0  0  0  0  0  0  0  0  0
    4.8276    0.9171   21.1269 H   0  0  0  0  0  0  0  0  0  0  0  0
    6.7300   -0.2138   22.1459 H   0  0  0  0  0  0  0  0  0  0  0  0
    8.5589    0.9806   21.1982 H   0  0  0  0  0  0  0  0  0  0  0  0
    9.0889   -0.4018   20.3661 H   0  0  0  0  0  0  0  0  0  0  0  0
   10.5158   -0.1980   22.2930 H   0  0  0  0  0  0  0  0  0  0  0  0
    9.4075   -1.5098   22.6375 H   0  0  0  0  0  0  0  0  0  0  0  0
    8.3873   -0.5533   25.5515 H   0  0  0  0  0  0  0  0  0  0  0  0
    7.7129   -1.4054   24.1619 H   0  0  0  0  0  0  0  0  0  0  0  0
    7.0280    0.1458   24.6701 H   0  0  0  0  0  0  0  0  0  0  0  0
  1  2  1  0
  2  3  2  3
  3  4  1  0
  4  5  2  0
  5  6  1  0
  6  7  2  0
  7  8  1  0
  8  9  2  0
  9 10  1  0
 10 11  1  0
 10 12  1  0
 10 13  1  0
  8 14  1  0
  7 15  1  0
  6 16  1  0
  5 17  1  0
  3 18  1  0
  2 19  1  0
 19 20  1  0
 20 21  1  0
 21 22  1  0
 22 23  1  0
 22 24  1  0
 22 25  1  0
 21 26  1  0
 26 27  2  0
 27 28  1  0
 28 29  2  0
 29 30  1  0
 30 31  2  0
 31 32  1  0
 29 33  1  0
 28 34  1  0
 27 35  1  0
 21 36  1  0
 20 37  1  0
 20 38  1  0
 19 39  1  0
 19 40  1  0
  1 41  1  0
  1 42  1  0
  1 43  1  0
  9  4  1  0
 31 26  1  0
M  CHG  1  20   1
M  END
>  <plip>  (1) 
-0.1

>  <filename>  (1) 
[H][C](=[C]([C]([H])([H])[H])[C]([H])([H])[N+]([H])([H])[C]([H])([c]1[c]([H])[n][c]([H])[c]([H])[c]1[H])[C]([H])([H])[H])[c]1[c]([H])[c]([H])[c]([H])[c]([H])[c]1[C]([F])([F])[F]

$$$$
