
     RDKit          3D

 38 39  0  0  0  0  0  0  0  0999 V2000
    7.7235   -2.0733   20.6815 O   0  0  0  0  0  0  0  0  0  0  0  0
    7.4057   -0.7337   21.0012 C   0  0  0  0  0  0  0  0  0  0  0  0
    8.7409   -0.0189   21.3213 C   0  0  0  0  0  0  0  0  0  0  0  0
    8.6018    1.3916   21.8800 N   0  0  0  0  0  4  0  0  0  0  0  0
    8.3987    1.3468   23.3983 C   0  0  0  0  0  0  0  0  0  0  0  0
    9.7009    1.1778   24.2052 C   0  0  2  0  0  0  0  0  0  0  0  0
    9.2487    0.9620   25.5277 O   0  0  0  0  0  0  0  0  0  0  0  0
    9.9960    1.0512   26.1401 H   0  0  0  0  0  0  0  0  0  0  0  0
   10.6058    2.3869   24.0458 C   0  0  0  0  0  0  0  0  0  0  0  0
   11.7926    2.3324   23.2897 C   0  0  0  0  0  0  0  0  0  0  0  0
   12.5981    3.4642   23.1114 C   0  0  0  0  0  0  0  0  0  0  0  0
   12.1975    4.6663   23.6898 C   0  0  0  0  0  0  0  0  0  0  0  0
   12.9596    5.7613   23.5332 F   0  0  0  0  0  0  0  0  0  0  0  0
   11.0133    4.7824   24.4096 C   0  0  0  0  0  0  0  0  0  0  0  0
   10.2321    3.6408   24.5509 C   0  0  0  0  0  0  0  0  0  0  0  0
    9.0648    3.7696   25.2133 F   0  0  0  0  0  0  0  0  0  0  0  0
   10.6957    5.7256   24.8365 H   0  0  0  0  0  0  0  0  0  0  0  0
   13.5080    3.4375   22.5228 H   0  0  0  0  0  0  0  0  0  0  0  0
   12.0792    1.3940   22.8102 H   0  0  0  0  0  0  0  0  0  0  0  0
   10.2533    0.2925   23.8420 H   0  0  0  0  0  0  0  0  0  0  0  0
    7.9369    2.2637   23.7501 H   0  0  0  0  0  0  0  0  0  0  0  0
    7.7437    0.5181   23.6730 H   0  0  0  0  0  0  0  0  0  0  0  0
    9.4599    1.9836   21.7068 H   0  0  0  0  0  0  0  0  0  0  0  0
    7.7882    1.8565   21.3925 H   0  0  0  0  0  0  0  0  0  0  0  0
    9.3545   -0.0120   20.4195 H   0  0  0  0  0  0  0  0  0  0  0  0
    9.2503   -0.6512   22.0493 H   0  0  0  0  0  0  0  0  0  0  0  0
    6.6287   -0.0628   19.8916 C   0  0  0  0  0  0  0  0  0  0  0  0
    5.4327    0.6309   20.1338 C   0  0  0  0  0  0  0  0  0  0  0  0
    4.8196    1.3053   19.0764 C   0  0  0  0  0  0  0  0  0  0  0  0
    5.4247    1.2848   17.8169 C   0  0  0  0  0  0  0  0  0  0  0  0
    6.5705    0.6334   17.5662 N   0  0  0  0  0  0  0  0  0  0  0  0
    7.1407   -0.0225   18.5831 C   0  0  0  0  0  0  0  0  0  0  0  0
    8.0807   -0.5237   18.3385 H   0  0  0  0  0  0  0  0  0  0  0  0
    4.9876    1.8279   16.9786 H   0  0  0  0  0  0  0  0  0  0  0  0
    3.9005    1.8606   19.2122 H   0  0  0  0  0  0  0  0  0  0  0  0
    4.9933    0.6529   21.1352 H   0  0  0  0  0  0  0  0  0  0  0  0
    6.7886   -0.7666   21.9127 H   0  0  0  0  0  0  0  0  0  0  0  0
    7.8887   -2.1148   19.7265 H   0  0  0  0  0  0  0  0  0  0  0  0
  1  2  1  0
  2  3  1  0
  3  4  1  0
  4  5  1  0
  5  6  1  0
  6  7  1  0
  7  8  1  0
  6  9  1  0
  9 10  2  0
 10 11  1  0
 11 12  2  0
 12 13  1  0
 12 14  1  0
 14 15  2  0
 15 16  1  0
 14 17  1  0
 11 18  1  0
 10 19  1  0
  6 20  1  6
  5 21  1  0
  5 22  1  0
  4 23  1  0
  4 24  1  0
  3 25  1  0
  3 26  1  0
  2 27  1  0
 27 28  2  0
 28 29  1  0
 29 30  2  0
 30 31  1  0
 31 32  2  0
 32 33  1  0
 30 34  1  0
 29 35  1  0
 28 36  1  0
  2 37  1  0
  1 38  1  0
 15  9  1  0
 32 27  1  0
M  CHG  1   4   1
M  END
>  <plip>  (1) 
-0.12903225806451613

>  <filename>  (1) 
[H][O][C]([H])([c]1[c]([H])[n][c]([H])[c]([H])[c]1[H])[C]([H])([H])[N+]([H])([H])[C]([H])([H])[C@]([H])([O][H])[c]1[c]([H])[c]([H])[c]([F])[c]([H])[c]1[F]

$$$$
