
     RDKit          3D

 25 26  0  0  0  0  0  0  0  0999 V2000
    9.6230    3.2825   22.4265 H   0  0  0  0  0  0  0  0  0  0  0  0
    9.5686    2.2855   22.0009 C   0  0  0  0  0  0  0  0  0  0  0  0
   10.4803    1.5414   21.3887 C   0  0  0  0  0  0  0  0  0  0  0  0
   11.5232    1.7181   21.1439 H   0  0  0  0  0  0  0  0  0  0  0  0
    9.8548    0.2282   21.0490 C   0  0  0  0  0  0  0  0  0  0  0  0
   10.3818   -0.7046   20.5142 O   0  0  0  0  0  0  0  0  0  0  0  0
    8.5401    0.2852   21.4886 N   0  0  0  0  0  0  0  0  0  0  0  0
    7.4912   -0.6083   21.0216 C   0  0  2  0  0  0  0  0  0  0  0  0
    8.1024   -1.7259   20.4833 F   0  0  0  0  0  0  0  0  0  0  0  0
    6.6756    0.0537   19.9249 C   0  0  0  0  0  0  0  0  0  0  0  0
    7.1787    0.0642   18.6145 C   0  0  0  0  0  0  0  0  0  0  0  0
    8.1094   -0.4475   18.3689 H   0  0  0  0  0  0  0  0  0  0  0  0
    6.5611    0.6639   17.5897 N   0  0  0  0  0  0  0  0  0  0  0  0
    5.4012    1.2854   17.8386 C   0  0  0  0  0  0  0  0  0  0  0  0
    4.9359    1.7838   16.9914 H   0  0  0  0  0  0  0  0  0  0  0  0
    4.8008    1.3070   19.0981 C   0  0  0  0  0  0  0  0  0  0  0  0
    3.8728    1.8366   19.2442 H   0  0  0  0  0  0  0  0  0  0  0  0
    5.4397    0.6668   20.1575 C   0  0  0  0  0  0  0  0  0  0  0  0
    4.9889    0.6554   21.1527 H   0  0  0  0  0  0  0  0  0  0  0  0
    6.6628   -1.1291   22.1829 C   0  0  0  0  0  0  0  0  0  0  0  0
    6.2480   -0.3110   22.7737 H   0  0  0  0  0  0  0  0  0  0  0  0
    7.2937   -1.7660   22.8105 H   0  0  0  0  0  0  0  0  0  0  0  0
    5.8584   -1.7456   21.7718 H   0  0  0  0  0  0  0  0  0  0  0  0
    8.2861    1.5179   22.0628 C   0  0  0  0  0  0  0  0  0  0  0  0
    7.2210    1.8716   22.5034 O   0  0  0  0  0  0  0  0  0  0  0  0
  1  2  1  0
  2  3  2  0
  3  4  1  0
  3  5  1  0
  5  6  2  0
  5  7  1  0
  7  8  1  0
  8  9  1  6
  8 10  1  0
 10 11  2  0
 11 12  1  0
 11 13  1  0
 13 14  2  0
 14 15  1  0
 14 16  1  0
 16 17  1  0
 16 18  2  0
 18 19  1  0
  8 20  1  0
 20 21  1  0
 20 22  1  0
 20 23  1  0
  7 24  1  0
 24 25  2  0
 24  2  1  0
 18 10  1  0
M  END
>  <plip>  (1) 
-0.07142857142857142

>  <filename>  (1) 
[H][C]1=[C]([H])[C](=[O])[N]([C@]([F])([c]2[c]([H])[n][c]([H])[c]([H])[c]2[H])[C]([H])([H])[H])[C]1=[O]

$$$$
