
     RDKit          3D

 29 31  0  0  0  0  0  0  0  0999 V2000
    5.0520    1.7746   16.9317 H   0  0  0  0  0  0  0  0  0  0  0  0
    5.5153    1.3114   17.7994 C   0  0  0  0  0  0  0  0  0  0  0  0
    6.6973    0.7092   17.5881 N   0  0  0  0  0  0  0  0  0  0  0  0
    7.2802    0.1244   18.6409 C   0  0  0  0  0  0  0  0  0  0  0  0
    8.2254   -0.3862   18.4572 H   0  0  0  0  0  0  0  0  0  0  0  0
    6.7274    0.0945   19.9419 C   0  0  0  0  0  0  0  0  0  0  0  0
    7.3630   -0.6459   21.0422 C   0  0  0  0  0  0  0  0  0  0  0  0
    6.8643   -1.6630   21.8158 C   0  0  0  0  0  0  0  0  0  0  0  0
    5.8574   -2.0585   21.7781 H   0  0  0  0  0  0  0  0  0  0  0  0
    7.8326   -2.2121   22.6150 N   0  0  0  0  0  0  0  0  0  0  0  0
    8.9229   -1.5304   22.3458 C   0  0  0  0  0  0  0  0  0  0  0  0
    9.8933   -1.6969   22.7945 H   0  0  0  0  0  0  0  0  0  0  0  0
    8.6985   -0.5414   21.4158 N   0  0  0  0  0  0  0  0  0  0  0  0
    9.5962    0.4303   20.9311 N   0  0  0  0  0  0  0  0  0  0  0  0
    9.0641    1.0954   20.3726 H   0  0  0  0  0  0  0  0  0  0  0  0
   10.4581    1.1064   21.8582 C   0  0  0  0  0  0  0  0  0  0  0  0
   11.6174    1.7436   21.3767 C   0  0  0  0  0  0  0  0  0  0  0  0
   11.8032    1.8215   20.3102 H   0  0  0  0  0  0  0  0  0  0  0  0
   12.5671    2.2634   22.1595 N   0  0  0  0  0  0  0  0  0  0  0  0
   12.3961    2.1981   23.4851 C   0  0  0  0  0  0  0  0  0  0  0  0
   13.2343    2.5494   24.0763 H   0  0  0  0  0  0  0  0  0  0  0  0
   11.2332    1.6888   24.0704 C   0  0  0  0  0  0  0  0  0  0  0  0
   11.1106    1.6942   25.1486 H   0  0  0  0  0  0  0  0  0  0  0  0
   10.2395    1.1620   23.2395 C   0  0  0  0  0  0  0  0  0  0  0  0
    9.2991    0.7896   23.6368 H   0  0  0  0  0  0  0  0  0  0  0  0
    5.4897    0.7227   20.1319 C   0  0  0  0  0  0  0  0  0  0  0  0
    5.0391    0.7365   21.1244 H   0  0  0  0  0  0  0  0  0  0  0  0
    4.8757    1.3404   19.0440 C   0  0  0  0  0  0  0  0  0  0  0  0
    3.9207    1.8401   19.1475 H   0  0  0  0  0  0  0  0  0  0  0  0
  1  2  1  0
  2  3  2  0
  3  4  1  0
  4  5  1  0
  4  6  2  0
  6  7  1  0
  7  8  2  0
  8  9  1  0
  8 10  1  0
 10 11  2  0
 11 12  1  0
 11 13  1  0
 13 14  1  0
 14 15  1  0
 14 16  1  0
 16 17  2  0
 17 18  1  0
 17 19  1  0
 19 20  2  0
 20 21  1  0
 20 22  1  0
 22 23  1  0
 22 24  2  0
 24 25  1  0
  6 26  1  0
 26 27  1  0
 26 28  2  0
 28 29  1  0
 28  2  1  0
 13  7  1  0
 24 16  1  0
M  END
>  <plip>  (1) 
-0.10714285714285714

>  <filename>  (1) 
[H][c]1[n][c]([H])[c](-[c]2[c]([H])[n][c]([H])[n]2[N]([H])[c]2[c]([H])[n][c]([H])[c]([H])[c]2[H])[c]([H])[c]1[H]

$$$$
