
     RDKit          3D

 32 34  0  0  0  0  0  0  0  0999 V2000
    4.9142    1.7881   16.9905 H   0  0  0  0  0  0  0  0  0  0  0  0
    5.3978    1.2980   17.8308 C   0  0  0  0  0  0  0  0  0  0  0  0
    6.5612    0.6864   17.5655 N   0  0  0  0  0  0  0  0  0  0  0  0
    7.1570    0.0565   18.5819 C   0  0  0  0  0  0  0  0  0  0  0  0
    8.1119   -0.4184   18.3647 H   0  0  0  0  0  0  0  0  0  0  0  0
    6.6380   -0.0198   19.8839 C   0  0  0  0  0  0  0  0  0  0  0  0
    7.4007   -0.7026   20.9927 C   0  0  0  0  0  0  0  0  0  0  0  0
    7.9599   -1.5640   20.6038 H   0  0  0  0  0  0  0  0  0  0  0  0
    6.6909   -1.0934   21.7353 H   0  0  0  0  0  0  0  0  0  0  0  0
    8.3816    0.2264   21.7652 C   0  0  1  0  0  0  0  0  0  0  0  0
    8.8693   -0.3619   22.5491 H   0  0  0  0  0  0  0  0  0  0  0  0
    9.7556    0.6653   20.6970 Cl  0  0  0  0  0  0  0  0  0  0  0  0
    7.7340    1.4606   22.3561 C   0  0  0  0  0  0  0  0  0  0  0  0
    7.6683    2.6550   21.6632 C   0  0  0  0  0  0  0  0  0  0  0  0
    8.1104    2.7068   20.6779 H   0  0  0  0  0  0  0  0  0  0  0  0
    7.0666    3.7889   22.1079 N   0  0  0  0  0  0  0  0  0  0  0  0
    6.4889    3.7359   23.2890 C   0  0  0  0  0  0  0  0  0  0  0  0
    6.0229    4.6448   23.6578 H   0  0  0  0  0  0  0  0  0  0  0  0
    6.4346    2.5714   24.1095 C   0  0  0  0  0  0  0  0  0  0  0  0
    5.7795    2.5536   25.3783 C   0  0  0  0  0  0  0  0  0  0  0  0
    5.3181    3.4700   25.7504 H   0  0  0  0  0  0  0  0  0  0  0  0
    5.7254    1.3968   26.1170 C   0  0  0  0  0  0  0  0  0  0  0  0
    5.2257    1.3812   27.0849 H   0  0  0  0  0  0  0  0  0  0  0  0
    6.3185    0.2019   25.6211 C   0  0  0  0  0  0  0  0  0  0  0  0
    6.2669   -0.7103   26.2091 H   0  0  0  0  0  0  0  0  0  0  0  0
    6.9643    0.1924   24.4031 C   0  0  0  0  0  0  0  0  0  0  0  0
    7.4013   -0.7321   24.0299 H   0  0  0  0  0  0  0  0  0  0  0  0
    7.0612    1.3810   23.6211 C   0  0  0  0  0  0  0  0  0  0  0  0
    5.4247    0.6332   20.1411 C   0  0  0  0  0  0  0  0  0  0  0  0
    5.0165    0.6396   21.1607 H   0  0  0  0  0  0  0  0  0  0  0  0
    4.7968    1.3100   19.0949 C   0  0  0  0  0  0  0  0  0  0  0  0
    3.8685    1.8489   19.2516 H   0  0  0  0  0  0  0  0  0  0  0  0
  1  2  1  0
  2  3  2  0
  3  4  1  0
  4  5  1  0
  4  6  2  0
  6  7  1  0
  7  8  1  0
  7  9  1  0
  7 10  1  0
 10 11  1  1
 10 12  1  0
 10 13  1  0
 13 14  2  0
 14 15  1  0
 14 16  1  0
 16 17  2  0
 17 18  1  0
 17 19  1  0
 19 20  2  0
 20 21  1  0
 20 22  1  0
 22 23  1  0
 22 24  2  0
 24 25  1  0
 24 26  1  0
 26 27  1  0
 26 28  2  0
  6 29  1  0
 29 30  1  0
 29 31  2  0
 31 32  1  0
 31  2  1  0
 28 13  1  0
 28 19  1  0
M  END
>  <plip>  (1) 
-0.03571428571428571

>  <filename>  (1) 
[H][c]1[n][c]([H])[c]([C]([H])([H])[C@@]([H])([Cl])[c]2[c]([H])[n][c]([H])[c]3[c]([H])[c]([H])[c]([H])[c]([H])[c]23)[c]([H])[c]1[H]

$$$$
