
     RDKit          3D

 22 23  0  0  0  0  0  0  0  0999 V2000
    4.9169    1.7788   16.9991 H   0  0  0  0  0  0  0  0  0  0  0  0
    5.4004    1.2918   17.8433 C   0  0  0  0  0  0  0  0  0  0  0  0
    6.5642    0.6758   17.5810 N   0  0  0  0  0  0  0  0  0  0  0  0
    7.1778    0.0688   18.5951 C   0  0  0  0  0  0  0  0  0  0  0  0
    8.1227   -0.4232   18.3734 H   0  0  0  0  0  0  0  0  0  0  0  0
    6.6629    0.0158   19.9087 C   0  0  0  0  0  0  0  0  0  0  0  0
    7.4102   -0.6988   20.9782 C   0  0  0  0  0  0  0  0  0  0  0  0
    9.0434   -0.6987   21.0182 S   0  0  0  0  0  0  0  0  0  0  0  0
    6.5680   -1.5475   21.9727 C   0  0  0  0  0  0  0  0  0  0  0  0
    5.6031   -2.1757   21.5971 O   0  0  0  0  0  0  0  0  0  0  0  0
    6.9946   -1.5959   23.3157 N   0  0  0  0  0  0  0  0  0  0  0  0
    6.6322   -2.6021   24.1922 C   0  0  0  0  0  0  0  0  0  0  0  0
    6.0184   -3.4482   23.8941 H   0  0  0  0  0  0  0  0  0  0  0  0
    7.1240   -2.4114   25.3756 N   0  0  0  0  0  0  0  0  0  0  0  0
    7.8321   -1.2270   25.3056 C   0  0  0  0  0  0  0  0  0  0  0  0
    8.3385   -0.8063   26.1644 H   0  0  0  0  0  0  0  0  0  0  0  0
    7.7718   -0.7011   24.0573 C   0  0  0  0  0  0  0  0  0  0  0  0
    8.1832    0.2081   23.6387 H   0  0  0  0  0  0  0  0  0  0  0  0
    5.4378    0.6513   20.1637 C   0  0  0  0  0  0  0  0  0  0  0  0
    4.9946    0.6274   21.1639 H   0  0  0  0  0  0  0  0  0  0  0  0
    4.8059    1.3126   19.1085 C   0  0  0  0  0  0  0  0  0  0  0  0
    3.8726    1.8455   19.2575 H   0  0  0  0  0  0  0  0  0  0  0  0
  1  2  1  0
  2  3  2  0
  3  4  1  0
  4  5  1  0
  4  6  2  0
  6  7  1  0
  7  8  2  0
  7  9  1  0
  9 10  2  0
  9 11  1  0
 11 12  1  0
 12 13  1  0
 12 14  2  0
 14 15  1  0
 15 16  1  0
 15 17  2  0
 17 18  1  0
  6 19  1  0
 19 20  1  0
 19 21  2  0
 21 22  1  0
 21  2  1  0
 17 11  1  0
M  END
>  <plip>  (1) 
-0.07142857142857142

>  <filename>  (1) 
[H][c]1[n][c]([H])[c]([C](=[S])[C](=[O])[n]2[c]([H])[n][c]([H])[c]2[H])[c]([H])[c]1[H]

$$$$
