
     RDKit          3D

 43 45  0  0  0  0  0  0  0  0999 V2000
    7.4280    0.5965   22.9254 C   0  0  0  0  0  0  0  0  0  0  0  0
    7.0829   -0.7319   22.2429 C   0  0  0  0  0  0  0  0  0  0  0  0
    7.3980   -0.6986   20.8417 O   0  0  0  0  0  0  0  0  0  0  0  0
    6.6605    0.0055   19.9389 C   0  0  0  0  0  0  0  0  0  0  0  0
    5.4417    0.6485   20.1822 C   0  0  0  0  0  0  0  0  0  0  0  0
    4.8126    1.3046   19.1111 C   0  0  0  0  0  0  0  0  0  0  0  0
    5.3991    1.2908   17.8455 C   0  0  0  0  0  0  0  0  0  0  0  0
    6.5669    0.6706   17.6005 N   0  0  0  0  0  0  0  0  0  0  0  0
    7.1761    0.0551   18.6185 C   0  0  0  0  0  0  0  0  0  0  0  0
    8.1206   -0.4348   18.3948 H   0  0  0  0  0  0  0  0  0  0  0  0
    4.9201    1.7800   16.9985 H   0  0  0  0  0  0  0  0  0  0  0  0
    3.8812    1.8362   19.2603 H   0  0  0  0  0  0  0  0  0  0  0  0
    4.9969    0.6376   21.1766 H   0  0  0  0  0  0  0  0  0  0  0  0
    7.9233   -1.8990   22.8523 C   0  0  0  0  0  0  0  0  0  0  0  0
    9.1010   -2.0361   22.5662 O   0  0  0  0  0  0  0  0  0  0  0  0
    7.3118   -2.7601   23.7620 N   0  0  0  0  0  0  0  0  0  0  0  0
    6.1093   -2.4867   24.5594 C   0  0  0  0  0  0  0  0  0  0  0  0
    6.2105   -3.0707   25.9859 C   0  0  0  0  0  0  0  0  0  0  0  0
    6.5926   -4.4863   25.9682 N   0  0  0  0  0  0  0  0  0  0  0  0
    6.1326   -5.3843   26.9330 C   0  0  0  0  0  0  0  0  0  0  0  0
    7.0329   -6.0394   27.6799 N   0  0  0  0  0  0  0  0  0  0  0  0
    6.5769   -6.8977   28.6029 C   0  0  0  0  0  0  0  0  0  0  0  0
    5.2285   -7.1759   28.8118 C   0  0  0  0  0  0  0  0  0  0  0  0
    4.2706   -6.5264   28.0207 C   0  0  0  0  0  0  0  0  0  0  0  0
    4.7354   -5.6241   27.0829 C   0  0  0  0  0  0  0  0  0  0  0  0
    3.8475   -4.9955   26.2829 F   0  0  0  0  0  0  0  0  0  0  0  0
    3.1991   -6.7031   28.1228 H   0  0  0  0  0  0  0  0  0  0  0  0
    4.9243   -7.8932   29.5608 H   0  0  0  0  0  0  0  0  0  0  0  0
    7.3300   -7.4054   29.2030 H   0  0  0  0  0  0  0  0  0  0  0  0
    7.8217   -4.7387   25.2232 C   0  0  0  0  0  0  0  0  0  0  0  0
    7.7271   -4.1738   23.7946 C   0  0  0  0  0  0  0  0  0  0  0  0
    7.0128   -4.7804   23.2187 H   0  0  0  0  0  0  0  0  0  0  0  0
    8.6988   -4.2637   23.3052 H   0  0  0  0  0  0  0  0  0  0  0  0
    8.6981   -4.3094   25.7323 H   0  0  0  0  0  0  0  0  0  0  0  0
    7.9922   -5.8179   25.1566 H   0  0  0  0  0  0  0  0  0  0  0  0
    6.9383   -2.4705   26.5553 H   0  0  0  0  0  0  0  0  0  0  0  0
    5.2436   -2.9402   26.4758 H   0  0  0  0  0  0  0  0  0  0  0  0
    5.9628   -1.4072   24.6437 H   0  0  0  0  0  0  0  0  0  0  0  0
    5.2188   -2.9064   24.0720 H   0  0  0  0  0  0  0  0  0  0  0  0
    6.0195   -0.9686   22.3495 H   0  0  0  0  0  0  0  0  0  0  0  0
    6.8337    1.4250   22.5224 H   0  0  0  0  0  0  0  0  0  0  0  0
    8.4857    0.8238   22.7565 H   0  0  0  0  0  0  0  0  0  0  0  0
    7.2535    0.5411   24.0072 H   0  0  0  0  0  0  0  0  0  0  0  0
  1  2  1  0
  2  3  1  0
  3  4  1  0
  4  5  2  0
  5  6  1  0
  6  7  2  0
  7  8  1  0
  8  9  2  0
  9 10  1  0
  7 11  1  0
  6 12  1  0
  5 13  1  0
  2 14  1  0
 14 15  2  0
 14 16  1  0
 16 17  1  0
 17 18  1  0
 18 19  1  0
 19 20  1  0
 20 21  2  0
 21 22  1  0
 22 23  2  0
 23 24  1  0
 24 25  2  0
 25 26  1  0
 24 27  1  0
 23 28  1  0
 22 29  1  0
 19 30  1  0
 30 31  1  0
 31 32  1  0
 31 33  1  0
 30 34  1  0
 30 35  1  0
 18 36  1  0
 18 37  1  0
 17 38  1  0
 17 39  1  0
  2 40  1  0
  1 41  1  0
  1 42  1  0
  1 43  1  0
  9  4  1  0
 31 16  1  0
 25 20  1  0
M  END
>  <plip>  (1) 
-0.034482758620689655

>  <filename>  (1) 
[H][c]1[n][c]([N]2[C]([H])([H])[C]([H])([H])[N]([C](=[O])[C]([H])([O][c]3[c]([H])[n][c]([H])[c]([H])[c]3[H])[C]([H])([H])[H])[C]([H])([H])[C]2([H])[H])[c]([F])[c]([H])[c]1[H]

$$$$
