
     RDKit          3D

 33 35  0  0  0  0  0  0  0  0999 V2000
    6.7331   -2.3495   21.3835 C   0  0  0  0  0  0  0  0  0  0  0  0
    7.5825   -0.8204   21.0945 S   0  0  0  0  0  0  0  0  0  0  0  0
    8.9566   -1.0247   20.6713 O   0  0  0  0  0  0  0  0  0  0  0  0
    7.2927   -0.0780   22.5357 N   0  0  0  0  0  0  0  0  0  0  0  0
    7.8627    1.1304   22.5479 C   0  0  0  0  0  0  0  0  0  0  0  0
    8.4361    1.6456   21.5795 O   0  0  0  0  0  0  0  0  0  0  0  0
    7.7825    1.9659   23.8968 C   0  0  0  0  0  0  0  0  0  0  0  0
    7.1816    1.4993   25.0159 N   0  0  0  0  0  0  0  0  0  0  0  0
    7.3008    2.4695   25.9224 N   0  0  0  0  0  0  0  0  0  0  0  0
    6.7968    2.3890   27.2023 C   0  0  0  0  0  0  0  0  0  0  0  0
    6.9538    3.4477   28.0608 C   0  0  0  0  0  0  0  0  0  0  0  0
    7.6429    4.6172   27.5990 C   0  0  0  0  0  0  0  0  0  0  0  0
    7.8443    5.9480   28.7018 Cl  0  0  0  0  0  0  0  0  0  0  0  0
    8.1461    4.6967   26.3245 C   0  0  0  0  0  0  0  0  0  0  0  0
    7.9759    3.5849   25.4421 C   0  0  0  0  0  0  0  0  0  0  0  0
    8.3037    3.2685   24.1243 C   0  0  0  0  0  0  0  0  0  0  0  0
    8.8376    3.9150   23.4446 H   0  0  0  0  0  0  0  0  0  0  0  0
    8.6630    5.5767   25.9729 H   0  0  0  0  0  0  0  0  0  0  0  0
    6.5685    3.4115   29.0741 H   0  0  0  0  0  0  0  0  0  0  0  0
    6.3045    1.4472   27.4001 H   0  0  0  0  0  0  0  0  0  0  0  0
    6.6574    0.0548   19.9401 C   0  0  0  0  0  0  0  0  0  0  0  0
    5.4364    0.6748   20.2127 C   0  0  0  0  0  0  0  0  0  0  0  0
    4.8187    1.2983   19.1356 C   0  0  0  0  0  0  0  0  0  0  0  0
    5.4290    1.2617   17.8782 C   0  0  0  0  0  0  0  0  0  0  0  0
    6.5940    0.6406   17.6383 N   0  0  0  0  0  0  0  0  0  0  0  0
    7.2085    0.0582   18.6620 C   0  0  0  0  0  0  0  0  0  0  0  0
    8.1577   -0.4354   18.4427 H   0  0  0  0  0  0  0  0  0  0  0  0
    4.9702    1.7517   17.0243 H   0  0  0  0  0  0  0  0  0  0  0  0
    3.8837    1.8294   19.2522 H   0  0  0  0  0  0  0  0  0  0  0  0
    4.9683    0.6873   21.2013 H   0  0  0  0  0  0  0  0  0  0  0  0
    7.2912   -2.8002   22.2044 H   0  0  0  0  0  0  0  0  0  0  0  0
    6.7854   -2.9369   20.4691 H   0  0  0  0  0  0  0  0  0  0  0  0
    5.7128   -2.1169   21.6912 H   0  0  0  0  0  0  0  0  0  0  0  0
  1  2  1  0
  2  3  2  0
  2  4  2  0
  4  5  1  0
  5  6  2  0
  5  7  1  0
  7  8  2  0
  8  9  1  0
  9 10  1  0
 10 11  2  0
 11 12  1  0
 12 13  1  0
 12 14  2  0
 14 15  1  0
 15 16  2  0
 16 17  1  0
 14 18  1  0
 11 19  1  0
 10 20  1  0
  2 21  1  0
 21 22  2  0
 22 23  1  0
 23 24  2  0
 24 25  1  0
 25 26  2  0
 26 27  1  0
 24 28  1  0
 23 29  1  0
 22 30  1  0
  1 31  1  0
  1 32  1  0
  1 33  1  0
 16  7  1  0
 26 21  1  0
 15  9  1  0
M  END
>  <plip>  (1) 
-0.13793103448275862

>  <filename>  (1) 
[H][c]1[n][c]([H])[c]([S](=[O])(=[N][C](=[O])[c]2[n][n]3[c]([H])[c]([H])[c]([Cl])[c]([H])[c]3[c]2[H])[C]([H])([H])[H])[c]([H])[c]1[H]

$$$$
