
     RDKit          3D

 44 47  0  0  0  0  0  0  0  0999 V2000
    7.4054    1.7513   23.2443 O   0  0  0  0  0  0  0  0  0  0  0  0
    7.9227    1.0972   22.3565 C   0  0  0  0  0  0  0  0  0  0  0  0
    9.0208    1.6642   21.4616 C   0  0  0  0  0  0  0  0  0  0  0  0
   10.3448    0.8624   21.4837 C   0  0  0  0  0  0  0  0  0  0  0  0
   10.9675    0.8911   22.7987 N   0  0  0  0  0  0  0  0  0  0  0  0
   11.6300    2.0019   23.2822 C   0  0  0  0  0  0  0  0  0  0  0  0
   11.6912    1.9674   24.6372 C   0  0  0  0  0  0  0  0  0  0  0  0
   11.0207    0.7771   25.0726 C   0  0  0  0  0  0  0  0  0  0  0  0
   10.6686    0.1801   26.2954 C   0  0  0  0  0  0  0  0  0  0  0  0
    9.8106   -0.9120   26.2700 C   0  0  0  0  0  0  0  0  0  0  0  0
    9.4460   -1.4594   25.0258 C   0  0  0  0  0  0  0  0  0  0  0  0
    9.8673   -1.0065   23.8364 N   0  0  0  0  0  0  0  0  0  0  0  0
   10.5712    0.1283   23.8856 C   0  0  0  0  0  0  0  0  0  0  0  0
    8.7541   -2.2983   24.9883 H   0  0  0  0  0  0  0  0  0  0  0  0
    9.4413   -1.3502   27.1893 H   0  0  0  0  0  0  0  0  0  0  0  0
   11.0999    0.5116   27.2293 H   0  0  0  0  0  0  0  0  0  0  0  0
   12.0599    2.7559   25.2616 H   0  0  0  0  0  0  0  0  0  0  0  0
   11.9768    2.7602   22.5886 H   0  0  0  0  0  0  0  0  0  0  0  0
   10.2363   -0.1921   21.2132 H   0  0  0  0  0  0  0  0  0  0  0  0
   11.0638    1.3000   20.7822 H   0  0  0  0  0  0  0  0  0  0  0  0
    9.2025    2.6830   21.8064 H   0  0  0  0  0  0  0  0  0  0  0  0
    8.6249    1.7347   20.4462 H   0  0  0  0  0  0  0  0  0  0  0  0
    7.5567   -0.1940   22.0829 N   0  0  0  0  0  0  0  0  0  0  0  0
    6.7207   -0.9432   23.0165 C   0  0  0  0  0  0  0  0  0  0  0  0
    6.3417   -2.2355   22.2642 C   0  0  0  0  0  0  0  0  0  0  0  0
    7.2847   -2.2610   21.0585 C   0  0  0  0  0  0  0  0  0  0  0  0
    7.6114   -0.7945   20.7645 C   0  0  0  0  0  0  0  0  0  0  0  0
    6.7530   -0.0585   19.7497 C   0  0  0  0  0  0  0  0  0  0  0  0
    5.5494    0.5944   20.0576 C   0  0  0  0  0  0  0  0  0  0  0  0
    4.8743    1.2678   19.0388 C   0  0  0  0  0  0  0  0  0  0  0  0
    5.4224    1.2797   17.7520 C   0  0  0  0  0  0  0  0  0  0  0  0
    6.5758    0.6697   17.4398 N   0  0  0  0  0  0  0  0  0  0  0  0
    7.2179    0.0376   18.4293 C   0  0  0  0  0  0  0  0  0  0  0  0
    8.1668   -0.4264   18.1507 H   0  0  0  0  0  0  0  0  0  0  0  0
    4.9246    1.8060   16.9388 H   0  0  0  0  0  0  0  0  0  0  0  0
    3.9458    1.7937   19.2321 H   0  0  0  0  0  0  0  0  0  0  0  0
    5.1516    0.5990   21.0762 H   0  0  0  0  0  0  0  0  0  0  0  0
    8.6317   -0.7454   20.3790 H   0  0  0  0  0  0  0  0  0  0  0  0
    8.2242   -2.7523   21.3343 H   0  0  0  0  0  0  0  0  0  0  0  0
    6.8665   -2.7710   20.1892 H   0  0  0  0  0  0  0  0  0  0  0  0
    5.3027   -2.2441   21.9192 H   0  0  0  0  0  0  0  0  0  0  0  0
    6.4980   -3.1106   22.9045 H   0  0  0  0  0  0  0  0  0  0  0  0
    7.2724   -1.1598   23.9340 H   0  0  0  0  0  0  0  0  0  0  0  0
    5.8979   -0.2998   23.3317 H   0  0  0  0  0  0  0  0  0  0  0  0
  1  2  2  0
  2  3  1  0
  3  4  1  0
  4  5  1  0
  5  6  1  0
  6  7  2  0
  7  8  1  0
  8  9  2  0
  9 10  1  0
 10 11  2  0
 11 12  1  0
 12 13  2  0
 11 14  1  0
 10 15  1  0
  9 16  1  0
  7 17  1  0
  6 18  1  0
  4 19  1  0
  4 20  1  0
  3 21  1  0
  3 22  1  0
  2 23  1  0
 23 24  1  0
 24 25  1  0
 25 26  1  0
 26 27  1  0
 27 28  1  0
 28 29  2  0
 29 30  1  0
 30 31  2  0
 31 32  1  0
 32 33  2  0
 33 34  1  0
 31 35  1  0
 30 36  1  0
 29 37  1  0
 27 38  1  0
 26 39  1  0
 26 40  1  0
 25 41  1  0
 25 42  1  0
 24 43  1  0
 24 44  1  0
 13  5  1  0
 27 23  1  0
 33 28  1  0
 13  8  1  0
M  END
>  <plip>  (1) 
-0.06896551724137931

>  <filename>  (1) 
[H][c]1[n][c]([H])[c]([C]2([H])[N]([C](=[O])[C]([H])([H])[C]([H])([H])[n]3[c]([H])[c]([H])[c]4[c]([H])[c]([H])[c]([H])[n][c]43)[C]([H])([H])[C]([H])([H])[C]2([H])[H])[c]([H])[c]1[H]

$$$$
