
     RDKit          3D

 39 40  0  0  0  0  0  0  0  0999 V2000
    9.4764    0.8074   21.0452 C   0  0  0  0  0  0  0  0  0  0  0  0
    8.2670    0.3642   21.8325 N   0  0  0  0  0  4  0  0  0  0  0  0
    8.7031   -0.1139   23.1845 C   0  0  0  0  0  0  0  0  0  0  0  0
    7.8730   -0.6093   23.6961 H   0  0  0  0  0  0  0  0  0  0  0  0
    9.0582    0.7229   23.7947 H   0  0  0  0  0  0  0  0  0  0  0  0
    9.5146   -0.8458   23.0926 H   0  0  0  0  0  0  0  0  0  0  0  0
    7.3019   -0.6434   21.1240 C   0  0  0  0  0  0  0  0  0  0  0  0
    7.9058   -2.0177   20.7772 C   0  0  0  0  0  0  0  0  0  0  0  0
    8.0430   -2.8856   21.9354 N   0  0  0  0  0  0  0  0  0  0  0  0
    6.9964   -3.6155   22.4144 C   0  0  0  0  0  0  0  0  0  0  0  0
    5.8217   -3.5918   21.7832 N   0  0  0  0  0  0  0  0  0  0  0  0
    4.7748   -4.3100   22.2262 N   0  0  0  0  0  0  0  0  0  0  0  0
    4.8963   -5.0469   23.3261 C   0  0  0  0  0  0  0  0  0  0  0  0
    6.0910   -5.0994   24.0696 C   0  0  0  0  0  0  0  0  0  0  0  0
    7.1797   -4.3674   23.6042 C   0  0  0  0  0  0  0  0  0  0  0  0
    8.5088   -4.1863   24.2685 C   0  0  0  0  0  0  0  0  0  0  0  0
    8.6566   -4.9130   25.3785 F   0  0  0  0  0  0  0  0  0  0  0  0
    9.5317   -4.5467   23.4453 F   0  0  0  0  0  0  0  0  0  0  0  0
    8.7425   -2.9010   24.6053 F   0  0  0  0  0  0  0  0  0  0  0  0
    6.1029   -5.6885   24.9843 H   0  0  0  0  0  0  0  0  0  0  0  0
    4.0141   -5.6022   23.6172 H   0  0  0  0  0  0  0  0  0  0  0  0
    8.9447   -3.2787   22.1306 H   0  0  0  0  0  0  0  0  0  0  0  0
    8.8806   -1.8999   20.2926 H   0  0  0  0  0  0  0  0  0  0  0  0
    7.1898   -2.4613   20.0766 H   0  0  0  0  0  0  0  0  0  0  0  0
    6.6258    0.0654   19.9809 C   0  0  0  0  0  0  0  0  0  0  0  0
    5.4059    0.7289   20.1748 C   0  0  0  0  0  0  0  0  0  0  0  0
    4.7979    1.3562   19.0877 C   0  0  0  0  0  0  0  0  0  0  0  0
    5.4361    1.3196   17.8431 C   0  0  0  0  0  0  0  0  0  0  0  0
    6.6023    0.6876   17.6361 N   0  0  0  0  0  0  0  0  0  0  0  0
    7.1698    0.0856   18.6876 C   0  0  0  0  0  0  0  0  0  0  0  0
    8.1178   -0.4187   18.4893 H   0  0  0  0  0  0  0  0  0  0  0  0
    4.9900    1.8091   16.9789 H   0  0  0  0  0  0  0  0  0  0  0  0
    3.8592    1.8907   19.1932 H   0  0  0  0  0  0  0  0  0  0  0  0
    4.9471    0.7624   21.1662 H   0  0  0  0  0  0  0  0  0  0  0  0
    6.5430   -0.8772   21.8788 H   0  0  0  0  0  0  0  0  0  0  0  0
    7.6427    1.2081   21.9347 H   0  0  0  0  0  0  0  0  0  0  0  0
    9.1716    1.1852   20.0704 H   0  0  0  0  0  0  0  0  0  0  0  0
   10.1809   -0.0208   20.8981 H   0  0  0  0  0  0  0  0  0  0  0  0
    9.9989    1.6063   21.5865 H   0  0  0  0  0  0  0  0  0  0  0  0
  1  2  1  0
  2  3  1  0
  3  4  1  0
  3  5  1  0
  3  6  1  0
  2  7  1  0
  7  8  1  0
  8  9  1  0
  9 10  1  0
 10 11  2  0
 11 12  1  0
 12 13  2  0
 13 14  1  0
 14 15  2  0
 15 16  1  0
 16 17  1  0
 16 18  1  0
 16 19  1  0
 14 20  1  0
 13 21  1  0
  9 22  1  0
  8 23  1  0
  8 24  1  0
  7 25  1  0
 25 26  2  0
 26 27  1  0
 27 28  2  0
 28 29  1  0
 29 30  2  0
 30 31  1  0
 28 32  1  0
 27 33  1  0
 26 34  1  0
  7 35  1  0
  2 36  1  0
  1 37  1  0
  1 38  1  0
  1 39  1  0
 15 10  1  0
 30 25  1  0
M  CHG  1   2   1
M  END
>  <plip>  (1) 
-0.06896551724137931

>  <filename>  (1) 
[H][c]1[n][c]([H])[c]([C]([H])([C]([H])([H])[N]([H])[c]2[n][n][c]([H])[c]([H])[c]2[C]([F])([F])[F])[N+]([H])([C]([H])([H])[H])[C]([H])([H])[H])[c]([H])[c]1[H]

$$$$
