
     RDKit          3D

 28 29  0  0  0  0  0  0  0  0999 V2000
    4.9122    1.7778   16.9986 H   0  0  0  0  0  0  0  0  0  0  0  0
    5.3999    1.2940   17.8392 C   0  0  0  0  0  0  0  0  0  0  0  0
    6.5666    0.6812   17.5698 N   0  0  0  0  0  0  0  0  0  0  0  0
    7.1762    0.0648   18.5886 C   0  0  0  0  0  0  0  0  0  0  0  0
    8.1222   -0.4271   18.3705 H   0  0  0  0  0  0  0  0  0  0  0  0
    6.6595    0.0113   19.9011 C   0  0  0  0  0  0  0  0  0  0  0  0
    7.3554   -0.6807   20.9398 C   0  0  0  0  0  0  0  0  0  0  0  0
    7.9384   -1.2729   21.8090 C   0  0  0  0  0  0  0  0  0  0  0  0
    8.6299   -1.9514   22.9150 C   0  0  2  0  0  0  0  0  0  0  0  0
    9.2055   -3.0998   22.3757 F   0  0  0  0  0  0  0  0  0  0  0  0
    7.6377   -2.3244   24.0096 C   0  0  0  0  0  0  0  0  0  0  0  0
    7.5935   -3.6102   24.5580 C   0  0  0  0  0  0  0  0  0  0  0  0
    8.2574   -4.3829   24.1795 H   0  0  0  0  0  0  0  0  0  0  0  0
    6.7694   -3.9728   25.5505 N   0  0  0  0  0  0  0  0  0  0  0  0
    5.9506   -3.0358   26.0399 C   0  0  0  0  0  0  0  0  0  0  0  0
    5.2823   -3.3393   26.8419 H   0  0  0  0  0  0  0  0  0  0  0  0
    5.9194   -1.7170   25.5779 C   0  0  0  0  0  0  0  0  0  0  0  0
    5.2392   -0.9926   26.0084 H   0  0  0  0  0  0  0  0  0  0  0  0
    6.7818   -1.3565   24.5481 C   0  0  0  0  0  0  0  0  0  0  0  0
    6.7813   -0.3349   24.1604 H   0  0  0  0  0  0  0  0  0  0  0  0
    9.7579   -1.0728   23.4541 C   0  0  0  0  0  0  0  0  0  0  0  0
   10.2758   -1.5991   24.2571 H   0  0  0  0  0  0  0  0  0  0  0  0
   10.4707   -0.8304   22.6612 H   0  0  0  0  0  0  0  0  0  0  0  0
    9.3497   -0.1413   23.8560 H   0  0  0  0  0  0  0  0  0  0  0  0
    5.4359    0.6563   20.1578 C   0  0  0  0  0  0  0  0  0  0  0  0
    5.0070    0.6318   21.1624 H   0  0  0  0  0  0  0  0  0  0  0  0
    4.8003    1.3142   19.1049 C   0  0  0  0  0  0  0  0  0  0  0  0
    3.8672    1.8479   19.2605 H   0  0  0  0  0  0  0  0  0  0  0  0
  1  2  1  0
  2  3  2  0
  3  4  1  0
  4  5  1  0
  4  6  2  0
  6  7  1  0
  7  8  3  0
  8  9  1  0
  9 10  1  6
  9 11  1  0
 11 12  2  0
 12 13  1  0
 12 14  1  0
 14 15  2  0
 15 16  1  0
 15 17  1  0
 17 18  1  0
 17 19  2  0
 19 20  1  0
  9 21  1  0
 21 22  1  0
 21 23  1  0
 21 24  1  0
  6 25  1  0
 25 26  1  0
 25 27  2  0
 27 28  1  0
 27  2  1  0
 19 11  1  0
M  END
>  <plip>  (1) 
-0.03571428571428571

>  <filename>  (1) 
[H][c]1[n][c]([H])[c]([C]#[C][C@]([F])([c]2[c]([H])[n][c]([H])[c]([H])[c]2[H])[C]([H])([H])[H])[c]([H])[c]1[H]

$$$$
