
     RDKit          3D

 34 36  0  0  0  0  0  0  0  0999 V2000
   13.6842    4.5986   22.0785 C   0  0  0  0  0  0  0  0  0  0  0  0
   12.4612    3.7455   22.0668 C   0  0  0  0  0  0  0  0  0  0  0  0
   12.3827    2.5235   21.6386 N   0  0  0  0  0  0  0  0  0  0  0  0
   11.0633    2.1732   21.7429 C   0  0  0  0  0  0  0  0  0  0  0  0
   10.5323    1.0267   21.3400 N   0  0  0  0  0  0  0  0  0  0  0  0
    9.2048    0.9739   21.4475 C   0  0  0  0  0  0  0  0  0  0  0  0
    8.7050   -0.2229   21.0740 N   0  0  0  0  0  0  0  0  0  0  0  0
    7.3096   -0.5606   21.1260 C   0  0  2  0  0  0  0  0  0  0  0  0
    7.1008   -2.0644   21.1111 C   0  0  0  0  0  0  0  0  0  0  0  0
    6.0847   -2.3197   21.4246 H   0  0  0  0  0  0  0  0  0  0  0  0
    7.2424   -2.4617   20.1087 H   0  0  0  0  0  0  0  0  0  0  0  0
    7.8020   -2.5510   21.7933 H   0  0  0  0  0  0  0  0  0  0  0  0
    6.5945    0.1406   19.9947 C   0  0  0  0  0  0  0  0  0  0  0  0
    5.3573    0.7693   20.1561 C   0  0  0  0  0  0  0  0  0  0  0  0
    4.7524    1.3533   19.0416 C   0  0  0  0  0  0  0  0  0  0  0  0
    5.4178    1.3010   17.8139 C   0  0  0  0  0  0  0  0  0  0  0  0
    6.6078    0.7083   17.6419 N   0  0  0  0  0  0  0  0  0  0  0  0
    7.1745    0.1495   18.7165 C   0  0  0  0  0  0  0  0  0  0  0  0
    8.1436   -0.3185   18.5460 H   0  0  0  0  0  0  0  0  0  0  0  0
    4.9737    1.7436   16.9262 H   0  0  0  0  0  0  0  0  0  0  0  0
    3.7939    1.8503   19.1161 H   0  0  0  0  0  0  0  0  0  0  0  0
    4.8846    0.8036   21.1393 H   0  0  0  0  0  0  0  0  0  0  0  0
    6.9120   -0.1934   22.0834 H   0  0  0  0  0  0  0  0  0  0  0  0
    9.4531   -0.8467   20.8354 H   0  0  0  0  0  0  0  0  0  0  0  0
    8.3667    2.0269   21.9242 C   0  0  0  0  0  0  0  0  0  0  0  0
    8.9448    3.1973   22.3920 C   0  0  0  0  0  0  0  0  0  0  0  0
   10.3340    3.2556   22.3065 C   0  0  0  0  0  0  0  0  0  0  0  0
   11.2735    4.2425   22.5375 N   0  0  0  0  0  0  0  0  0  0  0  0
   11.0903    5.2213   22.6870 H   0  0  0  0  0  0  0  0  0  0  0  0
    8.3550    4.0169   22.8008 H   0  0  0  0  0  0  0  0  0  0  0  0
    7.2931    1.8917   21.9121 H   0  0  0  0  0  0  0  0  0  0  0  0
   14.1107    4.6436   23.0868 H   0  0  0  0  0  0  0  0  0  0  0  0
   14.4158    4.1689   21.3945 H   0  0  0  0  0  0  0  0  0  0  0  0
   13.4465    5.6215   21.7597 H   0  0  0  0  0  0  0  0  0  0  0  0
  1  2  1  0
  2  3  2  0
  3  4  1  0
  4  5  2  0
  5  6  1  0
  6  7  1  0
  7  8  1  0
  8  9  1  0
  9 10  1  0
  9 11  1  0
  9 12  1  0
  8 13  1  0
 13 14  2  0
 14 15  1  0
 15 16  2  0
 16 17  1  0
 17 18  2  0
 18 19  1  0
 16 20  1  0
 15 21  1  0
 14 22  1  0
  8 23  1  1
  7 24  1  0
  6 25  2  0
 25 26  1  0
 26 27  2  0
 27 28  1  0
 28 29  1  0
 26 30  1  0
 25 31  1  0
  1 32  1  0
  1 33  1  0
  1 34  1  0
 28  2  1  0
 27  4  1  0
 18 13  1  0
M  END
>  <plip>  (1) 
-0.06666666666666667

>  <filename>  (1) 
[H][c]1[n][c]([H])[c]([C@]([H])([N]([H])[c]2[n][c]3[n][c]([C]([H])([H])[H])[n]([H])[c]3[c]([H])[c]2[H])[C]([H])([H])[H])[c]([H])[c]1[H]

$$$$
