
     RDKit          3D

 27 28  0  0  0  0  0  0  0  0999 V2000
    4.9135    1.7740   17.0015 H   0  0  0  0  0  0  0  0  0  0  0  0
    5.4048    1.2899   17.8438 C   0  0  0  0  0  0  0  0  0  0  0  0
    6.5698    0.6757   17.5846 N   0  0  0  0  0  0  0  0  0  0  0  0
    7.1799    0.0644   18.6097 C   0  0  0  0  0  0  0  0  0  0  0  0
    8.1200   -0.4310   18.3696 H   0  0  0  0  0  0  0  0  0  0  0  0
    6.6621   -0.0005   19.9180 C   0  0  0  0  0  0  0  0  0  0  0  0
    7.4003   -0.7203   20.9945 C   0  0  0  0  0  0  0  0  0  0  0  0
    6.3910   -1.6412   22.1026 S   0  0  0  0  0  0  0  0  0  0  0  0
    7.5501   -2.3318   23.2016 C   0  0  0  0  0  0  0  0  0  0  0  0
    6.8304   -3.3185   24.5034 S   0  0  0  0  0  0  0  0  0  0  0  0
    6.5246   -1.9838   25.7008 C   0  0  0  0  0  0  0  0  0  0  0  0
    5.7629   -2.3519   26.3987 H   0  0  0  0  0  0  0  0  0  0  0  0
    6.0906   -1.1418   25.1526 H   0  0  0  0  0  0  0  0  0  0  0  0
    7.7800   -1.5740   26.4488 C   0  0  0  0  0  0  0  0  0  0  0  0
    7.5395   -0.8183   27.2018 H   0  0  0  0  0  0  0  0  0  0  0  0
    8.2299   -2.4392   26.9435 H   0  0  0  0  0  0  0  0  0  0  0  0
    8.5186   -1.1479   25.7648 H   0  0  0  0  0  0  0  0  0  0  0  0
    8.8846   -2.1457   23.1145 C   0  0  0  0  0  0  0  0  0  0  0  0
    9.5685   -2.5998   23.8231 H   0  0  0  0  0  0  0  0  0  0  0  0
    9.5573   -1.3239   22.1029 C   0  0  0  0  0  0  0  0  0  0  0  0
   10.7714   -1.2093   22.1072 O   0  0  0  0  0  0  0  0  0  0  0  0
    8.7438   -0.6526   21.0835 C   0  0  0  0  0  0  0  0  0  0  0  0
    9.3310   -0.0544   20.3915 H   0  0  0  0  0  0  0  0  0  0  0  0
    5.4405    0.6519   20.1601 C   0  0  0  0  0  0  0  0  0  0  0  0
    5.0104    0.6320   21.1630 H   0  0  0  0  0  0  0  0  0  0  0  0
    4.8061    1.3130   19.1085 C   0  0  0  0  0  0  0  0  0  0  0  0
    3.8735    1.8447   19.2638 H   0  0  0  0  0  0  0  0  0  0  0  0
  1  2  1  0
  2  3  2  0
  3  4  1  0
  4  5  1  0
  4  6  2  0
  6  7  1  0
  7  8  1  0
  8  9  1  0
  9 10  1  0
 10 11  1  0
 11 12  1  0
 11 13  1  0
 11 14  1  0
 14 15  1  0
 14 16  1  0
 14 17  1  0
  9 18  2  0
 18 19  1  0
 18 20  1  0
 20 21  2  0
 20 22  1  0
 22 23  1  0
  6 24  1  0
 24 25  1  0
 24 26  2  0
 26 27  1  0
 26  2  1  0
 22  7  2  0
M  END
>  <plip>  (1) 
-0.03571428571428571

>  <filename>  (1) 
[H][c]1[n][c]([H])[c](-[c]2[s][c]([S][C]([H])([H])[C]([H])([H])[H])[c]([H])[c](=[O])[c]2[H])[c]([H])[c]1[H]

$$$$
