
     RDKit          3D

 40 42  0  0  0  0  0  0  0  0999 V2000
    4.2777   -4.1413   28.4093 C   0  0  0  0  0  0  0  0  0  0  0  0
    5.3191   -4.7580   27.8398 C   0  0  0  0  0  0  0  0  0  0  0  0
    6.0776   -4.1772   26.6647 C   0  0  0  0  0  0  0  0  0  0  0  0
    5.3072   -3.0324   25.9551 C   0  0  2  0  0  0  0  0  0  0  0  0
    6.1741   -2.3007   25.0001 N   0  0  0  0  0  4  0  0  0  0  0  0
    6.6309   -3.0900   23.8464 C   0  0  0  0  0  0  0  0  0  0  0  0
    7.3489   -2.1724   22.9085 C   0  0  0  0  0  0  0  0  0  0  0  0
    8.7354   -1.9759   23.0075 C   0  0  0  0  0  0  0  0  0  0  0  0
    9.4317   -1.2019   22.1674 N   0  0  0  0  0  0  0  0  0  0  0  0
    8.7647   -0.5887   21.1835 C   0  0  0  0  0  0  0  0  0  0  0  0
    7.3767   -0.7052   20.9799 C   0  0  0  0  0  0  0  0  0  0  0  0
    6.6606    0.0150   19.8913 C   0  0  0  0  0  0  0  0  0  0  0  0
    5.4370    0.6555   20.1386 C   0  0  0  0  0  0  0  0  0  0  0  0
    4.8009    1.3198   19.0914 C   0  0  0  0  0  0  0  0  0  0  0  0
    5.3877    1.3043   17.8225 C   0  0  0  0  0  0  0  0  0  0  0  0
    6.5484    0.6825   17.5589 N   0  0  0  0  0  0  0  0  0  0  0  0
    7.1610    0.0711   18.5766 C   0  0  0  0  0  0  0  0  0  0  0  0
    8.1043   -0.4215   18.3377 H   0  0  0  0  0  0  0  0  0  0  0  0
    4.9161    1.8039   16.9783 H   0  0  0  0  0  0  0  0  0  0  0  0
    3.8701    1.8497   19.2409 H   0  0  0  0  0  0  0  0  0  0  0  0
    5.0178    0.6442   21.1468 H   0  0  0  0  0  0  0  0  0  0  0  0
    6.6728   -1.5220   21.8688 C   0  0  0  0  0  0  0  0  0  0  0  0
    5.6023   -1.6652   21.7094 H   0  0  0  0  0  0  0  0  0  0  0  0
    9.3563    0.0462   20.5262 H   0  0  0  0  0  0  0  0  0  0  0  0
    9.3355   -2.4835   23.7646 H   0  0  0  0  0  0  0  0  0  0  0  0
    5.7710   -3.5508   23.3422 H   0  0  0  0  0  0  0  0  0  0  0  0
    7.2906   -3.9046   24.1603 H   0  0  0  0  0  0  0  0  0  0  0  0
    5.6970   -1.4506   24.6022 H   0  0  0  0  0  0  0  0  0  0  0  0
    7.0214   -1.9394   25.5120 H   0  0  0  0  0  0  0  0  0  0  0  0
    4.7017   -2.0736   26.9747 C   0  0  0  0  0  0  0  0  0  0  0  0
    3.7091   -2.8299   27.8921 C   0  0  0  0  0  0  0  0  0  0  0  0
    2.7792   -3.0442   27.3391 H   0  0  0  0  0  0  0  0  0  0  0  0
    3.3926   -2.2004   28.7333 H   0  0  0  0  0  0  0  0  0  0  0  0
    4.1944   -1.2552   26.4492 H   0  0  0  0  0  0  0  0  0  0  0  0
    5.5134   -1.6314   27.5696 H   0  0  0  0  0  0  0  0  0  0  0  0
    4.4794   -3.4972   25.3982 H   0  0  0  0  0  0  0  0  0  0  0  0
    7.0482   -3.7857   27.0108 H   0  0  0  0  0  0  0  0  0  0  0  0
    6.3189   -4.9710   25.9474 H   0  0  0  0  0  0  0  0  0  0  0  0
    5.6817   -5.7116   28.2319 H   0  0  0  0  0  0  0  0  0  0  0  0
    3.7828   -4.5922   29.2734 H   0  0  0  0  0  0  0  0  0  0  0  0
  1  2  2  0
  2  3  1  0
  3  4  1  0
  4  5  1  0
  5  6  1  0
  6  7  1  0
  7  8  2  0
  8  9  1  0
  9 10  2  0
 10 11  1  0
 11 12  1  0
 12 13  2  0
 13 14  1  0
 14 15  2  0
 15 16  1  0
 16 17  2  0
 17 18  1  0
 15 19  1  0
 14 20  1  0
 13 21  1  0
 11 22  2  0
 22 23  1  0
 10 24  1  0
  8 25  1  0
  6 26  1  0
  6 27  1  0
  5 28  1  0
  5 29  1  0
  4 30  1  0
 30 31  1  0
 31 32  1  0
 31 33  1  0
 30 34  1  0
 30 35  1  0
  4 36  1  6
  3 37  1  0
  3 38  1  0
  2 39  1  0
  1 40  1  0
 31  1  1  0
 22  7  1  0
 17 12  1  0
M  CHG  1   5   1
M  END
>  <plip>  (1) 
-0.07142857142857142

>  <filename>  (1) 
[H][C]1=[C]([H])[C]([H])([H])[C@]([H])([N+]([H])([H])[C]([H])([H])[c]2[c]([H])[n][c]([H])[c](-[c]3[c]([H])[n][c]([H])[c]([H])[c]3[H])[c]2[H])[C]([H])([H])[C]1([H])[H]

$$$$
