
     RDKit          3D

 48 52  0  0  0  0  0  0  0  0999 V2000
    6.1578   -2.7560   20.6930 O   0  0  0  0  0  0  0  0  0  0  0  0
    6.5672   -1.9562   21.4884 C   0  0  0  0  0  0  0  0  0  0  0  0
    6.3524   -2.1604   22.8009 O   0  0  0  0  0  0  0  0  0  0  0  0
    7.0013   -1.3310   23.7763 C   0  0  0  0  0  0  0  0  0  0  0  0
    7.0727    0.1536   23.3911 C   0  0  0  0  0  0  0  0  0  0  0  0
    7.7508    0.2888   22.1008 N   0  0  0  0  0  0  0  0  0  0  0  0
    8.5875    1.3406   21.7339 C   0  0  0  0  0  0  0  0  0  0  0  0
    9.3350    1.2281   20.7712 O   0  0  0  0  0  0  0  0  0  0  0  0
    8.4972    2.6147   22.5504 C   0  0  2  0  0  0  0  0  0  0  0  0
    9.7142    3.5076   22.6165 C   0  0  0  0  0  0  0  0  0  0  0  0
    9.2510    2.7826   23.8516 C   0  0  1  0  0  0  0  0  0  0  0  0
    8.6734    3.5984   24.9757 C   0  0  0  0  0  0  0  0  0  0  0  0
    9.4931    4.5401   25.6210 C   0  0  0  0  0  0  0  0  0  0  0  0
    9.0229    5.3238   26.6756 C   0  0  0  0  0  0  0  0  0  0  0  0
    7.7004    5.1924   27.0948 C   0  0  0  0  0  0  0  0  0  0  0  0
    7.2556    5.9921   28.1153 O   0  0  0  0  0  0  0  0  0  0  0  0
    6.0130    5.5916   28.6987 C   0  0  0  0  0  0  0  0  0  0  0  0
    5.0074    5.1616   27.6320 C   0  0  0  0  0  0  0  0  0  0  0  0
    5.5367    4.1226   26.8065 O   0  0  0  0  0  0  0  0  0  0  0  0
    6.8490    4.2741   26.4398 C   0  0  0  0  0  0  0  0  0  0  0  0
    7.3451    3.4794   25.4058 C   0  0  0  0  0  0  0  0  0  0  0  0
    6.6632    2.7902   24.9182 H   0  0  0  0  0  0  0  0  0  0  0  0
    4.7222    6.0220   27.0103 H   0  0  0  0  0  0  0  0  0  0  0  0
    4.1195    4.7306   28.0980 H   0  0  0  0  0  0  0  0  0  0  0  0
    6.1846    4.7674   29.4054 H   0  0  0  0  0  0  0  0  0  0  0  0
    5.6480    6.4705   29.2324 H   0  0  0  0  0  0  0  0  0  0  0  0
    9.6458    6.0588   27.1765 H   0  0  0  0  0  0  0  0  0  0  0  0
   10.5009    4.6834   25.2454 H   0  0  0  0  0  0  0  0  0  0  0  0
    9.8467    1.9245   24.1753 H   0  0  0  0  0  0  0  0  0  0  0  0
   10.5971    3.1597   22.0839 H   0  0  0  0  0  0  0  0  0  0  0  0
    9.5713    4.5884   22.5836 H   0  0  0  0  0  0  0  0  0  0  0  0
    7.5152    3.0842   22.4999 H   0  0  0  0  0  0  0  0  0  0  0  0
    7.3843   -0.6888   21.0378 C   0  0  0  0  0  0  0  0  0  0  0  0
    6.6562    0.0304   19.8976 C   0  0  0  0  0  0  0  0  0  0  0  0
    5.4378    0.6674   20.1412 C   0  0  0  0  0  0  0  0  0  0  0  0
    4.7997    1.3159   19.0870 C   0  0  0  0  0  0  0  0  0  0  0  0
    5.3995    1.2951   17.8226 C   0  0  0  0  0  0  0  0  0  0  0  0
    6.5651    0.6850   17.5658 N   0  0  0  0  0  0  0  0  0  0  0  0
    7.1774    0.0835   18.5991 C   0  0  0  0  0  0  0  0  0  0  0  0
    8.1297   -0.4001   18.3726 H   0  0  0  0  0  0  0  0  0  0  0  0
    4.9240    1.7924   16.9783 H   0  0  0  0  0  0  0  0  0  0  0  0
    3.8670    1.8420   19.2404 H   0  0  0  0  0  0  0  0  0  0  0  0
    4.9967    0.6436   21.1398 H   0  0  0  0  0  0  0  0  0  0  0  0
    8.3115   -1.1252   20.6425 H   0  0  0  0  0  0  0  0  0  0  0  0
    6.0499    0.5617   23.3602 H   0  0  0  0  0  0  0  0  0  0  0  0
    7.6233    0.6796   24.1757 H   0  0  0  0  0  0  0  0  0  0  0  0
    8.0108   -1.7331   23.9385 H   0  0  0  0  0  0  0  0  0  0  0  0
    6.3954   -1.4643   24.6782 H   0  0  0  0  0  0  0  0  0  0  0  0
  1  2  2  0
  2  3  1  0
  3  4  1  0
  4  5  1  0
  5  6  1  0
  6  7  1  0
  7  8  2  0
  7  9  1  0
  9 10  1  0
 10 11  1  0
 11 12  1  0
 12 13  2  0
 13 14  1  0
 14 15  2  0
 15 16  1  0
 16 17  1  0
 17 18  1  0
 18 19  1  0
 19 20  1  0
 20 21  2  0
 21 22  1  0
 18 23  1  0
 18 24  1  0
 17 25  1  0
 17 26  1  0
 14 27  1  0
 13 28  1  0
 11 29  1  1
 10 30  1  0
 10 31  1  0
  9 32  1  1
  6 33  1  0
 33 34  1  0
 34 35  2  0
 35 36  1  0
 36 37  2  0
 37 38  1  0
 38 39  2  0
 39 40  1  0
 37 41  1  0
 36 42  1  0
 35 43  1  0
 33 44  1  0
  5 45  1  0
  5 46  1  0
  4 47  1  0
  4 48  1  0
 33  2  1  0
 39 34  1  0
 11  9  1  0
 21 12  1  0
 20 15  1  0
M  END
>  <plip>  (1) 
-0.17857142857142858

>  <filename>  (1) 
[H][c]1[n][c]([H])[c]([C]2([H])[C](=[O])[O][C]([H])([H])[C]([H])([H])[N]2[C](=[O])[C@]2([H])[C]([H])([H])[C@@]2([H])[c]2[c]([H])[c]([H])[c]3[c]([c]2[H])[O][C]([H])([H])[C]([H])([H])[O]3)[c]([H])[c]1[H]

$$$$
