
     RDKit          3D

 26 26  0  0  0  0  0  0  0  0999 V2000
    9.0921    0.0206   20.4033 H   0  0  0  0  0  0  0  0  0  0  0  0
    8.7119   -0.5856   21.1319 N   0  0  0  0  0  0  0  0  0  0  0  0
    7.4591   -0.7099   20.9490 C   0  0  0  0  0  0  0  0  0  0  0  0
    6.7061    0.0433   19.9106 C   0  0  0  0  0  0  0  0  0  0  0  0
    7.2019    0.0847   18.6044 C   0  0  0  0  0  0  0  0  0  0  0  0
    8.1294   -0.4245   18.3327 H   0  0  0  0  0  0  0  0  0  0  0  0
    6.5688    0.6685   17.5843 N   0  0  0  0  0  0  0  0  0  0  0  0
    5.4042    1.2856   17.8429 C   0  0  0  0  0  0  0  0  0  0  0  0
    4.9291    1.7824   16.9968 H   0  0  0  0  0  0  0  0  0  0  0  0
    4.8184    1.3016   19.1092 C   0  0  0  0  0  0  0  0  0  0  0  0
    3.8838    1.8307   19.2525 H   0  0  0  0  0  0  0  0  0  0  0  0
    5.4649    0.6564   20.1598 C   0  0  0  0  0  0  0  0  0  0  0  0
    5.0095    0.6476   21.1509 H   0  0  0  0  0  0  0  0  0  0  0  0
    6.6538   -1.6049   21.8887 C   0  0  0  0  0  0  0  0  0  0  0  0
    6.0352   -0.9164   22.4873 H   0  0  0  0  0  0  0  0  0  0  0  0
    7.3816   -2.0437   22.5810 H   0  0  0  0  0  0  0  0  0  0  0  0
    5.8934   -2.6770   21.2140 N   0  0  0  0  0  0  0  0  0  0  0  0
    5.1501   -2.2765   20.6462 H   0  0  0  0  0  0  0  0  0  0  0  0
    5.3786   -3.7024   22.1219 C   0  0  0  0  0  0  0  0  0  0  0  0
    5.0352   -3.2991   23.0920 H   0  0  0  0  0  0  0  0  0  0  0  0
    4.5171   -4.1908   21.6571 H   0  0  0  0  0  0  0  0  0  0  0  0
    6.4339   -4.7807   22.3926 C   0  0  0  0  0  0  0  0  0  0  0  0
    7.3113   -4.3202   22.8785 H   0  0  0  0  0  0  0  0  0  0  0  0
    6.7701   -5.1875   21.4273 H   0  0  0  0  0  0  0  0  0  0  0  0
    5.8502   -5.7853   23.2142 O   0  0  0  0  0  0  0  0  0  0  0  0
    6.5099   -6.4695   23.3755 H   0  0  0  0  0  0  0  0  0  0  0  0
  1  2  1  0
  2  3  2  3
  3  4  1  0
  4  5  2  0
  5  6  1  0
  5  7  1  0
  7  8  2  0
  8  9  1  0
  8 10  1  0
 10 11  1  0
 10 12  2  0
 12 13  1  0
  3 14  1  0
 14 15  1  0
 14 16  1  0
 14 17  1  0
 17 18  1  0
 17 19  1  0
 19 20  1  0
 19 21  1  0
 19 22  1  0
 22 23  1  0
 22 24  1  0
 22 25  1  0
 25 26  1  0
 12  4  1  0
M  END
>  <plip>  (1) 
-0.06896551724137931

>  <filename>  (1) 
[H][N]=[C]([c]1[c]([H])[n][c]([H])[c]([H])[c]1[H])[C]([H])([H])[N]([H])[C]([H])([H])[C]([H])([H])[O][H]

$$$$
