
     RDKit          3D

 34 36  0  0  0  0  0  0  0  0999 V2000
    8.4159    0.3925   22.0251 C   0  0  0  0  0  0  0  0  0  0  0  0
    7.4923   -0.9052   21.2212 S   0  0  0  0  0  0  0  0  0  0  0  0
    8.4054   -1.8759   20.6240 O   0  0  0  0  0  0  0  0  0  0  0  0
    6.5226   -1.6286   22.3798 N   0  0  0  0  0  0  0  0  0  0  0  0
    5.9033   -2.7100   21.8128 C   0  0  0  0  0  0  0  0  0  0  0  0
    5.9614   -2.9400   20.6100 O   0  0  0  0  0  0  0  0  0  0  0  0
    5.0060   -3.5258   22.6687 C   0  0  0  0  0  0  0  0  0  0  0  0
    4.6984   -3.2399   23.9817 C   0  0  0  0  0  0  0  0  0  0  0  0
    3.6684   -4.0670   24.3897 N   0  0  0  0  0  0  0  0  0  0  0  0
    3.0120   -4.0211   25.6165 C   0  0  0  0  0  0  0  0  0  0  0  0
    1.9584   -4.8769   25.8655 C   0  0  0  0  0  0  0  0  0  0  0  0
    1.1084   -4.8597   27.5792 Br  0  0  0  0  0  0  0  0  0  0  0  0
    1.5085   -5.7920   24.8052 C   0  0  0  0  0  0  0  0  0  0  0  0
    2.1798   -5.8491   23.5921 C   0  0  0  0  0  0  0  0  0  0  0  0
    3.3228   -4.9462   23.3761 C   0  0  0  0  0  0  0  0  0  0  0  0
    4.1747   -4.6944   22.3279 C   0  0  0  0  0  0  0  0  0  0  0  0
    4.1965   -5.2595   21.4054 H   0  0  0  0  0  0  0  0  0  0  0  0
    1.8160   -6.4880   22.7920 H   0  0  0  0  0  0  0  0  0  0  0  0
    0.6007   -6.3658   24.9679 H   0  0  0  0  0  0  0  0  0  0  0  0
    3.3322   -3.3101   26.3667 H   0  0  0  0  0  0  0  0  0  0  0  0
    5.1227   -2.4475   24.5896 H   0  0  0  0  0  0  0  0  0  0  0  0
    6.5330   -0.0635   19.9870 C   0  0  0  0  0  0  0  0  0  0  0  0
    5.3359    0.6230   20.1990 C   0  0  0  0  0  0  0  0  0  0  0  0
    4.8126    1.2885   19.0985 C   0  0  0  0  0  0  0  0  0  0  0  0
    5.4796    1.2458   17.8725 C   0  0  0  0  0  0  0  0  0  0  0  0
    6.6228    0.5625   17.7045 N   0  0  0  0  0  0  0  0  0  0  0  0
    7.1374   -0.0864   18.7472 C   0  0  0  0  0  0  0  0  0  0  0  0
    8.0770   -0.6109   18.5997 H   0  0  0  0  0  0  0  0  0  0  0  0
    5.0600    1.7833   17.0270 H   0  0  0  0  0  0  0  0  0  0  0  0
    3.8993    1.8648   19.1712 H   0  0  0  0  0  0  0  0  0  0  0  0
    4.8254    0.6841   21.1647 H   0  0  0  0  0  0  0  0  0  0  0  0
    7.7158    1.1206   22.4321 H   0  0  0  0  0  0  0  0  0  0  0  0
    8.9987   -0.0434   22.8380 H   0  0  0  0  0  0  0  0  0  0  0  0
    9.0758    0.8705   21.3032 H   0  0  0  0  0  0  0  0  0  0  0  0
  1  2  1  0
  2  3  2  0
  2  4  2  0
  4  5  1  0
  5  6  2  0
  5  7  1  0
  7  8  2  0
  8  9  1  0
  9 10  1  0
 10 11  2  0
 11 12  1  0
 11 13  1  0
 13 14  2  0
 14 15  1  0
 15 16  2  0
 16 17  1  0
 14 18  1  0
 13 19  1  0
 10 20  1  0
  8 21  1  0
  2 22  1  0
 22 23  2  0
 23 24  1  0
 24 25  2  0
 25 26  1  0
 26 27  2  0
 27 28  1  0
 25 29  1  0
 24 30  1  0
 23 31  1  0
  1 32  1  0
  1 33  1  0
  1 34  1  0
 16  7  1  0
 27 22  1  0
 15  9  1  0
M  END
>  <plip>  (1) 
-0.03225806451612903

>  <filename>  (1) 
[H][c]1[n][c]([H])[c]([S](=[O])(=[N][C](=[O])[c]2[c]([H])[c]3[c]([H])[c]([H])[c]([Br])[c]([H])[n]3[c]2[H])[C]([H])([H])[H])[c]([H])[c]1[H]

$$$$
