
     RDKit          3D

 23 24  0  0  0  0  0  0  0  0999 V2000
    4.9233    1.7205   17.0226 H   0  0  0  0  0  0  0  0  0  0  0  0
    5.4204    1.2469   17.8676 C   0  0  0  0  0  0  0  0  0  0  0  0
    6.5700    0.6061   17.6062 N   0  0  0  0  0  0  0  0  0  0  0  0
    7.2171    0.0478   18.6394 C   0  0  0  0  0  0  0  0  0  0  0  0
    8.1318   -0.4794   18.3921 H   0  0  0  0  0  0  0  0  0  0  0  0
    6.7883    0.1115   19.9952 C   0  0  0  0  0  0  0  0  0  0  0  0
    7.5210   -0.3888   21.0868 N   0  0  0  0  0  0  0  0  0  0  0  0
    8.6838   -1.2410   20.8772 C   0  0  0  0  0  0  0  0  0  0  0  0
    9.5467   -0.6755   20.4990 H   0  0  0  0  0  0  0  0  0  0  0  0
    8.4382   -2.0536   20.1855 H   0  0  0  0  0  0  0  0  0  0  0  0
    8.8925   -1.8114   22.2723 C   0  0  0  0  0  0  0  0  0  0  0  0
    9.5477   -1.1658   22.8688 H   0  0  0  0  0  0  0  0  0  0  0  0
    9.2825   -2.8313   22.2584 H   0  0  0  0  0  0  0  0  0  0  0  0
    7.5872   -1.8561   22.8311 O   0  0  0  0  0  0  0  0  0  0  0  0
    6.8475   -0.7804   22.3090 C   0  0  1  0  0  0  0  0  0  0  0  0
    5.8146   -1.1175   22.1399 H   0  0  0  0  0  0  0  0  0  0  0  0
    6.8213    0.3554   23.2388 N   0  0  0  0  0  0  0  0  0  0  0  0
    7.7242    0.7494   23.9464 C   0  0  0  0  0  0  0  0  0  0  0  0
    8.8120    1.3611   24.9017 S   0  0  0  0  0  0  0  0  0  0  0  0
    5.5598    0.7597   20.2299 C   0  0  0  0  0  0  0  0  0  0  0  0
    5.1998    0.8439   21.2558 H   0  0  0  0  0  0  0  0  0  0  0  0
    4.8682    1.3141   19.1520 C   0  0  0  0  0  0  0  0  0  0  0  0
    3.9094    1.8014   19.2994 H   0  0  0  0  0  0  0  0  0  0  0  0
  1  2  1  0
  2  3  2  0
  3  4  1  0
  4  5  1  0
  4  6  2  0
  6  7  1  0
  7  8  1  0
  8  9  1  0
  8 10  1  0
  8 11  1  0
 11 12  1  0
 11 13  1  0
 11 14  1  0
 14 15  1  0
 15 16  1  6
 15 17  1  0
 17 18  2  0
 18 19  2  0
  6 20  1  0
 20 21  1  0
 20 22  2  0
 22 23  1  0
 22  2  1  0
 15  7  1  0
M  END
>  <plip>  (1) 
-0.03571428571428571

>  <filename>  (1) 
[H][c]1[n][c]([H])[c]([N]2[C]([H])([H])[C]([H])([H])[O][C@@]2([H])[N]=[C]=[S])[c]([H])[c]1[H]

$$$$
