
     RDKit          3D

 31 33  0  0  0  0  0  0  0  0999 V2000
    4.8856    1.8068   17.0142 H   0  0  0  0  0  0  0  0  0  0  0  0
    5.4056    1.2977   17.8221 C   0  0  0  0  0  0  0  0  0  0  0  0
    6.5661    0.6687   17.5627 N   0  0  0  0  0  0  0  0  0  0  0  0
    7.1766    0.0427   18.5871 C   0  0  0  0  0  0  0  0  0  0  0  0
    8.1257   -0.4496   18.3977 H   0  0  0  0  0  0  0  0  0  0  0  0
    6.6621    0.0172   19.8967 C   0  0  0  0  0  0  0  0  0  0  0  0
    7.3478   -0.7012   20.9673 C   0  0  0  0  0  0  0  0  0  0  0  0
    7.5925   -0.2311   22.2254 C   0  0  0  0  0  0  0  0  0  0  0  0
    7.3006    1.1126   22.7036 C   0  0  0  0  0  0  0  0  0  0  0  0
    7.6466    2.2366   21.9414 C   0  0  0  0  0  0  0  0  0  0  0  0
    8.1409    2.1114   20.9824 H   0  0  0  0  0  0  0  0  0  0  0  0
    7.3915    3.5210   22.4323 C   0  0  0  0  0  0  0  0  0  0  0  0
    7.6757    4.3929   21.8488 H   0  0  0  0  0  0  0  0  0  0  0  0
    6.7756    3.6767   23.6790 C   0  0  0  0  0  0  0  0  0  0  0  0
    6.5664    4.6690   24.0630 H   0  0  0  0  0  0  0  0  0  0  0  0
    6.4225    2.5580   24.4411 C   0  0  0  0  0  0  0  0  0  0  0  0
    5.5739    2.7704   26.1403 Br  0  0  0  0  0  0  0  0  0  0  0  0
    6.6950    1.2794   23.9508 C   0  0  0  0  0  0  0  0  0  0  0  0
    6.4260    0.4037   24.5318 H   0  0  0  0  0  0  0  0  0  0  0  0
    8.2103   -1.2836   23.0044 C   0  0  0  0  0  0  0  0  0  0  0  0
    8.5801   -1.2075   24.1666 O   0  0  0  0  0  0  0  0  0  0  0  0
    8.3929   -2.5351   22.1622 C   0  0  0  0  0  0  0  0  0  0  0  0
    7.8238   -3.3740   22.5680 H   0  0  0  0  0  0  0  0  0  0  0  0
    9.4457   -2.8230   22.0977 H   0  0  0  0  0  0  0  0  0  0  0  0
    7.8623   -2.0913   20.8005 C   0  0  0  0  0  0  0  0  0  0  0  0
    7.0758   -2.7687   20.4352 H   0  0  0  0  0  0  0  0  0  0  0  0
    8.6936   -2.0350   20.0991 H   0  0  0  0  0  0  0  0  0  0  0  0
    5.4581    0.6665   20.1639 C   0  0  0  0  0  0  0  0  0  0  0  0
    5.0208    0.6458   21.1642 H   0  0  0  0  0  0  0  0  0  0  0  0
    4.8317    1.3115   19.1002 C   0  0  0  0  0  0  0  0  0  0  0  0
    3.8915    1.8256   19.2561 H   0  0  0  0  0  0  0  0  0  0  0  0
  1  2  1  0
  2  3  2  0
  3  4  1  0
  4  5  1  0
  4  6  2  0
  6  7  1  0
  7  8  2  0
  8  9  1  0
  9 10  2  0
 10 11  1  0
 10 12  1  0
 12 13  1  0
 12 14  2  0
 14 15  1  0
 14 16  1  0
 16 17  1  0
 16 18  2  0
 18 19  1  0
  8 20  1  0
 20 21  2  0
 20 22  1  0
 22 23  1  0
 22 24  1  0
 22 25  1  0
 25 26  1  0
 25 27  1  0
  6 28  1  0
 28 29  1  0
 28 30  2  0
 30 31  1  0
 30  2  1  0
 25  7  1  0
 18  9  1  0
M  END
>  <plip>  (1) 
-0.03571428571428571

>  <filename>  (1) 
[H][c]1[n][c]([H])[c]([C]2=[C]([c]3[c]([H])[c]([H])[c]([H])[c]([Br])[c]3[H])[C](=[O])[C]([H])([H])[C]2([H])[H])[c]([H])[c]1[H]

$$$$
