
     RDKit          3D

 33 34  0  0  0  0  0  0  0  0999 V2000
    8.9548   -0.8822   25.4213 C   0  0  0  0  0  0  0  0  0  0  0  0
    8.6307   -2.3099   25.6812 C   0  0  0  0  0  0  0  0  0  0  0  0
    9.1937   -2.9957   26.6403 N   0  0  0  0  0  0  0  0  0  0  0  0
    8.6479   -4.2684   26.5561 O   0  0  0  0  0  0  0  0  0  0  0  0
    7.7704   -4.3094   25.5459 C   0  0  0  0  0  0  0  0  0  0  0  0
    7.0488   -5.5688   25.2199 C   0  0  0  0  0  0  0  0  0  0  0  0
    5.9667   -5.4120   25.2900 H   0  0  0  0  0  0  0  0  0  0  0  0
    7.2270   -5.8398   24.1725 H   0  0  0  0  0  0  0  0  0  0  0  0
    7.3337   -6.4012   25.8624 H   0  0  0  0  0  0  0  0  0  0  0  0
    7.6941   -3.0943   24.9475 C   0  0  0  0  0  0  0  0  0  0  0  0
    6.9115   -2.7154   23.7361 C   0  0  0  0  0  0  0  0  0  0  0  0
    7.6955   -2.9875   22.4531 C   0  0  0  0  0  0  0  0  0  0  0  0
    6.8277   -2.4623   20.9623 S   0  0  0  0  0  0  0  0  0  0  0  0
    7.3810   -0.7247   20.9730 C   0  0  0  0  0  0  0  0  0  0  0  0
    6.6594    0.0294   19.8976 C   0  0  0  0  0  0  0  0  0  0  0  0
    5.4371    0.6624   20.1521 C   0  0  0  0  0  0  0  0  0  0  0  0
    4.7993    1.3144   19.0958 C   0  0  0  0  0  0  0  0  0  0  0  0
    5.3965    1.2965   17.8297 C   0  0  0  0  0  0  0  0  0  0  0  0
    6.5580    0.6790   17.5627 N   0  0  0  0  0  0  0  0  0  0  0  0
    7.1619    0.0670   18.5884 C   0  0  0  0  0  0  0  0  0  0  0  0
    8.1088   -0.4196   18.3600 H   0  0  0  0  0  0  0  0  0  0  0  0
    4.9187    1.7879   16.9868 H   0  0  0  0  0  0  0  0  0  0  0  0
    3.8681    1.8458   19.2504 H   0  0  0  0  0  0  0  0  0  0  0  0
    4.9996    0.6396   21.1549 H   0  0  0  0  0  0  0  0  0  0  0  0
    8.4672   -0.7252   20.8148 H   0  0  0  0  0  0  0  0  0  0  0  0
    7.1773   -0.2808   21.9580 H   0  0  0  0  0  0  0  0  0  0  0  0
    8.6648   -2.4793   22.4936 H   0  0  0  0  0  0  0  0  0  0  0  0
    7.9217   -4.0517   22.3634 H   0  0  0  0  0  0  0  0  0  0  0  0
    6.6261   -1.6578   23.7781 H   0  0  0  0  0  0  0  0  0  0  0  0
    5.9615   -3.2596   23.6892 H   0  0  0  0  0  0  0  0  0  0  0  0
    9.7633   -0.5280   26.0595 H   0  0  0  0  0  0  0  0  0  0  0  0
    9.2411   -0.7411   24.3752 H   0  0  0  0  0  0  0  0  0  0  0  0
    8.0754   -0.2546   25.5858 H   0  0  0  0  0  0  0  0  0  0  0  0
  1  2  1  0
  2  3  2  0
  3  4  1  0
  4  5  1  0
  5  6  1  0
  6  7  1  0
  6  8  1  0
  6  9  1  0
  5 10  2  0
 10 11  1  0
 11 12  1  0
 12 13  1  0
 13 14  1  0
 14 15  1  0
 15 16  2  0
 16 17  1  0
 17 18  2  0
 18 19  1  0
 19 20  2  0
 20 21  1  0
 18 22  1  0
 17 23  1  0
 16 24  1  0
 14 25  1  0
 14 26  1  0
 12 27  1  0
 12 28  1  0
 11 29  1  0
 11 30  1  0
  1 31  1  0
  1 32  1  0
  1 33  1  0
 10  2  1  0
 20 15  1  0
M  END
>  <plip>  (1) 
-0.07142857142857142

>  <filename>  (1) 
[H][c]1[n][c]([H])[c]([C]([H])([H])[S][C]([H])([H])[C]([H])([H])[c]2[c]([C]([H])([H])[H])[n][o][c]2[C]([H])([H])[H])[c]([H])[c]1[H]

$$$$
