
     RDKit          3D

 33 35  0  0  0  0  0  0  0  0999 V2000
    7.9823    0.5436   24.1424 H   0  0  0  0  0  0  0  0  0  0  0  0
    8.1970    0.9499   23.1407 C   0  0  0  0  0  0  0  0  0  0  0  0
    8.3657    2.2812   23.0013 C   0  0  0  0  0  0  0  0  0  0  0  0
    8.3942    3.4642   24.3235 S   0  0  0  0  0  0  0  0  0  0  0  0
    8.5251    4.8363   23.1563 C   0  0  0  0  0  0  0  0  0  0  0  0
    8.7053    5.9890   23.4173 O   0  0  0  0  0  0  0  0  0  0  0  0
    8.3756    4.3422   21.8877 N   0  0  0  0  0  0  0  0  0  0  0  0
    8.6486    4.9507   21.1343 H   0  0  0  0  0  0  0  0  0  0  0  0
    8.4961    2.9812   21.7043 C   0  0  0  0  0  0  0  0  0  0  0  0
    8.6725    2.4884   20.6161 O   0  0  0  0  0  0  0  0  0  0  0  0
    8.3767    0.0582   22.0775 N   0  0  0  0  0  0  0  0  0  0  0  0
    9.6810   -0.0603   21.4115 C   0  0  0  0  0  0  0  0  0  0  0  0
   10.4284    0.4947   21.9893 H   0  0  0  0  0  0  0  0  0  0  0  0
    9.6522    0.3775   20.4021 H   0  0  0  0  0  0  0  0  0  0  0  0
   10.0483   -1.5470   21.3226 C   0  0  0  0  0  0  0  0  0  0  0  0
   10.9929   -1.6868   20.7955 H   0  0  0  0  0  0  0  0  0  0  0  0
   10.1776   -1.9896   22.3235 H   0  0  0  0  0  0  0  0  0  0  0  0
    9.0536   -2.2596   20.6052 O   0  0  0  0  0  0  0  0  0  0  0  0
    7.7638   -2.1546   21.2051 C   0  0  0  0  0  0  0  0  0  0  0  0
    7.7497   -2.6832   22.1707 H   0  0  0  0  0  0  0  0  0  0  0  0
    7.0713   -2.6597   20.5264 H   0  0  0  0  0  0  0  0  0  0  0  0
    7.2774   -0.6985   21.4573 C   0  0  2  0  0  0  0  0  0  0  0  0
    6.4603   -0.7659   22.1931 H   0  0  0  0  0  0  0  0  0  0  0  0
    6.6805   -0.0210   20.2110 C   0  0  0  0  0  0  0  0  0  0  0  0
    7.2839   -0.1099   18.9460 C   0  0  0  0  0  0  0  0  0  0  0  0
    8.1910   -0.6966   18.8090 H   0  0  0  0  0  0  0  0  0  0  0  0
    6.7905    0.4502   17.8264 N   0  0  0  0  0  0  0  0  0  0  0  0
    5.6572    1.1554   17.9436 C   0  0  0  0  0  0  0  0  0  0  0  0
    5.2658    1.5932   17.0269 H   0  0  0  0  0  0  0  0  0  0  0  0
    4.9742    1.3276   19.1523 C   0  0  0  0  0  0  0  0  0  0  0  0
    4.0710    1.9319   19.1854 H   0  0  0  0  0  0  0  0  0  0  0  0
    5.4950    0.7251   20.3009 C   0  0  0  0  0  0  0  0  0  0  0  0
    4.9843    0.8323   21.2609 H   0  0  0  0  0  0  0  0  0  0  0  0
  1  2  1  0
  2  3  2  3
  3  4  1  0
  4  5  1  0
  5  6  2  0
  5  7  1  0
  7  8  1  0
  7  9  1  0
  9 10  2  0
  2 11  1  0
 11 12  1  0
 12 13  1  0
 12 14  1  0
 12 15  1  0
 15 16  1  0
 15 17  1  0
 15 18  1  0
 18 19  1  0
 19 20  1  0
 19 21  1  0
 19 22  1  0
 22 23  1  1
 22 24  1  0
 24 25  2  0
 25 26  1  0
 25 27  1  0
 27 28  2  0
 28 29  1  0
 28 30  1  0
 30 31  1  0
 30 32  2  0
 32 33  1  0
  9  3  1  0
 22 11  1  0
 32 24  1  0
M  END
>  <plip>  (1) 
-0.10344827586206896

>  <filename>  (1) 
[H][C](=[C]1[S][C](=[O])[N]([H])[C]1=[O])[N]1[C]([H])([H])[C]([H])([H])[O][C]([H])([H])[C@]1([H])[c]1[c]([H])[n][c]([H])[c]([H])[c]1[H]

$$$$
