
     RDKit          3D

 35 37  0  0  0  0  0  0  0  0999 V2000
   13.1992    6.4610   25.3989 C   0  0  0  0  0  0  0  0  0  0  0  0
   11.7935    6.4546   25.9837 C   0  0  0  0  0  0  0  0  0  0  0  0
   11.5395    7.2283   26.8853 O   0  0  0  0  0  0  0  0  0  0  0  0
   10.7526    5.5080   25.4548 C   0  0  0  0  0  0  0  0  0  0  0  0
    9.4420    5.4842   26.0178 C   0  0  0  0  0  0  0  0  0  0  0  0
    8.5017    4.5615   25.5793 C   0  0  0  0  0  0  0  0  0  0  0  0
    8.8537    3.6359   24.5821 C   0  0  0  0  0  0  0  0  0  0  0  0
    8.0159    2.6678   24.0521 N   0  0  0  0  0  0  0  0  0  0  0  0
    8.6560    1.9788   23.1717 C   0  0  0  0  0  0  0  0  0  0  0  0
    7.9695    0.9719   22.5339 N   0  0  0  0  0  0  0  0  0  0  0  0
    8.4410    0.1537   21.5494 C   0  0  0  0  0  0  0  0  0  0  0  0
    9.5973    0.1848   21.1902 O   0  0  0  0  0  0  0  0  0  0  0  0
    7.3503   -0.7373   20.9538 C   0  0  0  0  0  0  0  0  0  0  0  0
    6.5917   -0.0319   19.8391 C   0  0  0  0  0  0  0  0  0  0  0  0
    5.4036    0.6670   20.0871 C   0  0  0  0  0  0  0  0  0  0  0  0
    4.7842    1.3425   19.0306 C   0  0  0  0  0  0  0  0  0  0  0  0
    5.3895    1.3092   17.7710 C   0  0  0  0  0  0  0  0  0  0  0  0
    6.5322    0.6547   17.5104 N   0  0  0  0  0  0  0  0  0  0  0  0
    7.1061    0.0074   18.5297 C   0  0  0  0  0  0  0  0  0  0  0  0
    8.0410   -0.5143   18.3208 H   0  0  0  0  0  0  0  0  0  0  0  0
    4.9459    1.8296   16.9254 H   0  0  0  0  0  0  0  0  0  0  0  0
    3.8579    1.8921   19.1671 H   0  0  0  0  0  0  0  0  0  0  0  0
    4.9628    0.6775   21.0870 H   0  0  0  0  0  0  0  0  0  0  0  0
    7.8393   -1.6465   20.5980 H   0  0  0  0  0  0  0  0  0  0  0  0
    6.6677   -1.0329   21.7593 H   0  0  0  0  0  0  0  0  0  0  0  0
    6.9935    0.9782   22.7677 H   0  0  0  0  0  0  0  0  0  0  0  0
   10.3294    2.3803   22.8580 S   0  0  0  0  0  0  0  0  0  0  0  0
   10.1554    3.6540   24.0384 C   0  0  0  0  0  0  0  0  0  0  0  0
   11.0898    4.5994   24.4446 C   0  0  0  0  0  0  0  0  0  0  0  0
   12.0744    4.6373   23.9874 H   0  0  0  0  0  0  0  0  0  0  0  0
    7.4876    4.5104   25.9669 H   0  0  0  0  0  0  0  0  0  0  0  0
    9.1654    6.1967   26.7921 H   0  0  0  0  0  0  0  0  0  0  0  0
   13.2455    7.1181   24.5210 H   0  0  0  0  0  0  0  0  0  0  0  0
   13.5726    5.4810   25.0964 H   0  0  0  0  0  0  0  0  0  0  0  0
   13.8584    6.8567   26.1718 H   0  0  0  0  0  0  0  0  0  0  0  0
  1  2  1  0
  2  3  2  0
  2  4  1  0
  4  5  2  0
  5  6  1  0
  6  7  2  0
  7  8  1  0
  8  9  2  0
  9 10  1  0
 10 11  1  0
 11 12  2  0
 11 13  1  0
 13 14  1  0
 14 15  2  0
 15 16  1  0
 16 17  2  0
 17 18  1  0
 18 19  2  0
 19 20  1  0
 17 21  1  0
 16 22  1  0
 15 23  1  0
 13 24  1  0
 13 25  1  0
 10 26  1  0
  9 27  1  0
 27 28  1  0
 28 29  2  0
 29 30  1  0
  6 31  1  0
  5 32  1  0
  1 33  1  0
  1 34  1  0
  1 35  1  0
 29  4  1  0
 28  7  1  0
 19 14  1  0
M  END
>  <plip>  (1) 
-0.14285714285714285

>  <filename>  (1) 
[H][c]1[n][c]([H])[c]([C]([H])([H])[C](=[O])[N]([H])[c]2[n][c]3[c]([H])[c]([H])[c]([C](=[O])[C]([H])([H])[H])[c]([H])[c]3[s]2)[c]([H])[c]1[H]

$$$$
