
     RDKit          3D

 31 33  0  0  0  0  0  0  0  0999 V2000
    4.9381    1.8169   16.9408 H   0  0  0  0  0  0  0  0  0  0  0  0
    5.4022    1.3109   17.7868 C   0  0  0  0  0  0  0  0  0  0  0  0
    6.5584    0.6740   17.5424 N   0  0  0  0  0  0  0  0  0  0  0  0
    7.1588    0.0675   18.5741 C   0  0  0  0  0  0  0  0  0  0  0  0
    8.0869   -0.4515   18.3399 H   0  0  0  0  0  0  0  0  0  0  0  0
    6.6628    0.0503   19.8900 C   0  0  0  0  0  0  0  0  0  0  0  0
    7.4081   -0.6402   20.9428 C   0  0  0  0  0  0  0  0  0  0  0  0
    8.7094   -1.0062   21.0222 C   0  0  0  0  0  0  0  0  0  0  0  0
    9.5652   -0.7855   20.4023 H   0  0  0  0  0  0  0  0  0  0  0  0
    8.8840   -1.7958   22.1403 N   0  0  0  0  0  0  0  0  0  0  0  0
   10.1746   -2.3507   22.4208 N   0  0  0  0  0  0  0  0  0  0  0  0
   10.8572   -1.6071   22.2583 H   0  0  0  0  0  0  0  0  0  0  0  0
   10.2933   -2.7225   23.8371 C   0  0  0  0  0  0  0  0  0  0  0  0
   11.2636   -3.2162   23.9608 H   0  0  0  0  0  0  0  0  0  0  0  0
    9.5240   -3.4632   24.0840 H   0  0  0  0  0  0  0  0  0  0  0  0
   10.1491   -1.5452   24.7698 C   0  0  0  0  0  0  0  0  0  0  0  0
   10.9140   -0.0179   24.4962 S   0  0  0  0  0  0  0  0  0  0  0  0
   10.4147    0.5604   26.0362 C   0  0  0  0  0  0  0  0  0  0  0  0
   10.6915    1.5468   26.3765 H   0  0  0  0  0  0  0  0  0  0  0  0
    9.6604   -0.3535   26.7054 C   0  0  0  0  0  0  0  0  0  0  0  0
    9.2727   -0.2046   27.7083 H   0  0  0  0  0  0  0  0  0  0  0  0
    9.4524   -1.5402   25.9414 C   0  0  0  0  0  0  0  0  0  0  0  0
    8.8329   -2.3823   26.2406 H   0  0  0  0  0  0  0  0  0  0  0  0
    7.6440   -1.9167   22.8211 C   0  0  0  0  0  0  0  0  0  0  0  0
    7.3155   -2.5469   23.8110 O   0  0  0  0  0  0  0  0  0  0  0  0
    6.7890   -1.1450   22.0772 N   0  0  0  0  0  0  0  0  0  0  0  0
    5.8113   -1.2155   22.3031 H   0  0  0  0  0  0  0  0  0  0  0  0
    5.4386    0.7039   20.1146 C   0  0  0  0  0  0  0  0  0  0  0  0
    5.0034    0.7273   21.1133 H   0  0  0  0  0  0  0  0  0  0  0  0
    4.8012    1.3372   19.0500 C   0  0  0  0  0  0  0  0  0  0  0  0
    3.8602    1.8577   19.1860 H   0  0  0  0  0  0  0  0  0  0  0  0
  1  2  1  0
  2  3  2  0
  3  4  1  0
  4  5  1  0
  4  6  2  0
  6  7  1  0
  7  8  2  0
  8  9  1  0
  8 10  1  0
 10 11  1  0
 11 12  1  0
 11 13  1  0
 13 14  1  0
 13 15  1  0
 13 16  1  0
 16 17  1  0
 17 18  1  0
 18 19  1  0
 18 20  2  0
 20 21  1  0
 20 22  1  0
 22 23  1  0
 10 24  1  0
 24 25  2  0
 24 26  1  0
 26 27  1  0
  6 28  1  0
 28 29  1  0
 28 30  2  0
 30 31  1  0
 30  2  1  0
 26  7  1  0
 22 16  2  0
M  END
>  <plip>  (1) 
-0.06896551724137931

>  <filename>  (1) 
[H][c]1[n][c]([H])[c](-[c]2[c]([H])[n]([N]([H])[C]([H])([H])[c]3[s][c]([H])[c]([H])[c]3[H])[c](=[O])[n]2[H])[c]([H])[c]1[H]

$$$$
