
     RDKit          3D

 42 44  0  0  0  0  0  0  0  0999 V2000
    8.9481   -5.0475   26.0103 C   0  0  0  0  0  0  0  0  0  0  0  0
    8.4713   -3.8519   25.1878 C   0  0  0  0  0  0  0  0  0  0  0  0
    8.1527   -4.2376   23.7150 C   0  0  0  0  0  0  0  0  0  0  0  0
    7.1704   -3.3112   23.1102 N   0  0  0  0  0  0  0  0  0  0  0  0
    6.9958   -3.4338   21.4408 S   0  0  0  0  0  0  0  0  0  0  0  0
    7.7545   -4.5912   21.0081 O   0  0  0  0  0  0  0  0  0  0  0  0
    5.5992   -3.2579   21.1068 O   0  0  0  0  0  0  0  0  0  0  0  0
    7.8062   -2.0968   20.9510 N   0  0  0  0  0  0  0  0  0  0  0  0
    9.2548   -2.0482   21.1265 C   0  0  0  0  0  0  0  0  0  0  0  0
    9.4575   -0.9320   22.1438 C   0  0  0  0  0  0  0  0  0  0  0  0
    8.3891    0.0818   21.7185 C   0  0  0  0  0  0  0  0  0  0  0  0
    7.1896   -0.8131   21.3091 C   0  0  0  0  0  0  0  0  0  0  0  0
    6.4297   -0.2926   20.1281 C   0  0  0  0  0  0  0  0  0  0  0  0
    5.2933    0.5205   20.2498 C   0  0  0  0  0  0  0  0  0  0  0  0
    4.8359    1.1807   19.1064 C   0  0  0  0  0  0  0  0  0  0  0  0
    5.5216    0.9954   17.9011 C   0  0  0  0  0  0  0  0  0  0  0  0
    6.5782    0.1802   17.7616 N   0  0  0  0  0  0  0  0  0  0  0  0
    7.0005   -0.4542   18.8595 C   0  0  0  0  0  0  0  0  0  0  0  0
    7.8757   -1.0991   18.7485 H   0  0  0  0  0  0  0  0  0  0  0  0
    5.2161    1.5227   17.0004 H   0  0  0  0  0  0  0  0  0  0  0  0
    3.9710    1.8377   19.1375 H   0  0  0  0  0  0  0  0  0  0  0  0
    4.7977    0.6537   21.2147 H   0  0  0  0  0  0  0  0  0  0  0  0
    6.5077   -0.9122   22.1674 H   0  0  0  0  0  0  0  0  0  0  0  0
    8.7471    0.6496   20.8495 H   0  0  0  0  0  0  0  0  0  0  0  0
    8.1319    0.8123   22.4935 H   0  0  0  0  0  0  0  0  0  0  0  0
   10.4741   -0.5272   22.1221 H   0  0  0  0  0  0  0  0  0  0  0  0
    9.2441   -1.3306   23.1437 H   0  0  0  0  0  0  0  0  0  0  0  0
    9.6958   -3.0073   21.4005 H   0  0  0  0  0  0  0  0  0  0  0  0
    9.6936   -1.7569   20.1652 H   0  0  0  0  0  0  0  0  0  0  0  0
    5.9556   -3.0271   23.9210 C   0  0  0  0  0  0  0  0  0  0  0  0
    6.1041   -3.5960   25.3484 C   0  0  0  0  0  0  0  0  0  0  0  0
    7.3674   -3.2695   25.8923 O   0  0  0  0  0  0  0  0  0  0  0  0
    5.3621   -3.1688   26.0250 H   0  0  0  0  0  0  0  0  0  0  0  0
    5.9544   -4.6884   25.3309 H   0  0  0  0  0  0  0  0  0  0  0  0
    5.0624   -3.4426   23.4389 H   0  0  0  0  0  0  0  0  0  0  0  0
    5.8208   -1.9399   24.0141 H   0  0  0  0  0  0  0  0  0  0  0  0
    7.7666   -5.2678   23.6609 H   0  0  0  0  0  0  0  0  0  0  0  0
    9.0921   -4.2138   23.1569 H   0  0  0  0  0  0  0  0  0  0  0  0
    9.2373   -3.0621   25.1591 H   0  0  0  0  0  0  0  0  0  0  0  0
    9.8459   -5.5137   25.5935 H   0  0  0  0  0  0  0  0  0  0  0  0
    8.1581   -5.8094   26.0573 H   0  0  0  0  0  0  0  0  0  0  0  0
    9.1563   -4.7251   27.0358 H   0  0  0  0  0  0  0  0  0  0  0  0
  1  2  1  0
  2  3  1  0
  3  4  1  0
  4  5  1  0
  5  6  2  0
  5  7  2  0
  5  8  1  0
  8  9  1  0
  9 10  1  0
 10 11  1  0
 11 12  1  0
 12 13  1  0
 13 14  2  0
 14 15  1  0
 15 16  2  0
 16 17  1  0
 17 18  2  0
 18 19  1  0
 16 20  1  0
 15 21  1  0
 14 22  1  0
 12 23  1  0
 11 24  1  0
 11 25  1  0
 10 26  1  0
 10 27  1  0
  9 28  1  0
  9 29  1  0
  4 30  1  0
 30 31  1  0
 31 32  1  0
 31 33  1  0
 31 34  1  0
 30 35  1  0
 30 36  1  0
  3 37  1  0
  3 38  1  0
  2 39  1  0
  1 40  1  0
  1 41  1  0
  1 42  1  0
 32  2  1  0
 12  8  1  0
 18 13  1  0
M  END
>  <plip>  (1) 
-0.034482758620689655

>  <filename>  (1) 
[H][c]1[n][c]([H])[c]([C]2([H])[N]([S](=[O])(=[O])[N]3[C]([H])([H])[C]([H])([H])[O][C]([H])([C]([H])([H])[H])[C]3([H])[H])[C]([H])([H])[C]([H])([H])[C]2([H])[H])[c]([H])[c]1[H]

$$$$
