
     RDKit          3D

 34 36  0  0  0  0  0  0  0  0999 V2000
    4.8018    1.3122   19.1025 C   0  0  0  0  0  0  0  0  0  0  0  0
    5.4088    1.2874   17.8401 C   0  0  0  0  0  0  0  0  0  0  0  0
    6.5697    0.6691   17.5842 N   0  0  0  0  0  0  0  0  0  0  0  0
    7.1780    0.0546   18.6022 C   0  0  0  0  0  0  0  0  0  0  0  0
    6.6457    0.0156   19.8997 C   0  0  0  0  0  0  0  0  0  0  0  0
    7.3444   -0.6784   20.9680 C   0  0  0  0  0  0  0  0  0  0  0  0
    6.9533   -0.7704   22.2069 N   0  0  0  0  0  0  0  0  0  0  0  0
    7.9520   -1.5173   22.7715 C   0  0  0  0  0  0  0  0  0  0  0  0
    7.9564   -1.9592   24.2143 C   0  0  0  0  0  0  0  0  0  0  0  0
    7.6067   -3.3258   24.3869 O   0  0  0  0  0  0  0  0  0  0  0  0
    6.2039   -3.5321   24.3690 C   0  0  0  0  0  0  0  0  0  0  0  0
    5.9195   -5.0185   24.3152 C   0  0  0  0  0  0  0  0  0  0  0  0
    4.4191   -5.3354   24.3893 C   0  0  0  0  0  0  0  0  0  0  0  0
    4.3769   -6.7215   25.0438 C   0  0  0  0  0  0  0  0  0  0  0  0
    5.6069   -6.8842   25.7361 O   0  0  0  0  0  0  0  0  0  0  0  0
    6.4842   -5.7917   25.5163 C   0  0  0  0  0  0  0  0  0  0  0  0
    6.5312   -5.1623   26.4206 H   0  0  0  0  0  0  0  0  0  0  0  0
    7.4979   -6.1761   25.3483 H   0  0  0  0  0  0  0  0  0  0  0  0
    3.5486   -6.8306   25.7582 H   0  0  0  0  0  0  0  0  0  0  0  0
    4.2781   -7.5229   24.2968 H   0  0  0  0  0  0  0  0  0  0  0  0
    3.9306   -5.3215   23.4110 H   0  0  0  0  0  0  0  0  0  0  0  0
    3.9010   -4.5951   25.0128 H   0  0  0  0  0  0  0  0  0  0  0  0
    6.3532   -5.4322   23.3965 H   0  0  0  0  0  0  0  0  0  0  0  0
    5.7133   -3.0045   23.5307 H   0  0  0  0  0  0  0  0  0  0  0  0
    5.7713   -3.1152   25.2941 H   0  0  0  0  0  0  0  0  0  0  0  0
    8.9588   -1.8295   24.6288 H   0  0  0  0  0  0  0  0  0  0  0  0
    7.2634   -1.3039   24.7582 H   0  0  0  0  0  0  0  0  0  0  0  0
    8.9064   -1.8577   21.9534 N   0  0  0  0  0  0  0  0  0  0  0  0
    8.5021   -1.3050   20.7423 O   0  0  0  0  0  0  0  0  0  0  0  0
    5.4251    0.6593   20.1610 C   0  0  0  0  0  0  0  0  0  0  0  0
    4.9971    0.6412   21.1692 H   0  0  0  0  0  0  0  0  0  0  0  0
    8.1245   -0.4260   18.3662 H   0  0  0  0  0  0  0  0  0  0  0  0
    4.9335    1.7788   16.9953 H   0  0  0  0  0  0  0  0  0  0  0  0
    3.8717    1.8458   19.2490 H   0  0  0  0  0  0  0  0  0  0  0  0
  1  2  2  0
  2  3  1  0
  3  4  2  0
  4  5  1  0
  5  6  1  0
  6  7  2  0
  7  8  1  0
  8  9  1  0
  9 10  1  0
 10 11  1  0
 11 12  1  0
 12 13  1  0
 13 14  1  0
 14 15  1  0
 15 16  1  0
 16 17  1  0
 16 18  1  0
 14 19  1  0
 14 20  1  0
 13 21  1  0
 13 22  1  0
 12 23  1  0
 11 24  1  0
 11 25  1  0
  9 26  1  0
  9 27  1  0
  8 28  2  0
 28 29  1  0
  5 30  2  0
 30 31  1  0
  4 32  1  0
  2 33  1  0
  1 34  1  0
 30  1  1  0
 29  6  1  0
 16 12  1  0
M  END
>  <plip>  (1) 
-0.03571428571428571

>  <filename>  (1) 
[H][c]1[n][c]([H])[c](-[c]2[n][c]([C]([H])([H])[O][C]([H])([H])[C]3([H])[C]([H])([H])[O][C]([H])([H])[C]3([H])[H])[n][o]2)[c]([H])[c]1[H]

$$$$
