
     RDKit          3D

 33 34  0  0  0  0  0  0  0  0999 V2000
    4.9190    1.7915   16.9878 H   0  0  0  0  0  0  0  0  0  0  0  0
    5.3993    1.2988   17.8293 C   0  0  0  0  0  0  0  0  0  0  0  0
    6.5582    0.6798   17.5638 N   0  0  0  0  0  0  0  0  0  0  0  0
    7.1479    0.0409   18.5861 C   0  0  0  0  0  0  0  0  0  0  0  0
    8.1075   -0.4291   18.3733 H   0  0  0  0  0  0  0  0  0  0  0  0
    6.6306   -0.0252   19.8917 C   0  0  0  0  0  0  0  0  0  0  0  0
    7.3695   -0.7426   20.9723 C   0  0  2  0  0  0  0  0  0  0  0  0
    7.2619   -1.8280   20.9502 H   0  0  0  0  0  0  0  0  0  0  0  0
    7.4835   -0.1341   22.3488 C   0  0  0  0  0  0  0  0  0  0  0  0
    7.0691    0.8676   22.4740 H   0  0  0  0  0  0  0  0  0  0  0  0
    7.3894   -0.7716   23.2271 H   0  0  0  0  0  0  0  0  0  0  0  0
    8.6951   -0.2231   21.4627 C   0  0  2  0  0  0  0  0  0  0  0  0
    9.4351   -0.9792   21.7216 H   0  0  0  0  0  0  0  0  0  0  0  0
    9.2893    1.0443   20.8805 C   0  0  0  0  0  0  0  0  0  0  0  0
    9.6301    0.8314   19.8644 H   0  0  0  0  0  0  0  0  0  0  0  0
    8.4917    1.7904   20.7626 H   0  0  0  0  0  0  0  0  0  0  0  0
   10.4375    1.6219   21.7045 C   0  0  0  0  0  0  0  0  0  0  0  0
   11.2179    0.8520   21.7799 H   0  0  0  0  0  0  0  0  0  0  0  0
   10.8973    2.4630   21.1663 H   0  0  0  0  0  0  0  0  0  0  0  0
   10.0678    2.0959   23.1196 C   0  0  0  0  0  0  0  0  0  0  0  0
    9.5143    1.2904   23.6214 H   0  0  0  0  0  0  0  0  0  0  0  0
    9.1714    3.3403   23.1055 C   0  0  0  0  0  0  0  0  0  0  0  0
    8.9723    3.6970   24.1224 H   0  0  0  0  0  0  0  0  0  0  0  0
    8.2039    3.1538   22.6274 H   0  0  0  0  0  0  0  0  0  0  0  0
    9.6524    4.1612   22.5600 H   0  0  0  0  0  0  0  0  0  0  0  0
   11.3354    2.3555   23.9367 C   0  0  0  0  0  0  0  0  0  0  0  0
   11.9363    3.1580   23.4902 H   0  0  0  0  0  0  0  0  0  0  0  0
   11.0770    2.6569   24.9529 H   0  0  0  0  0  0  0  0  0  0  0  0
   11.9651    1.4615   24.0084 H   0  0  0  0  0  0  0  0  0  0  0  0
    5.4251    0.6378   20.1413 C   0  0  0  0  0  0  0  0  0  0  0  0
    5.0221    0.6209   21.1556 H   0  0  0  0  0  0  0  0  0  0  0  0
    4.7992    1.3128   19.0934 C   0  0  0  0  0  0  0  0  0  0  0  0
    3.8746    1.8478   19.2526 H   0  0  0  0  0  0  0  0  0  0  0  0
  1  2  1  0
  2  3  2  0
  3  4  1  0
  4  5  1  0
  4  6  2  0
  6  7  1  0
  7  8  1  1
  7  9  1  0
  9 10  1  0
  9 11  1  0
  9 12  1  0
 12 13  1  1
 12 14  1  0
 14 15  1  0
 14 16  1  0
 14 17  1  0
 17 18  1  0
 17 19  1  0
 17 20  1  0
 20 21  1  0
 20 22  1  0
 22 23  1  0
 22 24  1  0
 22 25  1  0
 20 26  1  0
 26 27  1  0
 26 28  1  0
 26 29  1  0
  6 30  1  0
 30 31  1  0
 30 32  2  0
 32 33  1  0
 32  2  1  0
 12  7  1  0
M  END
>  <plip>  (1) 
-0.03571428571428571

>  <filename>  (1) 
[H][c]1[n][c]([H])[c]([C@]2([H])[C]([H])([H])[C@]2([H])[C]([H])([H])[C]([H])([H])[C]([H])([C]([H])([H])[H])[C]([H])([H])[H])[c]([H])[c]1[H]

$$$$
