
     RDKit          3D

 33 35  0  0  0  0  0  0  0  0999 V2000
    8.7194   -0.5886   21.1113 C   0  0  0  0  0  0  0  0  0  0  0  0
    7.3889   -0.6901   20.9762 C   0  0  0  0  0  0  0  0  0  0  0  0
    6.6450    0.0167   19.8919 C   0  0  0  0  0  0  0  0  0  0  0  0
    5.4193    0.6689   20.1173 C   0  0  0  0  0  0  0  0  0  0  0  0
    4.7802    1.3271   19.0635 C   0  0  0  0  0  0  0  0  0  0  0  0
    5.3808    1.3115   17.8019 C   0  0  0  0  0  0  0  0  0  0  0  0
    6.5425    0.6853   17.5551 N   0  0  0  0  0  0  0  0  0  0  0  0
    7.1534    0.0753   18.5761 C   0  0  0  0  0  0  0  0  0  0  0  0
    8.1001   -0.4090   18.3326 H   0  0  0  0  0  0  0  0  0  0  0  0
    4.9267    1.8291   16.9562 H   0  0  0  0  0  0  0  0  0  0  0  0
    3.8491    1.8675   19.2052 H   0  0  0  0  0  0  0  0  0  0  0  0
    4.9767    0.6735   21.1131 H   0  0  0  0  0  0  0  0  0  0  0  0
    6.5585   -1.4989   21.9562 C   0  0  0  0  0  0  0  0  0  0  0  0
    7.4322   -2.5923   22.6830 N   0  0  0  0  0  4  0  0  0  0  0  0
    6.6384   -3.3642   23.7052 C   0  0  0  0  0  0  0  0  0  0  0  0
    5.5472   -4.1743   23.0736 C   0  0  0  0  0  0  0  0  0  0  0  0
    5.7528   -5.2350   22.3527 N   0  0  0  0  0  0  0  0  0  0  0  0
    4.5228   -5.6419   21.9428 O   0  0  0  0  0  0  0  0  0  0  0  0
    3.5481   -4.8269   22.4022 N   0  0  0  0  0  0  0  0  0  0  0  0
    4.1573   -3.9181   23.1057 C   0  0  0  0  0  0  0  0  0  0  0  0
    3.6369   -3.1100   23.6006 H   0  0  0  0  0  0  0  0  0  0  0  0
    6.1884   -2.6669   24.4243 H   0  0  0  0  0  0  0  0  0  0  0  0
    7.2968   -4.0299   24.2713 H   0  0  0  0  0  0  0  0  0  0  0  0
    8.6710   -1.9244   23.2543 C   0  0  0  0  0  0  0  0  0  0  0  0
    9.5311   -1.3621   22.1278 C   0  0  0  0  0  0  0  0  0  0  0  0
   10.0879   -2.1723   21.6347 H   0  0  0  0  0  0  0  0  0  0  0  0
   10.2955   -0.7083   22.5615 H   0  0  0  0  0  0  0  0  0  0  0  0
    9.2423   -2.6287   23.8699 H   0  0  0  0  0  0  0  0  0  0  0  0
    8.3384   -1.1156   23.9160 H   0  0  0  0  0  0  0  0  0  0  0  0
    7.7241   -3.2567   21.9146 H   0  0  0  0  0  0  0  0  0  0  0  0
    6.1247   -0.8489   22.7288 H   0  0  0  0  0  0  0  0  0  0  0  0
    5.7284   -1.9761   21.4315 H   0  0  0  0  0  0  0  0  0  0  0  0
    9.2677    0.0833   20.4510 H   0  0  0  0  0  0  0  0  0  0  0  0
  1  2  2  0
  2  3  1  0
  3  4  2  0
  4  5  1  0
  5  6  2  0
  6  7  1  0
  7  8  2  0
  8  9  1  0
  6 10  1  0
  5 11  1  0
  4 12  1  0
  2 13  1  0
 13 14  1  0
 14 15  1  0
 15 16  1  0
 16 17  2  0
 17 18  1  0
 18 19  1  0
 19 20  2  0
 20 21  1  0
 15 22  1  0
 15 23  1  0
 14 24  1  0
 24 25  1  0
 25 26  1  0
 25 27  1  0
 24 28  1  0
 24 29  1  0
 14 30  1  0
 13 31  1  0
 13 32  1  0
  1 33  1  0
 25  1  1  0
  8  3  1  0
 20 16  1  0
M  CHG  1  14   1
M  END
>  <plip>  (1) 
-0.03571428571428571

>  <filename>  (1) 
[H][C]1=[C]([c]2[c]([H])[n][c]([H])[c]([H])[c]2[H])[C]([H])([H])[N+]([H])([C]([H])([H])[c]2[n][o][n][c]2[H])[C]([H])([H])[C]1([H])[H]

$$$$
