
     RDKit          3D

 34 36  0  0  0  0  0  0  0  0999 V2000
    5.9328   -2.1695   21.5591 O   0  0  0  0  0  0  0  0  0  0  0  0
    6.9358   -1.5338   21.8098 C   0  0  0  0  0  0  0  0  0  0  0  0
    7.7446   -1.7792   23.0768 C   0  0  0  0  0  0  0  0  0  0  0  0
    7.8044   -0.5857   23.9707 C   0  0  0  0  0  0  0  0  0  0  0  0
    8.6976    0.3741   23.7655 N   0  0  0  0  0  0  0  0  0  0  0  0
    8.4795    1.2582   24.7414 N   0  0  0  0  0  0  0  0  0  0  0  0
    9.2095    2.4893   24.8305 C   0  0  0  0  0  0  0  0  0  0  0  0
    8.7538    3.5179   25.6729 C   0  0  0  0  0  0  0  0  0  0  0  0
    9.3592    4.7729   25.6266 C   0  0  0  0  0  0  0  0  0  0  0  0
   10.4413    5.0086   24.7756 C   0  0  0  0  0  0  0  0  0  0  0  0
   10.9519    3.9607   24.0038 C   0  0  0  0  0  0  0  0  0  0  0  0
   10.3523    2.6988   24.0399 C   0  0  0  0  0  0  0  0  0  0  0  0
   10.7585    1.8777   23.4573 H   0  0  0  0  0  0  0  0  0  0  0  0
   11.8147    4.1244   23.3650 H   0  0  0  0  0  0  0  0  0  0  0  0
   10.8915    5.9961   24.7288 H   0  0  0  0  0  0  0  0  0  0  0  0
    8.9820    5.5616   26.2666 H   0  0  0  0  0  0  0  0  0  0  0  0
    7.9208    3.3261   26.3386 H   0  0  0  0  0  0  0  0  0  0  0  0
    7.4573    0.9590   25.5351 N   0  0  0  0  0  0  0  0  0  0  0  0
    7.0203   -0.2044   25.0728 C   0  0  0  0  0  0  0  0  0  0  0  0
    6.1613   -0.6996   25.4933 H   0  0  0  0  0  0  0  0  0  0  0  0
    8.7732   -2.0418   22.8015 H   0  0  0  0  0  0  0  0  0  0  0  0
    7.2643   -2.6246   23.5690 H   0  0  0  0  0  0  0  0  0  0  0  0
    7.4792   -0.5856   20.9743 N   0  0  0  0  0  0  0  0  0  0  0  0
    6.7611   -0.0044   19.8768 C   0  0  0  0  0  0  0  0  0  0  0  0
    5.5216    0.5987   20.1072 C   0  0  0  0  0  0  0  0  0  0  0  0
    4.8872    1.2633   19.0514 C   0  0  0  0  0  0  0  0  0  0  0  0
    5.5013    1.2716   17.7940 C   0  0  0  0  0  0  0  0  0  0  0  0
    6.6707    0.6577   17.5429 N   0  0  0  0  0  0  0  0  0  0  0  0
    7.2845    0.0437   18.5670 C   0  0  0  0  0  0  0  0  0  0  0  0
    8.2408   -0.4333   18.3585 H   0  0  0  0  0  0  0  0  0  0  0  0
    5.0367    1.7869   16.9553 H   0  0  0  0  0  0  0  0  0  0  0  0
    3.9472    1.7841   19.1970 H   0  0  0  0  0  0  0  0  0  0  0  0
    5.0846    0.5392   21.1053 H   0  0  0  0  0  0  0  0  0  0  0  0
    8.1219    0.0363   21.4521 H   0  0  0  0  0  0  0  0  0  0  0  0
  1  2  2  0
  2  3  1  0
  3  4  1  0
  4  5  2  0
  5  6  1  0
  6  7  1  0
  7  8  2  0
  8  9  1  0
  9 10  2  0
 10 11  1  0
 11 12  2  0
 12 13  1  0
 11 14  1  0
 10 15  1  0
  9 16  1  0
  8 17  1  0
  6 18  1  0
 18 19  2  0
 19 20  1  0
  3 21  1  0
  3 22  1  0
  2 23  1  0
 23 24  1  0
 24 25  2  0
 25 26  1  0
 26 27  2  0
 27 28  1  0
 28 29  2  0
 29 30  1  0
 27 31  1  0
 26 32  1  0
 25 33  1  0
 23 34  1  0
 19  4  1  0
 29 24  1  0
 12  7  1  0
M  END
>  <plip>  (1) 
-0.10714285714285714

>  <filename>  (1) 
[H][c]1[n][n](-[c]2[c]([H])[c]([H])[c]([H])[c]([H])[c]2[H])[n][c]1[C]([H])([H])[C](=[O])[N]([H])[c]1[c]([H])[n][c]([H])[c]([H])[c]1[H]

$$$$
