
     RDKit          3D

 36 37  0  0  0  0  0  0  0  0999 V2000
    5.6858   -2.7086   25.2050 C   0  0  0  0  0  0  0  0  0  0  0  0
    7.1881   -2.8957   25.4502 C   0  0  0  0  0  0  0  0  0  0  0  0
    7.7234   -4.1800   24.9035 C   0  0  0  0  0  0  0  0  0  0  0  0
    7.6812   -4.6996   23.6473 C   0  0  0  0  0  0  0  0  0  0  0  0
    7.1427   -4.1992   22.3982 C   0  0  0  0  0  0  0  0  0  0  0  0
    6.6158   -4.9117   21.5534 O   0  0  0  0  0  0  0  0  0  0  0  0
    7.3174   -2.8718   22.2155 N   0  0  0  0  0  0  0  0  0  0  0  0
    6.7123   -2.1614   21.1140 C   0  0  0  0  0  0  0  0  0  0  0  0
    7.3375   -0.7766   20.9990 C   0  0  0  0  0  0  0  0  0  0  0  0
    6.6949    0.0207   19.9017 C   0  0  0  0  0  0  0  0  0  0  0  0
    5.4737    0.6643   20.1342 C   0  0  0  0  0  0  0  0  0  0  0  0
    4.8453    1.3113   19.0727 C   0  0  0  0  0  0  0  0  0  0  0  0
    5.4655    1.2922   17.8174 C   0  0  0  0  0  0  0  0  0  0  0  0
    6.6325    0.6765   17.5717 N   0  0  0  0  0  0  0  0  0  0  0  0
    7.2242    0.0609   18.6038 C   0  0  0  0  0  0  0  0  0  0  0  0
    8.1694   -0.4456   18.3960 H   0  0  0  0  0  0  0  0  0  0  0  0
    5.0011    1.7871   16.9687 H   0  0  0  0  0  0  0  0  0  0  0  0
    3.9032    1.8307   19.2092 H   0  0  0  0  0  0  0  0  0  0  0  0
    5.0414    0.6432   21.1384 H   0  0  0  0  0  0  0  0  0  0  0  0
    7.2010   -0.2511   21.9534 H   0  0  0  0  0  0  0  0  0  0  0  0
    8.4171   -0.8700   20.8271 H   0  0  0  0  0  0  0  0  0  0  0  0
    5.6243   -2.0807   21.2613 H   0  0  0  0  0  0  0  0  0  0  0  0
    6.8300   -2.7332   20.1852 H   0  0  0  0  0  0  0  0  0  0  0  0
    7.9177   -2.3994   22.8672 H   0  0  0  0  0  0  0  0  0  0  0  0
    8.3262   -5.9507   23.7547 C   0  0  0  0  0  0  0  0  0  0  0  0
    8.5504   -6.8607   22.6038 C   0  0  0  0  0  0  0  0  0  0  0  0
    7.5921   -7.2327   22.2366 H   0  0  0  0  0  0  0  0  0  0  0  0
    9.2136   -7.6970   22.8227 H   0  0  0  0  0  0  0  0  0  0  0  0
    8.9748   -6.2710   21.7877 H   0  0  0  0  0  0  0  0  0  0  0  0
    8.7447   -6.1597   24.9709 N   0  0  0  0  0  0  0  0  0  0  0  0
    8.3591   -5.0445   25.7017 O   0  0  0  0  0  0  0  0  0  0  0  0
    7.4167   -2.8218   26.5136 H   0  0  0  0  0  0  0  0  0  0  0  0
    7.7426   -2.0842   24.9602 H   0  0  0  0  0  0  0  0  0  0  0  0
    5.3538   -1.7310   25.5671 H   0  0  0  0  0  0  0  0  0  0  0  0
    5.4466   -2.7697   24.1406 H   0  0  0  0  0  0  0  0  0  0  0  0
    5.1029   -3.4795   25.7203 H   0  0  0  0  0  0  0  0  0  0  0  0
  1  2  1  0
  2  3  1  0
  3  4  2  0
  4  5  1  0
  5  6  2  0
  5  7  1  0
  7  8  1  0
  8  9  1  0
  9 10  1  0
 10 11  2  0
 11 12  1  0
 12 13  2  0
 13 14  1  0
 14 15  2  0
 15 16  1  0
 13 17  1  0
 12 18  1  0
 11 19  1  0
  9 20  1  0
  9 21  1  0
  8 22  1  0
  8 23  1  0
  7 24  1  0
  4 25  1  0
 25 26  1  0
 26 27  1  0
 26 28  1  0
 26 29  1  0
 25 30  2  0
 30 31  1  0
  2 32  1  0
  2 33  1  0
  1 34  1  0
  1 35  1  0
  1 36  1  0
 31  3  1  0
 15 10  1  0
M  END
>  <plip>  (1) 
-0.13333333333333333

>  <filename>  (1) 
[H][c]1[n][c]([H])[c]([C]([H])([H])[C]([H])([H])[N]([H])[C](=[O])[c]2[c]([C]([H])([H])[H])[n][o][c]2[C]([H])([H])[C]([H])([H])[H])[c]([H])[c]1[H]

$$$$
