
     RDKit          3D

 37 39  0  0  0  0  0  0  0  0999 V2000
    8.0033    2.1066   21.9699 O   0  0  0  0  0  0  0  0  0  0  0  0
    8.8663    1.2492   21.8165 C   0  0  0  0  0  0  0  0  0  0  0  0
    8.5846   -0.0011   21.3879 N   0  0  0  0  0  0  0  0  0  0  0  0
    7.2197   -0.4597   21.2499 C   0  0  2  0  0  0  0  0  0  0  0  0
    7.2731   -1.9742   21.1186 C   0  0  0  0  0  0  0  0  0  0  0  0
    5.9004   -2.5966   20.9394 C   0  0  0  0  0  0  0  0  0  0  0  0
    5.9793   -3.9821   20.7010 O   0  0  0  0  0  0  0  0  0  0  0  0
    6.5911   -4.0925   19.9593 H   0  0  0  0  0  0  0  0  0  0  0  0
    5.3133   -2.4747   21.8595 H   0  0  0  0  0  0  0  0  0  0  0  0
    5.3732   -2.0876   20.1179 H   0  0  0  0  0  0  0  0  0  0  0  0
    7.7560   -2.4048   22.0033 H   0  0  0  0  0  0  0  0  0  0  0  0
    7.9172   -2.1920   20.2603 H   0  0  0  0  0  0  0  0  0  0  0  0
    6.5413    0.2188   20.0701 C   0  0  0  0  0  0  0  0  0  0  0  0
    5.2963    0.8590   20.1777 C   0  0  0  0  0  0  0  0  0  0  0  0
    4.7182    1.4049   19.0275 C   0  0  0  0  0  0  0  0  0  0  0  0
    5.4123    1.2977   17.8175 C   0  0  0  0  0  0  0  0  0  0  0  0
    6.5988    0.6861   17.6897 N   0  0  0  0  0  0  0  0  0  0  0  0
    7.1422    0.1750   18.8038 C   0  0  0  0  0  0  0  0  0  0  0  0
    8.1150   -0.3034   18.6741 H   0  0  0  0  0  0  0  0  0  0  0  0
    4.9977    1.7109   16.9025 H   0  0  0  0  0  0  0  0  0  0  0  0
    3.7652    1.9220   19.0582 H   0  0  0  0  0  0  0  0  0  0  0  0
    4.8057    0.9438   21.1508 H   0  0  0  0  0  0  0  0  0  0  0  0
    6.6543   -0.1949   22.1605 H   0  0  0  0  0  0  0  0  0  0  0  0
    9.3667   -0.6353   21.3127 H   0  0  0  0  0  0  0  0  0  0  0  0
   10.3007    1.5123   22.0848 C   0  0  0  0  0  0  0  0  0  0  0  0
   10.8244    2.7496   22.4632 C   0  0  0  0  0  0  0  0  0  0  0  0
   10.2909    4.0255   22.7499 C   0  0  0  0  0  0  0  0  0  0  0  0
   11.1709    5.0742   22.9330 C   0  0  0  0  0  0  0  0  0  0  0  0
   12.5851    4.8481   22.8519 C   0  0  0  0  0  0  0  0  0  0  0  0
   13.0784    3.5871   22.6171 C   0  0  0  0  0  0  0  0  0  0  0  0
   12.1798    2.5484   22.4426 N   0  0  0  0  0  0  0  0  0  0  0  0
   12.4620    1.2533   22.1394 N   0  0  0  0  0  0  0  0  0  0  0  0
   11.3353    0.6480   21.9248 N   0  0  0  0  0  0  0  0  0  0  0  0
   14.1212    3.3110   22.5123 H   0  0  0  0  0  0  0  0  0  0  0  0
   13.2760    5.6813   22.9372 H   0  0  0  0  0  0  0  0  0  0  0  0
   10.7895    6.0767   23.1219 H   0  0  0  0  0  0  0  0  0  0  0  0
    9.2131    4.1044   22.7408 H   0  0  0  0  0  0  0  0  0  0  0  0
  1  2  2  0
  2  3  1  0
  3  4  1  0
  4  5  1  0
  5  6  1  0
  6  7  1  0
  7  8  1  0
  6  9  1  0
  6 10  1  0
  5 11  1  0
  5 12  1  0
  4 13  1  0
 13 14  2  0
 14 15  1  0
 15 16  2  0
 16 17  1  0
 17 18  2  0
 18 19  1  0
 16 20  1  0
 15 21  1  0
 14 22  1  0
  4 23  1  1
  3 24  1  0
  2 25  1  0
 25 26  2  0
 26 27  1  0
 27 28  2  0
 28 29  1  0
 29 30  2  0
 30 31  1  0
 31 32  1  0
 32 33  2  0
 30 34  1  0
 29 35  1  0
 28 36  1  0
 27 37  1  0
 18 13  1  0
 33 25  1  0
 31 26  1  0
M  END
>  <plip>  (1) 
-0.13793103448275862

>  <filename>  (1) 
[H][O][C]([H])([H])[C]([H])([H])[C@]([H])([c]1[c]([H])[n][c]([H])[c]([H])[c]1[H])[N]([H])[C](=[O])[c]1[n][n][n]2[c]([H])[c]([H])[c]([H])[c]([H])[c]12

$$$$
