
     RDKit          3D

 47 50  0  0  0  0  0  0  0  0999 V2000
   14.2923    3.9377   22.4725 C   0  0  0  0  0  0  0  0  0  0  0  0
   12.8179    4.0074   22.6673 C   0  0  0  0  0  0  0  0  0  0  0  0
   12.1476    5.1670   22.9967 C   0  0  0  0  0  0  0  0  0  0  0  0
   10.7304    5.1858   23.0808 C   0  0  0  0  0  0  0  0  0  0  0  0
    9.9964    4.0452   22.8124 C   0  0  0  0  0  0  0  0  0  0  0  0
   10.6881    2.8635   22.4560 C   0  0  0  0  0  0  0  0  0  0  0  0
   10.2948    1.5461   22.1514 C   0  0  0  0  0  0  0  0  0  0  0  0
    8.9008    1.1535   22.0387 C   0  0  0  0  0  0  0  0  0  0  0  0
    7.9948    1.8985   22.3933 O   0  0  0  0  0  0  0  0  0  0  0  0
    8.6346   -0.0705   21.5106 N   0  0  0  0  0  0  0  0  0  0  0  0
    7.2527   -0.4705   21.3179 C   0  0  0  0  0  0  0  0  0  0  0  0
    7.0837   -1.9797   21.1719 C   0  0  0  0  0  0  0  0  0  0  0  0
    7.7433   -2.8656   22.2322 C   0  0  0  0  0  0  0  0  0  0  0  0
    7.6329   -4.3303   21.8651 C   0  0  0  0  0  0  0  0  0  0  0  0
    7.6532   -5.4119   22.9053 C   0  0  0  0  0  0  0  0  0  0  0  0
    6.3715   -5.0787   22.1868 C   0  0  0  0  0  0  0  0  0  0  0  0
    5.9661   -5.7799   21.4621 H   0  0  0  0  0  0  0  0  0  0  0  0
    5.6148   -4.5391   22.7556 H   0  0  0  0  0  0  0  0  0  0  0  0
    7.7466   -5.1231   23.9512 H   0  0  0  0  0  0  0  0  0  0  0  0
    8.1526   -6.3477   22.6632 H   0  0  0  0  0  0  0  0  0  0  0  0
    8.1198   -4.5838   20.9229 H   0  0  0  0  0  0  0  0  0  0  0  0
    8.8017   -2.6012   22.3410 H   0  0  0  0  0  0  0  0  0  0  0  0
    7.2835   -2.6904   23.2168 H   0  0  0  0  0  0  0  0  0  0  0  0
    6.0063   -2.1792   21.1514 H   0  0  0  0  0  0  0  0  0  0  0  0
    7.4512   -2.2526   20.1793 H   0  0  0  0  0  0  0  0  0  0  0  0
    6.6597    0.2411   20.1151 C   0  0  0  0  0  0  0  0  0  0  0  0
    5.4119    0.8678   20.1922 C   0  0  0  0  0  0  0  0  0  0  0  0
    4.8407    1.3858   19.0290 C   0  0  0  0  0  0  0  0  0  0  0  0
    5.5447    1.2604   17.8278 C   0  0  0  0  0  0  0  0  0  0  0  0
    6.7591    0.6983   17.7381 N   0  0  0  0  0  0  0  0  0  0  0  0
    7.3048    0.2268   18.8690 C   0  0  0  0  0  0  0  0  0  0  0  0
    8.3060   -0.1953   18.7602 H   0  0  0  0  0  0  0  0  0  0  0  0
    5.1130    1.6233   16.8965 H   0  0  0  0  0  0  0  0  0  0  0  0
    3.8819    1.8894   19.0446 H   0  0  0  0  0  0  0  0  0  0  0  0
    4.9085    0.9491   21.1582 H   0  0  0  0  0  0  0  0  0  0  0  0
    6.6970   -0.1281   22.2012 H   0  0  0  0  0  0  0  0  0  0  0  0
    9.3977   -0.6899   21.3070 H   0  0  0  0  0  0  0  0  0  0  0  0
   11.5042    0.8342   22.0468 C   0  0  0  0  0  0  0  0  0  0  0  0
   12.5639    1.6073   22.2184 N   0  0  0  0  0  0  0  0  0  0  0  0
   12.0683    2.8567   22.4424 N   0  0  0  0  0  0  0  0  0  0  0  0
   11.6815   -0.2232   21.8839 H   0  0  0  0  0  0  0  0  0  0  0  0
    8.9205    3.9982   22.8437 H   0  0  0  0  0  0  0  0  0  0  0  0
   10.2201    6.1076   23.3507 H   0  0  0  0  0  0  0  0  0  0  0  0
   12.7247    6.0684   23.1911 H   0  0  0  0  0  0  0  0  0  0  0  0
   14.5444    4.3354   21.4852 H   0  0  0  0  0  0  0  0  0  0  0  0
   14.6567    2.9118   22.5352 H   0  0  0  0  0  0  0  0  0  0  0  0
   14.7993    4.5652   23.2068 H   0  0  0  0  0  0  0  0  0  0  0  0
  1  2  1  0
  2  3  2  0
  3  4  1  0
  4  5  2  0
  5  6  1  0
  6  7  2  0
  7  8  1  0
  8  9  2  0
  8 10  1  0
 10 11  1  0
 11 12  1  0
 12 13  1  0
 13 14  1  0
 14 15  1  0
 15 16  1  0
 16 17  1  0
 16 18  1  0
 15 19  1  0
 15 20  1  0
 14 21  1  0
 13 22  1  0
 13 23  1  0
 12 24  1  0
 12 25  1  0
 11 26  1  0
 26 27  2  0
 27 28  1  0
 28 29  2  0
 29 30  1  0
 30 31  2  0
 31 32  1  0
 29 33  1  0
 28 34  1  0
 27 35  1  0
 11 36  1  0
 10 37  1  0
  7 38  1  0
 38 39  2  0
 39 40  1  0
 38 41  1  0
  5 42  1  0
  4 43  1  0
  3 44  1  0
  1 45  1  0
  1 46  1  0
  1 47  1  0
 40  2  1  0
 40  6  1  0
 16 14  1  0
 31 26  1  0
M  END
>  <plip>  (1) 
-0.06896551724137931

>  <filename>  (1) 
[H][c]1[n][c]([H])[c]([C]([H])([N]([H])[C](=[O])[c]2[c]([H])[n][n]3[c]([C]([H])([H])[H])[c]([H])[c]([H])[c]([H])[c]23)[C]([H])([H])[C]([H])([H])[C]2([H])[C]([H])([H])[C]2([H])[H])[c]([H])[c]1[H]

$$$$
