
     RDKit          3D

 27 27  0  0  0  0  0  0  0  0999 V2000
    6.6451    5.9652   26.1361 H   0  0  0  0  0  0  0  0  0  0  0  0
    6.6604    5.1577   25.5962 O   0  0  0  0  0  0  0  0  0  0  0  0
    7.1002    4.3028   26.5420 C   0  0  0  0  0  0  0  0  0  0  0  0
    7.3552    4.7372   27.6367 O   0  0  0  0  0  0  0  0  0  0  0  0
    7.2180    2.8441   26.0432 C   0  0  0  0  0  0  0  0  0  0  0  0
    7.4760    1.9331   26.9691 O   0  0  0  0  0  0  0  0  0  0  0  0
    7.4667    1.0461   26.5248 H   0  0  0  0  0  0  0  0  0  0  0  0
    7.0894    2.5141   24.7235 C   0  0  0  0  0  0  0  0  0  0  0  0
    6.8512    3.2746   23.9939 H   0  0  0  0  0  0  0  0  0  0  0  0
    7.2531    1.1520   24.2438 C   0  0  0  0  0  0  0  0  0  0  0  0
    7.3048    0.1895   25.0185 O   0  0  0  0  0  0  0  0  0  0  0  0
    7.3697    0.9473   22.6699 C   0  0  0  0  0  0  0  0  0  0  0  0
    7.6651    1.8573   21.9130 O   0  0  0  0  0  0  0  0  0  0  0  0
    7.1173   -0.3425   22.2657 N   0  0  0  0  0  0  0  0  0  0  0  0
    6.6701   -0.9849   22.9067 H   0  0  0  0  0  0  0  0  0  0  0  0
    7.2380   -0.8064   20.9572 N   0  0  0  0  0  0  0  0  0  0  0  0
    8.2028   -1.0458   20.7183 H   0  0  0  0  0  0  0  0  0  0  0  0
    6.5891   -0.0759   19.9354 C   0  0  0  0  0  0  0  0  0  0  0  0
    7.1527   -0.0184   18.6429 C   0  0  0  0  0  0  0  0  0  0  0  0
    8.0983   -0.5283   18.4358 H   0  0  0  0  0  0  0  0  0  0  0  0
    6.6054    0.6313   17.6089 N   0  0  0  0  0  0  0  0  0  0  0  0
    5.4436    1.2743   17.8183 C   0  0  0  0  0  0  0  0  0  0  0  0
    5.0102    1.7943   16.9660 H   0  0  0  0  0  0  0  0  0  0  0  0
    4.7927    1.2671   19.0540 C   0  0  0  0  0  0  0  0  0  0  0  0
    3.8608    1.8028   19.1804 H   0  0  0  0  0  0  0  0  0  0  0  0
    5.3629    0.5766   20.1237 C   0  0  0  0  0  0  0  0  0  0  0  0
    4.8913    0.5573   21.1032 H   0  0  0  0  0  0  0  0  0  0  0  0
  1  2  1  0
  2  3  1  0
  3  4  2  0
  3  5  1  0
  5  6  1  0
  6  7  1  0
  5  8  2  3
  8  9  1  0
  8 10  1  0
 10 11  2  0
 10 12  1  0
 12 13  2  0
 12 14  1  0
 14 15  1  0
 14 16  1  0
 16 17  1  0
 16 18  1  0
 18 19  2  0
 19 20  1  0
 19 21  1  0
 21 22  2  0
 22 23  1  0
 22 24  1  0
 24 25  1  0
 24 26  2  0
 26 27  1  0
 26 18  1  0
M  END
>  <plip>  (1) 
-0.07142857142857142

>  <filename>  (1) 
[H][O][C](=[O])[C]([O][H])=[C]([H])[C](=[O])[C](=[O])[N]([H])[N]([H])[c]1[c]([H])[n][c]([H])[c]([H])[c]1[H]

$$$$
