
     RDKit          3D

 34 36  0  0  0  0  0  0  0  0999 V2000
    5.3620    1.7990   16.4906 H   0  0  0  0  0  0  0  0  0  0  0  0
    5.7632    1.3630   17.4198 C   0  0  0  0  0  0  0  0  0  0  0  0
    6.8511    0.5886   17.3028 N   0  0  0  0  0  0  0  0  0  0  0  0
    7.3541    0.0510   18.4140 C   0  0  0  0  0  0  0  0  0  0  0  0
    8.2500   -0.5338   18.2857 H   0  0  0  0  0  0  0  0  0  0  0  0
    6.8154    0.2340   19.6965 C   0  0  0  0  0  0  0  0  0  0  0  0
    7.3664   -0.5772   20.8789 C   0  0  2  0  0  0  0  0  0  0  0  0
    8.3977   -0.8860   20.5844 H   0  0  0  0  0  0  0  0  0  0  0  0
    6.5435   -1.8821   21.0157 C   0  0  0  0  0  0  0  0  0  0  0  0
    6.5651   -2.4283   20.0811 H   0  0  0  0  0  0  0  0  0  0  0  0
    6.9299   -2.5298   21.8006 H   0  0  0  0  0  0  0  0  0  0  0  0
    5.5056   -1.6334   21.2479 H   0  0  0  0  0  0  0  0  0  0  0  0
    7.4476    0.1889   22.2806 C   0  0  0  0  0  0  0  0  0  0  0  0
    7.4378   -0.5901   23.0440 H   0  0  0  0  0  0  0  0  0  0  0  0
    6.5138    0.7407   22.3819 H   0  0  0  0  0  0  0  0  0  0  0  0
    8.7465    0.9477   22.4603 C   0  0  0  0  0  0  0  0  0  0  0  0
    8.7770    2.3982   22.4295 C   0  0  0  0  0  0  0  0  0  0  0  0
    8.0484    2.8049   23.2640 H   0  0  0  0  0  0  0  0  0  0  0  0
    8.7018    2.4718   22.2784 C   0  0  0  0  0  0  0  0  0  0  0  0
    9.0865    3.4016   21.6191 H   0  0  0  0  0  0  0  0  0  0  0  0
   11.0809    0.7240   22.2316 C   0  0  0  0  0  0  0  0  0  0  0  0
   11.0908    0.8351   22.2211 C   0  0  0  0  0  0  0  0  0  0  0  0
    9.9974   -0.0609   22.4709 C   0  0  0  0  0  0  0  0  0  0  0  0
    9.7736   -1.1366   22.7313 H   0  0  0  0  0  0  0  0  0  0  0  0
   12.2175    1.5928   21.9439 C   0  0  0  0  0  0  0  0  0  0  0  0
   13.3011    1.3299   22.0586 H   0  0  0  0  0  0  0  0  0  0  0  0
   11.8765    3.1718   21.9228 C   0  0  0  0  0  0  0  0  0  0  0  0
   12.9645    3.4740   22.1347 H   0  0  0  0  0  0  0  0  0  0  0  0
   11.8767    3.1717   21.9226 N   0  0  0  0  0  0  0  0  0  0  0  0
   11.6955    3.9190   21.0253 H   0  0  0  0  0  0  0  0  0  0  0  0
    5.6761    1.0465   19.8002 C   0  0  0  0  0  0  0  0  0  0  0  0
    5.1877    1.2160   20.7599 H   0  0  0  0  0  0  0  0  0  0  0  0
    5.1459    1.6279   18.6501 C   0  0  0  0  0  0  0  0  0  0  0  0
    4.2626    2.2584   18.6731 H   0  0  0  0  0  0  0  0  0  0  0  0
  1  2  1  0
  2  3  2  0
  3  4  1  0
  4  5  1  0
  4  6  2  0
  6  7  1  0
  7  8  1  6
  7  9  1  0
  9 10  1  0
  9 11  1  0
  9 12  1  0
  7 13  1  0
 13 14  1  0
 13 15  1  0
 13 16  1  0
 16 17  2  0
 17 18  1  0
 17 19  1  0
 19 20  1  0
 19 21  2  0
 21 22  1  0
 22 23  2  0
 23 24  1  0
 22 25  1  0
 25 26  1  0
 25 27  2  0
 27 28  1  0
 27 29  1  0
 29 30  1  0
  6 31  1  0
 31 32  1  0
 31 33  2  0
 33 34  1  0
 33  2  1  0
 23 16  1  0
 29 21  1  0
M  END
>  <plip>  (1) 
-0.14285714285714285

>  <filename>  (1) 
[H][c]1[n][c]([H])[c]([C@]([H])([C]([H])([H])[H])[C]([H])([H])[c]2[c]([H])[c]([H])[c]3[c]([c]2[H])[c]([H])[c]([H])[n]3[H])[c]([H])[c]1[H]

$$$$
