
     RDKit          3D

 21 22  0  0  0  0  0  0  0  0999 V2000
    4.9133    1.7849   16.9936 H   0  0  0  0  0  0  0  0  0  0  0  0
    5.3971    1.2952   17.8355 C   0  0  0  0  0  0  0  0  0  0  0  0
    6.5585    0.6772   17.5721 N   0  0  0  0  0  0  0  0  0  0  0  0
    7.1629    0.0438   18.5833 C   0  0  0  0  0  0  0  0  0  0  0  0
    8.1221   -0.4260   18.3737 H   0  0  0  0  0  0  0  0  0  0  0  0
    6.6332   -0.0193   19.8865 C   0  0  0  0  0  0  0  0  0  0  0  0
    7.5376   -0.8052   21.2261 S   0  0  0  0  0  0  0  0  0  0  0  0
    8.5581    0.6311   21.6631 C   0  0  0  0  0  0  0  0  0  0  0  0
    9.5834    0.8715   21.0903 O   0  0  0  0  0  0  0  0  0  0  0  0
    8.0172    1.4830   22.6495 N   0  0  0  0  0  0  0  0  0  0  0  0
    8.6101    2.6778   23.0151 C   0  0  0  0  0  0  0  0  0  0  0  0
    9.5215    3.0599   22.5580 H   0  0  0  0  0  0  0  0  0  0  0  0
    7.9481    3.2655   23.9602 N   0  0  0  0  0  0  0  0  0  0  0  0
    6.8662    2.4535   24.2378 C   0  0  0  0  0  0  0  0  0  0  0  0
    6.1412    2.7043   25.0017 H   0  0  0  0  0  0  0  0  0  0  0  0
    6.8731    1.3526   23.4485 C   0  0  0  0  0  0  0  0  0  0  0  0
    6.2035    0.5006   23.4034 H   0  0  0  0  0  0  0  0  0  0  0  0
    5.4306    0.6431   20.1509 C   0  0  0  0  0  0  0  0  0  0  0  0
    5.0079    0.6332   21.1608 H   0  0  0  0  0  0  0  0  0  0  0  0
    4.8005    1.3140   19.1008 C   0  0  0  0  0  0  0  0  0  0  0  0
    3.8700    1.8484   19.2590 H   0  0  0  0  0  0  0  0  0  0  0  0
  1  2  1  0
  2  3  2  0
  3  4  1  0
  4  5  1  0
  4  6  2  0
  6  7  1  0
  7  8  1  0
  8  9  2  0
  8 10  1  0
 10 11  1  0
 11 12  1  0
 11 13  2  0
 13 14  1  0
 14 15  1  0
 14 16  2  0
 16 17  1  0
  6 18  1  0
 18 19  1  0
 18 20  2  0
 20 21  1  0
 20  2  1  0
 16 10  1  0
M  END
>  <plip>  (1) 
-0.07142857142857142

>  <filename>  (1) 
[H][c]1[n][c]([H])[c]([S][C](=[O])[n]2[c]([H])[n][c]([H])[c]2[H])[c]([H])[c]1[H]

$$$$
