
     RDKit          3D

 53 56  0  0  0  0  0  0  0  0999 V2000
   11.5725   -0.3661   22.7165 C   0  0  0  0  0  0  0  0  0  0  0  0
   11.0416    0.0474   21.3568 C   0  0  0  0  0  0  0  0  0  0  0  0
    9.5890    0.0863   21.3373 O   0  0  0  0  0  0  0  0  0  0  0  0
    8.9230   -1.0500   21.0432 C   0  0  0  0  0  0  0  0  0  0  0  0
    9.4551   -2.0926   20.7413 O   0  0  0  0  0  0  0  0  0  0  0  0
    7.3761   -0.8189   21.1510 C   0  0  0  0  0  0  0  0  0  0  0  0
    6.7491   -0.0311   19.9917 C   0  0  0  0  0  0  0  0  0  0  0  0
    5.5358    0.6405   20.2134 C   0  0  0  0  0  0  0  0  0  0  0  0
    4.9230    1.3018   19.1471 C   0  0  0  0  0  0  0  0  0  0  0  0
    5.5413    1.2777   17.8930 C   0  0  0  0  0  0  0  0  0  0  0  0
    6.7013    0.6478   17.6577 N   0  0  0  0  0  0  0  0  0  0  0  0
    7.2804    0.0172   18.6934 C   0  0  0  0  0  0  0  0  0  0  0  0
    8.2213   -0.4854   18.4677 H   0  0  0  0  0  0  0  0  0  0  0  0
    5.0794    1.7760   17.0410 H   0  0  0  0  0  0  0  0  0  0  0  0
    3.9860    1.8311   19.2777 H   0  0  0  0  0  0  0  0  0  0  0  0
    5.0865    0.6319   21.2087 H   0  0  0  0  0  0  0  0  0  0  0  0
    6.5786   -2.0455   21.4292 N   0  0  0  0  0  0  0  0  0  0  0  0
    6.2978   -2.9516   20.3045 C   0  0  0  0  0  0  0  0  0  0  0  0
    5.2667   -3.3101   20.3115 H   0  0  0  0  0  0  0  0  0  0  0  0
    6.4261   -2.4251   19.3558 H   0  0  0  0  0  0  0  0  0  0  0  0
    6.9678   -3.8191   20.3253 H   0  0  0  0  0  0  0  0  0  0  0  0
    6.5966   -2.5164   22.7489 C   0  0  0  0  0  0  0  0  0  0  0  0
    7.3089   -2.0097   23.5981 O   0  0  0  0  0  0  0  0  0  0  0  0
    5.7417   -3.7265   23.0479 C   0  0  2  0  0  0  0  0  0  0  0  0
    4.3772   -3.7956   22.4425 C   0  0  0  0  0  0  0  0  0  0  0  0
    4.5070   -3.6557   23.9266 C   0  0  1  0  0  0  0  0  0  0  0  0
    3.9121   -4.7776   24.7117 C   0  0  0  0  0  0  0  0  0  0  0  0
    4.6280   -5.6510   25.5344 C   0  0  0  0  0  0  0  0  0  0  0  0
    3.9639   -6.6681   26.2315 C   0  0  0  0  0  0  0  0  0  0  0  0
    2.5853   -6.8277   26.0918 C   0  0  0  0  0  0  0  0  0  0  0  0
    1.9580   -7.8429   26.7680 O   0  0  0  0  0  0  0  0  0  0  0  0
    0.6570   -8.1730   26.2708 C   0  0  0  0  0  0  0  0  0  0  0  0
   -0.1518   -6.9003   26.0471 C   0  0  0  0  0  0  0  0  0  0  0  0
    0.4996   -6.0682   25.0840 O   0  0  0  0  0  0  0  0  0  0  0  0
    1.8509   -5.9352   25.2729 C   0  0  0  0  0  0  0  0  0  0  0  0
    2.5231   -4.9357   24.5904 C   0  0  0  0  0  0  0  0  0  0  0  0
    1.9608   -4.3005   23.9175 H   0  0  0  0  0  0  0  0  0  0  0  0
   -0.2583   -6.3560   26.9954 H   0  0  0  0  0  0  0  0  0  0  0  0
   -1.1390   -7.1170   25.6377 H   0  0  0  0  0  0  0  0  0  0  0  0
    0.2020   -8.8110   27.0288 H   0  0  0  0  0  0  0  0  0  0  0  0
    0.7427   -8.7305   25.3267 H   0  0  0  0  0  0  0  0  0  0  0  0
    4.4876   -7.3653   26.8774 H   0  0  0  0  0  0  0  0  0  0  0  0
    5.7034   -5.5261   25.6191 H   0  0  0  0  0  0  0  0  0  0  0  0
    4.2652   -2.6821   24.3567 H   0  0  0  0  0  0  0  0  0  0  0  0
    4.0691   -2.9165   21.8985 H   0  0  0  0  0  0  0  0  0  0  0  0
    4.0733   -4.7607   22.0501 H   0  0  0  0  0  0  0  0  0  0  0  0
    6.3548   -4.6232   23.0771 H   0  0  0  0  0  0  0  0  0  0  0  0
    7.2745   -0.1833   22.0375 H   0  0  0  0  0  0  0  0  0  0  0  0
   11.3990   -0.6286   20.5712 H   0  0  0  0  0  0  0  0  0  0  0  0
   11.3457    1.0733   21.1282 H   0  0  0  0  0  0  0  0  0  0  0  0
   11.2750   -1.3879   22.9617 H   0  0  0  0  0  0  0  0  0  0  0  0
   12.6663   -0.3400   22.7047 H   0  0  0  0  0  0  0  0  0  0  0  0
   11.2295    0.3035   23.5114 H   0  0  0  0  0  0  0  0  0  0  0  0
  1  2  1  0
  2  3  1  0
  3  4  1  0
  4  5  2  0
  4  6  1  0
  6  7  1  0
  7  8  2  0
  8  9  1  0
  9 10  2  0
 10 11  1  0
 11 12  2  0
 12 13  1  0
 10 14  1  0
  9 15  1  0
  8 16  1  0
  6 17  1  0
 17 18  1  0
 18 19  1  0
 18 20  1  0
 18 21  1  0
 17 22  1  0
 22 23  2  0
 22 24  1  0
 24 25  1  0
 25 26  1  0
 26 27  1  0
 27 28  2  0
 28 29  1  0
 29 30  2  0
 30 31  1  0
 31 32  1  0
 32 33  1  0
 33 34  1  0
 34 35  1  0
 35 36  2  0
 36 37  1  0
 33 38  1  0
 33 39  1  0
 32 40  1  0
 32 41  1  0
 29 42  1  0
 28 43  1  0
 26 44  1  1
 25 45  1  0
 25 46  1  0
 24 47  1  1
  6 48  1  0
  2 49  1  0
  2 50  1  0
  1 51  1  0
  1 52  1  0
  1 53  1  0
 12  7  1  0
 26 24  1  0
 36 27  1  0
 35 30  1  0
M  END
>  <plip>  (1) 
-0.034482758620689655

>  <filename>  (1) 
[H][c]1[n][c]([H])[c]([C]([H])([C](=[O])[O][C]([H])([H])[C]([H])([H])[H])[N]([C](=[O])[C@]2([H])[C]([H])([H])[C@@]2([H])[c]2[c]([H])[c]([H])[c]3[c]([c]2[H])[O][C]([H])([H])[C]([H])([H])[O]3)[C]([H])([H])[H])[c]([H])[c]1[H]

$$$$
