
     RDKit          3D

 25 27  0  0  0  0  0  0  0  0999 V2000
    8.5987   -3.9628   26.6421 H   0  0  0  0  0  0  0  0  0  0  0  0
    8.0579   -3.4402   25.8671 C   0  0  0  0  0  0  0  0  0  0  0  0
    6.7191   -3.2046   25.9388 N   0  0  0  0  0  0  0  0  0  0  0  0
    6.4847   -2.5595   24.8225 C   0  0  0  0  0  0  0  0  0  0  0  0
    5.5198   -2.1915   24.5023 H   0  0  0  0  0  0  0  0  0  0  0  0
    7.6341   -2.4181   24.1127 N   0  0  0  0  0  0  0  0  0  0  0  0
    7.8211   -1.7950   22.8717 N   0  0  0  0  0  0  0  0  0  0  0  0
    9.0306   -1.6775   22.1935 C   0  0  0  0  0  0  0  0  0  0  0  0
    9.9361   -2.0809   22.6349 H   0  0  0  0  0  0  0  0  0  0  0  0
    8.7825   -1.0175   21.0225 C   0  0  0  0  0  0  0  0  0  0  0  0
    9.5033   -0.7271   20.2690 H   0  0  0  0  0  0  0  0  0  0  0  0
    7.3830   -0.7034   20.9639 C   0  0  0  0  0  0  0  0  0  0  0  0
    6.6556    0.0122   19.9006 C   0  0  0  0  0  0  0  0  0  0  0  0
    7.1602    0.0747   18.5862 C   0  0  0  0  0  0  0  0  0  0  0  0
    8.0999   -0.4190   18.3613 H   0  0  0  0  0  0  0  0  0  0  0  0
    6.5589    0.6815   17.5576 N   0  0  0  0  0  0  0  0  0  0  0  0
    5.3973    1.2990   17.8243 C   0  0  0  0  0  0  0  0  0  0  0  0
    4.9187    1.7904   16.9828 H   0  0  0  0  0  0  0  0  0  0  0  0
    4.7999    1.3162   19.0921 C   0  0  0  0  0  0  0  0  0  0  0  0
    3.8683    1.8472   19.2488 H   0  0  0  0  0  0  0  0  0  0  0  0
    5.4296    0.6567   20.1479 C   0  0  0  0  0  0  0  0  0  0  0  0
    5.0015    0.6515   21.1555 H   0  0  0  0  0  0  0  0  0  0  0  0
    6.8443   -1.2040   22.1151 C   0  0  0  0  0  0  0  0  0  0  0  0
    5.8178   -1.1988   22.4175 H   0  0  0  0  0  0  0  0  0  0  0  0
    8.6584   -2.9901   24.7895 N   0  0  0  0  0  0  0  0  0  0  0  0
  1  2  1  0
  2  3  1  0
  3  4  2  0
  4  5  1  0
  4  6  1  0
  6  7  1  0
  7  8  1  0
  8  9  1  0
  8 10  2  0
 10 11  1  0
 10 12  1  0
 12 13  1  0
 13 14  2  0
 14 15  1  0
 14 16  1  0
 16 17  2  0
 17 18  1  0
 17 19  1  0
 19 20  1  0
 19 21  2  0
 21 22  1  0
 12 23  2  0
 23 24  1  0
  6 25  1  0
 25  2  2  0
 23  7  1  0
 21 13  1  0
M  END
>  <plip>  (1) 
-0.03571428571428571

>  <filename>  (1) 
[H][c]1[n][c]([H])[n](-[n]2[c]([H])[c]([H])[c](-[c]3[c]([H])[n][c]([H])[c]([H])[c]3[H])[c]2[H])[n]1

$$$$
