
     RDKit          3D

 39 41  0  0  0  0  0  0  0  0999 V2000
    4.9201    1.8095   16.9926 H   0  0  0  0  0  0  0  0  0  0  0  0
    5.3938    1.3035   17.8328 C   0  0  0  0  0  0  0  0  0  0  0  0
    6.5546    0.6836   17.5628 N   0  0  0  0  0  0  0  0  0  0  0  0
    7.1795    0.0652   18.5712 C   0  0  0  0  0  0  0  0  0  0  0  0
    8.1269   -0.4034   18.3208 H   0  0  0  0  0  0  0  0  0  0  0  0
    6.6876    0.0122   19.9028 C   0  0  0  0  0  0  0  0  0  0  0  0
    7.3955   -0.6737   21.0009 C   0  0  0  0  0  0  0  0  0  0  0  0
    8.2263   -2.1553   20.8946 S   0  0  0  0  0  0  0  0  0  0  0  0
    8.5469   -2.2368   22.5330 N   0  0  0  0  0  0  0  0  0  0  0  0
    8.0765   -1.2254   23.1585 N   0  0  0  0  0  0  0  0  0  0  0  0
    7.4373   -0.3255   22.3538 C   0  0  0  0  0  0  0  0  0  0  0  0
    6.9134    0.8442   22.8774 N   0  0  0  0  0  0  0  0  0  0  0  0
    7.5006    2.1077   22.4367 C   0  0  0  0  0  0  0  0  0  0  0  0
    8.4035    2.3555   23.0334 H   0  0  0  0  0  0  0  0  0  0  0  0
    7.8215    1.9937   21.3930 H   0  0  0  0  0  0  0  0  0  0  0  0
    6.4602    3.2154   22.5564 C   0  0  0  0  0  0  0  0  0  0  0  0
    6.9325    4.1723   22.3084 H   0  0  0  0  0  0  0  0  0  0  0  0
    5.6560    3.0325   21.8261 H   0  0  0  0  0  0  0  0  0  0  0  0
    5.8506    3.2752   23.9726 C   0  0  0  0  0  0  0  0  0  0  0  0
    6.6694    3.5392   24.6855 H   0  0  0  0  0  0  0  0  0  0  0  0
    4.7928    4.2922   24.0541 N   0  0  0  0  0  0  0  0  0  0  0  0
    5.2535    5.6232   23.6494 C   0  0  0  0  0  0  0  0  0  0  0  0
    5.4394    5.6718   22.5709 H   0  0  0  0  0  0  0  0  0  0  0  0
    6.1737    5.9437   24.1781 H   0  0  0  0  0  0  0  0  0  0  0  0
    4.4713    6.3602   23.8625 H   0  0  0  0  0  0  0  0  0  0  0  0
    4.1598    4.3534   25.3725 C   0  0  0  0  0  0  0  0  0  0  0  0
    4.8886    4.4487   26.2020 H   0  0  0  0  0  0  0  0  0  0  0  0
    3.5388    3.4703   25.5569 H   0  0  0  0  0  0  0  0  0  0  0  0
    3.4888    5.2182   25.4140 H   0  0  0  0  0  0  0  0  0  0  0  0
    5.3145    1.8848   24.3661 C   0  0  0  0  0  0  0  0  0  0  0  0
    4.9470    1.8942   25.3971 H   0  0  0  0  0  0  0  0  0  0  0  0
    4.4730    1.6380   23.7021 H   0  0  0  0  0  0  0  0  0  0  0  0
    6.3864    0.8097   24.2334 C   0  0  0  0  0  0  0  0  0  0  0  0
    5.9643   -0.1903   24.3942 H   0  0  0  0  0  0  0  0  0  0  0  0
    7.1913    0.9484   24.9824 H   0  0  0  0  0  0  0  0  0  0  0  0
    5.4633    0.6632   20.1444 C   0  0  0  0  0  0  0  0  0  0  0  0
    5.0415    0.6368   21.1513 H   0  0  0  0  0  0  0  0  0  0  0  0
    4.8089    1.3166   19.1017 C   0  0  0  0  0  0  0  0  0  0  0  0
    3.8669    1.8422   19.2494 H   0  0  0  0  0  0  0  0  0  0  0  0
  1  2  1  0
  2  3  2  0
  3  4  1  0
  4  5  1  0
  4  6  2  0
  6  7  1  0
  7  8  1  0
  8  9  1  0
  9 10  2  0
 10 11  1  0
 11 12  1  0
 12 13  1  0
 13 14  1  0
 13 15  1  0
 13 16  1  0
 16 17  1  0
 16 18  1  0
 16 19  1  0
 19 20  1  0
 19 21  1  0
 21 22  1  0
 22 23  1  0
 22 24  1  0
 22 25  1  0
 21 26  1  0
 26 27  1  0
 26 28  1  0
 26 29  1  0
 19 30  1  0
 30 31  1  0
 30 32  1  0
 30 33  1  0
 33 34  1  0
 33 35  1  0
  6 36  1  0
 36 37  1  0
 36 38  2  0
 38 39  1  0
 38  2  1  0
 11  7  2  0
 33 12  1  0
M  END
>  <plip>  (1) 
-0.034482758620689655

>  <filename>  (1) 
[H][c]1[n][c]([H])[c](-[c]2[s][n][n][c]2[N]2[C]([H])([H])[C]([H])([H])[C]([H])([N]([C]([H])([H])[H])[C]([H])([H])[H])[C]([H])([H])[C]2([H])[H])[c]([H])[c]1[H]

$$$$
