
     RDKit          3D

 28 29  0  0  0  0  0  0  0  0999 V2000
    4.9388    1.7852   16.9956 H   0  0  0  0  0  0  0  0  0  0  0  0
    5.4044    1.2876   17.8431 C   0  0  0  0  0  0  0  0  0  0  0  0
    6.5665    0.6688   17.5832 N   0  0  0  0  0  0  0  0  0  0  0  0
    7.1769    0.0539   18.5989 C   0  0  0  0  0  0  0  0  0  0  0  0
    8.1256   -0.4267   18.3585 H   0  0  0  0  0  0  0  0  0  0  0  0
    6.6666    0.0098   19.9031 C   0  0  0  0  0  0  0  0  0  0  0  0
    7.3880   -0.6837   20.9710 C   0  0  0  0  0  0  0  0  0  0  0  0
    6.9043   -0.7348   22.1801 N   0  0  0  0  0  0  0  0  0  0  0  0
    7.7006   -1.4659   23.0284 C   0  0  0  0  0  0  0  0  0  0  0  0
    7.3064   -1.7513   24.8354 S   0  0  0  0  0  0  0  0  0  0  0  0
    8.0867   -2.9068   25.2368 O   0  0  0  0  0  0  0  0  0  0  0  0
    5.8829   -1.6730   25.0785 O   0  0  0  0  0  0  0  0  0  0  0  0
    7.9870   -0.4361   25.6109 N   0  0  0  0  0  0  0  0  0  0  0  0
    7.3452    0.8375   25.2796 C   0  0  0  0  0  0  0  0  0  0  0  0
    7.7356    1.5831   25.9778 H   0  0  0  0  0  0  0  0  0  0  0  0
    7.5651    1.1567   24.2490 H   0  0  0  0  0  0  0  0  0  0  0  0
    6.2627    0.7735   25.4179 H   0  0  0  0  0  0  0  0  0  0  0  0
    9.4482   -0.3923   25.5814 C   0  0  0  0  0  0  0  0  0  0  0  0
    9.8594   -1.3441   25.9188 H   0  0  0  0  0  0  0  0  0  0  0  0
    9.7644    0.3835   26.2829 H   0  0  0  0  0  0  0  0  0  0  0  0
    9.8465   -0.1425   24.5861 H   0  0  0  0  0  0  0  0  0  0  0  0
    8.8436   -1.9553   22.4608 C   0  0  0  0  0  0  0  0  0  0  0  0
    9.6435   -2.5486   22.8949 H   0  0  0  0  0  0  0  0  0  0  0  0
    8.9138   -1.5133   20.7990 S   0  0  0  0  0  0  0  0  0  0  0  0
    5.4392    0.6526   20.1611 C   0  0  0  0  0  0  0  0  0  0  0  0
    5.0089    0.6344   21.1648 H   0  0  0  0  0  0  0  0  0  0  0  0
    4.8063    1.3062   19.1082 C   0  0  0  0  0  0  0  0  0  0  0  0
    3.8735    1.8407   19.2486 H   0  0  0  0  0  0  0  0  0  0  0  0
  1  2  1  0
  2  3  2  0
  3  4  1  0
  4  5  1  0
  4  6  2  0
  6  7  1  0
  7  8  2  0
  8  9  1  0
  9 10  1  0
 10 11  2  0
 10 12  2  0
 10 13  1  0
 13 14  1  0
 14 15  1  0
 14 16  1  0
 14 17  1  0
 13 18  1  0
 18 19  1  0
 18 20  1  0
 18 21  1  0
  9 22  2  0
 22 23  1  0
 22 24  1  0
  6 25  1  0
 25 26  1  0
 25 27  2  0
 27 28  1  0
 27  2  1  0
 24  7  1  0
M  END
>  <plip>  (1) 
-0.0

>  <filename>  (1) 
[H][c]1[n][c]([H])[c](-[c]2[n][c]([S](=[O])(=[O])[N]([C]([H])([H])[H])[C]([H])([H])[H])[c]([H])[s]2)[c]([H])[c]1[H]

$$$$
