
     RDKit          3D

 42 42  0  0  0  0  0  0  0  0999 V2000
    2.6338   -6.6218   23.6723 C   0  0  0  0  0  0  0  0  0  0  0  0
    3.2726   -6.3460   22.4485 O   0  0  0  0  0  0  0  0  0  0  0  0
    4.6217   -5.9303   22.5480 C   0  0  0  0  0  0  0  0  0  0  0  0
    4.7266   -4.4553   22.9757 C   0  0  0  0  0  0  0  0  0  0  0  0
    6.1044   -3.7578   22.8169 C   0  0  0  0  0  0  0  0  0  0  0  0
    7.1869   -4.3144   23.7475 C   0  0  0  0  0  0  0  0  0  0  0  0
    6.7969   -4.3541   24.7727 H   0  0  0  0  0  0  0  0  0  0  0  0
    8.0684   -3.6656   23.7580 H   0  0  0  0  0  0  0  0  0  0  0  0
    7.5073   -5.3231   23.4644 H   0  0  0  0  0  0  0  0  0  0  0  0
    6.6442   -3.6016   21.0804 S   0  0  0  0  0  0  0  0  0  0  0  0
    5.4923   -3.2357   20.2789 O   0  0  0  0  0  0  0  0  0  0  0  0
    7.5192   -4.6974   20.6982 O   0  0  0  0  0  0  0  0  0  0  0  0
    7.7309   -2.3523   21.0791 N   0  0  0  0  0  0  0  0  0  0  0  0
    7.3062   -0.9553   21.1732 C   0  0  1  0  0  0  0  0  0  0  0  0
    8.5653   -0.1135   21.4712 C   0  0  0  0  0  0  0  0  0  0  0  0
    8.1849    1.1620   21.9454 O   0  0  0  0  0  0  0  0  0  0  0  0
    9.2690    2.0393   22.1329 C   0  0  0  0  0  0  0  0  0  0  0  0
    8.8614    2.9788   22.5146 H   0  0  0  0  0  0  0  0  0  0  0  0
    9.7966    2.2476   21.1883 H   0  0  0  0  0  0  0  0  0  0  0  0
    9.9961    1.6430   22.8608 H   0  0  0  0  0  0  0  0  0  0  0  0
    9.1596   -0.0353   20.5435 H   0  0  0  0  0  0  0  0  0  0  0  0
    9.1645   -0.6617   22.2128 H   0  0  0  0  0  0  0  0  0  0  0  0
    6.5811   -0.4268   19.9604 C   0  0  0  0  0  0  0  0  0  0  0  0
    5.5773    0.5448   20.1274 C   0  0  0  0  0  0  0  0  0  0  0  0
    5.1249    1.2445   19.0097 C   0  0  0  0  0  0  0  0  0  0  0  0
    5.6795    0.9438   17.7643 C   0  0  0  0  0  0  0  0  0  0  0  0
    6.6055   -0.0063   17.5766 N   0  0  0  0  0  0  0  0  0  0  0  0
    7.0222   -0.6817   18.6607 C   0  0  0  0  0  0  0  0  0  0  0  0
    7.7716   -1.4457   18.4555 H   0  0  0  0  0  0  0  0  0  0  0  0
    5.3685    1.4964   16.8769 H   0  0  0  0  0  0  0  0  0  0  0  0
    4.3907    2.0403   19.0985 H   0  0  0  0  0  0  0  0  0  0  0  0
    5.1796    0.7578   21.1206 H   0  0  0  0  0  0  0  0  0  0  0  0
    6.6530   -0.8433   22.0484 H   0  0  0  0  0  0  0  0  0  0  0  0
    8.2394   -2.6476   20.2509 H   0  0  0  0  0  0  0  0  0  0  0  0
    5.9549   -2.6958   23.0549 H   0  0  0  0  0  0  0  0  0  0  0  0
    3.9760   -3.8995   22.4062 H   0  0  0  0  0  0  0  0  0  0  0  0
    4.4422   -4.3702   24.0383 H   0  0  0  0  0  0  0  0  0  0  0  0
    5.0388   -6.0564   21.5443 H   0  0  0  0  0  0  0  0  0  0  0  0
    5.1921   -6.5850   23.2317 H   0  0  0  0  0  0  0  0  0  0  0  0
    1.5829   -6.8103   23.4433 H   0  0  0  0  0  0  0  0  0  0  0  0
    3.0507   -7.5115   24.1710 H   0  0  0  0  0  0  0  0  0  0  0  0
    2.6818   -5.7767   24.3741 H   0  0  0  0  0  0  0  0  0  0  0  0
  1  2  1  0
  2  3  1  0
  3  4  1  0
  4  5  1  0
  5  6  1  0
  6  7  1  0
  6  8  1  0
  6  9  1  0
  5 10  1  0
 10 11  2  0
 10 12  2  0
 10 13  1  0
 13 14  1  0
 14 15  1  0
 15 16  1  0
 16 17  1  0
 17 18  1  0
 17 19  1  0
 17 20  1  0
 15 21  1  0
 15 22  1  0
 14 23  1  0
 23 24  2  0
 24 25  1  0
 25 26  2  0
 26 27  1  0
 27 28  2  0
 28 29  1  0
 26 30  1  0
 25 31  1  0
 24 32  1  0
 14 33  1  1
 13 34  1  0
  5 35  1  0
  4 36  1  0
  4 37  1  0
  3 38  1  0
  3 39  1  0
  1 40  1  0
  1 41  1  0
  1 42  1  0
 28 23  1  0
M  END
>  <plip>  (1) 
-0.16129032258064516

>  <filename>  (1) 
[H][c]1[n][c]([H])[c]([C@@]([H])([N]([H])[S](=[O])(=[O])[C]([H])([C]([H])([H])[H])[C]([H])([H])[C]([H])([H])[O][C]([H])([H])[H])[C]([H])([H])[O][C]([H])([H])[H])[c]([H])[c]1[H]

$$$$
