
     RDKit          3D

 35 37  0  0  0  0  0  0  0  0999 V2000
    4.9846    1.8739   16.7442 H   0  0  0  0  0  0  0  0  0  0  0  0
    5.3306    1.3031   17.6033 C   0  0  0  0  0  0  0  0  0  0  0  0
    6.3872    0.4987   17.3980 N   0  0  0  0  0  0  0  0  0  0  0  0
    6.8510   -0.1777   18.4560 C   0  0  0  0  0  0  0  0  0  0  0  0
    7.7480   -0.7786   18.2839 H   0  0  0  0  0  0  0  0  0  0  0  0
    6.3050   -0.0929   19.7492 C   0  0  0  0  0  0  0  0  0  0  0  0
    6.9633   -0.8497   20.8846 C   0  0  2  0  0  0  0  0  0  0  0  0
    6.4321   -0.6296   21.8281 H   0  0  0  0  0  0  0  0  0  0  0  0
    8.4379   -0.2780   21.1236 C   0  0  0  0  0  0  0  0  0  0  0  0
    9.4487   -0.8472   20.7563 O   0  0  0  0  0  0  0  0  0  0  0  0
    8.5001    0.9377   21.8037 N   0  0  0  0  0  0  0  0  0  0  0  0
    7.7142    1.5671   21.7055 H   0  0  0  0  0  0  0  0  0  0  0  0
    9.7046    1.5414   22.2536 C   0  0  0  0  0  0  0  0  0  0  0  0
   10.8436    0.7423   22.6550 C   0  0  0  0  0  0  0  0  0  0  0  0
   10.7045   -0.3309   22.7501 H   0  0  0  0  0  0  0  0  0  0  0  0
   12.0384    1.2218   22.9004 N   0  0  0  0  0  0  0  0  0  0  0  0
   12.2004    2.5845   22.8463 C   0  0  0  0  0  0  0  0  0  0  0  0
   13.5152    3.1033   23.0123 C   0  0  0  0  0  0  0  0  0  0  0  0
   14.3075    2.3687   23.0581 H   0  0  0  0  0  0  0  0  0  0  0  0
   13.7331    4.4604   23.0939 C   0  0  0  0  0  0  0  0  0  0  0  0
   14.7425    4.8583   23.2218 H   0  0  0  0  0  0  0  0  0  0  0  0
   12.6227    5.3513   23.0170 C   0  0  0  0  0  0  0  0  0  0  0  0
   12.8009    6.4156   23.1285 H   0  0  0  0  0  0  0  0  0  0  0  0
   11.3422    4.8830   22.8001 C   0  0  0  0  0  0  0  0  0  0  0  0
   10.5004    5.5701   22.7308 H   0  0  0  0  0  0  0  0  0  0  0  0
   11.1004    3.4819   22.6643 C   0  0  0  0  0  0  0  0  0  0  0  0
    9.8303    2.9103   22.3326 C   0  0  0  0  0  0  0  0  0  0  0  0
    8.9953    3.5700   22.1068 H   0  0  0  0  0  0  0  0  0  0  0  0
    6.7363   -2.2799   20.5921 N   0  0  0  0  0  0  0  0  0  0  0  0
    6.9378   -2.4981   19.6179 H   0  0  0  0  0  0  0  0  0  0  0  0
    7.3055   -2.8988   21.1669 H   0  0  0  0  0  0  0  0  0  0  0  0
    5.1805    0.7194   19.9300 C   0  0  0  0  0  0  0  0  0  0  0  0
    4.6926    0.7728   20.9053 H   0  0  0  0  0  0  0  0  0  0  0  0
    4.6923    1.4441   18.8389 C   0  0  0  0  0  0  0  0  0  0  0  0
    3.8569    2.1321   18.9416 H   0  0  0  0  0  0  0  0  0  0  0  0
  1  2  1  0
  2  3  2  0
  3  4  1  0
  4  5  1  0
  4  6  2  0
  6  7  1  0
  7  8  1  1
  7  9  1  0
  9 10  2  0
  9 11  1  0
 11 12  1  0
 11 13  1  0
 13 14  2  0
 14 15  1  0
 14 16  1  0
 16 17  2  0
 17 18  1  0
 18 19  1  0
 18 20  2  0
 20 21  1  0
 20 22  1  0
 22 23  1  0
 22 24  2  0
 24 25  1  0
 24 26  1  0
 26 27  2  0
 27 28  1  0
  7 29  1  0
 29 30  1  0
 29 31  1  0
  6 32  1  0
 32 33  1  0
 32 34  2  0
 34 35  1  0
 34  2  1  0
 27 13  1  0
 26 17  1  0
M  END
>  <plip>  (1) 
-0.10714285714285714

>  <filename>  (1) 
[H][c]1[n][c]([H])[c]([C@]([H])([C](=[O])[N]([H])[c]2[c]([H])[n][c]3[c]([H])[c]([H])[c]([H])[c]([H])[c]3[c]2[H])[N]([H])[H])[c]([H])[c]1[H]

$$$$
