
     RDKit          3D

 29 31  0  0  0  0  0  0  0  0999 V2000
    9.0708   -3.0248   22.1606 H   0  0  0  0  0  0  0  0  0  0  0  0
    8.5084   -2.1178   21.9727 C   0  0  0  0  0  0  0  0  0  0  0  0
    8.0811   -1.7439   20.7363 N   0  0  0  0  0  0  0  0  0  0  0  0
    7.4181   -0.6369   20.9716 C   0  0  0  0  0  0  0  0  0  0  0  0
    6.6413    0.0658   19.9448 C   0  0  0  0  0  0  0  0  0  0  0  0
    7.1444    0.0278   18.6360 C   0  0  0  0  0  0  0  0  0  0  0  0
    8.0777   -0.4877   18.4092 H   0  0  0  0  0  0  0  0  0  0  0  0
    6.5464    0.6270   17.6045 N   0  0  0  0  0  0  0  0  0  0  0  0
    5.3970    1.2808   17.8302 C   0  0  0  0  0  0  0  0  0  0  0  0
    4.9573    1.7900   16.9733 H   0  0  0  0  0  0  0  0  0  0  0  0
    4.7844    1.3258   19.0854 C   0  0  0  0  0  0  0  0  0  0  0  0
    3.8447    1.8532   19.2061 H   0  0  0  0  0  0  0  0  0  0  0  0
    5.4097    0.6989   20.1615 C   0  0  0  0  0  0  0  0  0  0  0  0
    4.9298    0.6792   21.1396 H   0  0  0  0  0  0  0  0  0  0  0  0
    7.4847   -0.3304   22.2955 N   0  0  0  0  0  0  0  0  0  0  0  0
    7.0213    0.8591   22.9123 C   0  0  0  0  0  0  0  0  0  0  0  0
    6.0168    0.6966   23.7548 N   0  0  0  0  0  0  0  0  0  0  0  0
    5.4945    1.7739   24.3457 C   0  0  0  0  0  0  0  0  0  0  0  0
    4.7061    1.5612   25.0658 H   0  0  0  0  0  0  0  0  0  0  0  0
    5.9279    3.0712   24.0793 C   0  0  0  0  0  0  0  0  0  0  0  0
    5.4587    3.9009   24.5866 H   0  0  0  0  0  0  0  0  0  0  0  0
    6.9789    3.2568   23.1839 C   0  0  0  0  0  0  0  0  0  0  0  0
    7.3426    4.2551   22.9400 H   0  0  0  0  0  0  0  0  0  0  0  0
    7.5662    2.1211   22.6253 C   0  0  0  0  0  0  0  0  0  0  0  0
    8.7331    2.2246   21.7041 C   0  0  0  0  0  0  0  0  0  0  0  0
    8.3257    2.2464   20.4224 F   0  0  0  0  0  0  0  0  0  0  0  0
    9.5992    1.2087   21.8273 F   0  0  0  0  0  0  0  0  0  0  0  0
    9.4223    3.3500   21.9309 F   0  0  0  0  0  0  0  0  0  0  0  0
    8.1801   -1.3046   22.9479 N   0  0  0  0  0  0  0  0  0  0  0  0
  1  2  1  0
  2  3  1  0
  3  4  2  0
  4  5  1  0
  5  6  2  0
  6  7  1  0
  6  8  1  0
  8  9  2  0
  9 10  1  0
  9 11  1  0
 11 12  1  0
 11 13  2  0
 13 14  1  0
  4 15  1  0
 15 16  1  0
 16 17  2  0
 17 18  1  0
 18 19  1  0
 18 20  2  0
 20 21  1  0
 20 22  1  0
 22 23  1  0
 22 24  2  0
 24 25  1  0
 25 26  1  0
 25 27  1  0
 25 28  1  0
 15 29  1  0
 29  2  2  0
 13  5  1  0
 24 16  1  0
M  END
>  <plip>  (1) 
-0.034482758620689655

>  <filename>  (1) 
[H][c]1[n][c](-[c]2[c]([H])[n][c]([H])[c]([H])[c]2[H])[n](-[c]2[n][c]([H])[c]([H])[c]([H])[c]2[C]([F])([F])[F])[n]1

$$$$
