
     RDKit          3D

 45 47  0  0  0  0  0  0  0  0999 V2000
    2.5712    3.5177   24.6146 C   0  0  0  0  0  0  0  0  0  0  0  0
    3.1932    4.5524   23.7194 C   0  0  0  0  0  0  0  0  0  0  0  0
    2.6253    5.8031   23.5199 C   0  0  0  0  0  0  0  0  0  0  0  0
    3.2276    6.7670   22.6754 C   0  0  0  0  0  0  0  0  0  0  0  0
    4.4221    6.5282   21.9976 C   0  0  0  0  0  0  0  0  0  0  0  0
    5.0303    7.5742   21.0979 C   0  0  0  0  0  0  0  0  0  0  0  0
    6.0423    7.8449   21.4231 H   0  0  0  0  0  0  0  0  0  0  0  0
    4.4290    8.4912   21.0915 H   0  0  0  0  0  0  0  0  0  0  0  0
    5.1032    7.2214   20.0616 H   0  0  0  0  0  0  0  0  0  0  0  0
    5.0144    5.2587   22.2119 C   0  0  0  0  0  0  0  0  0  0  0  0
    4.4155    4.2778   23.0511 C   0  0  0  0  0  0  0  0  0  0  0  0
    5.2806    3.1540   23.0389 C   0  0  0  0  0  0  0  0  0  0  0  0
    6.3796    3.4475   22.2636 C   0  0  0  0  0  0  0  0  0  0  0  0
    7.6036    2.6399   21.9340 C   0  0  0  0  0  0  0  0  0  0  0  0
    8.5261    3.0547   21.2530 O   0  0  0  0  0  0  0  0  0  0  0  0
    7.6206    1.3679   22.4514 N   0  0  0  0  0  0  0  0  0  0  0  0
    8.3489    0.2702   21.8249 C   0  0  0  0  0  0  0  0  0  0  0  0
    7.4632   -0.7037   20.9859 C   0  0  0  0  0  0  0  0  0  0  0  0
    6.5669   -1.5173   21.9250 C   0  0  0  0  0  0  0  0  0  0  0  0
    7.3912   -2.3908   22.6786 O   0  0  0  0  0  0  0  0  0  0  0  0
    6.8424   -2.8182   23.3482 H   0  0  0  0  0  0  0  0  0  0  0  0
    6.0398   -0.8095   22.5778 H   0  0  0  0  0  0  0  0  0  0  0  0
    5.8092   -2.0728   21.3518 H   0  0  0  0  0  0  0  0  0  0  0  0
    6.6711   -0.0195   19.8656 C   0  0  0  0  0  0  0  0  0  0  0  0
    5.4415    0.6154   20.1043 C   0  0  0  0  0  0  0  0  0  0  0  0
    4.8060    1.2917   19.0624 C   0  0  0  0  0  0  0  0  0  0  0  0
    5.4032    1.2998   17.7999 C   0  0  0  0  0  0  0  0  0  0  0  0
    6.5550    0.6717   17.5279 N   0  0  0  0  0  0  0  0  0  0  0  0
    7.1648    0.0446   18.5441 C   0  0  0  0  0  0  0  0  0  0  0  0
    8.1071   -0.4384   18.2824 H   0  0  0  0  0  0  0  0  0  0  0  0
    4.9334    1.8317   16.9754 H   0  0  0  0  0  0  0  0  0  0  0  0
    3.8722    1.8178   19.2233 H   0  0  0  0  0  0  0  0  0  0  0  0
    4.9765    0.5970   21.0928 H   0  0  0  0  0  0  0  0  0  0  0  0
    8.1553   -1.4241   20.5367 H   0  0  0  0  0  0  0  0  0  0  0  0
    9.1195    0.7127   21.1855 H   0  0  0  0  0  0  0  0  0  0  0  0
    8.8603   -0.3053   22.6032 H   0  0  0  0  0  0  0  0  0  0  0  0
    6.9163    1.1840   23.1443 H   0  0  0  0  0  0  0  0  0  0  0  0
    6.1923    4.7272   21.7535 N   0  0  0  0  0  0  0  0  0  0  0  0
    6.7345    5.1282   21.0029 H   0  0  0  0  0  0  0  0  0  0  0  0
    5.0530    2.2224   23.5471 H   0  0  0  0  0  0  0  0  0  0  0  0
    2.7374    7.7315   22.5533 H   0  0  0  0  0  0  0  0  0  0  0  0
    1.6964    6.0475   24.0311 H   0  0  0  0  0  0  0  0  0  0  0  0
    1.6571    3.8823   25.0923 H   0  0  0  0  0  0  0  0  0  0  0  0
    3.2672    3.2216   25.4085 H   0  0  0  0  0  0  0  0  0  0  0  0
    2.3181    2.6124   24.0507 H   0  0  0  0  0  0  0  0  0  0  0  0
  1  2  1  0
  2  3  2  0
  3  4  1  0
  4  5  2  0
  5  6  1  0
  6  7  1  0
  6  8  1  0
  6  9  1  0
  5 10  1  0
 10 11  2  0
 11 12  1  0
 12 13  2  0
 13 14  1  0
 14 15  2  0
 14 16  1  0
 16 17  1  0
 17 18  1  0
 18 19  1  0
 19 20  1  0
 20 21  1  0
 19 22  1  0
 19 23  1  0
 18 24  1  0
 24 25  2  0
 25 26  1  0
 26 27  2  0
 27 28  1  0
 28 29  2  0
 29 30  1  0
 27 31  1  0
 26 32  1  0
 25 33  1  0
 18 34  1  0
 17 35  1  0
 17 36  1  0
 16 37  1  0
 13 38  1  0
 38 39  1  0
 12 40  1  0
  4 41  1  0
  3 42  1  0
  1 43  1  0
  1 44  1  0
  1 45  1  0
 11  2  1  0
 29 24  1  0
 38 10  1  0
M  END
>  <plip>  (1) 
-0.10714285714285714

>  <filename>  (1) 
[H][O][C]([H])([H])[C]([H])([c]1[c]([H])[n][c]([H])[c]([H])[c]1[H])[C]([H])([H])[N]([H])[C](=[O])[c]1[c]([H])[c]2[c]([C]([H])([H])[H])[c]([H])[c]([H])[c]([C]([H])([H])[H])[c]2[n]1[H]

$$$$
