
     RDKit          3D

 41 43  0  0  0  0  0  0  0  0999 V2000
    8.7806   -3.2152   22.1322 O   0  0  0  0  0  0  0  0  0  0  0  0
    7.5902   -2.9615   22.2031 C   0  0  0  0  0  0  0  0  0  0  0  0
    6.8782   -2.1893   21.1122 C   0  0  0  0  0  0  0  0  0  0  0  0
    7.3565   -0.7281   21.0260 C   0  0  0  0  0  0  0  0  0  0  0  0
    6.6657    0.0257   19.9166 C   0  0  0  0  0  0  0  0  0  0  0  0
    5.4430    0.6711   20.1452 C   0  0  0  0  0  0  0  0  0  0  0  0
    4.7970    1.3202   19.0904 C   0  0  0  0  0  0  0  0  0  0  0  0
    5.3894    1.2955   17.8241 C   0  0  0  0  0  0  0  0  0  0  0  0
    6.5498    0.6738   17.5711 N   0  0  0  0  0  0  0  0  0  0  0  0
    7.1633    0.0658   18.5973 C   0  0  0  0  0  0  0  0  0  0  0  0
    8.1158   -0.4035   18.3439 H   0  0  0  0  0  0  0  0  0  0  0  0
    4.9211    1.7987   16.9785 H   0  0  0  0  0  0  0  0  0  0  0  0
    3.8619    1.8495   19.2318 H   0  0  0  0  0  0  0  0  0  0  0  0
    5.0145    0.6608   21.1491 H   0  0  0  0  0  0  0  0  0  0  0  0
    7.1843   -0.2199   21.9856 H   0  0  0  0  0  0  0  0  0  0  0  0
    8.4421   -0.7318   20.8726 H   0  0  0  0  0  0  0  0  0  0  0  0
    7.1321   -2.7022   20.1870 H   0  0  0  0  0  0  0  0  0  0  0  0
    5.7860   -2.2451   21.2025 H   0  0  0  0  0  0  0  0  0  0  0  0
    6.7999   -3.3721   23.2393 N   0  0  0  0  0  0  0  0  0  0  0  0
    7.3500   -3.8666   24.4961 C   0  0  0  0  0  0  0  0  0  0  0  0
    7.2402   -2.8654   25.6695 C   0  0  0  0  0  0  0  0  0  0  0  0
    7.8969   -1.5404   25.3815 C   0  0  0  0  0  0  0  0  0  0  0  0
    9.2315   -1.2750   25.3689 C   0  0  0  0  0  0  0  0  0  0  0  0
    9.4701    0.0087   24.9213 N   0  0  0  0  0  0  0  0  0  0  0  0
    8.2753    0.5964   24.6013 C   0  0  0  0  0  0  0  0  0  0  0  0
    7.9943    1.8652   24.0552 C   0  0  0  0  0  0  0  0  0  0  0  0
    6.6625    2.1336   23.7967 C   0  0  0  0  0  0  0  0  0  0  0  0
    6.3280    3.3266   23.2788 F   0  0  0  0  0  0  0  0  0  0  0  0
    5.6250    1.2125   24.0465 C   0  0  0  0  0  0  0  0  0  0  0  0
    5.9190   -0.0266   24.5947 C   0  0  0  0  0  0  0  0  0  0  0  0
    7.2605   -0.3524   24.8770 C   0  0  0  0  0  0  0  0  0  0  0  0
    5.1444   -0.7587   24.8119 H   0  0  0  0  0  0  0  0  0  0  0  0
    4.6127    1.5047   23.8040 H   0  0  0  0  0  0  0  0  0  0  0  0
    8.7500    2.6056   23.8309 H   0  0  0  0  0  0  0  0  0  0  0  0
   10.3653    0.4543   24.8208 H   0  0  0  0  0  0  0  0  0  0  0  0
   10.0262   -1.9673   25.5805 H   0  0  0  0  0  0  0  0  0  0  0  0
    6.1818   -2.6939   25.9141 H   0  0  0  0  0  0  0  0  0  0  0  0
    7.6805   -3.3285   26.5648 H   0  0  0  0  0  0  0  0  0  0  0  0
    8.4063   -4.0940   24.3016 H   0  0  0  0  0  0  0  0  0  0  0  0
    6.8504   -4.8044   24.7687 H   0  0  0  0  0  0  0  0  0  0  0  0
    5.8577   -3.0148   23.2197 H   0  0  0  0  0  0  0  0  0  0  0  0
  1  2  2  0
  2  3  1  0
  3  4  1  0
  4  5  1  0
  5  6  2  0
  6  7  1  0
  7  8  2  0
  8  9  1  0
  9 10  2  0
 10 11  1  0
  8 12  1  0
  7 13  1  0
  6 14  1  0
  4 15  1  0
  4 16  1  0
  3 17  1  0
  3 18  1  0
  2 19  1  0
 19 20  1  0
 20 21  1  0
 21 22  1  0
 22 23  2  0
 23 24  1  0
 24 25  1  0
 25 26  2  0
 26 27  1  0
 27 28  1  0
 27 29  2  0
 29 30  1  0
 30 31  2  0
 30 32  1  0
 29 33  1  0
 26 34  1  0
 24 35  1  0
 23 36  1  0
 21 37  1  0
 21 38  1  0
 20 39  1  0
 20 40  1  0
 19 41  1  0
 10  5  1  0
 31 22  1  0
 31 25  1  0
M  END
>  <plip>  (1) 
-0.06896551724137931

>  <filename>  (1) 
[H][c]1[n][c]([H])[c]([C]([H])([H])[C]([H])([H])[C](=[O])[N]([H])[C]([H])([H])[C]([H])([H])[c]2[c]([H])[n]([H])[c]3[c]([H])[c]([F])[c]([H])[c]([H])[c]23)[c]([H])[c]1[H]

$$$$
