
     RDKit          3D

 36 39  0  0  0  0  0  0  0  0999 V2000
    4.8699    1.9752   16.3586 H   0  0  0  0  0  0  0  0  0  0  0  0
    5.2930    1.5655   17.2720 C   0  0  0  0  0  0  0  0  0  0  0  0
    6.4774    0.9491   17.1338 N   0  0  0  0  0  0  0  0  0  0  0  0
    7.0209    0.4236   18.2327 C   0  0  0  0  0  0  0  0  0  0  0  0
    7.9969   -0.0397   18.1041 H   0  0  0  0  0  0  0  0  0  0  0  0
    6.4278    0.4585   19.5047 C   0  0  0  0  0  0  0  0  0  0  0  0
    7.0648   -0.2682   20.6095 C   0  0  0  0  0  0  0  0  0  0  0  0
    7.2947    0.2254   21.8323 C   0  0  0  0  0  0  0  0  0  0  0  0
    7.0597    1.2335   22.1146 H   0  0  0  0  0  0  0  0  0  0  0  0
    7.9010   -0.5775   22.8676 C   0  0  0  0  0  0  0  0  0  0  0  0
    8.1143   -0.1665   23.9895 O   0  0  0  0  0  0  0  0  0  0  0  0
    8.2418   -1.9176   22.5086 N   0  0  0  0  0  0  0  0  0  0  0  0
    8.6879   -2.8284   23.5416 C   0  0  0  0  0  0  0  0  0  0  0  0
   10.0741   -3.1770   23.7073 C   0  0  0  0  0  0  0  0  0  0  0  0
   10.7991   -2.8847   22.9457 H   0  0  0  0  0  0  0  0  0  0  0  0
   10.5247   -3.8459   24.7444 N   0  0  0  0  0  0  0  0  0  0  0  0
    9.6191   -4.2354   25.7017 C   0  0  0  0  0  0  0  0  0  0  0  0
   10.1195   -4.8671   26.8708 C   0  0  0  0  0  0  0  0  0  0  0  0
   11.1988   -4.9496   26.9343 H   0  0  0  0  0  0  0  0  0  0  0  0
    9.2448   -5.3274   27.8274 C   0  0  0  0  0  0  0  0  0  0  0  0
    9.6149   -5.8321   28.7091 H   0  0  0  0  0  0  0  0  0  0  0  0
    7.8399   -5.1700   27.6732 C   0  0  0  0  0  0  0  0  0  0  0  0
    7.1794   -5.5694   28.4380 H   0  0  0  0  0  0  0  0  0  0  0  0
    7.3298   -4.5280   26.5713 C   0  0  0  0  0  0  0  0  0  0  0  0
    6.2576   -4.3813   26.4661 H   0  0  0  0  0  0  0  0  0  0  0  0
    8.2088   -4.0364   25.5656 C   0  0  0  0  0  0  0  0  0  0  0  0
    7.7590   -3.3197   24.4232 C   0  0  0  0  0  0  0  0  0  0  0  0
    6.6916   -3.1525   24.2849 H   0  0  0  0  0  0  0  0  0  0  0  0
    7.8630   -2.4611   21.2939 C   0  0  0  0  0  0  0  0  0  0  0  0
    7.9010   -3.6441   21.0379 O   0  0  0  0  0  0  0  0  0  0  0  0
    7.4528   -1.5581   20.3483 N   0  0  0  0  0  0  0  0  0  0  0  0
    7.1340   -2.0438   19.5307 H   0  0  0  0  0  0  0  0  0  0  0  0
    5.2215    1.1650   19.6451 C   0  0  0  0  0  0  0  0  0  0  0  0
    4.7491    1.2773   20.6239 H   0  0  0  0  0  0  0  0  0  0  0  0
    4.6318    1.7027   18.4986 C   0  0  0  0  0  0  0  0  0  0  0  0
    3.6870    2.2364   18.5381 H   0  0  0  0  0  0  0  0  0  0  0  0
  1  2  1  0
  2  3  2  0
  3  4  1  0
  4  5  1  0
  4  6  2  0
  6  7  1  0
  7  8  2  0
  8  9  1  0
  8 10  1  0
 10 11  2  0
 10 12  1  0
 12 13  1  0
 13 14  2  0
 14 15  1  0
 14 16  1  0
 16 17  2  0
 17 18  1  0
 18 19  1  0
 18 20  2  0
 20 21  1  0
 20 22  1  0
 22 23  1  0
 22 24  2  0
 24 25  1  0
 24 26  1  0
 26 27  2  0
 27 28  1  0
 12 29  1  0
 29 30  2  0
 29 31  1  0
 31 32  1  0
  6 33  1  0
 33 34  1  0
 33 35  2  0
 35 36  1  0
 35  2  1  0
 31  7  1  0
 27 13  1  0
 26 17  1  0
M  END
>  <plip>  (1) 
-0.034482758620689655

>  <filename>  (1) 
[H][c]1[n][c]([H])[c](-[c]2[c]([H])[c](=[O])[n](-[c]3[c]([H])[n][c]4[c]([H])[c]([H])[c]([H])[c]([H])[c]4[c]3[H])[c](=[O])[n]2[H])[c]([H])[c]1[H]

$$$$
