
     RDKit          3D

 37 39  0  0  0  0  0  0  0  0999 V2000
   13.5448    2.9403   23.2066 C   0  0  0  0  0  0  0  0  0  0  0  0
   12.1254    2.6566   22.8007 C   0  0  0  0  0  0  0  0  0  0  0  0
   11.2332    3.6539   22.5061 C   0  0  0  0  0  0  0  0  0  0  0  0
    9.8753    3.1623   22.3334 C   0  0  0  0  0  0  0  0  0  0  0  0
    8.3023    4.2045   22.0133 Br  0  0  0  0  0  0  0  0  0  0  0  0
    9.7889    1.8127   22.4974 C   0  0  0  0  0  0  0  0  0  0  0  0
    8.4698    1.1246   22.4150 C   0  0  0  0  0  0  0  0  0  0  0  0
    8.5664   -0.0043   21.4820 N   0  0  0  0  0  4  0  0  0  0  0  0
    9.4469   -1.0805   21.9640 C   0  0  0  0  0  0  0  0  0  0  0  0
    8.9621   -2.2880   21.1955 C   0  0  0  0  0  0  0  0  0  0  0  0
    7.4695   -2.0379   20.9668 C   0  0  0  0  0  0  0  0  0  0  0  0
    7.2402   -0.5648   21.2581 C   0  0  0  0  0  0  0  0  0  0  0  0
    6.6247    0.1419   20.0896 C   0  0  0  0  0  0  0  0  0  0  0  0
    5.3938    0.7851   20.2226 C   0  0  0  0  0  0  0  0  0  0  0  0
    4.8413    1.3652   19.0845 C   0  0  0  0  0  0  0  0  0  0  0  0
    5.5169    1.2922   17.8633 C   0  0  0  0  0  0  0  0  0  0  0  0
    6.7064    0.6752   17.7373 N   0  0  0  0  0  0  0  0  0  0  0  0
    7.2514    0.1206   18.8335 C   0  0  0  0  0  0  0  0  0  0  0  0
    8.2067   -0.3852   18.7298 H   0  0  0  0  0  0  0  0  0  0  0  0
    5.0597    1.7494   16.9899 H   0  0  0  0  0  0  0  0  0  0  0  0
    3.8897    1.8793   19.1301 H   0  0  0  0  0  0  0  0  0  0  0  0
    4.8735    0.8247   21.1800 H   0  0  0  0  0  0  0  0  0  0  0  0
    6.6137   -0.4570   22.1544 H   0  0  0  0  0  0  0  0  0  0  0  0
    6.8694   -2.6418   21.6503 H   0  0  0  0  0  0  0  0  0  0  0  0
    7.1630   -2.2761   19.9459 H   0  0  0  0  0  0  0  0  0  0  0  0
    9.1375   -3.2095   21.7564 H   0  0  0  0  0  0  0  0  0  0  0  0
    9.5006   -2.3430   20.2462 H   0  0  0  0  0  0  0  0  0  0  0  0
    9.3179   -1.2291   23.0436 H   0  0  0  0  0  0  0  0  0  0  0  0
   10.5138   -0.8956   21.7729 H   0  0  0  0  0  0  0  0  0  0  0  0
    8.9084    0.3393   20.5830 H   0  0  0  0  0  0  0  0  0  0  0  0
    8.1617    0.7860   23.4118 H   0  0  0  0  0  0  0  0  0  0  0  0
    7.7153    1.8443   22.0739 H   0  0  0  0  0  0  0  0  0  0  0  0
   11.3456    1.0715   22.8518 S   0  0  0  0  0  0  0  0  0  0  0  0
   11.5052    4.7025   22.4751 H   0  0  0  0  0  0  0  0  0  0  0  0
   13.5993    3.9310   23.6742 H   0  0  0  0  0  0  0  0  0  0  0  0
   13.8746    2.1795   23.9218 H   0  0  0  0  0  0  0  0  0  0  0  0
   14.2231    2.9369   22.3489 H   0  0  0  0  0  0  0  0  0  0  0  0
  1  2  1  0
  2  3  2  0
  3  4  1  0
  4  5  1  0
  4  6  2  0
  6  7  1  0
  7  8  1  0
  8  9  1  0
  9 10  1  0
 10 11  1  0
 11 12  1  0
 12 13  1  0
 13 14  2  0
 14 15  1  0
 15 16  2  0
 16 17  1  0
 17 18  2  0
 18 19  1  0
 16 20  1  0
 15 21  1  0
 14 22  1  0
 12 23  1  0
 11 24  1  0
 11 25  1  0
 10 26  1  0
 10 27  1  0
  9 28  1  0
  9 29  1  0
  8 30  1  0
  7 31  1  0
  7 32  1  0
  6 33  1  0
  3 34  1  0
  1 35  1  0
  1 36  1  0
  1 37  1  0
 33  2  1  0
 12  8  1  0
 18 13  1  0
M  CHG  1   8   1
M  END
>  <plip>  (1) 
-0.07142857142857142

>  <filename>  (1) 
[H][c]1[n][c]([H])[c]([C]2([H])[C]([H])([H])[C]([H])([H])[C]([H])([H])[N+]2([H])[C]([H])([H])[c]2[s][c]([C]([H])([H])[H])[c]([H])[c]2[Br])[c]([H])[c]1[H]

$$$$
