
     RDKit          3D

 35 37  0  0  0  0  0  0  0  0999 V2000
    5.0294    1.7629   16.9584 H   0  0  0  0  0  0  0  0  0  0  0  0
    5.4437    1.2889   17.8465 C   0  0  0  0  0  0  0  0  0  0  0  0
    6.6311    0.6833   17.6848 N   0  0  0  0  0  0  0  0  0  0  0  0
    7.1569    0.0850   18.7620 C   0  0  0  0  0  0  0  0  0  0  0  0
    8.1261   -0.3935   18.6272 H   0  0  0  0  0  0  0  0  0  0  0  0
    6.5561    0.0470   20.0302 C   0  0  0  0  0  0  0  0  0  0  0  0
    7.2331   -0.6743   21.1311 C   0  0  0  0  0  0  0  0  0  0  0  0
    7.8575   -1.8554   21.1412 C   0  0  0  0  0  0  0  0  0  0  0  0
    8.0188   -2.5941   20.3806 H   0  0  0  0  0  0  0  0  0  0  0  0
    8.3681   -2.1480   22.3804 O   0  0  0  0  0  0  0  0  0  0  0  0
    8.0917   -1.1129   23.2283 C   0  0  0  0  0  0  0  0  0  0  0  0
    8.4025   -1.0609   24.3889 O   0  0  0  0  0  0  0  0  0  0  0  0
    7.3770   -0.1912   22.4489 N   0  0  0  0  0  0  0  0  0  0  0  0
    7.0448    1.0911   22.8571 N   0  0  0  0  0  0  0  0  0  0  0  0
    6.5217    1.1722   23.7116 H   0  0  0  0  0  0  0  0  0  0  0  0
    7.4194    2.2588   22.2317 C   0  0  0  0  0  0  0  0  0  0  0  0
    8.1530    2.3335   21.2686 O   0  0  0  0  0  0  0  0  0  0  0  0
    6.7905    3.4564   22.9317 C   0  0  0  0  0  0  0  0  0  0  0  0
    5.7749    3.2106   23.2664 H   0  0  0  0  0  0  0  0  0  0  0  0
    6.7036    4.2459   22.1802 H   0  0  0  0  0  0  0  0  0  0  0  0
    7.6810    3.8913   24.0762 C   0  0  0  0  0  0  0  0  0  0  0  0
    8.8055    4.6680   23.7724 C   0  0  0  0  0  0  0  0  0  0  0  0
    9.0142    4.8852   22.7259 H   0  0  0  0  0  0  0  0  0  0  0  0
    9.6412    5.1302   24.7902 C   0  0  0  0  0  0  0  0  0  0  0  0
   10.4847    5.7661   24.5390 H   0  0  0  0  0  0  0  0  0  0  0  0
    9.3888    4.7630   26.1174 C   0  0  0  0  0  0  0  0  0  0  0  0
   10.0395    5.1250   26.9076 H   0  0  0  0  0  0  0  0  0  0  0  0
    8.3254    3.9042   26.4160 C   0  0  0  0  0  0  0  0  0  0  0  0
    8.1587    3.5714   27.4367 H   0  0  0  0  0  0  0  0  0  0  0  0
    7.4751    3.4621   25.3941 C   0  0  0  0  0  0  0  0  0  0  0  0
    6.6499    2.7895   25.6267 H   0  0  0  0  0  0  0  0  0  0  0  0
    5.3178    0.6971   20.1737 C   0  0  0  0  0  0  0  0  0  0  0  0
    4.8429    0.7128   21.1531 H   0  0  0  0  0  0  0  0  0  0  0  0
    4.7515    1.3245   19.0631 C   0  0  0  0  0  0  0  0  0  0  0  0
    3.8032    1.8483   19.1310 H   0  0  0  0  0  0  0  0  0  0  0  0
  1  2  1  0
  2  3  2  0
  3  4  1  0
  4  5  1  0
  4  6  2  0
  6  7  1  0
  7  8  2  0
  8  9  1  0
  8 10  1  0
 10 11  1  0
 11 12  2  0
 11 13  1  0
 13 14  1  0
 14 15  1  0
 14 16  1  0
 16 17  2  0
 16 18  1  0
 18 19  1  0
 18 20  1  0
 18 21  1  0
 21 22  2  0
 22 23  1  0
 22 24  1  0
 24 25  1  0
 24 26  2  0
 26 27  1  0
 26 28  1  0
 28 29  1  0
 28 30  2  0
 30 31  1  0
  6 32  1  0
 32 33  1  0
 32 34  2  0
 34 35  1  0
 34  2  1  0
 13  7  1  0
 30 21  1  0
M  END
>  <plip>  (1) 
-0.07142857142857142

>  <filename>  (1) 
[H][c]1[n][c]([H])[c](-[c]2[c]([H])[o][c](=[O])[n]2[N]([H])[C](=[O])[C]([H])([H])[c]2[c]([H])[c]([H])[c]([H])[c]([H])[c]2[H])[c]([H])[c]1[H]

$$$$
