
     RDKit          3D

 37 39  0  0  0  0  0  0  0  0999 V2000
    8.3933   -1.5365   20.7544 C   0  0  0  0  0  0  0  0  0  0  0  0
    7.3536   -0.5145   21.1832 C   0  0  0  0  0  0  0  0  0  0  0  0
    8.0503    0.5699   22.0126 C   0  0  0  0  0  0  0  0  0  0  0  0
    7.3299    1.2922   22.4018 H   0  0  0  0  0  0  0  0  0  0  0  0
    8.7809    1.1131   21.4061 H   0  0  0  0  0  0  0  0  0  0  0  0
    8.5776    0.1190   22.8555 H   0  0  0  0  0  0  0  0  0  0  0  0
    6.4172   -1.2683   21.9926 N   0  0  0  0  0  0  0  0  0  0  0  0
    5.7623   -2.4241   21.5383 C   0  0  0  0  0  0  0  0  0  0  0  0
    5.8470   -2.6784   20.3376 O   0  0  0  0  0  0  0  0  0  0  0  0
    4.9692   -3.3239   22.4574 C   0  0  0  0  0  0  0  0  0  0  0  0
    4.1255   -4.2842   22.0903 N   0  0  0  0  0  0  0  0  0  0  0  0
    3.5072   -4.7446   23.2442 C   0  0  0  0  0  0  0  0  0  0  0  0
    2.4303   -5.6279   23.3747 C   0  0  0  0  0  0  0  0  0  0  0  0
    1.9225   -5.9011   24.6556 C   0  0  0  0  0  0  0  0  0  0  0  0
    2.4994   -5.3020   25.7867 C   0  0  0  0  0  0  0  0  0  0  0  0
    1.8324   -5.7338   27.5224 Br  0  0  0  0  0  0  0  0  0  0  0  0
    3.5496   -4.3838   25.6375 C   0  0  0  0  0  0  0  0  0  0  0  0
    4.0325   -4.1106   24.3553 C   0  0  0  0  0  0  0  0  0  0  0  0
    4.9630   -3.2345   23.8555 N   0  0  0  0  0  0  0  0  0  0  0  0
    5.4429   -2.5291   24.4117 H   0  0  0  0  0  0  0  0  0  0  0  0
    3.9618   -3.8801   26.5055 H   0  0  0  0  0  0  0  0  0  0  0  0
    1.0730   -6.5673   24.7822 H   0  0  0  0  0  0  0  0  0  0  0  0
    1.9831   -6.0607   22.4839 H   0  0  0  0  0  0  0  0  0  0  0  0
    6.3594   -1.0206   22.9719 H   0  0  0  0  0  0  0  0  0  0  0  0
    6.6298    0.1079   20.0113 C   0  0  0  0  0  0  0  0  0  0  0  0
    5.4044    0.7635   20.1723 C   0  0  0  0  0  0  0  0  0  0  0  0
    4.8119    1.3358   19.0466 C   0  0  0  0  0  0  0  0  0  0  0  0
    5.4503    1.2622   17.8029 C   0  0  0  0  0  0  0  0  0  0  0  0
    6.6208    0.6241   17.6383 N   0  0  0  0  0  0  0  0  0  0  0  0
    7.1834    0.0568   18.7211 C   0  0  0  0  0  0  0  0  0  0  0  0
    8.1220   -0.4674   18.5804 H   0  0  0  0  0  0  0  0  0  0  0  0
    4.9897    1.7342   16.9386 H   0  0  0  0  0  0  0  0  0  0  0  0
    3.8603    1.8496   19.1164 H   0  0  0  0  0  0  0  0  0  0  0  0
    4.9237    0.8251   21.1477 H   0  0  0  0  0  0  0  0  0  0  0  0
    8.9729   -1.9003   21.6029 H   0  0  0  0  0  0  0  0  0  0  0  0
    7.8558   -2.3734   20.3108 H   0  0  0  0  0  0  0  0  0  0  0  0
    9.0864   -1.1272   20.0189 H   0  0  0  0  0  0  0  0  0  0  0  0
  1  2  1  0
  2  3  1  0
  3  4  1  0
  3  5  1  0
  3  6  1  0
  2  7  1  0
  7  8  1  0
  8  9  2  0
  8 10  1  0
 10 11  2  0
 11 12  1  0
 12 13  2  0
 13 14  1  0
 14 15  2  0
 15 16  1  0
 15 17  1  0
 17 18  2  0
 18 19  1  0
 19 20  1  0
 17 21  1  0
 14 22  1  0
 13 23  1  0
  7 24  1  0
  2 25  1  0
 25 26  2  0
 26 27  1  0
 27 28  2  0
 28 29  1  0
 29 30  2  0
 30 31  1  0
 28 32  1  0
 27 33  1  0
 26 34  1  0
  1 35  1  0
  1 36  1  0
  1 37  1  0
 19 10  1  0
 30 25  1  0
 18 12  1  0
M  END
>  <plip>  (1) 
-0.06896551724137931

>  <filename>  (1) 
[H][c]1[n][c]([H])[c]([C]([N]([H])[C](=[O])[c]2[n][c]3[c]([H])[c]([H])[c]([Br])[c]([H])[c]3[n]2[H])([C]([H])([H])[H])[C]([H])([H])[H])[c]([H])[c]1[H]

$$$$
