
     RDKit          3D

 30 32  0  0  0  0  0  0  0  0999 V2000
    5.0936    1.7954   16.7419 H   0  0  0  0  0  0  0  0  0  0  0  0
    5.4670    1.3270   17.6478 C   0  0  0  0  0  0  0  0  0  0  0  0
    6.6332    0.6716   17.5361 N   0  0  0  0  0  0  0  0  0  0  0  0
    7.1227    0.1106   18.6485 C   0  0  0  0  0  0  0  0  0  0  0  0
    8.0788   -0.3963   18.5348 H   0  0  0  0  0  0  0  0  0  0  0  0
    6.4924    0.1520   19.9104 C   0  0  0  0  0  0  0  0  0  0  0  0
    7.1360   -0.4568   21.0820 C   0  0  0  0  0  0  0  0  0  0  0  0
    6.7862   -0.3040   22.4664 C   0  0  0  0  0  0  0  0  0  0  0  0
    5.9370    0.2567   22.8450 H   0  0  0  0  0  0  0  0  0  0  0  0
    7.7016   -0.9969   23.2054 C   0  0  0  0  0  0  0  0  0  0  0  0
    7.7927   -1.2201   24.2600 H   0  0  0  0  0  0  0  0  0  0  0  0
    8.6172   -1.5649   22.3378 N   0  0  0  0  0  0  0  0  0  0  0  0
    9.9944   -2.4736   22.7297 S   0  0  0  0  0  0  0  0  0  0  0  0
   11.3470   -1.2800   22.6672 C   0  0  0  0  0  0  0  0  0  0  0  0
   11.3923   -0.1428   23.4818 C   0  0  0  0  0  0  0  0  0  0  0  0
   10.5218    0.1766   24.0431 H   0  0  0  0  0  0  0  0  0  0  0  0
   12.5715    0.6059   23.5774 C   0  0  0  0  0  0  0  0  0  0  0  0
   12.6062    1.4678   24.2425 H   0  0  0  0  0  0  0  0  0  0  0  0
   13.7030    0.2449   22.8343 C   0  0  0  0  0  0  0  0  0  0  0  0
   14.6256    0.8109   22.8985 H   0  0  0  0  0  0  0  0  0  0  0  0
   13.6366   -0.8430   21.9578 C   0  0  0  0  0  0  0  0  0  0  0  0
   14.4868   -1.1196   21.3343 H   0  0  0  0  0  0  0  0  0  0  0  0
   12.4624   -1.5929   21.8793 C   0  0  0  0  0  0  0  0  0  0  0  0
   12.3972   -2.4145   21.1846 H   0  0  0  0  0  0  0  0  0  0  0  0
    8.2438   -1.2711   21.0520 C   0  0  0  0  0  0  0  0  0  0  0  0
    8.7588   -1.7884   20.2541 H   0  0  0  0  0  0  0  0  0  0  0  0
    5.2604    0.8204   19.9896 C   0  0  0  0  0  0  0  0  0  0  0  0
    4.7247    0.8662   20.9399 H   0  0  0  0  0  0  0  0  0  0  0  0
    4.7432    1.4223   18.8450 C   0  0  0  0  0  0  0  0  0  0  0  0
    3.8119    1.9788   18.8731 H   0  0  0  0  0  0  0  0  0  0  0  0
  1  2  1  0
  2  3  2  0
  3  4  1  0
  4  5  1  0
  4  6  2  0
  6  7  1  0
  7  8  1  0
  8  9  1  0
  8 10  2  0
 10 11  1  0
 10 12  1  0
 12 13  1  0
 13 14  1  0
 14 15  2  0
 15 16  1  0
 15 17  1  0
 17 18  1  0
 17 19  2  0
 19 20  1  0
 19 21  1  0
 21 22  1  0
 21 23  2  0
 23 24  1  0
 12 25  1  0
 25 26  1  0
  6 27  1  0
 27 28  1  0
 27 29  2  0
 29 30  1  0
 29  2  1  0
 25  7  2  0
 23 14  1  0
M  END
>  <plip>  (1) 
-0.07142857142857142

>  <filename>  (1) 
[H][c]1[n][c]([H])[c](-[c]2[c]([H])[c]([H])[n]([S][c]3[c]([H])[c]([H])[c]([H])[c]([H])[c]3[H])[c]2[H])[c]([H])[c]1[H]

$$$$
