
     RDKit          3D

 34 36  0  0  0  0  0  0  0  0999 V2000
    8.0171   -1.9073   20.6412 O   0  0  0  0  0  0  0  0  0  0  0  0
    7.4076   -0.6768   21.0247 C   0  0  0  0  0  0  0  0  0  0  0  0
    6.6134   -0.0509   19.8945 C   0  0  0  0  0  0  0  0  0  0  0  0
    5.4134    0.6326   20.1400 C   0  0  0  0  0  0  0  0  0  0  0  0
    4.7879    1.3088   19.0881 C   0  0  0  0  0  0  0  0  0  0  0  0
    5.3924    1.2848   17.8263 C   0  0  0  0  0  0  0  0  0  0  0  0
    6.5406    0.6414   17.5723 N   0  0  0  0  0  0  0  0  0  0  0  0
    7.1354    0.0060   18.5912 C   0  0  0  0  0  0  0  0  0  0  0  0
    8.1098   -0.4289   18.3809 H   0  0  0  0  0  0  0  0  0  0  0  0
    4.9416    1.8071   16.9822 H   0  0  0  0  0  0  0  0  0  0  0  0
    3.8670    1.8634   19.2305 H   0  0  0  0  0  0  0  0  0  0  0  0
    4.9863    0.6544   21.1449 H   0  0  0  0  0  0  0  0  0  0  0  0
    8.4869    0.2670   21.5721 C   0  0  0  0  0  0  0  0  0  0  0  0
    9.2385    1.0992   20.8732 N   0  0  0  0  0  0  0  0  0  0  0  0
   10.0934    1.6796   21.7668 C   0  0  0  0  0  0  0  0  0  0  0  0
    9.8548    1.2056   23.0294 C   0  0  0  0  0  0  0  0  0  0  0  0
    8.8031    0.3209   22.9103 N   0  0  0  0  0  0  0  0  0  0  0  0
    8.2722   -0.5248   23.9760 C   0  0  0  0  0  0  0  0  0  0  0  0
    8.7098   -1.9740   23.8549 C   0  0  0  0  0  0  0  0  0  0  0  0
   10.0748   -2.2984   23.9631 C   0  0  0  0  0  0  0  0  0  0  0  0
   10.4632   -3.6281   23.8582 C   0  0  0  0  0  0  0  0  0  0  0  0
    9.5906   -4.6340   23.6672 N   0  0  0  0  0  0  0  0  0  0  0  0
    8.3308   -4.3134   23.5375 C   0  0  0  0  0  0  0  0  0  0  0  0
    7.4910   -5.3159   23.2665 F   0  0  0  0  0  0  0  0  0  0  0  0
    7.8086   -3.0191   23.6334 C   0  0  0  0  0  0  0  0  0  0  0  0
    6.7363   -2.8988   23.5359 H   0  0  0  0  0  0  0  0  0  0  0  0
   11.5122   -3.9194   23.9085 H   0  0  0  0  0  0  0  0  0  0  0  0
   10.8140   -1.5217   24.1323 H   0  0  0  0  0  0  0  0  0  0  0  0
    7.1786   -0.4629   23.9956 H   0  0  0  0  0  0  0  0  0  0  0  0
    8.6297   -0.1019   24.9218 H   0  0  0  0  0  0  0  0  0  0  0  0
   10.3352    1.3756   23.9829 H   0  0  0  0  0  0  0  0  0  0  0  0
   10.8296    2.3961   21.4227 H   0  0  0  0  0  0  0  0  0  0  0  0
    6.7130   -0.8674   21.8641 H   0  0  0  0  0  0  0  0  0  0  0  0
    7.3314   -2.4910   20.2765 H   0  0  0  0  0  0  0  0  0  0  0  0
  1  2  1  0
  2  3  1  0
  3  4  2  0
  4  5  1  0
  5  6  2  0
  6  7  1  0
  7  8  2  0
  8  9  1  0
  6 10  1  0
  5 11  1  0
  4 12  1  0
  2 13  1  0
 13 14  2  0
 14 15  1  0
 15 16  2  0
 16 17  1  0
 17 18  1  0
 18 19  1  0
 19 20  2  0
 20 21  1  0
 21 22  2  0
 22 23  1  0
 23 24  1  0
 23 25  2  0
 25 26  1  0
 21 27  1  0
 20 28  1  0
 18 29  1  0
 18 30  1  0
 16 31  1  0
 15 32  1  0
  2 33  1  0
  1 34  1  0
  8  3  1  0
 17 13  1  0
 25 19  1  0
M  END
>  <plip>  (1) 
-0.034482758620689655

>  <filename>  (1) 
[H][O][C]([H])([c]1[c]([H])[n][c]([H])[c]([H])[c]1[H])[c]1[n][c]([H])[c]([H])[n]1[C]([H])([H])[c]1[c]([H])[c]([H])[n][c]([F])[c]1[H]

$$$$
