
     RDKit          3D

 58 61  0  0  0  0  0  0  0  0999 V2000
    5.4540    3.1640   22.9680 C   0  0  0  0  0  0  0  0  0  0  0  0
    6.5472    2.7349   23.8946 C   0  0  0  0  0  0  0  0  0  0  0  0
    7.6579    1.9504   23.6414 C   0  0  0  0  0  0  0  0  0  0  0  0
    8.0517    1.3203   22.3377 C   0  0  0  0  0  0  0  0  0  0  0  0
    9.5495    1.2519   22.0918 C   0  0  0  0  0  0  0  0  0  0  0  0
   10.0316    0.5492   22.7793 H   0  0  0  0  0  0  0  0  0  0  0  0
    9.7393    0.9289   21.0662 H   0  0  0  0  0  0  0  0  0  0  0  0
    9.9990    2.2343   22.2323 H   0  0  0  0  0  0  0  0  0  0  0  0
    7.4559   -0.1363   22.2581 N   0  0  0  0  0  4  0  0  0  0  0  0
    7.4477   -0.8200   20.9117 C   0  0  0  0  0  0  0  0  0  0  0  0
    6.6586    0.0091   19.9105 C   0  0  0  0  0  0  0  0  0  0  0  0
    5.4435    0.6717   20.1556 C   0  0  0  0  0  0  0  0  0  0  0  0
    4.8014    1.3274   19.0975 C   0  0  0  0  0  0  0  0  0  0  0  0
    5.4000    1.3042   17.8339 C   0  0  0  0  0  0  0  0  0  0  0  0
    6.5594    0.6840   17.5766 N   0  0  0  0  0  0  0  0  0  0  0  0
    7.1591    0.0682   18.6003 C   0  0  0  0  0  0  0  0  0  0  0  0
    8.1114   -0.4081   18.3616 H   0  0  0  0  0  0  0  0  0  0  0  0
    4.9290    1.8037   16.9893 H   0  0  0  0  0  0  0  0  0  0  0  0
    3.8622    1.8589   19.2313 H   0  0  0  0  0  0  0  0  0  0  0  0
    4.9804    0.6973   21.1474 H   0  0  0  0  0  0  0  0  0  0  0  0
    6.9771   -2.3030   20.9669 C   0  0  0  0  0  0  0  0  0  0  0  0
    8.0826   -3.2153   21.5601 C   0  0  0  0  0  0  0  0  0  0  0  0
    7.5125   -4.5786   21.9793 C   0  0  0  0  0  0  0  0  0  0  0  0
    6.4700   -4.4265   23.1222 C   0  0  0  0  0  0  0  0  0  0  0  0
    5.7245   -3.0627   23.0854 C   0  0  0  0  0  0  0  0  0  0  0  0
    5.6013   -2.5487   21.6387 C   0  0  0  0  0  0  0  0  0  0  0  0
    5.0462   -3.3019   21.0649 H   0  0  0  0  0  0  0  0  0  0  0  0
    5.0257   -1.6225   21.5382 H   0  0  0  0  0  0  0  0  0  0  0  0
    6.2821   -2.3175   23.6730 H   0  0  0  0  0  0  0  0  0  0  0  0
    4.7421   -3.1498   23.5671 H   0  0  0  0  0  0  0  0  0  0  0  0
    6.9607   -4.5396   24.0977 H   0  0  0  0  0  0  0  0  0  0  0  0
    5.7443   -5.2492   23.0575 H   0  0  0  0  0  0  0  0  0  0  0  0
    8.3093   -5.2730   22.2729 H   0  0  0  0  0  0  0  0  0  0  0  0
    7.0228   -5.0361   21.1074 H   0  0  0  0  0  0  0  0  0  0  0  0
    8.5226   -2.7222   22.4413 H   0  0  0  0  0  0  0  0  0  0  0  0
    8.9051   -3.3267   20.8451 H   0  0  0  0  0  0  0  0  0  0  0  0
    6.8332   -2.5870   19.9184 H   0  0  0  0  0  0  0  0  0  0  0  0
    8.4761   -0.8618   20.5419 H   0  0  0  0  0  0  0  0  0  0  0  0
    7.9945   -0.6587   22.9869 H   0  0  0  0  0  0  0  0  0  0  0  0
    6.4578   -0.1122   22.5523 H   0  0  0  0  0  0  0  0  0  0  0  0
    7.5778    1.8851   21.5319 H   0  0  0  0  0  0  0  0  0  0  0  0
    8.3554    1.8021   24.8027 N   0  0  0  0  0  0  0  0  0  0  0  0
    7.7399    2.4189   25.7538 N   0  0  0  0  0  0  0  0  0  0  0  0
    6.6273    2.9845   25.2373 N   0  0  0  0  0  0  0  0  0  0  0  0
    5.7271    3.7072   26.0861 C   0  0  0  0  0  0  0  0  0  0  0  0
    6.2385    4.6264   27.0120 C   0  0  0  0  0  0  0  0  0  0  0  0
    5.3620    5.3521   27.8236 C   0  0  0  0  0  0  0  0  0  0  0  0
    3.9783    5.1555   27.7204 C   0  0  0  0  0  0  0  0  0  0  0  0
    3.4734    4.2269   26.8053 C   0  0  0  0  0  0  0  0  0  0  0  0
    4.3421    3.5000   25.9887 C   0  0  0  0  0  0  0  0  0  0  0  0
    3.9476    2.7772   25.2835 H   0  0  0  0  0  0  0  0  0  0  0  0
    2.4025    4.0669   26.7096 H   0  0  0  0  0  0  0  0  0  0  0  0
    3.2990    5.7189   28.3538 H   0  0  0  0  0  0  0  0  0  0  0  0
    5.7608    6.0690   28.5387 H   0  0  0  0  0  0  0  0  0  0  0  0
    7.3156    4.7500   27.0826 H   0  0  0  0  0  0  0  0  0  0  0  0
    4.9853    4.1083   23.2662 H   0  0  0  0  0  0  0  0  0  0  0  0
    4.6614    2.4057   22.9131 H   0  0  0  0  0  0  0  0  0  0  0  0
    5.8359    3.2937   21.9489 H   0  0  0  0  0  0  0  0  0  0  0  0
  1  2  1  0
  2  3  2  0
  3  4  1  0
  4  5  1  0
  5  6  1  0
  5  7  1  0
  5  8  1  0
  4  9  1  0
  9 10  1  0
 10 11  1  0
 11 12  2  0
 12 13  1  0
 13 14  2  0
 14 15  1  0
 15 16  2  0
 16 17  1  0
 14 18  1  0
 13 19  1  0
 12 20  1  0
 10 21  1  0
 21 22  1  0
 22 23  1  0
 23 24  1  0
 24 25  1  0
 25 26  1  0
 26 27  1  0
 26 28  1  0
 25 29  1  0
 25 30  1  0
 24 31  1  0
 24 32  1  0
 23 33  1  0
 23 34  1  0
 22 35  1  0
 22 36  1  0
 21 37  1  0
 10 38  1  0
  9 39  1  0
  9 40  1  0
  4 41  1  0
  3 42  1  0
 42 43  2  0
 43 44  1  0
 44 45  1  0
 45 46  2  0
 46 47  1  0
 47 48  2  0
 48 49  1  0
 49 50  2  0
 50 51  1  0
 49 52  1  0
 48 53  1  0
 47 54  1  0
 46 55  1  0
  1 56  1  0
  1 57  1  0
  1 58  1  0
 44  2  1  0
 50 45  1  0
 16 11  1  0
 26 21  1  0
M  CHG  1   9   1
M  END
>  <plip>  (1) 
-0.06896551724137931

>  <filename>  (1) 
[H][c]1[n][c]([H])[c]([C]([H])([C]2([H])[C]([H])([H])[C]([H])([H])[C]([H])([H])[C]([H])([H])[C]2([H])[H])[N+]([H])([H])[C]([H])([c]2[n][n][n](-[c]3[c]([H])[c]([H])[c]([H])[c]([H])[c]3[H])[c]2[C]([H])([H])[H])[C]([H])([H])[H])[c]([H])[c]1[H]

$$$$
