
     RDKit          3D

 26 27  0  0  0  0  0  0  0  0999 V2000
    6.6141   -1.1787   22.2051 O   0  0  0  0  0  0  0  0  0  0  0  0
    7.5458   -0.8114   21.1494 S   0  0  0  0  0  0  0  0  0  0  0  0
    8.4161   -1.7685   20.4826 O   0  0  0  0  0  0  0  0  0  0  0  0
    8.6860    0.3188   21.8820 C   0  0  0  0  0  0  0  0  0  0  0  0
    8.0021    1.4940   22.4575 C   0  0  0  0  0  0  0  0  0  0  0  0
    7.3557    1.7209   23.6240 C   0  0  0  0  0  0  0  0  0  0  0  0
    6.8283    2.9696   23.5752 O   0  0  0  0  0  0  0  0  0  0  0  0
    7.1812    3.4443   22.3575 C   0  0  0  0  0  0  0  0  0  0  0  0
    6.5901    4.8169   21.9918 C   0  0  0  0  0  0  0  0  0  0  0  0
    6.3452    5.5371   23.0920 F   0  0  0  0  0  0  0  0  0  0  0  0
    5.4138    4.6527   21.3686 F   0  0  0  0  0  0  0  0  0  0  0  0
    7.3856    5.5427   21.1996 F   0  0  0  0  0  0  0  0  0  0  0  0
    7.8645    2.5978   21.6413 N   0  0  0  0  0  0  0  0  0  0  0  0
    7.1334    1.1288   24.4985 H   0  0  0  0  0  0  0  0  0  0  0  0
    9.1396   -0.3600   22.6025 H   0  0  0  0  0  0  0  0  0  0  0  0
    9.3895    0.5855   21.0941 H   0  0  0  0  0  0  0  0  0  0  0  0
    6.6462    0.0352   19.9344 C   0  0  0  0  0  0  0  0  0  0  0  0
    5.4154    0.6500   20.1905 C   0  0  0  0  0  0  0  0  0  0  0  0
    4.8126    1.2957   19.1158 C   0  0  0  0  0  0  0  0  0  0  0  0
    5.4489    1.2685   17.8675 C   0  0  0  0  0  0  0  0  0  0  0  0
    6.6105    0.6382   17.6389 N   0  0  0  0  0  0  0  0  0  0  0  0
    7.2019    0.0288   18.6628 C   0  0  0  0  0  0  0  0  0  0  0  0
    8.1376   -0.4868   18.4530 H   0  0  0  0  0  0  0  0  0  0  0  0
    4.9983    1.7668   17.0114 H   0  0  0  0  0  0  0  0  0  0  0  0
    3.8782    1.8368   19.2382 H   0  0  0  0  0  0  0  0  0  0  0  0
    4.9462    0.6334   21.1840 H   0  0  0  0  0  0  0  0  0  0  0  0
  1  2  2  0
  2  3  2  0
  2  4  1  0
  4  5  1  0
  5  6  2  0
  6  7  1  0
  7  8  1  0
  8  9  1  0
  9 10  1  0
  9 11  1  0
  9 12  1  0
  8 13  2  0
  6 14  1  0
  4 15  1  0
  4 16  1  0
  2 17  1  0
 17 18  2  0
 18 19  1  0
 19 20  2  0
 20 21  1  0
 21 22  2  0
 22 23  1  0
 20 24  1  0
 19 25  1  0
 18 26  1  0
 13  5  1  0
 22 17  1  0
M  END
>  <plip>  (1) 
-0.034482758620689655

>  <filename>  (1) 
[H][c]1[n][c]([H])[c]([S](=[O])(=[O])[C]([H])([H])[c]2[n][c]([C]([F])([F])[F])[o][c]2[H])[c]([H])[c]1[H]

$$$$
