
     RDKit          3D

 31 33  0  0  0  0  0  0  0  0999 V2000
    8.7906    0.0797   21.2828 C   0  0  0  0  0  0  0  0  0  0  0  0
    7.3901   -0.5208   21.1215 C   0  0  2  0  0  0  0  0  0  0  0  0
    7.4319   -1.9513   20.9549 N   0  0  0  0  0  0  0  0  0  0  0  0
    7.7221   -2.8584   21.8971 C   0  0  0  0  0  0  0  0  0  0  0  0
    7.8405   -4.0777   21.4045 N   0  0  0  0  0  0  0  0  0  0  0  0
    8.1681   -5.0265   22.2845 C   0  0  0  0  0  0  0  0  0  0  0  0
    8.3971   -6.2880   22.0083 N   0  0  0  0  0  0  0  0  0  0  0  0
    8.8007   -6.8673   23.1634 C   0  0  0  0  0  0  0  0  0  0  0  0
    8.7995   -5.9864   24.2279 C   0  0  0  0  0  0  0  0  0  0  0  0
    8.3887   -4.7923   23.6680 N   0  0  0  0  0  0  0  0  0  0  0  0
    8.2232   -3.5220   24.1686 C   0  0  0  0  0  0  0  0  0  0  0  0
    7.8884   -2.5315   23.2987 C   0  0  0  0  0  0  0  0  0  0  0  0
    7.7718   -1.5117   23.6367 H   0  0  0  0  0  0  0  0  0  0  0  0
    8.3853   -3.4150   25.2435 H   0  0  0  0  0  0  0  0  0  0  0  0
    9.0730   -6.0503   25.2741 H   0  0  0  0  0  0  0  0  0  0  0  0
    9.1341   -7.8952   23.1112 H   0  0  0  0  0  0  0  0  0  0  0  0
    7.4904   -2.3722   20.0402 H   0  0  0  0  0  0  0  0  0  0  0  0
    6.6282    0.0277   19.9463 C   0  0  0  0  0  0  0  0  0  0  0  0
    5.4006    0.6752   20.1183 C   0  0  0  0  0  0  0  0  0  0  0  0
    4.8096    1.3057   19.0255 C   0  0  0  0  0  0  0  0  0  0  0  0
    5.4525    1.2330   17.7859 C   0  0  0  0  0  0  0  0  0  0  0  0
    6.5841    0.5394   17.5843 N   0  0  0  0  0  0  0  0  0  0  0  0
    7.1374   -0.0680   18.6444 C   0  0  0  0  0  0  0  0  0  0  0  0
    8.0415   -0.6422   18.4225 H   0  0  0  0  0  0  0  0  0  0  0  0
    5.0353    1.7386   16.9166 H   0  0  0  0  0  0  0  0  0  0  0  0
    3.8804    1.8549   19.1285 H   0  0  0  0  0  0  0  0  0  0  0  0
    4.9223    0.6727   21.0991 H   0  0  0  0  0  0  0  0  0  0  0  0
    6.8195   -0.2867   22.0342 H   0  0  0  0  0  0  0  0  0  0  0  0
    9.3993   -0.1030   20.3926 H   0  0  0  0  0  0  0  0  0  0  0  0
    8.7421    1.1599   21.4470 H   0  0  0  0  0  0  0  0  0  0  0  0
    9.3071   -0.3732   22.1340 H   0  0  0  0  0  0  0  0  0  0  0  0
  1  2  1  0
  2  3  1  0
  3  4  1  0
  4  5  2  0
  5  6  1  0
  6  7  2  0
  7  8  1  0
  8  9  2  0
  9 10  1  0
 10 11  1  0
 11 12  2  0
 12 13  1  0
 11 14  1  0
  9 15  1  0
  8 16  1  0
  3 17  1  0
  2 18  1  0
 18 19  2  0
 19 20  1  0
 20 21  2  0
 21 22  1  0
 22 23  2  0
 23 24  1  0
 21 25  1  0
 20 26  1  0
 19 27  1  0
  2 28  1  1
  1 29  1  0
  1 30  1  0
  1 31  1  0
 12  4  1  0
 23 18  1  0
 10  6  1  0
M  END
>  <plip>  (1) 
-0.1

>  <filename>  (1) 
[H][c]1[n][c]([H])[c]([C@@]([H])([N]([H])[c]2[n][c]3[n][c]([H])[c]([H])[n]3[c]([H])[c]2[H])[C]([H])([H])[H])[c]([H])[c]1[H]

$$$$
