
     RDKit          3D

 25 26  0  0  0  0  0  0  0  0999 V2000
    4.9646    1.8429   16.9613 H   0  0  0  0  0  0  0  0  0  0  0  0
    5.4030    1.3015   17.7971 C   0  0  0  0  0  0  0  0  0  0  0  0
    6.5672    0.6791   17.5509 N   0  0  0  0  0  0  0  0  0  0  0  0
    7.1648    0.0643   18.5796 C   0  0  0  0  0  0  0  0  0  0  0  0
    8.1097   -0.4356   18.3750 H   0  0  0  0  0  0  0  0  0  0  0  0
    6.6266    0.0097   19.8744 C   0  0  0  0  0  0  0  0  0  0  0  0
    7.5681   -0.8147   21.1733 S   0  0  0  0  0  0  0  0  0  0  0  0
    8.4866    0.5722   21.6987 N   0  0  0  0  0  0  0  0  0  0  0  0
    7.8847    1.0846   22.3509 H   0  0  0  0  0  0  0  0  0  0  0  0
    9.5742    0.0890   22.5508 O   0  0  0  0  0  0  0  0  0  0  0  0
   10.5245    1.0598   22.7817 C   0  0  0  0  0  0  0  0  0  0  0  0
   11.6250    0.6536   23.5517 C   0  0  0  0  0  0  0  0  0  0  0  0
   11.6125   -0.3669   23.9155 H   0  0  0  0  0  0  0  0  0  0  0  0
   12.6650    1.5490   23.8018 C   0  0  0  0  0  0  0  0  0  0  0  0
   13.5484    1.2378   24.3527 H   0  0  0  0  0  0  0  0  0  0  0  0
   12.5845    2.8592   23.3069 C   0  0  0  0  0  0  0  0  0  0  0  0
   13.8585    4.0153   23.5675 Cl  0  0  0  0  0  0  0  0  0  0  0  0
   11.4674    3.2828   22.5852 C   0  0  0  0  0  0  0  0  0  0  0  0
   11.4149    4.3078   22.2272 H   0  0  0  0  0  0  0  0  0  0  0  0
   10.4437    2.3796   22.3192 C   0  0  0  0  0  0  0  0  0  0  0  0
    9.5786    2.6821   21.7419 H   0  0  0  0  0  0  0  0  0  0  0  0
    5.3924    0.6338   20.1132 C   0  0  0  0  0  0  0  0  0  0  0  0
    4.9331    0.5931   21.1011 H   0  0  0  0  0  0  0  0  0  0  0  0
    4.7748    1.2983   19.0476 C   0  0  0  0  0  0  0  0  0  0  0  0
    3.8379    1.8323   19.1767 H   0  0  0  0  0  0  0  0  0  0  0  0
  1  2  1  0
  2  3  2  0
  3  4  1  0
  4  5  1  0
  4  6  2  0
  6  7  1  0
  7  8  1  0
  8  9  1  0
  8 10  1  0
 10 11  1  0
 11 12  2  0
 12 13  1  0
 12 14  1  0
 14 15  1  0
 14 16  2  0
 16 17  1  0
 16 18  1  0
 18 19  1  0
 18 20  2  0
 20 21  1  0
  6 22  1  0
 22 23  1  0
 22 24  2  0
 24 25  1  0
 24  2  1  0
 20 11  1  0
M  END
>  <plip>  (1) 
-0.06896551724137931

>  <filename>  (1) 
[H][c]1[n][c]([H])[c]([S][N]([H])[O][c]2[c]([H])[c]([H])[c]([Cl])[c]([H])[c]2[H])[c]([H])[c]1[H]

$$$$
