
     RDKit          3D

 33 34  0  0  0  0  0  0  0  0999 V2000
    5.6688   -2.0955   21.5567 O   0  0  0  0  0  0  0  0  0  0  0  0
    6.7536   -1.5800   21.7645 C   0  0  0  0  0  0  0  0  0  0  0  0
    7.6561   -1.9791   22.9174 C   0  0  0  0  0  0  0  0  0  0  0  0
    8.7921   -3.3146   22.4063 S   0  0  0  0  0  0  0  0  0  0  0  0
    7.5070   -4.6064   22.2318 C   0  0  0  0  0  0  0  0  0  0  0  0
    7.0115   -5.0928   23.5761 C   0  0  0  0  0  0  0  0  0  0  0  0
    7.9205   -5.7502   24.4144 C   0  0  0  0  0  0  0  0  0  0  0  0
    7.5219   -6.1945   25.6766 C   0  0  0  0  0  0  0  0  0  0  0  0
    8.4589   -6.7864   26.4591 O   0  0  0  0  0  0  0  0  0  0  0  0
    8.0069   -7.2835   27.1557 H   0  0  0  0  0  0  0  0  0  0  0  0
    6.2000   -6.0332   26.1024 C   0  0  0  0  0  0  0  0  0  0  0  0
    5.2920   -5.3744   25.2710 C   0  0  0  0  0  0  0  0  0  0  0  0
    5.6943   -4.8849   24.0239 C   0  0  0  0  0  0  0  0  0  0  0  0
    4.9944   -4.3369   23.3986 H   0  0  0  0  0  0  0  0  0  0  0  0
    4.2621   -5.2486   25.5940 H   0  0  0  0  0  0  0  0  0  0  0  0
    5.9092   -6.4091   27.0796 H   0  0  0  0  0  0  0  0  0  0  0  0
    8.9440   -5.9204   24.0991 H   0  0  0  0  0  0  0  0  0  0  0  0
    7.9592   -5.4212   21.6560 H   0  0  0  0  0  0  0  0  0  0  0  0
    6.6936   -4.1864   21.6347 H   0  0  0  0  0  0  0  0  0  0  0  0
    7.0570   -2.3288   23.7601 H   0  0  0  0  0  0  0  0  0  0  0  0
    8.2547   -1.1299   23.2494 H   0  0  0  0  0  0  0  0  0  0  0  0
    7.3408   -0.6533   20.9368 N   0  0  0  0  0  0  0  0  0  0  0  0
    6.6836    0.0132   19.8752 C   0  0  0  0  0  0  0  0  0  0  0  0
    5.4557    0.6354   20.1207 C   0  0  0  0  0  0  0  0  0  0  0  0
    4.8283    1.3058   19.0657 C   0  0  0  0  0  0  0  0  0  0  0  0
    5.4358    1.3080   17.8052 C   0  0  0  0  0  0  0  0  0  0  0  0
    6.6098    0.7043   17.5506 N   0  0  0  0  0  0  0  0  0  0  0  0
    7.2148    0.0799   18.5690 C   0  0  0  0  0  0  0  0  0  0  0  0
    8.1662   -0.4066   18.3522 H   0  0  0  0  0  0  0  0  0  0  0  0
    4.9596    1.7991   16.9602 H   0  0  0  0  0  0  0  0  0  0  0  0
    3.8854    1.8211   19.2097 H   0  0  0  0  0  0  0  0  0  0  0  0
    5.0288    0.5995   21.1220 H   0  0  0  0  0  0  0  0  0  0  0  0
    8.3429   -0.5746   21.0212 H   0  0  0  0  0  0  0  0  0  0  0  0
  1  2  2  0
  2  3  1  0
  3  4  1  0
  4  5  1  0
  5  6  1  0
  6  7  2  0
  7  8  1  0
  8  9  1  0
  9 10  1  0
  8 11  2  0
 11 12  1  0
 12 13  2  0
 13 14  1  0
 12 15  1  0
 11 16  1  0
  7 17  1  0
  5 18  1  0
  5 19  1  0
  3 20  1  0
  3 21  1  0
  2 22  1  0
 22 23  1  0
 23 24  2  0
 24 25  1  0
 25 26  2  0
 26 27  1  0
 27 28  2  0
 28 29  1  0
 26 30  1  0
 25 31  1  0
 24 32  1  0
 22 33  1  0
 13  6  1  0
 28 23  1  0
M  END
>  <plip>  (1) 
-0.17857142857142858

>  <filename>  (1) 
[H][O][c]1[c]([H])[c]([H])[c]([H])[c]([C]([H])([H])[S][C]([H])([H])[C](=[O])[N]([H])[c]2[c]([H])[n][c]([H])[c]([H])[c]2[H])[c]1[H]

$$$$
