
     RDKit          3D

 25 27  0  0  0  0  0  0  0  0999 V2000
    9.5551   -2.6325   26.9495 H   0  0  0  0  0  0  0  0  0  0  0  0
    8.9725   -2.0370   26.2564 C   0  0  0  0  0  0  0  0  0  0  0  0
    8.1550   -1.0920   26.5672 N   0  0  0  0  0  0  0  0  0  0  0  0
    7.6724   -0.6534   25.3449 C   0  0  0  0  0  0  0  0  0  0  0  0
    6.9560    0.1441   25.2526 H   0  0  0  0  0  0  0  0  0  0  0  0
    8.2406   -1.3792   24.3524 C   0  0  0  0  0  0  0  0  0  0  0  0
    8.0889   -1.3280   22.9720 N   0  0  0  0  0  0  0  0  0  0  0  0
    7.2417   -0.4369   22.3063 C   0  0  0  0  0  0  0  0  0  0  0  0
    6.6441    0.3131   22.8115 H   0  0  0  0  0  0  0  0  0  0  0  0
    7.3399   -0.6618   20.9846 C   0  0  0  0  0  0  0  0  0  0  0  0
    6.6521    0.0083   19.8923 C   0  0  0  0  0  0  0  0  0  0  0  0
    7.1728    0.0584   18.5882 C   0  0  0  0  0  0  0  0  0  0  0  0
    8.1255   -0.4199   18.3660 H   0  0  0  0  0  0  0  0  0  0  0  0
    6.5687    0.6811   17.5703 N   0  0  0  0  0  0  0  0  0  0  0  0
    5.4019    1.2926   17.8372 C   0  0  0  0  0  0  0  0  0  0  0  0
    4.9123    1.7773   16.9993 H   0  0  0  0  0  0  0  0  0  0  0  0
    4.7998    1.3145   19.1022 C   0  0  0  0  0  0  0  0  0  0  0  0
    3.8688    1.8471   19.2612 H   0  0  0  0  0  0  0  0  0  0  0  0
    5.4347    0.6609   20.1503 C   0  0  0  0  0  0  0  0  0  0  0  0
    5.0021    0.6308   21.1534 H   0  0  0  0  0  0  0  0  0  0  0  0
    8.2558   -1.6849   20.8208 N   0  0  0  0  0  0  0  0  0  0  0  0
    8.5290   -2.1315   19.9680 H   0  0  0  0  0  0  0  0  0  0  0  0
    8.7385   -2.1461   22.0261 C   0  0  0  0  0  0  0  0  0  0  0  0
    9.5230   -3.0410   22.2017 O   0  0  0  0  0  0  0  0  0  0  0  0
    9.0841   -2.2780   24.9205 O   0  0  0  0  0  0  0  0  0  0  0  0
  1  2  1  0
  2  3  2  0
  3  4  1  0
  4  5  1  0
  4  6  2  0
  6  7  1  0
  7  8  1  0
  8  9  1  0
  8 10  2  0
 10 11  1  0
 11 12  2  0
 12 13  1  0
 12 14  1  0
 14 15  2  0
 15 16  1  0
 15 17  1  0
 17 18  1  0
 17 19  2  0
 19 20  1  0
 10 21  1  0
 21 22  1  0
 21 23  1  0
 23 24  2  0
  6 25  1  0
 25  2  1  0
 23  7  1  0
 19 11  1  0
M  END
>  <plip>  (1) 
-0.03333333333333333

>  <filename>  (1) 
[H][c]1[n][c]([H])[c](-[n]2[c]([H])[c](-[c]3[c]([H])[n][c]([H])[c]([H])[c]3[H])[n]([H])[c]2=[O])[o]1

$$$$
