
     RDKit          3D

 41 43  0  0  0  0  0  0  0  0999 V2000
    5.1289   -4.3581   26.1059 C   0  0  0  0  0  0  0  0  0  0  0  0
    5.3722   -3.0147   26.3910 C   0  0  0  0  0  0  0  0  0  0  0  0
    6.2886   -2.2652   25.6362 C   0  0  0  0  0  0  0  0  0  0  0  0
    6.9715   -2.8757   24.5703 C   0  0  0  0  0  0  0  0  0  0  0  0
    7.8841   -2.2610   23.7504 O   0  0  0  0  0  0  0  0  0  0  0  0
    8.2725   -0.8865   23.9550 C   0  0  0  0  0  0  0  0  0  0  0  0
    9.1653   -0.6587   25.1933 C   0  0  0  0  0  0  0  0  0  0  0  0
   10.4701    0.0245   24.6970 C   0  0  0  0  0  0  0  0  0  0  0  0
   10.1414    0.5755   23.2944 C   0  0  0  0  0  0  0  0  0  0  0  0
    9.1006   -0.3862   22.7419 C   0  0  0  0  0  0  0  0  0  0  0  0
    8.3114    0.2454   21.6424 N   0  0  0  0  0  4  0  0  0  0  0  0
    7.3968   -0.6989   20.9820 C   0  0  0  0  0  0  0  0  0  0  0  0
    6.6635    0.0343   19.9100 C   0  0  0  0  0  0  0  0  0  0  0  0
    5.4367    0.6646   20.1565 C   0  0  0  0  0  0  0  0  0  0  0  0
    4.8015    1.3164   19.0998 C   0  0  0  0  0  0  0  0  0  0  0  0
    5.4019    1.2978   17.8368 C   0  0  0  0  0  0  0  0  0  0  0  0
    6.5672    0.6884   17.5803 N   0  0  0  0  0  0  0  0  0  0  0  0
    7.1767    0.0830   18.6061 C   0  0  0  0  0  0  0  0  0  0  0  0
    8.1149   -0.4197   18.3693 H   0  0  0  0  0  0  0  0  0  0  0  0
    4.9227    1.7858   16.9897 H   0  0  0  0  0  0  0  0  0  0  0  0
    3.8705    1.8450   19.2485 H   0  0  0  0  0  0  0  0  0  0  0  0
    4.9981    0.6393   21.1597 H   0  0  0  0  0  0  0  0  0  0  0  0
    6.6981   -1.1172   21.7142 H   0  0  0  0  0  0  0  0  0  0  0  0
    7.9688   -1.5465   20.5852 H   0  0  0  0  0  0  0  0  0  0  0  0
    7.7318    1.0262   22.0472 H   0  0  0  0  0  0  0  0  0  0  0  0
    8.9157    0.6926   20.9111 H   0  0  0  0  0  0  0  0  0  0  0  0
    9.5824   -1.2863   22.3564 H   0  0  0  0  0  0  0  0  0  0  0  0
    9.7172    1.5864   23.3580 H   0  0  0  0  0  0  0  0  0  0  0  0
   11.0213    0.6362   22.6421 H   0  0  0  0  0  0  0  0  0  0  0  0
   10.8247    0.8049   25.3782 H   0  0  0  0  0  0  0  0  0  0  0  0
   11.2755   -0.7134   24.6328 H   0  0  0  0  0  0  0  0  0  0  0  0
    8.6478   -0.0216   25.9200 H   0  0  0  0  0  0  0  0  0  0  0  0
    9.3604   -1.6154   25.6841 H   0  0  0  0  0  0  0  0  0  0  0  0
    7.3697   -0.2679   24.0044 H   0  0  0  0  0  0  0  0  0  0  0  0
    6.7265   -4.2342   24.2829 C   0  0  0  0  0  0  0  0  0  0  0  0
    5.8148   -4.9649   25.0460 C   0  0  0  0  0  0  0  0  0  0  0  0
    5.6392   -6.0127   24.8151 H   0  0  0  0  0  0  0  0  0  0  0  0
    7.2697   -4.6899   23.4610 H   0  0  0  0  0  0  0  0  0  0  0  0
    6.4639   -1.2205   25.8736 H   0  0  0  0  0  0  0  0  0  0  0  0
    4.8419   -2.5337   27.2112 H   0  0  0  0  0  0  0  0  0  0  0  0
    4.4187   -4.9323   26.6986 H   0  0  0  0  0  0  0  0  0  0  0  0
  1  2  2  0
  2  3  1  0
  3  4  2  0
  4  5  1  0
  5  6  1  0
  6  7  1  0
  7  8  1  0
  8  9  1  0
  9 10  1  0
 10 11  1  0
 11 12  1  0
 12 13  1  0
 13 14  2  0
 14 15  1  0
 15 16  2  0
 16 17  1  0
 17 18  2  0
 18 19  1  0
 16 20  1  0
 15 21  1  0
 14 22  1  0
 12 23  1  0
 12 24  1  0
 11 25  1  0
 11 26  1  0
 10 27  1  0
  9 28  1  0
  9 29  1  0
  8 30  1  0
  8 31  1  0
  7 32  1  0
  7 33  1  0
  6 34  1  0
  4 35  1  0
 35 36  2  0
 36 37  1  0
 35 38  1  0
  3 39  1  0
  2 40  1  0
  1 41  1  0
 36  1  1  0
 10  6  1  0
 18 13  1  0
M  CHG  1  11   1
M  END
>  <plip>  (1) 
-0.03571428571428571

>  <filename>  (1) 
[H][c]1[n][c]([H])[c]([C]([H])([H])[N+]([H])([H])[C]2([H])[C]([H])([H])[C]([H])([H])[C]([H])([H])[C]2([H])[O][c]2[c]([H])[c]([H])[c]([H])[c]([H])[c]2[H])[c]([H])[c]1[H]

$$$$
