
     RDKit          3D

 28 30  0  0  0  0  0  0  0  0999 V2000
    6.5642    0.6038   22.6839 O   0  0  0  0  0  0  0  0  0  0  0  0
    7.3310   -0.2739   22.2971 C   0  0  0  0  0  0  0  0  0  0  0  0
    7.4490   -0.5776   20.9466 N   0  0  0  0  0  0  0  0  0  0  0  0
    6.7376    0.0261   19.8939 C   0  0  0  0  0  0  0  0  0  0  0  0
    5.5441    0.6937   20.1716 C   0  0  0  0  0  0  0  0  0  0  0  0
    4.8820    1.3168   19.1138 C   0  0  0  0  0  0  0  0  0  0  0  0
    5.4344    1.2726   17.8249 C   0  0  0  0  0  0  0  0  0  0  0  0
    6.5675    0.6057   17.5341 N   0  0  0  0  0  0  0  0  0  0  0  0
    7.1968   -0.0139   18.5517 C   0  0  0  0  0  0  0  0  0  0  0  0
    8.1112   -0.5565   18.3216 H   0  0  0  0  0  0  0  0  0  0  0  0
    4.9270    1.8002   17.0274 H   0  0  0  0  0  0  0  0  0  0  0  0
    3.9563    1.8552   19.2860 H   0  0  0  0  0  0  0  0  0  0  0  0
    5.1569    0.7216   21.1908 H   0  0  0  0  0  0  0  0  0  0  0  0
    8.0364   -1.3779   20.7285 H   0  0  0  0  0  0  0  0  0  0  0  0
    8.0935   -1.0946   23.2600 C   0  0  0  0  0  0  0  0  0  0  0  0
    9.3498   -1.6772   22.9436 C   0  0  0  0  0  0  0  0  0  0  0  0
   10.2910   -1.5746   21.8381 C   0  0  0  0  0  0  0  0  0  0  0  0
   11.3497   -2.3340   22.0137 N   0  0  0  0  0  0  0  0  0  0  0  0
   11.1341   -2.9565   23.2050 N   0  0  0  0  0  0  0  0  0  0  0  0
    9.9659   -2.5436   23.8174 C   0  0  0  0  0  0  0  0  0  0  0  0
    9.4180   -2.8221   25.0631 C   0  0  0  0  0  0  0  0  0  0  0  0
    8.2249   -2.1892   25.4311 C   0  0  0  0  0  0  0  0  0  0  0  0
    7.5575   -1.3392   24.5410 C   0  0  0  0  0  0  0  0  0  0  0  0
    5.9072   -0.5201   25.0941 Br  0  0  0  0  0  0  0  0  0  0  0  0
    7.7768   -2.3662   26.4020 H   0  0  0  0  0  0  0  0  0  0  0  0
    9.9093   -3.5038   25.7482 H   0  0  0  0  0  0  0  0  0  0  0  0
   11.7928   -3.6057   23.6412 H   0  0  0  0  0  0  0  0  0  0  0  0
   10.1368   -0.9424   20.9760 H   0  0  0  0  0  0  0  0  0  0  0  0
  1  2  2  0
  2  3  1  0
  3  4  1  0
  4  5  2  0
  5  6  1  0
  6  7  2  0
  7  8  1  0
  8  9  2  0
  9 10  1  0
  7 11  1  0
  6 12  1  0
  5 13  1  0
  3 14  1  0
  2 15  1  0
 15 16  2  0
 16 17  1  0
 17 18  2  0
 18 19  1  0
 19 20  1  0
 20 21  2  0
 21 22  1  0
 22 23  2  0
 23 24  1  0
 22 25  1  0
 21 26  1  0
 19 27  1  0
 17 28  1  0
  9  4  1  0
 23 15  1  0
 20 16  1  0
M  END
>  <plip>  (1) 
-0.10714285714285714

>  <filename>  (1) 
[H][c]1[n][c]([H])[c]([N]([H])[C](=[O])[c]2[c]([Br])[c]([H])[c]([H])[c]3[c]2[c]([H])[n][n]3[H])[c]([H])[c]1[H]

$$$$
