
     RDKit          3D

 37 39  0  0  0  0  0  0  0  0999 V2000
    4.8194    1.3068   19.0906 C   0  0  0  0  0  0  0  0  0  0  0  0
    5.4334    1.2835   17.8345 C   0  0  0  0  0  0  0  0  0  0  0  0
    6.5935    0.6525   17.5947 N   0  0  0  0  0  0  0  0  0  0  0  0
    7.1894    0.0319   18.6155 C   0  0  0  0  0  0  0  0  0  0  0  0
    6.6540   -0.0098   19.9161 C   0  0  0  0  0  0  0  0  0  0  0  0
    7.3828   -0.7489   20.9510 C   0  0  0  0  0  0  0  0  0  0  0  0
    8.5086   -1.3691   20.7415 N   0  0  0  0  0  0  0  0  0  0  0  0
    8.9737   -1.9468   21.8898 C   0  0  0  0  0  0  0  0  0  0  0  0
    8.2250   -1.7891   23.0154 C   0  0  0  0  0  0  0  0  0  0  0  0
    8.5060   -2.2760   24.3930 C   0  0  0  0  0  0  0  0  0  0  0  0
    7.9040   -3.6539   24.4562 N   0  0  0  0  0  4  0  0  0  0  0  0
    8.0043   -4.3529   25.7674 C   0  0  0  0  0  0  0  0  0  0  0  0
    6.7447   -4.1725   26.6264 C   0  0  2  0  0  0  0  0  0  0  0  0
    6.4296   -2.7480   27.1310 C   0  0  0  0  0  0  0  0  0  0  0  0
    5.4281   -3.0305   28.2650 C   0  0  0  0  0  0  0  0  0  0  0  0
    5.7964   -4.3071   28.7838 O   0  0  0  0  0  0  0  0  0  0  0  0
    6.7833   -4.9203   27.9636 C   0  0  0  0  0  0  0  0  0  0  0  0
    6.5661   -5.9964   27.8854 H   0  0  0  0  0  0  0  0  0  0  0  0
    7.7675   -4.8027   28.4507 H   0  0  0  0  0  0  0  0  0  0  0  0
    5.4506   -2.3028   29.0965 H   0  0  0  0  0  0  0  0  0  0  0  0
    4.3942   -3.0802   27.8848 H   0  0  0  0  0  0  0  0  0  0  0  0
    7.3333   -2.2604   27.5343 H   0  0  0  0  0  0  0  0  0  0  0  0
    6.0142   -2.0828   26.3694 H   0  0  0  0  0  0  0  0  0  0  0  0
    5.8883   -4.5546   26.0464 H   0  0  0  0  0  0  0  0  0  0  0  0
    8.8737   -3.9760   26.3243 H   0  0  0  0  0  0  0  0  0  0  0  0
    8.1829   -5.4195   25.6092 H   0  0  0  0  0  0  0  0  0  0  0  0
    8.3211   -4.1681   23.6508 H   0  0  0  0  0  0  0  0  0  0  0  0
    6.8927   -3.5066   24.2163 H   0  0  0  0  0  0  0  0  0  0  0  0
    8.0625   -1.6420   25.1689 H   0  0  0  0  0  0  0  0  0  0  0  0
    9.5853   -2.3128   24.5852 H   0  0  0  0  0  0  0  0  0  0  0  0
    6.8062   -0.8881   22.6025 S   0  0  0  0  0  0  0  0  0  0  0  0
    9.9171   -2.4816   21.8500 H   0  0  0  0  0  0  0  0  0  0  0  0
    5.4390    0.6551   20.1542 C   0  0  0  0  0  0  0  0  0  0  0  0
    4.9840    0.6726   21.1460 H   0  0  0  0  0  0  0  0  0  0  0  0
    8.1366   -0.4547   18.3937 H   0  0  0  0  0  0  0  0  0  0  0  0
    4.9787    1.7924   16.9877 H   0  0  0  0  0  0  0  0  0  0  0  0
    3.8849    1.8409   19.2263 H   0  0  0  0  0  0  0  0  0  0  0  0
  1  2  2  0
  2  3  1  0
  3  4  2  0
  4  5  1  0
  5  6  1  0
  6  7  2  0
  7  8  1  0
  8  9  2  0
  9 10  1  0
 10 11  1  0
 11 12  1  0
 12 13  1  0
 13 14  1  0
 14 15  1  0
 15 16  1  0
 16 17  1  0
 17 18  1  0
 17 19  1  0
 15 20  1  0
 15 21  1  0
 14 22  1  0
 14 23  1  0
 13 24  1  6
 12 25  1  0
 12 26  1  0
 11 27  1  0
 11 28  1  0
 10 29  1  0
 10 30  1  0
  9 31  1  0
  8 32  1  0
  5 33  2  0
 33 34  1  0
  4 35  1  0
  2 36  1  0
  1 37  1  0
 33  1  1  0
 31  6  1  0
 17 13  1  0
M  CHG  1  11   1
M  END
>  <plip>  (1) 
-0.034482758620689655

>  <filename>  (1) 
[H][c]1[n][c](-[c]2[c]([H])[n][c]([H])[c]([H])[c]2[H])[s][c]1[C]([H])([H])[N+]([H])([H])[C]([H])([H])[C@@]1([H])[C]([H])([H])[O][C]([H])([H])[C]1([H])[H]

$$$$
