
     RDKit          3D

 28 29  0  0  0  0  0  0  0  0999 V2000
    6.4246   -3.4686   18.7754 H   0  0  0  0  0  0  0  0  0  0  0  0
    6.2606   -2.6109   19.2004 O   0  0  0  0  0  0  0  0  0  0  0  0
    6.0561   -2.9177   20.5447 N   0  0  0  0  0  0  0  0  0  0  0  0
    6.5252   -2.0371   21.3483 C   0  0  0  0  0  0  0  0  0  0  0  0
    6.3159   -2.3044   22.3876 H   0  0  0  0  0  0  0  0  0  0  0  0
    7.3286   -0.7620   21.0292 C   0  0  0  0  0  0  0  0  0  0  0  0
    6.6528    0.0169   19.8878 C   0  0  0  0  0  0  0  0  0  0  0  0
    7.1692    0.0861   18.5816 C   0  0  0  0  0  0  0  0  0  0  0  0
    8.1036   -0.4161   18.3297 H   0  0  0  0  0  0  0  0  0  0  0  0
    6.5643    0.7098   17.5578 N   0  0  0  0  0  0  0  0  0  0  0  0
    5.3961    1.3165   17.8083 C   0  0  0  0  0  0  0  0  0  0  0  0
    4.9251    1.8144   16.9633 H   0  0  0  0  0  0  0  0  0  0  0  0
    4.7898    1.3207   19.0692 C   0  0  0  0  0  0  0  0  0  0  0  0
    3.8575    1.8498   19.2261 H   0  0  0  0  0  0  0  0  0  0  0  0
    5.4284    0.6535   20.1184 C   0  0  0  0  0  0  0  0  0  0  0  0
    4.9859    0.6428   21.1175 H   0  0  0  0  0  0  0  0  0  0  0  0
    8.8328   -1.0886   20.7779 C   0  0  0  0  0  0  0  0  0  0  0  0
    9.2863   -0.2169   20.2876 H   0  0  0  0  0  0  0  0  0  0  0  0
    8.9782   -1.9465   20.1128 H   0  0  0  0  0  0  0  0  0  0  0  0
    9.4620   -1.2981   22.1647 C   0  0  0  0  0  0  0  0  0  0  0  0
    9.4116   -2.3562   22.4490 H   0  0  0  0  0  0  0  0  0  0  0  0
   10.5272   -1.0355   22.1706 H   0  0  0  0  0  0  0  0  0  0  0  0
    8.6275   -0.4331   23.1396 C   0  0  0  0  0  0  0  0  0  0  0  0
    9.2096    0.3922   23.5664 H   0  0  0  0  0  0  0  0  0  0  0  0
    8.2754   -1.0251   23.9916 H   0  0  0  0  0  0  0  0  0  0  0  0
    7.4459    0.1137   22.3129 C   0  0  0  0  0  0  0  0  0  0  0  0
    6.5058    0.1522   22.8789 H   0  0  0  0  0  0  0  0  0  0  0  0
    7.6532    1.1387   21.9864 H   0  0  0  0  0  0  0  0  0  0  0  0
  1  2  1  0
  2  3  1  0
  3  4  2  3
  4  5  1  0
  4  6  1  0
  6  7  1  0
  7  8  2  0
  8  9  1  0
  8 10  1  0
 10 11  2  0
 11 12  1  0
 11 13  1  0
 13 14  1  0
 13 15  2  0
 15 16  1  0
  6 17  1  0
 17 18  1  0
 17 19  1  0
 17 20  1  0
 20 21  1  0
 20 22  1  0
 20 23  1  0
 23 24  1  0
 23 25  1  0
 23 26  1  0
 26 27  1  0
 26 28  1  0
 26  6  1  0
 15  7  1  0
M  END
>  <plip>  (1) 
-0.14285714285714285

>  <filename>  (1) 
[H][O][N]=[C]([H])[C]1([c]2[c]([H])[n][c]([H])[c]([H])[c]2[H])[C]([H])([H])[C]([H])([H])[C]([H])([H])[C]1([H])[H]

$$$$
