
     RDKit          3D

 30 31  0  0  0  0  0  0  0  0999 V2000
    9.2397    1.0440   28.0924 H   0  0  0  0  0  0  0  0  0  0  0  0
    8.3125    1.2458   27.8247 O   0  0  0  0  0  0  0  0  0  0  0  0
    8.5585    1.7064   26.5951 C   0  0  0  0  0  0  0  0  0  0  0  0
    9.6799    1.7095   26.1460 O   0  0  0  0  0  0  0  0  0  0  0  0
    7.2884    2.2506   25.7833 C   0  0  0  0  0  0  0  0  0  0  0  0
    6.7098    3.2548   26.1445 O   0  0  0  0  0  0  0  0  0  0  0  0
    6.9490    1.5580   24.5291 C   0  0  0  0  0  0  0  0  0  0  0  0
    6.5042    2.1601   23.7428 H   0  0  0  0  0  0  0  0  0  0  0  0
    7.2144    0.2282   24.3822 C   0  0  0  0  0  0  0  0  0  0  0  0
    7.5154   -0.4746   25.4705 O   0  0  0  0  0  0  0  0  0  0  0  0
    7.7914   -1.3948   25.1925 H   0  0  0  0  0  0  0  0  0  0  0  0
    7.1822   -0.4682   23.0753 C   0  0  0  0  0  0  0  0  0  0  0  0
    6.7385    0.2031   22.0253 N   0  0  0  0  0  0  0  0  0  0  0  0
    6.7591   -0.4151   20.8270 N   0  0  0  0  0  0  0  0  0  0  0  0
    6.3225    0.3448   19.6880 C   0  0  0  0  0  0  0  0  0  0  0  0
    7.0189    0.2586   18.4671 C   0  0  0  0  0  0  0  0  0  0  0  0
    7.9413   -0.3174   18.4244 H   0  0  0  0  0  0  0  0  0  0  0  0
    6.6262    0.8520   17.3349 N   0  0  0  0  0  0  0  0  0  0  0  0
    5.4931    1.5735   17.3809 C   0  0  0  0  0  0  0  0  0  0  0  0
    5.1625    1.9993   16.4341 H   0  0  0  0  0  0  0  0  0  0  0  0
    4.7505    1.7590   18.5571 C   0  0  0  0  0  0  0  0  0  0  0  0
    3.8604    2.3839   18.5251 H   0  0  0  0  0  0  0  0  0  0  0  0
    5.1822    1.1556   19.7477 C   0  0  0  0  0  0  0  0  0  0  0  0
    4.6720    1.3028   20.7026 H   0  0  0  0  0  0  0  0  0  0  0  0
    7.1751   -1.7206   20.6863 C   0  0  0  0  0  0  0  0  0  0  0  0
    7.0477   -2.1347   19.6864 H   0  0  0  0  0  0  0  0  0  0  0  0
    7.6781   -2.4264   21.7212 C   0  0  0  0  0  0  0  0  0  0  0  0
    8.0688   -3.4297   21.6080 H   0  0  0  0  0  0  0  0  0  0  0  0
    7.7077   -1.8504   23.0395 C   0  0  0  0  0  0  0  0  0  0  0  0
    8.1317   -2.4702   24.0394 O   0  0  0  0  0  0  0  0  0  0  0  0
  1  2  1  0
  2  3  1  0
  3  4  2  0
  3  5  1  0
  5  6  2  0
  5  7  1  0
  7  8  1  0
  7  9  2  3
  9 10  1  0
 10 11  1  0
  9 12  1  0
 12 13  2  0
 13 14  1  0
 14 15  1  0
 15 16  2  0
 16 17  1  0
 16 18  1  0
 18 19  2  0
 19 20  1  0
 19 21  1  0
 21 22  1  0
 21 23  2  0
 23 24  1  0
 14 25  1  0
 25 26  1  0
 25 27  2  0
 27 28  1  0
 27 29  1  0
 29 30  2  0
 29 12  1  0
 23 15  1  0
M  END
>  <plip>  (1) 
-0.07142857142857142

>  <filename>  (1) 
[H][O][C](=[O])[C](=[O])[C]([H])=[C]([O][H])[c]1[n][n](-[c]2[c]([H])[n][c]([H])[c]([H])[c]2[H])[c]([H])[c]([H])[c]1=[O]

$$$$
