
     RDKit          3D

 37 39  0  0  0  0  0  0  0  0999 V2000
    5.0428    1.7900   16.9508 H   0  0  0  0  0  0  0  0  0  0  0  0
    5.4842    1.3158   17.8261 C   0  0  0  0  0  0  0  0  0  0  0  0
    6.6799    0.7377   17.6431 N   0  0  0  0  0  0  0  0  0  0  0  0
    7.2636    0.1470   18.6970 C   0  0  0  0  0  0  0  0  0  0  0  0
    8.2505   -0.2734   18.5068 H   0  0  0  0  0  0  0  0  0  0  0  0
    6.6648    0.0518   19.9647 C   0  0  0  0  0  0  0  0  0  0  0  0
    7.2831   -0.7074   21.1241 C   0  0  1  0  0  0  0  0  0  0  0  0
    6.6368   -0.5789   22.0039 H   0  0  0  0  0  0  0  0  0  0  0  0
    7.4236   -2.2528   20.9605 C   0  0  0  0  0  0  0  0  0  0  0  0
    6.5864   -3.0972   20.7834 O   0  0  0  0  0  0  0  0  0  0  0  0
    8.7626   -2.4876   21.1011 N   0  0  0  0  0  0  0  0  0  0  0  0
    9.2073   -3.3662   20.9696 H   0  0  0  0  0  0  0  0  0  0  0  0
    9.5332   -1.3752   21.2553 C   0  0  0  0  0  0  0  0  0  0  0  0
   10.7359   -1.3752   21.2368 O   0  0  0  0  0  0  0  0  0  0  0  0
    8.6830   -0.3200   21.4356 N   0  0  0  0  0  0  0  0  0  0  0  0
    9.2243    0.9631   21.3648 C   0  0  0  0  0  0  0  0  0  0  0  0
    8.7436    1.7881   20.6142 O   0  0  0  0  0  0  0  0  0  0  0  0
   10.3031    1.2355   22.1697 N   0  0  0  0  0  0  0  0  0  0  0  0
   10.9318    2.5557   22.0334 C   0  0  0  0  0  0  0  0  0  0  0  0
   10.6102    2.9763   21.0838 H   0  0  0  0  0  0  0  0  0  0  0  0
   10.6047    3.2361   22.8329 H   0  0  0  0  0  0  0  0  0  0  0  0
   12.4455    2.4208   22.0146 C   0  0  0  0  0  0  0  0  0  0  0  0
   12.9089    3.4107   21.9371 H   0  0  0  0  0  0  0  0  0  0  0  0
   12.6708    1.8778   21.0942 H   0  0  0  0  0  0  0  0  0  0  0  0
   12.9955    1.6545   23.2186 C   0  0  0  0  0  0  0  0  0  0  0  0
   12.8673    2.2582   24.1283 H   0  0  0  0  0  0  0  0  0  0  0  0
   14.0755    1.4906   23.1046 H   0  0  0  0  0  0  0  0  0  0  0  0
   12.2659    0.3170   23.3577 C   0  0  0  0  0  0  0  0  0  0  0  0
   12.5708   -0.1766   24.2848 H   0  0  0  0  0  0  0  0  0  0  0  0
   12.5206   -0.3446   22.5228 H   0  0  0  0  0  0  0  0  0  0  0  0
   10.7400    0.4895   23.3616 C   0  0  0  0  0  0  0  0  0  0  0  0
   10.2609   -0.4903   23.4071 H   0  0  0  0  0  0  0  0  0  0  0  0
   10.4307    1.0527   24.2572 H   0  0  0  0  0  0  0  0  0  0  0  0
    5.4330    0.6932   20.1413 C   0  0  0  0  0  0  0  0  0  0  0  0
    4.9649    0.7165   21.1261 H   0  0  0  0  0  0  0  0  0  0  0  0
    4.8236    1.3246   19.0551 C   0  0  0  0  0  0  0  0  0  0  0  0
    3.8689    1.8264   19.1495 H   0  0  0  0  0  0  0  0  0  0  0  0
  1  2  1  0
  2  3  2  0
  3  4  1  0
  4  5  1  0
  4  6  2  0
  6  7  1  0
  7  8  1  1
  7  9  1  0
  9 10  2  0
  9 11  1  0
 11 12  1  0
 11 13  1  0
 13 14  2  0
 13 15  1  0
 15 16  1  0
 16 17  2  0
 16 18  1  0
 18 19  1  0
 19 20  1  0
 19 21  1  0
 19 22  1  0
 22 23  1  0
 22 24  1  0
 22 25  1  0
 25 26  1  0
 25 27  1  0
 25 28  1  0
 28 29  1  0
 28 30  1  0
 28 31  1  0
 31 32  1  0
 31 33  1  0
  6 34  1  0
 34 35  1  0
 34 36  2  0
 36 37  1  0
 36  2  1  0
 15  7  1  0
 31 18  1  0
M  END
>  <plip>  (1) 
-0.13793103448275862

>  <filename>  (1) 
[H][c]1[n][c]([H])[c]([C@@]2([H])[C](=[O])[N]([H])[C](=[O])[N]2[C](=[O])[N]2[C]([H])([H])[C]([H])([H])[C]([H])([H])[C]([H])([H])[C]2([H])[H])[c]([H])[c]1[H]

$$$$
