
     RDKit          3D

 38 40  0  0  0  0  0  0  0  0999 V2000
    6.9954   -0.1657   26.0300 C   0  0  0  0  0  0  0  0  0  0  0  0
    7.9524    0.1749   24.9722 N   0  0  0  0  0  0  0  0  0  0  0  0
    8.2271   -0.8061   24.0284 C   0  0  0  0  0  0  0  0  0  0  0  0
    7.8185   -1.9524   24.1278 O   0  0  0  0  0  0  0  0  0  0  0  0
    9.1158   -0.3858   22.8010 C   0  0  0  0  0  0  0  0  0  0  0  0
    8.3172    0.2622   21.5943 N   0  0  0  0  0  4  0  0  0  0  0  0
    7.3945   -0.7047   20.9572 C   0  0  0  0  0  0  0  0  0  0  0  0
    6.6430    0.0208   19.8931 C   0  0  0  0  0  0  0  0  0  0  0  0
    5.4253    0.6666   20.1386 C   0  0  0  0  0  0  0  0  0  0  0  0
    4.7926    1.3264   19.0849 C   0  0  0  0  0  0  0  0  0  0  0  0
    5.3975    1.3133   17.8244 C   0  0  0  0  0  0  0  0  0  0  0  0
    6.5677    0.7044   17.5755 N   0  0  0  0  0  0  0  0  0  0  0  0
    7.1662    0.0841   18.5961 C   0  0  0  0  0  0  0  0  0  0  0  0
    8.1152   -0.4054   18.3650 H   0  0  0  0  0  0  0  0  0  0  0  0
    4.9300    1.8085   16.9732 H   0  0  0  0  0  0  0  0  0  0  0  0
    3.8545    1.8544   19.2234 H   0  0  0  0  0  0  0  0  0  0  0  0
    4.9808    0.6513   21.1368 H   0  0  0  0  0  0  0  0  0  0  0  0
    6.7269   -1.1143   21.7164 H   0  0  0  0  0  0  0  0  0  0  0  0
    7.9594   -1.5487   20.5479 H   0  0  0  0  0  0  0  0  0  0  0  0
    7.7249    1.0607   21.9597 H   0  0  0  0  0  0  0  0  0  0  0  0
    8.8960    0.7126   20.8427 H   0  0  0  0  0  0  0  0  0  0  0  0
   10.2130    0.5680   23.2528 C   0  0  0  0  0  0  0  0  0  0  0  0
    9.6462    1.7113   24.0724 C   0  0  0  0  0  0  0  0  0  0  0  0
   10.1935    2.9957   24.0055 C   0  0  0  0  0  0  0  0  0  0  0  0
    9.6577    4.0543   24.7460 C   0  0  0  0  0  0  0  0  0  0  0  0
    8.5445    3.8249   25.5609 C   0  0  0  0  0  0  0  0  0  0  0  0
    7.9782    2.5478   25.6346 C   0  0  0  0  0  0  0  0  0  0  0  0
    8.5239    1.4780   24.9045 C   0  0  0  0  0  0  0  0  0  0  0  0
    7.1110    2.3659   26.2584 H   0  0  0  0  0  0  0  0  0  0  0  0
    8.1186    4.6312   26.1548 H   0  0  0  0  0  0  0  0  0  0  0  0
   10.1076    5.0423   24.6854 H   0  0  0  0  0  0  0  0  0  0  0  0
   11.0514    3.1626   23.3555 H   0  0  0  0  0  0  0  0  0  0  0  0
   10.9362    0.0046   23.8564 H   0  0  0  0  0  0  0  0  0  0  0  0
   10.7627    0.9418   22.3844 H   0  0  0  0  0  0  0  0  0  0  0  0
    9.5165   -1.3470   22.4749 H   0  0  0  0  0  0  0  0  0  0  0  0
    7.3555    0.2152   26.9909 H   0  0  0  0  0  0  0  0  0  0  0  0
    6.0015    0.2469   25.8082 H   0  0  0  0  0  0  0  0  0  0  0  0
    6.9127   -1.2534   26.0783 H   0  0  0  0  0  0  0  0  0  0  0  0
  1  2  1  0
  2  3  1  0
  3  4  2  0
  3  5  1  0
  5  6  1  0
  6  7  1  0
  7  8  1  0
  8  9  2  0
  9 10  1  0
 10 11  2  0
 11 12  1  0
 12 13  2  0
 13 14  1  0
 11 15  1  0
 10 16  1  0
  9 17  1  0
  7 18  1  0
  7 19  1  0
  6 20  1  0
  6 21  1  0
  5 22  1  0
 22 23  1  0
 23 24  2  0
 24 25  1  0
 25 26  2  0
 26 27  1  0
 27 28  2  0
 27 29  1  0
 26 30  1  0
 25 31  1  0
 24 32  1  0
 22 33  1  0
 22 34  1  0
  5 35  1  0
  1 36  1  0
  1 37  1  0
  1 38  1  0
 28  2  1  0
 13  8  1  0
 28 23  1  0
M  CHG  1   6   1
M  END
>  <plip>  (1) 
-0.10714285714285714

>  <filename>  (1) 
[H][c]1[n][c]([H])[c]([C]([H])([H])[N+]([H])([H])[C]2([H])[C](=[O])[N]([C]([H])([H])[H])[c]3[c]([H])[c]([H])[c]([H])[c]([H])[c]3[C]2([H])[H])[c]([H])[c]1[H]

$$$$
