
     RDKit          3D

 38 39  0  0  0  0  0  0  0  0999 V2000
    8.4100    3.6642   26.1435 C   0  0  0  0  0  0  0  0  0  0  0  0
    8.1642    2.2163   25.7325 C   0  0  0  0  0  0  0  0  0  0  0  0
    9.3310    1.5502   25.1524 N   0  0  0  0  0  0  0  0  0  0  0  0
   10.1020    0.7763   25.9343 N   0  0  0  0  0  0  0  0  0  0  0  0
   11.1036    0.3638   25.2268 N   0  0  0  0  0  0  0  0  0  0  0  0
   11.0137    0.8846   23.9798 C   0  0  0  0  0  0  0  0  0  0  0  0
   11.9942    0.6025   22.8993 C   0  0  0  0  0  0  0  0  0  0  0  0
   12.5654    1.5017   22.6414 H   0  0  0  0  0  0  0  0  0  0  0  0
   11.4679    0.2592   22.0006 H   0  0  0  0  0  0  0  0  0  0  0  0
   12.6845   -0.1745   23.2266 H   0  0  0  0  0  0  0  0  0  0  0  0
    9.8802    1.6582   23.9086 C   0  0  0  0  0  0  0  0  0  0  0  0
    9.1972    2.2727   22.7253 C   0  0  0  0  0  0  0  0  0  0  0  0
    8.1449    1.3383   22.2350 N   0  0  0  0  0  4  0  0  0  0  0  0
    8.6313    0.0997   21.5236 C   0  0  0  0  0  0  0  0  0  0  0  0
    7.4272   -0.6960   21.0008 C   0  0  0  0  0  0  0  0  0  0  0  0
    6.6519   -0.0082   19.8777 C   0  0  0  0  0  0  0  0  0  0  0  0
    5.4334    0.6545   20.1128 C   0  0  0  0  0  0  0  0  0  0  0  0
    4.7980    1.3231   19.0614 C   0  0  0  0  0  0  0  0  0  0  0  0
    5.4054    1.3175   17.8060 C   0  0  0  0  0  0  0  0  0  0  0  0
    6.5580    0.6875   17.5460 N   0  0  0  0  0  0  0  0  0  0  0  0
    7.1539    0.0476   18.5583 C   0  0  0  0  0  0  0  0  0  0  0  0
    8.0959   -0.4458   18.3023 H   0  0  0  0  0  0  0  0  0  0  0  0
    4.9476    1.8548   16.9763 H   0  0  0  0  0  0  0  0  0  0  0  0
    3.8678    1.8626   19.2060 H   0  0  0  0  0  0  0  0  0  0  0  0
    4.9910    0.6651   21.1108 H   0  0  0  0  0  0  0  0  0  0  0  0
    7.7975   -1.6732   20.6658 H   0  0  0  0  0  0  0  0  0  0  0  0
    6.7551   -0.9253   21.8402 H   0  0  0  0  0  0  0  0  0  0  0  0
    9.2894    0.3688   20.6866 H   0  0  0  0  0  0  0  0  0  0  0  0
    9.2208   -0.4986   22.2278 H   0  0  0  0  0  0  0  0  0  0  0  0
    7.6480    0.9934   23.0929 H   0  0  0  0  0  0  0  0  0  0  0  0
    7.4489    1.7891   21.6015 H   0  0  0  0  0  0  0  0  0  0  0  0
    9.9321    2.4919   21.9408 H   0  0  0  0  0  0  0  0  0  0  0  0
    8.7392    3.2290   22.9940 H   0  0  0  0  0  0  0  0  0  0  0  0
    7.8406    1.6202   26.5888 H   0  0  0  0  0  0  0  0  0  0  0  0
    7.3475    2.1731   25.0107 H   0  0  0  0  0  0  0  0  0  0  0  0
    8.7325    4.2818   25.3001 H   0  0  0  0  0  0  0  0  0  0  0  0
    9.1783    3.7187   26.9106 H   0  0  0  0  0  0  0  0  0  0  0  0
    7.4902    4.0971   26.5479 H   0  0  0  0  0  0  0  0  0  0  0  0
  1  2  1  0
  2  3  1  0
  3  4  1  0
  4  5  2  0
  5  6  1  0
  6  7  1  0
  7  8  1  0
  7  9  1  0
  7 10  1  0
  6 11  2  0
 11 12  1  0
 12 13  1  0
 13 14  1  0
 14 15  1  0
 15 16  1  0
 16 17  2  0
 17 18  1  0
 18 19  2  0
 19 20  1  0
 20 21  2  0
 21 22  1  0
 19 23  1  0
 18 24  1  0
 17 25  1  0
 15 26  1  0
 15 27  1  0
 14 28  1  0
 14 29  1  0
 13 30  1  0
 13 31  1  0
 12 32  1  0
 12 33  1  0
  2 34  1  0
  2 35  1  0
  1 36  1  0
  1 37  1  0
  1 38  1  0
 11  3  1  0
 21 16  1  0
M  CHG  1  13   1
M  END
>  <plip>  (1) 
-0.07142857142857142

>  <filename>  (1) 
[H][c]1[n][c]([H])[c]([C]([H])([H])[C]([H])([H])[N+]([H])([H])[C]([H])([H])[c]2[c]([C]([H])([H])[H])[n][n][n]2[C]([H])([H])[C]([H])([H])[H])[c]([H])[c]1[H]

$$$$
