
     RDKit          3D

 25 27  0  0  0  0  0  0  0  0999 V2000
    4.9831    1.7691   17.0159 H   0  0  0  0  0  0  0  0  0  0  0  0
    5.4274    1.2680   17.8678 C   0  0  0  0  0  0  0  0  0  0  0  0
    6.5936    0.6375   17.6271 N   0  0  0  0  0  0  0  0  0  0  0  0
    7.1833    0.0274   18.6570 C   0  0  0  0  0  0  0  0  0  0  0  0
    8.1369   -0.4637   18.4655 H   0  0  0  0  0  0  0  0  0  0  0  0
    6.6428   -0.0023   19.9510 C   0  0  0  0  0  0  0  0  0  0  0  0
    7.3983   -0.7054   20.9406 N   0  0  0  0  0  0  0  0  0  0  0  0
    6.8866   -0.7193   22.0753 N   0  0  0  0  0  0  0  0  0  0  0  0
    7.6818   -1.4278   23.0444 C   0  0  0  0  0  0  0  0  0  0  0  0
    7.2771   -1.4984   24.2705 N   0  0  0  0  0  0  0  0  0  0  0  0
    8.1569   -2.2421   25.0254 C   0  0  0  0  0  0  0  0  0  0  0  0
    7.9537   -2.6028   26.3711 C   0  0  0  0  0  0  0  0  0  0  0  0
    7.1119   -2.1706   26.9034 H   0  0  0  0  0  0  0  0  0  0  0  0
    8.8225   -3.5058   26.9711 C   0  0  0  0  0  0  0  0  0  0  0  0
    8.6147   -3.8812   27.9705 H   0  0  0  0  0  0  0  0  0  0  0  0
    9.9643   -3.9501   26.2791 C   0  0  0  0  0  0  0  0  0  0  0  0
   10.6704   -4.5971   26.7856 H   0  0  0  0  0  0  0  0  0  0  0  0
   10.2279   -3.5457   24.9722 C   0  0  0  0  0  0  0  0  0  0  0  0
   11.1361   -3.8745   24.4762 H   0  0  0  0  0  0  0  0  0  0  0  0
    9.2940   -2.7267   24.3262 C   0  0  0  0  0  0  0  0  0  0  0  0
    9.2097   -2.2186   22.6597 S   0  0  0  0  0  0  0  0  0  0  0  0
    5.4257    0.6495   20.1951 C   0  0  0  0  0  0  0  0  0  0  0  0
    5.0346    0.6149   21.2133 H   0  0  0  0  0  0  0  0  0  0  0  0
    4.8097    1.2973   19.1246 C   0  0  0  0  0  0  0  0  0  0  0  0
    3.8764    1.8327   19.2590 H   0  0  0  0  0  0  0  0  0  0  0  0
  1  2  1  0
  2  3  2  0
  3  4  1  0
  4  5  1  0
  4  6  2  0
  6  7  1  0
  7  8  2  3
  8  9  1  0
  9 10  2  0
 10 11  1  0
 11 12  2  0
 12 13  1  0
 12 14  1  0
 14 15  1  0
 14 16  2  0
 16 17  1  0
 16 18  1  0
 18 19  1  0
 18 20  2  0
 20 21  1  0
  6 22  1  0
 22 23  1  0
 22 24  2  0
 24 25  1  0
 24  2  1  0
 21  9  1  0
 20 11  1  0
M  END
>  <plip>  (1) 
-0.034482758620689655

>  <filename>  (1) 
[H][c]1[n][c]([H])[c]([N]=[N][c]2[n][c]3[c]([H])[c]([H])[c]([H])[c]([H])[c]3[s]2)[c]([H])[c]1[H]

$$$$
