
     RDKit          3D

 36 37  0  0  0  0  0  0  0  0999 V2000
    4.9522    1.8287   16.7013 H   0  0  0  0  0  0  0  0  0  0  0  0
    5.3269    1.4335   17.6439 C   0  0  0  0  0  0  0  0  0  0  0  0
    6.5075    0.8008   17.5816 N   0  0  0  0  0  0  0  0  0  0  0  0
    6.9949    0.3130   18.7234 C   0  0  0  0  0  0  0  0  0  0  0  0
    7.9573   -0.1892   18.6688 H   0  0  0  0  0  0  0  0  0  0  0  0
    6.3564    0.4242   19.9725 C   0  0  0  0  0  0  0  0  0  0  0  0
    7.0139   -0.2430   21.1230 C   0  0  0  0  0  0  0  0  0  0  0  0
    7.7176   -1.2955   20.8401 N   0  0  0  0  0  0  0  0  0  0  0  0
    8.2777   -2.0266   21.8821 N   0  0  0  0  0  0  0  0  0  0  0  0
    8.8756   -3.2927   21.4887 C   0  0  0  0  0  0  0  0  0  0  0  0
    9.5608   -3.6101   22.2859 H   0  0  0  0  0  0  0  0  0  0  0  0
    9.4725   -3.0947   20.5862 H   0  0  0  0  0  0  0  0  0  0  0  0
    7.8879   -4.3177   21.2053 N   0  0  0  0  0  0  0  0  0  0  0  0
    7.1751   -3.8402   20.6510 H   0  0  0  0  0  0  0  0  0  0  0  0
    7.2016   -4.9596   22.3250 C   0  0  0  0  0  0  0  0  0  0  0  0
    6.7566   -4.2235   23.0218 H   0  0  0  0  0  0  0  0  0  0  0  0
    8.1793   -5.8247   23.1068 C   0  0  0  0  0  0  0  0  0  0  0  0
    8.9942   -5.2259   23.5183 H   0  0  0  0  0  0  0  0  0  0  0  0
    8.6081   -6.6026   22.4658 H   0  0  0  0  0  0  0  0  0  0  0  0
    7.6740   -6.2970   23.9544 H   0  0  0  0  0  0  0  0  0  0  0  0
    6.0711   -5.8081   21.7465 C   0  0  0  0  0  0  0  0  0  0  0  0
    6.4739   -6.5683   21.0664 H   0  0  0  0  0  0  0  0  0  0  0  0
    5.5068   -6.3136   22.5386 H   0  0  0  0  0  0  0  0  0  0  0  0
    5.3559   -5.1939   21.1900 H   0  0  0  0  0  0  0  0  0  0  0  0
    8.4909   -1.5924   23.1764 C   0  0  0  0  0  0  0  0  0  0  0  0
    9.0435   -2.2820   24.0210 O   0  0  0  0  0  0  0  0  0  0  0  0
    8.0641   -0.1609   23.4335 C   0  0  0  0  0  0  0  0  0  0  0  0
    7.8395   -0.1061   24.5004 H   0  0  0  0  0  0  0  0  0  0  0  0
    8.9592    0.4563   23.2642 H   0  0  0  0  0  0  0  0  0  0  0  0
    6.8752    0.2726   22.5464 C   0  0  0  0  0  0  0  0  0  0  0  0
    5.9506   -0.1341   22.9771 H   0  0  0  0  0  0  0  0  0  0  0  0
    6.7632    1.3628   22.5250 H   0  0  0  0  0  0  0  0  0  0  0  0
    5.1359    1.1173   20.0261 C   0  0  0  0  0  0  0  0  0  0  0  0
    4.6122    1.2889   20.9713 H   0  0  0  0  0  0  0  0  0  0  0  0
    4.6066    1.6075   18.8302 C   0  0  0  0  0  0  0  0  0  0  0  0
    3.6642    2.1442   18.8056 H   0  0  0  0  0  0  0  0  0  0  0  0
  1  2  1  0
  2  3  2  0
  3  4  1  0
  4  5  1  0
  4  6  2  0
  6  7  1  0
  7  8  2  0
  8  9  1  0
  9 10  1  0
 10 11  1  0
 10 12  1  0
 10 13  1  0
 13 14  1  0
 13 15  1  0
 15 16  1  0
 15 17  1  0
 17 18  1  0
 17 19  1  0
 17 20  1  0
 15 21  1  0
 21 22  1  0
 21 23  1  0
 21 24  1  0
  9 25  1  0
 25 26  2  0
 25 27  1  0
 27 28  1  0
 27 29  1  0
 27 30  1  0
 30 31  1  0
 30 32  1  0
  6 33  1  0
 33 34  1  0
 33 35  2  0
 35 36  1  0
 35  2  1  0
 30  7  1  0
M  END
>  <plip>  (1) 
-0.06896551724137931

>  <filename>  (1) 
[H][c]1[n][c]([H])[c]([C]2=[N][N]([C]([H])([H])[N]([H])[C]([H])([C]([H])([H])[H])[C]([H])([H])[H])[C](=[O])[C]([H])([H])[C]2([H])[H])[c]([H])[c]1[H]

$$$$
