
     RDKit          3D

 36 37  0  0  0  0  0  0  0  0999 V2000
    7.2592   -3.7778   27.1611 C   0  0  0  0  0  0  0  0  0  0  0  0
    7.5927   -2.4344   26.6949 N   0  0  0  0  0  0  0  0  0  0  0  0
    8.0731   -2.2622   25.3231 C   0  0  0  0  0  0  0  0  0  0  0  0
    7.1316   -1.4798   24.3890 C   0  0  0  0  0  0  0  0  0  0  0  0
    7.7416   -1.4863   23.0855 O   0  0  0  0  0  0  0  0  0  0  0  0
    6.9218   -0.7786   22.2282 N   0  0  0  0  0  0  0  0  0  0  0  0
    7.3781   -0.7187   21.0356 C   0  0  0  0  0  0  0  0  0  0  0  0
    6.6444   -0.0049   19.9629 C   0  0  0  0  0  0  0  0  0  0  0  0
    5.4199    0.6557   20.1827 C   0  0  0  0  0  0  0  0  0  0  0  0
    4.8051    1.3044   19.1119 C   0  0  0  0  0  0  0  0  0  0  0  0
    5.4189    1.2745   17.8562 C   0  0  0  0  0  0  0  0  0  0  0  0
    6.5814    0.6471   17.6242 N   0  0  0  0  0  0  0  0  0  0  0  0
    7.1720    0.0354   18.6571 C   0  0  0  0  0  0  0  0  0  0  0  0
    8.1223   -0.4380   18.4053 H   0  0  0  0  0  0  0  0  0  0  0  0
    4.9700    1.7745   17.0004 H   0  0  0  0  0  0  0  0  0  0  0  0
    3.8735    1.8435   19.2325 H   0  0  0  0  0  0  0  0  0  0  0  0
    4.9724    0.6590   21.1750 H   0  0  0  0  0  0  0  0  0  0  0  0
    8.3270   -1.2050   20.7910 H   0  0  0  0  0  0  0  0  0  0  0  0
    7.0119   -0.4380   24.7197 H   0  0  0  0  0  0  0  0  0  0  0  0
    6.1400   -1.9468   24.3260 H   0  0  0  0  0  0  0  0  0  0  0  0
    9.0590   -1.7637   25.2902 H   0  0  0  0  0  0  0  0  0  0  0  0
    8.2172   -3.2618   24.8906 H   0  0  0  0  0  0  0  0  0  0  0  0
    7.2983   -1.3065   27.4843 C   0  0  0  0  0  0  0  0  0  0  0  0
    8.1585   -0.1845   27.4793 C   0  0  0  0  0  0  0  0  0  0  0  0
    7.8720    0.9313   28.2731 C   0  0  0  0  0  0  0  0  0  0  0  0
    6.7619    0.9330   29.1157 C   0  0  0  0  0  0  0  0  0  0  0  0
    5.8945   -0.1605   29.1287 C   0  0  0  0  0  0  0  0  0  0  0  0
    6.1501   -1.2642   28.3085 C   0  0  0  0  0  0  0  0  0  0  0  0
    5.4944   -2.1263   28.3173 H   0  0  0  0  0  0  0  0  0  0  0  0
    5.0242   -0.1617   29.7825 H   0  0  0  0  0  0  0  0  0  0  0  0
    6.5903    1.7928   29.7565 H   0  0  0  0  0  0  0  0  0  0  0  0
    8.4822    1.8267   28.2230 H   0  0  0  0  0  0  0  0  0  0  0  0
    9.0585   -0.2253   26.8739 H   0  0  0  0  0  0  0  0  0  0  0  0
    7.7503   -4.5172   26.5148 H   0  0  0  0  0  0  0  0  0  0  0  0
    6.1777   -3.9880   27.1543 H   0  0  0  0  0  0  0  0  0  0  0  0
    7.6363   -3.9613   28.1747 H   0  0  0  0  0  0  0  0  0  0  0  0
  1  2  1  0
  2  3  1  0
  3  4  1  0
  4  5  1  0
  5  6  1  0
  6  7  2  3
  7  8  1  0
  8  9  2  0
  9 10  1  0
 10 11  2  0
 11 12  1  0
 12 13  2  0
 13 14  1  0
 11 15  1  0
 10 16  1  0
  9 17  1  0
  7 18  1  0
  4 19  1  0
  4 20  1  0
  3 21  1  0
  3 22  1  0
  2 23  1  0
 23 24  2  0
 24 25  1  0
 25 26  2  0
 26 27  1  0
 27 28  2  0
 28 29  1  0
 27 30  1  0
 26 31  1  0
 25 32  1  0
 24 33  1  0
  1 34  1  0
  1 35  1  0
  1 36  1  0
 13  8  1  0
 28 23  1  0
M  END
>  <plip>  (1) 
-0.0

>  <filename>  (1) 
[H][C](=[N][O][C]([H])([H])[C]([H])([H])[N]([c]1[c]([H])[c]([H])[c]([H])[c]([H])[c]1[H])[C]([H])([H])[H])[c]1[c]([H])[n][c]([H])[c]([H])[c]1[H]

$$$$
