
     RDKit          3D

 27 28  0  0  0  0  0  0  0  0999 V2000
    4.9676    1.7958   16.9988 H   0  0  0  0  0  0  0  0  0  0  0  0
    5.4238    1.2784   17.8397 C   0  0  0  0  0  0  0  0  0  0  0  0
    6.5804    0.6473   17.5852 N   0  0  0  0  0  0  0  0  0  0  0  0
    7.1734    0.0189   18.6047 C   0  0  0  0  0  0  0  0  0  0  0  0
    8.1138   -0.4804   18.3890 H   0  0  0  0  0  0  0  0  0  0  0  0
    6.6574   -0.0059   19.9118 C   0  0  0  0  0  0  0  0  0  0  0  0
    7.4192   -0.7118   20.9651 C   0  0  0  0  0  0  0  0  0  0  0  0
    8.2331   -1.6277   20.5620 N   0  0  0  0  0  0  0  0  0  0  0  0
    8.8069   -2.4215   21.5556 N   0  0  0  0  0  0  0  0  0  0  0  0
    8.2658   -3.3132   22.4666 C   0  0  0  0  0  0  0  0  0  0  0  0
    6.8163   -3.6764   22.5706 C   0  0  0  0  0  0  0  0  0  0  0  0
    6.7090   -4.7532   22.7132 H   0  0  0  0  0  0  0  0  0  0  0  0
    6.3963   -3.1915   23.4592 H   0  0  0  0  0  0  0  0  0  0  0  0
    6.2407   -3.3746   21.6927 H   0  0  0  0  0  0  0  0  0  0  0  0
    9.1993   -3.7521   23.2763 N   0  0  0  0  0  0  0  0  0  0  0  0
   10.3731   -3.1585   22.8656 C   0  0  0  0  0  0  0  0  0  0  0  0
   11.3014   -3.3649   23.3764 H   0  0  0  0  0  0  0  0  0  0  0  0
   10.1529   -2.3530   21.7828 C   0  0  0  0  0  0  0  0  0  0  0  0
   10.7626   -1.7551   21.1221 H   0  0  0  0  0  0  0  0  0  0  0  0
    7.2267   -0.3077   22.4074 C   0  0  0  0  0  0  0  0  0  0  0  0
    6.3441   -0.8109   22.8150 H   0  0  0  0  0  0  0  0  0  0  0  0
    7.0998    0.7733   22.4873 H   0  0  0  0  0  0  0  0  0  0  0  0
    8.0956   -0.6020   22.9974 H   0  0  0  0  0  0  0  0  0  0  0  0
    5.4389    0.6477   20.1568 C   0  0  0  0  0  0  0  0  0  0  0  0
    4.9960    0.6589   21.1548 H   0  0  0  0  0  0  0  0  0  0  0  0
    4.8101    1.2969   19.0959 C   0  0  0  0  0  0  0  0  0  0  0  0
    3.8784    1.8360   19.2371 H   0  0  0  0  0  0  0  0  0  0  0  0
  1  2  1  0
  2  3  2  0
  3  4  1  0
  4  5  1  0
  4  6  2  0
  6  7  1  0
  7  8  2  3
  8  9  1  0
  9 10  1  0
 10 11  1  0
 11 12  1  0
 11 13  1  0
 11 14  1  0
 10 15  2  0
 15 16  1  0
 16 17  1  0
 16 18  2  0
 18 19  1  0
  7 20  1  0
 20 21  1  0
 20 22  1  0
 20 23  1  0
  6 24  1  0
 24 25  1  0
 24 26  2  0
 26 27  1  0
 26  2  1  0
 18  9  1  0
M  END
>  <plip>  (1) 
-0.034482758620689655

>  <filename>  (1) 
[H][c]1[n][c]([H])[c]([C](=[N][n]2[c]([C]([H])([H])[H])[n][c]([H])[c]2[H])[C]([H])([H])[H])[c]([H])[c]1[H]

$$$$
