
     RDKit          3D

 36 37  0  0  0  0  0  0  0  0999 V2000
   11.8590    1.4155   22.9867 C   0  0  0  0  0  0  0  0  0  0  0  0
   10.7317    2.3829   22.8453 C   0  0  0  0  0  0  0  0  0  0  0  0
    9.5788    2.1439   22.1508 C   0  0  0  0  0  0  0  0  0  0  0  0
    9.2333    0.9527   21.3314 C   0  0  0  0  0  0  0  0  0  0  0  0
    8.0218    0.2110   21.9494 N   0  0  0  0  0  4  0  0  0  0  0  0
    8.3273   -0.4115   23.3091 C   0  0  0  0  0  0  0  0  0  0  0  0
    8.9332   -1.8287   23.2408 C   0  0  0  0  0  0  0  0  0  0  0  0
   10.2564   -1.8952   22.6127 C   0  0  0  0  0  0  0  0  0  0  0  0
   11.3051   -1.9347   22.1270 N   0  0  0  0  0  0  0  0  0  0  0  0
    9.0224   -2.2246   24.2542 H   0  0  0  0  0  0  0  0  0  0  0  0
    8.2665   -2.4981   22.6903 H   0  0  0  0  0  0  0  0  0  0  0  0
    7.4073   -0.4771   23.9052 H   0  0  0  0  0  0  0  0  0  0  0  0
    9.0144    0.2564   23.8335 H   0  0  0  0  0  0  0  0  0  0  0  0
    7.3664   -0.7437   20.9853 C   0  0  0  0  0  0  0  0  0  0  0  0
    6.6545    0.0196   19.9067 C   0  0  0  0  0  0  0  0  0  0  0  0
    5.4417    0.6719   20.1584 C   0  0  0  0  0  0  0  0  0  0  0  0
    4.8039    1.3204   19.1001 C   0  0  0  0  0  0  0  0  0  0  0  0
    5.3979    1.2999   17.8339 C   0  0  0  0  0  0  0  0  0  0  0  0
    6.5601    0.6829   17.5793 N   0  0  0  0  0  0  0  0  0  0  0  0
    7.1665    0.0729   18.6036 C   0  0  0  0  0  0  0  0  0  0  0  0
    8.1147   -0.4139   18.3666 H   0  0  0  0  0  0  0  0  0  0  0  0
    4.9267    1.7979   16.9853 H   0  0  0  0  0  0  0  0  0  0  0  0
    3.8709    1.8496   19.2400 H   0  0  0  0  0  0  0  0  0  0  0  0
    5.0130    0.6514   21.1665 H   0  0  0  0  0  0  0  0  0  0  0  0
    8.1279   -1.4051   20.5555 H   0  0  0  0  0  0  0  0  0  0  0  0
    6.6540   -1.3756   21.5322 H   0  0  0  0  0  0  0  0  0  0  0  0
    7.3533    1.0206   22.0522 H   0  0  0  0  0  0  0  0  0  0  0  0
    8.9412    1.2502   20.3190 H   0  0  0  0  0  0  0  0  0  0  0  0
   10.0742    0.2646   21.2469 H   0  0  0  0  0  0  0  0  0  0  0  0
    8.5362    3.5178   22.2781 S   0  0  0  0  0  0  0  0  0  0  0  0
    9.7450    4.3139   23.2247 C   0  0  0  0  0  0  0  0  0  0  0  0
   10.8107    3.6136   23.4541 N   0  0  0  0  0  0  0  0  0  0  0  0
    9.5969    5.3231   23.5973 H   0  0  0  0  0  0  0  0  0  0  0  0
   12.1906    1.0477   22.0098 H   0  0  0  0  0  0  0  0  0  0  0  0
   11.5470    0.5395   23.5645 H   0  0  0  0  0  0  0  0  0  0  0  0
   12.7041    1.8900   23.4904 H   0  0  0  0  0  0  0  0  0  0  0  0
  1  2  1  0
  2  3  2  0
  3  4  1  0
  4  5  1  0
  5  6  1  0
  6  7  1  0
  7  8  1  0
  8  9  3  0
  7 10  1  0
  7 11  1  0
  6 12  1  0
  6 13  1  0
  5 14  1  0
 14 15  1  0
 15 16  2  0
 16 17  1  0
 17 18  2  0
 18 19  1  0
 19 20  2  0
 20 21  1  0
 18 22  1  0
 17 23  1  0
 16 24  1  0
 14 25  1  0
 14 26  1  0
  5 27  1  0
  4 28  1  0
  4 29  1  0
  3 30  1  0
 30 31  1  0
 31 32  2  0
 31 33  1  0
  1 34  1  0
  1 35  1  0
  1 36  1  0
 32  2  1  0
 20 15  1  0
M  CHG  1   5   1
M  END
>  <plip>  (1) 
-0.03571428571428571

>  <filename>  (1) 
[H][c]1[n][c]([C]([H])([H])[H])[c]([C]([H])([H])[N+]([H])([C]([H])([H])[c]2[c]([H])[n][c]([H])[c]([H])[c]2[H])[C]([H])([H])[C]([H])([H])[C]#[N])[s]1

$$$$
