
     RDKit          3D

 43 46  0  0  0  0  0  0  0  0999 V2000
    8.0486    2.1056   21.9484 O   0  0  0  0  0  0  0  0  0  0  0  0
    8.9013    1.2418   21.8012 C   0  0  0  0  0  0  0  0  0  0  0  0
    8.6210   -0.0128   21.3742 N   0  0  0  0  0  0  0  0  0  0  0  0
    7.2483   -0.4802   21.2335 C   0  0  0  0  0  0  0  0  0  0  0  0
    7.3042   -2.0110   21.1404 C   0  0  0  0  0  0  0  0  0  0  0  0
    5.9421   -2.7150   21.0384 C   0  0  0  0  0  0  0  0  0  0  0  0
    6.0534   -4.2259   21.0373 C   0  0  0  0  0  0  0  0  0  0  0  0
    5.0794   -5.0951   21.7766 C   0  0  0  0  0  0  0  0  0  0  0  0
    6.4975   -4.9727   22.2677 C   0  0  0  0  0  0  0  0  0  0  0  0
    7.1753   -5.8170   22.1477 H   0  0  0  0  0  0  0  0  0  0  0  0
    6.6406   -4.4118   23.1930 H   0  0  0  0  0  0  0  0  0  0  0  0
    4.3150   -4.6222   22.3902 H   0  0  0  0  0  0  0  0  0  0  0  0
    4.7637   -6.0280   21.3182 H   0  0  0  0  0  0  0  0  0  0  0  0
    6.4130   -4.6473   20.1001 H   0  0  0  0  0  0  0  0  0  0  0  0
    5.3274   -2.4205   21.9018 H   0  0  0  0  0  0  0  0  0  0  0  0
    5.4218   -2.3825   20.1286 H   0  0  0  0  0  0  0  0  0  0  0  0
    7.8340   -2.3796   22.0309 H   0  0  0  0  0  0  0  0  0  0  0  0
    7.9315   -2.2475   20.2780 H   0  0  0  0  0  0  0  0  0  0  0  0
    6.5580    0.1869   20.0526 C   0  0  0  0  0  0  0  0  0  0  0  0
    5.3133    0.8305   20.1689 C   0  0  0  0  0  0  0  0  0  0  0  0
    4.7301    1.3906   19.0273 C   0  0  0  0  0  0  0  0  0  0  0  0
    5.4158    1.2951   17.8124 C   0  0  0  0  0  0  0  0  0  0  0  0
    6.6029    0.6848   17.6765 N   0  0  0  0  0  0  0  0  0  0  0  0
    7.1521    0.1620   18.7825 C   0  0  0  0  0  0  0  0  0  0  0  0
    8.1212   -0.3198   18.6374 H   0  0  0  0  0  0  0  0  0  0  0  0
    4.9955    1.7224   16.9037 H   0  0  0  0  0  0  0  0  0  0  0  0
    3.7780    1.9107   19.0685 H   0  0  0  0  0  0  0  0  0  0  0  0
    4.8229    0.9096   21.1434 H   0  0  0  0  0  0  0  0  0  0  0  0
    6.6815   -0.2053   22.1390 H   0  0  0  0  0  0  0  0  0  0  0  0
    9.3891   -0.6294   21.1668 H   0  0  0  0  0  0  0  0  0  0  0  0
   10.3283    1.5406   22.0816 C   0  0  0  0  0  0  0  0  0  0  0  0
   10.8841    2.7411   22.4445 C   0  0  0  0  0  0  0  0  0  0  0  0
   10.3555    4.0239   22.7133 C   0  0  0  0  0  0  0  0  0  0  0  0
   11.2372    5.0666   22.9225 C   0  0  0  0  0  0  0  0  0  0  0  0
   12.6592    4.8347   22.8758 C   0  0  0  0  0  0  0  0  0  0  0  0
   13.2026    3.5935   22.6534 C   0  0  0  0  0  0  0  0  0  0  0  0
   12.2864    2.4867   22.4292 C   0  0  0  0  0  0  0  0  0  0  0  0
   12.5454    1.2217   22.1394 N   0  0  0  0  0  0  0  0  0  0  0  0
   11.3134    0.6405   21.9174 O   0  0  0  0  0  0  0  0  0  0  0  0
   14.2757    3.4304   22.5916 H   0  0  0  0  0  0  0  0  0  0  0  0
   13.3313    5.6806   23.0093 H   0  0  0  0  0  0  0  0  0  0  0  0
   10.8657    6.0752   23.0789 H   0  0  0  0  0  0  0  0  0  0  0  0
    9.2778    4.1281   22.6914 H   0  0  0  0  0  0  0  0  0  0  0  0
  1  2  2  0
  2  3  1  0
  3  4  1  0
  4  5  1  0
  5  6  1  0
  6  7  1  0
  7  8  1  0
  8  9  1  0
  9 10  1  0
  9 11  1  0
  8 12  1  0
  8 13  1  0
  7 14  1  0
  6 15  1  0
  6 16  1  0
  5 17  1  0
  5 18  1  0
  4 19  1  0
 19 20  2  0
 20 21  1  0
 21 22  2  0
 22 23  1  0
 23 24  2  0
 24 25  1  0
 22 26  1  0
 21 27  1  0
 20 28  1  0
  4 29  1  0
  3 30  1  0
  2 31  1  0
 31 32  2  0
 32 33  1  0
 33 34  2  0
 34 35  1  0
 35 36  2  0
 36 37  1  0
 37 38  2  0
 38 39  1  0
 36 40  1  0
 35 41  1  0
 34 42  1  0
 33 43  1  0
  9  7  1  0
 24 19  1  0
 39 31  1  0
 37 32  1  0
M  END
>  <plip>  (1) 
-0.06666666666666667

>  <filename>  (1) 
[H][c]1[n][c]([H])[c]([C]([H])([N]([H])[C](=[O])[c]2[o][n][c]3[c]([H])[c]([H])[c]([H])[c]([H])[c]23)[C]([H])([H])[C]([H])([H])[C]2([H])[C]([H])([H])[C]2([H])[H])[c]([H])[c]1[H]

$$$$
