
     RDKit          3D

 30 32  0  0  0  0  0  0  0  0999 V2000
    5.0578    1.7349   16.8519 H   0  0  0  0  0  0  0  0  0  0  0  0
    5.4157    1.3153   17.7936 C   0  0  0  0  0  0  0  0  0  0  0  0
    6.5819    0.6535   17.7444 N   0  0  0  0  0  0  0  0  0  0  0  0
    7.0479    0.1389   18.8914 C   0  0  0  0  0  0  0  0  0  0  0  0
    7.9814   -0.4228   18.8254 H   0  0  0  0  0  0  0  0  0  0  0  0
    6.3966    0.2516   20.1340 C   0  0  0  0  0  0  0  0  0  0  0  0
    7.0247   -0.3385   21.3890 C   0  0  0  0  0  0  0  0  0  0  0  0
    7.5673   -1.2465   21.1338 H   0  0  0  0  0  0  0  0  0  0  0  0
    6.2341   -0.6232   22.0974 H   0  0  0  0  0  0  0  0  0  0  0  0
    7.9641    0.5543   22.0854 N   0  0  0  0  0  0  0  0  0  0  0  0
    7.5911    1.6023   22.8679 C   0  0  0  0  0  0  0  0  0  0  0  0
    6.5495    1.8782   22.9836 H   0  0  0  0  0  0  0  0  0  0  0  0
    8.6081    2.1878   23.4473 N   0  0  0  0  0  0  0  0  0  0  0  0
    9.7121    1.5156   23.0292 C   0  0  0  0  0  0  0  0  0  0  0  0
   10.6984    1.8032   23.3732 H   0  0  0  0  0  0  0  0  0  0  0  0
    9.3635    0.5021   22.1725 C   0  0  0  0  0  0  0  0  0  0  0  0
   10.2287   -0.4291   21.4289 C   0  0  0  0  0  0  0  0  0  0  0  0
    9.7560   -1.1462   20.5529 O   0  0  0  0  0  0  0  0  0  0  0  0
   11.6958   -0.5596   21.6968 C   0  0  0  0  0  0  0  0  0  0  0  0
   12.3962    0.2923   22.5234 O   0  0  0  0  0  0  0  0  0  0  0  0
   13.6958   -0.1000   22.4959 C   0  0  0  0  0  0  0  0  0  0  0  0
   14.3881    0.5236   23.0432 H   0  0  0  0  0  0  0  0  0  0  0  0
   13.8432   -1.1862   21.7004 C   0  0  0  0  0  0  0  0  0  0  0  0
   14.7536   -1.7357   21.5078 H   0  0  0  0  0  0  0  0  0  0  0  0
   12.5609   -1.4766   21.1745 C   0  0  0  0  0  0  0  0  0  0  0  0
   12.3025   -2.2456   20.4640 H   0  0  0  0  0  0  0  0  0  0  0  0
    5.1615    0.9180   20.1506 C   0  0  0  0  0  0  0  0  0  0  0  0
    4.5804    0.9995   21.0724 H   0  0  0  0  0  0  0  0  0  0  0  0
    4.6681    1.4654   18.9633 C   0  0  0  0  0  0  0  0  0  0  0  0
    3.7341    2.0183   18.9343 H   0  0  0  0  0  0  0  0  0  0  0  0
  1  2  1  0
  2  3  2  0
  3  4  1  0
  4  5  1  0
  4  6  2  0
  6  7  1  0
  7  8  1  0
  7  9  1  0
  7 10  1  0
 10 11  1  0
 11 12  1  0
 11 13  2  0
 13 14  1  0
 14 15  1  0
 14 16  2  0
 16 17  1  0
 17 18  2  0
 17 19  1  0
 19 20  1  0
 20 21  1  0
 21 22  1  0
 21 23  2  0
 23 24  1  0
 23 25  1  0
 25 26  1  0
  6 27  1  0
 27 28  1  0
 27 29  2  0
 29 30  1  0
 29  2  1  0
 16 10  1  0
 25 19  2  0
M  END
>  <plip>  (1) 
-0.07142857142857142

>  <filename>  (1) 
[H][c]1[n][c]([H])[c]([C]([H])([H])[n]2[c]([H])[n][c]([H])[c]2[C](=[O])[c]2[o][c]([H])[c]([H])[c]2[H])[c]([H])[c]1[H]

$$$$
