
     RDKit          3D

 33 35  0  0  0  0  0  0  0  0999 V2000
    6.8488   -2.1006   21.2327 C   0  0  0  0  0  0  0  0  0  0  0  0
    6.9698   -0.5888   21.2710 C   0  0  1  0  0  0  0  0  0  0  0  0
    8.3734   -0.1533   21.3503 N   0  0  0  0  0  0  0  0  0  0  0  0
    8.6728    1.1181   21.7767 C   0  0  0  0  0  0  0  0  0  0  0  0
    7.5936    1.8645   21.9018 N   0  0  0  0  0  0  0  0  0  0  0  0
    7.7420    3.1216   22.2592 C   0  0  0  0  0  0  0  0  0  0  0  0
    8.9055    3.6768   22.5510 N   0  0  0  0  0  0  0  0  0  0  0  0
    9.9915    2.9341   22.4146 C   0  0  0  0  0  0  0  0  0  0  0  0
   11.1866    3.5806   22.6708 C   0  0  0  0  0  0  0  0  0  0  0  0
   12.3962    2.9151   22.5357 C   0  0  0  0  0  0  0  0  0  0  0  0
   14.0073    3.8979   22.8313 Br  0  0  0  0  0  0  0  0  0  0  0  0
   12.3890    1.5597   22.1720 C   0  0  0  0  0  0  0  0  0  0  0  0
   11.1813    0.8941   21.9018 C   0  0  0  0  0  0  0  0  0  0  0  0
    9.9580    1.5990   22.0184 C   0  0  0  0  0  0  0  0  0  0  0  0
   11.2194   -0.1563   21.6092 H   0  0  0  0  0  0  0  0  0  0  0  0
   13.3274    1.0183   22.0973 H   0  0  0  0  0  0  0  0  0  0  0  0
   11.1509    4.6241   22.9574 H   0  0  0  0  0  0  0  0  0  0  0  0
    6.8548    3.7432   22.2769 H   0  0  0  0  0  0  0  0  0  0  0  0
    9.1153   -0.8402   21.3442 H   0  0  0  0  0  0  0  0  0  0  0  0
    6.3930    0.0307   20.0395 C   0  0  0  0  0  0  0  0  0  0  0  0
    5.1778    0.7174   20.0908 C   0  0  0  0  0  0  0  0  0  0  0  0
    4.7543    1.3646   18.9337 C   0  0  0  0  0  0  0  0  0  0  0  0
    5.5312    1.2933   17.7690 C   0  0  0  0  0  0  0  0  0  0  0  0
    6.6852    0.6012   17.7157 N   0  0  0  0  0  0  0  0  0  0  0  0
    7.1071   -0.0157   18.8357 C   0  0  0  0  0  0  0  0  0  0  0  0
    8.0413   -0.5707   18.7991 H   0  0  0  0  0  0  0  0  0  0  0  0
    5.1848    1.8127   16.8776 H   0  0  0  0  0  0  0  0  0  0  0  0
    3.8391    1.9444   18.9376 H   0  0  0  0  0  0  0  0  0  0  0  0
    4.6060    0.7690   21.0178 H   0  0  0  0  0  0  0  0  0  0  0  0
    6.4220   -0.2323   22.1554 H   0  0  0  0  0  0  0  0  0  0  0  0
    7.1043   -2.4977   20.2525 H   0  0  0  0  0  0  0  0  0  0  0  0
    5.8222   -2.3977   21.4518 H   0  0  0  0  0  0  0  0  0  0  0  0
    7.5097   -2.5460   21.9776 H   0  0  0  0  0  0  0  0  0  0  0  0
  1  2  1  0
  2  3  1  0
  3  4  1  0
  4  5  2  0
  5  6  1  0
  6  7  2  0
  7  8  1  0
  8  9  2  0
  9 10  1  0
 10 11  1  0
 10 12  2  0
 12 13  1  0
 13 14  2  0
 13 15  1  0
 12 16  1  0
  9 17  1  0
  6 18  1  0
  3 19  1  0
  2 20  1  0
 20 21  2  0
 21 22  1  0
 22 23  2  0
 23 24  1  0
 24 25  2  0
 25 26  1  0
 23 27  1  0
 22 28  1  0
 21 29  1  0
  2 30  1  1
  1 31  1  0
  1 32  1  0
  1 33  1  0
 14  4  1  0
 25 20  1  0
 14  8  1  0
M  END
>  <plip>  (1) 
-0.1

>  <filename>  (1) 
[H][c]1[n][c]([N]([H])[C@@]([H])([c]2[c]([H])[n][c]([H])[c]([H])[c]2[H])[C]([H])([H])[H])[c]2[c]([H])[c]([H])[c]([Br])[c]([H])[c]2[n]1

$$$$
