
     RDKit          3D

 38 40  0  0  0  0  0  0  0  0999 V2000
    7.6211   -2.0855   20.9075 C   0  0  0  0  0  0  0  0  0  0  0  0
    7.3193   -0.6135   21.1154 C   0  0  0  0  0  0  0  0  0  0  0  0
    8.6487    0.0252   21.2729 N   0  0  0  0  0  4  0  0  0  0  0  0
    8.6805    1.4669   21.6918 C   0  0  0  0  0  0  0  0  0  0  0  0
   10.1598    1.8395   21.7105 C   0  0  0  0  0  0  0  0  0  0  0  0
   10.6827    1.2273   22.4568 H   0  0  0  0  0  0  0  0  0  0  0  0
   10.6080    1.6404   20.7296 H   0  0  0  0  0  0  0  0  0  0  0  0
   10.3264    2.8935   21.9471 H   0  0  0  0  0  0  0  0  0  0  0  0
    7.9610    1.6578   23.0321 C   0  0  0  0  0  0  0  0  0  0  0  0
    8.2514    1.0691   24.1453 N   0  0  0  0  0  0  0  0  0  0  0  0
    7.2331    1.4672   25.0130 C   0  0  0  0  0  0  0  0  0  0  0  0
    6.9940    1.1751   26.3654 C   0  0  0  0  0  0  0  0  0  0  0  0
    5.8825    1.7667   26.9704 C   0  0  0  0  0  0  0  0  0  0  0  0
    5.0141    2.6118   26.2420 C   0  0  0  0  0  0  0  0  0  0  0  0
    5.2368    2.8912   24.8897 C   0  0  0  0  0  0  0  0  0  0  0  0
    6.3625    2.3093   24.3172 C   0  0  0  0  0  0  0  0  0  0  0  0
    6.8423    2.4398   23.0431 O   0  0  0  0  0  0  0  0  0  0  0  0
    4.5901    3.5357   24.3072 H   0  0  0  0  0  0  0  0  0  0  0  0
    4.1645    3.0642   26.7448 H   0  0  0  0  0  0  0  0  0  0  0  0
    5.6913    1.5837   28.0238 H   0  0  0  0  0  0  0  0  0  0  0  0
    7.6731    0.5199   26.9013 H   0  0  0  0  0  0  0  0  0  0  0  0
    8.1087    2.0594   20.9716 H   0  0  0  0  0  0  0  0  0  0  0  0
    9.1982   -0.5208   21.9769 H   0  0  0  0  0  0  0  0  0  0  0  0
    9.1365   -0.0792   20.3570 H   0  0  0  0  0  0  0  0  0  0  0  0
    6.5909    0.0632   19.9822 C   0  0  0  0  0  0  0  0  0  0  0  0
    5.3646    0.7176   20.1544 C   0  0  0  0  0  0  0  0  0  0  0  0
    4.7759    1.3483   19.0558 C   0  0  0  0  0  0  0  0  0  0  0  0
    5.4409    1.3105   17.8260 C   0  0  0  0  0  0  0  0  0  0  0  0
    6.6136    0.6881   17.6462 N   0  0  0  0  0  0  0  0  0  0  0  0
    7.1681    0.0932   18.7094 C   0  0  0  0  0  0  0  0  0  0  0  0
    8.1236   -0.4003   18.5251 H   0  0  0  0  0  0  0  0  0  0  0  0
    5.0189    1.8071   16.9517 H   0  0  0  0  0  0  0  0  0  0  0  0
    3.8304    1.8717   19.1344 H   0  0  0  0  0  0  0  0  0  0  0  0
    4.8885    0.7464   21.1385 H   0  0  0  0  0  0  0  0  0  0  0  0
    6.7279   -0.4636   22.0299 H   0  0  0  0  0  0  0  0  0  0  0  0
    8.4934   -2.1773   20.2594 H   0  0  0  0  0  0  0  0  0  0  0  0
    7.8842   -2.5493   21.8617 H   0  0  0  0  0  0  0  0  0  0  0  0
    6.7901   -2.6327   20.4626 H   0  0  0  0  0  0  0  0  0  0  0  0
  1  2  1  0
  2  3  1  0
  3  4  1  0
  4  5  1  0
  5  6  1  0
  5  7  1  0
  5  8  1  0
  4  9  1  0
  9 10  2  0
 10 11  1  0
 11 12  2  0
 12 13  1  0
 13 14  2  0
 14 15  1  0
 15 16  2  0
 16 17  1  0
 15 18  1  0
 14 19  1  0
 13 20  1  0
 12 21  1  0
  4 22  1  0
  3 23  1  0
  3 24  1  0
  2 25  1  0
 25 26  2  0
 26 27  1  0
 27 28  2  0
 28 29  1  0
 29 30  2  0
 30 31  1  0
 28 32  1  0
 27 33  1  0
 26 34  1  0
  2 35  1  0
  1 36  1  0
  1 37  1  0
  1 38  1  0
 17  9  1  0
 30 25  1  0
 16 11  1  0
M  CHG  1   3   1
M  END
>  <plip>  (1) 
-0.06896551724137931

>  <filename>  (1) 
[H][c]1[n][c]([H])[c]([C]([H])([C]([H])([H])[H])[N+]([H])([H])[C]([H])([c]2[n][c]3[c]([H])[c]([H])[c]([H])[c]([H])[c]3[o]2)[C]([H])([H])[H])[c]([H])[c]1[H]

$$$$
