
     RDKit          3D

 43 45  0  0  0  0  0  0  0  0999 V2000
   10.7825    8.2795   28.3434 C   0  0  0  0  0  0  0  0  0  0  0  0
   10.2311    7.1694   27.4803 C   0  0  0  0  0  0  0  0  0  0  0  0
   11.0353    6.5136   26.5403 C   0  0  0  0  0  0  0  0  0  0  0  0
   10.5330    5.4736   25.7617 C   0  0  0  0  0  0  0  0  0  0  0  0
    9.2003    5.0251   25.8942 C   0  0  0  0  0  0  0  0  0  0  0  0
    8.7113    3.8750   25.0708 C   0  0  0  0  0  0  0  0  0  0  0  0
    7.7698    3.0394   25.4395 N   0  0  0  0  0  0  0  0  0  0  0  0
    7.5483    2.0535   24.5247 C   0  0  0  0  0  0  0  0  0  0  0  0
    8.3087    2.0918   23.3942 C   0  0  0  0  0  0  0  0  0  0  0  0
    8.3373    1.2284   22.1829 C   0  0  0  0  0  0  0  0  0  0  0  0
    9.0327    1.5039   21.2149 O   0  0  0  0  0  0  0  0  0  0  0  0
    7.5652    0.1104   22.2147 N   0  0  0  0  0  0  0  0  0  0  0  0
    7.4060   -0.7127   21.0156 C   0  0  1  0  0  0  0  0  0  0  0  0
    6.6881   -2.0211   21.3316 C   0  0  0  0  0  0  0  0  0  0  0  0
    7.2106   -2.6095   22.0935 H   0  0  0  0  0  0  0  0  0  0  0  0
    6.6266   -2.6255   20.4217 H   0  0  0  0  0  0  0  0  0  0  0  0
    5.6546   -1.8443   21.6544 H   0  0  0  0  0  0  0  0  0  0  0  0
    6.6711    0.0425   19.9171 C   0  0  0  0  0  0  0  0  0  0  0  0
    5.4393    0.6684   20.1513 C   0  0  0  0  0  0  0  0  0  0  0  0
    4.8026    1.3106   19.0920 C   0  0  0  0  0  0  0  0  0  0  0  0
    5.3986    1.2876   17.8267 C   0  0  0  0  0  0  0  0  0  0  0  0
    6.5594    0.6684   17.5707 N   0  0  0  0  0  0  0  0  0  0  0  0
    7.1708    0.0784   18.6101 C   0  0  0  0  0  0  0  0  0  0  0  0
    8.1180   -0.4111   18.3743 H   0  0  0  0  0  0  0  0  0  0  0  0
    4.9278    1.7879   16.9816 H   0  0  0  0  0  0  0  0  0  0  0  0
    3.8723    1.8395   19.2432 H   0  0  0  0  0  0  0  0  0  0  0  0
    4.9983    0.6524   21.1511 H   0  0  0  0  0  0  0  0  0  0  0  0
    8.4144   -0.9386   20.6393 H   0  0  0  0  0  0  0  0  0  0  0  0
    7.0031   -0.0719   23.0271 H   0  0  0  0  0  0  0  0  0  0  0  0
    9.3550    3.4789   23.4886 S   0  0  0  0  0  0  0  0  0  0  0  0
    6.7646    1.3371   24.7598 H   0  0  0  0  0  0  0  0  0  0  0  0
    8.3622    5.7046   26.8286 C   0  0  0  0  0  0  0  0  0  0  0  0
    6.9071    5.3635   27.0307 C   0  0  0  0  0  0  0  0  0  0  0  0
    6.3949    5.2491   26.0726 H   0  0  0  0  0  0  0  0  0  0  0  0
    6.8131    4.3930   27.5236 H   0  0  0  0  0  0  0  0  0  0  0  0
    6.3888    6.1252   27.6245 H   0  0  0  0  0  0  0  0  0  0  0  0
    8.9024    6.7463   27.5996 C   0  0  0  0  0  0  0  0  0  0  0  0
    8.2584    7.2509   28.3197 H   0  0  0  0  0  0  0  0  0  0  0  0
   11.2060    4.9852   25.0620 H   0  0  0  0  0  0  0  0  0  0  0  0
   12.0693    6.8253   26.4265 H   0  0  0  0  0  0  0  0  0  0  0  0
   11.5961    8.8149   27.8432 H   0  0  0  0  0  0  0  0  0  0  0  0
   11.1873    7.8912   29.2858 H   0  0  0  0  0  0  0  0  0  0  0  0
   10.0130    9.0150   28.6025 H   0  0  0  0  0  0  0  0  0  0  0  0
  1  2  1  0
  2  3  2  0
  3  4  1  0
  4  5  2  0
  5  6  1  0
  6  7  2  0
  7  8  1  0
  8  9  2  0
  9 10  1  0
 10 11  2  0
 10 12  1  0
 12 13  1  0
 13 14  1  0
 14 15  1  0
 14 16  1  0
 14 17  1  0
 13 18  1  0
 18 19  2  0
 19 20  1  0
 20 21  2  0
 21 22  1  0
 22 23  2  0
 23 24  1  0
 21 25  1  0
 20 26  1  0
 19 27  1  0
 13 28  1  6
 12 29  1  0
  9 30  1  0
  8 31  1  0
  5 32  1  0
 32 33  1  0
 33 34  1  0
 33 35  1  0
 33 36  1  0
 32 37  2  0
 37 38  1  0
  4 39  1  0
  3 40  1  0
  1 41  1  0
  1 42  1  0
  1 43  1  0
 37  2  1  0
 30  6  1  0
 23 18  1  0
M  END
>  <plip>  (1) 
-0.14285714285714285

>  <filename>  (1) 
[H][c]1[n][c](-[c]2[c]([H])[c]([H])[c]([C]([H])([H])[H])[c]([H])[c]2[C]([H])([H])[H])[s][c]1[C](=[O])[N]([H])[C@]([H])([c]1[c]([H])[n][c]([H])[c]([H])[c]1[H])[C]([H])([H])[H]

$$$$
