
     RDKit          3D

 33 34  0  0  0  0  0  0  0  0999 V2000
    8.8754   -3.2741   21.9384 H   0  0  0  0  0  0  0  0  0  0  0  0
    8.4111   -2.2946   21.9432 C   0  0  0  0  0  0  0  0  0  0  0  0
    8.2701   -1.4689   22.9212 N   0  0  0  0  0  0  0  0  0  0  0  0
    7.6163   -0.3663   22.3314 C   0  0  0  0  0  0  0  0  0  0  0  0
    7.3038    0.9604   22.9477 C   0  0  0  0  0  0  0  0  0  0  0  0
    7.0514    1.9417   22.2578 O   0  0  0  0  0  0  0  0  0  0  0  0
    7.2960    1.0104   24.3041 N   0  0  0  0  0  0  0  0  0  0  0  0
    7.5519    0.1522   24.7701 H   0  0  0  0  0  0  0  0  0  0  0  0
    7.1488    2.2610   25.0330 C   0  0  0  0  0  0  0  0  0  0  0  0
    6.9404    2.0063   26.0786 H   0  0  0  0  0  0  0  0  0  0  0  0
    6.2752    2.7945   24.6317 H   0  0  0  0  0  0  0  0  0  0  0  0
    8.3829    3.1711   24.9398 C   0  0  0  0  0  0  0  0  0  0  0  0
    9.2594    2.6284   25.3254 H   0  0  0  0  0  0  0  0  0  0  0  0
    8.5821    3.3761   23.8770 H   0  0  0  0  0  0  0  0  0  0  0  0
    8.2067    4.4923   25.7044 C   0  0  0  0  0  0  0  0  0  0  0  0
    7.9962    4.2750   26.7636 H   0  0  0  0  0  0  0  0  0  0  0  0
    7.3166    5.0142   25.3189 H   0  0  0  0  0  0  0  0  0  0  0  0
    9.4240    5.4124   25.5906 C   0  0  0  0  0  0  0  0  0  0  0  0
    9.6385    5.6549   24.5427 H   0  0  0  0  0  0  0  0  0  0  0  0
   10.3210    4.9425   25.9980 H   0  0  0  0  0  0  0  0  0  0  0  0
    9.2805    6.3503   26.1367 H   0  0  0  0  0  0  0  0  0  0  0  0
    7.3715   -0.6506   21.0144 C   0  0  0  0  0  0  0  0  0  0  0  0
    6.6590    0.0171   19.9260 C   0  0  0  0  0  0  0  0  0  0  0  0
    7.1686    0.0385   18.6110 C   0  0  0  0  0  0  0  0  0  0  0  0
    8.1162   -0.4405   18.3672 H   0  0  0  0  0  0  0  0  0  0  0  0
    6.5652    0.6538   17.5894 N   0  0  0  0  0  0  0  0  0  0  0  0
    5.4039    1.2821   17.8359 C   0  0  0  0  0  0  0  0  0  0  0  0
    4.9390    1.7893   16.9896 H   0  0  0  0  0  0  0  0  0  0  0  0
    4.7989    1.2990   19.0927 C   0  0  0  0  0  0  0  0  0  0  0  0
    3.8741    1.8407   19.2432 H   0  0  0  0  0  0  0  0  0  0  0  0
    5.4314    0.6512   20.1541 C   0  0  0  0  0  0  0  0  0  0  0  0
    4.9912    0.6588   21.1488 H   0  0  0  0  0  0  0  0  0  0  0  0
    7.9127   -1.8750   20.7633 O   0  0  0  0  0  0  0  0  0  0  0  0
  1  2  1  0
  2  3  2  0
  3  4  1  0
  4  5  1  0
  5  6  2  0
  5  7  1  0
  7  8  1  0
  7  9  1  0
  9 10  1  0
  9 11  1  0
  9 12  1  0
 12 13  1  0
 12 14  1  0
 12 15  1  0
 15 16  1  0
 15 17  1  0
 15 18  1  0
 18 19  1  0
 18 20  1  0
 18 21  1  0
  4 22  2  0
 22 23  1  0
 23 24  2  0
 24 25  1  0
 24 26  1  0
 26 27  2  0
 27 28  1  0
 27 29  1  0
 29 30  1  0
 29 31  2  0
 31 32  1  0
 22 33  1  0
 33  2  1  0
 31 23  1  0
M  END
>  <plip>  (1) 
-0.034482758620689655

>  <filename>  (1) 
[H][c]1[n][c]([C](=[O])[N]([H])[C]([H])([H])[C]([H])([H])[C]([H])([H])[C]([H])([H])[H])[c](-[c]2[c]([H])[n][c]([H])[c]([H])[c]2[H])[o]1

$$$$
