
     RDKit          3D

 35 37  0  0  0  0  0  0  0  0999 V2000
    4.9431    1.7912   16.9943 H   0  0  0  0  0  0  0  0  0  0  0  0
    5.3991    1.2888   17.8446 C   0  0  0  0  0  0  0  0  0  0  0  0
    6.5527    0.6564   17.5946 N   0  0  0  0  0  0  0  0  0  0  0  0
    7.1446    0.0309   18.6170 C   0  0  0  0  0  0  0  0  0  0  0  0
    8.1104   -0.4209   18.3992 H   0  0  0  0  0  0  0  0  0  0  0  0
    6.6125   -0.0307   19.9190 C   0  0  0  0  0  0  0  0  0  0  0  0
    7.3099   -0.7643   20.9940 C   0  0  0  0  0  0  0  0  0  0  0  0
    6.5816   -1.5588   21.7576 N   0  0  0  0  0  0  0  0  0  0  0  0
    7.1848   -2.2205   22.8070 C   0  0  0  0  0  0  0  0  0  0  0  0
    6.4001   -3.0535   23.6103 N   0  0  0  0  0  0  0  0  0  0  0  0
    6.4424   -2.9389   25.0771 C   0  0  0  0  0  0  0  0  0  0  0  0
    7.4085   -2.5280   25.3919 H   0  0  0  0  0  0  0  0  0  0  0  0
    5.6724   -2.2297   25.4374 H   0  0  0  0  0  0  0  0  0  0  0  0
    6.2179   -4.3038   25.7447 C   0  0  0  0  0  0  0  0  0  0  0  0
    7.0673   -4.9583   25.5022 H   0  0  0  0  0  0  0  0  0  0  0  0
    6.2081   -4.1800   26.8364 H   0  0  0  0  0  0  0  0  0  0  0  0
    4.9145   -4.9514   25.2543 C   0  0  0  0  0  0  0  0  0  0  0  0
    4.0514   -4.3547   25.5932 H   0  0  0  0  0  0  0  0  0  0  0  0
    4.7885   -5.9487   25.6952 H   0  0  0  0  0  0  0  0  0  0  0  0
    4.9264   -5.0349   23.7198 C   0  0  0  0  0  0  0  0  0  0  0  0
    5.7191   -5.7230   23.3943 H   0  0  0  0  0  0  0  0  0  0  0  0
    3.9748   -5.4324   23.3434 H   0  0  0  0  0  0  0  0  0  0  0  0
    5.1783   -3.6591   23.0826 C   0  0  0  0  0  0  0  0  0  0  0  0
    4.3001   -3.0242   23.2796 H   0  0  0  0  0  0  0  0  0  0  0  0
    5.2721   -3.7438   21.9953 H   0  0  0  0  0  0  0  0  0  0  0  0
    8.5363   -2.1208   23.0453 C   0  0  0  0  0  0  0  0  0  0  0  0
    9.0057   -2.6983   23.8341 H   0  0  0  0  0  0  0  0  0  0  0  0
    9.3127   -1.3278   22.2267 N   0  0  0  0  0  0  0  0  0  0  0  0
   10.3103   -1.1542   22.3003 H   0  0  0  0  0  0  0  0  0  0  0  0
    8.8047   -0.5721   21.1805 C   0  0  0  0  0  0  0  0  0  0  0  0
    9.5996    0.1279   20.5687 O   0  0  0  0  0  0  0  0  0  0  0  0
    5.3987    0.6340   20.1594 C   0  0  0  0  0  0  0  0  0  0  0  0
    4.9581    0.6371   21.1586 H   0  0  0  0  0  0  0  0  0  0  0  0
    4.7909    1.3141   19.1046 C   0  0  0  0  0  0  0  0  0  0  0  0
    3.8651    1.8629   19.2418 H   0  0  0  0  0  0  0  0  0  0  0  0
  1  2  1  0
  2  3  2  0
  3  4  1  0
  4  5  1  0
  4  6  2  0
  6  7  1  0
  7  8  2  0
  8  9  1  0
  9 10  1  0
 10 11  1  0
 11 12  1  0
 11 13  1  0
 11 14  1  0
 14 15  1  0
 14 16  1  0
 14 17  1  0
 17 18  1  0
 17 19  1  0
 17 20  1  0
 20 21  1  0
 20 22  1  0
 20 23  1  0
 23 24  1  0
 23 25  1  0
  9 26  2  0
 26 27  1  0
 26 28  1  0
 28 29  1  0
 28 30  1  0
 30 31  2  0
  6 32  1  0
 32 33  1  0
 32 34  2  0
 34 35  1  0
 34  2  1  0
 30  7  1  0
 23 10  1  0
M  END
>  <plip>  (1) 
-0.03571428571428571

>  <filename>  (1) 
[H][c]1[n][c]([H])[c](-[c]2[n][c]([N]3[C]([H])([H])[C]([H])([H])[C]([H])([H])[C]([H])([H])[C]3([H])[H])[c]([H])[n]([H])[c]2=[O])[c]([H])[c]1[H]

$$$$
