
     RDKit          3D

 31 32  0  0  0  0  0  0  0  0999 V2000
    4.6941    1.6433   16.9554 H   0  0  0  0  0  0  0  0  0  0  0  0
    5.3347    1.2441   17.7342 C   0  0  0  0  0  0  0  0  0  0  0  0
    6.4780    0.6852   17.3124 N   0  0  0  0  0  0  0  0  0  0  0  0
    7.3005    0.1924   18.2299 C   0  0  0  0  0  0  0  0  0  0  0  0
    8.2027   -0.3012   17.8684 H   0  0  0  0  0  0  0  0  0  0  0  0
    7.0088    0.2716   19.5850 C   0  0  0  0  0  0  0  0  0  0  0  0
    8.3933   -0.1773   20.5764 S   0  0  0  0  0  0  0  0  0  0  0  0
    9.2021    1.0554   20.7062 O   0  0  0  0  0  0  0  0  0  0  0  0
    8.9592   -1.3207   19.8304 O   0  0  0  0  0  0  0  0  0  0  0  0
    6.8240   -1.0556   22.9737 O   0  0  0  0  0  0  0  0  0  0  0  0
    7.2954   -1.8956   23.7775 N   0  0  0  0  0  0  0  0  0  0  0  0
    7.9022   -1.5845   24.5925 H   0  0  0  0  0  0  0  0  0  0  0  0
    7.2904   -3.2501   23.6708 C   0  0  0  0  0  0  0  0  0  0  0  0
    6.3900   -3.9311   22.8197 C   0  0  0  0  0  0  0  0  0  0  0  0
    5.5737   -3.3706   22.3777 H   0  0  0  0  0  0  0  0  0  0  0  0
    6.5557   -5.2877   22.5699 C   0  0  0  0  0  0  0  0  0  0  0  0
    5.8650   -5.8064   21.9045 H   0  0  0  0  0  0  0  0  0  0  0  0
    7.6224   -5.9791   23.1606 C   0  0  0  0  0  0  0  0  0  0  0  0
    7.7843   -7.0267   22.9355 H   0  0  0  0  0  0  0  0  0  0  0  0
    8.4578   -5.3410   24.0728 C   0  0  0  0  0  0  0  0  0  0  0  0
    9.2772   -5.9023   24.5268 H   0  0  0  0  0  0  0  0  0  0  0  0
    8.2649   -3.9897   24.4150 C   0  0  0  0  0  0  0  0  0  0  0  0
    9.0262   -3.3298   25.5102 C   0  0  0  0  0  0  0  0  0  0  0  0
    9.0655   -2.1161   25.7210 O   0  0  0  0  0  0  0  0  0  0  0  0
    9.7494   -4.1223   26.3524 N   0  0  0  0  0  0  0  0  0  0  0  0
    9.3805   -5.0319   26.5584 H   0  0  0  0  0  0  0  0  0  0  0  0
   10.0441   -3.5490   27.1266 H   0  0  0  0  0  0  0  0  0  0  0  0
    5.8074    0.8026   20.0514 C   0  0  0  0  0  0  0  0  0  0  0  0
    5.5380    0.8381   21.1132 H   0  0  0  0  0  0  0  0  0  0  0  0
    4.9483    1.3057   19.0777 C   0  0  0  0  0  0  0  0  0  0  0  0
    3.9959    1.7460   19.3399 H   0  0  0  0  0  0  0  0  0  0  0  0
  1  2  1  0
  2  3  2  0
  3  4  1  0
  4  5  1  0
  4  6  2  0
  6  7  1  0
  7  8  2  0
  7  9  2  0
  7 10  1  0
 10 11  1  0
 11 12  1  0
 11 13  1  0
 13 14  2  0
 14 15  1  0
 14 16  1  0
 16 17  1  0
 16 18  2  0
 18 19  1  0
 18 20  1  0
 20 21  1  0
 20 22  2  0
 22 23  1  0
 23 24  2  0
 23 25  1  0
 25 26  1  0
 25 27  1  0
  6 28  1  0
 28 29  1  0
 28 30  2  0
 30 31  1  0
 30  2  1  0
 22 13  1  0
M  END
>  <plip>  (1) 
-0.17857142857142858

>  <filename>  (1) 
[H][c]1[n][c]([H])[c]([S](=[O])(=[O])[O][N]([H])[c]2[c]([H])[c]([H])[c]([H])[c]([H])[c]2[C](=[O])[N]([H])[H])[c]([H])[c]1[H]

$$$$
