
     RDKit          3D

 32 33  0  0  0  0  0  0  0  0999 V2000
    6.7927    8.3350   20.5520 C   0  0  0  0  0  0  0  0  0  0  0  0
    6.7467    7.2313   21.0366 C   0  0  0  0  0  0  0  0  0  0  0  0
    6.4638    5.9392   21.6187 C   0  0  0  0  0  0  0  0  0  0  0  0
    7.3102    4.9124   21.4401 N   0  0  0  0  0  0  0  0  0  0  0  0
    6.9339    3.7395   21.9390 C   0  0  0  0  0  0  0  0  0  0  0  0
    7.8203    2.7234   21.6301 N   0  0  0  0  0  0  0  0  0  0  0  0
    7.9090    1.5236   22.2706 C   0  0  0  0  0  0  0  0  0  0  0  0
    7.3980    1.3308   23.3564 O   0  0  0  0  0  0  0  0  0  0  0  0
    8.5800    0.3883   21.5183 C   0  0  0  0  0  0  0  0  0  0  0  0
    7.4849   -0.5797   20.9909 C   0  0  0  0  0  0  0  0  0  0  0  0
    6.6600    0.0516   19.8929 C   0  0  0  0  0  0  0  0  0  0  0  0
    5.4364    0.7001   20.1285 C   0  0  0  0  0  0  0  0  0  0  0  0
    4.8043    1.3621   19.0729 C   0  0  0  0  0  0  0  0  0  0  0  0
    5.4131    1.3419   17.8153 C   0  0  0  0  0  0  0  0  0  0  0  0
    6.5607    0.6980   17.5534 N   0  0  0  0  0  0  0  0  0  0  0  0
    7.1524    0.0703   18.5755 C   0  0  0  0  0  0  0  0  0  0  0  0
    8.0782   -0.4606   18.3406 H   0  0  0  0  0  0  0  0  0  0  0  0
    4.9530    1.8482   16.9722 H   0  0  0  0  0  0  0  0  0  0  0  0
    3.8630    1.8850   19.2090 H   0  0  0  0  0  0  0  0  0  0  0  0
    4.9919    0.6777   21.1270 H   0  0  0  0  0  0  0  0  0  0  0  0
    6.8504   -0.8537   21.8442 H   0  0  0  0  0  0  0  0  0  0  0  0
    7.9525   -1.5056   20.6283 H   0  0  0  0  0  0  0  0  0  0  0  0
    9.2018    0.7747   20.7073 H   0  0  0  0  0  0  0  0  0  0  0  0
    9.2376   -0.1350   22.2195 H   0  0  0  0  0  0  0  0  0  0  0  0
    8.4783    2.9911   20.9219 H   0  0  0  0  0  0  0  0  0  0  0  0
    5.7433    3.5105   22.6395 C   0  0  0  0  0  0  0  0  0  0  0  0
    4.8905    4.5948   22.8391 C   0  0  0  0  0  0  0  0  0  0  0  0
    5.2582    5.8377   22.3304 C   0  0  0  0  0  0  0  0  0  0  0  0
    4.6474    6.7203   22.4612 H   0  0  0  0  0  0  0  0  0  0  0  0
    3.9605    4.4653   23.3903 H   0  0  0  0  0  0  0  0  0  0  0  0
    5.5384    2.5159   23.0028 H   0  0  0  0  0  0  0  0  0  0  0  0
    6.8466    9.2802   20.0563 H   0  0  0  0  0  0  0  0  0  0  0  0
  1  2  3  0
  2  3  1  0
  3  4  2  0
  4  5  1  0
  5  6  1  0
  6  7  1  0
  7  8  2  0
  7  9  1  0
  9 10  1  0
 10 11  1  0
 11 12  2  0
 12 13  1  0
 13 14  2  0
 14 15  1  0
 15 16  2  0
 16 17  1  0
 14 18  1  0
 13 19  1  0
 12 20  1  0
 10 21  1  0
 10 22  1  0
  9 23  1  0
  9 24  1  0
  6 25  1  0
  5 26  2  0
 26 27  1  0
 27 28  2  0
 28 29  1  0
 27 30  1  0
 26 31  1  0
  1 32  1  0
 28  3  1  0
 16 11  1  0
M  END
>  <plip>  (1) 
-0.13793103448275862

>  <filename>  (1) 
[H][C]#[C][c]1[n][c]([N]([H])[C](=[O])[C]([H])([H])[C]([H])([H])[c]2[c]([H])[n][c]([H])[c]([H])[c]2[H])[c]([H])[c]([H])[c]1[H]

$$$$
