
     RDKit          3D

 28 29  0  0  0  0  0  0  0  0999 V2000
    8.8442   -0.4233   21.1767 C   0  0  0  0  0  0  0  0  0  0  0  0
    7.3797   -0.7486   21.0029 C   0  0  0  0  0  0  0  0  0  0  0  0
    6.7299   -1.6393   21.7746 C   0  0  0  0  0  0  0  0  0  0  0  0
    7.3264   -2.4621   22.8503 C   0  0  0  0  0  0  0  0  0  0  0  0
    8.5172   -2.5219   23.1230 O   0  0  0  0  0  0  0  0  0  0  0  0
    6.4224   -3.2250   23.5766 N   0  0  0  0  0  0  0  0  0  0  0  0
    6.7986   -4.0414   24.6437 C   0  0  0  0  0  0  0  0  0  0  0  0
    5.9440   -4.7981   25.3913 C   0  0  0  0  0  0  0  0  0  0  0  0
    6.6799   -5.5075   26.3835 C   0  0  0  0  0  0  0  0  0  0  0  0
    7.9696   -5.3277   26.4168 N   0  0  0  0  0  0  0  0  0  0  0  0
    8.4267   -4.2602   25.2226 S   0  0  0  0  0  0  0  0  0  0  0  0
    6.2570   -6.1880   27.1176 H   0  0  0  0  0  0  0  0  0  0  0  0
    4.8705   -4.8424   25.2456 H   0  0  0  0  0  0  0  0  0  0  0  0
    5.4376   -3.1436   23.3917 H   0  0  0  0  0  0  0  0  0  0  0  0
    5.6715   -1.7963   21.5964 H   0  0  0  0  0  0  0  0  0  0  0  0
    6.6286   -0.0296   19.9216 C   0  0  0  0  0  0  0  0  0  0  0  0
    5.4126    0.6357   20.1521 C   0  0  0  0  0  0  0  0  0  0  0  0
    4.7962    1.3124   19.0968 C   0  0  0  0  0  0  0  0  0  0  0  0
    5.3989    1.2934   17.8342 C   0  0  0  0  0  0  0  0  0  0  0  0
    6.5603    0.6691   17.5886 N   0  0  0  0  0  0  0  0  0  0  0  0
    7.1535    0.0496   18.6163 C   0  0  0  0  0  0  0  0  0  0  0  0
    8.1108   -0.4186   18.3883 H   0  0  0  0  0  0  0  0  0  0  0  0
    4.9358    1.7959   16.9854 H   0  0  0  0  0  0  0  0  0  0  0  0
    3.8673    1.8538   19.2359 H   0  0  0  0  0  0  0  0  0  0  0  0
    4.9886    0.6466   21.1564 H   0  0  0  0  0  0  0  0  0  0  0  0
    9.1168    0.4194   20.5371 H   0  0  0  0  0  0  0  0  0  0  0  0
    9.0775   -0.1650   22.2156 H   0  0  0  0  0  0  0  0  0  0  0  0
    9.4801   -1.2812   20.9347 H   0  0  0  0  0  0  0  0  0  0  0  0
  1  2  1  0
  2  3  2  3
  3  4  1  0
  4  5  2  0
  4  6  1  0
  6  7  1  0
  7  8  2  0
  8  9  1  0
  9 10  2  0
 10 11  1  0
  9 12  1  0
  8 13  1  0
  6 14  1  0
  3 15  1  0
  2 16  1  0
 16 17  2  0
 17 18  1  0
 18 19  2  0
 19 20  1  0
 20 21  2  0
 21 22  1  0
 19 23  1  0
 18 24  1  0
 17 25  1  0
  1 26  1  0
  1 27  1  0
  1 28  1  0
 11  7  1  0
 21 16  1  0
M  END
>  <plip>  (1) 
-0.03571428571428571

>  <filename>  (1) 
[H][C]([C](=[O])[N]([H])[c]1[s][n][c]([H])[c]1[H])=[C]([c]1[c]([H])[n][c]([H])[c]([H])[c]1[H])[C]([H])([H])[H]

$$$$
