
     RDKit          3D

 38 40  0  0  0  0  0  0  0  0999 V2000
    4.9298    1.8059   16.9782 H   0  0  0  0  0  0  0  0  0  0  0  0
    5.3956    1.2932   17.8186 C   0  0  0  0  0  0  0  0  0  0  0  0
    6.5539    0.6703   17.5600 N   0  0  0  0  0  0  0  0  0  0  0  0
    7.1709    0.0693   18.5876 C   0  0  0  0  0  0  0  0  0  0  0  0
    8.1245   -0.4003   18.3456 H   0  0  0  0  0  0  0  0  0  0  0  0
    6.6696    0.0247   19.9022 C   0  0  0  0  0  0  0  0  0  0  0  0
    7.4070   -0.7014   21.0205 C   0  0  0  0  0  0  0  0  0  0  0  0
    6.8183   -1.5622   21.3600 H   0  0  0  0  0  0  0  0  0  0  0  0
    8.3652   -1.0800   20.6675 H   0  0  0  0  0  0  0  0  0  0  0  0
    7.6404    0.1141   22.2156 N   0  0  0  0  0  0  0  0  0  0  0  0
    8.6515    0.9984   22.4857 C   0  0  0  0  0  0  0  0  0  0  0  0
    9.7744    1.2509   21.4819 C   0  0  0  0  0  0  0  0  0  0  0  0
    9.6617    0.9002   20.3154 O   0  0  0  0  0  0  0  0  0  0  0  0
   10.9014    1.8974   21.9417 N   0  0  0  0  0  0  0  0  0  0  0  0
   11.4257    1.6955   23.3079 C   0  0  0  0  0  0  0  0  0  0  0  0
   11.0749    0.7247   23.6682 H   0  0  0  0  0  0  0  0  0  0  0  0
   10.9950    2.4555   23.9690 H   0  0  0  0  0  0  0  0  0  0  0  0
   12.9548    1.7270   23.2978 C   0  0  0  0  0  0  0  0  0  0  0  0
   13.3296    1.4767   24.2959 H   0  0  0  0  0  0  0  0  0  0  0  0
   13.2930    0.9281   22.6248 H   0  0  0  0  0  0  0  0  0  0  0  0
   13.5016    3.0811   22.7945 C   0  0  0  0  0  0  0  0  0  0  0  0
   14.5105    2.9308   22.3958 H   0  0  0  0  0  0  0  0  0  0  0  0
   13.6202    3.7757   23.6304 H   0  0  0  0  0  0  0  0  0  0  0  0
   12.5635    3.7146   21.7328 C   0  0  0  0  0  0  0  0  0  0  0  0
   13.1183    4.3353   21.0142 H   0  0  0  0  0  0  0  0  0  0  0  0
   11.8462    4.3795   22.2288 H   0  0  0  0  0  0  0  0  0  0  0  0
   11.7520    2.6413   20.9959 C   0  0  0  0  0  0  0  0  0  0  0  0
   12.4238    1.9360   20.5154 H   0  0  0  0  0  0  0  0  0  0  0  0
   11.1370    3.0596   20.1994 H   0  0  0  0  0  0  0  0  0  0  0  0
    8.4820    1.5607   23.6789 N   0  0  0  0  0  0  0  0  0  0  0  0
    7.3319    1.0371   24.1853 C   0  0  0  0  0  0  0  0  0  0  0  0
    6.9326    1.3366   25.1480 H   0  0  0  0  0  0  0  0  0  0  0  0
    6.8146    0.1280   23.3083 C   0  0  0  0  0  0  0  0  0  0  0  0
    5.9731   -0.5402   23.3802 H   0  0  0  0  0  0  0  0  0  0  0  0
    5.4436    0.6608   20.1352 C   0  0  0  0  0  0  0  0  0  0  0  0
    5.0022    0.6512   21.1338 H   0  0  0  0  0  0  0  0  0  0  0  0
    4.7951    1.3118   19.0816 C   0  0  0  0  0  0  0  0  0  0  0  0
    3.8609    1.8465   19.2292 H   0  0  0  0  0  0  0  0  0  0  0  0
  1  2  1  0
  2  3  2  0
  3  4  1  0
  4  5  1  0
  4  6  2  0
  6  7  1  0
  7  8  1  0
  7  9  1  0
  7 10  1  0
 10 11  1  0
 11 12  1  0
 12 13  2  0
 12 14  1  0
 14 15  1  0
 15 16  1  0
 15 17  1  0
 15 18  1  0
 18 19  1  0
 18 20  1  0
 18 21  1  0
 21 22  1  0
 21 23  1  0
 21 24  1  0
 24 25  1  0
 24 26  1  0
 24 27  1  0
 27 28  1  0
 27 29  1  0
 11 30  2  0
 30 31  1  0
 31 32  1  0
 31 33  2  0
 33 34  1  0
  6 35  1  0
 35 36  1  0
 35 37  2  0
 37 38  1  0
 37  2  1  0
 33 10  1  0
 27 14  1  0
M  END
>  <plip>  (1) 
-0.03571428571428571

>  <filename>  (1) 
[H][c]1[n][c]([H])[c]([C]([H])([H])[n]2[c]([C](=[O])[N]3[C]([H])([H])[C]([H])([H])[C]([H])([H])[C]([H])([H])[C]3([H])[H])[n][c]([H])[c]2[H])[c]([H])[c]1[H]

$$$$
