
     RDKit          3D

 25 25  0  0  0  0  0  0  0  0999 V2000
    4.8688    1.5606   16.8811 H   0  0  0  0  0  0  0  0  0  0  0  0
    5.3651    1.1437   17.7581 C   0  0  0  0  0  0  0  0  0  0  0  0
    6.5213    0.5020   17.5319 N   0  0  0  0  0  0  0  0  0  0  0  0
    7.1924    0.0237   18.5729 C   0  0  0  0  0  0  0  0  0  0  0  0
    8.1265   -0.4900   18.3420 H   0  0  0  0  0  0  0  0  0  0  0  0
    6.7476    0.2281   19.8738 C   0  0  0  0  0  0  0  0  0  0  0  0
    8.0228    0.1769   21.0792 S   0  0  0  0  0  0  0  0  0  0  0  0
    9.2648    0.4465   20.3281 O   0  0  0  0  0  0  0  0  0  0  0  0
    7.5717    1.1312   22.1118 O   0  0  0  0  0  0  0  0  0  0  0  0
    7.2286   -2.6125   21.4462 O   0  0  0  0  0  0  0  0  0  0  0  0
    7.0979   -3.4817   22.3360 N   0  0  0  0  0  0  0  0  0  0  0  0
    7.7931   -4.2463   22.3938 H   0  0  0  0  0  0  0  0  0  0  0  0
    6.2223   -3.3008   23.4622 C   0  0  0  0  0  0  0  0  0  0  0  0
    6.1671   -2.2254   23.7039 H   0  0  0  0  0  0  0  0  0  0  0  0
    5.1838   -3.5850   23.2119 H   0  0  0  0  0  0  0  0  0  0  0  0
    6.6370   -4.1074   24.7184 C   0  0  0  0  0  0  0  0  0  0  0  0
    6.8618   -5.1472   24.4168 H   0  0  0  0  0  0  0  0  0  0  0  0
    7.5772   -3.6947   25.1022 H   0  0  0  0  0  0  0  0  0  0  0  0
    5.6116   -3.9683   25.7547 N   0  0  0  0  0  0  0  0  0  0  0  0
    5.8988   -4.3945   26.6299 H   0  0  0  0  0  0  0  0  0  0  0  0
    4.7489   -4.4307   25.4814 H   0  0  0  0  0  0  0  0  0  0  0  0
    5.4944    0.7930   20.1349 C   0  0  0  0  0  0  0  0  0  0  0  0
    5.1041    0.9208   21.1476 H   0  0  0  0  0  0  0  0  0  0  0  0
    4.7997    1.2723   19.0279 C   0  0  0  0  0  0  0  0  0  0  0  0
    3.8448    1.7693   19.1440 H   0  0  0  0  0  0  0  0  0  0  0  0
  1  2  1  0
  2  3  2  0
  3  4  1  0
  4  5  1  0
  4  6  2  0
  6  7  1  0
  7  8  2  0
  7  9  2  0
  7 10  1  0
 10 11  1  0
 11 12  1  0
 11 13  1  0
 13 14  1  0
 13 15  1  0
 13 16  1  0
 16 17  1  0
 16 18  1  0
 16 19  1  0
 19 20  1  0
 19 21  1  0
  6 22  1  0
 22 23  1  0
 22 24  2  0
 24 25  1  0
 24  2  1  0
M  END
>  <plip>  (1) 
-0.034482758620689655

>  <filename>  (1) 
[H][c]1[n][c]([H])[c]([S](=[O])(=[O])[O][N]([H])[C]([H])([H])[C]([H])([H])[N]([H])[H])[c]([H])[c]1[H]

$$$$
