
     RDKit          3D

 38 40  0  0  0  0  0  0  0  0999 V2000
    6.2305   -2.2929   19.7893 H   0  0  0  0  0  0  0  0  0  0  0  0
    6.7203   -2.8194   20.5159 N   0  0  0  0  0  0  0  0  0  0  0  0
    7.3605   -1.9681   21.1928 C   0  0  0  0  0  0  0  0  0  0  0  0
    8.3270   -2.3939   22.6195 S   0  0  0  0  0  0  0  0  0  0  0  0
    8.4674   -0.7118   23.0551 C   0  0  0  0  0  0  0  0  0  0  0  0
    8.9465   -0.3671   23.9556 H   0  0  0  0  0  0  0  0  0  0  0  0
    7.8724    0.0755   22.1335 C   0  0  0  0  0  0  0  0  0  0  0  0
    7.7079    1.3932   22.1766 O   0  0  0  0  0  0  0  0  0  0  0  0
    7.9687    2.0811   23.4166 C   0  0  0  0  0  0  0  0  0  0  0  0
    8.9716    1.8105   23.7743 H   0  0  0  0  0  0  0  0  0  0  0  0
    7.9343    3.5661   23.0683 C   0  0  0  0  0  0  0  0  0  0  0  0
    8.8670    3.8283   22.5576 H   0  0  0  0  0  0  0  0  0  0  0  0
    7.1217    3.7337   22.3550 H   0  0  0  0  0  0  0  0  0  0  0  0
    7.7158    4.4592   24.3046 C   0  0  0  0  0  0  0  0  0  0  0  0
    8.3453    5.3522   24.2235 H   0  0  0  0  0  0  0  0  0  0  0  0
    6.6685    4.8247   24.3268 H   0  0  0  0  0  0  0  0  0  0  0  0
    8.0663    3.7461   25.5312 N   0  0  0  0  0  0  0  0  0  0  0  0
    8.1139    4.6215   26.6840 C   0  0  0  0  0  0  0  0  0  0  0  0
    8.3385    4.0411   27.5804 H   0  0  0  0  0  0  0  0  0  0  0  0
    8.9090    5.3668   26.5709 H   0  0  0  0  0  0  0  0  0  0  0  0
    7.1615    5.1524   26.8755 H   0  0  0  0  0  0  0  0  0  0  0  0
    7.2036    2.5811   25.7779 C   0  0  0  0  0  0  0  0  0  0  0  0
    6.2356    2.8732   26.2304 H   0  0  0  0  0  0  0  0  0  0  0  0
    7.7081    1.9551   26.5259 H   0  0  0  0  0  0  0  0  0  0  0  0
    6.9303    1.7631   24.4991 C   0  0  0  0  0  0  0  0  0  0  0  0
    5.9308    1.9957   24.1120 H   0  0  0  0  0  0  0  0  0  0  0  0
    6.9185    0.6947   24.7409 H   0  0  0  0  0  0  0  0  0  0  0  0
    7.3943   -0.5747   21.0000 N   0  0  0  0  0  0  0  0  0  0  0  0
    6.6952    0.0567   19.8986 C   0  0  0  0  0  0  0  0  0  0  0  0
    7.2090    0.0998   18.5793 C   0  0  0  0  0  0  0  0  0  0  0  0
    8.1614   -0.3718   18.3420 H   0  0  0  0  0  0  0  0  0  0  0  0
    6.5848    0.7087   17.5579 N   0  0  0  0  0  0  0  0  0  0  0  0
    5.4089    1.3071   17.8114 C   0  0  0  0  0  0  0  0  0  0  0  0
    4.9217    1.7942   16.9694 H   0  0  0  0  0  0  0  0  0  0  0  0
    4.8013    1.2962   19.0711 C   0  0  0  0  0  0  0  0  0  0  0  0
    3.8537    1.8015   19.2183 H   0  0  0  0  0  0  0  0  0  0  0  0
    5.4557    0.6608   20.1326 C   0  0  0  0  0  0  0  0  0  0  0  0
    5.0526    0.6642   21.1447 H   0  0  0  0  0  0  0  0  0  0  0  0
  1  2  1  0
  2  3  2  3
  3  4  1  0
  4  5  1  0
  5  6  1  0
  5  7  2  0
  7  8  1  0
  8  9  1  0
  9 10  1  0
  9 11  1  0
 11 12  1  0
 11 13  1  0
 11 14  1  0
 14 15  1  0
 14 16  1  0
 14 17  1  0
 17 18  1  0
 18 19  1  0
 18 20  1  0
 18 21  1  0
 17 22  1  0
 22 23  1  0
 22 24  1  0
 22 25  1  0
 25 26  1  0
 25 27  1  0
  7 28  1  0
 28 29  1  0
 29 30  2  0
 30 31  1  0
 30 32  1  0
 32 33  2  0
 33 34  1  0
 33 35  1  0
 35 36  1  0
 35 37  2  0
 37 38  1  0
 28  3  1  0
 37 29  1  0
 25  9  1  0
M  END
>  <plip>  (1) 
-0.03571428571428571

>  <filename>  (1) 
[H][N]=[c]1[s][c]([H])[c]([O][C]2([H])[C]([H])([H])[C]([H])([H])[N]([C]([H])([H])[H])[C]([H])([H])[C]2([H])[H])[n]1-[c]1[c]([H])[n][c]([H])[c]([H])[c]1[H]

$$$$
