
     RDKit          3D

 24 25  0  0  0  0  0  0  0  0999 V2000
    6.9395   -0.7029   22.1494 O   0  0  0  0  0  0  0  0  0  0  0  0
    7.3607   -0.7255   21.0199 C   0  0  0  0  0  0  0  0  0  0  0  0
    8.4820   -1.4026   20.6254 O   0  0  0  0  0  0  0  0  0  0  0  0
    9.1409   -2.1981   21.5536 C   0  0  0  0  0  0  0  0  0  0  0  0
   10.5201   -2.0678   21.6775 C   0  0  0  0  0  0  0  0  0  0  0  0
   11.1728   -2.7792   22.6895 C   0  0  0  0  0  0  0  0  0  0  0  0
   10.4656   -3.6352   23.5409 C   0  0  0  0  0  0  0  0  0  0  0  0
   11.2614   -4.4867   24.8205 Cl  0  0  0  0  0  0  0  0  0  0  0  0
    9.0940   -3.8210   23.3234 C   0  0  0  0  0  0  0  0  0  0  0  0
    8.4128   -4.7121   24.0452 F   0  0  0  0  0  0  0  0  0  0  0  0
    8.4271   -3.0863   22.3524 C   0  0  0  0  0  0  0  0  0  0  0  0
    7.3589   -3.1759   22.2504 H   0  0  0  0  0  0  0  0  0  0  0  0
   12.2460   -2.6863   22.8087 H   0  0  0  0  0  0  0  0  0  0  0  0
   11.0678   -1.4148   21.0065 H   0  0  0  0  0  0  0  0  0  0  0  0
    6.6927   -0.0297   19.9045 C   0  0  0  0  0  0  0  0  0  0  0  0
    5.4789    0.6316   20.1576 C   0  0  0  0  0  0  0  0  0  0  0  0
    4.8571    1.2861   19.1038 C   0  0  0  0  0  0  0  0  0  0  0  0
    5.4755    1.2617   17.8468 C   0  0  0  0  0  0  0  0  0  0  0  0
    6.6378    0.6368   17.5981 N   0  0  0  0  0  0  0  0  0  0  0  0
    7.2327    0.0045   18.6172 C   0  0  0  0  0  0  0  0  0  0  0  0
    8.1808   -0.4890   18.4034 H   0  0  0  0  0  0  0  0  0  0  0  0
    5.0045    1.7606   17.0028 H   0  0  0  0  0  0  0  0  0  0  0  0
    3.9210    1.8150   19.2467 H   0  0  0  0  0  0  0  0  0  0  0  0
    5.0660    0.6281   21.1693 H   0  0  0  0  0  0  0  0  0  0  0  0
  1  2  2  0
  2  3  1  0
  3  4  1  0
  4  5  2  0
  5  6  1  0
  6  7  2  0
  7  8  1  0
  7  9  1  0
  9 10  1  0
  9 11  2  0
 11 12  1  0
  6 13  1  0
  5 14  1  0
  2 15  1  0
 15 16  2  0
 16 17  1  0
 17 18  2  0
 18 19  1  0
 19 20  2  0
 20 21  1  0
 18 22  1  0
 17 23  1  0
 16 24  1  0
 11  4  1  0
 20 15  1  0
M  END
>  <plip>  (1) 
-0.07142857142857142

>  <filename>  (1) 
[H][c]1[n][c]([H])[c]([C](=[O])[O][c]2[c]([H])[c]([H])[c]([Cl])[c]([F])[c]2[H])[c]([H])[c]1[H]

$$$$
