
     RDKit          3D

 43 44  0  0  0  0  0  0  0  0999 V2000
    6.8439   -5.9035   29.6646 C   0  0  0  0  0  0  0  0  0  0  0  0
    6.7858   -6.9523   28.5547 C   0  0  0  0  0  0  0  0  0  0  0  0
    6.2807   -6.3966   27.3529 O   0  0  0  0  0  0  0  0  0  0  0  0
    7.2462   -5.8315   26.4890 C   0  0  0  0  0  0  0  0  0  0  0  0
    6.4983   -5.0508   25.4235 C   0  0  0  0  0  0  0  0  0  0  0  0
    7.4300   -4.4875   24.3381 C   0  0  0  0  0  0  0  0  0  0  0  0
    6.5337   -3.4865   23.1810 S   0  0  0  0  0  0  0  0  0  0  0  0
    5.5875   -4.3079   22.4473 O   0  0  0  0  0  0  0  0  0  0  0  0
    6.1139   -2.2886   23.8898 O   0  0  0  0  0  0  0  0  0  0  0  0
    7.6800   -2.9959   22.0320 N   0  0  0  0  0  0  0  0  0  0  0  0
    8.9086   -2.3456   22.5703 C   0  0  0  0  0  0  0  0  0  0  0  0
    9.5752   -1.4848   21.4828 C   0  0  0  0  0  0  0  0  0  0  0  0
    8.7385   -0.4496   20.9461 O   0  0  0  0  0  0  0  0  0  0  0  0
    7.3258   -0.6446   21.0662 C   0  0  0  0  0  0  0  0  0  0  0  0
    6.6204    0.1056   19.9566 C   0  0  0  0  0  0  0  0  0  0  0  0
    5.3755    0.7290   20.1455 C   0  0  0  0  0  0  0  0  0  0  0  0
    4.7588    1.3484   19.0530 C   0  0  0  0  0  0  0  0  0  0  0  0
    5.4013    1.3105   17.8123 C   0  0  0  0  0  0  0  0  0  0  0  0
    6.5776    0.6995   17.6065 N   0  0  0  0  0  0  0  0  0  0  0  0
    7.1670    0.1242   18.6616 C   0  0  0  0  0  0  0  0  0  0  0  0
    8.1299   -0.3484   18.4716 H   0  0  0  0  0  0  0  0  0  0  0  0
    4.9621    1.7919   16.9410 H   0  0  0  0  0  0  0  0  0  0  0  0
    3.8091    1.8662   19.1458 H   0  0  0  0  0  0  0  0  0  0  0  0
    4.8963    0.7520   21.1270 H   0  0  0  0  0  0  0  0  0  0  0  0
    6.9730   -2.1555   21.0109 C   0  0  0  0  0  0  0  0  0  0  0  0
    5.8894   -2.2834   21.0698 H   0  0  0  0  0  0  0  0  0  0  0  0
    7.2471   -2.4930   20.0143 H   0  0  0  0  0  0  0  0  0  0  0  0
    6.9846   -0.2451   22.0379 H   0  0  0  0  0  0  0  0  0  0  0  0
    9.9138   -2.1509   20.6751 H   0  0  0  0  0  0  0  0  0  0  0  0
   10.4455   -0.9698   21.9007 H   0  0  0  0  0  0  0  0  0  0  0  0
    8.7117   -1.7108   23.4481 H   0  0  0  0  0  0  0  0  0  0  0  0
    9.6261   -3.1264   22.8559 H   0  0  0  0  0  0  0  0  0  0  0  0
    7.9303   -5.2572   23.7457 H   0  0  0  0  0  0  0  0  0  0  0  0
    8.1694   -3.7992   24.7568 H   0  0  0  0  0  0  0  0  0  0  0  0
    5.7419   -5.7068   24.9781 H   0  0  0  0  0  0  0  0  0  0  0  0
    5.9535   -4.2289   25.9071 H   0  0  0  0  0  0  0  0  0  0  0  0
    7.9345   -5.1560   27.0301 H   0  0  0  0  0  0  0  0  0  0  0  0
    7.8544   -6.6273   26.0246 H   0  0  0  0  0  0  0  0  0  0  0  0
    6.1141   -7.7827   28.8040 H   0  0  0  0  0  0  0  0  0  0  0  0
    7.7910   -7.3901   28.4196 H   0  0  0  0  0  0  0  0  0  0  0  0
    7.3637   -5.0149   29.2904 H   0  0  0  0  0  0  0  0  0  0  0  0
    7.3981   -6.2677   30.5377 H   0  0  0  0  0  0  0  0  0  0  0  0
    5.8432   -5.5951   29.9871 H   0  0  0  0  0  0  0  0  0  0  0  0
  1  2  1  0
  2  3  1  0
  3  4  1  0
  4  5  1  0
  5  6  1  0
  6  7  1  0
  7  8  2  0
  7  9  2  0
  7 10  1  0
 10 11  1  0
 11 12  1  0
 12 13  1  0
 13 14  1  0
 14 15  1  0
 15 16  2  0
 16 17  1  0
 17 18  2  0
 18 19  1  0
 19 20  2  0
 20 21  1  0
 18 22  1  0
 17 23  1  0
 16 24  1  0
 14 25  1  0
 25 26  1  0
 25 27  1  0
 14 28  1  0
 12 29  1  0
 12 30  1  0
 11 31  1  0
 11 32  1  0
  6 33  1  0
  6 34  1  0
  5 35  1  0
  5 36  1  0
  4 37  1  0
  4 38  1  0
  2 39  1  0
  2 40  1  0
  1 41  1  0
  1 42  1  0
  1 43  1  0
 25 10  1  0
 20 15  1  0
M  END
>  <plip>  (1) 
-0.10344827586206896

>  <filename>  (1) 
[H][c]1[n][c]([H])[c]([C]2([H])[O][C]([H])([H])[C]([H])([H])[N]([S](=[O])(=[O])[C]([H])([H])[C]([H])([H])[C]([H])([H])[O][C]([H])([H])[C]([H])([H])[H])[C]2([H])[H])[c]([H])[c]1[H]

$$$$
