
     RDKit          3D

 27 28  0  0  0  0  0  0  0  0999 V2000
    5.0074    1.7640   17.0136 H   0  0  0  0  0  0  0  0  0  0  0  0
    5.4681    1.2601   17.8618 C   0  0  0  0  0  0  0  0  0  0  0  0
    6.6291    0.6355   17.6190 N   0  0  0  0  0  0  0  0  0  0  0  0
    7.2157    0.0078   18.6411 C   0  0  0  0  0  0  0  0  0  0  0  0
    8.1591   -0.4967   18.4484 H   0  0  0  0  0  0  0  0  0  0  0  0
    6.6745   -0.0310   19.9344 C   0  0  0  0  0  0  0  0  0  0  0  0
    7.3834   -0.7689   20.9864 C   0  0  0  0  0  0  0  0  0  0  0  0
    6.8488   -0.7661   22.2351 N   0  0  0  0  0  0  0  0  0  0  0  0
    7.4929   -1.3815   23.2017 N   0  0  0  0  0  0  0  0  0  0  0  0
    8.6513   -2.0071   22.9234 C   0  0  0  0  0  0  0  0  0  0  0  0
    9.3351   -2.7266   24.0216 C   0  0  0  0  0  0  0  0  0  0  0  0
    9.2106   -2.1790   24.9510 H   0  0  0  0  0  0  0  0  0  0  0  0
   10.3963   -2.8682   23.8113 H   0  0  0  0  0  0  0  0  0  0  0  0
    8.6283   -4.0569   24.1273 C   0  0  0  0  0  0  0  0  0  0  0  0
    7.8753   -4.3540   25.0305 O   0  0  0  0  0  0  0  0  0  0  0  0
    8.8929   -4.8800   23.0728 N   0  0  0  0  0  0  0  0  0  0  0  0
    9.6375   -4.5674   22.4674 H   0  0  0  0  0  0  0  0  0  0  0  0
    8.6521   -6.3109   23.1933 C   0  0  0  0  0  0  0  0  0  0  0  0
    9.1782   -6.8173   22.3829 H   0  0  0  0  0  0  0  0  0  0  0  0
    7.5826   -6.5387   23.1163 H   0  0  0  0  0  0  0  0  0  0  0  0
    9.0424   -6.6936   24.1477 H   0  0  0  0  0  0  0  0  0  0  0  0
    9.1603   -2.0720   21.6707 N   0  0  0  0  0  0  0  0  0  0  0  0
    8.5262   -1.4432   20.6974 N   0  0  0  0  0  0  0  0  0  0  0  0
    5.4631    0.6320   20.1850 C   0  0  0  0  0  0  0  0  0  0  0  0
    5.0296    0.6319   21.1868 H   0  0  0  0  0  0  0  0  0  0  0  0
    4.8526    1.2835   19.1184 C   0  0  0  0  0  0  0  0  0  0  0  0
    3.9162    1.8123   19.2461 H   0  0  0  0  0  0  0  0  0  0  0  0
  1  2  1  0
  2  3  2  0
  3  4  1  0
  4  5  1  0
  4  6  2  0
  6  7  1  0
  7  8  2  0
  8  9  1  0
  9 10  2  0
 10 11  1  0
 11 12  1  0
 11 13  1  0
 11 14  1  0
 14 15  2  0
 14 16  1  0
 16 17  1  0
 16 18  1  0
 18 19  1  0
 18 20  1  0
 18 21  1  0
 10 22  1  0
 22 23  2  0
  6 24  1  0
 24 25  1  0
 24 26  2  0
 26 27  1  0
 26  2  1  0
 23  7  1  0
M  END
>  <plip>  (1) 
-0.034482758620689655

>  <filename>  (1) 
[H][c]1[n][c]([H])[c](-[c]2[n][n][c]([C]([H])([H])[C](=[O])[N]([H])[C]([H])([H])[H])[n][n]2)[c]([H])[c]1[H]

$$$$
