
     RDKit          3D

 40 42  0  0  0  0  0  0  0  0999 V2000
    4.9161    1.7928   16.9828 H   0  0  0  0  0  0  0  0  0  0  0  0
    5.3967    1.2970   17.8217 C   0  0  0  0  0  0  0  0  0  0  0  0
    6.5578    0.6846   17.5547 N   0  0  0  0  0  0  0  0  0  0  0  0
    7.1720    0.0793   18.5803 C   0  0  0  0  0  0  0  0  0  0  0  0
    8.1175   -0.4121   18.3536 H   0  0  0  0  0  0  0  0  0  0  0  0
    6.6635    0.0272   19.8849 C   0  0  0  0  0  0  0  0  0  0  0  0
    7.4116   -0.7061   20.9789 C   0  0  1  0  0  0  0  0  0  0  0  0
    8.3968   -1.0148   20.5976 H   0  0  0  0  0  0  0  0  0  0  0  0
    7.6022    0.0976   22.1731 N   0  0  0  0  0  0  0  0  0  0  0  0
    8.3883    1.2628   22.1010 N   0  0  0  0  0  0  0  0  0  0  0  0
    7.6311    2.4695   22.5436 C   0  0  0  0  0  0  0  0  0  0  0  0
    7.2493    2.3269   23.5629 H   0  0  0  0  0  0  0  0  0  0  0  0
    6.7771    2.5942   21.8719 H   0  0  0  0  0  0  0  0  0  0  0  0
    8.5188    3.7133   22.4767 C   0  0  0  0  0  0  0  0  0  0  0  0
    7.9605    4.5910   22.8161 H   0  0  0  0  0  0  0  0  0  0  0  0
    8.7420    3.8866   21.4132 H   0  0  0  0  0  0  0  0  0  0  0  0
    9.7390    3.5735   23.2897 N   0  0  0  0  0  0  0  0  0  0  0  0
   10.5853    4.7713   23.2671 C   0  0  0  0  0  0  0  0  0  0  0  0
   11.5992    4.4875   23.5818 H   0  0  0  0  0  0  0  0  0  0  0  0
   10.7016    5.1902   22.2491 H   0  0  0  0  0  0  0  0  0  0  0  0
   10.0689    5.8548   24.2058 C   0  0  0  0  0  0  0  0  0  0  0  0
    9.9170    5.4414   25.2070 H   0  0  0  0  0  0  0  0  0  0  0  0
    9.1137    6.2664   23.8607 H   0  0  0  0  0  0  0  0  0  0  0  0
   10.7863    6.6810   24.2694 H   0  0  0  0  0  0  0  0  0  0  0  0
   10.4664    2.3752   22.8559 C   0  0  0  0  0  0  0  0  0  0  0  0
   11.3315    2.2408   23.5146 H   0  0  0  0  0  0  0  0  0  0  0  0
   10.8557    2.4717   21.8231 H   0  0  0  0  0  0  0  0  0  0  0  0
    9.5990    1.1239   22.9458 C   0  0  0  0  0  0  0  0  0  0  0  0
   10.1589    0.2577   22.5886 H   0  0  0  0  0  0  0  0  0  0  0  0
    9.3067    0.9332   23.9885 H   0  0  0  0  0  0  0  0  0  0  0  0
    7.0050   -0.4687   23.3013 C   0  0  0  0  0  0  0  0  0  0  0  0
    6.9688   -0.0285   24.4212 O   0  0  0  0  0  0  0  0  0  0  0  0
    6.4606   -1.6587   22.9473 O   0  0  0  0  0  0  0  0  0  0  0  0
    6.6247   -1.9081   21.5508 C   0  0  0  0  0  0  0  0  0  0  0  0
    7.1481   -2.8585   21.4261 H   0  0  0  0  0  0  0  0  0  0  0  0
    5.6311   -2.0095   21.0977 H   0  0  0  0  0  0  0  0  0  0  0  0
    5.4403    0.6562   20.1407 C   0  0  0  0  0  0  0  0  0  0  0  0
    5.0044    0.6383   21.1448 H   0  0  0  0  0  0  0  0  0  0  0  0
    4.8024    1.3124   19.0903 C   0  0  0  0  0  0  0  0  0  0  0  0
    3.8729    1.8407   19.2499 H   0  0  0  0  0  0  0  0  0  0  0  0
  1  2  1  0
  2  3  2  0
  3  4  1  0
  4  5  1  0
  4  6  2  0
  6  7  1  0
  7  8  1  6
  7  9  1  0
  9 10  1  0
 10 11  1  0
 11 12  1  0
 11 13  1  0
 11 14  1  0
 14 15  1  0
 14 16  1  0
 14 17  1  0
 17 18  1  0
 18 19  1  0
 18 20  1  0
 18 21  1  0
 21 22  1  0
 21 23  1  0
 21 24  1  0
 17 25  1  0
 25 26  1  0
 25 27  1  0
 25 28  1  0
 28 29  1  0
 28 30  1  0
  9 31  1  0
 31 32  2  0
 31 33  1  0
 33 34  1  0
 34 35  1  0
 34 36  1  0
  6 37  1  0
 37 38  1  0
 37 39  2  0
 39 40  1  0
 39  2  1  0
 34  7  1  0
 28 10  1  0
M  END
>  <plip>  (1) 
-0.07142857142857142

>  <filename>  (1) 
[H][c]1[n][c]([H])[c]([C@@]2([H])[N]([N]3[C]([H])([H])[C]([H])([H])[N]([C]([H])([H])[C]([H])([H])[H])[C]([H])([H])[C]3([H])[H])[C](=[O])[O][C]2([H])[H])[c]([H])[c]1[H]

$$$$
