
     RDKit          3D

 33 34  0  0  0  0  0  0  0  0999 V2000
   10.3127    0.1535   25.8521 C   0  0  0  0  0  0  0  0  0  0  0  0
    8.6693   -0.4145   25.3521 S   0  0  0  0  0  0  0  0  0  0  0  0
    8.1284   -1.1111   26.5677 O   0  0  0  0  0  0  0  0  0  0  0  0
    7.9060    1.2446   25.2894 C   0  0  0  0  0  0  0  0  0  0  0  0
    7.7032    1.8713   26.5302 C   0  0  0  0  0  0  0  0  0  0  0  0
    7.2090    3.1727   26.5962 C   0  0  0  0  0  0  0  0  0  0  0  0
    6.8817    3.8511   25.4170 C   0  0  0  0  0  0  0  0  0  0  0  0
    7.0646    3.2305   24.1823 C   0  0  0  0  0  0  0  0  0  0  0  0
    7.5597    1.9083   24.0865 C   0  0  0  0  0  0  0  0  0  0  0  0
    7.6499    1.3061   22.7049 C   0  0  0  0  0  0  0  0  0  0  0  0
    8.0319    1.8911   21.7180 O   0  0  0  0  0  0  0  0  0  0  0  0
    7.1344    0.0401   22.5948 N   0  0  0  0  0  0  0  0  0  0  0  0
    7.5229   -0.7720   21.2286 S   0  0  0  0  0  0  0  0  0  0  0  0
    6.9296   -2.0668   21.4766 O   0  0  0  0  0  0  0  0  0  0  0  0
    8.9309   -0.6104   20.9384 O   0  0  0  0  0  0  0  0  0  0  0  0
    6.6155    0.1384   20.0725 C   0  0  0  0  0  0  0  0  0  0  0  0
    5.3712    0.7602   20.2514 C   0  0  0  0  0  0  0  0  0  0  0  0
    4.8068    1.3243   19.1111 C   0  0  0  0  0  0  0  0  0  0  0  0
    5.4871    1.2469   17.8941 C   0  0  0  0  0  0  0  0  0  0  0  0
    6.6728    0.6406   17.7536 N   0  0  0  0  0  0  0  0  0  0  0  0
    7.2346    0.1091   18.8348 C   0  0  0  0  0  0  0  0  0  0  0  0
    8.2124   -0.3543   18.6882 H   0  0  0  0  0  0  0  0  0  0  0  0
    5.0557    1.6787   16.9916 H   0  0  0  0  0  0  0  0  0  0  0  0
    3.8615    1.8467   19.1503 H   0  0  0  0  0  0  0  0  0  0  0  0
    4.8632    0.8340   21.2181 H   0  0  0  0  0  0  0  0  0  0  0  0
    7.0278   -0.5889   23.3712 H   0  0  0  0  0  0  0  0  0  0  0  0
    6.8307    3.7621   23.2595 H   0  0  0  0  0  0  0  0  0  0  0  0
    6.4750    4.8589   25.4565 H   0  0  0  0  0  0  0  0  0  0  0  0
    7.0800    3.6583   27.5623 H   0  0  0  0  0  0  0  0  0  0  0  0
    7.9425    1.3319   27.4427 H   0  0  0  0  0  0  0  0  0  0  0  0
   11.0577   -0.6176   25.6653 H   0  0  0  0  0  0  0  0  0  0  0  0
   10.5749    1.0639   25.3126 H   0  0  0  0  0  0  0  0  0  0  0  0
   10.2572    0.3383   26.9254 H   0  0  0  0  0  0  0  0  0  0  0  0
  1  2  1  0
  2  3  2  0
  2  4  1  0
  4  5  2  0
  5  6  1  0
  6  7  2  0
  7  8  1  0
  8  9  2  0
  9 10  1  0
 10 11  2  0
 10 12  1  0
 12 13  1  0
 13 14  2  0
 13 15  2  0
 13 16  1  0
 16 17  2  0
 17 18  1  0
 18 19  2  0
 19 20  1  0
 20 21  2  0
 21 22  1  0
 19 23  1  0
 18 24  1  0
 17 25  1  0
 12 26  1  0
  8 27  1  0
  7 28  1  0
  6 29  1  0
  5 30  1  0
  1 31  1  0
  1 32  1  0
  1 33  1  0
  9  4  1  0
 21 16  1  0
M  END
>  <plip>  (1) 
-0.07142857142857142

>  <filename>  (1) 
[H][c]1[n][c]([H])[c]([S](=[O])(=[O])[N]([H])[C](=[O])[c]2[c]([H])[c]([H])[c]([H])[c]([H])[c]2[S](=[O])[C]([H])([H])[H])[c]([H])[c]1[H]

$$$$
