
     RDKit          3D

 45 47  0  0  0  0  0  0  0  0999 V2000
    4.9256    1.7995   16.9792 H   0  0  0  0  0  0  0  0  0  0  0  0
    5.3895    1.3012   17.8293 C   0  0  0  0  0  0  0  0  0  0  0  0
    6.5535    0.6816   17.5737 N   0  0  0  0  0  0  0  0  0  0  0  0
    7.1515    0.0644   18.5992 C   0  0  0  0  0  0  0  0  0  0  0  0
    8.1004   -0.4166   18.3555 H   0  0  0  0  0  0  0  0  0  0  0  0
    6.6367    0.0082   19.9063 C   0  0  0  0  0  0  0  0  0  0  0  0
    7.4030   -0.6685   21.0168 C   0  0  0  0  0  0  0  0  0  0  0  0
    6.7320   -1.0100   21.8133 H   0  0  0  0  0  0  0  0  0  0  0  0
    7.9391   -1.5554   20.6573 H   0  0  0  0  0  0  0  0  0  0  0  0
    8.3957    0.2298   21.5998 N   0  0  0  0  0  0  0  0  0  0  0  0
    9.7206    0.3543   21.2679 C   0  0  0  0  0  0  0  0  0  0  0  0
   10.2138   -0.3153   20.5753 H   0  0  0  0  0  0  0  0  0  0  0  0
   10.2738    1.3570   21.8790 N   0  0  0  0  0  0  0  0  0  0  0  0
    9.2896    1.9560   22.6451 N   0  0  0  0  0  0  0  0  0  0  0  0
    8.1930    1.2867   22.4531 C   0  0  0  0  0  0  0  0  0  0  0  0
    6.9764    1.5073   22.9644 O   0  0  0  0  0  0  0  0  0  0  0  0
    6.8473    2.6382   23.8636 C   0  0  0  0  0  0  0  0  0  0  0  0
    7.5160    2.4826   24.7210 H   0  0  0  0  0  0  0  0  0  0  0  0
    7.1939    3.5439   23.3487 H   0  0  0  0  0  0  0  0  0  0  0  0
    5.3781    2.7374   24.2595 C   0  0  0  0  0  0  0  0  0  0  0  0
    4.7833    2.8572   23.3469 H   0  0  0  0  0  0  0  0  0  0  0  0
    5.0605    1.7928   24.7185 H   0  0  0  0  0  0  0  0  0  0  0  0
    5.0822    3.8841   25.2571 C   0  0  0  0  0  0  0  0  0  0  0  0
    5.8650    4.6542   25.1910 H   0  0  0  0  0  0  0  0  0  0  0  0
    4.1537    4.4042   24.9902 H   0  0  0  0  0  0  0  0  0  0  0  0
    4.9518    3.5089   26.6616 N   0  0  0  0  0  0  0  0  0  0  0  0
    6.1326    2.8668   27.2328 C   0  0  0  0  0  0  0  0  0  0  0  0
    6.2884    1.8516   26.8126 H   0  0  0  0  0  0  0  0  0  0  0  0
    7.0215    3.4602   26.9783 H   0  0  0  0  0  0  0  0  0  0  0  0
    6.0156    2.7466   28.7581 C   0  0  0  0  0  0  0  0  0  0  0  0
    6.9014    2.2265   29.1389 H   0  0  0  0  0  0  0  0  0  0  0  0
    6.0243    3.7531   29.1972 H   0  0  0  0  0  0  0  0  0  0  0  0
    4.7313    2.0057   29.1660 C   0  0  0  0  0  0  0  0  0  0  0  0
    4.6175    1.9887   30.2577 H   0  0  0  0  0  0  0  0  0  0  0  0
    4.7977    0.9508   28.8525 H   0  0  0  0  0  0  0  0  0  0  0  0
    3.5166    2.6664   28.4954 C   0  0  0  0  0  0  0  0  0  0  0  0
    3.3557    3.6695   28.9123 H   0  0  0  0  0  0  0  0  0  0  0  0
    2.6034    2.0926   28.6918 H   0  0  0  0  0  0  0  0  0  0  0  0
    3.7215    2.7840   26.9790 C   0  0  0  0  0  0  0  0  0  0  0  0
    2.8774    3.3243   26.5313 H   0  0  0  0  0  0  0  0  0  0  0  0
    3.7145    1.7636   26.5400 H   0  0  0  0  0  0  0  0  0  0  0  0
    5.4214    0.6558   20.1480 C   0  0  0  0  0  0  0  0  0  0  0  0
    4.9981    0.6486   21.1533 H   0  0  0  0  0  0  0  0  0  0  0  0
    4.7934    1.3160   19.0911 C   0  0  0  0  0  0  0  0  0  0  0  0
    3.8652    1.8499   19.2316 H   0  0  0  0  0  0  0  0  0  0  0  0
  1  2  1  0
  2  3  2  0
  3  4  1  0
  4  5  1  0
  4  6  2  0
  6  7  1  0
  7  8  1  0
  7  9  1  0
  7 10  1  0
 10 11  1  0
 11 12  1  0
 11 13  2  0
 13 14  1  0
 14 15  2  0
 15 16  1  0
 16 17  1  0
 17 18  1  0
 17 19  1  0
 17 20  1  0
 20 21  1  0
 20 22  1  0
 20 23  1  0
 23 24  1  0
 23 25  1  0
 23 26  1  0
 26 27  1  0
 27 28  1  0
 27 29  1  0
 27 30  1  0
 30 31  1  0
 30 32  1  0
 30 33  1  0
 33 34  1  0
 33 35  1  0
 33 36  1  0
 36 37  1  0
 36 38  1  0
 36 39  1  0
 39 40  1  0
 39 41  1  0
  6 42  1  0
 42 43  1  0
 42 44  2  0
 44 45  1  0
 44  2  1  0
 15 10  1  0
 39 26  1  0
M  END
>  <plip>  (1) 
-0.03571428571428571

>  <filename>  (1) 
[H][c]1[n][c]([H])[c]([C]([H])([H])[n]2[c]([H])[n][n][c]2[O][C]([H])([H])[C]([H])([H])[C]([H])([H])[N]2[C]([H])([H])[C]([H])([H])[C]([H])([H])[C]([H])([H])[C]2([H])[H])[c]([H])[c]1[H]

$$$$
