
     RDKit          3D

 39 41  0  0  0  0  0  0  0  0999 V2000
    4.9272    1.8150   16.9808 H   0  0  0  0  0  0  0  0  0  0  0  0
    5.3840    1.3030   17.8254 C   0  0  0  0  0  0  0  0  0  0  0  0
    6.5410    0.6750   17.5695 N   0  0  0  0  0  0  0  0  0  0  0  0
    7.1370    0.0548   18.5946 C   0  0  0  0  0  0  0  0  0  0  0  0
    8.0844   -0.4317   18.3561 H   0  0  0  0  0  0  0  0  0  0  0  0
    6.6181    0.0051   19.9001 C   0  0  0  0  0  0  0  0  0  0  0  0
    7.3931   -0.6727   21.0180 C   0  0  0  0  0  0  0  0  0  0  0  0
    7.6947   -1.6801   20.7133 H   0  0  0  0  0  0  0  0  0  0  0  0
    6.7683   -0.7904   21.9055 H   0  0  0  0  0  0  0  0  0  0  0  0
    8.6470    0.0681   21.3578 C   0  0  0  0  0  0  0  0  0  0  0  0
    9.9154   -0.2311   20.9675 C   0  0  0  0  0  0  0  0  0  0  0  0
   10.1727   -1.1285   20.4261 H   0  0  0  0  0  0  0  0  0  0  0  0
   10.7765    0.8146   21.3869 C   0  0  0  0  0  0  0  0  0  0  0  0
   11.8454    0.8615   21.2377 H   0  0  0  0  0  0  0  0  0  0  0  0
   10.0110    1.7405   22.0257 C   0  0  0  0  0  0  0  0  0  0  0  0
   10.3221    2.6314   22.5586 H   0  0  0  0  0  0  0  0  0  0  0  0
    8.6820    1.3006   22.0098 N   0  0  0  0  0  0  0  0  0  0  0  0
    7.5510    1.9038   22.6314 C   0  0  0  0  0  0  0  0  0  0  0  0
    6.5829    1.2822   23.0383 O   0  0  0  0  0  0  0  0  0  0  0  0
    7.6275    3.2567   22.7171 N   0  0  0  0  0  0  0  0  0  0  0  0
    8.3801    3.6991   22.2276 H   0  0  0  0  0  0  0  0  0  0  0  0
    6.6448    4.0432   23.4515 C   0  0  0  0  0  0  0  0  0  0  0  0
    6.7686    5.0951   23.1589 H   0  0  0  0  0  0  0  0  0  0  0  0
    5.6381    3.7320   23.1532 H   0  0  0  0  0  0  0  0  0  0  0  0
    6.7768    3.8964   24.9626 C   0  0  0  0  0  0  0  0  0  0  0  0
    5.8633    3.1310   25.7105 C   0  0  0  0  0  0  0  0  0  0  0  0
    5.0249    2.6581   25.2035 H   0  0  0  0  0  0  0  0  0  0  0  0
    6.0280    2.9586   27.0915 C   0  0  0  0  0  0  0  0  0  0  0  0
    5.3178    2.3545   27.6544 H   0  0  0  0  0  0  0  0  0  0  0  0
    7.1104    3.5554   27.7463 C   0  0  0  0  0  0  0  0  0  0  0  0
    7.2573    3.3961   28.8134 H   0  0  0  0  0  0  0  0  0  0  0  0
    8.0144    4.3347   27.0144 C   0  0  0  0  0  0  0  0  0  0  0  0
    8.8515    4.8239   27.5020 H   0  0  0  0  0  0  0  0  0  0  0  0
    7.8508    4.4942   25.6364 C   0  0  0  0  0  0  0  0  0  0  0  0
    8.5682    5.0889   25.0756 H   0  0  0  0  0  0  0  0  0  0  0  0
    5.4114    0.6716   20.1437 C   0  0  0  0  0  0  0  0  0  0  0  0
    5.0175    0.6965   21.1596 H   0  0  0  0  0  0  0  0  0  0  0  0
    4.7721    1.3249   19.0824 C   0  0  0  0  0  0  0  0  0  0  0  0
    3.8404    1.8691   19.2175 H   0  0  0  0  0  0  0  0  0  0  0  0
  1  2  1  0
  2  3  2  0
  3  4  1  0
  4  5  1  0
  4  6  2  0
  6  7  1  0
  7  8  1  0
  7  9  1  0
  7 10  1  0
 10 11  2  0
 11 12  1  0
 11 13  1  0
 13 14  1  0
 13 15  2  0
 15 16  1  0
 15 17  1  0
 17 18  1  0
 18 19  2  0
 18 20  1  0
 20 21  1  0
 20 22  1  0
 22 23  1  0
 22 24  1  0
 22 25  1  0
 25 26  2  0
 26 27  1  0
 26 28  1  0
 28 29  1  0
 28 30  2  0
 30 31  1  0
 30 32  1  0
 32 33  1  0
 32 34  2  0
 34 35  1  0
  6 36  1  0
 36 37  1  0
 36 38  2  0
 38 39  1  0
 38  2  1  0
 17 10  1  0
 34 25  1  0
M  END
>  <plip>  (1) 
-0.10714285714285714

>  <filename>  (1) 
[H][c]1[n][c]([H])[c]([C]([H])([H])[c]2[c]([H])[c]([H])[c]([H])[n]2[C](=[O])[N]([H])[C]([H])([H])[c]2[c]([H])[c]([H])[c]([H])[c]([H])[c]2[H])[c]([H])[c]1[H]

$$$$
