
     RDKit          3D

 40 41  0  0  0  0  0  0  0  0999 V2000
    6.8178    3.3122   22.4075 H   0  0  0  0  0  0  0  0  0  0  0  0
    6.4069    2.6092   22.9389 O   0  0  0  0  0  0  0  0  0  0  0  0
    7.4969    1.8289   23.1021 C   0  0  0  0  0  0  0  0  0  0  0  0
    8.5457    2.1970   22.6282 O   0  0  0  0  0  0  0  0  0  0  0  0
    7.2216    0.6001   23.8864 C   0  0  0  0  0  0  0  0  0  0  0  0
    8.0291   -0.5016   24.1340 C   0  0  0  0  0  0  0  0  0  0  0  0
    9.3934   -0.7958   23.5879 C   0  0  0  0  0  0  0  0  0  0  0  0
    9.9612    0.1393   23.5068 H   0  0  0  0  0  0  0  0  0  0  0  0
    9.9381   -1.4294   24.3035 H   0  0  0  0  0  0  0  0  0  0  0  0
    9.4103   -1.5152   22.2064 C   0  0  0  0  0  0  0  0  0  0  0  0
    8.7451   -0.5858   21.1374 C   0  0  0  0  0  0  0  0  0  0  0  0
    9.4182    0.1662   20.4566 O   0  0  0  0  0  0  0  0  0  0  0  0
    7.3751   -0.6602   20.9484 N   0  0  0  0  0  0  0  0  0  0  0  0
    6.8134   -1.0739   21.6779 H   0  0  0  0  0  0  0  0  0  0  0  0
    6.6723    0.0068   19.9083 C   0  0  0  0  0  0  0  0  0  0  0  0
    7.1751    0.0620   18.5839 C   0  0  0  0  0  0  0  0  0  0  0  0
    8.1233   -0.4167   18.3632 H   0  0  0  0  0  0  0  0  0  0  0  0
    6.5517    0.6734   17.5705 N   0  0  0  0  0  0  0  0  0  0  0  0
    5.3919    1.2936   17.8419 C   0  0  0  0  0  0  0  0  0  0  0  0
    4.9148    1.7904   16.9999 H   0  0  0  0  0  0  0  0  0  0  0  0
    4.8099    1.3029   19.1126 C   0  0  0  0  0  0  0  0  0  0  0  0
    3.8801    1.8343   19.2623 H   0  0  0  0  0  0  0  0  0  0  0  0
    5.4483    0.6334   20.1669 C   0  0  0  0  0  0  0  0  0  0  0  0
    5.0241    0.6202   21.1710 H   0  0  0  0  0  0  0  0  0  0  0  0
   10.8935   -1.7309   21.8183 C   0  0  0  0  0  0  0  0  0  0  0  0
   11.4395   -0.7830   21.7712 H   0  0  0  0  0  0  0  0  0  0  0  0
   10.9660   -2.1891   20.8329 H   0  0  0  0  0  0  0  0  0  0  0  0
   11.3986   -2.3987   22.5263 H   0  0  0  0  0  0  0  0  0  0  0  0
    8.7413   -2.9063   22.2745 C   0  0  0  0  0  0  0  0  0  0  0  0
    8.7713   -3.3921   21.2929 H   0  0  0  0  0  0  0  0  0  0  0  0
    7.6966   -2.8619   22.6000 H   0  0  0  0  0  0  0  0  0  0  0  0
    9.2816   -3.5562   22.9778 H   0  0  0  0  0  0  0  0  0  0  0  0
    7.2589   -1.3187   24.9986 C   0  0  0  0  0  0  0  0  0  0  0  0
    7.6523   -2.6325   25.5959 C   0  0  0  0  0  0  0  0  0  0  0  0
    8.7184   -2.6428   25.8429 H   0  0  0  0  0  0  0  0  0  0  0  0
    7.0808   -2.8457   26.5003 H   0  0  0  0  0  0  0  0  0  0  0  0
    7.4808   -3.4496   24.8869 H   0  0  0  0  0  0  0  0  0  0  0  0
    6.0720   -0.7716   25.2411 N   0  0  0  0  0  0  0  0  0  0  0  0
    6.0578    0.3767   24.5587 N   0  0  0  0  0  0  0  0  0  0  0  0
    5.2274    0.9553   24.6260 H   0  0  0  0  0  0  0  0  0  0  0  0
  1  2  1  0
  2  3  1  0
  3  4  2  0
  3  5  1  0
  5  6  2  0
  6  7  1  0
  7  8  1  0
  7  9  1  0
  7 10  1  0
 10 11  1  0
 11 12  2  0
 11 13  1  0
 13 14  1  0
 13 15  1  0
 15 16  2  0
 16 17  1  0
 16 18  1  0
 18 19  2  0
 19 20  1  0
 19 21  1  0
 21 22  1  0
 21 23  2  0
 23 24  1  0
 10 25  1  0
 25 26  1  0
 25 27  1  0
 25 28  1  0
 10 29  1  0
 29 30  1  0
 29 31  1  0
 29 32  1  0
  6 33  1  0
 33 34  1  0
 34 35  1  0
 34 36  1  0
 34 37  1  0
 33 38  2  0
 38 39  1  0
 39 40  1  0
 39  5  1  0
 23 15  1  0
M  END
>  <plip>  (1) 
-0.10714285714285714

>  <filename>  (1) 
[H][O][C](=[O])[c]1[c]([C]([H])([H])[C]([C](=[O])[N]([H])[c]2[c]([H])[n][c]([H])[c]([H])[c]2[H])([C]([H])([H])[H])[C]([H])([H])[H])[c]([C]([H])([H])[H])[n][n]1[H]

$$$$
