
     RDKit          3D

 44 46  0  0  0  0  0  0  0  0999 V2000
    4.3951    7.1956   27.7217 C   0  0  0  0  0  0  0  0  0  0  0  0
    4.6247    6.5518   26.3749 C   0  0  0  0  0  0  0  0  0  0  0  0
    5.1785    5.2420   26.2912 C   0  0  0  0  0  0  0  0  0  0  0  0
    5.4256    4.6304   25.0690 C   0  0  0  0  0  0  0  0  0  0  0  0
    5.1144    5.3238   23.8794 C   0  0  0  0  0  0  0  0  0  0  0  0
    5.2397    5.0140   22.4762 C   0  0  0  0  0  0  0  0  0  0  0  0
    5.8558    3.7659   21.9200 C   0  0  0  0  0  0  0  0  0  0  0  0
    7.3992    3.8304   21.9324 C   0  0  0  0  0  0  0  0  0  0  0  0
    8.0359    2.6122   21.4475 N   0  0  0  0  0  0  0  0  0  0  0  0
    8.0415    1.4749   22.1963 C   0  0  0  0  0  0  0  0  0  0  0  0
    7.6337    1.4526   23.3488 O   0  0  0  0  0  0  0  0  0  0  0  0
    8.5689    0.2223   21.5162 C   0  0  0  0  0  0  0  0  0  0  0  0
    7.4252   -0.6840   20.9984 C   0  0  0  0  0  0  0  0  0  0  0  0
    6.6422   -0.0077   19.9001 C   0  0  0  0  0  0  0  0  0  0  0  0
    5.4289    0.6498   20.1442 C   0  0  0  0  0  0  0  0  0  0  0  0
    4.7954    1.3134   19.0905 C   0  0  0  0  0  0  0  0  0  0  0  0
    5.3912    1.3041   17.8267 C   0  0  0  0  0  0  0  0  0  0  0  0
    6.5579    0.6940   17.5703 N   0  0  0  0  0  0  0  0  0  0  0  0
    7.1577    0.0709   18.5928 C   0  0  0  0  0  0  0  0  0  0  0  0
    8.1107   -0.4073   18.3558 H   0  0  0  0  0  0  0  0  0  0  0  0
    4.9223    1.8041   16.9813 H   0  0  0  0  0  0  0  0  0  0  0  0
    3.8712    1.8616   19.2374 H   0  0  0  0  0  0  0  0  0  0  0  0
    5.0098    0.6431   21.1528 H   0  0  0  0  0  0  0  0  0  0  0  0
    6.7654   -0.9467   21.8352 H   0  0  0  0  0  0  0  0  0  0  0  0
    7.8444   -1.6350   20.6427 H   0  0  0  0  0  0  0  0  0  0  0  0
    9.1405   -0.3017   22.2864 H   0  0  0  0  0  0  0  0  0  0  0  0
    9.2577    0.4624   20.6946 H   0  0  0  0  0  0  0  0  0  0  0  0
    8.2960    2.5332   20.4785 H   0  0  0  0  0  0  0  0  0  0  0  0
    7.7462    4.6688   21.3197 H   0  0  0  0  0  0  0  0  0  0  0  0
    7.7395    4.0216   22.9599 H   0  0  0  0  0  0  0  0  0  0  0  0
    5.4980    3.5714   20.8997 H   0  0  0  0  0  0  0  0  0  0  0  0
    5.5517    2.9001   22.5287 H   0  0  0  0  0  0  0  0  0  0  0  0
    4.7998    6.1145   21.7982 C   0  0  0  0  0  0  0  0  0  0  0  0
    4.3904    7.0849   22.6905 N   0  0  0  0  0  0  0  0  0  0  0  0
    4.5737    6.6305   23.9717 C   0  0  0  0  0  0  0  0  0  0  0  0
    4.3215    7.2505   25.2073 C   0  0  0  0  0  0  0  0  0  0  0  0
    3.9015    8.2523   25.2715 H   0  0  0  0  0  0  0  0  0  0  0  0
    4.0342    7.9931   22.4548 H   0  0  0  0  0  0  0  0  0  0  0  0
    4.7560    6.2991   20.7319 H   0  0  0  0  0  0  0  0  0  0  0  0
    5.8633    3.6320   25.0137 H   0  0  0  0  0  0  0  0  0  0  0  0
    5.4085    4.7191   27.2161 H   0  0  0  0  0  0  0  0  0  0  0  0
    4.1614    6.4554   28.4955 H   0  0  0  0  0  0  0  0  0  0  0  0
    5.2856    7.7444   28.0548 H   0  0  0  0  0  0  0  0  0  0  0  0
    3.5686    7.9138   27.6814 H   0  0  0  0  0  0  0  0  0  0  0  0
  1  2  1  0
  2  3  2  0
  3  4  1  0
  4  5  2  0
  5  6  1  0
  6  7  1  0
  7  8  1  0
  8  9  1  0
  9 10  1  0
 10 11  2  0
 10 12  1  0
 12 13  1  0
 13 14  1  0
 14 15  2  0
 15 16  1  0
 16 17  2  0
 17 18  1  0
 18 19  2  0
 19 20  1  0
 17 21  1  0
 16 22  1  0
 15 23  1  0
 13 24  1  0
 13 25  1  0
 12 26  1  0
 12 27  1  0
  9 28  1  0
  8 29  1  0
  8 30  1  0
  7 31  1  0
  7 32  1  0
  6 33  2  0
 33 34  1  0
 34 35  1  0
 35 36  2  0
 36 37  1  0
 34 38  1  0
 33 39  1  0
  4 40  1  0
  3 41  1  0
  1 42  1  0
  1 43  1  0
  1 44  1  0
 36  2  1  0
 35  5  1  0
 19 14  1  0
M  END
>  <plip>  (1) 
-0.10714285714285714

>  <filename>  (1) 
[H][c]1[n][c]([H])[c]([C]([H])([H])[C]([H])([H])[C](=[O])[N]([H])[C]([H])([H])[C]([H])([H])[c]2[c]([H])[n]([H])[c]3[c]([H])[c]([C]([H])([H])[H])[c]([H])[c]([H])[c]23)[c]([H])[c]1[H]

$$$$
