
     RDKit          3D

 35 36  0  0  0  0  0  0  0  0999 V2000
   10.1285    2.0177   22.0671 C   0  0  0  0  0  0  0  0  0  0  0  0
    8.7527    1.4380   21.7441 C   0  0  0  0  0  0  0  0  0  0  0  0
    8.7652   -0.0382   21.3212 C   0  0  0  0  0  0  0  0  0  0  0  0
    7.3600   -0.5809   21.0607 C   0  0  0  0  0  0  0  0  0  0  0  0
    7.4245   -2.0268   20.7242 N   0  0  0  0  0  4  0  0  0  0  0  0
    6.0785   -2.7082   20.6668 C   0  0  0  0  0  0  0  0  0  0  0  0
    6.1642   -4.2045   20.7350 C   0  0  0  0  0  0  0  0  0  0  0  0
    5.8085   -4.8996   19.6839 N   0  0  0  0  0  0  0  0  0  0  0  0
    6.0155   -6.2142   20.0038 O   0  0  0  0  0  0  0  0  0  0  0  0
    6.5180   -6.2945   21.2454 C   0  0  0  0  0  0  0  0  0  0  0  0
    6.6189   -5.0595   21.7845 C   0  0  0  0  0  0  0  0  0  0  0  0
    6.9716   -4.7592   22.7566 H   0  0  0  0  0  0  0  0  0  0  0  0
    6.7499   -7.2951   21.5862 H   0  0  0  0  0  0  0  0  0  0  0  0
    5.4328   -2.3004   21.4539 H   0  0  0  0  0  0  0  0  0  0  0  0
    5.5854   -2.4776   19.7199 H   0  0  0  0  0  0  0  0  0  0  0  0
    8.0571   -2.5385   21.3773 H   0  0  0  0  0  0  0  0  0  0  0  0
    7.8207   -2.0618   19.7476 H   0  0  0  0  0  0  0  0  0  0  0  0
    6.6277    0.0911   19.9249 C   0  0  0  0  0  0  0  0  0  0  0  0
    5.4022    0.7298   20.1226 C   0  0  0  0  0  0  0  0  0  0  0  0
    4.7858    1.3534   19.0339 C   0  0  0  0  0  0  0  0  0  0  0  0
    5.4145    1.2939   17.7852 C   0  0  0  0  0  0  0  0  0  0  0  0
    6.5645    0.6405   17.5675 N   0  0  0  0  0  0  0  0  0  0  0  0
    7.1396    0.0413   18.6205 C   0  0  0  0  0  0  0  0  0  0  0  0
    8.0624   -0.5004   18.4053 H   0  0  0  0  0  0  0  0  0  0  0  0
    4.9719    1.7885   16.9207 H   0  0  0  0  0  0  0  0  0  0  0  0
    3.8508    1.8891   19.1398 H   0  0  0  0  0  0  0  0  0  0  0  0
    4.9378    0.7315   21.1132 H   0  0  0  0  0  0  0  0  0  0  0  0
    6.7597   -0.4457   21.9742 H   0  0  0  0  0  0  0  0  0  0  0  0
    9.3777   -0.1653   20.4154 H   0  0  0  0  0  0  0  0  0  0  0  0
    9.2233   -0.6546   22.1084 H   0  0  0  0  0  0  0  0  0  0  0  0
    8.1104    1.5544   22.6314 H   0  0  0  0  0  0  0  0  0  0  0  0
    8.2841    2.0322   20.9451 H   0  0  0  0  0  0  0  0  0  0  0  0
   10.0258    3.0680   22.3647 H   0  0  0  0  0  0  0  0  0  0  0  0
   10.6073    1.4807   22.8964 H   0  0  0  0  0  0  0  0  0  0  0  0
   10.8033    1.9802   21.2026 H   0  0  0  0  0  0  0  0  0  0  0  0
  1  2  1  0
  2  3  1  0
  3  4  1  0
  4  5  1  0
  5  6  1  0
  6  7  1  0
  7  8  2  0
  8  9  1  0
  9 10  1  0
 10 11  2  0
 11 12  1  0
 10 13  1  0
  6 14  1  0
  6 15  1  0
  5 16  1  0
  5 17  1  0
  4 18  1  0
 18 19  2  0
 19 20  1  0
 20 21  2  0
 21 22  1  0
 22 23  2  0
 23 24  1  0
 21 25  1  0
 20 26  1  0
 19 27  1  0
  4 28  1  0
  3 29  1  0
  3 30  1  0
  2 31  1  0
  2 32  1  0
  1 33  1  0
  1 34  1  0
  1 35  1  0
 11  7  1  0
 23 18  1  0
M  CHG  1   5   1
M  END
>  <plip>  (1) 
-0.10714285714285714

>  <filename>  (1) 
[H][c]1[n][c]([H])[c]([C]([H])([C]([H])([H])[C]([H])([H])[C]([H])([H])[H])[N+]([H])([H])[C]([H])([H])[c]2[n][o][c]([H])[c]2[H])[c]([H])[c]1[H]

$$$$
