
     RDKit          3D

 32 35  0  0  0  0  0  0  0  0999 V2000
    4.9538    1.8252   16.9624 H   0  0  0  0  0  0  0  0  0  0  0  0
    5.4068    1.3023   17.8032 C   0  0  0  0  0  0  0  0  0  0  0  0
    6.5633    0.6705   17.5578 N   0  0  0  0  0  0  0  0  0  0  0  0
    7.1524    0.0381   18.5806 C   0  0  0  0  0  0  0  0  0  0  0  0
    8.1064   -0.4357   18.3529 H   0  0  0  0  0  0  0  0  0  0  0  0
    6.6233   -0.0239   19.8823 C   0  0  0  0  0  0  0  0  0  0  0  0
    7.3428   -0.7889   20.9882 C   0  0  0  0  0  0  0  0  0  0  0  0
    6.8405   -0.6285   21.9470 H   0  0  0  0  0  0  0  0  0  0  0  0
    7.3374   -1.8707   20.8027 H   0  0  0  0  0  0  0  0  0  0  0  0
    8.7548   -0.4191   21.1454 N   0  0  0  0  0  0  0  0  0  0  0  0
    9.7215   -1.2872   20.7952 N   0  0  0  0  0  0  0  0  0  0  0  0
   10.8445   -0.6814   20.9390 N   0  0  0  0  0  0  0  0  0  0  0  0
   10.6577    0.5782   21.3673 N   0  0  0  0  0  0  0  0  0  0  0  0
    9.3575    0.7356   21.5127 C   0  0  0  0  0  0  0  0  0  0  0  0
    8.7542    1.9580   22.0355 C   0  0  0  0  0  0  0  0  0  0  0  0
    7.1312    2.0292   22.6839 S   0  0  0  0  0  0  0  0  0  0  0  0
    7.2976    3.7439   22.9906 C   0  0  0  0  0  0  0  0  0  0  0  0
    6.3590    4.6063   23.5824 C   0  0  0  0  0  0  0  0  0  0  0  0
    5.4152    4.2255   23.9586 H   0  0  0  0  0  0  0  0  0  0  0  0
    6.6714    5.9601   23.6814 C   0  0  0  0  0  0  0  0  0  0  0  0
    5.9692    6.6413   24.1568 H   0  0  0  0  0  0  0  0  0  0  0  0
    7.8941    6.4638   23.1793 C   0  0  0  0  0  0  0  0  0  0  0  0
    8.1048    7.5280   23.2420 H   0  0  0  0  0  0  0  0  0  0  0  0
    8.8308    5.6132   22.6106 C   0  0  0  0  0  0  0  0  0  0  0  0
    9.7532    6.0013   22.1749 H   0  0  0  0  0  0  0  0  0  0  0  0
    8.5540    4.2258   22.5547 C   0  0  0  0  0  0  0  0  0  0  0  0
    9.3815    3.1609   22.0712 C   0  0  0  0  0  0  0  0  0  0  0  0
   10.4182    3.2911   21.7638 H   0  0  0  0  0  0  0  0  0  0  0  0
    5.4028    0.6296   20.1070 C   0  0  0  0  0  0  0  0  0  0  0  0
    4.9617    0.6566   21.1058 H   0  0  0  0  0  0  0  0  0  0  0  0
    4.7861    1.3092   19.0538 C   0  0  0  0  0  0  0  0  0  0  0  0
    3.8568    1.8544   19.1940 H   0  0  0  0  0  0  0  0  0  0  0  0
  1  2  1  0
  2  3  2  0
  3  4  1  0
  4  5  1  0
  4  6  2  0
  6  7  1  0
  7  8  1  0
  7  9  1  0
  7 10  1  0
 10 11  1  0
 11 12  2  0
 12 13  1  0
 13 14  2  0
 14 15  1  0
 15 16  1  0
 16 17  1  0
 17 18  2  0
 18 19  1  0
 18 20  1  0
 20 21  1  0
 20 22  2  0
 22 23  1  0
 22 24  1  0
 24 25  1  0
 24 26  2  0
 26 27  1  0
 27 28  1  0
  6 29  1  0
 29 30  1  0
 29 31  2  0
 31 32  1  0
 31  2  1  0
 14 10  1  0
 27 15  2  0
 26 17  1  0
M  END
>  <plip>  (1) 
-0.07142857142857142

>  <filename>  (1) 
[H][c]1[n][c]([H])[c]([C]([H])([H])[n]2[n][n][n][c]2-[c]2[s][c]3[c]([H])[c]([H])[c]([H])[c]([H])[c]3[c]2[H])[c]([H])[c]1[H]

$$$$
