
     RDKit          3D

 34 36  0  0  0  0  0  0  0  0999 V2000
    4.9377    1.7767   16.9946 H   0  0  0  0  0  0  0  0  0  0  0  0
    5.4043    1.2851   17.8451 C   0  0  0  0  0  0  0  0  0  0  0  0
    6.5698    0.6632   17.6008 N   0  0  0  0  0  0  0  0  0  0  0  0
    7.1740    0.0552   18.6285 C   0  0  0  0  0  0  0  0  0  0  0  0
    8.1151   -0.4409   18.3941 H   0  0  0  0  0  0  0  0  0  0  0  0
    6.6557    0.0379   19.9265 C   0  0  0  0  0  0  0  0  0  0  0  0
    7.3816   -0.6772   20.9997 C   0  0  0  0  0  0  0  0  0  0  0  0
    8.0071   -2.2027   20.8803 S   0  0  0  0  0  0  0  0  0  0  0  0
    7.5118   -0.0663   22.1960 N   0  0  0  0  0  0  0  0  0  0  0  0
    7.9680   -0.6787   22.8726 H   0  0  0  0  0  0  0  0  0  0  0  0
    7.3172    1.2891   22.4669 N   0  0  0  0  0  0  0  0  0  0  0  0
    8.6152    1.9921   22.5030 C   0  0  0  0  0  0  0  0  0  0  0  0
    9.2999    1.5044   23.2239 H   0  0  0  0  0  0  0  0  0  0  0  0
    9.0937    1.8859   21.5253 H   0  0  0  0  0  0  0  0  0  0  0  0
    8.4530    3.4537   22.8644 C   0  0  0  0  0  0  0  0  0  0  0  0
    9.4958    4.3465   22.6037 C   0  0  0  0  0  0  0  0  0  0  0  0
   10.4031    3.9569   22.1457 H   0  0  0  0  0  0  0  0  0  0  0  0
    9.3807    5.7031   22.9129 C   0  0  0  0  0  0  0  0  0  0  0  0
   10.1819    6.3903   22.6503 H   0  0  0  0  0  0  0  0  0  0  0  0
    8.2283    6.1626   23.5601 C   0  0  0  0  0  0  0  0  0  0  0  0
    8.1312    7.2120   23.8313 H   0  0  0  0  0  0  0  0  0  0  0  0
    7.2014    5.2637   23.8657 C   0  0  0  0  0  0  0  0  0  0  0  0
    6.3046    5.6081   24.3785 H   0  0  0  0  0  0  0  0  0  0  0  0
    7.2972    3.9099   23.5171 C   0  0  0  0  0  0  0  0  0  0  0  0
    6.1563    2.9491   23.8129 C   0  0  0  0  0  0  0  0  0  0  0  0
    5.7566    3.1418   24.8119 H   0  0  0  0  0  0  0  0  0  0  0  0
    5.3411    3.1440   23.1060 H   0  0  0  0  0  0  0  0  0  0  0  0
    6.5662    1.4831   23.7127 C   0  0  0  0  0  0  0  0  0  0  0  0
    7.1805    1.1909   24.5883 H   0  0  0  0  0  0  0  0  0  0  0  0
    5.6855    0.8299   23.7023 H   0  0  0  0  0  0  0  0  0  0  0  0
    5.4287    0.6778   20.1669 C   0  0  0  0  0  0  0  0  0  0  0  0
    4.9923    0.6614   21.1666 H   0  0  0  0  0  0  0  0  0  0  0  0
    4.7967    1.3081   19.1043 C   0  0  0  0  0  0  0  0  0  0  0  0
    3.8668    1.8391   19.2495 H   0  0  0  0  0  0  0  0  0  0  0  0
  1  2  1  0
  2  3  2  0
  3  4  1  0
  4  5  1  0
  4  6  2  0
  6  7  1  0
  7  8  2  0
  7  9  1  0
  9 10  1  0
  9 11  1  0
 11 12  1  0
 12 13  1  0
 12 14  1  0
 12 15  1  0
 15 16  2  0
 16 17  1  0
 16 18  1  0
 18 19  1  0
 18 20  2  0
 20 21  1  0
 20 22  1  0
 22 23  1  0
 22 24  2  0
 24 25  1  0
 25 26  1  0
 25 27  1  0
 25 28  1  0
 28 29  1  0
 28 30  1  0
  6 31  1  0
 31 32  1  0
 31 33  2  0
 33 34  1  0
 33  2  1  0
 28 11  1  0
 24 15  1  0
M  END
>  <plip>  (1) 
-0.0

>  <filename>  (1) 
[H][c]1[n][c]([H])[c]([C](=[S])[N]([H])[N]2[C]([H])([H])[c]3[c]([H])[c]([H])[c]([H])[c]([H])[c]3[C]([H])([H])[C]2([H])[H])[c]([H])[c]1[H]

$$$$
