
     RDKit          3D

 28 29  0  0  0  0  0  0  0  0999 V2000
    4.9538    1.8757   16.8851 H   0  0  0  0  0  0  0  0  0  0  0  0
    5.3784    1.3255   17.7216 C   0  0  0  0  0  0  0  0  0  0  0  0
    6.5027    0.6395   17.4666 N   0  0  0  0  0  0  0  0  0  0  0  0
    7.0604   -0.0188   18.4887 C   0  0  0  0  0  0  0  0  0  0  0  0
    7.9622   -0.5893   18.2571 H   0  0  0  0  0  0  0  0  0  0  0  0
    6.5495   -0.0294   19.7932 C   0  0  0  0  0  0  0  0  0  0  0  0
    7.2769   -0.7140   20.9018 C   0  0  0  0  0  0  0  0  0  0  0  0
    6.6149   -1.2953   21.5439 H   0  0  0  0  0  0  0  0  0  0  0  0
    8.1135   -1.3158   20.5431 H   0  0  0  0  0  0  0  0  0  0  0  0
    7.8594    0.2888   21.8597 O   0  0  0  0  0  0  0  0  0  0  0  0
    9.4390    0.7458   21.6109 S   0  0  0  0  0  0  0  0  0  0  0  0
   10.3507   -0.4899   22.6238 C   0  0  0  0  0  0  0  0  0  0  0  0
    9.9501   -0.3694   23.6395 H   0  0  0  0  0  0  0  0  0  0  0  0
   10.0958   -1.4890   22.2528 H   0  0  0  0  0  0  0  0  0  0  0  0
   11.8320   -0.2333   22.6045 C   0  0  0  0  0  0  0  0  0  0  0  0
   12.7905   -1.1169   22.0621 C   0  0  0  0  0  0  0  0  0  0  0  0
   12.5058   -2.1250   21.7354 H   0  0  0  0  0  0  0  0  0  0  0  0
   14.0830   -0.7984   21.9010 N   0  0  0  0  0  0  0  0  0  0  0  0
   14.4765    0.4131   22.3181 C   0  0  0  0  0  0  0  0  0  0  0  0
   15.5087    0.6943   22.1226 H   0  0  0  0  0  0  0  0  0  0  0  0
   13.6380    1.3258   22.9619 C   0  0  0  0  0  0  0  0  0  0  0  0
   14.0153    2.2975   23.2626 H   0  0  0  0  0  0  0  0  0  0  0  0
   12.2996    0.9915   23.1083 C   0  0  0  0  0  0  0  0  0  0  0  0
   11.6223    1.6929   23.5966 H   0  0  0  0  0  0  0  0  0  0  0  0
    5.3505    0.6563   20.0297 C   0  0  0  0  0  0  0  0  0  0  0  0
    4.8971    0.6373   21.0243 H   0  0  0  0  0  0  0  0  0  0  0  0
    4.7577    1.3485   18.9767 C   0  0  0  0  0  0  0  0  0  0  0  0
    3.8414    1.9117   19.1145 H   0  0  0  0  0  0  0  0  0  0  0  0
  1  2  1  0
  2  3  2  0
  3  4  1  0
  4  5  1  0
  4  6  2  0
  6  7  1  0
  7  8  1  0
  7  9  1  0
  7 10  1  0
 10 11  1  0
 11 12  1  0
 12 13  1  0
 12 14  1  0
 12 15  1  0
 15 16  2  0
 16 17  1  0
 16 18  1  0
 18 19  2  0
 19 20  1  0
 19 21  1  0
 21 22  1  0
 21 23  2  0
 23 24  1  0
  6 25  1  0
 25 26  1  0
 25 27  2  0
 27 28  1  0
 27  2  1  0
 23 15  1  0
M  END
>  <plip>  (1) 
-0.07142857142857142

>  <filename>  (1) 
[H][c]1[n][c]([H])[c]([C]([H])([H])[O][S][C]([H])([H])[c]2[c]([H])[n][c]([H])[c]([H])[c]2[H])[c]([H])[c]1[H]

$$$$
