
     RDKit          3D

 40 42  0  0  0  0  0  0  0  0999 V2000
    4.9141    1.2852   19.1284 C   0  0  0  0  0  0  0  0  0  0  0  0
    5.5654    1.2769   17.8875 C   0  0  0  0  0  0  0  0  0  0  0  0
    6.7067    0.6049   17.6726 N   0  0  0  0  0  0  0  0  0  0  0  0
    7.2544   -0.0536   18.6996 C   0  0  0  0  0  0  0  0  0  0  0  0
    6.7073   -0.0538   19.9925 C   0  0  0  0  0  0  0  0  0  0  0  0
    7.3246   -0.7314   21.0740 N   0  0  0  0  0  0  0  0  0  0  0  0
    6.5571   -1.5961   21.7746 N   0  0  0  0  0  0  0  0  0  0  0  0
    7.3894   -2.2640   22.5473 C   0  0  0  0  0  0  0  0  0  0  0  0
    8.7259   -1.8498   22.3589 C   0  0  0  0  0  0  0  0  0  0  0  0
    8.6476   -0.8176   21.4490 C   0  0  0  0  0  0  0  0  0  0  0  0
    9.6487    0.2349   21.1053 C   0  0  0  0  0  0  0  0  0  0  0  0
    9.3210    1.4214   22.0139 N   0  0  0  0  0  4  0  0  0  0  0  0
    9.9812    2.7248   21.7217 C   0  0  0  0  0  0  0  0  0  0  0  0
   11.4576    2.8191   22.1365 C   0  0  0  0  0  0  0  0  0  0  0  0
   11.6995    3.1604   23.6066 C   0  0  0  0  0  0  0  0  0  0  0  0
   13.1284    3.7181   23.6385 C   0  0  0  0  0  0  0  0  0  0  0  0
   13.4347    4.1644   22.2240 N   0  0  0  0  0  4  0  0  0  0  0  0
   12.1725    3.9655   21.4303 C   0  0  0  0  0  0  0  0  0  0  0  0
   12.3771    3.7542   20.3802 H   0  0  0  0  0  0  0  0  0  0  0  0
   11.5634    4.8768   21.4760 H   0  0  0  0  0  0  0  0  0  0  0  0
   13.7813    5.1457   22.2083 H   0  0  0  0  0  0  0  0  0  0  0  0
   14.1854    3.5433   21.8149 H   0  0  0  0  0  0  0  0  0  0  0  0
   13.8245    2.9317   23.9342 H   0  0  0  0  0  0  0  0  0  0  0  0
   13.2408    4.5472   24.3454 H   0  0  0  0  0  0  0  0  0  0  0  0
   10.9747    3.9161   23.9340 H   0  0  0  0  0  0  0  0  0  0  0  0
   11.5572    2.3001   24.2700 H   0  0  0  0  0  0  0  0  0  0  0  0
   11.9852    1.8848   21.8874 H   0  0  0  0  0  0  0  0  0  0  0  0
    9.4347    3.5186   22.2399 H   0  0  0  0  0  0  0  0  0  0  0  0
    9.8851    2.9479   20.6483 H   0  0  0  0  0  0  0  0  0  0  0  0
    8.2716    1.4648   21.9853 H   0  0  0  0  0  0  0  0  0  0  0  0
    9.5588    1.1008   22.9899 H   0  0  0  0  0  0  0  0  0  0  0  0
    9.5988    0.5302   20.0538 H   0  0  0  0  0  0  0  0  0  0  0  0
   10.6585   -0.1358   21.3005 H   0  0  0  0  0  0  0  0  0  0  0  0
    9.6126   -2.2000   22.8618 H   0  0  0  0  0  0  0  0  0  0  0  0
    6.9905   -3.0186   23.2114 H   0  0  0  0  0  0  0  0  0  0  0  0
    5.4804    0.5926   20.1949 C   0  0  0  0  0  0  0  0  0  0  0  0
    4.9865    0.5251   21.1662 H   0  0  0  0  0  0  0  0  0  0  0  0
    8.1546   -0.6204   18.4691 H   0  0  0  0  0  0  0  0  0  0  0  0
    5.1494    1.8181   17.0399 H   0  0  0  0  0  0  0  0  0  0  0  0
    3.9797    1.8258   19.2413 H   0  0  0  0  0  0  0  0  0  0  0  0
  1  2  2  0
  2  3  1  0
  3  4  2  0
  4  5  1  0
  5  6  1  0
  6  7  1  0
  7  8  2  0
  8  9  1  0
  9 10  2  0
 10 11  1  0
 11 12  1  0
 12 13  1  0
 13 14  1  0
 14 15  1  0
 15 16  1  0
 16 17  1  0
 17 18  1  0
 18 19  1  0
 18 20  1  0
 17 21  1  0
 17 22  1  0
 16 23  1  0
 16 24  1  0
 15 25  1  0
 15 26  1  0
 14 27  1  0
 13 28  1  0
 13 29  1  0
 12 30  1  0
 12 31  1  0
 11 32  1  0
 11 33  1  0
  9 34  1  0
  8 35  1  0
  5 36  2  0
 36 37  1  0
  4 38  1  0
  2 39  1  0
  1 40  1  0
 36  1  1  0
 10  6  1  0
 18 14  1  0
M  CHG  2  12   1  17   1
M  END
>  <plip>  (1) 
-0.1

>  <filename>  (1) 
[H][c]1[n][c]([H])[c](-[n]2[n][c]([H])[c]([H])[c]2[C]([H])([H])[N+]([H])([H])[C]([H])([H])[C]2([H])[C]([H])([H])[C]([H])([H])[N+]([H])([H])[C]2([H])[H])[c]([H])[c]1[H]

$$$$
