
     RDKit          3D

 20 21  0  0  0  0  0  0  0  0999 V2000
    4.9751    1.7984   16.9655 H   0  0  0  0  0  0  0  0  0  0  0  0
    5.4401    1.2864   17.8093 C   0  0  0  0  0  0  0  0  0  0  0  0
    6.5966    0.6394   17.5710 N   0  0  0  0  0  0  0  0  0  0  0  0
    7.1821    0.0231   18.5960 C   0  0  0  0  0  0  0  0  0  0  0  0
    8.1228   -0.5044   18.4382 H   0  0  0  0  0  0  0  0  0  0  0  0
    6.6570    0.0027   19.8962 C   0  0  0  0  0  0  0  0  0  0  0  0
    7.4060   -0.6761   20.8829 N   0  0  0  0  0  0  0  0  0  0  0  0
    8.7309   -0.8593   20.6618 N   0  0  0  0  0  0  0  0  0  0  0  0
    9.1812   -1.5053   21.7081 C   0  0  0  0  0  0  0  0  0  0  0  0
   10.2248   -1.7959   21.7749 H   0  0  0  0  0  0  0  0  0  0  0  0
    8.1284   -1.7616   22.6302 C   0  0  0  0  0  0  0  0  0  0  0  0
    8.1132   -2.4176   23.8485 N   0  0  0  0  0  0  0  0  0  0  0  0
    8.7436   -3.0570   24.6309 C   0  0  0  0  0  0  0  0  0  0  0  0
    9.4879   -3.9070   25.7265 S   0  0  0  0  0  0  0  0  0  0  0  0
    7.0161   -1.2231   22.0557 C   0  0  0  0  0  0  0  0  0  0  0  0
    6.0092   -1.2626   22.4328 H   0  0  0  0  0  0  0  0  0  0  0  0
    5.4547    0.6683   20.1483 C   0  0  0  0  0  0  0  0  0  0  0  0
    5.0595    0.7128   21.1608 H   0  0  0  0  0  0  0  0  0  0  0  0
    4.8397    1.3124   19.0701 C   0  0  0  0  0  0  0  0  0  0  0  0
    3.9079    1.8435   19.2060 H   0  0  0  0  0  0  0  0  0  0  0  0
  1  2  1  0
  2  3  2  0
  3  4  1  0
  4  5  1  0
  4  6  2  0
  6  7  1  0
  7  8  1  0
  8  9  2  0
  9 10  1  0
  9 11  1  0
 11 12  1  0
 12 13  2  0
 13 14  2  0
 11 15  2  0
 15 16  1  0
  6 17  1  0
 17 18  1  0
 17 19  2  0
 19 20  1  0
 19  2  1  0
 15  7  1  0
M  END
>  <plip>  (1) 
-0.03571428571428571

>  <filename>  (1) 
[H][c]1[n][c]([H])[c](-[n]2[n][c]([H])[c]([N]=[C]=[S])[c]2[H])[c]([H])[c]1[H]

$$$$
