
     RDKit          3D

 37 39  0  0  0  0  0  0  0  0999 V2000
    9.5678    6.3844   24.1150 F   0  0  0  0  0  0  0  0  0  0  0  0
   10.4976    5.4907   24.5020 C   0  0  0  0  0  0  0  0  0  0  0  0
   10.3521    5.3514   25.8347 F   0  0  0  0  0  0  0  0  0  0  0  0
   11.6945    6.0806   24.2975 F   0  0  0  0  0  0  0  0  0  0  0  0
   10.3589    4.1736   23.7531 C   0  0  0  0  0  0  0  0  0  0  0  0
   11.2490    3.8891   22.7069 C   0  0  0  0  0  0  0  0  0  0  0  0
   11.0996    2.7119   21.9685 C   0  0  0  0  0  0  0  0  0  0  0  0
   10.0530    1.8320   22.2582 C   0  0  0  0  0  0  0  0  0  0  0  0
    9.1787    2.0658   23.3337 C   0  0  0  0  0  0  0  0  0  0  0  0
    8.1194    1.0585   23.6991 C   0  0  2  0  0  0  0  0  0  0  0  0
    8.1511    0.2520   24.9716 C   0  0  0  0  0  0  0  0  0  0  0  0
    8.4488   -0.4199   23.6671 C   0  0  1  0  0  0  0  0  0  0  0  0
    7.4526   -1.3145   23.1536 N   0  0  0  0  0  0  0  0  0  0  0  0
    6.9008   -1.3975   21.9202 C   0  0  0  0  0  0  0  0  0  0  0  0
    5.7548   -2.5474   21.5824 S   0  0  0  0  0  0  0  0  0  0  0  0
    7.4374   -0.5052   21.0285 N   0  0  0  0  0  0  0  0  0  0  0  0
    6.7489    0.0124   19.8783 C   0  0  0  0  0  0  0  0  0  0  0  0
    5.4761    0.5650   20.0365 C   0  0  0  0  0  0  0  0  0  0  0  0
    4.8731    1.1761   18.9351 C   0  0  0  0  0  0  0  0  0  0  0  0
    5.5591    1.1874   17.7152 C   0  0  0  0  0  0  0  0  0  0  0  0
    6.7673    0.6298   17.5406 N   0  0  0  0  0  0  0  0  0  0  0  0
    7.3535    0.0656   18.6070 C   0  0  0  0  0  0  0  0  0  0  0  0
    8.3448   -0.3652   18.4689 H   0  0  0  0  0  0  0  0  0  0  0  0
    5.1175    1.6600   16.8430 H   0  0  0  0  0  0  0  0  0  0  0  0
    3.9052    1.6524   19.0238 H   0  0  0  0  0  0  0  0  0  0  0  0
    4.9954    0.5283   21.0145 H   0  0  0  0  0  0  0  0  0  0  0  0
    7.9635    0.1898   21.5340 H   0  0  0  0  0  0  0  0  0  0  0  0
    7.0040   -1.9704   23.7763 H   0  0  0  0  0  0  0  0  0  0  0  0
    9.4942   -0.6973   23.4967 H   0  0  0  0  0  0  0  0  0  0  0  0
    8.9786    0.4099   25.6572 H   0  0  0  0  0  0  0  0  0  0  0  0
    7.2011    0.0093   25.4417 H   0  0  0  0  0  0  0  0  0  0  0  0
    7.1140    1.3116   23.3559 H   0  0  0  0  0  0  0  0  0  0  0  0
    9.3248    3.2624   24.0602 C   0  0  0  0  0  0  0  0  0  0  0  0
    8.6272    3.4683   24.8672 H   0  0  0  0  0  0  0  0  0  0  0  0
    9.9106    0.9567   21.6276 H   0  0  0  0  0  0  0  0  0  0  0  0
   11.8045    2.4771   21.1755 H   0  0  0  0  0  0  0  0  0  0  0  0
   12.0524    4.5868   22.4698 H   0  0  0  0  0  0  0  0  0  0  0  0
  1  2  1  0
  2  3  1  0
  2  4  1  0
  2  5  1  0
  5  6  2  0
  6  7  1  0
  7  8  2  0
  8  9  1  0
  9 10  1  0
 10 11  1  0
 11 12  1  0
 12 13  1  0
 13 14  1  0
 14 15  2  0
 14 16  1  0
 16 17  1  0
 17 18  2  0
 18 19  1  0
 19 20  2  0
 20 21  1  0
 21 22  2  0
 22 23  1  0
 20 24  1  0
 19 25  1  0
 18 26  1  0
 16 27  1  0
 13 28  1  0
 12 29  1  1
 11 30  1  0
 11 31  1  0
 10 32  1  6
  9 33  2  0
 33 34  1  0
  8 35  1  0
  7 36  1  0
  6 37  1  0
 33  5  1  0
 12 10  1  0
 22 17  1  0
M  END
>  <plip>  (1) 
-0.034482758620689655

>  <filename>  (1) 
[H][c]1[n][c]([H])[c]([N]([H])[C](=[S])[N]([H])[C@]2([H])[C]([H])([H])[C@@]2([H])[c]2[c]([H])[c]([H])[c]([H])[c]([C]([F])([F])[F])[c]2[H])[c]([H])[c]1[H]

$$$$
