
     RDKit          3D

 23 24  0  0  0  0  0  0  0  0999 V2000
    7.9375    3.2728   21.8861 H   0  0  0  0  0  0  0  0  0  0  0  0
    8.0999    2.4236   21.4525 O   0  0  0  0  0  0  0  0  0  0  0  0
    7.7726    1.4940   22.6859 P   0  0  0  0  0  0  0  0  0  0  0  0
    6.5319    2.0429   23.2618 O   0  0  0  0  0  0  0  0  0  0  0  0
    8.6829    1.9900   23.8459 O   0  0  0  0  0  0  0  0  0  0  0  0
    8.0352    2.6636   24.1087 H   0  0  0  0  0  0  0  0  0  0  0  0
    7.8295   -0.3674   22.2226 C   0  0  0  0  0  0  0  0  0  0  0  0
    8.4200   -1.3982   22.8377 N   0  0  0  0  0  0  0  0  0  0  0  0
    8.1707   -2.5179   22.0594 C   0  0  0  0  0  0  0  0  0  0  0  0
    8.5153   -3.5194   22.2930 H   0  0  0  0  0  0  0  0  0  0  0  0
    7.4310   -2.1625   20.9740 C   0  0  0  0  0  0  0  0  0  0  0  0
    7.0627   -2.8217   20.2010 H   0  0  0  0  0  0  0  0  0  0  0  0
    7.2105   -0.8091   21.0492 N   0  0  0  0  0  0  0  0  0  0  0  0
    6.6003   -0.0524   20.0433 C   0  0  0  0  0  0  0  0  0  0  0  0
    7.0804   -0.1553   18.7242 C   0  0  0  0  0  0  0  0  0  0  0  0
    7.9355   -0.8013   18.5551 H   0  0  0  0  0  0  0  0  0  0  0  0
    6.5663    0.5231   17.6798 N   0  0  0  0  0  0  0  0  0  0  0  0
    5.5169    1.3279   17.9223 C   0  0  0  0  0  0  0  0  0  0  0  0
    5.0667    1.8699   17.0933 H   0  0  0  0  0  0  0  0  0  0  0  0
    4.9695    1.4805   19.2057 C   0  0  0  0  0  0  0  0  0  0  0  0
    4.1210    2.1419   19.3389 H   0  0  0  0  0  0  0  0  0  0  0  0
    5.5135    0.7929   20.2973 C   0  0  0  0  0  0  0  0  0  0  0  0
    5.1033    0.9033   21.3060 H   0  0  0  0  0  0  0  0  0  0  0  0
  1  2  1  0
  2  3  1  0
  3  4  2  0
  3  5  1  0
  5  6  1  0
  3  7  1  0
  7  8  2  0
  8  9  1  0
  9 10  1  0
  9 11  2  0
 11 12  1  0
 11 13  1  0
 13 14  1  0
 14 15  2  0
 15 16  1  0
 15 17  1  0
 17 18  2  0
 18 19  1  0
 18 20  1  0
 20 21  1  0
 20 22  2  0
 22 23  1  0
 13  7  1  0
 22 14  1  0
M  END
>  <plip>  (1) 
-0.10714285714285714

>  <filename>  (1) 
[H][O][P](=[O])([O][H])[c]1[n][c]([H])[c]([H])[n]1-[c]1[c]([H])[n][c]([H])[c]([H])[c]1[H]

$$$$
