
     RDKit          3D

 31 31  0  0  0  0  0  0  0  0999 V2000
    4.9393    1.8085   16.9492 H   0  0  0  0  0  0  0  0  0  0  0  0
    5.3900    1.2936   17.7973 C   0  0  0  0  0  0  0  0  0  0  0  0
    6.5460    0.6523   17.5556 N   0  0  0  0  0  0  0  0  0  0  0  0
    7.1384    0.0399   18.5866 C   0  0  0  0  0  0  0  0  0  0  0  0
    8.0799   -0.4703   18.3866 H   0  0  0  0  0  0  0  0  0  0  0  0
    6.6235    0.0287   19.8944 C   0  0  0  0  0  0  0  0  0  0  0  0
    7.5906   -0.6916   21.2161 S   0  0  0  0  0  0  0  0  0  0  0  0
    8.4663    0.7867   21.7898 C   0  0  0  0  0  0  0  0  0  0  0  0
    9.9613    1.1735   21.2766 S   0  0  0  0  0  0  0  0  0  0  0  0
    7.7684    1.6374   22.5991 N   0  0  0  0  0  0  0  0  0  0  0  0
    8.1158    2.5742   22.7147 H   0  0  0  0  0  0  0  0  0  0  0  0
    6.7586    1.3623   23.4988 C   0  0  0  0  0  0  0  0  0  0  0  0
    6.3528    0.2644   23.7862 O   0  0  0  0  0  0  0  0  0  0  0  0
    6.3617    2.5525   23.9713 O   0  0  0  0  0  0  0  0  0  0  0  0
    5.1357    2.6474   24.7588 C   0  0  0  0  0  0  0  0  0  0  0  0
    3.9915    2.0379   23.9620 C   0  0  0  0  0  0  0  0  0  0  0  0
    3.0440    2.1523   24.4976 H   0  0  0  0  0  0  0  0  0  0  0  0
    3.8964    2.5197   22.9789 H   0  0  0  0  0  0  0  0  0  0  0  0
    4.2116    0.9745   23.8285 H   0  0  0  0  0  0  0  0  0  0  0  0
    5.3652    1.9122   26.0784 C   0  0  0  0  0  0  0  0  0  0  0  0
    6.2506    2.3110   26.5847 H   0  0  0  0  0  0  0  0  0  0  0  0
    4.4971    2.0354   26.7305 H   0  0  0  0  0  0  0  0  0  0  0  0
    5.5233    0.8475   25.8859 H   0  0  0  0  0  0  0  0  0  0  0  0
    4.8917    4.1435   24.9619 C   0  0  0  0  0  0  0  0  0  0  0  0
    3.9797    4.2886   25.5537 H   0  0  0  0  0  0  0  0  0  0  0  0
    4.7424    4.6497   23.9994 H   0  0  0  0  0  0  0  0  0  0  0  0
    5.7223    4.6213   25.4933 H   0  0  0  0  0  0  0  0  0  0  0  0
    5.3853    0.6443   20.1166 C   0  0  0  0  0  0  0  0  0  0  0  0
    4.9277    0.6119   21.1062 H   0  0  0  0  0  0  0  0  0  0  0  0
    4.7657    1.2999   19.0474 C   0  0  0  0  0  0  0  0  0  0  0  0
    3.8341    1.8348   19.1784 H   0  0  0  0  0  0  0  0  0  0  0  0
  1  2  1  0
  2  3  2  0
  3  4  1  0
  4  5  1  0
  4  6  2  0
  6  7  1  0
  7  8  1  0
  8  9  2  0
  8 10  1  0
 10 11  1  0
 10 12  1  0
 12 13  2  0
 12 14  1  0
 14 15  1  0
 15 16  1  0
 16 17  1  0
 16 18  1  0
 16 19  1  0
 15 20  1  0
 20 21  1  0
 20 22  1  0
 20 23  1  0
 15 24  1  0
 24 25  1  0
 24 26  1  0
 24 27  1  0
  6 28  1  0
 28 29  1  0
 28 30  2  0
 30 31  1  0
 30  2  1  0
M  END
>  <plip>  (1) 
-0.03571428571428571

>  <filename>  (1) 
[H][c]1[n][c]([H])[c]([S][C](=[S])[N]([H])[C](=[O])[O][C]([C]([H])([H])[H])([C]([H])([H])[H])[C]([H])([H])[H])[c]([H])[c]1[H]

$$$$
