
     RDKit          3D

 47 49  0  0  0  0  0  0  0  0999 V2000
    8.3861   -6.2731   28.5219 N   0  0  0  0  0  4  0  0  0  0  0  0
    8.7285   -5.0251   27.7494 C   0  0  0  0  0  0  0  0  0  0  0  0
    9.3937   -5.4540   26.4301 C   0  0  0  0  0  0  0  0  0  0  0  0
    8.2182   -6.0388   25.6185 C   0  0  0  0  0  0  0  0  0  0  0  0
    7.0156   -5.1336   25.9692 C   0  0  0  0  0  0  0  0  0  0  0  0
    6.7011   -4.1327   24.8914 N   0  0  0  0  0  4  0  0  0  0  0  0
    7.8778   -3.2992   24.3615 C   0  0  0  0  0  0  0  0  0  0  0  0
    7.3492   -2.1629   23.4803 C   0  0  0  0  0  0  0  0  0  0  0  0
    6.5269   -2.6715   22.3706 N   0  0  0  0  0  0  0  0  0  0  0  0
    6.4863   -2.1496   21.0907 C   0  0  0  0  0  0  0  0  0  0  0  0
    5.8441   -2.6921   20.2098 O   0  0  0  0  0  0  0  0  0  0  0  0
    7.2946   -0.8538   20.8236 C   0  0  0  0  0  0  0  0  0  0  0  0
    6.7033    0.0277   19.7260 C   0  0  0  0  0  0  0  0  0  0  0  0
    5.5053    0.7143   19.9710 C   0  0  0  0  0  0  0  0  0  0  0  0
    4.9134    1.4401   18.9326 C   0  0  0  0  0  0  0  0  0  0  0  0
    5.5308    1.4519   17.6783 C   0  0  0  0  0  0  0  0  0  0  0  0
    6.6745    0.8039   17.4174 N   0  0  0  0  0  0  0  0  0  0  0  0
    7.2409    0.1287   18.4291 C   0  0  0  0  0  0  0  0  0  0  0  0
    8.1735   -0.3739   18.1822 H   0  0  0  0  0  0  0  0  0  0  0  0
    5.0836    2.0035   16.8496 H   0  0  0  0  0  0  0  0  0  0  0  0
    4.0018    2.0072   19.0734 H   0  0  0  0  0  0  0  0  0  0  0  0
    5.0388    0.6619   20.9592 H   0  0  0  0  0  0  0  0  0  0  0  0
    7.3426   -0.2737   21.7500 H   0  0  0  0  0  0  0  0  0  0  0  0
    8.3235   -1.1559   20.5844 H   0  0  0  0  0  0  0  0  0  0  0  0
    5.4591   -3.5937   22.8249 C   0  0  0  0  0  0  0  0  0  0  0  0
    6.0264   -4.7316   23.6753 C   0  0  0  0  0  0  0  0  0  0  0  0
    6.7553   -5.3177   23.1007 H   0  0  0  0  0  0  0  0  0  0  0  0
    5.2362   -5.4201   23.9928 H   0  0  0  0  0  0  0  0  0  0  0  0
    4.7490   -3.0640   23.4797 H   0  0  0  0  0  0  0  0  0  0  0  0
    4.9052   -3.9750   21.9673 H   0  0  0  0  0  0  0  0  0  0  0  0
    8.2099   -1.6096   23.0981 H   0  0  0  0  0  0  0  0  0  0  0  0
    6.7627   -1.4931   24.1327 H   0  0  0  0  0  0  0  0  0  0  0  0
    8.4589   -2.8775   25.1823 H   0  0  0  0  0  0  0  0  0  0  0  0
    8.5422   -3.9475   23.7778 H   0  0  0  0  0  0  0  0  0  0  0  0
    6.0262   -3.4592   25.3314 H   0  0  0  0  0  0  0  0  0  0  0  0
    7.3986   -4.4090   27.2867 C   0  0  0  0  0  0  0  0  0  0  0  0
    6.6359   -4.4976   28.0659 H   0  0  0  0  0  0  0  0  0  0  0  0
    7.5164   -3.3409   27.0892 H   0  0  0  0  0  0  0  0  0  0  0  0
    6.1148   -5.7468   26.1036 H   0  0  0  0  0  0  0  0  0  0  0  0
    8.0006   -7.0593   25.9344 H   0  0  0  0  0  0  0  0  0  0  0  0
    8.3884   -6.1042   24.5397 H   0  0  0  0  0  0  0  0  0  0  0  0
   10.2303   -6.1500   26.5595 H   0  0  0  0  0  0  0  0  0  0  0  0
    9.7882   -4.5569   25.9360 H   0  0  0  0  0  0  0  0  0  0  0  0
    9.3396   -4.3407   28.3517 H   0  0  0  0  0  0  0  0  0  0  0  0
    7.8222   -6.8788   27.8960 H   0  0  0  0  0  0  0  0  0  0  0  0
    7.8460   -6.0866   29.3817 H   0  0  0  0  0  0  0  0  0  0  0  0
    9.2498   -6.8017   28.7452 H   0  0  0  0  0  0  0  0  0  0  0  0
  1  2  1  0
  2  3  1  0
  3  4  1  0
  4  5  1  0
  5  6  1  0
  6  7  1  0
  7  8  1  0
  8  9  1  0
  9 10  1  0
 10 11  2  0
 10 12  1  0
 12 13  1  0
 13 14  2  0
 14 15  1  0
 15 16  2  0
 16 17  1  0
 17 18  2  0
 18 19  1  0
 16 20  1  0
 15 21  1  0
 14 22  1  0
 12 23  1  0
 12 24  1  0
  9 25  1  0
 25 26  1  0
 26 27  1  0
 26 28  1  0
 25 29  1  0
 25 30  1  0
  8 31  1  0
  8 32  1  0
  7 33  1  0
  7 34  1  0
  6 35  1  0
  5 36  1  0
 36 37  1  0
 36 38  1  0
  5 39  1  0
  4 40  1  0
  4 41  1  0
  3 42  1  0
  3 43  1  0
  2 44  1  0
  1 45  1  0
  1 46  1  0
  1 47  1  0
 36  2  1  0
 26  6  1  0
 18 13  1  0
M  CHG  2   1   1   6   1
M  END
>  <plip>  (1) 
-0.14285714285714285

>  <filename>  (1) 
[H][c]1[n][c]([H])[c]([C]([H])([H])[C](=[O])[N]2[C]([H])([H])[C]([H])([H])[N+]([H])([C]3([H])[C]([H])([H])[C]([H])([H])[C]([H])([N+]([H])([H])[H])[C]3([H])[H])[C]([H])([H])[C]2([H])[H])[c]([H])[c]1[H]

$$$$
