
     RDKit          3D

 35 36  0  0  0  0  0  0  0  0999 V2000
    4.8572    1.6836   16.4805 H   0  0  0  0  0  0  0  0  0  0  0  0
    5.2876    1.2459   17.3770 C   0  0  0  0  0  0  0  0  0  0  0  0
    6.4132    0.5427   17.1946 N   0  0  0  0  0  0  0  0  0  0  0  0
    6.9916    0.0221   18.2845 C   0  0  0  0  0  0  0  0  0  0  0  0
    7.8915   -0.5665   18.1050 H   0  0  0  0  0  0  0  0  0  0  0  0
    6.5058    0.1911   19.5955 C   0  0  0  0  0  0  0  0  0  0  0  0
    7.2403   -0.3314   20.8068 C   0  0  0  0  0  0  0  0  0  0  0  0
    6.5254   -0.6958   21.5540 H   0  0  0  0  0  0  0  0  0  0  0  0
    7.8604   -1.1832   20.5094 H   0  0  0  0  0  0  0  0  0  0  0  0
    8.1504    0.6566   21.5513 C   0  0  2  0  0  0  0  0  0  0  0  0
    8.8559    1.1158   20.8451 H   0  0  0  0  0  0  0  0  0  0  0  0
    8.7959   -0.1279   22.5323 O   0  0  0  0  0  0  0  0  0  0  0  0
   10.1381    0.1773   22.8984 C   0  0  0  0  0  0  0  0  0  0  0  0
   10.2426    1.2621   23.0849 H   0  0  0  0  0  0  0  0  0  0  0  0
   10.3947   -0.6013   24.1922 C   0  0  0  0  0  0  0  0  0  0  0  0
   11.3873   -0.3341   24.5806 H   0  0  0  0  0  0  0  0  0  0  0  0
    9.6618   -0.3253   24.9567 H   0  0  0  0  0  0  0  0  0  0  0  0
   10.3479   -2.1145   23.9265 C   0  0  0  0  0  0  0  0  0  0  0  0
    9.3307   -2.4159   23.6401 H   0  0  0  0  0  0  0  0  0  0  0  0
   10.6033   -2.6666   24.8402 H   0  0  0  0  0  0  0  0  0  0  0  0
   11.2794   -2.5281   22.8721 N   0  0  0  0  0  0  0  0  0  0  0  0
   12.2283   -2.3388   23.1875 H   0  0  0  0  0  0  0  0  0  0  0  0
   11.1093   -1.8068   21.6164 C   0  0  0  0  0  0  0  0  0  0  0  0
   10.1781   -2.1441   21.1527 H   0  0  0  0  0  0  0  0  0  0  0  0
   11.9169   -2.1145   20.9385 H   0  0  0  0  0  0  0  0  0  0  0  0
   11.1161   -0.2841   21.8012 C   0  0  0  0  0  0  0  0  0  0  0  0
   12.1347    0.0193   22.0739 H   0  0  0  0  0  0  0  0  0  0  0  0
   10.8673    0.2054   20.8609 H   0  0  0  0  0  0  0  0  0  0  0  0
    7.4088    1.6986   22.2202 N   0  0  0  0  0  0  0  0  0  0  0  0
    7.1128    1.2738   23.0931 H   0  0  0  0  0  0  0  0  0  0  0  0
    8.0595    2.4308   22.4911 H   0  0  0  0  0  0  0  0  0  0  0  0
    5.3070    0.8937   19.7530 C   0  0  0  0  0  0  0  0  0  0  0  0
    4.8997    1.0251   20.7598 H   0  0  0  0  0  0  0  0  0  0  0  0
    4.6799    1.4261   18.6256 C   0  0  0  0  0  0  0  0  0  0  0  0
    3.7520    1.9816   18.7021 H   0  0  0  0  0  0  0  0  0  0  0  0
  1  2  1  0
  2  3  2  0
  3  4  1  0
  4  5  1  0
  4  6  2  0
  6  7  1  0
  7  8  1  0
  7  9  1  0
  7 10  1  0
 10 11  1  6
 10 12  1  0
 12 13  1  0
 13 14  1  0
 13 15  1  0
 15 16  1  0
 15 17  1  0
 15 18  1  0
 18 19  1  0
 18 20  1  0
 18 21  1  0
 21 22  1  0
 21 23  1  0
 23 24  1  0
 23 25  1  0
 23 26  1  0
 26 27  1  0
 26 28  1  0
 10 29  1  0
 29 30  1  0
 29 31  1  0
  6 32  1  0
 32 33  1  0
 32 34  2  0
 34 35  1  0
 34  2  1  0
 26 13  1  0
M  END
>  <plip>  (1) 
-0.07142857142857142

>  <filename>  (1) 
[H][c]1[n][c]([H])[c]([C]([H])([H])[C@]([H])([O][C]2([H])[C]([H])([H])[C]([H])([H])[N]([H])[C]([H])([H])[C]2([H])[H])[N]([H])[H])[c]([H])[c]1[H]

$$$$
