
     RDKit          3D

 26 28  0  0  0  0  0  0  0  0999 V2000
    4.9354    1.8161   16.9682 H   0  0  0  0  0  0  0  0  0  0  0  0
    5.4019    1.3130   17.8119 C   0  0  0  0  0  0  0  0  0  0  0  0
    6.5684    0.6942   17.5690 N   0  0  0  0  0  0  0  0  0  0  0  0
    7.1747    0.0936   18.6040 C   0  0  0  0  0  0  0  0  0  0  0  0
    8.1146   -0.3979   18.3545 H   0  0  0  0  0  0  0  0  0  0  0  0
    6.6677    0.0646   19.9308 C   0  0  0  0  0  0  0  0  0  0  0  0
    7.3386   -0.6640   21.0542 C   0  0  0  0  0  0  0  0  0  0  0  0
    7.7493   -2.0198   21.0757 C   0  0  0  0  0  0  0  0  0  0  0  0
    7.5922   -2.7615   20.3169 H   0  0  0  0  0  0  0  0  0  0  0  0
    8.2759   -2.3907   22.2305 N   0  0  0  0  0  0  0  0  0  0  0  0
    8.1923   -1.2928   22.9854 N   0  0  0  0  0  0  0  0  0  0  0  0
    8.4896   -1.3224   23.9516 H   0  0  0  0  0  0  0  0  0  0  0  0
    7.6176   -0.2313   22.3631 C   0  0  0  0  0  0  0  0  0  0  0  0
    7.3088    0.9649   23.1178 C   0  0  0  0  0  0  0  0  0  0  0  0
    6.9727    1.1792   24.4454 C   0  0  0  0  0  0  0  0  0  0  0  0
    6.8604    0.4345   25.2239 H   0  0  0  0  0  0  0  0  0  0  0  0
    6.7212    2.5664   24.5921 C   0  0  0  0  0  0  0  0  0  0  0  0
    6.4455    3.0885   25.4941 H   0  0  0  0  0  0  0  0  0  0  0  0
    6.8932    3.1562   23.3672 C   0  0  0  0  0  0  0  0  0  0  0  0
    6.7842    4.1860   23.0567 H   0  0  0  0  0  0  0  0  0  0  0  0
    7.2480    2.1761   22.4904 N   0  0  0  0  0  0  0  0  0  0  0  0
    7.3049    2.2636   21.4905 H   0  0  0  0  0  0  0  0  0  0  0  0
    5.4257    0.6884   20.1332 C   0  0  0  0  0  0  0  0  0  0  0  0
    4.9545    0.6613   21.1173 H   0  0  0  0  0  0  0  0  0  0  0  0
    4.7869    1.3254   19.0656 C   0  0  0  0  0  0  0  0  0  0  0  0
    3.8367    1.8340   19.1956 H   0  0  0  0  0  0  0  0  0  0  0  0
  1  2  1  0
  2  3  2  0
  3  4  1  0
  4  5  1  0
  4  6  2  0
  6  7  1  0
  7  8  1  0
  8  9  1  0
  8 10  2  0
 10 11  1  0
 11 12  1  0
 11 13  1  0
 13 14  1  0
 14 15  2  0
 15 16  1  0
 15 17  1  0
 17 18  1  0
 17 19  2  0
 19 20  1  0
 19 21  1  0
 21 22  1  0
  6 23  1  0
 23 24  1  0
 23 25  2  0
 25 26  1  0
 25  2  1  0
 13  7  2  0
 21 14  1  0
M  END
>  <plip>  (1) 
-0.034482758620689655

>  <filename>  (1) 
[H][c]1[n][c]([H])[c](-[c]2[c]([H])[n][n]([H])[c]2-[c]2[c]([H])[c]([H])[c]([H])[n]2[H])[c]([H])[c]1[H]

$$$$
