
     RDKit          3D

 25 26  0  0  0  0  0  0  0  0999 V2000
    4.9459    1.7776   16.9947 H   0  0  0  0  0  0  0  0  0  0  0  0
    5.4081    1.2845   17.8480 C   0  0  0  0  0  0  0  0  0  0  0  0
    6.5703    0.6617   17.6074 N   0  0  0  0  0  0  0  0  0  0  0  0
    7.1764    0.0635   18.6343 C   0  0  0  0  0  0  0  0  0  0  0  0
    8.1124   -0.4379   18.4023 H   0  0  0  0  0  0  0  0  0  0  0  0
    6.6579    0.0664   19.9325 C   0  0  0  0  0  0  0  0  0  0  0  0
    7.4215   -0.6652   20.9835 C   0  0  0  0  0  0  0  0  0  0  0  0
    8.1390   -1.6019   20.7021 O   0  0  0  0  0  0  0  0  0  0  0  0
    7.1694   -0.3344   22.3254 N   0  0  0  0  0  0  0  0  0  0  0  0
    7.1892    0.9775   22.7645 N   0  0  0  0  0  0  0  0  0  0  0  0
    7.6871    1.9293   21.9662 N   0  0  0  0  0  0  0  0  0  0  0  0
    7.6027    3.0401   22.6805 C   0  0  0  0  0  0  0  0  0  0  0  0
    7.9092    3.9864   22.2541 H   0  0  0  0  0  0  0  0  0  0  0  0
    7.0834    2.8043   23.9709 C   0  0  0  0  0  0  0  0  0  0  0  0
    6.9261    3.5267   24.7580 H   0  0  0  0  0  0  0  0  0  0  0  0
    6.8398    1.4514   23.9917 C   0  0  0  0  0  0  0  0  0  0  0  0
    6.4788    0.7665   24.7447 H   0  0  0  0  0  0  0  0  0  0  0  0
    7.0540   -1.3851   23.3281 C   0  0  0  0  0  0  0  0  0  0  0  0
    6.1045   -1.3193   23.8744 H   0  0  0  0  0  0  0  0  0  0  0  0
    7.0827   -2.3468   22.8156 H   0  0  0  0  0  0  0  0  0  0  0  0
    7.8785   -1.3585   24.0487 H   0  0  0  0  0  0  0  0  0  0  0  0
    5.4238    0.6805   20.1790 C   0  0  0  0  0  0  0  0  0  0  0  0
    4.9870    0.6742   21.1809 H   0  0  0  0  0  0  0  0  0  0  0  0
    4.7953    1.3072   19.1068 C   0  0  0  0  0  0  0  0  0  0  0  0
    3.8654    1.8424   19.2420 H   0  0  0  0  0  0  0  0  0  0  0  0
  1  2  1  0
  2  3  2  0
  3  4  1  0
  4  5  1  0
  4  6  2  0
  6  7  1  0
  7  8  2  0
  7  9  1  0
  9 10  1  0
 10 11  1  0
 11 12  2  0
 12 13  1  0
 12 14  1  0
 14 15  1  0
 14 16  2  0
 16 17  1  0
  9 18  1  0
 18 19  1  0
 18 20  1  0
 18 21  1  0
  6 22  1  0
 22 23  1  0
 22 24  2  0
 24 25  1  0
 24  2  1  0
 16 10  1  0
M  END
>  <plip>  (1) 
-0.03571428571428571

>  <filename>  (1) 
[H][c]1[n][c]([H])[c]([C](=[O])[N]([n]2[n][c]([H])[c]([H])[c]2[H])[C]([H])([H])[H])[c]([H])[c]1[H]

$$$$
