
     RDKit          3D

 41 44  0  0  0  0  0  0  0  0999 V2000
    6.1645    5.9633   27.6904 H   0  0  0  0  0  0  0  0  0  0  0  0
    6.9799    5.7243   27.0051 C   0  0  0  0  0  0  0  0  0  0  0  0
    6.7541    4.6872   26.1972 N   0  0  0  0  0  0  0  0  0  0  0  0
    7.7048    4.3732   25.3063 C   0  0  0  0  0  0  0  0  0  0  0  0
    7.4363    3.3247   24.4536 N   0  0  0  0  0  0  0  0  0  0  0  0
    8.1563    3.1660   23.1791 C   0  0  0  0  0  0  0  0  0  0  0  0
    9.1802    2.8134   23.3743 H   0  0  0  0  0  0  0  0  0  0  0  0
    8.2222    4.1327   22.6600 H   0  0  0  0  0  0  0  0  0  0  0  0
    7.4629    2.1618   22.2242 C   0  0  0  0  0  0  0  0  0  0  0  0
    8.0969    1.9979   21.3504 H   0  0  0  0  0  0  0  0  0  0  0  0
    6.5222    2.6116   21.8669 H   0  0  0  0  0  0  0  0  0  0  0  0
    7.2237    0.8822   22.8935 N   0  0  0  0  0  0  0  0  0  0  0  0
    7.5180   -0.3264   22.3093 C   0  0  0  0  0  0  0  0  0  0  0  0
    8.0973   -1.3654   22.9841 N   0  0  0  0  0  0  0  0  0  0  0  0
    8.3346   -2.2834   22.0806 C   0  0  0  0  0  0  0  0  0  0  0  0
    8.8063   -3.2491   22.2413 H   0  0  0  0  0  0  0  0  0  0  0  0
    7.9297   -1.9058   20.8459 N   0  0  0  0  0  0  0  0  0  0  0  0
    7.8925   -2.4846   20.0197 H   0  0  0  0  0  0  0  0  0  0  0  0
    7.3612   -0.6566   20.9622 C   0  0  0  0  0  0  0  0  0  0  0  0
    6.6541    0.0081   19.8717 C   0  0  0  0  0  0  0  0  0  0  0  0
    7.1531    0.0578   18.5519 C   0  0  0  0  0  0  0  0  0  0  0  0
    8.1119   -0.3982   18.3097 H   0  0  0  0  0  0  0  0  0  0  0  0
    6.5415    0.6876   17.5410 N   0  0  0  0  0  0  0  0  0  0  0  0
    5.3821    1.3125   17.8058 C   0  0  0  0  0  0  0  0  0  0  0  0
    4.9144    1.8212   16.9639 H   0  0  0  0  0  0  0  0  0  0  0  0
    4.7897    1.3236   19.0729 C   0  0  0  0  0  0  0  0  0  0  0  0
    3.8596    1.8550   19.2282 H   0  0  0  0  0  0  0  0  0  0  0  0
    5.4338    0.6592   20.1185 C   0  0  0  0  0  0  0  0  0  0  0  0
    5.0293    0.6381   21.1298 H   0  0  0  0  0  0  0  0  0  0  0  0
    6.7395    0.9244   24.2702 C   0  0  0  0  0  0  0  0  0  0  0  0
    7.4939    0.4845   24.9369 H   0  0  0  0  0  0  0  0  0  0  0  0
    5.8373    0.3034   24.3400 H   0  0  0  0  0  0  0  0  0  0  0  0
    6.3633    2.3554   24.7215 C   0  0  0  0  0  0  0  0  0  0  0  0
    5.4447    2.6704   24.2001 H   0  0  0  0  0  0  0  0  0  0  0  0
    6.1379    2.3402   25.7889 H   0  0  0  0  0  0  0  0  0  0  0  0
    8.9380    5.0694   25.2453 C   0  0  0  0  0  0  0  0  0  0  0  0
    9.6625    4.7378   24.5190 H   0  0  0  0  0  0  0  0  0  0  0  0
    9.1728    6.1284   26.1180 C   0  0  0  0  0  0  0  0  0  0  0  0
   10.1195    6.6792   26.0946 H   0  0  0  0  0  0  0  0  0  0  0  0
    8.1574    6.4719   27.0205 C   0  0  0  0  0  0  0  0  0  0  0  0
    8.2533    7.2891   27.7255 H   0  0  0  0  0  0  0  0  0  0  0  0
  1  2  1  0
  2  3  2  0
  3  4  1  0
  4  5  1  0
  5  6  1  0
  6  7  1  0
  6  8  1  0
  6  9  1  0
  9 10  1  0
  9 11  1  0
  9 12  1  0
 12 13  1  0
 13 14  1  0
 14 15  2  0
 15 16  1  0
 15 17  1  0
 17 18  1  0
 17 19  1  0
 19 20  1  0
 20 21  2  0
 21 22  1  0
 21 23  1  0
 23 24  2  0
 24 25  1  0
 24 26  1  0
 26 27  1  0
 26 28  2  0
 28 29  1  0
 12 30  1  0
 30 31  1  0
 30 32  1  0
 30 33  1  0
 33 34  1  0
 33 35  1  0
  4 36  2  0
 36 37  1  0
 36 38  1  0
 38 39  1  0
 38 40  2  0
 40 41  1  0
 40  2  1  0
 33  5  1  0
 19 13  2  0
 28 20  1  0
M  END
>  <plip>  (1) 
-0.06896551724137931

>  <filename>  (1) 
[H][c]1[n][c]([N]2[C]([H])([H])[C]([H])([H])[N]([c]3[n][c]([H])[n]([H])[c]3-[c]3[c]([H])[n][c]([H])[c]([H])[c]3[H])[C]([H])([H])[C]2([H])[H])[c]([H])[c]([H])[c]1[H]

$$$$
