
     RDKit          3D

 34 36  0  0  0  0  0  0  0  0999 V2000
    4.9253    1.8036   16.9785 H   0  0  0  0  0  0  0  0  0  0  0  0
    5.3867    1.2976   17.8250 C   0  0  0  0  0  0  0  0  0  0  0  0
    6.5506    0.6813   17.5727 N   0  0  0  0  0  0  0  0  0  0  0  0
    7.1487    0.0628   18.5985 C   0  0  0  0  0  0  0  0  0  0  0  0
    8.1037   -0.4088   18.3673 H   0  0  0  0  0  0  0  0  0  0  0  0
    6.6205   -0.0150   19.9001 C   0  0  0  0  0  0  0  0  0  0  0  0
    7.3701   -0.7374   21.0000 C   0  0  0  0  0  0  0  0  0  0  0  0
    6.7817   -0.7139   21.9242 H   0  0  0  0  0  0  0  0  0  0  0  0
    7.4827   -1.7977   20.7448 H   0  0  0  0  0  0  0  0  0  0  0  0
    8.7372   -0.1628   21.2494 C   0  0  0  0  0  0  0  0  0  0  0  0
    9.9875   -0.7227   20.9126 C   0  0  0  0  0  0  0  0  0  0  0  0
   10.1642   -1.6815   20.4546 H   0  0  0  0  0  0  0  0  0  0  0  0
   10.9955    0.0765   21.2243 N   0  0  0  0  0  0  0  0  0  0  0  0
   10.4279    1.1552   21.7602 N   0  0  0  0  0  0  0  0  0  0  0  0
   11.0469    1.8999   22.0740 H   0  0  0  0  0  0  0  0  0  0  0  0
    9.0684    1.0625   21.7997 C   0  0  0  0  0  0  0  0  0  0  0  0
    8.0349    2.3978   22.4287 S   0  0  0  0  0  0  0  0  0  0  0  0
    7.1907    2.8914   21.3539 O   0  0  0  0  0  0  0  0  0  0  0  0
    8.9694    3.2605   23.1435 O   0  0  0  0  0  0  0  0  0  0  0  0
    6.9213    1.6033   23.5837 C   0  0  0  0  0  0  0  0  0  0  0  0
    7.3900    0.6510   24.4938 C   0  0  0  0  0  0  0  0  0  0  0  0
    8.4316    0.3305   24.5145 H   0  0  0  0  0  0  0  0  0  0  0  0
    6.4930    0.1036   25.4134 C   0  0  0  0  0  0  0  0  0  0  0  0
    6.8506   -0.6300   26.1262 H   0  0  0  0  0  0  0  0  0  0  0  0
    5.1527    0.4997   25.4339 C   0  0  0  0  0  0  0  0  0  0  0  0
    4.4670    0.0691   26.1582 H   0  0  0  0  0  0  0  0  0  0  0  0
    4.7010    1.4571   24.5195 C   0  0  0  0  0  0  0  0  0  0  0  0
    3.6678    1.7866   24.5415 H   0  0  0  0  0  0  0  0  0  0  0  0
    5.5779    2.0108   23.5869 C   0  0  0  0  0  0  0  0  0  0  0  0
    5.2155    2.7601   22.8827 H   0  0  0  0  0  0  0  0  0  0  0  0
    5.4073    0.6335   20.1380 C   0  0  0  0  0  0  0  0  0  0  0  0
    5.0079    0.6619   21.1543 H   0  0  0  0  0  0  0  0  0  0  0  0
    4.7799    1.3055   19.0854 C   0  0  0  0  0  0  0  0  0  0  0  0
    3.8601    1.8585   19.2334 H   0  0  0  0  0  0  0  0  0  0  0  0
  1  2  1  0
  2  3  2  0
  3  4  1  0
  4  5  1  0
  4  6  2  0
  6  7  1  0
  7  8  1  0
  7  9  1  0
  7 10  1  0
 10 11  1  0
 11 12  1  0
 11 13  2  0
 13 14  1  0
 14 15  1  0
 14 16  1  0
 16 17  1  0
 17 18  2  0
 17 19  2  0
 17 20  1  0
 20 21  2  0
 21 22  1  0
 21 23  1  0
 23 24  1  0
 23 25  2  0
 25 26  1  0
 25 27  1  0
 27 28  1  0
 27 29  2  0
 29 30  1  0
  6 31  1  0
 31 32  1  0
 31 33  2  0
 33 34  1  0
 33  2  1  0
 16 10  2  0
 29 20  1  0
M  END
>  <plip>  (1) 
-0.07142857142857142

>  <filename>  (1) 
[H][c]1[n][c]([H])[c]([C]([H])([H])[c]2[c]([H])[n][n]([H])[c]2[S](=[O])(=[O])[c]2[c]([H])[c]([H])[c]([H])[c]([H])[c]2[H])[c]([H])[c]1[H]

$$$$
