
     RDKit          3D

 27 28  0  0  0  0  0  0  0  0999 V2000
    8.6220   -1.8310   22.6385 H   0  0  0  0  0  0  0  0  0  0  0  0
    7.7024   -1.3848   23.0049 C   0  0  0  0  0  0  0  0  0  0  0  0
    6.9162   -0.6726   22.0937 N   0  0  0  0  0  0  0  0  0  0  0  0
    7.3933   -0.6958   20.9335 N   0  0  0  0  0  0  0  0  0  0  0  0
    6.6343   -0.0014   19.9524 C   0  0  0  0  0  0  0  0  0  0  0  0
    7.1798    0.0211   18.6590 C   0  0  0  0  0  0  0  0  0  0  0  0
    8.1293   -0.4865   18.4863 H   0  0  0  0  0  0  0  0  0  0  0  0
    6.6051    0.6370   17.6226 N   0  0  0  0  0  0  0  0  0  0  0  0
    5.4389    1.2732   17.8496 C   0  0  0  0  0  0  0  0  0  0  0  0
    4.9898    1.7756   16.9969 H   0  0  0  0  0  0  0  0  0  0  0  0
    4.8099    1.3024   19.1009 C   0  0  0  0  0  0  0  0  0  0  0  0
    3.8768    1.8377   19.2358 H   0  0  0  0  0  0  0  0  0  0  0  0
    5.4146    0.6540   20.1752 C   0  0  0  0  0  0  0  0  0  0  0  0
    5.0103    0.6342   21.1846 H   0  0  0  0  0  0  0  0  0  0  0  0
    7.2425   -1.5186   24.2587 C   0  0  0  0  0  0  0  0  0  0  0  0
    6.2943   -1.0561   24.5164 H   0  0  0  0  0  0  0  0  0  0  0  0
    7.8826   -2.3223   25.2926 C   0  0  0  0  0  0  0  0  0  0  0  0
    7.1037   -2.8004   26.3639 C   0  0  0  0  0  0  0  0  0  0  0  0
    6.0717   -2.4699   26.4597 H   0  0  0  0  0  0  0  0  0  0  0  0
    7.6447   -3.7000   27.2842 C   0  0  0  0  0  0  0  0  0  0  0  0
    7.0244   -4.0784   28.0887 H   0  0  0  0  0  0  0  0  0  0  0  0
    8.9721   -4.1294   27.1584 C   0  0  0  0  0  0  0  0  0  0  0  0
    9.4040   -4.8253   27.8736 H   0  0  0  0  0  0  0  0  0  0  0  0
    9.7600   -3.6228   26.1251 C   0  0  0  0  0  0  0  0  0  0  0  0
   10.7898   -3.9474   26.0139 H   0  0  0  0  0  0  0  0  0  0  0  0
    9.2357   -2.7084   25.2142 C   0  0  0  0  0  0  0  0  0  0  0  0
    9.8773   -2.2827   24.4499 H   0  0  0  0  0  0  0  0  0  0  0  0
  1  2  1  0
  2  3  1  0
  3  4  2  3
  4  5  1  0
  5  6  2  0
  6  7  1  0
  6  8  1  0
  8  9  2  0
  9 10  1  0
  9 11  1  0
 11 12  1  0
 11 13  2  0
 13 14  1  0
  2 15  2  3
 15 16  1  0
 15 17  1  0
 17 18  2  0
 18 19  1  0
 18 20  1  0
 20 21  1  0
 20 22  2  0
 22 23  1  0
 22 24  1  0
 24 25  1  0
 24 26  2  0
 26 27  1  0
 13  5  1  0
 26 17  1  0
M  END
>  <plip>  (1) 
-0.06896551724137931

>  <filename>  (1) 
[H][C]([N]=[N][c]1[c]([H])[n][c]([H])[c]([H])[c]1[H])=[C]([H])[c]1[c]([H])[c]([H])[c]([H])[c]([H])[c]1[H]

$$$$
