
     RDKit          3D

 29 31  0  0  0  0  0  0  0  0999 V2000
    9.8986    0.0284   20.3803 O   0  0  0  0  0  0  0  0  0  0  0  0
    9.4577    0.6119   21.3586 C   0  0  0  0  0  0  0  0  0  0  0  0
   10.1738    1.6246   22.1237 C   0  0  0  0  0  0  0  0  0  0  0  0
    9.6209    2.2106   23.2131 C   0  0  0  0  0  0  0  0  0  0  0  0
    8.2876    1.8554   23.6109 C   0  0  0  0  0  0  0  0  0  0  0  0
    7.7132    2.5084   24.7839 C   0  0  0  0  0  0  0  0  0  0  0  0
    8.2739    3.3969   25.5395 N   0  0  0  0  0  0  0  0  0  0  0  0
    7.3564    3.7259   26.5199 N   0  0  0  0  0  0  0  0  0  0  0  0
    6.3167    3.0103   26.2812 C   0  0  0  0  0  0  0  0  0  0  0  0
    6.4517    2.2082   25.2010 O   0  0  0  0  0  0  0  0  0  0  0  0
    5.3892    2.9871   26.8299 H   0  0  0  0  0  0  0  0  0  0  0  0
    7.5962    0.9124   22.8974 C   0  0  0  0  0  0  0  0  0  0  0  0
    8.1690    0.2705   21.8389 N   0  0  0  0  0  0  0  0  0  0  0  0
    7.3938   -0.6815   21.0198 C   0  0  0  0  0  0  0  0  0  0  0  0
    6.6503    0.0015   19.8917 C   0  0  0  0  0  0  0  0  0  0  0  0
    5.4378    0.6499   20.1503 C   0  0  0  0  0  0  0  0  0  0  0  0
    4.8025    1.3137   19.1004 C   0  0  0  0  0  0  0  0  0  0  0  0
    5.3996    1.2948   17.8342 C   0  0  0  0  0  0  0  0  0  0  0  0
    6.5616    0.6821   17.5643 N   0  0  0  0  0  0  0  0  0  0  0  0
    7.1678    0.0643   18.5875 C   0  0  0  0  0  0  0  0  0  0  0  0
    8.1199   -0.4174   18.3724 H   0  0  0  0  0  0  0  0  0  0  0  0
    4.9144    1.7841   16.9933 H   0  0  0  0  0  0  0  0  0  0  0  0
    3.8706    1.8464   19.2559 H   0  0  0  0  0  0  0  0  0  0  0  0
    5.0087    0.6337   21.1592 H   0  0  0  0  0  0  0  0  0  0  0  0
    8.0840   -1.4310   20.6238 H   0  0  0  0  0  0  0  0  0  0  0  0
    6.6824   -1.2019   21.6729 H   0  0  0  0  0  0  0  0  0  0  0  0
    6.5740    0.6055   23.1355 H   0  0  0  0  0  0  0  0  0  0  0  0
   10.1702    2.9580   23.7996 H   0  0  0  0  0  0  0  0  0  0  0  0
   11.1733    1.8456   21.7700 H   0  0  0  0  0  0  0  0  0  0  0  0
  1  2  2  0
  2  3  1  0
  3  4  2  0
  4  5  1  0
  5  6  1  0
  6  7  2  0
  7  8  1  0
  8  9  2  0
  9 10  1  0
  9 11  1  0
  5 12  2  0
 12 13  1  0
 13 14  1  0
 14 15  1  0
 15 16  2  0
 16 17  1  0
 17 18  2  0
 18 19  1  0
 19 20  2  0
 20 21  1  0
 18 22  1  0
 17 23  1  0
 16 24  1  0
 14 25  1  0
 14 26  1  0
 12 27  1  0
  4 28  1  0
  3 29  1  0
 13  2  1  0
 20 15  1  0
 10  6  1  0
M  END
>  <plip>  (1) 
-0.07142857142857142

>  <filename>  (1) 
[H][c]1[n][n][c](-[c]2[c]([H])[c]([H])[c](=[O])[n]([C]([H])([H])[c]3[c]([H])[n][c]([H])[c]([H])[c]3[H])[c]2[H])[o]1

$$$$
