
     RDKit          3D

 30 32  0  0  0  0  0  0  0  0999 V2000
    4.9429    1.7813   17.0581 H   0  0  0  0  0  0  0  0  0  0  0  0
    5.4276    1.2659   17.8866 C   0  0  0  0  0  0  0  0  0  0  0  0
    6.5838    0.6457   17.5999 N   0  0  0  0  0  0  0  0  0  0  0  0
    7.2079    0.0107   18.5966 C   0  0  0  0  0  0  0  0  0  0  0  0
    8.1613   -0.4574   18.3661 H   0  0  0  0  0  0  0  0  0  0  0  0
    6.7070   -0.0658   19.9201 C   0  0  0  0  0  0  0  0  0  0  0  0
    7.4199   -0.7458   20.9725 N   0  0  0  0  0  0  0  0  0  0  0  0
    8.7995   -0.7140   21.1446 C   0  0  0  0  0  0  0  0  0  0  0  0
    9.5769   -0.0573   20.5047 O   0  0  0  0  0  0  0  0  0  0  0  0
    9.1092   -1.6614   22.2983 C   0  0  0  0  0  0  0  0  0  0  0  0
   10.1697   -2.0848   22.6730 O   0  0  0  0  0  0  0  0  0  0  0  0
    7.8489   -1.9649   22.8262 N   0  0  0  0  0  0  0  0  0  0  0  0
    7.7302   -3.2385   23.3844 O   0  0  0  0  0  0  0  0  0  0  0  0
    8.2700   -3.4477   24.6374 C   0  0  0  0  0  0  0  0  0  0  0  0
    8.3222   -4.8044   24.9844 C   0  0  0  0  0  0  0  0  0  0  0  0
    7.8912   -5.5089   24.2810 H   0  0  0  0  0  0  0  0  0  0  0  0
    8.9472   -5.2148   26.1605 C   0  0  0  0  0  0  0  0  0  0  0  0
    9.0757   -6.2662   26.3962 H   0  0  0  0  0  0  0  0  0  0  0  0
    9.4480   -4.2387   27.0199 C   0  0  0  0  0  0  0  0  0  0  0  0
   10.0831   -4.6255   28.1349 F   0  0  0  0  0  0  0  0  0  0  0  0
    9.3297   -2.8841   26.7271 C   0  0  0  0  0  0  0  0  0  0  0  0
    9.7206   -2.1546   27.4240 H   0  0  0  0  0  0  0  0  0  0  0  0
    8.7543   -2.4738   25.5186 C   0  0  0  0  0  0  0  0  0  0  0  0
    8.7159   -1.4187   25.2598 H   0  0  0  0  0  0  0  0  0  0  0  0
    6.8783   -1.7289   21.8107 C   0  0  0  0  0  0  0  0  0  0  0  0
    5.8544   -2.3184   21.6508 O   0  0  0  0  0  0  0  0  0  0  0  0
    5.4960    0.5715   20.2015 C   0  0  0  0  0  0  0  0  0  0  0  0
    5.0879    0.5340   21.2108 H   0  0  0  0  0  0  0  0  0  0  0  0
    4.8549    1.2584   19.1618 C   0  0  0  0  0  0  0  0  0  0  0  0
    3.9274    1.7917   19.3274 H   0  0  0  0  0  0  0  0  0  0  0  0
  1  2  1  0
  2  3  2  0
  3  4  1  0
  4  5  1  0
  4  6  2  0
  6  7  1  0
  7  8  1  0
  8  9  2  0
  8 10  1  0
 10 11  2  0
 10 12  1  0
 12 13  1  0
 13 14  1  0
 14 15  2  0
 15 16  1  0
 15 17  1  0
 17 18  1  0
 17 19  2  0
 19 20  1  0
 19 21  1  0
 21 22  1  0
 21 23  2  0
 23 24  1  0
 12 25  1  0
 25 26  2  0
  6 27  1  0
 27 28  1  0
 27 29  2  0
 29 30  1  0
 29  2  1  0
 25  7  1  0
 23 14  1  0
M  END
>  <plip>  (1) 
-0.06666666666666667

>  <filename>  (1) 
[H][c]1[n][c]([H])[c]([N]2[C](=[O])[C](=[O])[N]([O][c]3[c]([H])[c]([H])[c]([F])[c]([H])[c]3[H])[C]2=[O])[c]([H])[c]1[H]

$$$$
