
     RDKit          3D

 35 38  0  0  0  0  0  0  0  0999 V2000
    7.7940   -4.6218   22.7311 C   0  0  0  0  0  0  0  0  0  0  0  0
    8.7184   -3.5627   22.1088 C   0  0  0  0  0  0  0  0  0  0  0  0
    8.1712   -2.1926   21.9236 C   0  0  0  0  0  0  0  0  0  0  0  0
    7.7911   -1.8033   20.7285 N   0  0  0  0  0  0  0  0  0  0  0  0
    7.3545   -0.5408   20.9315 N   0  0  0  0  0  0  0  0  0  0  0  0
    6.6362    0.0898   19.8900 C   0  0  0  0  0  0  0  0  0  0  0  0
    5.3939    0.6908   20.1177 C   0  0  0  0  0  0  0  0  0  0  0  0
    4.7825    1.3175   19.0313 C   0  0  0  0  0  0  0  0  0  0  0  0
    5.4205    1.2948   17.7865 C   0  0  0  0  0  0  0  0  0  0  0  0
    6.5693    0.6323   17.5516 N   0  0  0  0  0  0  0  0  0  0  0  0
    7.1534    0.0249   18.5846 C   0  0  0  0  0  0  0  0  0  0  0  0
    8.0654   -0.5435   18.3970 H   0  0  0  0  0  0  0  0  0  0  0  0
    5.0058    1.8392   16.9447 H   0  0  0  0  0  0  0  0  0  0  0  0
    3.8408    1.8401   19.1515 H   0  0  0  0  0  0  0  0  0  0  0  0
    4.9275    0.6472   21.1052 H   0  0  0  0  0  0  0  0  0  0  0  0
    7.5509   -0.2061   22.2433 C   0  0  0  0  0  0  0  0  0  0  0  0
    7.2607    1.1187   22.8165 C   0  0  0  0  0  0  0  0  0  0  0  0
    7.4400    2.3145   22.1876 C   0  0  0  0  0  0  0  0  0  0  0  0
    7.0238    3.6871   23.1525 S   0  0  0  0  0  0  0  0  0  0  0  0
    6.5571    2.6589   24.4805 C   0  0  0  0  0  0  0  0  0  0  0  0
    6.0597    3.0152   25.7445 C   0  0  0  0  0  0  0  0  0  0  0  0
    5.7358    1.9806   26.6163 C   0  0  0  0  0  0  0  0  0  0  0  0
    5.8549    0.6689   26.3351 N   0  0  0  0  0  0  0  0  0  0  0  0
    6.3406    0.3378   25.1408 C   0  0  0  0  0  0  0  0  0  0  0  0
    6.7297    1.2952   24.1641 C   0  0  0  0  0  0  0  0  0  0  0  0
    6.4511   -0.7232   24.9138 H   0  0  0  0  0  0  0  0  0  0  0  0
    5.3590    2.2072   27.6095 H   0  0  0  0  0  0  0  0  0  0  0  0
    5.9359    4.0458   26.0531 H   0  0  0  0  0  0  0  0  0  0  0  0
    7.7865    2.4818   21.1716 H   0  0  0  0  0  0  0  0  0  0  0  0
    8.0490   -1.2538   22.8869 N   0  0  0  0  0  0  0  0  0  0  0  0
    9.6483   -3.4541   22.6751 H   0  0  0  0  0  0  0  0  0  0  0  0
    8.9514   -3.8732   21.0933 H   0  0  0  0  0  0  0  0  0  0  0  0
    8.3666   -5.5434   22.8749 H   0  0  0  0  0  0  0  0  0  0  0  0
    6.9542   -4.8612   22.0690 H   0  0  0  0  0  0  0  0  0  0  0  0
    7.3857   -4.3167   23.7010 H   0  0  0  0  0  0  0  0  0  0  0  0
  1  2  1  0
  2  3  1  0
  3  4  2  0
  4  5  1  0
  5  6  1  0
  6  7  2  0
  7  8  1  0
  8  9  2  0
  9 10  1  0
 10 11  2  0
 11 12  1  0
  9 13  1  0
  8 14  1  0
  7 15  1  0
  5 16  1  0
 16 17  1  0
 17 18  2  0
 18 19  1  0
 19 20  1  0
 20 21  2  0
 21 22  1  0
 22 23  2  0
 23 24  1  0
 24 25  2  0
 24 26  1  0
 22 27  1  0
 21 28  1  0
 18 29  1  0
 16 30  2  0
  2 31  1  0
  2 32  1  0
  1 33  1  0
  1 34  1  0
  1 35  1  0
 30  3  1  0
 11  6  1  0
 25 17  1  0
 25 20  1  0
M  END
>  <plip>  (1) 
-0.0

>  <filename>  (1) 
[H][c]1[n][c]([H])[c](-[n]2[n][c]([C]([H])([H])[C]([H])([H])[H])[n][c]2-[c]2[c]([H])[s][c]3[c]([H])[c]([H])[n][c]([H])[c]23)[c]([H])[c]1[H]

$$$$
