
     RDKit          3D

 38 38  0  0  0  0  0  0  0  0999 V2000
   11.0887    6.2404   26.5484 C   0  0  0  0  0  0  0  0  0  0  0  0
   10.6868    5.5894   25.6196 C   0  0  0  0  0  0  0  0  0  0  0  0
   10.2243    4.7741   24.4958 C   0  0  0  0  0  0  0  0  0  0  0  0
    8.4099    4.8507   24.3146 S   0  0  0  0  0  0  0  0  0  0  0  0
    8.1778    3.6661   22.9532 C   0  0  0  0  0  0  0  0  0  0  0  0
    8.1159    2.1984   23.3709 C   0  0  0  0  0  0  0  0  0  0  0  0
    7.7524    1.4189   22.1984 N   0  0  0  0  0  0  0  0  0  0  0  0
    7.6985    0.0598   22.2068 C   0  0  0  0  0  0  0  0  0  0  0  0
    7.9758   -0.5692   23.2197 O   0  0  0  0  0  0  0  0  0  0  0  0
    7.3467   -0.5414   20.9897 N   0  0  0  0  0  0  0  0  0  0  0  0
    6.6541    0.1235   19.9145 C   0  0  0  0  0  0  0  0  0  0  0  0
    5.4243    0.7604   20.1276 C   0  0  0  0  0  0  0  0  0  0  0  0
    4.7798    1.3636   19.0422 C   0  0  0  0  0  0  0  0  0  0  0  0
    5.3923    1.3439   17.7867 C   0  0  0  0  0  0  0  0  0  0  0  0
    6.5704    0.7425   17.5632 N   0  0  0  0  0  0  0  0  0  0  0  0
    7.1697    0.1423   18.5976 C   0  0  0  0  0  0  0  0  0  0  0  0
    8.1136   -0.3536   18.3791 H   0  0  0  0  0  0  0  0  0  0  0  0
    4.9179    1.8149   16.9284 H   0  0  0  0  0  0  0  0  0  0  0  0
    3.8253    1.8576   19.1642 H   0  0  0  0  0  0  0  0  0  0  0  0
    5.0015    0.7857   21.1305 H   0  0  0  0  0  0  0  0  0  0  0  0
    7.5289   -2.0068   20.8862 C   0  0  0  0  0  0  0  0  0  0  0  0
    8.9899   -2.4039   21.1195 C   0  0  0  0  0  0  0  0  0  0  0  0
    9.6544   -1.8178   20.4784 H   0  0  0  0  0  0  0  0  0  0  0  0
    9.2768   -2.2295   22.1604 H   0  0  0  0  0  0  0  0  0  0  0  0
    9.1290   -3.4638   20.8953 H   0  0  0  0  0  0  0  0  0  0  0  0
    6.5889   -2.7883   21.8073 C   0  0  0  0  0  0  0  0  0  0  0  0
    6.6607   -3.8621   21.5983 H   0  0  0  0  0  0  0  0  0  0  0  0
    5.5542   -2.4836   21.6358 H   0  0  0  0  0  0  0  0  0  0  0  0
    6.8486   -2.6140   22.8541 H   0  0  0  0  0  0  0  0  0  0  0  0
    7.2345   -2.2402   19.8571 H   0  0  0  0  0  0  0  0  0  0  0  0
    7.6949    1.8457   21.2918 H   0  0  0  0  0  0  0  0  0  0  0  0
    7.3683    2.0462   24.1608 H   0  0  0  0  0  0  0  0  0  0  0  0
    9.0687    1.8475   23.7975 H   0  0  0  0  0  0  0  0  0  0  0  0
    8.9492    3.7933   22.1808 H   0  0  0  0  0  0  0  0  0  0  0  0
    7.2157    3.9163   22.4888 H   0  0  0  0  0  0  0  0  0  0  0  0
   10.6859    5.1080   23.5610 H   0  0  0  0  0  0  0  0  0  0  0  0
   10.5232    3.7347   24.6552 H   0  0  0  0  0  0  0  0  0  0  0  0
   11.4194    6.8049   27.3944 H   0  0  0  0  0  0  0  0  0  0  0  0
  1  2  3  0
  2  3  1  0
  3  4  1  0
  4  5  1  0
  5  6  1  0
  6  7  1  0
  7  8  1  0
  8  9  2  0
  8 10  1  0
 10 11  1  0
 11 12  2  0
 12 13  1  0
 13 14  2  0
 14 15  1  0
 15 16  2  0
 16 17  1  0
 14 18  1  0
 13 19  1  0
 12 20  1  0
 10 21  1  0
 21 22  1  0
 22 23  1  0
 22 24  1  0
 22 25  1  0
 21 26  1  0
 26 27  1  0
 26 28  1  0
 26 29  1  0
 21 30  1  0
  7 31  1  0
  6 32  1  0
  6 33  1  0
  5 34  1  0
  5 35  1  0
  3 36  1  0
  3 37  1  0
  1 38  1  0
 16 11  1  0
M  END
>  <plip>  (1) 
-0.07142857142857142

>  <filename>  (1) 
[H][C]#[C][C]([H])([H])[S][C]([H])([H])[C]([H])([H])[N]([H])[C](=[O])[N]([c]1[c]([H])[n][c]([H])[c]([H])[c]1[H])[C]([H])([C]([H])([H])[H])[C]([H])([H])[H]

$$$$
