
     RDKit          3D

 30 32  0  0  0  0  0  0  0  0999 V2000
    4.9314    1.8344   16.9532 H   0  0  0  0  0  0  0  0  0  0  0  0
    5.3869    1.3184   17.7945 C   0  0  0  0  0  0  0  0  0  0  0  0
    6.5467    0.6893   17.5389 N   0  0  0  0  0  0  0  0  0  0  0  0
    7.1489    0.0704   18.5625 C   0  0  0  0  0  0  0  0  0  0  0  0
    8.0955   -0.4152   18.3286 H   0  0  0  0  0  0  0  0  0  0  0  0
    6.6354    0.0274   19.8815 C   0  0  0  0  0  0  0  0  0  0  0  0
    7.3266   -0.6588   20.9498 C   0  0  0  0  0  0  0  0  0  0  0  0
    7.8858   -1.2530   21.8486 C   0  0  0  0  0  0  0  0  0  0  0  0
    8.5929   -1.9639   22.8653 C   0  0  0  0  0  0  0  0  0  0  0  0
    9.8745   -2.4757   22.8329 C   0  0  0  0  0  0  0  0  0  0  0  0
   10.5536   -2.3544   21.9958 H   0  0  0  0  0  0  0  0  0  0  0  0
   10.1179   -3.1459   24.0626 C   0  0  0  0  0  0  0  0  0  0  0  0
   11.0314   -3.6466   24.3668 H   0  0  0  0  0  0  0  0  0  0  0  0
    8.9771   -3.0233   24.8155 C   0  0  0  0  0  0  0  0  0  0  0  0
    8.7371   -3.3406   25.8226 H   0  0  0  0  0  0  0  0  0  0  0  0
    8.0433   -2.3021   24.1059 N   0  0  0  0  0  0  0  0  0  0  0  0
    6.7691   -1.9611   24.6323 C   0  0  0  0  0  0  0  0  0  0  0  0
    6.2706   -0.6474   24.5556 C   0  0  0  0  0  0  0  0  0  0  0  0
    6.8438    0.1280   24.0513 H   0  0  0  0  0  0  0  0  0  0  0  0
    5.0999   -0.2783   25.0890 N   0  0  0  0  0  0  0  0  0  0  0  0
    4.3351   -1.2333   25.6329 C   0  0  0  0  0  0  0  0  0  0  0  0
    3.3641   -0.9067   25.9909 H   0  0  0  0  0  0  0  0  0  0  0  0
    4.7242   -2.5736   25.7353 C   0  0  0  0  0  0  0  0  0  0  0  0
    4.0463   -3.3119   26.1501 H   0  0  0  0  0  0  0  0  0  0  0  0
    5.9863   -2.9393   25.2697 C   0  0  0  0  0  0  0  0  0  0  0  0
    6.3418   -3.9697   25.3282 H   0  0  0  0  0  0  0  0  0  0  0  0
    5.4085    0.6806   20.1147 C   0  0  0  0  0  0  0  0  0  0  0  0
    4.9772    0.6798   21.1167 H   0  0  0  0  0  0  0  0  0  0  0  0
    4.7777    1.3332   19.0521 C   0  0  0  0  0  0  0  0  0  0  0  0
    3.8404    1.8644   19.1885 H   0  0  0  0  0  0  0  0  0  0  0  0
  1  2  1  0
  2  3  2  0
  3  4  1  0
  4  5  1  0
  4  6  2  0
  6  7  1  0
  7  8  3  0
  8  9  1  0
  9 10  2  0
 10 11  1  0
 10 12  1  0
 12 13  1  0
 12 14  2  0
 14 15  1  0
 14 16  1  0
 16 17  1  0
 17 18  2  0
 18 19  1  0
 18 20  1  0
 20 21  2  0
 21 22  1  0
 21 23  1  0
 23 24  1  0
 23 25  2  0
 25 26  1  0
  6 27  1  0
 27 28  1  0
 27 29  2  0
 29 30  1  0
 29  2  1  0
 16  9  1  0
 25 17  1  0
M  END
>  <plip>  (1) 
-0.07142857142857142

>  <filename>  (1) 
[H][c]1[n][c]([H])[c]([C]#[C][c]2[c]([H])[c]([H])[c]([H])[n]2-[c]2[c]([H])[n][c]([H])[c]([H])[c]2[H])[c]([H])[c]1[H]

$$$$
