
     RDKit          3D

 45 48  0  0  0  0  0  0  0  0999 V2000
   12.3819    2.5615   21.6779 C   0  0  0  0  0  0  0  0  0  0  0  0
   10.9294    2.2891   21.8144 C   0  0  0  0  0  0  0  0  0  0  0  0
   10.4464    1.1406   21.3561 N   0  0  0  0  0  0  0  0  0  0  0  0
    9.1268    1.0087   21.4738 C   0  0  0  0  0  0  0  0  0  0  0  0
    8.6985   -0.1919   21.1042 N   0  0  0  0  0  0  0  0  0  0  0  0
    7.3223   -0.5915   21.1296 C   0  0  0  0  0  0  0  0  0  0  0  0
    6.5876    0.1156   20.0002 C   0  0  0  0  0  0  0  0  0  0  0  0
    5.3477    0.7412   20.1679 C   0  0  0  0  0  0  0  0  0  0  0  0
    4.7441    1.3449   19.0586 C   0  0  0  0  0  0  0  0  0  0  0  0
    5.4058    1.3054   17.8269 C   0  0  0  0  0  0  0  0  0  0  0  0
    6.5927    0.7071   17.6460 N   0  0  0  0  0  0  0  0  0  0  0  0
    7.1585    0.1366   18.7172 C   0  0  0  0  0  0  0  0  0  0  0  0
    8.1217   -0.3383   18.5295 H   0  0  0  0  0  0  0  0  0  0  0  0
    4.9589    1.7702   16.9495 H   0  0  0  0  0  0  0  0  0  0  0  0
    3.7909    1.8550   19.1436 H   0  0  0  0  0  0  0  0  0  0  0  0
    4.8662    0.7721   21.1491 H   0  0  0  0  0  0  0  0  0  0  0  0
    7.2408   -2.1000   20.9817 C   0  0  0  0  0  0  0  0  0  0  0  0
    7.8994   -3.0161   22.0175 C   0  0  0  0  0  0  0  0  0  0  0  0
    7.0657   -4.3047   21.8999 C   0  0  0  0  0  0  0  0  0  0  0  0
    5.8748   -3.9981   21.1853 O   0  0  0  0  0  0  0  0  0  0  0  0
    5.8161   -2.6190   20.9077 C   0  0  0  0  0  0  0  0  0  0  0  0
    5.1810   -2.0931   21.6379 H   0  0  0  0  0  0  0  0  0  0  0  0
    5.3834   -2.4574   19.9131 H   0  0  0  0  0  0  0  0  0  0  0  0
    7.5866   -5.0879   21.3409 H   0  0  0  0  0  0  0  0  0  0  0  0
    6.8118   -4.7149   22.8831 H   0  0  0  0  0  0  0  0  0  0  0  0
    8.9524   -3.2096   21.7911 H   0  0  0  0  0  0  0  0  0  0  0  0
    7.8545   -2.6037   23.0323 H   0  0  0  0  0  0  0  0  0  0  0  0
    7.7265   -2.2713   20.0350 H   0  0  0  0  0  0  0  0  0  0  0  0
    6.8721   -0.3059   22.0965 H   0  0  0  0  0  0  0  0  0  0  0  0
    9.4845   -0.7571   20.8455 H   0  0  0  0  0  0  0  0  0  0  0  0
    8.2781    1.9990   21.9529 C   0  0  0  0  0  0  0  0  0  0  0  0
    8.8988    3.1525   22.3874 C   0  0  0  0  0  0  0  0  0  0  0  0
    8.1230    4.3126   22.8811 C   0  0  0  0  0  0  0  0  0  0  0  0
    8.4806    5.5757   23.2494 C   0  0  0  0  0  0  0  0  0  0  0  0
    7.2761    6.2468   23.6172 C   0  0  0  0  0  0  0  0  0  0  0  0
    6.2726    5.3496   23.4357 C   0  0  0  0  0  0  0  0  0  0  0  0
    6.7662    4.1739   22.9920 O   0  0  0  0  0  0  0  0  0  0  0  0
    5.2007    5.3804   23.5630 H   0  0  0  0  0  0  0  0  0  0  0  0
    7.1686    7.2628   23.9704 H   0  0  0  0  0  0  0  0  0  0  0  0
    9.4947    5.9591   23.2359 H   0  0  0  0  0  0  0  0  0  0  0  0
   10.2305    3.2755   22.3637 N   0  0  0  0  0  0  0  0  0  0  0  0
    7.2069    1.8821   21.9726 H   0  0  0  0  0  0  0  0  0  0  0  0
   12.9426    1.6301   21.7848 H   0  0  0  0  0  0  0  0  0  0  0  0
   12.6850    3.3029   22.4228 H   0  0  0  0  0  0  0  0  0  0  0  0
   12.5315    2.9895   20.6788 H   0  0  0  0  0  0  0  0  0  0  0  0
  1  2  1  0
  2  3  2  0
  3  4  1  0
  4  5  1  0
  5  6  1  0
  6  7  1  0
  7  8  2  0
  8  9  1  0
  9 10  2  0
 10 11  1  0
 11 12  2  0
 12 13  1  0
 10 14  1  0
  9 15  1  0
  8 16  1  0
  6 17  1  0
 17 18  1  0
 18 19  1  0
 19 20  1  0
 20 21  1  0
 21 22  1  0
 21 23  1  0
 19 24  1  0
 19 25  1  0
 18 26  1  0
 18 27  1  0
 17 28  1  0
  6 29  1  0
  5 30  1  0
  4 31  2  0
 31 32  1  0
 32 33  1  0
 33 34  2  0
 34 35  1  0
 35 36  2  0
 36 37  1  0
 36 38  1  0
 35 39  1  0
 34 40  1  0
 32 41  2  0
 31 42  1  0
  1 43  1  0
  1 44  1  0
  1 45  1  0
 41  2  1  0
 12  7  1  0
 21 17  1  0
 37 33  1  0
M  END
>  <plip>  (1) 
-0.13793103448275862

>  <filename>  (1) 
[H][c]1[n][c]([H])[c]([C]([H])([N]([H])[c]2[n][c]([C]([H])([H])[H])[n][c](-[c]3[o][c]([H])[c]([H])[c]3[H])[c]2[H])[C]2([H])[C]([H])([H])[O][C]([H])([H])[C]2([H])[H])[c]([H])[c]1[H]

$$$$
