
     RDKit          3D

 36 38  0  0  0  0  0  0  0  0999 V2000
    8.0588    0.2608   21.8677 C   0  0  0  0  0  0  0  0  0  0  0  0
    7.3130   -0.7652   21.0191 C   0  0  0  0  0  0  0  0  0  0  0  0
    6.3925   -1.4836   21.8377 O   0  0  0  0  0  0  0  0  0  0  0  0
    5.7497   -2.4986   21.2118 C   0  0  0  0  0  0  0  0  0  0  0  0
    5.6815   -2.6658   19.9968 O   0  0  0  0  0  0  0  0  0  0  0  0
    5.0751   -3.5246   22.1058 C   0  0  0  0  0  0  0  0  0  0  0  0
    6.1111   -4.1691   22.9817 C   0  0  0  0  0  0  0  0  0  0  0  0
    6.5987   -5.4081   22.6679 C   0  0  0  0  0  0  0  0  0  0  0  0
    7.7979   -5.9748   23.8169 S   0  0  0  0  0  0  0  0  0  0  0  0
    7.5827   -4.5229   24.7738 C   0  0  0  0  0  0  0  0  0  0  0  0
    8.1972   -4.2644   25.9926 C   0  0  0  0  0  0  0  0  0  0  0  0
    7.9401   -3.0547   26.6448 C   0  0  0  0  0  0  0  0  0  0  0  0
    7.1151   -2.0859   26.0585 C   0  0  0  0  0  0  0  0  0  0  0  0
    6.8526   -0.3983   26.9343 Br  0  0  0  0  0  0  0  0  0  0  0  0
    6.4844   -2.3760   24.8360 C   0  0  0  0  0  0  0  0  0  0  0  0
    6.6968   -3.6142   24.2049 C   0  0  0  0  0  0  0  0  0  0  0  0
    5.8329   -1.6408   24.3798 H   0  0  0  0  0  0  0  0  0  0  0  0
    8.3742   -2.8720   27.6173 H   0  0  0  0  0  0  0  0  0  0  0  0
    8.8542   -5.0097   26.4247 H   0  0  0  0  0  0  0  0  0  0  0  0
    6.2757   -5.9661   21.7942 H   0  0  0  0  0  0  0  0  0  0  0  0
    4.2988   -3.0622   22.7086 H   0  0  0  0  0  0  0  0  0  0  0  0
    4.5902   -4.2796   21.4890 H   0  0  0  0  0  0  0  0  0  0  0  0
    6.5898   -0.0610   19.9105 C   0  0  0  0  0  0  0  0  0  0  0  0
    5.3895    0.6176   20.1315 C   0  0  0  0  0  0  0  0  0  0  0  0
    4.8270    1.2955   19.0574 C   0  0  0  0  0  0  0  0  0  0  0  0
    5.4596    1.2692   17.8103 C   0  0  0  0  0  0  0  0  0  0  0  0
    6.5983    0.5864   17.5927 N   0  0  0  0  0  0  0  0  0  0  0  0
    7.1468   -0.0659   18.6295 C   0  0  0  0  0  0  0  0  0  0  0  0
    8.0689   -0.6180   18.4653 H   0  0  0  0  0  0  0  0  0  0  0  0
    5.0144    1.8221   16.9906 H   0  0  0  0  0  0  0  0  0  0  0  0
    3.9093    1.8553   19.1835 H   0  0  0  0  0  0  0  0  0  0  0  0
    4.9217    0.6168   21.1160 H   0  0  0  0  0  0  0  0  0  0  0  0
    8.0482   -1.4679   20.6083 H   0  0  0  0  0  0  0  0  0  0  0  0
    8.7579    0.8264   21.2442 H   0  0  0  0  0  0  0  0  0  0  0  0
    7.3587    0.9623   22.3316 H   0  0  0  0  0  0  0  0  0  0  0  0
    8.6280   -0.2388   22.6567 H   0  0  0  0  0  0  0  0  0  0  0  0
  1  2  1  0
  2  3  1  0
  3  4  1  0
  4  5  2  0
  4  6  1  0
  6  7  1  0
  7  8  2  0
  8  9  1  0
  9 10  1  0
 10 11  2  0
 11 12  1  0
 12 13  2  0
 13 14  1  0
 13 15  1  0
 15 16  2  0
 15 17  1  0
 12 18  1  0
 11 19  1  0
  8 20  1  0
  6 21  1  0
  6 22  1  0
  2 23  1  0
 23 24  2  0
 24 25  1  0
 25 26  2  0
 26 27  1  0
 27 28  2  0
 28 29  1  0
 26 30  1  0
 25 31  1  0
 24 32  1  0
  2 33  1  0
  1 34  1  0
  1 35  1  0
  1 36  1  0
 16  7  1  0
 28 23  1  0
 16 10  1  0
M  END
>  <plip>  (1) 
-0.13793103448275862

>  <filename>  (1) 
[H][c]1[n][c]([H])[c]([C]([H])([O][C](=[O])[C]([H])([H])[c]2[c]([H])[s][c]3[c]([H])[c]([H])[c]([Br])[c]([H])[c]23)[C]([H])([H])[H])[c]([H])[c]1[H]

$$$$
