
     RDKit          3D

 31 33  0  0  0  0  0  0  0  0999 V2000
    8.9286   -0.7810   20.7735 O   0  0  0  0  0  0  0  0  0  0  0  0
    7.5303   -0.8084   21.1555 S   0  0  0  0  0  0  0  0  0  0  0  0
    6.8451   -2.0264   21.5253 O   0  0  0  0  0  0  0  0  0  0  0  0
    7.2471    0.0969   22.4919 N   0  0  0  0  0  0  0  0  0  0  0  0
    7.6959    1.4081   22.7107 C   0  0  0  0  0  0  0  0  0  0  0  0
    8.4374    2.1285   21.8078 C   0  0  0  0  0  0  0  0  0  0  0  0
    8.5978    3.3580   22.3523 N   0  0  0  0  0  0  0  0  0  0  0  0
    8.0193    3.4972   23.5471 N   0  0  0  0  0  0  0  0  0  0  0  0
    7.4487    2.3110   23.7927 C   0  0  0  0  0  0  0  0  0  0  0  0
    6.6747    2.0460   25.0196 C   0  0  0  0  0  0  0  0  0  0  0  0
    6.7094    2.9645   26.1085 C   0  0  0  0  0  0  0  0  0  0  0  0
    5.9945    2.7747   27.2307 N   0  0  0  0  0  0  0  0  0  0  0  0
    5.2294    1.6684   27.2742 C   0  0  0  0  0  0  0  0  0  0  0  0
    5.1841    0.7552   26.2068 C   0  0  0  0  0  0  0  0  0  0  0  0
    5.9108    0.9213   25.0870 N   0  0  0  0  0  0  0  0  0  0  0  0
    4.5493   -0.1246   26.2520 H   0  0  0  0  0  0  0  0  0  0  0  0
    4.6427    1.5087   28.1773 H   0  0  0  0  0  0  0  0  0  0  0  0
    7.3222    3.8645   26.0823 H   0  0  0  0  0  0  0  0  0  0  0  0
    9.0749    4.1524   21.9456 H   0  0  0  0  0  0  0  0  0  0  0  0
    8.8557    1.8282   20.8617 H   0  0  0  0  0  0  0  0  0  0  0  0
    6.9466   -0.5763   23.1799 H   0  0  0  0  0  0  0  0  0  0  0  0
    6.6386    0.0455   19.9544 C   0  0  0  0  0  0  0  0  0  0  0  0
    5.4178    0.6713   20.2184 C   0  0  0  0  0  0  0  0  0  0  0  0
    4.8168    1.3014   19.1384 C   0  0  0  0  0  0  0  0  0  0  0  0
    5.4408    1.2594   17.8876 C   0  0  0  0  0  0  0  0  0  0  0  0
    6.6042    0.6346   17.6584 N   0  0  0  0  0  0  0  0  0  0  0  0
    7.2007    0.0352   18.6854 C   0  0  0  0  0  0  0  0  0  0  0  0
    8.1450   -0.4589   18.4558 H   0  0  0  0  0  0  0  0  0  0  0  0
    4.9855    1.7453   17.0301 H   0  0  0  0  0  0  0  0  0  0  0  0
    3.8806    1.8315   19.2538 H   0  0  0  0  0  0  0  0  0  0  0  0
    4.9428    0.6797   21.2062 H   0  0  0  0  0  0  0  0  0  0  0  0
  1  2  2  0
  2  3  2  0
  2  4  1  0
  4  5  1  0
  5  6  2  0
  6  7  1  0
  7  8  1  0
  8  9  2  0
  9 10  1  0
 10 11  2  0
 11 12  1  0
 12 13  2  0
 13 14  1  0
 14 15  2  0
 14 16  1  0
 13 17  1  0
 11 18  1  0
  7 19  1  0
  6 20  1  0
  4 21  1  0
  2 22  1  0
 22 23  2  0
 23 24  1  0
 24 25  2  0
 25 26  1  0
 26 27  2  0
 27 28  1  0
 25 29  1  0
 24 30  1  0
 23 31  1  0
  9  5  1  0
 15 10  1  0
 27 22  1  0
M  END
>  <plip>  (1) 
-0.14285714285714285

>  <filename>  (1) 
[H][c]1[n][c]([H])[c](-[c]2[n][n]([H])[c]([H])[c]2[N]([H])[S](=[O])(=[O])[c]2[c]([H])[n][c]([H])[c]([H])[c]2[H])[n][c]1[H]

$$$$
