
     RDKit          3D

 39 40  0  0  0  0  0  0  0  0999 V2000
    4.9243    1.7854   16.9876 H   0  0  0  0  0  0  0  0  0  0  0  0
    5.4004    1.2948   17.8327 C   0  0  0  0  0  0  0  0  0  0  0  0
    6.5615    0.6757   17.5751 N   0  0  0  0  0  0  0  0  0  0  0  0
    7.1597    0.0468   18.5971 C   0  0  0  0  0  0  0  0  0  0  0  0
    8.1127   -0.4290   18.3611 H   0  0  0  0  0  0  0  0  0  0  0  0
    6.6413   -0.0006   19.9014 C   0  0  0  0  0  0  0  0  0  0  0  0
    7.3998   -0.6852   21.0128 C   0  0  1  0  0  0  0  0  0  0  0  0
    6.7709   -0.6511   21.9160 H   0  0  0  0  0  0  0  0  0  0  0  0
    7.6383   -2.0959   20.6804 N   0  0  0  0  0  0  0  0  0  0  0  0
    7.0824   -2.3023   19.8517 H   0  0  0  0  0  0  0  0  0  0  0  0
    7.2640   -3.0015   21.7327 N   0  0  0  0  0  0  0  0  0  0  0  0
    7.0571   -4.3779   21.2593 C   0  0  0  0  0  0  0  0  0  0  0  0
    5.9889   -4.5532   21.0695 H   0  0  0  0  0  0  0  0  0  0  0  0
    7.5851   -4.5628   20.3165 H   0  0  0  0  0  0  0  0  0  0  0  0
    7.6430   -5.2914   22.3522 C   0  0  0  0  0  0  0  0  0  0  0  0
    6.9009   -6.0049   22.7209 H   0  0  0  0  0  0  0  0  0  0  0  0
    8.4841   -5.8639   21.9483 H   0  0  0  0  0  0  0  0  0  0  0  0
    8.1482   -4.3551   23.4708 C   0  0  1  0  0  0  0  0  0  0  0  0
    7.3415   -4.2330   24.2198 H   0  0  0  0  0  0  0  0  0  0  0  0
    9.3765   -4.8221   24.1234 N   0  0  0  0  0  0  0  0  0  0  0  0
    9.1641   -6.1036   24.7777 C   0  0  0  0  0  0  0  0  0  0  0  0
   10.0919   -6.4541   25.2431 H   0  0  0  0  0  0  0  0  0  0  0  0
    8.3804   -6.0695   25.5622 H   0  0  0  0  0  0  0  0  0  0  0  0
    8.8724   -6.8280   24.0189 H   0  0  0  0  0  0  0  0  0  0  0  0
    9.8946   -3.8512   25.0791 C   0  0  0  0  0  0  0  0  0  0  0  0
    9.1494   -3.5789   25.8521 H   0  0  0  0  0  0  0  0  0  0  0  0
   10.2126   -2.9385   24.5679 H   0  0  0  0  0  0  0  0  0  0  0  0
   10.7716   -4.2660   25.5856 H   0  0  0  0  0  0  0  0  0  0  0  0
    8.3140   -3.0217   22.7522 C   0  0  0  0  0  0  0  0  0  0  0  0
    8.2052   -2.1748   23.4423 H   0  0  0  0  0  0  0  0  0  0  0  0
    9.3167   -2.9613   22.3001 H   0  0  0  0  0  0  0  0  0  0  0  0
    8.7277    0.0243   21.3006 C   0  0  0  0  0  0  0  0  0  0  0  0
    8.5517    1.0901   21.4789 H   0  0  0  0  0  0  0  0  0  0  0  0
    9.4124   -0.0735   20.4498 H   0  0  0  0  0  0  0  0  0  0  0  0
    9.2210   -0.4014   22.1823 H   0  0  0  0  0  0  0  0  0  0  0  0
    5.4320    0.6588   20.1510 C   0  0  0  0  0  0  0  0  0  0  0  0
    5.0039    0.6409   21.1586 H   0  0  0  0  0  0  0  0  0  0  0  0
    4.7993    1.3175   19.0967 C   0  0  0  0  0  0  0  0  0  0  0  0
    3.8685    1.8486   19.2487 H   0  0  0  0  0  0  0  0  0  0  0  0
  1  2  1  0
  2  3  2  0
  3  4  1  0
  4  5  1  0
  4  6  2  0
  6  7  1  0
  7  8  1  1
  7  9  1  0
  9 10  1  0
  9 11  1  0
 11 12  1  0
 12 13  1  0
 12 14  1  0
 12 15  1  0
 15 16  1  0
 15 17  1  0
 15 18  1  0
 18 19  1  1
 18 20  1  0
 20 21  1  0
 21 22  1  0
 21 23  1  0
 21 24  1  0
 20 25  1  0
 25 26  1  0
 25 27  1  0
 25 28  1  0
 18 29  1  0
 29 30  1  0
 29 31  1  0
  7 32  1  0
 32 33  1  0
 32 34  1  0
 32 35  1  0
  6 36  1  0
 36 37  1  0
 36 38  2  0
 38 39  1  0
 38  2  1  0
 29 11  1  0
M  END
>  <plip>  (1) 
-0.034482758620689655

>  <filename>  (1) 
[H][c]1[n][c]([H])[c]([C@@]([H])([N]([H])[N]2[C]([H])([H])[C]([H])([H])[C@@]([H])([N]([C]([H])([H])[H])[C]([H])([H])[H])[C]2([H])[H])[C]([H])([H])[H])[c]([H])[c]1[H]

$$$$
