
     RDKit          3D

 44 47  0  0  0  0  0  0  0  0999 V2000
   10.9708    2.5460   21.2813 C   0  0  0  0  0  0  0  0  0  0  0  0
    9.8122    1.6790   21.6251 N   0  0  0  0  0  4  0  0  0  0  0  0
    9.7554    0.3850   20.8144 C   0  0  0  0  0  0  0  0  0  0  0  0
    8.7368   -0.5369   21.4046 C   0  0  0  0  0  0  0  0  0  0  0  0
    8.8735   -1.3712   22.4956 C   0  0  0  0  0  0  0  0  0  0  0  0
    7.6470   -1.9057   22.7124 N   0  0  0  0  0  0  0  0  0  0  0  0
    6.7177   -1.4634   21.8565 N   0  0  0  0  0  0  0  0  0  0  0  0
    7.3599   -0.6280   21.0446 C   0  0  0  0  0  0  0  0  0  0  0  0
    6.6419    0.0538   19.9480 C   0  0  0  0  0  0  0  0  0  0  0  0
    5.3975    0.6719   20.1490 C   0  0  0  0  0  0  0  0  0  0  0  0
    4.7892    1.3180   19.0735 C   0  0  0  0  0  0  0  0  0  0  0  0
    5.4241    1.2961   17.8291 C   0  0  0  0  0  0  0  0  0  0  0  0
    6.5808    0.6553   17.6030 N   0  0  0  0  0  0  0  0  0  0  0  0
    7.1644    0.0519   18.6462 C   0  0  0  0  0  0  0  0  0  0  0  0
    8.0889   -0.4825   18.4238 H   0  0  0  0  0  0  0  0  0  0  0  0
    4.9803    1.8144   16.9816 H   0  0  0  0  0  0  0  0  0  0  0  0
    3.8480    1.8457   19.1899 H   0  0  0  0  0  0  0  0  0  0  0  0
    4.9121    0.6346   21.1260 H   0  0  0  0  0  0  0  0  0  0  0  0
    7.3715   -2.5788   23.4109 H   0  0  0  0  0  0  0  0  0  0  0  0
    9.7161   -1.6131   23.1398 H   0  0  0  0  0  0  0  0  0  0  0  0
   10.7536   -0.0668   20.7990 H   0  0  0  0  0  0  0  0  0  0  0  0
    9.5090    0.6449   19.7849 H   0  0  0  0  0  0  0  0  0  0  0  0
    8.5016    2.4490   21.5791 C   0  0  1  0  0  0  0  0  0  0  0  0
    7.5301    2.1388   22.6700 C   0  0  0  0  0  0  0  0  0  0  0  0
    8.2555    3.4750   22.6530 C   0  0  2  0  0  0  0  0  0  0  0  0
    7.5716    4.7912   22.3887 C   0  0  0  0  0  0  0  0  0  0  0  0
    6.4741    4.9400   21.5200 C   0  0  0  0  0  0  0  0  0  0  0  0
    5.8630    6.1844   21.3341 C   0  0  0  0  0  0  0  0  0  0  0  0
    6.3664    7.3312   21.9535 C   0  0  0  0  0  0  0  0  0  0  0  0
    7.4487    7.2020   22.8313 C   0  0  0  0  0  0  0  0  0  0  0  0
    8.0288    5.9465   23.0523 C   0  0  0  0  0  0  0  0  0  0  0  0
    8.8552    5.8786   23.7574 H   0  0  0  0  0  0  0  0  0  0  0  0
    7.8221    8.0806   23.3542 H   0  0  0  0  0  0  0  0  0  0  0  0
    5.9253    8.3087   21.7598 H   0  0  0  0  0  0  0  0  0  0  0  0
    4.9695    6.2446   20.7211 H   0  0  0  0  0  0  0  0  0  0  0  0
    6.0941    4.0840   20.9659 H   0  0  0  0  0  0  0  0  0  0  0  0
    9.0800    3.5614   23.3677 H   0  0  0  0  0  0  0  0  0  0  0  0
    6.4698    2.1114   22.4411 H   0  0  0  0  0  0  0  0  0  0  0  0
    7.8686    1.3621   23.3503 H   0  0  0  0  0  0  0  0  0  0  0  0
    8.1299    2.6260   20.5747 H   0  0  0  0  0  0  0  0  0  0  0  0
    9.8855    1.3067   22.6004 H   0  0  0  0  0  0  0  0  0  0  0  0
   10.8956    2.9077   20.2473 H   0  0  0  0  0  0  0  0  0  0  0  0
   11.0085    3.4247   21.9313 H   0  0  0  0  0  0  0  0  0  0  0  0
   11.9249    2.0160   21.3760 H   0  0  0  0  0  0  0  0  0  0  0  0
  1  2  1  0
  2  3  1  0
  3  4  1  0
  4  5  2  0
  5  6  1  0
  6  7  1  0
  7  8  2  0
  8  9  1  0
  9 10  2  0
 10 11  1  0
 11 12  2  0
 12 13  1  0
 13 14  2  0
 14 15  1  0
 12 16  1  0
 11 17  1  0
 10 18  1  0
  6 19  1  0
  5 20  1  0
  3 21  1  0
  3 22  1  0
  2 23  1  0
 23 24  1  0
 24 25  1  0
 25 26  1  0
 26 27  2  0
 27 28  1  0
 28 29  2  0
 29 30  1  0
 30 31  2  0
 31 32  1  0
 30 33  1  0
 29 34  1  0
 28 35  1  0
 27 36  1  0
 25 37  1  1
 24 38  1  0
 24 39  1  0
 23 40  1  6
  2 41  1  0
  1 42  1  0
  1 43  1  0
  1 44  1  0
  8  4  1  0
 14  9  1  0
 25 23  1  0
 31 26  1  0
M  CHG  1   2   1
M  END
>  <plip>  (1) 
-0.06896551724137931

>  <filename>  (1) 
[H][c]1[n][c]([H])[c](-[c]2[n][n]([H])[c]([H])[c]2[C]([H])([H])[N+]([H])([C]([H])([H])[H])[C@@]2([H])[C]([H])([H])[C@]2([H])[c]2[c]([H])[c]([H])[c]([H])[c]([H])[c]2[H])[c]([H])[c]1[H]

$$$$
