
     RDKit          3D

 18 18  0  0  0  0  0  0  0  0999 V2000
   10.8666   -1.5734   20.1938 H   0  0  0  0  0  0  0  0  0  0  0  0
   10.2206   -1.2615   20.8537 O   0  0  0  0  0  0  0  0  0  0  0  0
   10.5230    0.1045   21.0012 N   0  0  0  0  0  0  0  0  0  0  0  0
    9.5971    0.8351   21.4913 C   0  0  0  0  0  0  0  0  0  0  0  0
    9.8961    1.8716   21.6694 H   0  0  0  0  0  0  0  0  0  0  0  0
    8.2895    0.5570   21.8468 N   0  0  0  0  0  0  0  0  0  0  0  0
    7.7818    1.3401   22.2225 H   0  0  0  0  0  0  0  0  0  0  0  0
    7.3549   -0.7463   21.3048 S   0  0  0  0  0  0  0  0  0  0  0  0
    6.5112    0.0346   19.9500 C   0  0  0  0  0  0  0  0  0  0  0  0
    7.1120    0.0473   18.6876 C   0  0  0  0  0  0  0  0  0  0  0  0
    8.0561   -0.4707   18.5319 H   0  0  0  0  0  0  0  0  0  0  0  0
    6.5767    0.6547   17.6210 N   0  0  0  0  0  0  0  0  0  0  0  0
    5.4120    1.2982   17.7937 C   0  0  0  0  0  0  0  0  0  0  0  0
    5.0077    1.8093   16.9203 H   0  0  0  0  0  0  0  0  0  0  0  0
    4.7246    1.3305   19.0127 C   0  0  0  0  0  0  0  0  0  0  0  0
    3.7950    1.8836   19.0920 H   0  0  0  0  0  0  0  0  0  0  0  0
    5.2768    0.6802   20.1181 C   0  0  0  0  0  0  0  0  0  0  0  0
    4.7674    0.6880   21.0824 H   0  0  0  0  0  0  0  0  0  0  0  0
  1  2  1  0
  2  3  1  0
  3  4  2  3
  4  5  1  0
  4  6  1  0
  6  7  1  0
  6  8  1  0
  8  9  1  0
  9 10  2  0
 10 11  1  0
 10 12  1  0
 12 13  2  0
 13 14  1  0
 13 15  1  0
 15 16  1  0
 15 17  2  0
 17 18  1  0
 17  9  1  0
M  END
>  <plip>  (1) 
-0.034482758620689655

>  <filename>  (1) 
[H][O][N]=[C]([H])[N]([H])[S][c]1[c]([H])[n][c]([H])[c]([H])[c]1[H]

$$$$
