
     RDKit          3D

 31 33  0  0  0  0  0  0  0  0999 V2000
    4.7983    4.8751   23.1442 F   0  0  0  0  0  0  0  0  0  0  0  0
    5.7871    3.9782   22.8980 C   0  0  0  0  0  0  0  0  0  0  0  0
    6.9094    4.3561   22.1567 C   0  0  0  0  0  0  0  0  0  0  0  0
    7.9049    3.4160   21.8636 C   0  0  0  0  0  0  0  0  0  0  0  0
    7.8089    2.0932   22.3102 C   0  0  0  0  0  0  0  0  0  0  0  0
    8.8736    1.1492   21.9194 C   0  0  0  0  0  0  0  0  0  0  0  0
   10.1649    1.4117   21.9670 N   0  0  0  0  0  0  0  0  0  0  0  0
   10.8152    0.2950   21.4681 C   0  0  0  0  0  0  0  0  0  0  0  0
    9.9029   -0.6520   21.1032 C   0  0  0  0  0  0  0  0  0  0  0  0
    8.6602   -0.1092   21.3718 N   0  0  0  0  0  0  0  0  0  0  0  0
    7.3561   -0.7081   21.0595 C   0  0  0  0  0  0  0  0  0  0  0  0
    6.6723    0.0219   19.9284 C   0  0  0  0  0  0  0  0  0  0  0  0
    5.4608    0.6757   20.1566 C   0  0  0  0  0  0  0  0  0  0  0  0
    4.8592    1.3202   19.0765 C   0  0  0  0  0  0  0  0  0  0  0  0
    5.4703    1.3006   17.8171 C   0  0  0  0  0  0  0  0  0  0  0  0
    6.6325    0.6665   17.5935 N   0  0  0  0  0  0  0  0  0  0  0  0
    7.2170    0.0413   18.6311 C   0  0  0  0  0  0  0  0  0  0  0  0
    8.1442   -0.4833   18.4362 H   0  0  0  0  0  0  0  0  0  0  0  0
    4.9871    1.8095   16.9872 H   0  0  0  0  0  0  0  0  0  0  0  0
    3.9202    1.8437   19.2013 H   0  0  0  0  0  0  0  0  0  0  0  0
    4.9945    0.6805   21.1437 H   0  0  0  0  0  0  0  0  0  0  0  0
    6.7253   -0.6802   21.9537 H   0  0  0  0  0  0  0  0  0  0  0  0
    7.4917   -1.7606   20.7940 H   0  0  0  0  0  0  0  0  0  0  0  0
   10.1237   -1.6155   20.6609 H   0  0  0  0  0  0  0  0  0  0  0  0
   11.8931    0.2134   21.3479 H   0  0  0  0  0  0  0  0  0  0  0  0
    6.6954    1.7243   23.0963 C   0  0  0  0  0  0  0  0  0  0  0  0
    5.6941    2.6681   23.3880 C   0  0  0  0  0  0  0  0  0  0  0  0
    4.2231    2.2006   24.5206 Br  0  0  0  0  0  0  0  0  0  0  0  0
    6.6027    0.7267   23.5254 H   0  0  0  0  0  0  0  0  0  0  0  0
    8.7584    3.6795   21.2525 H   0  0  0  0  0  0  0  0  0  0  0  0
    6.9887    5.3818   21.8036 H   0  0  0  0  0  0  0  0  0  0  0  0
  1  2  1  0
  2  3  2  0
  3  4  1  0
  4  5  2  0
  5  6  1  0
  6  7  2  0
  7  8  1  0
  8  9  2  0
  9 10  1  0
 10 11  1  0
 11 12  1  0
 12 13  2  0
 13 14  1  0
 14 15  2  0
 15 16  1  0
 16 17  2  0
 17 18  1  0
 15 19  1  0
 14 20  1  0
 13 21  1  0
 11 22  1  0
 11 23  1  0
  9 24  1  0
  8 25  1  0
  5 26  1  0
 26 27  2  0
 27 28  1  0
 26 29  1  0
  4 30  1  0
  3 31  1  0
 27  2  1  0
 10  6  1  0
 17 12  1  0
M  END
>  <plip>  (1) 
-0.07142857142857142

>  <filename>  (1) 
[H][c]1[n][c]([H])[c]([C]([H])([H])[n]2[c](-[c]3[c]([H])[c]([H])[c]([F])[c]([Br])[c]3[H])[n][c]([H])[c]2[H])[c]([H])[c]1[H]

$$$$
