
     RDKit          3D

 25 26  0  0  0  0  0  0  0  0999 V2000
   10.8466   -2.8281   25.3079 H   0  0  0  0  0  0  0  0  0  0  0  0
    9.8968   -3.1675   25.0708 N   0  0  0  0  0  0  0  0  0  0  0  0
    9.4123   -2.5880   24.1352 N   0  0  0  0  0  4  0  0  0  0  0  0
    8.7308   -2.1635   23.2363 N   0  0  0  0  0  0  0  0  0  0  0  0
    9.3218   -1.1065   22.4703 C   0  0  0  0  0  0  0  0  0  0  0  0
   10.4880   -0.6174   22.7007 N   0  0  0  0  0  0  0  0  0  0  0  0
   10.7405    0.4417   21.7436 C   0  0  0  0  0  0  0  0  0  0  0  0
   11.6662    0.2185   21.2012 H   0  0  0  0  0  0  0  0  0  0  0  0
   10.9121    1.3819   22.2843 H   0  0  0  0  0  0  0  0  0  0  0  0
    9.5145    0.5494   20.8013 C   0  0  0  0  0  0  0  0  0  0  0  0
    9.0649    1.5506   20.7923 H   0  0  0  0  0  0  0  0  0  0  0  0
    9.7180    0.3139   19.7551 H   0  0  0  0  0  0  0  0  0  0  0  0
    8.5893   -0.5078   21.3764 C   0  0  0  0  0  0  0  0  0  0  0  0
    7.3220   -0.7221   21.0052 C   0  0  0  0  0  0  0  0  0  0  0  0
    6.6933   -1.4169   21.5777 H   0  0  0  0  0  0  0  0  0  0  0  0
    6.6534   -0.0072   19.9048 C   0  0  0  0  0  0  0  0  0  0  0  0
    7.1709    0.0665   18.5946 C   0  0  0  0  0  0  0  0  0  0  0  0
    8.1113   -0.4322   18.3710 H   0  0  0  0  0  0  0  0  0  0  0  0
    6.5642    0.6846   17.5746 N   0  0  0  0  0  0  0  0  0  0  0  0
    5.3994    1.2983   17.8373 C   0  0  0  0  0  0  0  0  0  0  0  0
    4.9140    1.7838   16.9944 H   0  0  0  0  0  0  0  0  0  0  0  0
    4.8014    1.3142   19.1032 C   0  0  0  0  0  0  0  0  0  0  0  0
    3.8712    1.8481   19.2556 H   0  0  0  0  0  0  0  0  0  0  0  0
    5.4277    0.6401   20.1488 C   0  0  0  0  0  0  0  0  0  0  0  0
    5.0070    0.6254   21.1583 H   0  0  0  0  0  0  0  0  0  0  0  0
  1  2  1  0
  2  3  2  0
  3  4  2  0
  4  5  1  0
  5  6  2  0
  6  7  1  0
  7  8  1  0
  7  9  1  0
  7 10  1  0
 10 11  1  0
 10 12  1  0
 10 13  1  0
 13 14  2  3
 14 15  1  0
 14 16  1  0
 16 17  2  0
 17 18  1  0
 17 19  1  0
 19 20  2  0
 20 21  1  0
 20 22  1  0
 22 23  1  0
 22 24  2  0
 24 25  1  0
 13  5  1  0
 24 16  1  0
M  CHG  1   3   1
M  END
>  <plip>  (1) 
-0.03571428571428571

>  <filename>  (1) 
[H][N]=[N+]=[N][C]1=[N][C]([H])([H])[C]([H])([H])[C]1=[C]([H])[c]1[c]([H])[n][c]([H])[c]([H])[c]1[H]

$$$$
