
     RDKit          3D

 23 23  0  0  0  0  0  0  0  0999 V2000
    5.6763   -7.5006   21.3052 H   0  0  0  0  0  0  0  0  0  0  0  0
    5.9147   -7.2319   22.2135 O   0  0  0  0  0  0  0  0  0  0  0  0
    6.4736   -5.9568   22.1342 N   0  0  0  0  0  0  0  0  0  0  0  0
    7.1588   -5.8898   22.8751 H   0  0  0  0  0  0  0  0  0  0  0  0
    5.6461   -4.8244   22.1546 C   0  0  0  0  0  0  0  0  0  0  0  0
    4.4857   -4.8038   21.8098 O   0  0  0  0  0  0  0  0  0  0  0  0
    6.4456   -3.6342   22.4964 C   0  0  0  0  0  0  0  0  0  0  0  0
    7.4499   -3.8058   22.8731 H   0  0  0  0  0  0  0  0  0  0  0  0
    5.9578   -2.4176   22.2576 C   0  0  0  0  0  0  0  0  0  0  0  0
    4.9606   -2.3347   21.8223 H   0  0  0  0  0  0  0  0  0  0  0  0
    6.8480   -0.9256   22.5652 S   0  0  0  0  0  0  0  0  0  0  0  0
    7.5184   -0.6671   20.8894 C   0  0  0  0  0  0  0  0  0  0  0  0
    8.5979   -1.1237   20.6062 O   0  0  0  0  0  0  0  0  0  0  0  0
    6.6679    0.0379   19.8913 C   0  0  0  0  0  0  0  0  0  0  0  0
    7.1871    0.0668   18.5874 C   0  0  0  0  0  0  0  0  0  0  0  0
    8.1334   -0.4275   18.3747 H   0  0  0  0  0  0  0  0  0  0  0  0
    6.5774    0.6683   17.5674 N   0  0  0  0  0  0  0  0  0  0  0  0
    5.4158    1.2876   17.8258 C   0  0  0  0  0  0  0  0  0  0  0  0
    4.9471    1.7951   16.9878 H   0  0  0  0  0  0  0  0  0  0  0  0
    4.8060    1.3092   19.0854 C   0  0  0  0  0  0  0  0  0  0  0  0
    3.8643    1.8306   19.2311 H   0  0  0  0  0  0  0  0  0  0  0  0
    5.4397    0.6655   20.1457 C   0  0  0  0  0  0  0  0  0  0  0  0
    4.9845    0.6491   21.1390 H   0  0  0  0  0  0  0  0  0  0  0  0
  1  2  1  0
  2  3  1  0
  3  4  1  0
  3  5  1  0
  5  6  2  0
  5  7  1  0
  7  8  1  0
  7  9  2  3
  9 10  1  0
  9 11  1  0
 11 12  1  0
 12 13  2  0
 12 14  1  0
 14 15  2  0
 15 16  1  0
 15 17  1  0
 17 18  2  0
 18 19  1  0
 18 20  1  0
 20 21  1  0
 20 22  2  0
 22 23  1  0
 22 14  1  0
M  END
>  <plip>  (1) 
-0.06896551724137931

>  <filename>  (1) 
[H][O][N]([H])[C](=[O])[C]([H])=[C]([H])[S][C](=[O])[c]1[c]([H])[n][c]([H])[c]([H])[c]1[H]

$$$$
