
     RDKit          3D

 43 45  0  0  0  0  0  0  0  0999 V2000
    5.5356   -5.7911   19.9930 C   0  0  0  0  0  0  0  0  0  0  0  0
    4.9916   -5.1767   21.2427 C   0  0  0  0  0  0  0  0  0  0  0  0
    4.0379   -5.6925   22.1212 C   0  0  0  0  0  0  0  0  0  0  0  0
    3.1837   -6.8373   22.1597 C   0  0  0  0  0  0  0  0  0  0  0  0
    2.3288   -7.0058   23.2257 C   0  0  0  0  0  0  0  0  0  0  0  0
    2.2469   -6.0155   24.2523 C   0  0  0  0  0  0  0  0  0  0  0  0
    3.0061   -4.8786   24.1666 C   0  0  0  0  0  0  0  0  0  0  0  0
    3.8804   -4.7298   23.1151 N   0  0  0  0  0  0  0  0  0  0  0  0
    4.6060   -3.6301   22.8965 N   0  0  0  0  0  0  0  0  0  0  0  0
    5.2460   -3.8667   21.7347 C   0  0  0  0  0  0  0  0  0  0  0  0
    6.0216   -2.8048   20.9668 C   0  0  0  0  0  0  0  0  0  0  0  0
    6.2217   -2.9158   19.7608 O   0  0  0  0  0  0  0  0  0  0  0  0
    6.4953   -1.7313   21.6679 N   0  0  0  0  0  0  0  0  0  0  0  0
    7.3504   -0.7269   21.0363 C   0  0  0  0  0  0  0  0  0  0  0  0
    6.5971   -0.0110   19.9212 C   0  0  0  0  0  0  0  0  0  0  0  0
    5.3855    0.6583   20.1358 C   0  0  0  0  0  0  0  0  0  0  0  0
    4.7858    1.3222   19.0617 C   0  0  0  0  0  0  0  0  0  0  0  0
    5.4170    1.2956   17.8124 C   0  0  0  0  0  0  0  0  0  0  0  0
    6.5678    0.6490   17.5784 N   0  0  0  0  0  0  0  0  0  0  0  0
    7.1256    0.0159   18.6233 C   0  0  0  0  0  0  0  0  0  0  0  0
    8.0634   -0.5031   18.4175 H   0  0  0  0  0  0  0  0  0  0  0  0
    4.9812    1.8213   16.9638 H   0  0  0  0  0  0  0  0  0  0  0  0
    3.8604    1.8722   19.1852 H   0  0  0  0  0  0  0  0  0  0  0  0
    4.9163    0.6649   21.1242 H   0  0  0  0  0  0  0  0  0  0  0  0
    7.9552    0.2460   22.0889 C   0  0  0  0  0  0  0  0  0  0  0  0
    8.8347    1.3236   21.4294 C   0  0  0  0  0  0  0  0  0  0  0  0
    9.2272    2.0118   22.1870 H   0  0  0  0  0  0  0  0  0  0  0  0
    8.2738    1.9142   20.6949 H   0  0  0  0  0  0  0  0  0  0  0  0
    9.6954    0.8699   20.9172 H   0  0  0  0  0  0  0  0  0  0  0  0
    8.7491   -0.4828   23.1866 C   0  0  0  0  0  0  0  0  0  0  0  0
    8.1330   -1.2115   23.7248 H   0  0  0  0  0  0  0  0  0  0  0  0
    9.1310    0.2376   23.9200 H   0  0  0  0  0  0  0  0  0  0  0  0
    9.6145   -1.0147   22.7695 H   0  0  0  0  0  0  0  0  0  0  0  0
    7.1050    0.7524   22.5740 H   0  0  0  0  0  0  0  0  0  0  0  0
    8.1844   -1.2706   20.5643 H   0  0  0  0  0  0  0  0  0  0  0  0
    6.0013   -1.4986   22.5197 H   0  0  0  0  0  0  0  0  0  0  0  0
    2.9817   -4.0310   24.8354 H   0  0  0  0  0  0  0  0  0  0  0  0
    1.5690   -6.1468   25.0868 H   0  0  0  0  0  0  0  0  0  0  0  0
    1.7004   -7.8905   23.2978 H   0  0  0  0  0  0  0  0  0  0  0  0
    3.1812   -7.5440   21.3413 H   0  0  0  0  0  0  0  0  0  0  0  0
    6.6276   -5.8352   20.0227 H   0  0  0  0  0  0  0  0  0  0  0  0
    5.2881   -5.1589   19.1332 H   0  0  0  0  0  0  0  0  0  0  0  0
    5.1552   -6.8047   19.8264 H   0  0  0  0  0  0  0  0  0  0  0  0
  1  2  1  0
  2  3  2  0
  3  4  1  0
  4  5  2  0
  5  6  1  0
  6  7  2  0
  7  8  1  0
  8  9  1  0
  9 10  2  0
 10 11  1  0
 11 12  2  0
 11 13  1  0
 13 14  1  0
 14 15  1  0
 15 16  2  0
 16 17  1  0
 17 18  2  0
 18 19  1  0
 19 20  2  0
 20 21  1  0
 18 22  1  0
 17 23  1  0
 16 24  1  0
 14 25  1  0
 25 26  1  0
 26 27  1  0
 26 28  1  0
 26 29  1  0
 25 30  1  0
 30 31  1  0
 30 32  1  0
 30 33  1  0
 25 34  1  0
 14 35  1  0
 13 36  1  0
  7 37  1  0
  6 38  1  0
  5 39  1  0
  4 40  1  0
  1 41  1  0
  1 42  1  0
  1 43  1  0
 10  2  1  0
 20 15  1  0
  8  3  1  0
M  END
>  <plip>  (1) 
-0.1724137931034483

>  <filename>  (1) 
[H][c]1[n][c]([H])[c]([C]([H])([N]([H])[C](=[O])[c]2[n][n]3[c]([H])[c]([H])[c]([H])[c]([H])[c]3[c]2[C]([H])([H])[H])[C]([H])([C]([H])([H])[H])[C]([H])([H])[H])[c]([H])[c]1[H]

$$$$
