
     RDKit          3D

 38 40  0  0  0  0  0  0  0  0999 V2000
    9.4240   -1.0128   22.1290 C   0  0  0  0  0  0  0  0  0  0  0  0
    8.4500   -0.1341   21.4046 N   0  0  0  0  0  4  0  0  0  0  0  0
    7.2474   -0.8784   20.9359 C   0  0  0  0  0  0  0  0  0  0  0  0
    6.5759   -0.0908   19.8513 C   0  0  0  0  0  0  0  0  0  0  0  0
    5.3629    0.5828   20.0427 C   0  0  0  0  0  0  0  0  0  0  0  0
    4.8444    1.3298   18.9813 C   0  0  0  0  0  0  0  0  0  0  0  0
    5.5505    1.3671   17.7750 C   0  0  0  0  0  0  0  0  0  0  0  0
    6.7128    0.7251   17.5791 N   0  0  0  0  0  0  0  0  0  0  0  0
    7.2187    0.0434   18.6118 C   0  0  0  0  0  0  0  0  0  0  0  0
    8.1786   -0.4490   18.4374 H   0  0  0  0  0  0  0  0  0  0  0  0
    5.1704    1.9363   16.9278 H   0  0  0  0  0  0  0  0  0  0  0  0
    3.9255    1.8969   19.0806 H   0  0  0  0  0  0  0  0  0  0  0  0
    4.8438    0.5370   21.0053 H   0  0  0  0  0  0  0  0  0  0  0  0
    6.5703   -1.0330   21.7884 H   0  0  0  0  0  0  0  0  0  0  0  0
    7.5637   -1.8668   20.5833 H   0  0  0  0  0  0  0  0  0  0  0  0
    8.0847    1.0900   22.2700 C   0  0  0  0  0  0  0  0  0  0  0  0
    9.3127    1.9125   22.4479 C   0  0  0  0  0  0  0  0  0  0  0  0
    9.9347    2.2349   23.6253 C   0  0  0  0  0  0  0  0  0  0  0  0
   11.0470    2.9499   23.2609 N   0  0  0  0  0  0  0  0  0  0  0  0
   12.0376    3.4691   24.0458 C   0  0  0  0  0  0  0  0  0  0  0  0
   13.0269    4.2125   23.4814 C   0  0  0  0  0  0  0  0  0  0  0  0
   13.0321    4.4128   22.0509 C   0  0  0  0  0  0  0  0  0  0  0  0
   14.1346    5.4534   21.5220 C   0  0  0  0  0  0  0  0  0  0  0  0
   14.8849    5.0554   20.6147 O   0  0  0  0  0  0  0  0  0  0  0  0
   14.1424    6.5516   22.1157 O   0  0  0  0  0  1  0  0  0  0  0  0
   12.1109    3.7781   21.2509 C   0  0  0  0  0  0  0  0  0  0  0  0
   11.0427    3.0394   21.8713 C   0  0  0  0  0  0  0  0  0  0  0  0
    9.9993    2.3914   21.3659 N   0  0  0  0  0  0  0  0  0  0  0  0
   12.0984    3.7939   20.1638 H   0  0  0  0  0  0  0  0  0  0  0  0
   13.8234    4.6021   24.1034 H   0  0  0  0  0  0  0  0  0  0  0  0
   11.9762    3.1728   25.0771 H   0  0  0  0  0  0  0  0  0  0  0  0
    9.7580    1.9728   24.6547 H   0  0  0  0  0  0  0  0  0  0  0  0
    7.3149    1.6657   21.7489 H   0  0  0  0  0  0  0  0  0  0  0  0
    7.6733    0.7615   23.2299 H   0  0  0  0  0  0  0  0  0  0  0  0
    8.9373    0.3566   20.6075 H   0  0  0  0  0  0  0  0  0  0  0  0
   10.3326   -0.4509   22.3632 H   0  0  0  0  0  0  0  0  0  0  0  0
    9.6888   -1.8781   21.5109 H   0  0  0  0  0  0  0  0  0  0  0  0
    8.9918   -1.3760   23.0735 H   0  0  0  0  0  0  0  0  0  0  0  0
  1  2  1  0
  2  3  1  0
  3  4  1  0
  4  5  2  0
  5  6  1  0
  6  7  2  0
  7  8  1  0
  8  9  2  0
  9 10  1  0
  7 11  1  0
  6 12  1  0
  5 13  1  0
  3 14  1  0
  3 15  1  0
  2 16  1  0
 16 17  1  0
 17 18  2  0
 18 19  1  0
 19 20  1  0
 20 21  2  0
 21 22  1  0
 22 23  1  0
 23 24  2  0
 23 25  1  0
 22 26  2  0
 26 27  1  0
 27 28  2  0
 26 29  1  0
 21 30  1  0
 20 31  1  0
 18 32  1  0
 16 33  1  0
 16 34  1  0
  2 35  1  0
  1 36  1  0
  1 37  1  0
  1 38  1  0
  9  4  1  0
 28 17  1  0
 27 19  1  0
M  CHG  2   2   1  25  -1
M  END
>  <plip>  (1) 
-0.1

>  <filename>  (1) 
[H][c]1[n][c]([H])[c]([C]([H])([H])[N+]([H])([C]([H])([H])[H])[C]([H])([H])[c]2[n][c]3[c]([H])[c]([C](=[O])[O-])[c]([H])[c]([H])[n]3[c]2[H])[c]([H])[c]1[H]

$$$$
