
     RDKit          3D

 26 28  0  0  0  0  0  0  0  0999 V2000
    5.0638    1.8175   16.7852 H   0  0  0  0  0  0  0  0  0  0  0  0
    5.4496    1.3433   17.6837 C   0  0  0  0  0  0  0  0  0  0  0  0
    6.6081    0.6821   17.5394 N   0  0  0  0  0  0  0  0  0  0  0  0
    7.1106    0.0720   18.6167 C   0  0  0  0  0  0  0  0  0  0  0  0
    8.0483   -0.4596   18.4652 H   0  0  0  0  0  0  0  0  0  0  0  0
    6.4854    0.1026   19.8708 C   0  0  0  0  0  0  0  0  0  0  0  0
    7.0684   -0.5901   21.0108 C   0  0  0  0  0  0  0  0  0  0  0  0
    6.6594   -0.5805   22.2388 N   0  0  0  0  0  0  0  0  0  0  0  0
    7.5373   -1.3802   22.9523 N   0  0  0  0  0  0  0  0  0  0  0  0
    8.3935   -1.8314   22.1034 C   0  0  0  0  0  0  0  0  0  0  0  0
    9.6239   -2.6584   22.3402 C   0  0  2  0  0  0  0  0  0  0  0  0
   10.0258   -2.8198   21.3422 H   0  0  0  0  0  0  0  0  0  0  0  0
    9.4438   -3.9282   23.0440 N   0  0  0  0  0  0  0  0  0  0  0  0
    9.9313   -3.7325   24.2003 C   0  0  0  0  0  0  0  0  0  0  0  0
    9.8669   -4.6112   25.2203 N   0  0  0  0  0  0  0  0  0  0  0  0
   10.5517   -4.3928   25.9183 H   0  0  0  0  0  0  0  0  0  0  0  0
    9.9112   -5.5385   24.8354 H   0  0  0  0  0  0  0  0  0  0  0  0
   10.5499   -2.5791   24.4839 O   0  0  0  0  0  0  0  0  0  0  0  0
   10.6350   -1.8811   23.2281 C   0  0  0  0  0  0  0  0  0  0  0  0
   10.4143   -0.8176   23.3923 H   0  0  0  0  0  0  0  0  0  0  0  0
   11.6449   -1.9806   22.8146 H   0  0  0  0  0  0  0  0  0  0  0  0
    8.1768   -1.3522   20.8442 O   0  0  0  0  0  0  0  0  0  0  0  0
    5.2842    0.8104   20.0182 C   0  0  0  0  0  0  0  0  0  0  0  0
    4.8069    0.8623   21.0006 H   0  0  0  0  0  0  0  0  0  0  0  0
    4.7491    1.4275   18.8930 C   0  0  0  0  0  0  0  0  0  0  0  0
    3.8092    1.9639   18.9376 H   0  0  0  0  0  0  0  0  0  0  0  0
  1  2  1  0
  2  3  2  0
  3  4  1  0
  4  5  1  0
  4  6  2  0
  6  7  1  0
  7  8  2  0
  8  9  1  0
  9 10  2  0
 10 11  1  0
 11 12  1  6
 11 13  1  0
 13 14  2  0
 14 15  1  0
 15 16  1  0
 15 17  1  0
 14 18  1  0
 18 19  1  0
 19 20  1  0
 19 21  1  0
 10 22  1  0
  6 23  1  0
 23 24  1  0
 23 25  2  0
 25 26  1  0
 25  2  1  0
 22  7  1  0
 19 11  1  0
M  END
>  <plip>  (1) 
-0.07142857142857142

>  <filename>  (1) 
[H][c]1[n][c]([H])[c](-[c]2[n][n][c]([C@]3([H])[N]=[C]([N]([H])[H])[O][C]3([H])[H])[o]2)[c]([H])[c]1[H]

$$$$
