
     RDKit          3D

 26 28  0  0  0  0  0  0  0  0999 V2000
    4.9225    1.7806   16.9959 H   0  0  0  0  0  0  0  0  0  0  0  0
    5.4047    1.2880   17.8416 C   0  0  0  0  0  0  0  0  0  0  0  0
    6.5701    0.6665   17.5972 N   0  0  0  0  0  0  0  0  0  0  0  0
    7.1836    0.0543   18.6182 C   0  0  0  0  0  0  0  0  0  0  0  0
    8.1249   -0.4409   18.3937 H   0  0  0  0  0  0  0  0  0  0  0  0
    6.6650    0.0301   19.9288 C   0  0  0  0  0  0  0  0  0  0  0  0
    7.3695   -0.7055   20.8909 O   0  0  0  0  0  0  0  0  0  0  0  0
    7.3765   -0.3584   22.1802 C   0  0  0  0  0  0  0  0  0  0  0  0
    6.9894    0.7617   22.7259 N   0  0  0  0  0  0  0  0  0  0  0  0
    7.2420    0.6323   24.0475 N   0  0  0  0  0  0  0  0  0  0  0  0
    7.7470   -0.5025   24.3267 N   0  0  0  0  0  0  0  0  0  0  0  0
    7.8546   -1.1901   23.1378 N   0  0  0  0  0  0  0  0  0  0  0  0
    8.4401   -2.4865   22.9638 C   0  0  0  0  0  0  0  0  0  0  0  0
    8.7255   -2.8422   21.8485 O   0  0  0  0  0  0  0  0  0  0  0  0
    8.6212   -3.3132   24.2192 C   0  0  0  0  0  0  0  0  0  0  0  0
    9.4046   -4.4317   24.1354 O   0  0  0  0  0  0  0  0  0  0  0  0
    9.4100   -5.0312   25.3444 C   0  0  0  0  0  0  0  0  0  0  0  0
    9.9972   -5.9401   25.4409 H   0  0  0  0  0  0  0  0  0  0  0  0
    8.6315   -4.3341   26.2180 C   0  0  0  0  0  0  0  0  0  0  0  0
    8.4554   -4.5873   27.2562 H   0  0  0  0  0  0  0  0  0  0  0  0
    8.1131   -3.2210   25.4917 C   0  0  0  0  0  0  0  0  0  0  0  0
    7.4520   -2.4386   25.8495 H   0  0  0  0  0  0  0  0  0  0  0  0
    5.4373    0.6491   20.1796 C   0  0  0  0  0  0  0  0  0  0  0  0
    5.0092    0.6434   21.1843 H   0  0  0  0  0  0  0  0  0  0  0  0
    4.8105    1.2972   19.1067 C   0  0  0  0  0  0  0  0  0  0  0  0
    3.8819    1.8359   19.2579 H   0  0  0  0  0  0  0  0  0  0  0  0
  1  2  1  0
  2  3  2  0
  3  4  1  0
  4  5  1  0
  4  6  2  0
  6  7  1  0
  7  8  1  0
  8  9  2  0
  9 10  1  0
 10 11  2  0
 11 12  1  0
 12 13  1  0
 13 14  2  0
 13 15  1  0
 15 16  1  0
 16 17  1  0
 17 18  1  0
 17 19  2  0
 19 20  1  0
 19 21  1  0
 21 22  1  0
  6 23  1  0
 23 24  1  0
 23 25  2  0
 25 26  1  0
 25  2  1  0
 12  8  1  0
 21 15  2  0
M  END
>  <plip>  (1) 
-0.0

>  <filename>  (1) 
[H][c]1[n][c]([H])[c]([O][c]2[n][n][n][n]2[C](=[O])[c]2[o][c]([H])[c]([H])[c]2[H])[c]([H])[c]1[H]

$$$$
