
     RDKit          3D

 40 42  0  0  0  0  0  0  0  0999 V2000
    4.9178    1.7927   16.9890 H   0  0  0  0  0  0  0  0  0  0  0  0
    5.3907    1.2967   17.8333 C   0  0  0  0  0  0  0  0  0  0  0  0
    6.5516    0.6765   17.5705 N   0  0  0  0  0  0  0  0  0  0  0  0
    7.1549    0.0380   18.5781 C   0  0  0  0  0  0  0  0  0  0  0  0
    8.1150   -0.4277   18.3580 H   0  0  0  0  0  0  0  0  0  0  0  0
    6.6250   -0.0291   19.8831 C   0  0  0  0  0  0  0  0  0  0  0  0
    7.5451   -0.8468   21.1894 S   0  0  0  0  0  0  0  0  0  0  0  0
    8.4649    0.5810   21.7109 C   0  0  0  0  0  0  0  0  0  0  0  0
    9.6324    0.9645   21.2323 N   0  0  0  0  0  0  0  0  0  0  0  0
    9.9041    2.1478   21.8210 N   0  0  0  0  0  0  0  0  0  0  0  0
    8.9621    2.5075   22.6185 N   0  0  0  0  0  0  0  0  0  0  0  0
    8.0486    1.5339   22.5599 N   0  0  0  0  0  0  0  0  0  0  0  0
    6.8446    1.5343   23.1818 O   0  0  0  0  0  0  0  0  0  0  0  0
    6.6027    2.5915   24.1362 C   0  0  0  0  0  0  0  0  0  0  0  0
    6.7982    3.5724   23.6985 H   0  0  0  0  0  0  0  0  0  0  0  0
    5.5284    2.4807   24.2725 H   0  0  0  0  0  0  0  0  0  0  0  0
    7.3406    2.3711   25.4481 C   0  0  0  0  0  0  0  0  0  0  0  0
    7.0898    1.3807   25.8461 H   0  0  0  0  0  0  0  0  0  0  0  0
    8.4201    2.3790   25.2543 H   0  0  0  0  0  0  0  0  0  0  0  0
    6.9880    3.4212   26.5074 C   0  0  0  0  0  0  0  0  0  0  0  0
    7.5378    3.2087   27.4509 H   0  0  0  0  0  0  0  0  0  0  0  0
    5.9211    3.3231   26.7653 H   0  0  0  0  0  0  0  0  0  0  0  0
    7.2310    4.7901   26.0421 N   0  0  0  0  0  0  0  0  0  0  0  0
    6.4596    5.7797   26.8098 C   0  0  0  0  0  0  0  0  0  0  0  0
    5.3884    5.5779   26.6771 H   0  0  0  0  0  0  0  0  0  0  0  0
    6.6786    5.7277   27.8936 H   0  0  0  0  0  0  0  0  0  0  0  0
    6.7548    7.2037   26.3302 C   0  0  0  0  0  0  0  0  0  0  0  0
    6.2313    7.9305   26.9557 H   0  0  0  0  0  0  0  0  0  0  0  0
    6.4059    7.3163   25.2921 H   0  0  0  0  0  0  0  0  0  0  0  0
    8.1417    7.5161   26.4084 O   0  0  0  0  0  0  0  0  0  0  0  0
    8.8885    6.5870   25.6301 C   0  0  0  0  0  0  0  0  0  0  0  0
    9.9404    6.8576   25.7424 H   0  0  0  0  0  0  0  0  0  0  0  0
    8.6113    6.6828   24.5686 H   0  0  0  0  0  0  0  0  0  0  0  0
    8.6606    5.1420   26.0823 C   0  0  0  0  0  0  0  0  0  0  0  0
    9.0749    5.0316   27.1017 H   0  0  0  0  0  0  0  0  0  0  0  0
    9.2248    4.4695   25.4250 H   0  0  0  0  0  0  0  0  0  0  0  0
    5.4259    0.6397   20.1545 C   0  0  0  0  0  0  0  0  0  0  0  0
    5.0140    0.6433   21.1689 H   0  0  0  0  0  0  0  0  0  0  0  0
    4.7986    1.3114   19.1010 C   0  0  0  0  0  0  0  0  0  0  0  0
    3.8711    1.8489   19.2487 H   0  0  0  0  0  0  0  0  0  0  0  0
  1  2  1  0
  2  3  2  0
  3  4  1  0
  4  5  1  0
  4  6  2  0
  6  7  1  0
  7  8  1  0
  8  9  2  0
  9 10  1  0
 10 11  2  0
 11 12  1  0
 12 13  1  0
 13 14  1  0
 14 15  1  0
 14 16  1  0
 14 17  1  0
 17 18  1  0
 17 19  1  0
 17 20  1  0
 20 21  1  0
 20 22  1  0
 20 23  1  0
 23 24  1  0
 24 25  1  0
 24 26  1  0
 24 27  1  0
 27 28  1  0
 27 29  1  0
 27 30  1  0
 30 31  1  0
 31 32  1  0
 31 33  1  0
 31 34  1  0
 34 35  1  0
 34 36  1  0
  6 37  1  0
 37 38  1  0
 37 39  2  0
 39 40  1  0
 39  2  1  0
 12  8  1  0
 34 23  1  0
M  END
>  <plip>  (1) 
-0.03571428571428571

>  <filename>  (1) 
[H][c]1[n][c]([H])[c]([S][c]2[n][n][n][n]2[O][C]([H])([H])[C]([H])([H])[C]([H])([H])[N]2[C]([H])([H])[C]([H])([H])[O][C]([H])([H])[C]2([H])[H])[c]([H])[c]1[H]

$$$$
