
     RDKit          3D

 39 41  0  0  0  0  0  0  0  0999 V2000
   10.4051   -4.0992   25.7669 N   0  0  0  0  0  0  0  0  0  0  0  0
    9.1994   -4.6463   26.0485 C   0  0  0  0  0  0  0  0  0  0  0  0
    9.0005   -5.2441   27.3023 C   0  0  0  0  0  0  0  0  0  0  0  0
    7.8171   -5.9019   27.6042 C   0  0  0  0  0  0  0  0  0  0  0  0
    6.8067   -5.9880   26.6310 C   0  0  0  0  0  0  0  0  0  0  0  0
    5.5001   -6.6738   26.9339 C   0  0  0  0  0  0  0  0  0  0  0  0
    5.6006   -7.6132   27.8907 F   0  0  0  0  0  0  0  0  0  0  0  0
    4.9869   -7.2700   25.8388 F   0  0  0  0  0  0  0  0  0  0  0  0
    4.5734   -5.7893   27.3552 F   0  0  0  0  0  0  0  0  0  0  0  0
    6.9780   -5.3492   25.3964 C   0  0  0  0  0  0  0  0  0  0  0  0
    8.1458   -4.6423   25.0970 C   0  0  0  0  0  0  0  0  0  0  0  0
    8.2571   -3.8471   23.8667 C   0  0  0  0  0  0  0  0  0  0  0  0
    7.2613   -3.2945   23.0911 C   0  0  0  0  0  0  0  0  0  0  0  0
    7.9158   -2.6533   22.0965 N   0  0  0  0  0  0  0  0  0  0  0  0
    7.3940   -1.9075   20.9645 C   0  0  0  0  0  0  0  0  0  0  0  0
    7.3392   -0.3763   21.1489 C   0  0  0  0  0  0  0  0  0  0  0  0
    8.6385    0.1824   21.2253 O   0  0  0  0  0  0  0  0  0  0  0  0
    9.2610   -0.3789   20.7499 H   0  0  0  0  0  0  0  0  0  0  0  0
    6.5795    0.2324   19.9910 C   0  0  0  0  0  0  0  0  0  0  0  0
    5.3071    0.8090   20.1194 C   0  0  0  0  0  0  0  0  0  0  0  0
    4.7072    1.3741   18.9901 C   0  0  0  0  0  0  0  0  0  0  0  0
    5.3943    1.3253   17.7737 C   0  0  0  0  0  0  0  0  0  0  0  0
    6.5950    0.7466   17.6202 N   0  0  0  0  0  0  0  0  0  0  0  0
    7.1620    0.2191   18.7117 C   0  0  0  0  0  0  0  0  0  0  0  0
    8.1304   -0.2592   18.5453 H   0  0  0  0  0  0  0  0  0  0  0  0
    4.9648    1.7614   16.8759 H   0  0  0  0  0  0  0  0  0  0  0  0
    3.7410    1.8685   19.0416 H   0  0  0  0  0  0  0  0  0  0  0  0
    4.8074    0.8380   21.0903 H   0  0  0  0  0  0  0  0  0  0  0  0
    6.8591   -0.1241   22.1062 H   0  0  0  0  0  0  0  0  0  0  0  0
    6.4131   -2.3098   20.7125 H   0  0  0  0  0  0  0  0  0  0  0  0
    8.0775   -2.0663   20.1295 H   0  0  0  0  0  0  0  0  0  0  0  0
    9.2268   -2.8115   22.2142 N   0  0  0  0  0  0  0  0  0  0  0  0
    9.4477   -3.5132   23.2767 N   0  0  0  0  0  0  0  0  0  0  0  0
    6.1872   -3.2602   23.2082 H   0  0  0  0  0  0  0  0  0  0  0  0
    6.1913   -5.3844   24.6424 H   0  0  0  0  0  0  0  0  0  0  0  0
    7.7087   -6.3610   28.5861 H   0  0  0  0  0  0  0  0  0  0  0  0
    9.8131   -5.1918   28.0190 H   0  0  0  0  0  0  0  0  0  0  0  0
   11.0159   -3.8601   26.5231 H   0  0  0  0  0  0  0  0  0  0  0  0
   10.5477   -3.6986   24.8515 H   0  0  0  0  0  0  0  0  0  0  0  0
  1  2  1  0
  2  3  2  0
  3  4  1  0
  4  5  2  0
  5  6  1  0
  6  7  1  0
  6  8  1  0
  6  9  1  0
  5 10  1  0
 10 11  2  0
 11 12  1  0
 12 13  2  0
 13 14  1  0
 14 15  1  0
 15 16  1  0
 16 17  1  0
 17 18  1  0
 16 19  1  0
 19 20  2  0
 20 21  1  0
 21 22  2  0
 22 23  1  0
 23 24  2  0
 24 25  1  0
 22 26  1  0
 21 27  1  0
 20 28  1  0
 16 29  1  0
 15 30  1  0
 15 31  1  0
 14 32  1  0
 32 33  2  0
 13 34  1  0
 10 35  1  0
  4 36  1  0
  3 37  1  0
  1 38  1  0
  1 39  1  0
 11  2  1  0
 33 12  1  0
 24 19  1  0
M  END
>  <plip>  (1) 
-0.06666666666666667

>  <filename>  (1) 
[H][O][C]([H])([c]1[c]([H])[n][c]([H])[c]([H])[c]1[H])[C]([H])([H])[n]1[n][n][c](-[c]2[c]([H])[c]([C]([F])([F])[F])[c]([H])[c]([H])[c]2[N]([H])[H])[c]1[H]

$$$$
