
     RDKit          3D

 34 36  0  0  0  0  0  0  0  0999 V2000
    8.7184   -0.5444   21.0477 C   0  0  0  0  0  0  0  0  0  0  0  0
    7.3854   -0.6053   20.9206 C   0  0  0  0  0  0  0  0  0  0  0  0
    6.6585    0.0861   19.8293 C   0  0  0  0  0  0  0  0  0  0  0  0
    5.4256    0.7202   20.0563 C   0  0  0  0  0  0  0  0  0  0  0  0
    4.7916    1.3673   18.9971 C   0  0  0  0  0  0  0  0  0  0  0  0
    5.3970    1.3521   17.7370 C   0  0  0  0  0  0  0  0  0  0  0  0
    6.5618    0.7314   17.4853 N   0  0  0  0  0  0  0  0  0  0  0  0
    7.1676    0.1275   18.5140 C   0  0  0  0  0  0  0  0  0  0  0  0
    8.0977   -0.3911   18.2822 H   0  0  0  0  0  0  0  0  0  0  0  0
    4.9221    1.8501   16.8938 H   0  0  0  0  0  0  0  0  0  0  0  0
    3.8449    1.8785   19.1374 H   0  0  0  0  0  0  0  0  0  0  0  0
    4.9758    0.7089   21.0507 H   0  0  0  0  0  0  0  0  0  0  0  0
    6.5145   -1.3486   21.9244 C   0  0  0  0  0  0  0  0  0  0  0  0
    7.3138   -2.4040   22.6573 N   0  0  0  0  0  4  0  0  0  0  0  0
    6.5698   -3.2322   23.6869 C   0  0  0  0  0  0  0  0  0  0  0  0
    7.4197   -4.3900   24.1912 C   0  0  0  0  0  0  0  0  0  0  0  0
    7.9378   -5.1870   23.2845 N   0  0  0  0  0  0  0  0  0  0  0  0
    8.8871   -6.3270   24.0126 S   0  0  0  0  0  0  0  0  0  0  0  0
    8.6419   -5.7284   25.5868 C   0  0  0  0  0  0  0  0  0  0  0  0
    7.7734   -4.6779   25.5465 C   0  0  0  0  0  0  0  0  0  0  0  0
    7.4531   -4.1078   26.4145 H   0  0  0  0  0  0  0  0  0  0  0  0
    9.1896   -6.1383   26.4330 H   0  0  0  0  0  0  0  0  0  0  0  0
    5.6888   -3.6800   23.2221 H   0  0  0  0  0  0  0  0  0  0  0  0
    6.2503   -2.6039   24.5285 H   0  0  0  0  0  0  0  0  0  0  0  0
    8.5829   -1.7704   23.2398 C   0  0  0  0  0  0  0  0  0  0  0  0
    9.4763   -1.3109   22.1015 C   0  0  0  0  0  0  0  0  0  0  0  0
   10.2778   -0.6987   22.5204 H   0  0  0  0  0  0  0  0  0  0  0  0
    9.9594   -2.1808   21.6399 H   0  0  0  0  0  0  0  0  0  0  0  0
    9.0840   -2.5146   23.8574 H   0  0  0  0  0  0  0  0  0  0  0  0
    8.2920   -0.9299   23.8782 H   0  0  0  0  0  0  0  0  0  0  0  0
    7.6325   -3.0887   21.9183 H   0  0  0  0  0  0  0  0  0  0  0  0
    5.6702   -1.8012   21.3993 H   0  0  0  0  0  0  0  0  0  0  0  0
    6.0988   -0.6276   22.6415 H   0  0  0  0  0  0  0  0  0  0  0  0
    9.3062    0.0732   20.3660 H   0  0  0  0  0  0  0  0  0  0  0  0
  1  2  2  0
  2  3  1  0
  3  4  2  0
  4  5  1  0
  5  6  2  0
  6  7  1  0
  7  8  2  0
  8  9  1  0
  6 10  1  0
  5 11  1  0
  4 12  1  0
  2 13  1  0
 13 14  1  0
 14 15  1  0
 15 16  1  0
 16 17  2  0
 17 18  1  0
 18 19  1  0
 19 20  2  0
 20 21  1  0
 19 22  1  0
 15 23  1  0
 15 24  1  0
 14 25  1  0
 25 26  1  0
 26 27  1  0
 26 28  1  0
 25 29  1  0
 25 30  1  0
 14 31  1  0
 13 32  1  0
 13 33  1  0
  1 34  1  0
 26  1  1  0
  8  3  1  0
 20 16  1  0
M  CHG  1  14   1
M  END
>  <plip>  (1) 
-0.034482758620689655

>  <filename>  (1) 
[H][C]1=[C]([c]2[c]([H])[n][c]([H])[c]([H])[c]2[H])[C]([H])([H])[N+]([H])([C]([H])([H])[c]2[n][s][c]([H])[c]2[H])[C]([H])([H])[C]1([H])[H]

$$$$
