
     RDKit          3D

 37 39  0  0  0  0  0  0  0  0999 V2000
    9.2317    0.2332   20.5369 H   0  0  0  0  0  0  0  0  0  0  0  0
    8.6891   -0.4695   21.1696 C   0  0  0  0  0  0  0  0  0  0  0  0
    7.3772   -0.6887   20.9677 C   0  0  0  0  0  0  0  0  0  0  0  0
    6.6527    0.0121   19.8981 C   0  0  0  0  0  0  0  0  0  0  0  0
    7.1690    0.0759   18.5913 C   0  0  0  0  0  0  0  0  0  0  0  0
    8.1114   -0.4187   18.3669 H   0  0  0  0  0  0  0  0  0  0  0  0
    6.5583    0.6779   17.5644 N   0  0  0  0  0  0  0  0  0  0  0  0
    5.3961    1.2970   17.8299 C   0  0  0  0  0  0  0  0  0  0  0  0
    4.9201    1.7887   16.9856 H   0  0  0  0  0  0  0  0  0  0  0  0
    4.7988    1.3181   19.0956 C   0  0  0  0  0  0  0  0  0  0  0  0
    3.8685    1.8485   19.2484 H   0  0  0  0  0  0  0  0  0  0  0  0
    5.4320    0.6556   20.1464 C   0  0  0  0  0  0  0  0  0  0  0  0
    5.0272    0.6445   21.1629 H   0  0  0  0  0  0  0  0  0  0  0  0
    6.6588   -1.6854   21.8513 C   0  0  0  0  0  0  0  0  0  0  0  0
    5.5820   -1.6484   21.6715 H   0  0  0  0  0  0  0  0  0  0  0  0
    6.9578   -2.7023   21.5519 H   0  0  0  0  0  0  0  0  0  0  0  0
    6.9925   -1.4801   23.3487 C   0  0  0  0  0  0  0  0  0  0  0  0
    6.7822   -2.4105   23.8924 H   0  0  0  0  0  0  0  0  0  0  0  0
    6.3119   -0.7228   23.7582 H   0  0  0  0  0  0  0  0  0  0  0  0
    8.4593   -1.0192   23.6128 C   0  0  2  0  0  0  0  0  0  0  0  0
    8.8933   -1.6611   24.3780 H   0  0  0  0  0  0  0  0  0  0  0  0
    8.5232    0.3986   24.1796 C   0  0  0  0  0  0  0  0  0  0  0  0
    7.8987    1.3626   23.4991 N   0  0  0  0  0  0  0  0  0  0  0  0
    7.9532    2.6275   23.9402 C   0  0  0  0  0  0  0  0  0  0  0  0
    7.2297    3.7404   23.1394 C   0  0  0  0  0  0  0  0  0  0  0  0
    6.6251    3.3195   22.0247 F   0  0  0  0  0  0  0  0  0  0  0  0
    6.2949    4.3434   23.9068 F   0  0  0  0  0  0  0  0  0  0  0  0
    8.0958    4.7183   22.7955 F   0  0  0  0  0  0  0  0  0  0  0  0
    8.6359    2.9889   25.1082 C   0  0  0  0  0  0  0  0  0  0  0  0
    8.6606    4.0165   25.4601 H   0  0  0  0  0  0  0  0  0  0  0  0
    9.2895    1.9796   25.8055 C   0  0  0  0  0  0  0  0  0  0  0  0
    9.8413    2.2166   26.6885 H   0  0  0  0  0  0  0  0  0  0  0  0
    9.2421    0.6700   25.3492 C   0  0  0  0  0  0  0  0  0  0  0  0
    9.7371   -0.1383   25.8751 H   0  0  0  0  0  0  0  0  0  0  0  0
    9.3597   -1.1203   22.3384 C   0  0  0  0  0  0  0  0  0  0  0  0
   10.3447   -0.6791   22.5189 H   0  0  0  0  0  0  0  0  0  0  0  0
    9.5349   -2.1879   22.1180 H   0  0  0  0  0  0  0  0  0  0  0  0
  1  2  1  0
  2  3  2  0
  3  4  1  0
  4  5  2  0
  5  6  1  0
  5  7  1  0
  7  8  2  0
  8  9  1  0
  8 10  1  0
 10 11  1  0
 10 12  2  0
 12 13  1  0
  3 14  1  0
 14 15  1  0
 14 16  1  0
 14 17  1  0
 17 18  1  0
 17 19  1  0
 17 20  1  0
 20 21  1  1
 20 22  1  0
 22 23  2  0
 23 24  1  0
 24 25  1  0
 25 26  1  0
 25 27  1  0
 25 28  1  0
 24 29  2  0
 29 30  1  0
 29 31  1  0
 31 32  1  0
 31 33  2  0
 33 34  1  0
 20 35  1  0
 35 36  1  0
 35 37  1  0
 35  2  1  0
 12  4  1  0
 33 22  1  0
M  END
>  <plip>  (1) 
-0.07142857142857142

>  <filename>  (1) 
[H][C]1=[C]([c]2[c]([H])[n][c]([H])[c]([H])[c]2[H])[C]([H])([H])[C]([H])([H])[C@]([H])([c]2[n][c]([C]([F])([F])[F])[c]([H])[c]([H])[c]2[H])[C]1([H])[H]

$$$$
