
     RDKit          3D

 26 28  0  0  0  0  0  0  0  0999 V2000
    7.4722   -0.8031   24.7966 H   0  0  0  0  0  0  0  0  0  0  0  0
    7.7941   -1.6928   24.2548 C   0  0  0  0  0  0  0  0  0  0  0  0
    8.0687   -2.8576   24.8592 C   0  0  0  0  0  0  0  0  0  0  0  0
    8.1961   -3.0228   26.6225 S   0  0  0  0  0  0  0  0  0  0  0  0
    8.6341   -4.7634   26.4615 C   0  0  0  0  0  0  0  0  0  0  0  0
    8.9287   -5.5310   27.3314 O   0  0  0  0  0  0  0  0  0  0  0  0
    8.5781   -5.1068   25.1430 N   0  0  0  0  0  0  0  0  0  0  0  0
    8.7547   -6.0552   24.8766 H   0  0  0  0  0  0  0  0  0  0  0  0
    8.2507   -4.1870   24.1946 C   0  0  0  0  0  0  0  0  0  0  0  0
    8.1350   -4.4834   23.0278 O   0  0  0  0  0  0  0  0  0  0  0  0
    7.8702   -1.4709   22.8725 N   0  0  0  0  0  0  0  0  0  0  0  0
    6.9337   -0.7190   22.2497 N   0  0  0  0  0  0  0  0  0  0  0  0
    7.3649   -0.6862   20.9996 C   0  0  0  0  0  0  0  0  0  0  0  0
    6.6442    0.0068   19.9346 C   0  0  0  0  0  0  0  0  0  0  0  0
    7.1787    0.0408   18.6371 C   0  0  0  0  0  0  0  0  0  0  0  0
    8.1282   -0.4386   18.3998 H   0  0  0  0  0  0  0  0  0  0  0  0
    6.5777    0.6562   17.6132 N   0  0  0  0  0  0  0  0  0  0  0  0
    5.4143    1.2790   17.8520 C   0  0  0  0  0  0  0  0  0  0  0  0
    4.9506    1.7730   17.0001 H   0  0  0  0  0  0  0  0  0  0  0  0
    4.8049    1.3069   19.1105 C   0  0  0  0  0  0  0  0  0  0  0  0
    3.8749    1.8429   19.2443 H   0  0  0  0  0  0  0  0  0  0  0  0
    5.4215    0.6566   20.1734 C   0  0  0  0  0  0  0  0  0  0  0  0
    4.9893    0.6441   21.1770 H   0  0  0  0  0  0  0  0  0  0  0  0
    8.5444   -1.3405   20.7999 N   0  0  0  0  0  0  0  0  0  0  0  0
    8.8315   -1.8132   21.9880 C   0  0  0  0  0  0  0  0  0  0  0  0
    9.7065   -2.3767   22.2909 H   0  0  0  0  0  0  0  0  0  0  0  0
  1  2  1  0
  2  3  2  3
  3  4  1  0
  4  5  1  0
  5  6  2  0
  5  7  1  0
  7  8  1  0
  7  9  1  0
  9 10  2  0
  2 11  1  0
 11 12  1  0
 12 13  2  0
 13 14  1  0
 14 15  2  0
 15 16  1  0
 15 17  1  0
 17 18  2  0
 18 19  1  0
 18 20  1  0
 20 21  1  0
 20 22  2  0
 22 23  1  0
 13 24  1  0
 24 25  2  0
 25 26  1  0
  9  3  1  0
 25 11  1  0
 22 14  1  0
M  END
>  <plip>  (1) 
-0.034482758620689655

>  <filename>  (1) 
[H][C](=[C]1[S][C](=[O])[N]([H])[C]1=[O])[n]1[n][c](-[c]2[c]([H])[n][c]([H])[c]([H])[c]2[H])[n][c]1[H]

$$$$
