
     RDKit          3D

 46 47  0  0  0  0  0  0  0  0999 V2000
    4.1812   -5.8097   30.2155 C   0  0  0  0  0  0  0  0  0  0  0  0
    5.5626   -5.6433   30.3659 C   0  0  0  0  0  0  0  0  0  0  0  0
    6.4180   -5.7097   29.2569 C   0  0  0  0  0  0  0  0  0  0  0  0
    5.8892   -5.9437   27.9826 C   0  0  0  0  0  0  0  0  0  0  0  0
    6.6213   -6.0616   26.8352 O   0  0  0  0  0  0  0  0  0  0  0  0
    8.0044   -5.7178   26.7949 C   0  0  0  0  0  0  0  0  0  0  0  0
    8.2821   -4.2126   26.8523 C   0  0  0  0  0  0  0  0  0  0  0  0
    7.5133   -3.3903   25.8135 C   0  0  0  0  0  0  0  0  0  0  0  0
    7.9215   -3.6661   24.3604 C   0  0  0  0  0  0  0  0  0  0  0  0
    7.1946   -2.7394   23.4052 C   0  0  0  0  0  0  0  0  0  0  0  0
    7.5960   -3.0271   22.0028 N   0  0  0  0  0  4  0  0  0  0  0  0
    6.8828   -2.2012   21.0061 C   0  0  0  0  0  0  0  0  0  0  0  0
    7.3790   -0.7405   20.9800 C   0  0  0  0  0  0  0  0  0  0  0  0
    6.6705    0.0390   19.9002 C   0  0  0  0  0  0  0  0  0  0  0  0
    5.4425    0.6679   20.1452 C   0  0  0  0  0  0  0  0  0  0  0  0
    4.7999    1.3173   19.0921 C   0  0  0  0  0  0  0  0  0  0  0  0
    5.3881    1.2993   17.8246 C   0  0  0  0  0  0  0  0  0  0  0  0
    6.5488    0.6816   17.5635 N   0  0  0  0  0  0  0  0  0  0  0  0
    7.1660    0.0802   18.5861 C   0  0  0  0  0  0  0  0  0  0  0  0
    8.1112   -0.4096   18.3508 H   0  0  0  0  0  0  0  0  0  0  0  0
    4.9141    1.7962   16.9806 H   0  0  0  0  0  0  0  0  0  0  0  0
    3.8695    1.8463   19.2439 H   0  0  0  0  0  0  0  0  0  0  0  0
    5.0084    0.6408   21.1499 H   0  0  0  0  0  0  0  0  0  0  0  0
    7.2008   -0.2641   21.9571 H   0  0  0  0  0  0  0  0  0  0  0  0
    8.4663   -0.7391   20.8120 H   0  0  0  0  0  0  0  0  0  0  0  0
    6.9797   -2.6306   20.0083 H   0  0  0  0  0  0  0  0  0  0  0  0
    5.8111   -2.1852   21.2401 H   0  0  0  0  0  0  0  0  0  0  0  0
    8.6297   -2.8219   21.9194 H   0  0  0  0  0  0  0  0  0  0  0  0
    7.4538   -4.0555   21.8413 H   0  0  0  0  0  0  0  0  0  0  0  0
    7.4083   -1.6955   23.6648 H   0  0  0  0  0  0  0  0  0  0  0  0
    6.1062   -2.8434   23.5202 H   0  0  0  0  0  0  0  0  0  0  0  0
    9.0105   -3.5337   24.2482 H   0  0  0  0  0  0  0  0  0  0  0  0
    7.6976   -4.7104   24.0939 H   0  0  0  0  0  0  0  0  0  0  0  0
    7.6533   -2.3224   26.0362 H   0  0  0  0  0  0  0  0  0  0  0  0
    6.4382   -3.5876   25.9333 H   0  0  0  0  0  0  0  0  0  0  0  0
    9.3623   -4.0549   26.7183 H   0  0  0  0  0  0  0  0  0  0  0  0
    8.0483   -3.8478   27.8598 H   0  0  0  0  0  0  0  0  0  0  0  0
    8.5615   -6.2477   27.5806 H   0  0  0  0  0  0  0  0  0  0  0  0
    8.3383   -6.1318   25.8403 H   0  0  0  0  0  0  0  0  0  0  0  0
    4.4997   -6.1128   27.8284 C   0  0  0  0  0  0  0  0  0  0  0  0
    3.6609   -6.0450   28.9393 C   0  0  0  0  0  0  0  0  0  0  0  0
    2.5901   -6.1819   28.8094 H   0  0  0  0  0  0  0  0  0  0  0  0
    4.1207   -6.3054   26.8316 H   0  0  0  0  0  0  0  0  0  0  0  0
    7.4893   -5.5969   29.3787 H   0  0  0  0  0  0  0  0  0  0  0  0
    5.9788   -5.4599   31.3505 H   0  0  0  0  0  0  0  0  0  0  0  0
    3.5226   -5.7557   31.0791 H   0  0  0  0  0  0  0  0  0  0  0  0
  1  2  2  0
  2  3  1  0
  3  4  2  0
  4  5  1  0
  5  6  1  0
  6  7  1  0
  7  8  1  0
  8  9  1  0
  9 10  1  0
 10 11  1  0
 11 12  1  0
 12 13  1  0
 13 14  1  0
 14 15  2  0
 15 16  1  0
 16 17  2  0
 17 18  1  0
 18 19  2  0
 19 20  1  0
 17 21  1  0
 16 22  1  0
 15 23  1  0
 13 24  1  0
 13 25  1  0
 12 26  1  0
 12 27  1  0
 11 28  1  0
 11 29  1  0
 10 30  1  0
 10 31  1  0
  9 32  1  0
  9 33  1  0
  8 34  1  0
  8 35  1  0
  7 36  1  0
  7 37  1  0
  6 38  1  0
  6 39  1  0
  4 40  1  0
 40 41  2  0
 41 42  1  0
 40 43  1  0
  3 44  1  0
  2 45  1  0
  1 46  1  0
 41  1  1  0
 19 14  1  0
M  CHG  1  11   1
M  END
>  <plip>  (1) 
-0.034482758620689655

>  <filename>  (1) 
[H][c]1[n][c]([H])[c]([C]([H])([H])[C]([H])([H])[N+]([H])([H])[C]([H])([H])[C]([H])([H])[C]([H])([H])[C]([H])([H])[C]([H])([H])[O][c]2[c]([H])[c]([H])[c]([H])[c]([H])[c]2[H])[c]([H])[c]1[H]

$$$$
