
     RDKit          3D

 50 53  0  0  0  0  0  0  0  0999 V2000
   -0.7038   -5.5875   26.5221 C   0  0  0  0  0  0  0  0  0  0  0  0
   -0.6342   -6.5505   25.4862 O   0  0  0  0  0  0  0  0  0  0  0  0
    0.3596   -6.4708   24.5671 C   0  0  0  0  0  0  0  0  0  0  0  0
    1.3277   -5.4560   24.5175 C   0  0  0  0  0  0  0  0  0  0  0  0
    2.3448   -5.4841   23.5513 C   0  0  0  0  0  0  0  0  0  0  0  0
    3.4178   -4.5251   23.5888 N   0  0  0  0  0  0  0  0  0  0  0  0
    3.9765   -3.8807   24.6570 C   0  0  0  0  0  0  0  0  0  0  0  0
    5.0067   -3.1168   24.1740 C   0  0  0  0  0  0  0  0  0  0  0  0
    4.9993   -3.3332   22.7605 C   0  0  0  0  0  0  0  0  0  0  0  0
    5.8358   -2.6858   21.6417 C   0  0  0  0  0  0  0  0  0  0  0  0
    5.9036   -3.1346   20.5099 O   0  0  0  0  0  0  0  0  0  0  0  0
    6.4749   -1.5063   21.9681 N   0  0  0  0  0  0  0  0  0  0  0  0
    7.3465   -0.8134   21.0144 C   0  0  0  0  0  0  0  0  0  0  0  0
    6.5418   -0.1431   19.9057 C   0  0  0  0  0  0  0  0  0  0  0  0
    5.3402    0.5503   20.1163 C   0  0  0  0  0  0  0  0  0  0  0  0
    4.7944    1.2837   19.0580 C   0  0  0  0  0  0  0  0  0  0  0  0
    5.4531    1.2822   17.8233 C   0  0  0  0  0  0  0  0  0  0  0  0
    6.5745    0.5867   17.5842 N   0  0  0  0  0  0  0  0  0  0  0  0
    7.0816   -0.1090   18.6101 C   0  0  0  0  0  0  0  0  0  0  0  0
    7.9925   -0.6684   18.3903 H   0  0  0  0  0  0  0  0  0  0  0  0
    5.0602    1.8547   16.9858 H   0  0  0  0  0  0  0  0  0  0  0  0
    3.8812    1.8566   19.1767 H   0  0  0  0  0  0  0  0  0  0  0  0
    4.8383    0.5082   21.0863 H   0  0  0  0  0  0  0  0  0  0  0  0
    8.3255    0.2003   21.6923 C   0  0  0  0  0  0  0  0  0  0  0  0
    7.7385    1.4602   22.3474 C   0  0  0  0  0  0  0  0  0  0  0  0
    8.7677    1.7763   23.4419 C   0  0  0  0  0  0  0  0  0  0  0  0
    9.2733    0.3863   23.8408 C   0  0  0  0  0  0  0  0  0  0  0  0
    9.0803   -0.4568   22.7096 O   0  0  0  0  0  0  0  0  0  0  0  0
   10.3358    0.3733   24.1196 H   0  0  0  0  0  0  0  0  0  0  0  0
    8.7043   -0.0230   24.6886 H   0  0  0  0  0  0  0  0  0  0  0  0
    8.3459    2.3119   24.2978 H   0  0  0  0  0  0  0  0  0  0  0  0
    9.5873    2.3900   23.0475 H   0  0  0  0  0  0  0  0  0  0  0  0
    6.7501    1.2540   22.7775 H   0  0  0  0  0  0  0  0  0  0  0  0
    7.6136    2.2726   21.6240 H   0  0  0  0  0  0  0  0  0  0  0  0
    9.0301    0.5077   20.9025 H   0  0  0  0  0  0  0  0  0  0  0  0
    8.0026   -1.5618   20.5373 H   0  0  0  0  0  0  0  0  0  0  0  0
    6.5907   -1.2825   22.9399 H   0  0  0  0  0  0  0  0  0  0  0  0
    4.0411   -4.2023   22.4475 N   0  0  0  0  0  0  0  0  0  0  0  0
    5.6811   -2.5008   24.7599 H   0  0  0  0  0  0  0  0  0  0  0  0
    3.5770   -3.9944   25.6592 H   0  0  0  0  0  0  0  0  0  0  0  0
    2.3322   -6.4697   22.5539 C   0  0  0  0  0  0  0  0  0  0  0  0
    1.3561   -7.4682   22.5762 C   0  0  0  0  0  0  0  0  0  0  0  0
    0.4017   -7.4850   23.5804 C   0  0  0  0  0  0  0  0  0  0  0  0
   -0.5085   -8.4737   23.5918 F   0  0  0  0  0  0  0  0  0  0  0  0
    1.3163   -8.2362   21.8091 H   0  0  0  0  0  0  0  0  0  0  0  0
    3.0802   -6.4454   21.7700 H   0  0  0  0  0  0  0  0  0  0  0  0
    1.2773   -4.6231   25.2116 H   0  0  0  0  0  0  0  0  0  0  0  0
    0.2335   -5.5380   27.0913 H   0  0  0  0  0  0  0  0  0  0  0  0
   -0.9421   -4.5884   26.1345 H   0  0  0  0  0  0  0  0  0  0  0  0
   -1.5086   -5.9220   27.1755 H   0  0  0  0  0  0  0  0  0  0  0  0
  1  2  1  0
  2  3  1  0
  3  4  2  0
  4  5  1  0
  5  6  1  0
  6  7  1  0
  7  8  2  0
  8  9  1  0
  9 10  1  0
 10 11  2  0
 10 12  1  0
 12 13  1  0
 13 14  1  0
 14 15  2  0
 15 16  1  0
 16 17  2  0
 17 18  1  0
 18 19  2  0
 19 20  1  0
 17 21  1  0
 16 22  1  0
 15 23  1  0
 13 24  1  0
 24 25  1  0
 25 26  1  0
 26 27  1  0
 27 28  1  0
 27 29  1  0
 27 30  1  0
 26 31  1  0
 26 32  1  0
 25 33  1  0
 25 34  1  0
 24 35  1  0
 13 36  1  0
 12 37  1  0
  9 38  2  0
  8 39  1  0
  7 40  1  0
  5 41  2  0
 41 42  1  0
 42 43  2  0
 43 44  1  0
 42 45  1  0
 41 46  1  0
  4 47  1  0
  1 48  1  0
  1 49  1  0
  1 50  1  0
 43  3  1  0
 38  6  1  0
 19 14  1  0
 28 24  1  0
M  END
>  <plip>  (1) 
-0.06896551724137931

>  <filename>  (1) 
[H][c]1[n][c]([H])[c]([C]([H])([N]([H])[C](=[O])[c]2[n][n](-[c]3[c]([H])[c]([H])[c]([F])[c]([O][C]([H])([H])[H])[c]3[H])[c]([H])[c]2[H])[C]2([H])[O][C]([H])([H])[C]([H])([H])[C]2([H])[H])[c]([H])[c]1[H]

$$$$
