
     RDKit          3D

 36 38  0  0  0  0  0  0  0  0999 V2000
    4.8317   -7.6950   24.2992 H   0  0  0  0  0  0  0  0  0  0  0  0
    5.0306   -6.7710   23.7591 C   0  0  0  0  0  0  0  0  0  0  0  0
    6.1376   -6.0184   24.0790 N   0  0  0  0  0  0  0  0  0  0  0  0
    6.1753   -4.9466   23.3392 C   0  0  0  0  0  0  0  0  0  0  0  0
    7.2083   -4.0637   23.4551 N   0  0  0  0  0  0  0  0  0  0  0  0
    7.8156   -4.3496   24.2198 H   0  0  0  0  0  0  0  0  0  0  0  0
    7.2654   -2.7924   22.8701 N   0  0  0  0  0  0  0  0  0  0  0  0
    8.3873   -2.6958   21.9092 C   0  0  0  0  0  0  0  0  0  0  0  0
    9.3131   -2.3495   22.4040 H   0  0  0  0  0  0  0  0  0  0  0  0
    8.6002   -3.6964   21.5127 H   0  0  0  0  0  0  0  0  0  0  0  0
    8.0683   -1.8056   20.7006 C   0  0  0  0  0  0  0  0  0  0  0  0
    7.2541   -2.3118   20.1658 H   0  0  0  0  0  0  0  0  0  0  0  0
    8.9448   -1.8262   20.0327 H   0  0  0  0  0  0  0  0  0  0  0  0
    7.6543   -0.4248   20.9181 N   0  0  0  0  0  0  0  0  0  0  0  0
    6.8700    0.1589   19.8950 C   0  0  0  0  0  0  0  0  0  0  0  0
    7.2486    0.0885   18.5223 C   0  0  0  0  0  0  0  0  0  0  0  0
    8.1498   -0.4609   18.2495 H   0  0  0  0  0  0  0  0  0  0  0  0
    6.5732    0.6455   17.5063 N   0  0  0  0  0  0  0  0  0  0  0  0
    5.4216    1.2693   17.8060 C   0  0  0  0  0  0  0  0  0  0  0  0
    4.8885    1.7041   16.9654 H   0  0  0  0  0  0  0  0  0  0  0  0
    4.9154    1.3546   19.1087 C   0  0  0  0  0  0  0  0  0  0  0  0
    3.9635    1.8442   19.2819 H   0  0  0  0  0  0  0  0  0  0  0  0
    5.6488    0.8086   20.1704 C   0  0  0  0  0  0  0  0  0  0  0  0
    5.2789    0.8454   21.1953 H   0  0  0  0  0  0  0  0  0  0  0  0
    7.8720    0.2182   22.2072 C   0  0  0  0  0  0  0  0  0  0  0  0
    8.9409    0.1402   22.4770 H   0  0  0  0  0  0  0  0  0  0  0  0
    7.6632    1.2884   22.0789 H   0  0  0  0  0  0  0  0  0  0  0  0
    7.0090   -0.3150   23.3591 C   0  0  0  0  0  0  0  0  0  0  0  0
    7.1226    0.3751   24.2080 H   0  0  0  0  0  0  0  0  0  0  0  0
    5.9666   -0.2621   23.0400 H   0  0  0  0  0  0  0  0  0  0  0  0
    7.3238   -1.7196   23.8892 C   0  0  0  0  0  0  0  0  0  0  0  0
    6.5995   -1.9676   24.6771 H   0  0  0  0  0  0  0  0  0  0  0  0
    8.3315   -1.7134   24.3610 H   0  0  0  0  0  0  0  0  0  0  0  0
    4.8628   -4.7689   22.2043 S   0  0  0  0  0  0  0  0  0  0  0  0
    4.2349   -6.2882   22.7779 C   0  0  0  0  0  0  0  0  0  0  0  0
    3.3506   -6.7534   22.3706 H   0  0  0  0  0  0  0  0  0  0  0  0
  1  2  1  0
  2  3  1  0
  3  4  2  0
  4  5  1  0
  5  6  1  0
  5  7  1  0
  7  8  1  0
  8  9  1  0
  8 10  1  0
  8 11  1  0
 11 12  1  0
 11 13  1  0
 11 14  1  0
 14 15  1  0
 15 16  2  0
 16 17  1  0
 16 18  1  0
 18 19  2  0
 19 20  1  0
 19 21  1  0
 21 22  1  0
 21 23  2  0
 23 24  1  0
 14 25  1  0
 25 26  1  0
 25 27  1  0
 25 28  1  0
 28 29  1  0
 28 30  1  0
 28 31  1  0
 31 32  1  0
 31 33  1  0
  4 34  1  0
 34 35  1  0
 35 36  1  0
 35  2  2  0
 31  7  1  0
 23 15  1  0
M  END
>  <plip>  (1) 
-0.07142857142857142

>  <filename>  (1) 
[H][c]1[n][c]([N]([H])[N]2[C]([H])([H])[C]([H])([H])[N]([c]3[c]([H])[n][c]([H])[c]([H])[c]3[H])[C]([H])([H])[C]([H])([H])[C]2([H])[H])[s][c]1[H]

$$$$
