
     RDKit          3D

 46 47  0  0  0  0  0  0  0  0999 V2000
    4.3699   -5.4949   28.6554 C   0  0  0  0  0  0  0  0  0  0  0  0
    5.4739   -5.5281   27.6749 N   0  0  0  0  0  4  0  0  0  0  0  0
    5.0325   -6.2289   26.4076 C   0  0  0  0  0  0  0  0  0  0  0  0
    6.1861   -6.3186   25.4197 C   0  0  0  0  0  0  0  0  0  0  0  0
    6.7811   -4.9584   25.0502 N   0  0  0  0  0  4  0  0  0  0  0  0
    5.9117   -4.1425   24.1197 C   0  0  0  0  0  0  0  0  0  0  0  0
    6.0230   -4.7293   22.7161 C   0  0  0  0  0  0  0  0  0  0  0  0
    5.3292   -3.9013   21.6351 C   0  0  0  0  0  0  0  0  0  0  0  0
    5.8232   -2.5351   21.5357 N   0  0  0  0  0  0  0  0  0  0  0  0
    7.1203   -2.1760   21.3354 C   0  0  0  0  0  0  0  0  0  0  0  0
    8.0497   -2.9610   21.4102 O   0  0  0  0  0  0  0  0  0  0  0  0
    7.3232   -0.6717   21.0801 C   0  0  0  0  0  0  0  0  0  0  0  0
    6.5832    0.0077   19.9241 C   0  0  0  0  0  0  0  0  0  0  0  0
    5.3598    0.6673   20.1207 C   0  0  0  0  0  0  0  0  0  0  0  0
    4.7689    1.3423   19.0483 C   0  0  0  0  0  0  0  0  0  0  0  0
    5.4199    1.3223   17.8086 C   0  0  0  0  0  0  0  0  0  0  0  0
    6.5676    0.6663   17.5819 N   0  0  0  0  0  0  0  0  0  0  0  0
    7.1311    0.0447   18.6204 C   0  0  0  0  0  0  0  0  0  0  0  0
    8.0804   -0.4578   18.4282 H   0  0  0  0  0  0  0  0  0  0  0  0
    5.0002    1.8420   16.9521 H   0  0  0  0  0  0  0  0  0  0  0  0
    3.8406    1.8947   19.1564 H   0  0  0  0  0  0  0  0  0  0  0  0
    4.8983    0.6880   21.1139 H   0  0  0  0  0  0  0  0  0  0  0  0
    7.0756   -0.1658   22.0246 H   0  0  0  0  0  0  0  0  0  0  0  0
    8.4013   -0.5616   20.9636 H   0  0  0  0  0  0  0  0  0  0  0  0
    5.1748   -1.7687   21.6034 H   0  0  0  0  0  0  0  0  0  0  0  0
    5.4297   -4.4291   20.6741 H   0  0  0  0  0  0  0  0  0  0  0  0
    4.2538   -3.8342   21.8417 H   0  0  0  0  0  0  0  0  0  0  0  0
    5.6063   -5.7481   22.6998 H   0  0  0  0  0  0  0  0  0  0  0  0
    7.0845   -4.8115   22.4674 H   0  0  0  0  0  0  0  0  0  0  0  0
    4.8696   -4.1546   24.4638 H   0  0  0  0  0  0  0  0  0  0  0  0
    6.2458   -3.0955   24.1307 H   0  0  0  0  0  0  0  0  0  0  0  0
    7.1787   -4.2806   26.3464 C   0  0  0  0  0  0  0  0  0  0  0  0
    5.9943   -4.1429   27.3061 C   0  0  0  0  0  0  0  0  0  0  0  0
    6.2820   -3.6018   28.2093 H   0  0  0  0  0  0  0  0  0  0  0  0
    5.1887   -3.5818   26.8182 H   0  0  0  0  0  0  0  0  0  0  0  0
    7.6425   -3.3121   26.1459 H   0  0  0  0  0  0  0  0  0  0  0  0
    7.9150   -4.9271   26.8388 H   0  0  0  0  0  0  0  0  0  0  0  0
    7.6504   -5.1137   24.4881 H   0  0  0  0  0  0  0  0  0  0  0  0
    5.8390   -6.8382   24.5266 H   0  0  0  0  0  0  0  0  0  0  0  0
    6.9789   -6.9172   25.8875 H   0  0  0  0  0  0  0  0  0  0  0  0
    4.2112   -5.6614   25.9547 H   0  0  0  0  0  0  0  0  0  0  0  0
    4.6573   -7.2286   26.6463 H   0  0  0  0  0  0  0  0  0  0  0  0
    6.2757   -6.0689   28.0828 H   0  0  0  0  0  0  0  0  0  0  0  0
    4.6593   -4.9702   29.5711 H   0  0  0  0  0  0  0  0  0  0  0  0
    4.0419   -6.5097   28.9094 H   0  0  0  0  0  0  0  0  0  0  0  0
    3.5083   -4.9703   28.2205 H   0  0  0  0  0  0  0  0  0  0  0  0
  1  2  1  0
  2  3  1  0
  3  4  1  0
  4  5  1  0
  5  6  1  0
  6  7  1  0
  7  8  1  0
  8  9  1  0
  9 10  1  0
 10 11  2  0
 10 12  1  0
 12 13  1  0
 13 14  2  0
 14 15  1  0
 15 16  2  0
 16 17  1  0
 17 18  2  0
 18 19  1  0
 16 20  1  0
 15 21  1  0
 14 22  1  0
 12 23  1  0
 12 24  1  0
  9 25  1  0
  8 26  1  0
  8 27  1  0
  7 28  1  0
  7 29  1  0
  6 30  1  0
  6 31  1  0
  5 32  1  0
 32 33  1  0
 33 34  1  0
 33 35  1  0
 32 36  1  0
 32 37  1  0
  5 38  1  0
  4 39  1  0
  4 40  1  0
  3 41  1  0
  3 42  1  0
  2 43  1  0
  1 44  1  0
  1 45  1  0
  1 46  1  0
 33  2  1  0
 18 13  1  0
M  CHG  2   2   1   5   1
M  END
>  <plip>  (1) 
-0.13793103448275862

>  <filename>  (1) 
[H][c]1[n][c]([H])[c]([C]([H])([H])[C](=[O])[N]([H])[C]([H])([H])[C]([H])([H])[C]([H])([H])[N+]2([H])[C]([H])([H])[C]([H])([H])[N+]([H])([C]([H])([H])[H])[C]([H])([H])[C]2([H])[H])[c]([H])[c]1[H]

$$$$
