
     RDKit          3D

 37 38  0  0  0  0  0  0  0  0999 V2000
    4.9565    1.7675   17.0024 H   0  0  0  0  0  0  0  0  0  0  0  0
    5.4137    1.2801   17.8643 C   0  0  0  0  0  0  0  0  0  0  0  0
    6.5776    0.6551   17.6360 N   0  0  0  0  0  0  0  0  0  0  0  0
    7.1793    0.0596   18.6718 C   0  0  0  0  0  0  0  0  0  0  0  0
    8.1111   -0.4515   18.4349 H   0  0  0  0  0  0  0  0  0  0  0  0
    6.6684    0.0572   19.9770 C   0  0  0  0  0  0  0  0  0  0  0  0
    7.4240   -0.7378   20.9922 C   0  0  0  0  0  0  0  0  0  0  0  0
    8.1248   -1.6872   20.6661 O   0  0  0  0  0  0  0  0  0  0  0  0
    7.2564   -0.3498   22.2871 N   0  0  0  0  0  0  0  0  0  0  0  0
    6.8622    0.5649   22.4241 H   0  0  0  0  0  0  0  0  0  0  0  0
    7.7094   -1.0900   23.4777 C   0  0  0  0  0  0  0  0  0  0  0  0
    9.2259   -1.3187   23.4257 C   0  0  0  0  0  0  0  0  0  0  0  0
    9.4835   -2.0053   22.6155 H   0  0  0  0  0  0  0  0  0  0  0  0
    9.7330   -0.3652   23.2409 H   0  0  0  0  0  0  0  0  0  0  0  0
    9.5721   -1.7319   24.3807 H   0  0  0  0  0  0  0  0  0  0  0  0
    7.3470   -0.2720   24.7219 C   0  0  0  0  0  0  0  0  0  0  0  0
    7.6918   -0.7926   25.6238 H   0  0  0  0  0  0  0  0  0  0  0  0
    6.2633   -0.1263   24.8205 H   0  0  0  0  0  0  0  0  0  0  0  0
    7.8427    0.7055   24.7051 H   0  0  0  0  0  0  0  0  0  0  0  0
    6.9461   -2.4552   23.4998 C   0  0  0  0  0  0  0  0  0  0  0  0
    5.8759   -2.2430   23.4920 H   0  0  0  0  0  0  0  0  0  0  0  0
    7.2033   -2.9942   22.5817 H   0  0  0  0  0  0  0  0  0  0  0  0
    7.2072   -3.3116   24.6398 N   0  0  0  0  0  0  0  0  0  0  0  0
    8.3533   -4.0965   24.7146 N   0  0  0  0  0  0  0  0  0  0  0  0
    8.2471   -4.6127   25.8867 C   0  0  0  0  0  0  0  0  0  0  0  0
    9.0381   -5.4654   26.5031 O   0  0  0  0  0  0  0  0  0  0  0  0
   10.2127   -5.8832   25.7910 C   0  0  0  0  0  0  0  0  0  0  0  0
   10.8648   -5.0274   25.5795 H   0  0  0  0  0  0  0  0  0  0  0  0
   10.7155   -6.5802   26.4597 H   0  0  0  0  0  0  0  0  0  0  0  0
    9.9469   -6.3878   24.8548 H   0  0  0  0  0  0  0  0  0  0  0  0
    7.1799   -4.2494   26.6067 O   0  0  0  0  0  0  0  0  0  0  0  0
    6.4817   -3.3825   25.7927 C   0  0  0  0  0  0  0  0  0  0  0  0
    5.4568   -2.8372   26.0981 O   0  0  0  0  0  0  0  0  0  0  0  0
    5.4331    0.6908   20.1974 C   0  0  0  0  0  0  0  0  0  0  0  0
    4.9431    0.6647   21.1736 H   0  0  0  0  0  0  0  0  0  0  0  0
    4.8023    1.3159   19.1222 C   0  0  0  0  0  0  0  0  0  0  0  0
    3.8628    1.8436   19.2408 H   0  0  0  0  0  0  0  0  0  0  0  0
  1  2  1  0
  2  3  2  0
  3  4  1  0
  4  5  1  0
  4  6  2  0
  6  7  1  0
  7  8  2  0
  7  9  1  0
  9 10  1  0
  9 11  1  0
 11 12  1  0
 12 13  1  0
 12 14  1  0
 12 15  1  0
 11 16  1  0
 16 17  1  0
 16 18  1  0
 16 19  1  0
 11 20  1  0
 20 21  1  0
 20 22  1  0
 20 23  1  0
 23 24  1  0
 24 25  2  0
 25 26  1  0
 26 27  1  0
 27 28  1  0
 27 29  1  0
 27 30  1  0
 25 31  1  0
 31 32  1  0
 32 33  2  0
  6 34  1  0
 34 35  1  0
 34 36  2  0
 36 37  1  0
 36  2  1  0
 32 23  1  0
M  END
>  <plip>  (1) 
-0.06896551724137931

>  <filename>  (1) 
[H][c]1[n][c]([H])[c]([C](=[O])[N]([H])[C]([C]([H])([H])[H])([C]([H])([H])[H])[C]([H])([H])[n]2[n][c]([O][C]([H])([H])[H])[o][c]2=[O])[c]([H])[c]1[H]

$$$$
