
     RDKit          3D

 45 47  0  0  0  0  0  0  0  0999 V2000
    8.8584    1.5594   22.0919 C   0  0  0  0  0  0  0  0  0  0  0  0
    8.3457    0.4437   21.3566 O   0  0  0  0  0  0  0  0  0  0  0  0
    7.4365   -0.4329   22.0597 C   0  0  0  0  0  0  0  0  0  0  0  0
    8.1386   -1.1049   23.1256 O   0  0  0  0  0  0  0  0  0  0  0  0
    8.1722   -0.3797   24.3625 C   0  0  0  0  0  0  0  0  0  0  0  0
    7.2278   -0.5071   24.8997 H   0  0  0  0  0  0  0  0  0  0  0  0
    8.9790   -0.7606   24.9968 H   0  0  0  0  0  0  0  0  0  0  0  0
    8.3355    0.6889   24.2051 H   0  0  0  0  0  0  0  0  0  0  0  0
    6.8494   -1.4459   21.0274 C   0  0  0  0  0  0  0  0  0  0  0  0
    5.8666   -2.3812   21.5810 N   0  0  0  0  0  0  0  0  0  0  0  0
    5.6455   -3.6622   21.0895 C   0  0  0  0  0  0  0  0  0  0  0  0
    6.0920   -3.9739   19.9939 O   0  0  0  0  0  0  0  0  0  0  0  0
    4.8219   -4.5876   21.8843 C   0  0  0  0  0  0  0  0  0  0  0  0
    4.3236   -5.7703   21.6004 N   0  0  0  0  0  0  0  0  0  0  0  0
    3.5278   -6.0682   22.6749 N   0  0  0  0  0  0  0  0  0  0  0  0
    2.5402   -7.0762   22.6902 C   0  0  0  0  0  0  0  0  0  0  0  0
    2.2718   -7.8949   21.5769 C   0  0  0  0  0  0  0  0  0  0  0  0
    1.2493   -8.8371   21.6107 C   0  0  0  0  0  0  0  0  0  0  0  0
    0.5040   -9.0196   22.7745 C   0  0  0  0  0  0  0  0  0  0  0  0
    0.7952   -8.2778   23.9185 C   0  0  0  0  0  0  0  0  0  0  0  0
   -0.1086   -8.6385   25.5663 Br  0  0  0  0  0  0  0  0  0  0  0  0
    1.7836   -7.2967   23.8569 C   0  0  0  0  0  0  0  0  0  0  0  0
    1.9869   -6.7104   24.7453 H   0  0  0  0  0  0  0  0  0  0  0  0
   -0.2617   -9.7818   22.8204 H   0  0  0  0  0  0  0  0  0  0  0  0
    1.0616   -9.4399   20.7299 H   0  0  0  0  0  0  0  0  0  0  0  0
    2.8583   -7.8442   20.6699 H   0  0  0  0  0  0  0  0  0  0  0  0
    3.5891   -5.1192   23.6571 N   0  0  0  0  0  0  0  0  0  0  0  0
    4.3627   -4.1960   23.1764 C   0  0  0  0  0  0  0  0  0  0  0  0
    4.5881   -3.2467   23.6526 H   0  0  0  0  0  0  0  0  0  0  0  0
    5.3681   -2.1009   22.4226 H   0  0  0  0  0  0  0  0  0  0  0  0
    6.1782   -0.6826   19.9134 C   0  0  0  0  0  0  0  0  0  0  0  0
    5.1234    0.2092   20.1441 C   0  0  0  0  0  0  0  0  0  0  0  0
    4.7291    1.0274   19.0862 C   0  0  0  0  0  0  0  0  0  0  0  0
    5.3796    0.9296   17.8512 C   0  0  0  0  0  0  0  0  0  0  0  0
    6.3547    0.0368   17.6164 N   0  0  0  0  0  0  0  0  0  0  0  0
    6.7343   -0.7558   18.6309 C   0  0  0  0  0  0  0  0  0  0  0  0
    7.5539   -1.4450   18.4637 H   0  0  0  0  0  0  0  0  0  0  0  0
    5.1064    1.6159   17.0573 H   0  0  0  0  0  0  0  0  0  0  0  0
    3.9542    1.7746   19.2160 H   0  0  0  0  0  0  0  0  0  0  0  0
    4.6609    0.3009   21.1270 H   0  0  0  0  0  0  0  0  0  0  0  0
    7.7044   -2.0111   20.6375 H   0  0  0  0  0  0  0  0  0  0  0  0
    6.6038    0.1449   22.4770 H   0  0  0  0  0  0  0  0  0  0  0  0
    8.0449    2.2111   22.4275 H   0  0  0  0  0  0  0  0  0  0  0  0
    9.4381    1.2224   22.9551 H   0  0  0  0  0  0  0  0  0  0  0  0
    9.5222    2.1466   21.4483 H   0  0  0  0  0  0  0  0  0  0  0  0
  1  2  1  0
  2  3  1  0
  3  4  1  0
  4  5  1  0
  5  6  1  0
  5  7  1  0
  5  8  1  0
  3  9  1  0
  9 10  1  0
 10 11  1  0
 11 12  2  0
 11 13  1  0
 13 14  2  0
 14 15  1  0
 15 16  1  0
 16 17  2  0
 17 18  1  0
 18 19  2  0
 19 20  1  0
 20 21  1  0
 20 22  2  0
 22 23  1  0
 19 24  1  0
 18 25  1  0
 17 26  1  0
 15 27  1  0
 27 28  2  0
 28 29  1  0
 10 30  1  0
  9 31  1  0
 31 32  2  0
 32 33  1  0
 33 34  2  0
 34 35  1  0
 35 36  2  0
 36 37  1  0
 34 38  1  0
 33 39  1  0
 32 40  1  0
  9 41  1  0
  3 42  1  0
  1 43  1  0
  1 44  1  0
  1 45  1  0
 28 13  1  0
 36 31  1  0
 22 16  1  0
M  END
>  <plip>  (1) 
-0.1724137931034483

>  <filename>  (1) 
[H][c]1[n][n](-[c]2[c]([H])[c]([H])[c]([H])[c]([Br])[c]2[H])[n][c]1[C](=[O])[N]([H])[C]([H])([c]1[c]([H])[n][c]([H])[c]([H])[c]1[H])[C]([H])([O][C]([H])([H])[H])[O][C]([H])([H])[H]

$$$$
