
     RDKit          3D

 34 36  0  0  0  0  0  0  0  0999 V2000
    5.0096    1.7242   17.0138 H   0  0  0  0  0  0  0  0  0  0  0  0
    5.4612    1.2585   17.8894 C   0  0  0  0  0  0  0  0  0  0  0  0
    6.6319    0.6323   17.6955 N   0  0  0  0  0  0  0  0  0  0  0  0
    7.2311    0.0707   18.7423 C   0  0  0  0  0  0  0  0  0  0  0  0
    8.1504   -0.4749   18.5259 H   0  0  0  0  0  0  0  0  0  0  0  0
    6.6818    0.1459   20.0133 C   0  0  0  0  0  0  0  0  0  0  0  0
    7.5334   -0.7179   21.2494 S   0  0  0  0  0  0  0  0  0  0  0  0
    6.7089   -0.8035   22.4281 O   0  0  0  0  0  0  0  0  0  0  0  0
    8.0812   -1.9127   20.6281 O   0  0  0  0  0  0  0  0  0  0  0  0
    8.8446    0.2516   21.5166 N   0  0  0  0  0  0  0  0  0  0  0  0
    8.6467    1.3660   22.2957 C   0  0  0  0  0  0  0  0  0  0  0  0
    7.4323    1.8221   22.4203 N   0  0  0  0  0  0  0  0  0  0  0  0
    7.2689    2.9683   23.1509 C   0  0  0  0  0  0  0  0  0  0  0  0
    5.9461    3.4557   23.3073 C   0  0  0  0  0  0  0  0  0  0  0  0
    5.1620    2.8647   22.8411 H   0  0  0  0  0  0  0  0  0  0  0  0
    5.7019    4.6220   24.0079 C   0  0  0  0  0  0  0  0  0  0  0  0
    4.6853    5.0025   24.1161 H   0  0  0  0  0  0  0  0  0  0  0  0
    6.7841    5.3424   24.5870 C   0  0  0  0  0  0  0  0  0  0  0  0
    6.5851    6.2628   25.1305 H   0  0  0  0  0  0  0  0  0  0  0  0
    8.0834    4.8922   24.4673 C   0  0  0  0  0  0  0  0  0  0  0  0
    8.9252    5.4365   24.9019 H   0  0  0  0  0  0  0  0  0  0  0  0
    8.3545    3.6920   23.7543 C   0  0  0  0  0  0  0  0  0  0  0  0
    9.6716    3.1551   23.5891 C   0  0  0  0  0  0  0  0  0  0  0  0
   10.5431    3.6719   24.0054 H   0  0  0  0  0  0  0  0  0  0  0  0
    9.8031    1.9960   22.8753 C   0  0  0  0  0  0  0  0  0  0  0  0
   10.7602    1.5291   22.7087 H   0  0  0  0  0  0  0  0  0  0  0  0
   10.1863   -0.2174   21.1832 C   0  0  0  0  0  0  0  0  0  0  0  0
   10.1018   -0.9877   20.4251 H   0  0  0  0  0  0  0  0  0  0  0  0
   10.7679    0.6201   20.7899 H   0  0  0  0  0  0  0  0  0  0  0  0
   10.7064   -0.6282   22.0585 H   0  0  0  0  0  0  0  0  0  0  0  0
    5.4314    0.7223   20.2295 C   0  0  0  0  0  0  0  0  0  0  0  0
    4.9725    0.6985   21.2203 H   0  0  0  0  0  0  0  0  0  0  0  0
    4.8179    1.3105   19.1308 C   0  0  0  0  0  0  0  0  0  0  0  0
    3.8662    1.8161   19.2252 H   0  0  0  0  0  0  0  0  0  0  0  0
  1  2  1  0
  2  3  2  0
  3  4  1  0
  4  5  1  0
  4  6  2  0
  6  7  1  0
  7  8  2  0
  7  9  2  0
  7 10  1  0
 10 11  1  0
 11 12  2  0
 12 13  1  0
 13 14  2  0
 14 15  1  0
 14 16  1  0
 16 17  1  0
 16 18  2  0
 18 19  1  0
 18 20  1  0
 20 21  1  0
 20 22  2  0
 22 23  1  0
 23 24  1  0
 23 25  2  0
 25 26  1  0
 10 27  1  0
 27 28  1  0
 27 29  1  0
 27 30  1  0
  6 31  1  0
 31 32  1  0
 31 33  2  0
 33 34  1  0
 33  2  1  0
 25 11  1  0
 22 13  1  0
M  END
>  <plip>  (1) 
-0.034482758620689655

>  <filename>  (1) 
[H][c]1[n][c]([H])[c]([S](=[O])(=[O])[N]([c]2[n][c]3[c]([H])[c]([H])[c]([H])[c]([H])[c]3[c]([H])[c]2[H])[C]([H])([H])[H])[c]([H])[c]1[H]

$$$$
