
     RDKit          3D

 32 34  0  0  0  0  0  0  0  0999 V2000
    8.9496   -0.6894   20.8076 O   0  0  0  0  0  0  0  0  0  0  0  0
    7.5468   -0.8267   21.1342 S   0  0  0  0  0  0  0  0  0  0  0  0
    6.9076   -2.0987   21.3982 O   0  0  0  0  0  0  0  0  0  0  0  0
    7.1816   -0.0302   22.5236 N   0  0  0  0  0  0  0  0  0  0  0  0
    7.6709    1.2145   22.9673 C   0  0  0  0  0  0  0  0  0  0  0  0
    8.2337    2.0918   22.0939 C   0  0  0  0  0  0  0  0  0  0  0  0
    8.6010    3.5410   22.9009 S   0  0  0  0  0  0  0  0  0  0  0  0
    8.0389    3.0510   24.3727 N   0  0  0  0  0  0  0  0  0  0  0  0
    7.6000    1.8138   24.3037 C   0  0  0  0  0  0  0  0  0  0  0  0
    7.1046    1.1108   25.5225 C   0  0  0  0  0  0  0  0  0  0  0  0
    6.2078    1.7467   26.3976 C   0  0  0  0  0  0  0  0  0  0  0  0
    5.7358    1.0801   27.5319 C   0  0  0  0  0  0  0  0  0  0  0  0
    6.1650   -0.2208   27.8162 C   0  0  0  0  0  0  0  0  0  0  0  0
    7.0709   -0.8545   26.9597 C   0  0  0  0  0  0  0  0  0  0  0  0
    7.5376   -0.1956   25.8181 C   0  0  0  0  0  0  0  0  0  0  0  0
    8.2470   -0.6934   25.1572 H   0  0  0  0  0  0  0  0  0  0  0  0
    7.4122   -1.8630   27.1754 H   0  0  0  0  0  0  0  0  0  0  0  0
    5.8029   -0.7326   28.7050 H   0  0  0  0  0  0  0  0  0  0  0  0
    5.0380    1.5794   28.1993 H   0  0  0  0  0  0  0  0  0  0  0  0
    5.8792    2.7623   26.1891 H   0  0  0  0  0  0  0  0  0  0  0  0
    8.4323    1.9221   21.0430 H   0  0  0  0  0  0  0  0  0  0  0  0
    6.6532   -0.7231   23.0341 H   0  0  0  0  0  0  0  0  0  0  0  0
    6.6395    0.0469   19.9563 C   0  0  0  0  0  0  0  0  0  0  0  0
    5.4163    0.6705   20.2159 C   0  0  0  0  0  0  0  0  0  0  0  0
    4.8156    1.3005   19.1352 C   0  0  0  0  0  0  0  0  0  0  0  0
    5.4386    1.2599   17.8843 C   0  0  0  0  0  0  0  0  0  0  0  0
    6.6025    0.6348   17.6570 N   0  0  0  0  0  0  0  0  0  0  0  0
    7.2000    0.0384   18.6860 C   0  0  0  0  0  0  0  0  0  0  0  0
    8.1472   -0.4497   18.4539 H   0  0  0  0  0  0  0  0  0  0  0  0
    4.9837    1.7468   17.0258 H   0  0  0  0  0  0  0  0  0  0  0  0
    3.8814    1.8326   19.2513 H   0  0  0  0  0  0  0  0  0  0  0  0
    4.9348    0.6824   21.1986 H   0  0  0  0  0  0  0  0  0  0  0  0
  1  2  2  0
  2  3  2  0
  2  4  1  0
  4  5  1  0
  5  6  2  0
  6  7  1  0
  7  8  1  0
  8  9  2  0
  9 10  1  0
 10 11  2  0
 11 12  1  0
 12 13  2  0
 13 14  1  0
 14 15  2  0
 15 16  1  0
 14 17  1  0
 13 18  1  0
 12 19  1  0
 11 20  1  0
  6 21  1  0
  4 22  1  0
  2 23  1  0
 23 24  2  0
 24 25  1  0
 25 26  2  0
 26 27  1  0
 27 28  2  0
 28 29  1  0
 26 30  1  0
 25 31  1  0
 24 32  1  0
  9  5  1  0
 15 10  1  0
 28 23  1  0
M  END
>  <plip>  (1) 
-0.07142857142857142

>  <filename>  (1) 
[H][c]1[n][c]([H])[c]([S](=[O])(=[O])[N]([H])[c]2[c](-[c]3[c]([H])[c]([H])[c]([H])[c]([H])[c]3[H])[n][s][c]2[H])[c]([H])[c]1[H]

$$$$
