
     RDKit          3D

 18 18  0  0  0  0  0  0  0  0999 V2000
    5.8464   -3.0437   25.4690 H   0  0  0  0  0  0  0  0  0  0  0  0
    6.6686   -2.9773   24.8614 N   0  0  0  0  0  0  0  0  0  0  0  0
    6.3983   -2.1821   23.9328 N   0  0  0  0  0  4  0  0  0  0  0  0
    7.1435   -1.8942   22.9504 N   0  0  0  0  0  0  0  0  0  0  0  0
    6.6772   -1.0220   22.0974 N   0  0  0  0  0  0  0  0  0  0  0  0
    5.6697   -1.1569   22.0452 H   0  0  0  0  0  0  0  0  0  0  0  0
    7.3137   -0.8618   20.8631 N   0  0  0  0  0  0  0  0  0  0  0  0
    8.3115   -0.7054   21.0373 H   0  0  0  0  0  0  0  0  0  0  0  0
    6.6808   -0.0410   19.8810 C   0  0  0  0  0  0  0  0  0  0  0  0
    7.1953    0.0302   18.5571 C   0  0  0  0  0  0  0  0  0  0  0  0
    8.1257   -0.4904   18.3180 H   0  0  0  0  0  0  0  0  0  0  0  0
    6.5996    0.6827   17.5543 N   0  0  0  0  0  0  0  0  0  0  0  0
    5.4446    1.3238   17.8042 C   0  0  0  0  0  0  0  0  0  0  0  0
    4.9829    1.8258   16.9565 H   0  0  0  0  0  0  0  0  0  0  0  0
    4.8552    1.3360   19.0675 C   0  0  0  0  0  0  0  0  0  0  0  0
    3.9199    1.8663   19.2169 H   0  0  0  0  0  0  0  0  0  0  0  0
    5.4865    0.6675   20.1214 C   0  0  0  0  0  0  0  0  0  0  0  0
    5.0701    0.7178   21.1249 H   0  0  0  0  0  0  0  0  0  0  0  0
  1  2  1  0
  2  3  2  0
  3  4  2  0
  4  5  1  0
  5  6  1  0
  5  7  1  0
  7  8  1  0
  7  9  1  0
  9 10  2  0
 10 11  1  0
 10 12  1  0
 12 13  2  0
 13 14  1  0
 13 15  1  0
 15 16  1  0
 15 17  2  0
 17 18  1  0
 17  9  1  0
M  CHG  1   3   1
M  END
>  <plip>  (1) 
-0.07142857142857142

>  <filename>  (1) 
[H][N]=[N+]=[N][N]([H])[N]([H])[c]1[c]([H])[n][c]([H])[c]([H])[c]1[H]

$$$$
