
     RDKit          3D

 35 37  0  0  0  0  0  0  0  0999 V2000
    8.2664   -6.2881   24.8882 H   0  0  0  0  0  0  0  0  0  0  0  0
    7.9694   -5.7287   25.6164 O   0  0  0  0  0  0  0  0  0  0  0  0
    7.2274   -4.6399   25.0839 C   0  0  2  0  0  0  0  0  0  0  0  0
    6.4863   -4.9831   24.3395 H   0  0  0  0  0  0  0  0  0  0  0  0
    8.1104   -3.6050   24.3607 C   0  0  0  0  0  0  0  0  0  0  0  0
    8.9171   -3.2662   25.0386 H   0  0  0  0  0  0  0  0  0  0  0  0
    8.5952   -4.0501   23.4816 H   0  0  0  0  0  0  0  0  0  0  0  0
    7.2337   -2.5061   23.9202 N   0  0  0  0  0  0  0  0  0  0  0  0
    7.7976   -1.7009   22.9150 N   0  0  0  0  0  0  0  0  0  0  0  0
    9.0652   -1.6471   22.2443 C   0  0  0  0  0  0  0  0  0  0  0  0
   10.1272   -2.0799   22.6638 O   0  0  0  0  0  0  0  0  0  0  0  0
    8.7443   -0.9587   21.0186 C   0  0  0  0  0  0  0  0  0  0  0  0
    9.5051   -0.6577   20.3217 H   0  0  0  0  0  0  0  0  0  0  0  0
    7.4039   -0.7218   20.9574 C   0  0  0  0  0  0  0  0  0  0  0  0
    6.6288   -0.0132   19.9235 C   0  0  0  0  0  0  0  0  0  0  0  0
    7.1446    0.0493   18.6177 C   0  0  0  0  0  0  0  0  0  0  0  0
    8.0898   -0.4337   18.3807 H   0  0  0  0  0  0  0  0  0  0  0  0
    6.5531    0.6715   17.5907 N   0  0  0  0  0  0  0  0  0  0  0  0
    5.3916    1.2980   17.8326 C   0  0  0  0  0  0  0  0  0  0  0  0
    4.9364    1.8014   16.9764 H   0  0  0  0  0  0  0  0  0  0  0  0
    4.7889    1.3150   19.0978 C   0  0  0  0  0  0  0  0  0  0  0  0
    3.8578    1.8588   19.2273 H   0  0  0  0  0  0  0  0  0  0  0  0
    5.4137    0.6538   20.1579 C   0  0  0  0  0  0  0  0  0  0  0  0
    4.9743    0.6790   21.1554 H   0  0  0  0  0  0  0  0  0  0  0  0
    6.8369   -1.2278   22.0676 N   0  0  0  0  0  0  0  0  0  0  0  0
    5.8850   -1.3533   22.3570 H   0  0  0  0  0  0  0  0  0  0  0  0
    6.6460   -1.7423   25.0446 C   0  0  0  0  0  0  0  0  0  0  0  0
    7.4291   -1.3385   25.7086 H   0  0  0  0  0  0  0  0  0  0  0  0
    6.1099   -0.8684   24.6508 H   0  0  0  0  0  0  0  0  0  0  0  0
    5.7152   -2.7162   25.7746 C   0  0  0  0  0  0  0  0  0  0  0  0
    4.9486   -3.0199   25.0465 H   0  0  0  0  0  0  0  0  0  0  0  0
    5.1993   -2.2188   26.6032 H   0  0  0  0  0  0  0  0  0  0  0  0
    6.4880   -3.9673   26.2521 C   0  0  0  0  0  0  0  0  0  0  0  0
    5.8145   -4.7060   26.7004 H   0  0  0  0  0  0  0  0  0  0  0  0
    7.2238   -3.7073   27.0315 H   0  0  0  0  0  0  0  0  0  0  0  0
  1  2  1  0
  2  3  1  0
  3  4  1  6
  3  5  1  0
  5  6  1  0
  5  7  1  0
  5  8  1  0
  8  9  1  0
  9 10  1  0
 10 11  2  0
 10 12  1  0
 12 13  1  0
 12 14  2  0
 14 15  1  0
 15 16  2  0
 16 17  1  0
 16 18  1  0
 18 19  2  0
 19 20  1  0
 19 21  1  0
 21 22  1  0
 21 23  2  0
 23 24  1  0
 14 25  1  0
 25 26  1  0
  8 27  1  0
 27 28  1  0
 27 29  1  0
 27 30  1  0
 30 31  1  0
 30 32  1  0
 30 33  1  0
 33 34  1  0
 33 35  1  0
 33  3  1  0
 25  9  1  0
 23 15  1  0
M  END
>  <plip>  (1) 
-0.03571428571428571

>  <filename>  (1) 
[H][O][C@]1([H])[C]([H])([H])[N]([n]2[c](=[O])[c]([H])[c](-[c]3[c]([H])[n][c]([H])[c]([H])[c]3[H])[n]2[H])[C]([H])([H])[C]([H])([H])[C]1([H])[H]

$$$$
