
     RDKit          3D

 33 35  0  0  0  0  0  0  0  0999 V2000
    4.9683    1.7753   16.9756 H   0  0  0  0  0  0  0  0  0  0  0  0
    5.4211    1.3077   17.8485 C   0  0  0  0  0  0  0  0  0  0  0  0
    6.5913    0.6807   17.6510 N   0  0  0  0  0  0  0  0  0  0  0  0
    7.1568    0.0895   18.7065 C   0  0  0  0  0  0  0  0  0  0  0  0
    8.0993   -0.4293   18.5248 H   0  0  0  0  0  0  0  0  0  0  0  0
    6.6020    0.1001   19.9854 C   0  0  0  0  0  0  0  0  0  0  0  0
    7.3745   -0.5995   21.0137 C   0  0  0  0  0  0  0  0  0  0  0  0
    8.0008   -1.6773   20.7612 N   0  0  0  0  0  0  0  0  0  0  0  0
    8.4988   -2.2350   22.0108 C   0  0  0  0  0  0  0  0  0  0  0  0
    9.5456   -2.5406   21.8870 H   0  0  0  0  0  0  0  0  0  0  0  0
    7.9059   -3.1206   22.2807 H   0  0  0  0  0  0  0  0  0  0  0  0
    8.3197   -1.1240   23.0701 C   0  0  0  0  0  0  0  0  0  0  0  0
    7.8281   -1.4625   23.9885 H   0  0  0  0  0  0  0  0  0  0  0  0
    9.2669   -0.6566   23.3605 H   0  0  0  0  0  0  0  0  0  0  0  0
    7.4429   -0.1790   22.3420 N   0  0  0  0  0  0  0  0  0  0  0  0
    7.6948    1.4595   22.5591 S   0  0  0  0  0  0  0  0  0  0  0  0
    7.9855    2.0394   21.2624 O   0  0  0  0  0  0  0  0  0  0  0  0
    8.6310    1.5963   23.6601 O   0  0  0  0  0  0  0  0  0  0  0  0
    6.0679    1.9526   23.1189 C   0  0  0  0  0  0  0  0  0  0  0  0
    5.5117    3.1502   22.6429 C   0  0  0  0  0  0  0  0  0  0  0  0
    6.0345    3.7665   21.9090 H   0  0  0  0  0  0  0  0  0  0  0  0
    4.2677    3.5701   23.1279 C   0  0  0  0  0  0  0  0  0  0  0  0
    3.8465    4.5047   22.7620 H   0  0  0  0  0  0  0  0  0  0  0  0
    3.5755    2.8161   24.0853 C   0  0  0  0  0  0  0  0  0  0  0  0
    2.6095    3.1560   24.4618 H   0  0  0  0  0  0  0  0  0  0  0  0
    4.1571    1.6386   24.5765 C   0  0  0  0  0  0  0  0  0  0  0  0
    3.6478    1.0560   25.3428 H   0  0  0  0  0  0  0  0  0  0  0  0
    5.3977    1.2028   24.1020 C   0  0  0  0  0  0  0  0  0  0  0  0
    5.8184    0.2875   24.5238 H   0  0  0  0  0  0  0  0  0  0  0  0
    5.3646    0.7187   20.1788 C   0  0  0  0  0  0  0  0  0  0  0  0
    4.8771    0.7034   21.1553 H   0  0  0  0  0  0  0  0  0  0  0  0
    4.7713    1.3456   19.0858 C   0  0  0  0  0  0  0  0  0  0  0  0
    3.8169    1.8489   19.1810 H   0  0  0  0  0  0  0  0  0  0  0  0
  1  2  1  0
  2  3  2  0
  3  4  1  0
  4  5  1  0
  4  6  2  0
  6  7  1  0
  7  8  2  0
  8  9  1  0
  9 10  1  0
  9 11  1  0
  9 12  1  0
 12 13  1  0
 12 14  1  0
 12 15  1  0
 15 16  1  0
 16 17  2  0
 16 18  2  0
 16 19  1  0
 19 20  2  0
 20 21  1  0
 20 22  1  0
 22 23  1  0
 22 24  2  0
 24 25  1  0
 24 26  1  0
 26 27  1  0
 26 28  2  0
 28 29  1  0
  6 30  1  0
 30 31  1  0
 30 32  2  0
 32 33  1  0
 32  2  1  0
 15  7  1  0
 28 19  1  0
M  END
>  <plip>  (1) 
-0.06896551724137931

>  <filename>  (1) 
[H][c]1[n][c]([H])[c]([C]2=[N][C]([H])([H])[C]([H])([H])[N]2[S](=[O])(=[O])[c]2[c]([H])[c]([H])[c]([H])[c]([H])[c]2[H])[c]([H])[c]1[H]

$$$$
