
     RDKit          3D

 41 44  0  0  0  0  0  0  0  0999 V2000
   13.2480   -1.0804   21.6492 C   0  0  0  0  0  0  0  0  0  0  0  0
   11.7518   -0.8746   21.4553 C   0  0  0  0  0  0  0  0  0  0  0  0
   11.0443    0.0475   22.4786 C   0  0  0  0  0  0  0  0  0  0  0  0
   11.2245   -0.4216   23.8063 O   0  0  0  0  0  0  0  0  0  0  0  0
   10.5070   -1.0506   23.9981 H   0  0  0  0  0  0  0  0  0  0  0  0
    9.5864    0.2083   22.0447 C   0  0  0  0  0  0  0  0  0  0  0  0
    9.2416    0.8892   20.9642 N   0  0  0  0  0  0  0  0  0  0  0  0
    7.9270    0.5745   20.8133 N   0  0  0  0  0  0  0  0  0  0  0  0
    7.2264    0.9965   19.6562 C   0  0  0  0  0  0  0  0  0  0  0  0
    5.9076    1.4656   19.7073 C   0  0  0  0  0  0  0  0  0  0  0  0
    5.2676    1.7406   18.4946 C   0  0  0  0  0  0  0  0  0  0  0  0
    5.9521    1.5334   17.2965 C   0  0  0  0  0  0  0  0  0  0  0  0
    7.2197    1.0892   17.2516 N   0  0  0  0  0  0  0  0  0  0  0  0
    7.8503    0.8578   18.4054 C   0  0  0  0  0  0  0  0  0  0  0  0
    8.8867    0.5290   18.3449 H   0  0  0  0  0  0  0  0  0  0  0  0
    5.4796    1.7318   16.3387 H   0  0  0  0  0  0  0  0  0  0  0  0
    4.2622    2.1395   18.4635 H   0  0  0  0  0  0  0  0  0  0  0  0
    5.3933    1.6041   20.6576 H   0  0  0  0  0  0  0  0  0  0  0  0
    7.5744   -0.3491   21.7555 C   0  0  0  0  0  0  0  0  0  0  0  0
    6.2864   -1.1058   21.6799 C   0  0  0  0  0  0  0  0  0  0  0  0
    6.2076   -2.4438   22.5019 C   0  0  0  0  0  0  0  0  0  0  0  0
    5.9638   -3.1327   21.1886 C   0  0  0  0  0  0  0  0  0  0  0  0
    5.7379   -4.3774   20.6297 C   0  0  0  0  0  0  0  0  0  0  0  0
    5.5869   -4.4230   19.2382 C   0  0  0  0  0  0  0  0  0  0  0  0
    5.6852   -3.2548   18.4653 C   0  0  0  0  0  0  0  0  0  0  0  0
    5.9145   -2.0011   19.0426 C   0  0  0  0  0  0  0  0  0  0  0  0
    6.0301   -1.9670   20.4298 C   0  0  0  0  0  0  0  0  0  0  0  0
    6.0233   -1.1387   18.3918 H   0  0  0  0  0  0  0  0  0  0  0  0
    5.6013   -3.2842   17.3848 H   0  0  0  0  0  0  0  0  0  0  0  0
    5.3801   -5.3831   18.7714 H   0  0  0  0  0  0  0  0  0  0  0  0
    5.6709   -5.2806   21.2299 H   0  0  0  0  0  0  0  0  0  0  0  0
    7.1478   -2.6936   22.9948 H   0  0  0  0  0  0  0  0  0  0  0  0
    5.4078   -2.5544   23.2399 H   0  0  0  0  0  0  0  0  0  0  0  0
    5.4860   -0.3907   21.8650 H   0  0  0  0  0  0  0  0  0  0  0  0
    8.5879   -0.5569   22.5706 N   0  0  0  0  0  0  0  0  0  0  0  0
   11.5111    1.0430   22.4330 H   0  0  0  0  0  0  0  0  0  0  0  0
   11.5767   -0.4487   20.4681 H   0  0  0  0  0  0  0  0  0  0  0  0
   11.2482   -1.8511   21.4395 H   0  0  0  0  0  0  0  0  0  0  0  0
   13.4698   -1.6058   22.5754 H   0  0  0  0  0  0  0  0  0  0  0  0
   13.8039   -0.1360   21.6762 H   0  0  0  0  0  0  0  0  0  0  0  0
   13.6341   -1.6733   20.8133 H   0  0  0  0  0  0  0  0  0  0  0  0
  1  2  1  0
  2  3  1  0
  3  4  1  0
  4  5  1  0
  3  6  1  0
  6  7  2  0
  7  8  1  0
  8  9  1  0
  9 10  2  0
 10 11  1  0
 11 12  2  0
 12 13  1  0
 13 14  2  0
 14 15  1  0
 12 16  1  0
 11 17  1  0
 10 18  1  0
  8 19  1  0
 19 20  1  0
 20 21  1  0
 21 22  1  0
 22 23  2  0
 23 24  1  0
 24 25  2  0
 25 26  1  0
 26 27  2  0
 26 28  1  0
 25 29  1  0
 24 30  1  0
 23 31  1  0
 21 32  1  0
 21 33  1  0
 20 34  1  0
 19 35  2  0
  3 36  1  0
  2 37  1  0
  2 38  1  0
  1 39  1  0
  1 40  1  0
  1 41  1  0
 35  6  1  0
 14  9  1  0
 27 20  1  0
 27 22  1  0
M  END
>  <plip>  (1) 
-0.10344827586206896

>  <filename>  (1) 
[H][O][C]([H])([c]1[n][c]([C]2([H])[c]3[c]([H])[c]([H])[c]([H])[c]([H])[c]3[C]2([H])[H])[n](-[c]2[c]([H])[n][c]([H])[c]([H])[c]2[H])[n]1)[C]([H])([H])[C]([H])([H])[H]

$$$$
