
     RDKit          3D

 40 42  0  0  0  0  0  0  0  0999 V2000
    6.1628    6.7299   23.8974 C   0  0  0  0  0  0  0  0  0  0  0  0
    6.9895    5.5755   23.3657 C   0  0  0  0  0  0  0  0  0  0  0  0
    6.3527    4.4447   22.7925 C   0  0  0  0  0  0  0  0  0  0  0  0
    7.0813    3.3817   22.2847 C   0  0  0  0  0  0  0  0  0  0  0  0
    8.4996    3.4030   22.3498 C   0  0  0  0  0  0  0  0  0  0  0  0
    9.4711    2.4338   21.8656 C   0  0  0  0  0  0  0  0  0  0  0  0
    9.0686    1.1346   21.2296 C   0  0  0  0  0  0  0  0  0  0  0  0
    9.5374    0.7699   20.1612 O   0  0  0  0  0  0  0  0  0  0  0  0
    8.1429    0.3676   21.9186 N   0  0  0  0  0  0  0  0  0  0  0  0
    8.1286    0.3003   23.3828 C   0  0  0  0  0  0  0  0  0  0  0  0
    7.5676   -0.5809   23.7091 H   0  0  0  0  0  0  0  0  0  0  0  0
    9.1434    0.2095   23.7881 H   0  0  0  0  0  0  0  0  0  0  0  0
    7.6607    1.1723   23.8596 H   0  0  0  0  0  0  0  0  0  0  0  0
    7.3327   -0.5991   21.1444 C   0  0  0  0  0  0  0  0  0  0  0  0
    8.1441   -1.8390   20.7833 C   0  0  0  0  0  0  0  0  0  0  0  0
    8.9401   -1.5960   20.0717 H   0  0  0  0  0  0  0  0  0  0  0  0
    8.5993   -2.2678   21.6833 H   0  0  0  0  0  0  0  0  0  0  0  0
    7.4605   -2.5824   20.3645 H   0  0  0  0  0  0  0  0  0  0  0  0
    6.6327    0.0431   19.9499 C   0  0  0  0  0  0  0  0  0  0  0  0
    5.4034    0.6826   20.1450 C   0  0  0  0  0  0  0  0  0  0  0  0
    4.7845    1.3215   19.0698 C   0  0  0  0  0  0  0  0  0  0  0  0
    5.4130    1.2867   17.8220 C   0  0  0  0  0  0  0  0  0  0  0  0
    6.5758    0.6596   17.6021 N   0  0  0  0  0  0  0  0  0  0  0  0
    7.1710    0.0699   18.6522 C   0  0  0  0  0  0  0  0  0  0  0  0
    8.1373   -0.3834   18.4316 H   0  0  0  0  0  0  0  0  0  0  0  0
    4.9681    1.7900   16.9678 H   0  0  0  0  0  0  0  0  0  0  0  0
    3.8448    1.8453   19.1942 H   0  0  0  0  0  0  0  0  0  0  0  0
    4.9483    0.6901   21.1373 H   0  0  0  0  0  0  0  0  0  0  0  0
    6.5292   -0.9025   21.8373 H   0  0  0  0  0  0  0  0  0  0  0  0
   10.7526    2.8492   22.0491 C   0  0  0  0  0  0  0  0  0  0  0  0
   10.8713    4.3485   22.8994 S   0  0  0  0  0  0  0  0  0  0  0  0
    9.1352    4.5186   22.9329 C   0  0  0  0  0  0  0  0  0  0  0  0
    8.3855    5.6028   23.4244 C   0  0  0  0  0  0  0  0  0  0  0  0
    8.8900    6.4737   23.8300 H   0  0  0  0  0  0  0  0  0  0  0  0
   11.6682    2.3618   21.7279 H   0  0  0  0  0  0  0  0  0  0  0  0
    6.5567    2.5392   21.8335 H   0  0  0  0  0  0  0  0  0  0  0  0
    5.2645    4.4224   22.7557 H   0  0  0  0  0  0  0  0  0  0  0  0
    5.9392    7.4760   23.1229 H   0  0  0  0  0  0  0  0  0  0  0  0
    5.2003    6.3869   24.2941 H   0  0  0  0  0  0  0  0  0  0  0  0
    6.6731    7.2577   24.7105 H   0  0  0  0  0  0  0  0  0  0  0  0
  1  2  1  0
  2  3  2  0
  3  4  1  0
  4  5  2  0
  5  6  1  0
  6  7  1  0
  7  8  2  0
  7  9  1  0
  9 10  1  0
 10 11  1  0
 10 12  1  0
 10 13  1  0
  9 14  1  0
 14 15  1  0
 15 16  1  0
 15 17  1  0
 15 18  1  0
 14 19  1  0
 19 20  2  0
 20 21  1  0
 21 22  2  0
 22 23  1  0
 23 24  2  0
 24 25  1  0
 22 26  1  0
 21 27  1  0
 20 28  1  0
 14 29  1  0
  6 30  2  0
 30 31  1  0
 31 32  1  0
 32 33  2  0
 33 34  1  0
 30 35  1  0
  4 36  1  0
  3 37  1  0
  1 38  1  0
  1 39  1  0
  1 40  1  0
 33  2  1  0
 32  5  1  0
 24 19  1  0
M  END
>  <plip>  (1) 
-0.07142857142857142

>  <filename>  (1) 
[H][c]1[n][c]([H])[c]([C]([H])([N]([C](=[O])[c]2[c]([H])[s][c]3[c]([H])[c]([C]([H])([H])[H])[c]([H])[c]([H])[c]23)[C]([H])([H])[H])[C]([H])([H])[H])[c]([H])[c]1[H]

$$$$
