
     RDKit          3D

 37 39  0  0  0  0  0  0  0  0999 V2000
    5.2449   -2.3790   21.6198 O   0  0  0  0  0  0  0  0  0  0  0  0
    6.3047   -2.8876   21.3063 C   0  0  0  0  0  0  0  0  0  0  0  0
    7.4366   -2.1724   21.0344 N   0  0  0  0  0  0  0  0  0  0  0  0
    7.4385   -0.7179   21.0603 C   0  0  0  0  0  0  0  0  0  0  0  0
    6.7026   -0.1053   19.8919 C   0  0  0  0  0  0  0  0  0  0  0  0
    5.4658    0.5335   20.0532 C   0  0  0  0  0  0  0  0  0  0  0  0
    4.8888    1.1671   18.9525 C   0  0  0  0  0  0  0  0  0  0  0  0
    5.5541    1.1169   17.7260 C   0  0  0  0  0  0  0  0  0  0  0  0
    6.7035    0.4534   17.5369 N   0  0  0  0  0  0  0  0  0  0  0  0
    7.2431   -0.1569   18.5991 C   0  0  0  0  0  0  0  0  0  0  0  0
    8.1660   -0.7089   18.4068 H   0  0  0  0  0  0  0  0  0  0  0  0
    5.1502    1.6293   16.8549 H   0  0  0  0  0  0  0  0  0  0  0  0
    3.9551    1.7078   19.0304 H   0  0  0  0  0  0  0  0  0  0  0  0
    4.9708    0.5192   21.0273 H   0  0  0  0  0  0  0  0  0  0  0  0
    8.4810   -0.3707   21.0978 H   0  0  0  0  0  0  0  0  0  0  0  0
    6.9821   -0.3887   21.9969 H   0  0  0  0  0  0  0  0  0  0  0  0
    8.0259   -2.6145   20.3577 H   0  0  0  0  0  0  0  0  0  0  0  0
    6.4592   -4.3351   21.2713 C   0  0  0  0  0  0  0  0  0  0  0  0
    5.5749   -5.2265   21.8089 C   0  0  0  0  0  0  0  0  0  0  0  0
    4.2805   -5.0941   22.5342 C   0  0  0  0  0  0  0  0  0  0  0  0
    4.4748   -5.1647   24.0421 C   0  0  0  0  0  0  0  0  0  0  0  0
    4.4514   -3.9952   24.8044 C   0  0  0  0  0  0  0  0  0  0  0  0
    4.6621   -4.0324   26.1857 C   0  0  0  0  0  0  0  0  0  0  0  0
    4.9369   -5.2534   26.8073 C   0  0  0  0  0  0  0  0  0  0  0  0
    4.9951   -6.4281   26.0495 C   0  0  0  0  0  0  0  0  0  0  0  0
    4.7504   -6.3878   24.6749 C   0  0  0  0  0  0  0  0  0  0  0  0
    4.8049   -7.2967   24.0811 H   0  0  0  0  0  0  0  0  0  0  0  0
    5.2500   -7.3684   26.5320 H   0  0  0  0  0  0  0  0  0  0  0  0
    5.1358   -5.2859   27.8739 H   0  0  0  0  0  0  0  0  0  0  0  0
    4.6288   -3.1124   26.7635 H   0  0  0  0  0  0  0  0  0  0  0  0
    4.3017   -3.0453   24.2994 H   0  0  0  0  0  0  0  0  0  0  0  0
    3.8447   -4.1415   22.2329 H   0  0  0  0  0  0  0  0  0  0  0  0
    3.6156   -5.9001   22.2103 H   0  0  0  0  0  0  0  0  0  0  0  0
    6.0831   -6.4550   21.6923 O   0  0  0  0  0  0  0  0  0  0  0  0
    7.3165   -6.3987   21.0887 N   0  0  0  0  0  0  0  0  0  0  0  0
    7.5412   -5.1428   20.8497 C   0  0  0  0  0  0  0  0  0  0  0  0
    8.4782   -4.8910   20.3717 H   0  0  0  0  0  0  0  0  0  0  0  0
  1  2  2  0
  2  3  1  0
  3  4  1  0
  4  5  1  0
  5  6  2  0
  6  7  1  0
  7  8  2  0
  8  9  1  0
  9 10  2  0
 10 11  1  0
  8 12  1  0
  7 13  1  0
  6 14  1  0
  4 15  1  0
  4 16  1  0
  3 17  1  0
  2 18  1  0
 18 19  2  0
 19 20  1  0
 20 21  1  0
 21 22  2  0
 22 23  1  0
 23 24  2  0
 24 25  1  0
 25 26  2  0
 26 27  1  0
 25 28  1  0
 24 29  1  0
 23 30  1  0
 22 31  1  0
 20 32  1  0
 20 33  1  0
 19 34  1  0
 34 35  1  0
 35 36  2  0
 36 37  1  0
 10  5  1  0
 36 18  1  0
 26 21  1  0
M  END
>  <plip>  (1) 
-0.06666666666666667

>  <filename>  (1) 
[H][c]1[n][c]([H])[c]([C]([H])([H])[N]([H])[C](=[O])[c]2[c]([H])[n][o][c]2[C]([H])([H])[c]2[c]([H])[c]([H])[c]([H])[c]([H])[c]2[H])[c]([H])[c]1[H]

$$$$
