
     RDKit          3D

 51 53  0  0  0  0  0  0  0  0999 V2000
    6.5212   -2.9998   20.7599 C   0  0  0  0  0  0  0  0  0  0  0  0
    6.6874   -1.7973   21.6015 N   0  0  0  0  0  4  0  0  0  0  0  0
    7.2259   -2.0688   22.9752 C   0  0  0  0  0  0  0  0  0  0  0  0
    7.9963   -0.7994   23.3774 C   0  0  0  0  0  0  0  0  0  0  0  0
    7.8624    0.1838   22.1893 C   0  0  1  0  0  0  0  0  0  0  0  0
    9.0696    1.0980   21.9411 C   0  0  0  0  0  0  0  0  0  0  0  0
    9.2989    1.9920   23.0660 N   0  0  0  0  0  0  0  0  0  0  0  0
    8.5744    3.1453   23.2174 C   0  0  0  0  0  0  0  0  0  0  0  0
    7.7285    3.5098   22.4212 O   0  0  0  0  0  0  0  0  0  0  0  0
    8.8571    3.9227   24.5458 C   0  0  0  0  0  0  0  0  0  0  0  0
    8.8332    2.9539   25.7673 C   0  0  0  0  0  0  0  0  0  0  0  0
    8.9575    3.5118   26.7038 H   0  0  0  0  0  0  0  0  0  0  0  0
    7.8745    2.4232   25.8098 H   0  0  0  0  0  0  0  0  0  0  0  0
    9.6418    2.2168   25.6971 H   0  0  0  0  0  0  0  0  0  0  0  0
    7.7666    5.0008   24.7651 C   0  0  0  0  0  0  0  0  0  0  0  0
    7.8948    5.5095   25.7245 H   0  0  0  0  0  0  0  0  0  0  0  0
    7.7602    5.7535   23.9705 H   0  0  0  0  0  0  0  0  0  0  0  0
    6.7742    4.5426   24.7846 H   0  0  0  0  0  0  0  0  0  0  0  0
   10.2486    4.5553   24.4625 C   0  0  0  0  0  0  0  0  0  0  0  0
   10.6560    5.5279   25.4109 C   0  0  0  0  0  0  0  0  0  0  0  0
   11.9045    6.0287   25.4667 N   0  0  0  0  0  0  0  0  0  0  0  0
   12.7405    5.6028   24.5051 C   0  0  0  0  0  0  0  0  0  0  0  0
   12.3489    4.6675   23.5324 C   0  0  0  0  0  0  0  0  0  0  0  0
   11.1300    4.0974   23.5449 N   0  0  0  0  0  0  0  0  0  0  0  0
   13.0303    4.3662   22.7390 H   0  0  0  0  0  0  0  0  0  0  0  0
   13.7524    5.9915   24.5275 H   0  0  0  0  0  0  0  0  0  0  0  0
    9.9578    5.8988   26.1564 H   0  0  0  0  0  0  0  0  0  0  0  0
   10.2568    2.1368   23.3473 H   0  0  0  0  0  0  0  0  0  0  0  0
    8.9265    1.6707   21.0120 H   0  0  0  0  0  0  0  0  0  0  0  0
    9.9801    0.4962   21.8233 H   0  0  0  0  0  0  0  0  0  0  0  0
    7.5090   -0.6855   20.9746 C   0  0  2  0  0  0  0  0  0  0  0  0
    6.7136    0.0024   19.8872 C   0  0  0  0  0  0  0  0  0  0  0  0
    5.4804    0.6390   20.1238 C   0  0  0  0  0  0  0  0  0  0  0  0
    4.8444    1.2926   19.0681 C   0  0  0  0  0  0  0  0  0  0  0  0
    5.4450    1.2806   17.8056 C   0  0  0  0  0  0  0  0  0  0  0  0
    6.5901    0.6353   17.5456 N   0  0  0  0  0  0  0  0  0  0  0  0
    7.1898    0.0115   18.5678 C   0  0  0  0  0  0  0  0  0  0  0  0
    8.1083   -0.5201   18.3150 H   0  0  0  0  0  0  0  0  0  0  0  0
    4.9787    1.8002   16.9681 H   0  0  0  0  0  0  0  0  0  0  0  0
    3.9032    1.8138   19.2057 H   0  0  0  0  0  0  0  0  0  0  0  0
    5.0243    0.6425   21.1183 H   0  0  0  0  0  0  0  0  0  0  0  0
    8.4182   -1.1290   20.5448 H   0  0  0  0  0  0  0  0  0  0  0  0
    6.9986    0.8334   22.3897 H   0  0  0  0  0  0  0  0  0  0  0  0
    7.5725   -0.3661   24.2897 H   0  0  0  0  0  0  0  0  0  0  0  0
    9.0399   -1.0544   23.6003 H   0  0  0  0  0  0  0  0  0  0  0  0
    7.8805   -2.9464   22.9481 H   0  0  0  0  0  0  0  0  0  0  0  0
    6.3956   -2.2892   23.6529 H   0  0  0  0  0  0  0  0  0  0  0  0
    5.7549   -1.3424   21.7284 H   0  0  0  0  0  0  0  0  0  0  0  0
    7.4882   -3.5040   20.6171 H   0  0  0  0  0  0  0  0  0  0  0  0
    5.8377   -3.7156   21.2282 H   0  0  0  0  0  0  0  0  0  0  0  0
    6.1426   -2.7205   19.7723 H   0  0  0  0  0  0  0  0  0  0  0  0
  1  2  1  0
  2  3  1  0
  3  4  1  0
  4  5  1  0
  5  6  1  0
  6  7  1  0
  7  8  1  0
  8  9  2  0
  8 10  1  0
 10 11  1  0
 11 12  1  0
 11 13  1  0
 11 14  1  0
 10 15  1  0
 15 16  1  0
 15 17  1  0
 15 18  1  0
 10 19  1  0
 19 20  2  0
 20 21  1  0
 21 22  2  0
 22 23  1  0
 23 24  2  0
 23 25  1  0
 22 26  1  0
 20 27  1  0
  7 28  1  0
  6 29  1  0
  6 30  1  0
  5 31  1  0
 31 32  1  0
 32 33  2  0
 33 34  1  0
 34 35  2  0
 35 36  1  0
 36 37  2  0
 37 38  1  0
 35 39  1  0
 34 40  1  0
 33 41  1  0
 31 42  1  6
  5 43  1  1
  4 44  1  0
  4 45  1  0
  3 46  1  0
  3 47  1  0
  2 48  1  0
  1 49  1  0
  1 50  1  0
  1 51  1  0
 31  2  1  0
 37 32  1  0
 24 19  1  0
M  CHG  1   2   1
M  END
>  <plip>  (1) 
-0.10714285714285714

>  <filename>  (1) 
[H][c]1[n][c]([H])[c]([C]([C](=[O])[N]([H])[C]([H])([H])[C@]2([H])[C]([H])([H])[C]([H])([H])[N+]([H])([C]([H])([H])[H])[C@@]2([H])[c]2[c]([H])[n][c]([H])[c]([H])[c]2[H])([C]([H])([H])[H])[C]([H])([H])[H])[n][c]1[H]

$$$$
