
     RDKit          3D

 37 39  0  0  0  0  0  0  0  0999 V2000
    9.0600   -1.3714   23.1477 O   0  0  0  0  0  0  0  0  0  0  0  0
    9.1344   -0.2238   22.7220 C   0  0  0  0  0  0  0  0  0  0  0  0
    8.3978    0.2037   21.6668 N   0  0  0  0  0  0  0  0  0  0  0  0
    7.4388   -0.6799   21.0233 C   0  0  0  0  0  0  0  0  0  0  0  0
    6.6808    0.0288   19.9293 C   0  0  0  0  0  0  0  0  0  0  0  0
    5.4543    0.6698   20.1617 C   0  0  0  0  0  0  0  0  0  0  0  0
    4.8082    1.3155   19.1035 C   0  0  0  0  0  0  0  0  0  0  0  0
    5.4079    1.2925   17.8407 C   0  0  0  0  0  0  0  0  0  0  0  0
    6.5760    0.6821   17.5928 N   0  0  0  0  0  0  0  0  0  0  0  0
    7.1886    0.0789   18.6200 C   0  0  0  0  0  0  0  0  0  0  0  0
    8.1295   -0.4156   18.3758 H   0  0  0  0  0  0  0  0  0  0  0  0
    4.9383    1.7876   16.9917 H   0  0  0  0  0  0  0  0  0  0  0  0
    3.8657    1.8377   19.2389 H   0  0  0  0  0  0  0  0  0  0  0  0
    5.0036    0.6480   21.1565 H   0  0  0  0  0  0  0  0  0  0  0  0
    7.9845   -1.5466   20.6261 H   0  0  0  0  0  0  0  0  0  0  0  0
    6.7461   -1.0846   21.7759 H   0  0  0  0  0  0  0  0  0  0  0  0
    8.4112    1.1870   21.4547 H   0  0  0  0  0  0  0  0  0  0  0  0
   10.0295    0.7977   23.2911 C   0  0  0  0  0  0  0  0  0  0  0  0
   10.5454    1.9758   22.7963 C   0  0  0  0  0  0  0  0  0  0  0  0
   11.4146    2.4789   23.7019 N   0  0  0  0  0  0  0  0  0  0  0  0
   11.4569    1.6929   24.7271 N   0  0  0  0  0  0  0  0  0  0  0  0
   10.6308    0.6711   24.5008 N   0  0  0  0  0  0  0  0  0  0  0  0
   10.4352   -0.3410   25.5294 C   0  0  0  0  0  0  0  0  0  0  0  0
    9.0811   -0.2145   26.2003 C   0  0  0  0  0  0  0  0  0  0  0  0
    8.7146    1.0127   26.7680 C   0  0  0  0  0  0  0  0  0  0  0  0
    7.4900    1.1499   27.4239 C   0  0  0  0  0  0  0  0  0  0  0  0
    6.5835    0.0827   27.4410 C   0  0  0  0  0  0  0  0  0  0  0  0
    6.9239   -1.1303   26.8330 C   0  0  0  0  0  0  0  0  0  0  0  0
    8.1758   -1.2804   26.2259 C   0  0  0  0  0  0  0  0  0  0  0  0
    8.4427   -2.2144   25.7351 H   0  0  0  0  0  0  0  0  0  0  0  0
    6.2103   -1.9506   26.8069 H   0  0  0  0  0  0  0  0  0  0  0  0
    5.6073    0.2058   27.9040 H   0  0  0  0  0  0  0  0  0  0  0  0
    7.2453    2.0892   27.9133 H   0  0  0  0  0  0  0  0  0  0  0  0
    9.3917    1.8587   26.6657 H   0  0  0  0  0  0  0  0  0  0  0  0
   11.2477   -0.1735   26.2430 H   0  0  0  0  0  0  0  0  0  0  0  0
   10.5445   -1.3226   25.0621 H   0  0  0  0  0  0  0  0  0  0  0  0
   10.4101    2.4914   21.8572 H   0  0  0  0  0  0  0  0  0  0  0  0
  1  2  2  0
  2  3  1  0
  3  4  1  0
  4  5  1  0
  5  6  2  0
  6  7  1  0
  7  8  2  0
  8  9  1  0
  9 10  2  0
 10 11  1  0
  8 12  1  0
  7 13  1  0
  6 14  1  0
  4 15  1  0
  4 16  1  0
  3 17  1  0
  2 18  1  0
 18 19  2  0
 19 20  1  0
 20 21  2  0
 21 22  1  0
 22 23  1  0
 23 24  1  0
 24 25  2  0
 25 26  1  0
 26 27  2  0
 27 28  1  0
 28 29  2  0
 29 30  1  0
 28 31  1  0
 27 32  1  0
 26 33  1  0
 25 34  1  0
 23 35  1  0
 23 36  1  0
 19 37  1  0
 10  5  1  0
 22 18  1  0
 29 24  1  0
M  END
>  <plip>  (1) 
-0.07142857142857142

>  <filename>  (1) 
[H][c]1[n][c]([H])[c]([C]([H])([H])[N]([H])[C](=[O])[c]2[c]([H])[n][n][n]2[C]([H])([H])[c]2[c]([H])[c]([H])[c]([H])[c]([H])[c]2[H])[c]([H])[c]1[H]

$$$$
