
     RDKit          3D

 40 43  0  0  0  0  0  0  0  0999 V2000
    5.0522   -4.8362   22.3782 C   0  0  0  0  0  0  0  0  0  0  0  0
    4.0665   -4.5399   23.2380 C   0  0  0  0  0  0  0  0  0  0  0  0
    3.1729   -5.5877   23.8708 C   0  0  0  0  0  0  0  0  0  0  0  0
    3.9294   -6.6544   24.7269 C   0  0  0  0  0  0  0  0  0  0  0  0
    3.6229   -8.0222   24.0972 C   0  0  0  0  0  0  0  0  0  0  0  0
    2.2962   -7.8390   23.3510 C   0  0  0  0  0  0  0  0  0  0  0  0
    2.3554   -6.4000   22.8256 C   0  0  0  0  0  0  0  0  0  0  0  0
    2.8669   -6.3827   21.8555 H   0  0  0  0  0  0  0  0  0  0  0  0
    1.3625   -5.9665   22.6622 H   0  0  0  0  0  0  0  0  0  0  0  0
    1.4500   -7.9658   24.0418 H   0  0  0  0  0  0  0  0  0  0  0  0
    2.1636   -8.5649   22.5394 H   0  0  0  0  0  0  0  0  0  0  0  0
    3.5682   -8.8169   24.8492 H   0  0  0  0  0  0  0  0  0  0  0  0
    4.4302   -8.2804   23.4006 H   0  0  0  0  0  0  0  0  0  0  0  0
    5.0080   -6.4607   24.7784 H   0  0  0  0  0  0  0  0  0  0  0  0
    3.5729   -6.6228   25.7628 H   0  0  0  0  0  0  0  0  0  0  0  0
    2.4801   -5.0599   24.5344 H   0  0  0  0  0  0  0  0  0  0  0  0
    3.9041   -3.4920   23.5162 H   0  0  0  0  0  0  0  0  0  0  0  0
    5.9779   -3.8503   21.8418 C   0  0  0  0  0  0  0  0  0  0  0  0
    5.8023   -2.5694   21.6982 N   0  0  0  0  0  0  0  0  0  0  0  0
    7.0421   -2.1562   21.2829 C   0  0  0  0  0  0  0  0  0  0  0  0
    7.3846   -0.7068   21.0504 C   0  0  0  0  0  0  0  0  0  0  0  0
    6.6520   -0.0021   19.9295 C   0  0  0  0  0  0  0  0  0  0  0  0
    5.4263    0.6372   20.1493 C   0  0  0  0  0  0  0  0  0  0  0  0
    4.8045    1.2934   19.0834 C   0  0  0  0  0  0  0  0  0  0  0  0
    5.4230    1.2853   17.8285 C   0  0  0  0  0  0  0  0  0  0  0  0
    6.5842    0.6575   17.5859 N   0  0  0  0  0  0  0  0  0  0  0  0
    7.1713    0.0420   18.6209 C   0  0  0  0  0  0  0  0  0  0  0  0
    8.1105   -0.4658   18.4018 H   0  0  0  0  0  0  0  0  0  0  0  0
    4.9721    1.8050   16.9825 H   0  0  0  0  0  0  0  0  0  0  0  0
    3.8650    1.8174   19.2117 H   0  0  0  0  0  0  0  0  0  0  0  0
    4.9804    0.6156   21.1466 H   0  0  0  0  0  0  0  0  0  0  0  0
    8.8141   -0.2974   21.3037 C   0  0  0  0  0  0  0  0  0  0  0  0
    7.7604    0.1130   22.2858 C   0  0  0  0  0  0  0  0  0  0  0  0
    7.4649    1.1637   22.3134 H   0  0  0  0  0  0  0  0  0  0  0  0
    7.7187   -0.3791   23.2566 H   0  0  0  0  0  0  0  0  0  0  0  0
    9.4960   -1.0934   21.5975 H   0  0  0  0  0  0  0  0  0  0  0  0
    9.2401    0.4709   20.6587 H   0  0  0  0  0  0  0  0  0  0  0  0
    7.9183   -3.1239   21.1718 N   0  0  0  0  0  0  0  0  0  0  0  0
    7.2022   -4.2567   21.5059 O   0  0  0  0  0  0  0  0  0  0  0  0
    5.2649   -5.8504   22.0551 H   0  0  0  0  0  0  0  0  0  0  0  0
  1  2  2  3
  2  3  1  0
  3  4  1  0
  4  5  1  0
  5  6  1  0
  6  7  1  0
  7  8  1  0
  7  9  1  0
  6 10  1  0
  6 11  1  0
  5 12  1  0
  5 13  1  0
  4 14  1  0
  4 15  1  0
  3 16  1  0
  2 17  1  0
  1 18  1  0
 18 19  2  0
 19 20  1  0
 20 21  1  0
 21 22  1  0
 22 23  2  0
 23 24  1  0
 24 25  2  0
 25 26  1  0
 26 27  2  0
 27 28  1  0
 25 29  1  0
 24 30  1  0
 23 31  1  0
 21 32  1  0
 32 33  1  0
 33 34  1  0
 33 35  1  0
 32 36  1  0
 32 37  1  0
 20 38  2  0
 38 39  1  0
  1 40  1  0
  7  3  1  0
 39 18  1  0
 33 21  1  0
 27 22  1  0
M  END
>  <plip>  (1) 
-0.03333333333333333

>  <filename>  (1) 
[H][C](=[C]([H])[C]1([H])[C]([H])([H])[C]([H])([H])[C]([H])([H])[C]1([H])[H])[c]1[n][c]([C]2([c]3[c]([H])[n][c]([H])[c]([H])[c]3[H])[C]([H])([H])[C]2([H])[H])[n][o]1

$$$$
