
     RDKit          3D

 20 20  0  0  0  0  0  0  0  0999 V2000
    7.5931   -4.7444   23.4671 H   0  0  0  0  0  0  0  0  0  0  0  0
    8.1711   -3.8436   23.2713 C   0  0  0  0  0  0  0  0  0  0  0  0
    8.8884   -3.5853   24.0493 H   0  0  0  0  0  0  0  0  0  0  0  0
    8.0278   -3.0794   22.1920 C   0  0  0  0  0  0  0  0  0  0  0  0
    7.2484   -3.2581   21.4396 H   0  0  0  0  0  0  0  0  0  0  0  0
    8.8614   -1.8187   21.9496 C   0  0  0  0  0  0  0  0  0  0  0  0
    9.9376   -2.0578   21.9394 H   0  0  0  0  0  0  0  0  0  0  0  0
    8.6700   -1.0474   22.7140 H   0  0  0  0  0  0  0  0  0  0  0  0
    8.5385   -1.2019   20.6752 O   0  0  0  0  0  0  0  0  0  0  0  0
    7.1394   -0.8363   20.9240 O   0  0  0  0  0  0  0  0  0  0  0  0
    6.6258   -0.0234   19.8793 C   0  0  0  0  0  0  0  0  0  0  0  0
    7.1963    0.0234   18.6150 C   0  0  0  0  0  0  0  0  0  0  0  0
    8.1422   -0.4710   18.4347 H   0  0  0  0  0  0  0  0  0  0  0  0
    6.5907    0.6599   17.6097 N   0  0  0  0  0  0  0  0  0  0  0  0
    5.4209    1.2810   17.8589 C   0  0  0  0  0  0  0  0  0  0  0  0
    4.9558    1.7765   17.0116 H   0  0  0  0  0  0  0  0  0  0  0  0
    4.8222    1.3027   19.1273 C   0  0  0  0  0  0  0  0  0  0  0  0
    3.8865    1.8391   19.2485 H   0  0  0  0  0  0  0  0  0  0  0  0
    5.4461    0.6321   20.1781 C   0  0  0  0  0  0  0  0  0  0  0  0
    5.0620    0.5949   21.1911 H   0  0  0  0  0  0  0  0  0  0  0  0
  1  2  1  0
  2  3  1  0
  2  4  2  3
  4  5  1  0
  4  6  1  0
  6  7  1  0
  6  8  1  0
  6  9  1  0
  9 10  1  0
 10 11  1  0
 11 12  2  0
 12 13  1  0
 12 14  1  0
 14 15  2  0
 15 16  1  0
 15 17  1  0
 17 18  1  0
 17 19  2  0
 19 20  1  0
 19 11  1  0
M  END
>  <plip>  (1) 
-0.03571428571428571

>  <filename>  (1) 
[H][C]([H])=[C]([H])[C]([H])([H])[O][O][c]1[c]([H])[n][c]([H])[c]([H])[c]1[H]

$$$$
