
     RDKit          3D

 48 50  0  0  0  0  0  0  0  0999 V2000
    5.8064   -2.7021   20.9668 C   0  0  0  0  0  0  0  0  0  0  0  0
    7.2284   -2.1756   21.1765 C   0  0  0  0  0  0  0  0  0  0  0  0
    7.4919   -0.6687   21.0128 C   0  0  0  0  0  0  0  0  0  0  0  0
    7.3520   -0.0046   22.2875 N   0  0  0  0  0  0  0  0  0  0  0  0
    7.8810    1.2190   22.5230 C   0  0  0  0  0  0  0  0  0  0  0  0
    8.5622    1.7843   21.6698 O   0  0  0  0  0  0  0  0  0  0  0  0
    7.5899    1.8011   23.8780 C   0  0  0  0  0  0  0  0  0  0  0  0
    8.0266    3.0424   24.2749 C   0  0  0  0  0  0  0  0  0  0  0  0
    8.8158    4.0637   23.5295 C   0  0  0  0  0  0  0  0  0  0  0  0
    9.0385    4.9647   24.1112 H   0  0  0  0  0  0  0  0  0  0  0  0
    9.7442    3.6117   23.1745 H   0  0  0  0  0  0  0  0  0  0  0  0
    8.2793    4.3379   22.6181 H   0  0  0  0  0  0  0  0  0  0  0  0
    7.5576    3.1749   25.5502 N   0  0  0  0  0  0  0  0  0  0  0  0
    6.8546    2.0456   25.8915 C   0  0  0  0  0  0  0  0  0  0  0  0
    6.1898    1.8376   27.2043 C   0  0  0  0  0  0  0  0  0  0  0  0
    6.4168    2.7074   28.2965 C   0  0  0  0  0  0  0  0  0  0  0  0
    5.7747    2.4874   29.5227 C   0  0  0  0  0  0  0  0  0  0  0  0
    5.9057    3.2590   30.6383 O   0  0  0  0  0  0  0  0  0  0  0  0
    6.7485    4.3896   30.6262 C   0  0  0  0  0  0  0  0  0  0  0  0
    7.7914    4.1160   30.4256 H   0  0  0  0  0  0  0  0  0  0  0  0
    6.4216    5.1326   29.8881 H   0  0  0  0  0  0  0  0  0  0  0  0
    6.6782    4.8220   31.6257 H   0  0  0  0  0  0  0  0  0  0  0  0
    4.9060    1.3935   29.6734 C   0  0  0  0  0  0  0  0  0  0  0  0
    4.6818    0.5346   28.6016 C   0  0  0  0  0  0  0  0  0  0  0  0
    5.3148    0.7475   27.3747 C   0  0  0  0  0  0  0  0  0  0  0  0
    5.1418    0.0672   26.5433 H   0  0  0  0  0  0  0  0  0  0  0  0
    4.0110   -0.3146   28.7146 H   0  0  0  0  0  0  0  0  0  0  0  0
    4.4244    1.2431   30.6336 H   0  0  0  0  0  0  0  0  0  0  0  0
    7.1004    3.5473   28.2073 H   0  0  0  0  0  0  0  0  0  0  0  0
    6.8607    1.1992   24.8910 N   0  0  0  0  0  0  0  0  0  0  0  0
    7.6390    4.0041   26.1079 H   0  0  0  0  0  0  0  0  0  0  0  0
    6.7908   -0.4053   23.0211 H   0  0  0  0  0  0  0  0  0  0  0  0
    6.6883    0.0281   19.9259 C   0  0  0  0  0  0  0  0  0  0  0  0
    5.4532    0.6592   20.1361 C   0  0  0  0  0  0  0  0  0  0  0  0
    4.8291    1.2853   19.0567 C   0  0  0  0  0  0  0  0  0  0  0  0
    5.4518    1.2550   17.8040 C   0  0  0  0  0  0  0  0  0  0  0  0
    6.6196    0.6354   17.5743 N   0  0  0  0  0  0  0  0  0  0  0  0
    7.2056    0.0495   18.6262 C   0  0  0  0  0  0  0  0  0  0  0  0
    8.1626   -0.4346   18.4268 H   0  0  0  0  0  0  0  0  0  0  0  0
    4.9961    1.7470   16.9477 H   0  0  0  0  0  0  0  0  0  0  0  0
    3.8897    1.8095   19.1817 H   0  0  0  0  0  0  0  0  0  0  0  0
    5.0082    0.6809   21.1332 H   0  0  0  0  0  0  0  0  0  0  0  0
    8.5460   -0.5659   20.7137 H   0  0  0  0  0  0  0  0  0  0  0  0
    7.8797   -2.6885   20.4791 H   0  0  0  0  0  0  0  0  0  0  0  0
    7.5940   -2.4656   22.1685 H   0  0  0  0  0  0  0  0  0  0  0  0
    5.8129   -3.7965   20.9849 H   0  0  0  0  0  0  0  0  0  0  0  0
    5.4218   -2.3996   19.9871 H   0  0  0  0  0  0  0  0  0  0  0  0
    5.1017   -2.3560   21.7281 H   0  0  0  0  0  0  0  0  0  0  0  0
  1  2  1  0
  2  3  1  0
  3  4  1  0
  4  5  1  0
  5  6  2  0
  5  7  1  0
  7  8  2  0
  8  9  1  0
  9 10  1  0
  9 11  1  0
  9 12  1  0
  8 13  1  0
 13 14  1  0
 14 15  1  0
 15 16  2  0
 16 17  1  0
 17 18  1  0
 18 19  1  0
 19 20  1  0
 19 21  1  0
 19 22  1  0
 17 23  2  0
 23 24  1  0
 24 25  2  0
 25 26  1  0
 24 27  1  0
 23 28  1  0
 16 29  1  0
 14 30  2  0
 13 31  1  0
  4 32  1  0
  3 33  1  0
 33 34  2  0
 34 35  1  0
 35 36  2  0
 36 37  1  0
 37 38  2  0
 38 39  1  0
 36 40  1  0
 35 41  1  0
 34 42  1  0
  3 43  1  0
  2 44  1  0
  2 45  1  0
  1 46  1  0
  1 47  1  0
  1 48  1  0
 30  7  1  0
 38 33  1  0
 25 15  1  0
M  END
>  <plip>  (1) 
-0.10344827586206896

>  <filename>  (1) 
[H][c]1[n][c]([H])[c]([C]([H])([N]([H])[C](=[O])[c]2[n][c](-[c]3[c]([H])[c]([H])[c]([H])[c]([O][C]([H])([H])[H])[c]3[H])[n]([H])[c]2[C]([H])([H])[H])[C]([H])([H])[C]([H])([H])[H])[c]([H])[c]1[H]

$$$$
