
     RDKit          3D

 33 35  0  0  0  0  0  0  0  0999 V2000
    4.9716    1.8017   17.0027 H   0  0  0  0  0  0  0  0  0  0  0  0
    5.4488    1.2882   17.8319 C   0  0  0  0  0  0  0  0  0  0  0  0
    6.6018    0.6592   17.5548 N   0  0  0  0  0  0  0  0  0  0  0  0
    7.2114    0.0171   18.5595 C   0  0  0  0  0  0  0  0  0  0  0  0
    8.1482   -0.4828   18.3143 H   0  0  0  0  0  0  0  0  0  0  0  0
    6.7185   -0.0307   19.8773 C   0  0  0  0  0  0  0  0  0  0  0  0
    7.4019   -0.7084   20.8927 N   0  0  0  0  0  0  0  0  0  0  0  0
    6.9019   -0.6860   22.1433 N   0  0  0  0  0  0  0  0  0  0  0  0
    7.7360   -1.2658   22.9481 C   0  0  0  0  0  0  0  0  0  0  0  0
    7.4359   -1.4545   24.3800 C   0  0  0  0  0  0  0  0  0  0  0  0
    7.7660   -2.7032   24.9389 C   0  0  0  0  0  0  0  0  0  0  0  0
    8.3702   -3.3916   24.3522 H   0  0  0  0  0  0  0  0  0  0  0  0
    7.3202   -3.0748   26.2022 C   0  0  0  0  0  0  0  0  0  0  0  0
    7.5224   -4.0712   26.5876 H   0  0  0  0  0  0  0  0  0  0  0  0
    6.5980   -2.1641   26.9767 C   0  0  0  0  0  0  0  0  0  0  0  0
    6.1954   -2.4682   27.9389 H   0  0  0  0  0  0  0  0  0  0  0  0
    6.3861   -0.8657   26.5063 C   0  0  0  0  0  0  0  0  0  0  0  0
    5.9171   -0.1419   27.1726 H   0  0  0  0  0  0  0  0  0  0  0  0
    6.7909   -0.4920   25.2117 C   0  0  0  0  0  0  0  0  0  0  0  0
    6.5082    0.9439   24.7485 C   0  0  0  0  0  0  0  0  0  0  0  0
    5.4398    1.0115   23.9301 F   0  0  0  0  0  0  0  0  0  0  0  0
    6.2450    1.7787   25.7755 F   0  0  0  0  0  0  0  0  0  0  0  0
    7.5501    1.4795   24.0907 F   0  0  0  0  0  0  0  0  0  0  0  0
    8.9467   -1.8024   22.2220 C   0  0  0  0  0  0  0  0  0  0  0  0
    8.9080   -2.8955   22.1641 H   0  0  0  0  0  0  0  0  0  0  0  0
    9.8824   -1.5294   22.7104 H   0  0  0  0  0  0  0  0  0  0  0  0
    8.7810   -1.1756   20.8315 C   0  0  0  0  0  0  0  0  0  0  0  0
    9.4621   -0.3278   20.6683 H   0  0  0  0  0  0  0  0  0  0  0  0
    8.9304   -1.8847   20.0075 H   0  0  0  0  0  0  0  0  0  0  0  0
    5.5081    0.6375   20.1506 C   0  0  0  0  0  0  0  0  0  0  0  0
    5.1194    0.6322   21.1708 H   0  0  0  0  0  0  0  0  0  0  0  0
    4.8596    1.2975   19.1041 C   0  0  0  0  0  0  0  0  0  0  0  0
    3.9190    1.8189   19.2695 H   0  0  0  0  0  0  0  0  0  0  0  0
  1  2  1  0
  2  3  2  0
  3  4  1  0
  4  5  1  0
  4  6  2  0
  6  7  1  0
  7  8  1  0
  8  9  2  0
  9 10  1  0
 10 11  2  0
 11 12  1  0
 11 13  1  0
 13 14  1  0
 13 15  2  0
 15 16  1  0
 15 17  1  0
 17 18  1  0
 17 19  2  0
 19 20  1  0
 20 21  1  0
 20 22  1  0
 20 23  1  0
  9 24  1  0
 24 25  1  0
 24 26  1  0
 24 27  1  0
 27 28  1  0
 27 29  1  0
  6 30  1  0
 30 31  1  0
 30 32  2  0
 32 33  1  0
 32  2  1  0
 27  7  1  0
 19 10  1  0
M  END
>  <plip>  (1) 
-0.07142857142857142

>  <filename>  (1) 
[H][c]1[n][c]([H])[c]([N]2[N]=[C]([c]3[c]([H])[c]([H])[c]([H])[c]([H])[c]3[C]([F])([F])[F])[C]([H])([H])[C]2([H])[H])[c]([H])[c]1[H]

$$$$
