
     RDKit          3D

 37 38  0  0  0  0  0  0  0  0999 V2000
    4.8487    0.9614   24.1620 O   0  0  0  0  0  0  0  0  0  0  0  0
    5.7739    0.6131   24.8752 C   0  0  0  0  0  0  0  0  0  0  0  0
    5.6288    0.3301   26.3450 C   0  0  0  0  0  0  0  0  0  0  0  0
    5.6417   -1.1525   26.5022 C   0  0  0  0  0  0  0  0  0  0  0  0
    4.4806   -1.9260   26.3608 C   0  0  0  0  0  0  0  0  0  0  0  0
    4.5142   -3.2840   26.6544 C   0  0  0  0  0  0  0  0  0  0  0  0
    5.7467   -3.8222   27.0530 C   0  0  0  0  0  0  0  0  0  0  0  0
    5.9711   -5.2629   27.3618 C   0  0  0  0  0  0  0  0  0  0  0  0
    6.3859   -5.9426   26.2759 F   0  0  0  0  0  0  0  0  0  0  0  0
    6.9209   -5.4340   28.3041 F   0  0  0  0  0  0  0  0  0  0  0  0
    4.8574   -5.8655   27.8080 F   0  0  0  0  0  0  0  0  0  0  0  0
    6.8646   -2.9881   27.1079 C   0  0  0  0  0  0  0  0  0  0  0  0
    6.8295   -1.6938   26.7905 N   0  0  0  0  0  0  0  0  0  0  0  0
    7.8072   -3.3832   27.4650 H   0  0  0  0  0  0  0  0  0  0  0  0
    3.6021   -3.8821   26.6105 H   0  0  0  0  0  0  0  0  0  0  0  0
    3.5770   -1.4332   26.0354 H   0  0  0  0  0  0  0  0  0  0  0  0
    4.7040    0.7747   26.7104 H   0  0  0  0  0  0  0  0  0  0  0  0
    6.4748    0.7574   26.8898 H   0  0  0  0  0  0  0  0  0  0  0  0
    7.0440    0.4208   24.4255 N   0  0  0  0  0  0  0  0  0  0  0  0
    7.4087    0.5531   23.0278 C   0  0  0  0  0  0  0  0  0  0  0  0
    7.1078   -0.7229   22.2256 C   0  0  0  0  0  0  0  0  0  0  0  0
    7.5073   -0.5979   20.8630 O   0  0  0  0  0  0  0  0  0  0  0  0
    6.7039    0.0309   19.9578 C   0  0  0  0  0  0  0  0  0  0  0  0
    5.4792    0.6561   20.2177 C   0  0  0  0  0  0  0  0  0  0  0  0
    4.8354    1.2872   19.1390 C   0  0  0  0  0  0  0  0  0  0  0  0
    5.4160    1.2757   17.8695 C   0  0  0  0  0  0  0  0  0  0  0  0
    6.5740    0.6432   17.6037 N   0  0  0  0  0  0  0  0  0  0  0  0
    7.1842    0.0404   18.6267 C   0  0  0  0  0  0  0  0  0  0  0  0
    8.1175   -0.4808   18.4261 H   0  0  0  0  0  0  0  0  0  0  0  0
    4.9498    1.7921   17.0330 H   0  0  0  0  0  0  0  0  0  0  0  0
    3.8932    1.8011   19.2777 H   0  0  0  0  0  0  0  0  0  0  0  0
    5.0424    0.6688   21.2199 H   0  0  0  0  0  0  0  0  0  0  0  0
    6.0433   -0.9723   22.3048 H   0  0  0  0  0  0  0  0  0  0  0  0
    7.6827   -1.5720   22.6144 H   0  0  0  0  0  0  0  0  0  0  0  0
    6.8570    1.3950   22.5862 H   0  0  0  0  0  0  0  0  0  0  0  0
    8.4758    0.7845   22.9589 H   0  0  0  0  0  0  0  0  0  0  0  0
    7.6797   -0.0020   25.0855 H   0  0  0  0  0  0  0  0  0  0  0  0
  1  2  2  0
  2  3  1  0
  3  4  1  0
  4  5  2  0
  5  6  1  0
  6  7  2  0
  7  8  1  0
  8  9  1  0
  8 10  1  0
  8 11  1  0
  7 12  1  0
 12 13  2  0
 12 14  1  0
  6 15  1  0
  5 16  1  0
  3 17  1  0
  3 18  1  0
  2 19  1  0
 19 20  1  0
 20 21  1  0
 21 22  1  0
 22 23  1  0
 23 24  2  0
 24 25  1  0
 25 26  2  0
 26 27  1  0
 27 28  2  0
 28 29  1  0
 26 30  1  0
 25 31  1  0
 24 32  1  0
 21 33  1  0
 21 34  1  0
 20 35  1  0
 20 36  1  0
 19 37  1  0
 13  4  1  0
 28 23  1  0
M  END
>  <plip>  (1) 
-0.07142857142857142

>  <filename>  (1) 
[H][c]1[n][c]([H])[c]([O][C]([H])([H])[C]([H])([H])[N]([H])[C](=[O])[C]([H])([H])[c]2[n][c]([H])[c]([C]([F])([F])[F])[c]([H])[c]2[H])[c]([H])[c]1[H]

$$$$
