
     RDKit          3D

 46 48  0  0  0  0  0  0  0  0999 V2000
    6.6097   -5.2522   24.4649 C   0  0  0  0  0  0  0  0  0  0  0  0
    6.6582   -4.6793   25.8924 C   0  0  0  0  0  0  0  0  0  0  0  0
    7.6159   -5.4517   26.8205 C   0  0  0  0  0  0  0  0  0  0  0  0
    9.0986   -5.2167   26.4898 C   0  0  0  0  0  0  0  0  0  0  0  0
    9.4951   -3.7333   26.4148 C   0  0  0  0  0  0  0  0  0  0  0  0
    8.5094   -2.8702   25.5902 C   0  0  0  0  0  0  0  0  0  0  0  0
    8.7714   -3.0698   24.0822 C   0  0  0  0  0  0  0  0  0  0  0  0
    9.4648   -3.9925   23.6780 O   0  0  0  0  0  0  0  0  0  0  0  0
    8.1683   -2.2172   23.1655 N   0  0  0  0  0  0  0  0  0  0  0  0
    7.5137   -0.9222   23.4410 C   0  0  0  0  0  0  0  0  0  0  0  0
    7.6782    0.0294   22.2333 C   0  0  0  0  0  0  0  0  0  0  0  0
    7.1167   -0.5989   21.0339 N   0  0  0  0  0  0  0  0  0  0  0  0
    6.5879    0.1441   19.9530 C   0  0  0  0  0  0  0  0  0  0  0  0
    5.3851    0.8545   20.1234 C   0  0  0  0  0  0  0  0  0  0  0  0
    4.7853    1.4543   19.0101 C   0  0  0  0  0  0  0  0  0  0  0  0
    5.4163    1.3699   17.7657 C   0  0  0  0  0  0  0  0  0  0  0  0
    6.5760    0.7188   17.5733 N   0  0  0  0  0  0  0  0  0  0  0  0
    7.1281    0.1178   18.6384 C   0  0  0  0  0  0  0  0  0  0  0  0
    8.0445   -0.4445   18.4595 H   0  0  0  0  0  0  0  0  0  0  0  0
    4.9779    1.8281   16.8832 H   0  0  0  0  0  0  0  0  0  0  0  0
    3.8419    1.9814   19.0996 H   0  0  0  0  0  0  0  0  0  0  0  0
    4.9393    0.8844   21.1149 H   0  0  0  0  0  0  0  0  0  0  0  0
    7.7267   -1.8844   20.7308 C   0  0  0  0  0  0  0  0  0  0  0  0
    7.6642   -2.8378   21.9217 C   0  0  0  0  0  0  0  0  0  0  0  0
    6.6131   -3.1527   22.0586 H   0  0  0  0  0  0  0  0  0  0  0  0
    8.2688   -3.7211   21.6920 H   0  0  0  0  0  0  0  0  0  0  0  0
    8.7752   -1.7769   20.3942 H   0  0  0  0  0  0  0  0  0  0  0  0
    7.1388   -2.3258   19.9173 H   0  0  0  0  0  0  0  0  0  0  0  0
    8.7551    0.2433   22.1068 H   0  0  0  0  0  0  0  0  0  0  0  0
    7.1647    0.9817   22.4217 H   0  0  0  0  0  0  0  0  0  0  0  0
    7.9324   -0.4360   24.3307 H   0  0  0  0  0  0  0  0  0  0  0  0
    6.4332   -1.0770   23.6027 H   0  0  0  0  0  0  0  0  0  0  0  0
    7.0268   -3.1812   25.9511 C   0  0  0  0  0  0  0  0  0  0  0  0
    6.3455   -2.6091   25.3121 H   0  0  0  0  0  0  0  0  0  0  0  0
    6.8263   -2.8189   26.9685 H   0  0  0  0  0  0  0  0  0  0  0  0
    8.6867   -1.8109   25.8193 H   0  0  0  0  0  0  0  0  0  0  0  0
    9.5788   -3.3099   27.4181 H   0  0  0  0  0  0  0  0  0  0  0  0
   10.4907   -3.6760   25.9561 H   0  0  0  0  0  0  0  0  0  0  0  0
    9.7246   -5.7200   27.2379 H   0  0  0  0  0  0  0  0  0  0  0  0
    9.3222   -5.6705   25.5172 H   0  0  0  0  0  0  0  0  0  0  0  0
    7.3983   -6.5252   26.7805 H   0  0  0  0  0  0  0  0  0  0  0  0
    7.4113   -5.1494   27.8571 H   0  0  0  0  0  0  0  0  0  0  0  0
    5.6420   -4.7767   26.3085 H   0  0  0  0  0  0  0  0  0  0  0  0
    7.6049   -5.3564   24.0220 H   0  0  0  0  0  0  0  0  0  0  0  0
    6.0256   -4.6018   23.8023 H   0  0  0  0  0  0  0  0  0  0  0  0
    6.1364   -6.2399   24.4496 H   0  0  0  0  0  0  0  0  0  0  0  0
  1  2  1  0
  2  3  1  0
  3  4  1  0
  4  5  1  0
  5  6  1  0
  6  7  1  0
  7  8  2  0
  7  9  1  0
  9 10  1  0
 10 11  1  0
 11 12  1  0
 12 13  1  0
 13 14  2  0
 14 15  1  0
 15 16  2  0
 16 17  1  0
 17 18  2  0
 18 19  1  0
 16 20  1  0
 15 21  1  0
 14 22  1  0
 12 23  1  0
 23 24  1  0
 24 25  1  0
 24 26  1  0
 23 27  1  0
 23 28  1  0
 11 29  1  0
 11 30  1  0
 10 31  1  0
 10 32  1  0
  6 33  1  0
 33 34  1  0
 33 35  1  0
  6 36  1  0
  5 37  1  0
  5 38  1  0
  4 39  1  0
  4 40  1  0
  3 41  1  0
  3 42  1  0
  2 43  1  0
  1 44  1  0
  1 45  1  0
  1 46  1  0
 33  2  1  0
 24  9  1  0
 18 13  1  0
M  END
>  <plip>  (1) 
-0.07142857142857142

>  <filename>  (1) 
[H][c]1[n][c]([H])[c]([N]2[C]([H])([H])[C]([H])([H])[N]([C](=[O])[C]3([H])[C]([H])([H])[C]([H])([H])[C]([H])([H])[C]([H])([C]([H])([H])[H])[C]3([H])[H])[C]([H])([H])[C]2([H])[H])[c]([H])[c]1[H]

$$$$
