
     RDKit          3D

 23 24  0  0  0  0  0  0  0  0999 V2000
    4.9334    1.8008   16.9924 H   0  0  0  0  0  0  0  0  0  0  0  0
    5.3956    1.2909   17.8340 C   0  0  0  0  0  0  0  0  0  0  0  0
    6.5594    0.6625   17.5770 N   0  0  0  0  0  0  0  0  0  0  0  0
    7.1625    0.0402   18.5934 C   0  0  0  0  0  0  0  0  0  0  0  0
    8.1223   -0.4325   18.3913 H   0  0  0  0  0  0  0  0  0  0  0  0
    6.6351   -0.0428   19.9090 C   0  0  0  0  0  0  0  0  0  0  0  0
    7.3959   -0.6590   20.9273 N   0  0  0  0  0  0  0  0  0  0  0  0
    6.9681   -1.5463   21.7407 C   0  0  0  0  0  0  0  0  0  0  0  0
    7.8598   -1.9627   22.8415 C   0  0  0  0  0  0  0  0  0  0  0  0
    7.3962   -3.1324   24.0323 S   0  0  0  0  0  0  0  0  0  0  0  0
    8.9574   -3.0551   24.7598 C   0  0  0  0  0  0  0  0  0  0  0  0
    9.3589   -4.0235   26.1240 Cl  0  0  0  0  0  0  0  0  0  0  0  0
    9.7833   -2.1723   24.1300 C   0  0  0  0  0  0  0  0  0  0  0  0
   10.7997   -1.9893   24.4500 H   0  0  0  0  0  0  0  0  0  0  0  0
    9.1479   -1.5413   23.0296 C   0  0  0  0  0  0  0  0  0  0  0  0
    9.5956   -0.8022   22.3650 H   0  0  0  0  0  0  0  0  0  0  0  0
    5.7805   -2.2176   21.5991 N   0  0  0  0  0  0  0  0  0  0  0  0
    5.2030   -1.7270   20.9347 H   0  0  0  0  0  0  0  0  0  0  0  0
    5.3157   -2.4031   22.4730 H   0  0  0  0  0  0  0  0  0  0  0  0
    5.4244    0.6259   20.1533 C   0  0  0  0  0  0  0  0  0  0  0  0
    5.0268    0.6428   21.1664 H   0  0  0  0  0  0  0  0  0  0  0  0
    4.7974    1.3059   19.0975 C   0  0  0  0  0  0  0  0  0  0  0  0
    3.8694    1.8529   19.2460 H   0  0  0  0  0  0  0  0  0  0  0  0
  1  2  1  0
  2  3  2  0
  3  4  1  0
  4  5  1  0
  4  6  2  0
  6  7  1  0
  7  8  2  3
  8  9  1  0
  9 10  1  0
 10 11  1  0
 11 12  1  0
 11 13  2  0
 13 14  1  0
 13 15  1  0
 15 16  1  0
  8 17  1  0
 17 18  1  0
 17 19  1  0
  6 20  1  0
 20 21  1  0
 20 22  2  0
 22 23  1  0
 22  2  1  0
 15  9  2  0
M  END
>  <plip>  (1) 
-0.10714285714285714

>  <filename>  (1) 
[H][c]1[n][c]([H])[c]([N]=[C]([c]2[s][c]([Cl])[c]([H])[c]2[H])[N]([H])[H])[c]([H])[c]1[H]

$$$$
