
     RDKit          3D

 47 49  0  0  0  0  0  0  0  0999 V2000
    7.6907    7.2031   23.7706 N   0  0  0  0  0  4  0  0  0  0  0  0
    7.1697    5.7789   23.9769 C   0  0  2  0  0  0  0  0  0  0  0  0
    5.9195    5.7379   24.8791 C   0  0  0  0  0  0  0  0  0  0  0  0
    6.2239    4.9046   25.9942 O   0  0  0  0  0  0  0  0  0  0  0  0
    7.6390    4.8111   26.1298 C   0  0  0  0  0  0  0  0  0  0  0  0
    8.2171    4.9122   24.7171 C   0  0  1  0  0  0  0  0  0  0  0  0
    8.4537    3.5463   24.0882 N   0  0  0  0  0  4  0  0  0  0  0  0
    9.1968    3.6596   22.7618 C   0  0  0  0  0  0  0  0  0  0  0  0
    9.5091    2.2848   22.1900 C   0  0  0  0  0  0  0  0  0  0  0  0
    8.2571    1.4418   22.0087 N   0  0  0  0  0  4  0  0  0  0  0  0
    8.6175    0.0893   21.4700 C   0  0  0  0  0  0  0  0  0  0  0  0
    7.4088   -0.7176   20.9836 C   0  0  0  0  0  0  0  0  0  0  0  0
    6.6428   -0.0088   19.8922 C   0  0  0  0  0  0  0  0  0  0  0  0
    5.4359    0.6543   20.1453 C   0  0  0  0  0  0  0  0  0  0  0  0
    4.7986    1.3207   19.0961 C   0  0  0  0  0  0  0  0  0  0  0  0
    5.3916    1.3024   17.8292 C   0  0  0  0  0  0  0  0  0  0  0  0
    6.5587    0.6941   17.5686 N   0  0  0  0  0  0  0  0  0  0  0  0
    7.1583    0.0660   18.5864 C   0  0  0  0  0  0  0  0  0  0  0  0
    8.1099   -0.4168   18.3624 H   0  0  0  0  0  0  0  0  0  0  0  0
    4.9140    1.7926   16.9828 H   0  0  0  0  0  0  0  0  0  0  0  0
    3.8662    1.8489   19.2453 H   0  0  0  0  0  0  0  0  0  0  0  0
    5.0145    0.6383   21.1575 H   0  0  0  0  0  0  0  0  0  0  0  0
    7.7865   -1.6823   20.6231 H   0  0  0  0  0  0  0  0  0  0  0  0
    6.7497   -0.9330   21.8334 H   0  0  0  0  0  0  0  0  0  0  0  0
    9.3179    0.2236   20.6378 H   0  0  0  0  0  0  0  0  0  0  0  0
    9.1523   -0.4727   22.2507 H   0  0  0  0  0  0  0  0  0  0  0  0
    7.4925    1.3411   23.3373 C   0  0  0  0  0  0  0  0  0  0  0  0
    7.1648    2.7153   23.9035 C   0  0  0  0  0  0  0  0  0  0  0  0
    6.6374    2.6295   24.8555 H   0  0  0  0  0  0  0  0  0  0  0  0
    6.4992    3.2221   23.1992 H   0  0  0  0  0  0  0  0  0  0  0  0
    8.1218    0.8149   24.0670 H   0  0  0  0  0  0  0  0  0  0  0  0
    6.5718    0.7681   23.2004 H   0  0  0  0  0  0  0  0  0  0  0  0
    7.6248    1.8915   21.2905 H   0  0  0  0  0  0  0  0  0  0  0  0
   10.1700    1.7760   22.9053 H   0  0  0  0  0  0  0  0  0  0  0  0
   10.0462    2.3896   21.2407 H   0  0  0  0  0  0  0  0  0  0  0  0
   10.1260    4.2296   22.8832 H   0  0  0  0  0  0  0  0  0  0  0  0
    8.5761    4.1931   22.0332 H   0  0  0  0  0  0  0  0  0  0  0  0
    9.0759    2.9917   24.7362 H   0  0  0  0  0  0  0  0  0  0  0  0
    9.1716    5.4383   24.6974 H   0  0  0  0  0  0  0  0  0  0  0  0
    7.8742    3.8427   26.5831 H   0  0  0  0  0  0  0  0  0  0  0  0
    8.0509    5.6165   26.7589 H   0  0  0  0  0  0  0  0  0  0  0  0
    5.6694    6.7640   25.1889 H   0  0  0  0  0  0  0  0  0  0  0  0
    5.0484    5.3116   24.3703 H   0  0  0  0  0  0  0  0  0  0  0  0
    6.9472    5.3517   22.9977 H   0  0  0  0  0  0  0  0  0  0  0  0
    8.5280    7.2067   23.1590 H   0  0  0  0  0  0  0  0  0  0  0  0
    7.9512    7.6230   24.6844 H   0  0  0  0  0  0  0  0  0  0  0  0
    6.9817    7.8148   23.3246 H   0  0  0  0  0  0  0  0  0  0  0  0
  1  2  1  0
  2  3  1  0
  3  4  1  0
  4  5  1  0
  5  6  1  0
  6  7  1  0
  7  8  1  0
  8  9  1  0
  9 10  1  0
 10 11  1  0
 11 12  1  0
 12 13  1  0
 13 14  2  0
 14 15  1  0
 15 16  2  0
 16 17  1  0
 17 18  2  0
 18 19  1  0
 16 20  1  0
 15 21  1  0
 14 22  1  0
 12 23  1  0
 12 24  1  0
 11 25  1  0
 11 26  1  0
 10 27  1  0
 27 28  1  0
 28 29  1  0
 28 30  1  0
 27 31  1  0
 27 32  1  0
 10 33  1  0
  9 34  1  0
  9 35  1  0
  8 36  1  0
  8 37  1  0
  7 38  1  0
  6 39  1  1
  5 40  1  0
  5 41  1  0
  3 42  1  0
  3 43  1  0
  2 44  1  6
  1 45  1  0
  1 46  1  0
  1 47  1  0
  6  2  1  0
 28  7  1  0
 18 13  1  0
M  CHG  3   1   1   7   1  10   1
M  END
>  <plip>  (1) 
-0.07142857142857142

>  <filename>  (1) 
[H][c]1[n][c]([H])[c]([C]([H])([H])[C]([H])([H])[N+]2([H])[C]([H])([H])[C]([H])([H])[N+]([H])([C@]3([H])[C]([H])([H])[O][C]([H])([H])[C@@]3([H])[N+]([H])([H])[H])[C]([H])([H])[C]2([H])[H])[c]([H])[c]1[H]

$$$$
