
     RDKit          3D

 54 56  0  0  0  0  0  0  0  0999 V2000
    8.4039    6.6165   29.3935 C   0  0  0  0  0  0  0  0  0  0  0  0
    7.2908    5.8180   29.7481 O   0  0  0  0  0  0  0  0  0  0  0  0
    6.8335    4.8702   28.8809 C   0  0  0  0  0  0  0  0  0  0  0  0
    5.6573    4.2043   29.2613 C   0  0  0  0  0  0  0  0  0  0  0  0
    5.1066    3.2429   28.4130 C   0  0  0  0  0  0  0  0  0  0  0  0
    5.7286    2.9232   27.2018 C   0  0  0  0  0  0  0  0  0  0  0  0
    6.9192    3.5616   26.8223 C   0  0  0  0  0  0  0  0  0  0  0  0
    7.5570    3.1911   25.5375 C   0  0  0  0  0  0  0  0  0  0  0  0
    7.2081    2.1939   24.7663 N   0  0  0  0  0  0  0  0  0  0  0  0
    7.9556    2.3120   23.5995 C   0  0  0  0  0  0  0  0  0  0  0  0
    7.7776    1.5105   22.3189 C   0  0  0  0  0  0  0  0  0  0  0  0
    8.1551    1.9891   21.2501 O   0  0  0  0  0  0  0  0  0  0  0  0
    7.2194    0.2347   22.3809 N   0  0  0  0  0  0  0  0  0  0  0  0
    6.8687   -0.4275   23.6467 C   0  0  0  0  0  0  0  0  0  0  0  0
    7.6755   -0.3106   24.3806 H   0  0  0  0  0  0  0  0  0  0  0  0
    6.7109   -1.5000   23.4827 H   0  0  0  0  0  0  0  0  0  0  0  0
    5.9580    0.0003   24.0814 H   0  0  0  0  0  0  0  0  0  0  0  0
    7.2483   -0.6147   21.1643 C   0  0  0  0  0  0  0  0  0  0  0  0
    6.6155    0.0733   19.9498 C   0  0  0  0  0  0  0  0  0  0  0  0
    5.3528    0.6904   20.0519 C   0  0  0  0  0  0  0  0  0  0  0  0
    4.7965    1.3012   18.9233 C   0  0  0  0  0  0  0  0  0  0  0  0
    5.5175    1.2818   17.7253 C   0  0  0  0  0  0  0  0  0  0  0  0
    6.7145    0.6977   17.5986 N   0  0  0  0  0  0  0  0  0  0  0  0
    7.2348    0.1237   18.6958 C   0  0  0  0  0  0  0  0  0  0  0  0
    8.2106   -0.3358   18.5422 H   0  0  0  0  0  0  0  0  0  0  0  0
    5.1131    1.7434   16.8247 H   0  0  0  0  0  0  0  0  0  0  0  0
    3.8332    1.8021   18.9599 H   0  0  0  0  0  0  0  0  0  0  0  0
    4.8230    0.7150   21.0057 H   0  0  0  0  0  0  0  0  0  0  0  0
    8.6496   -1.2859   20.9413 C   0  0  0  0  0  0  0  0  0  0  0  0
    8.9025   -2.4112   21.9632 C   0  0  0  0  0  0  0  0  0  0  0  0
    9.8489   -2.9152   21.7416 H   0  0  0  0  0  0  0  0  0  0  0  0
    8.1095   -3.1715   21.9522 H   0  0  0  0  0  0  0  0  0  0  0  0
    8.9885   -2.0180   22.9847 H   0  0  0  0  0  0  0  0  0  0  0  0
    9.8517   -0.3247   20.9089 C   0  0  0  0  0  0  0  0  0  0  0  0
    9.9926    0.1767   21.8769 H   0  0  0  0  0  0  0  0  0  0  0  0
    9.7283    0.4486   20.1445 H   0  0  0  0  0  0  0  0  0  0  0  0
   10.7683   -0.8862   20.6981 H   0  0  0  0  0  0  0  0  0  0  0  0
    8.5670   -1.7538   19.9552 H   0  0  0  0  0  0  0  0  0  0  0  0
    6.5633   -1.4504   21.3891 H   0  0  0  0  0  0  0  0  0  0  0  0
    8.8286    3.3711   23.7253 C   0  0  0  0  0  0  0  0  0  0  0  0
    9.7884    4.0137   22.7820 C   0  0  0  0  0  0  0  0  0  0  0  0
   10.6577    4.4316   23.2955 H   0  0  0  0  0  0  0  0  0  0  0  0
    9.3061    4.8381   22.2449 H   0  0  0  0  0  0  0  0  0  0  0  0
   10.1349    3.2893   22.0426 H   0  0  0  0  0  0  0  0  0  0  0  0
    8.5536    3.9127   24.9509 N   0  0  0  0  0  0  0  0  0  0  0  0
    8.9981    4.7191   25.3463 H   0  0  0  0  0  0  0  0  0  0  0  0
    7.4558    4.5564   27.6664 C   0  0  0  0  0  0  0  0  0  0  0  0
    8.3454    5.1135   27.3925 H   0  0  0  0  0  0  0  0  0  0  0  0
    5.2880    2.1840   26.5370 H   0  0  0  0  0  0  0  0  0  0  0  0
    4.1774    2.7491   28.6846 H   0  0  0  0  0  0  0  0  0  0  0  0
    5.1960    4.4706   30.2084 H   0  0  0  0  0  0  0  0  0  0  0  0
    8.5424    7.3050   30.2261 H   0  0  0  0  0  0  0  0  0  0  0  0
    9.3184    6.0217   29.2688 H   0  0  0  0  0  0  0  0  0  0  0  0
    8.2302    7.1949   28.4749 H   0  0  0  0  0  0  0  0  0  0  0  0
  1  2  1  0
  2  3  1  0
  3  4  2  0
  4  5  1  0
  5  6  2  0
  6  7  1  0
  7  8  1  0
  8  9  2  0
  9 10  1  0
 10 11  1  0
 11 12  2  0
 11 13  1  0
 13 14  1  0
 14 15  1  0
 14 16  1  0
 14 17  1  0
 13 18  1  0
 18 19  1  0
 19 20  2  0
 20 21  1  0
 21 22  2  0
 22 23  1  0
 23 24  2  0
 24 25  1  0
 22 26  1  0
 21 27  1  0
 20 28  1  0
 18 29  1  0
 29 30  1  0
 30 31  1  0
 30 32  1  0
 30 33  1  0
 29 34  1  0
 34 35  1  0
 34 36  1  0
 34 37  1  0
 29 38  1  0
 18 39  1  0
 10 40  2  0
 40 41  1  0
 41 42  1  0
 41 43  1  0
 41 44  1  0
 40 45  1  0
 45 46  1  0
  7 47  2  0
 47 48  1  0
  6 49  1  0
  5 50  1  0
  4 51  1  0
  1 52  1  0
  1 53  1  0
  1 54  1  0
 47  3  1  0
 45  8  1  0
 24 19  1  0
M  END
>  <plip>  (1) 
-0.10714285714285714

>  <filename>  (1) 
[H][c]1[n][c]([H])[c]([C]([H])([N]([C](=[O])[c]2[n][c](-[c]3[c]([H])[c]([H])[c]([H])[c]([O][C]([H])([H])[H])[c]3[H])[n]([H])[c]2[C]([H])([H])[H])[C]([H])([H])[H])[C]([H])([C]([H])([H])[H])[C]([H])([H])[H])[c]([H])[c]1[H]

$$$$
