
     RDKit          3D

 41 44  0  0  0  0  0  0  0  0999 V2000
    4.9509    1.8047   16.9159 H   0  0  0  0  0  0  0  0  0  0  0  0
    5.3792    1.3493   17.8086 C   0  0  0  0  0  0  0  0  0  0  0  0
    6.5561    0.7230   17.6540 N   0  0  0  0  0  0  0  0  0  0  0  0
    7.0995    0.1676   18.7432 C   0  0  0  0  0  0  0  0  0  0  0  0
    8.0324   -0.3757   18.5730 H   0  0  0  0  0  0  0  0  0  0  0  0
    6.5510    0.2123   20.0397 C   0  0  0  0  0  0  0  0  0  0  0  0
    7.2927   -0.4569   21.2025 C   0  0  1  0  0  0  0  0  0  0  0  0
    6.7158   -0.2892   22.1223 H   0  0  0  0  0  0  0  0  0  0  0  0
    7.3499   -1.9637   20.9052 C   0  0  0  0  0  0  0  0  0  0  0  0
    6.3356   -2.3740   20.9541 H   0  0  0  0  0  0  0  0  0  0  0  0
    7.6629   -2.0340   19.8699 H   0  0  0  0  0  0  0  0  0  0  0  0
    8.3081   -2.8154   21.7524 C   0  0  1  0  0  0  0  0  0  0  0  0
    8.2222   -3.8634   21.4455 H   0  0  0  0  0  0  0  0  0  0  0  0
   10.0420   -2.2841   21.4802 S   0  0  0  0  0  0  0  0  0  0  0  0
    9.5927   -0.7747   22.4025 C   0  0  2  0  0  0  0  0  0  0  0  0
   10.4920   -0.2184   22.6804 H   0  0  0  0  0  0  0  0  0  0  0  0
    8.8870   -1.3229   23.6690 C   0  0  0  0  0  0  0  0  0  0  0  0
    8.2319   -0.5783   24.1397 H   0  0  0  0  0  0  0  0  0  0  0  0
    9.6617   -1.5662   24.4064 H   0  0  0  0  0  0  0  0  0  0  0  0
    8.1282   -2.6169   23.2675 C   0  0  0  0  0  0  0  0  0  0  0  0
    7.0710   -2.5877   23.5578 H   0  0  0  0  0  0  0  0  0  0  0  0
    8.5791   -3.4728   23.7750 H   0  0  0  0  0  0  0  0  0  0  0  0
    8.7251    0.1200   21.4546 C   0  0  2  0  0  0  0  0  0  0  0  0
    9.2697    0.1557   20.4954 H   0  0  0  0  0  0  0  0  0  0  0  0
    8.6030    1.4586   21.9634 N   0  0  0  0  0  0  0  0  0  0  0  0
    7.6885    1.7851   22.2184 H   0  0  0  0  0  0  0  0  0  0  0  0
    9.6028    2.4057   22.0186 C   0  0  0  0  0  0  0  0  0  0  0  0
    9.3132    3.5943   22.7123 C   0  0  0  0  0  0  0  0  0  0  0  0
    8.3030    3.7308   23.0929 H   0  0  0  0  0  0  0  0  0  0  0  0
   10.2872    4.5738   22.9028 C   0  0  0  0  0  0  0  0  0  0  0  0
   10.0680    5.4848   23.4535 H   0  0  0  0  0  0  0  0  0  0  0  0
   11.5599    4.3752   22.3606 C   0  0  0  0  0  0  0  0  0  0  0  0
   12.5085    5.3123   22.5404 F   0  0  0  0  0  0  0  0  0  0  0  0
   11.8657    3.2264   21.6320 C   0  0  0  0  0  0  0  0  0  0  0  0
   12.8456    3.1346   21.1787 H   0  0  0  0  0  0  0  0  0  0  0  0
   10.8893    2.2320   21.4700 C   0  0  0  0  0  0  0  0  0  0  0  0
   11.1386    1.3109   20.9512 H   0  0  0  0  0  0  0  0  0  0  0  0
    5.3007    0.8414   20.1644 C   0  0  0  0  0  0  0  0  0  0  0  0
    4.7888    0.8648   21.1259 H   0  0  0  0  0  0  0  0  0  0  0  0
    4.7097    1.4157   19.0314 C   0  0  0  0  0  0  0  0  0  0  0  0
    3.7492    1.9181   19.0857 H   0  0  0  0  0  0  0  0  0  0  0  0
  1  2  1  0
  2  3  2  0
  3  4  1  0
  4  5  1  0
  4  6  2  0
  6  7  1  0
  7  8  1  1
  7  9  1  0
  9 10  1  0
  9 11  1  0
  9 12  1  0
 12 13  1  1
 12 14  1  0
 14 15  1  0
 15 16  1  1
 15 17  1  0
 17 18  1  0
 17 19  1  0
 17 20  1  0
 20 21  1  0
 20 22  1  0
 15 23  1  0
 23 24  1  6
 23 25  1  0
 25 26  1  0
 25 27  1  0
 27 28  2  0
 28 29  1  0
 28 30  1  0
 30 31  1  0
 30 32  2  0
 32 33  1  0
 32 34  1  0
 34 35  1  0
 34 36  2  0
 36 37  1  0
  6 38  1  0
 38 39  1  0
 38 40  2  0
 40 41  1  0
 40  2  1  0
 23  7  1  0
 36 27  1  0
 20 12  1  0
M  END
>  <plip>  (1) 
-0.10344827586206896

>  <filename>  (1) 
[H][c]1[n][c]([H])[c]([C@@]2([H])[C]([H])([H])[C@@]3([H])[S][C@]([H])([C]([H])([H])[C]3([H])[H])[C@]2([H])[N]([H])[c]2[c]([H])[c]([H])[c]([F])[c]([H])[c]2[H])[c]([H])[c]1[H]

$$$$
