
     RDKit          3D

 30 31  0  0  0  0  0  0  0  0999 V2000
    6.2801   -4.2680   20.4619 H   0  0  0  0  0  0  0  0  0  0  0  0
    6.3394   -3.2615   20.2770 N   0  0  0  0  0  0  0  0  0  0  0  0
    6.5305   -2.6991   21.3872 C   0  0  0  0  0  0  0  0  0  0  0  0
    6.5126   -3.3115   22.6199 O   0  0  0  0  0  0  0  0  0  0  0  0
    5.7185   -4.4488   22.7489 C   0  0  0  0  0  0  0  0  0  0  0  0
    6.3149   -5.6563   23.1270 C   0  0  0  0  0  0  0  0  0  0  0  0
    7.3841   -5.6684   23.3316 H   0  0  0  0  0  0  0  0  0  0  0  0
    5.5201   -6.7955   23.2051 C   0  0  0  0  0  0  0  0  0  0  0  0
    5.8972   -7.7906   23.3827 H   0  0  0  0  0  0  0  0  0  0  0  0
    4.1296   -6.7252   23.0328 C   0  0  0  0  0  0  0  0  0  0  0  0
    3.4880   -7.8913   23.3162 O   0  0  0  0  0  0  0  0  0  0  0  0
    2.1126   -8.0269   23.0478 C   0  0  0  0  0  0  0  0  0  0  0  0
    1.5111   -7.3499   23.6685 H   0  0  0  0  0  0  0  0  0  0  0  0
    1.8663   -9.0587   23.2978 H   0  0  0  0  0  0  0  0  0  0  0  0
    1.8836   -7.8591   21.9880 H   0  0  0  0  0  0  0  0  0  0  0  0
    3.5430   -5.5164   22.6350 C   0  0  0  0  0  0  0  0  0  0  0  0
    2.4784   -5.4772   22.4277 H   0  0  0  0  0  0  0  0  0  0  0  0
    4.3501   -4.3805   22.4880 C   0  0  0  0  0  0  0  0  0  0  0  0
    3.9691   -3.4300   22.1326 H   0  0  0  0  0  0  0  0  0  0  0  0
    6.9422   -0.9845   21.6091 S   0  0  0  0  0  0  0  0  0  0  0  0
    6.3390   -0.1622   20.1352 C   0  0  0  0  0  0  0  0  0  0  0  0
    7.0628   -0.1728   18.9261 C   0  0  0  0  0  0  0  0  0  0  0  0
    7.9809   -0.7556   18.8595 H   0  0  0  0  0  0  0  0  0  0  0  0
    6.6907    0.4992   17.8265 N   0  0  0  0  0  0  0  0  0  0  0  0
    5.5676    1.2292   17.8932 C   0  0  0  0  0  0  0  0  0  0  0  0
    5.2882    1.7645   16.9851 H   0  0  0  0  0  0  0  0  0  0  0  0
    4.7789    1.3152   19.0450 C   0  0  0  0  0  0  0  0  0  0  0  0
    3.8976    1.9480   19.0481 H   0  0  0  0  0  0  0  0  0  0  0  0
    5.1684    0.6073   20.1865 C   0  0  0  0  0  0  0  0  0  0  0  0
    4.5920    0.6770   21.1108 H   0  0  0  0  0  0  0  0  0  0  0  0
  1  2  1  0
  2  3  2  3
  3  4  1  0
  4  5  1  0
  5  6  2  0
  6  7  1  0
  6  8  1  0
  8  9  1  0
  8 10  2  0
 10 11  1  0
 11 12  1  0
 12 13  1  0
 12 14  1  0
 12 15  1  0
 10 16  1  0
 16 17  1  0
 16 18  2  0
 18 19  1  0
  3 20  1  0
 20 21  1  0
 21 22  2  0
 22 23  1  0
 22 24  1  0
 24 25  2  0
 25 26  1  0
 25 27  1  0
 27 28  1  0
 27 29  2  0
 29 30  1  0
 18  5  1  0
 29 21  1  0
M  END
>  <plip>  (1) 
-0.1

>  <filename>  (1) 
[H][N]=[C]([O][c]1[c]([H])[c]([H])[c]([O][C]([H])([H])[H])[c]([H])[c]1[H])[S][c]1[c]([H])[n][c]([H])[c]([H])[c]1[H]

$$$$
