
     RDKit          3D

 35 36  0  0  0  0  0  0  0  0999 V2000
    9.4456   -5.2212   24.2574 C   0  0  0  0  0  0  0  0  0  0  0  0
    8.3419   -5.3835   23.5610 C   0  0  0  0  0  0  0  0  0  0  0  0
    7.2389   -5.4761   22.8566 C   0  0  0  0  0  0  0  0  0  0  0  0
    6.5908   -4.4130   21.9583 C   0  0  0  0  0  0  0  0  0  0  0  0
    7.4794   -3.1828   21.7531 C   0  0  0  0  0  0  0  0  0  0  0  0
    6.8468   -2.1620   20.9209 N   0  0  0  0  0  4  0  0  0  0  0  0
    7.3826   -0.7222   20.9912 C   0  0  0  0  0  0  0  0  0  0  0  0
    6.6182   -0.0198   19.9119 C   0  0  0  0  0  0  0  0  0  0  0  0
    5.3955    0.6365   20.1330 C   0  0  0  0  0  0  0  0  0  0  0  0
    4.7843    1.2926   19.0682 C   0  0  0  0  0  0  0  0  0  0  0  0
    5.3985    1.2571   17.8119 C   0  0  0  0  0  0  0  0  0  0  0  0
    6.5320    0.5814   17.5671 N   0  0  0  0  0  0  0  0  0  0  0  0
    7.1125   -0.0372   18.5995 C   0  0  0  0  0  0  0  0  0  0  0  0
    8.0535   -0.5440   18.3744 H   0  0  0  0  0  0  0  0  0  0  0  0
    4.9771    1.8126   16.9775 H   0  0  0  0  0  0  0  0  0  0  0  0
    3.8713    1.8611   19.2012 H   0  0  0  0  0  0  0  0  0  0  0  0
    4.9388    0.6345   21.1268 H   0  0  0  0  0  0  0  0  0  0  0  0
    7.3515   -0.1112   22.4052 C   0  0  0  0  0  0  0  0  0  0  0  0
    8.9010   -0.1267   22.4602 C   0  0  0  0  0  0  0  0  0  0  0  0
    8.9273   -0.6279   20.9902 C   0  0  0  0  0  0  0  0  0  0  0  0
    9.4173   -1.5943   20.8409 H   0  0  0  0  0  0  0  0  0  0  0  0
    9.3129    0.0910   20.2656 H   0  0  0  0  0  0  0  0  0  0  0  0
    9.3024   -0.8597   23.1729 H   0  0  0  0  0  0  0  0  0  0  0  0
    9.3738    0.8462   22.6389 H   0  0  0  0  0  0  0  0  0  0  0  0
    6.9234    0.8915   22.4031 H   0  0  0  0  0  0  0  0  0  0  0  0
    6.8277   -0.7200   23.1491 H   0  0  0  0  0  0  0  0  0  0  0  0
    6.8732   -2.3689   19.8931 H   0  0  0  0  0  0  0  0  0  0  0  0
    5.8469   -2.0307   21.2053 H   0  0  0  0  0  0  0  0  0  0  0  0
    7.7256   -2.7796   22.7443 H   0  0  0  0  0  0  0  0  0  0  0  0
    8.4366   -3.5296   21.3424 H   0  0  0  0  0  0  0  0  0  0  0  0
    5.6245   -4.0986   22.3839 H   0  0  0  0  0  0  0  0  0  0  0  0
    6.3659   -4.8795   20.9920 H   0  0  0  0  0  0  0  0  0  0  0  0
    6.7327   -6.4368   22.9303 H   0  0  0  0  0  0  0  0  0  0  0  0
    9.9232   -5.9680   24.8804 H   0  0  0  0  0  0  0  0  0  0  0  0
   10.0038   -4.2958   24.1687 H   0  0  0  0  0  0  0  0  0  0  0  0
  1  2  2  0
  2  3  2  0
  3  4  1  0
  4  5  1  0
  5  6  1  0
  6  7  1  0
  7  8  1  0
  8  9  2  0
  9 10  1  0
 10 11  2  0
 11 12  1  0
 12 13  2  0
 13 14  1  0
 11 15  1  0
 10 16  1  0
  9 17  1  0
  7 18  1  0
 18 19  1  0
 19 20  1  0
 20 21  1  0
 20 22  1  0
 19 23  1  0
 19 24  1  0
 18 25  1  0
 18 26  1  0
  6 27  1  0
  6 28  1  0
  5 29  1  0
  5 30  1  0
  4 31  1  0
  4 32  1  0
  3 33  1  0
  1 34  1  0
  1 35  1  0
 20  7  1  0
 13  8  1  0
M  CHG  1   6   1
M  END
>  <plip>  (1) 
-0.10714285714285714

>  <filename>  (1) 
[H][C]([H])=[C]=[C]([H])[C]([H])([H])[C]([H])([H])[N+]([H])([H])[C]1([c]2[c]([H])[n][c]([H])[c]([H])[c]2[H])[C]([H])([H])[C]([H])([H])[C]1([H])[H]

$$$$
