
     RDKit          3D

 32 34  0  0  0  0  0  0  0  0999 V2000
    4.9215    1.7819   16.9998 H   0  0  0  0  0  0  0  0  0  0  0  0
    5.4048    1.2889   17.8421 C   0  0  0  0  0  0  0  0  0  0  0  0
    6.5652    0.6677   17.5849 N   0  0  0  0  0  0  0  0  0  0  0  0
    7.1888    0.0535   18.6000 C   0  0  0  0  0  0  0  0  0  0  0  0
    8.1279   -0.4372   18.3617 H   0  0  0  0  0  0  0  0  0  0  0  0
    6.6880    0.0155   19.9137 C   0  0  0  0  0  0  0  0  0  0  0  0
    7.2801   -0.6912   20.9394 O   0  0  0  0  0  0  0  0  0  0  0  0
    8.6416   -0.7718   21.0909 C   0  0  0  0  0  0  0  0  0  0  0  0
    9.6581    0.0819   20.6257 C   0  0  0  0  0  0  0  0  0  0  0  0
    9.5715    0.9506   19.9936 H   0  0  0  0  0  0  0  0  0  0  0  0
   10.8464   -0.3020   21.0754 N   0  0  0  0  0  0  0  0  0  0  0  0
   10.5927   -1.3756   21.8244 N   0  0  0  0  0  0  0  0  0  0  0  0
   11.3716   -1.8655   22.2348 H   0  0  0  0  0  0  0  0  0  0  0  0
    9.2750   -1.7220   21.8827 C   0  0  0  0  0  0  0  0  0  0  0  0
    8.7607   -2.8476   22.6662 C   0  0  0  0  0  0  0  0  0  0  0  0
    7.5730   -3.4900   22.2605 C   0  0  0  0  0  0  0  0  0  0  0  0
    7.0656   -3.1546   21.3616 H   0  0  0  0  0  0  0  0  0  0  0  0
    7.0283   -4.5131   22.9230 N   0  0  0  0  0  0  0  0  0  0  0  0
    7.6348   -4.9323   24.0436 C   0  0  0  0  0  0  0  0  0  0  0  0
    7.1507   -5.7575   24.5580 H   0  0  0  0  0  0  0  0  0  0  0  0
    8.8252   -4.3644   24.5443 C   0  0  0  0  0  0  0  0  0  0  0  0
    9.4868   -4.7525   25.6641 O   0  0  0  0  0  0  0  0  0  0  0  0
    9.0018   -5.8179   26.4650 C   0  0  0  0  0  0  0  0  0  0  0  0
    8.0071   -5.6146   26.8810 H   0  0  0  0  0  0  0  0  0  0  0  0
    9.7148   -5.8805   27.2825 H   0  0  0  0  0  0  0  0  0  0  0  0
    8.9730   -6.7719   25.9222 H   0  0  0  0  0  0  0  0  0  0  0  0
    9.3940   -3.3035   23.8323 C   0  0  0  0  0  0  0  0  0  0  0  0
   10.3038   -2.8432   24.2220 H   0  0  0  0  0  0  0  0  0  0  0  0
    5.4632    0.6437   20.1741 C   0  0  0  0  0  0  0  0  0  0  0  0
    5.0358    0.6108   21.1759 H   0  0  0  0  0  0  0  0  0  0  0  0
    4.8246    1.3001   19.1155 C   0  0  0  0  0  0  0  0  0  0  0  0
    3.8905    1.8278   19.2662 H   0  0  0  0  0  0  0  0  0  0  0  0
  1  2  1  0
  2  3  2  0
  3  4  1  0
  4  5  1  0
  4  6  2  0
  6  7  1  0
  7  8  1  0
  8  9  1  0
  9 10  1  0
  9 11  2  0
 11 12  1  0
 12 13  1  0
 12 14  1  0
 14 15  1  0
 15 16  2  0
 16 17  1  0
 16 18  1  0
 18 19  2  0
 19 20  1  0
 19 21  1  0
 21 22  1  0
 22 23  1  0
 23 24  1  0
 23 25  1  0
 23 26  1  0
 21 27  2  0
 27 28  1  0
  6 29  1  0
 29 30  1  0
 29 31  2  0
 31 32  1  0
 31  2  1  0
 14  8  2  0
 27 15  1  0
M  END
>  <plip>  (1) 
-0.06666666666666667

>  <filename>  (1) 
[H][c]1[n][c]([H])[c]([O][c]2[c]([H])[n][n]([H])[c]2-[c]2[c]([H])[n][c]([H])[c]([O][C]([H])([H])[H])[c]2[H])[c]([H])[c]1[H]

$$$$
