
     RDKit          3D

 31 33  0  0  0  0  0  0  0  0999 V2000
    4.9224    1.7850   16.9932 H   0  0  0  0  0  0  0  0  0  0  0  0
    5.4031    1.2931   17.8371 C   0  0  0  0  0  0  0  0  0  0  0  0
    6.5653    0.6750   17.5755 N   0  0  0  0  0  0  0  0  0  0  0  0
    7.1674    0.0566   18.5952 C   0  0  0  0  0  0  0  0  0  0  0  0
    8.1172   -0.4220   18.3689 H   0  0  0  0  0  0  0  0  0  0  0  0
    6.6609    0.0183   19.9095 C   0  0  0  0  0  0  0  0  0  0  0  0
    7.3789   -0.6985   20.9900 C   0  0  0  0  0  0  0  0  0  0  0  0
    7.4725   -2.4317   20.8277 S   0  0  0  0  0  0  0  0  0  0  0  0
    8.4799   -2.6717   22.5926 S   0  0  0  0  0  0  0  0  0  0  0  0
    8.4955   -0.9990   23.0919 C   0  0  0  0  0  0  0  0  0  0  0  0
    9.1735   -0.6696   24.5614 S   0  0  0  0  0  0  0  0  0  0  0  0
    7.8962   -0.1089   22.1176 C   0  0  0  0  0  0  0  0  0  0  0  0
    7.8759    1.4020   22.3254 C   0  0  0  0  0  0  0  0  0  0  0  0
    7.4159    1.8511   21.4309 H   0  0  0  0  0  0  0  0  0  0  0  0
    9.2847    2.0179   22.4137 C   0  0  0  0  0  0  0  0  0  0  0  0
    9.8499    1.5434   23.2178 H   0  0  0  0  0  0  0  0  0  0  0  0
    9.8267    1.8414   21.4783 H   0  0  0  0  0  0  0  0  0  0  0  0
    9.1843    3.5165   22.6786 C   0  0  0  0  0  0  0  0  0  0  0  0
    8.7247    4.0203   21.8128 H   0  0  0  0  0  0  0  0  0  0  0  0
   10.1700    3.9616   22.8426 H   0  0  0  0  0  0  0  0  0  0  0  0
    8.4153    3.7967   23.8339 O   0  0  0  0  0  0  0  0  0  0  0  0
    7.0796    3.3422   23.7120 C   0  0  0  0  0  0  0  0  0  0  0  0
    6.5593    3.6637   24.6192 H   0  0  0  0  0  0  0  0  0  0  0  0
    6.6039    3.8466   22.8541 H   0  0  0  0  0  0  0  0  0  0  0  0
    7.0119    1.8300   23.5264 C   0  0  0  0  0  0  0  0  0  0  0  0
    5.9720    1.5183   23.3679 H   0  0  0  0  0  0  0  0  0  0  0  0
    7.3643    1.3355   24.4337 H   0  0  0  0  0  0  0  0  0  0  0  0
    5.4354    0.6550   20.1602 C   0  0  0  0  0  0  0  0  0  0  0  0
    5.0010    0.6301   21.1672 H   0  0  0  0  0  0  0  0  0  0  0  0
    4.7994    1.3069   19.1013 C   0  0  0  0  0  0  0  0  0  0  0  0
    3.8697    1.8460   19.2539 H   0  0  0  0  0  0  0  0  0  0  0  0
  1  2  1  0
  2  3  2  0
  3  4  1  0
  4  5  1  0
  4  6  2  0
  6  7  1  0
  7  8  1  0
  8  9  1  0
  9 10  1  0
 10 11  2  0
 10 12  1  0
 12 13  1  0
 13 14  1  0
 13 15  1  0
 15 16  1  0
 15 17  1  0
 15 18  1  0
 18 19  1  0
 18 20  1  0
 18 21  1  0
 21 22  1  0
 22 23  1  0
 22 24  1  0
 22 25  1  0
 25 26  1  0
 25 27  1  0
  6 28  1  0
 28 29  1  0
 28 30  2  0
 30 31  1  0
 30  2  1  0
 12  7  2  0
 25 13  1  0
M  END
>  <plip>  (1) 
-0.0

>  <filename>  (1) 
[H][c]1[n][c]([H])[c](-[c]2[s][s][c](=[S])[c]2[C]2([H])[C]([H])([H])[C]([H])([H])[O][C]([H])([H])[C]2([H])[H])[c]([H])[c]1[H]

$$$$
