
     RDKit          3D

 33 34  0  0  0  0  0  0  0  0999 V2000
    6.5522   -1.9827   21.3670 C   0  0  0  0  0  0  0  0  0  0  0  0
    7.3763   -0.7016   21.0810 C   0  0  0  0  0  0  0  0  0  0  0  0
    8.8294   -1.1253   20.7484 C   0  0  0  0  0  0  0  0  0  0  0  0
    9.2917   -1.5892   21.6252 H   0  0  0  0  0  0  0  0  0  0  0  0
    9.4597   -0.2890   20.4234 H   0  0  0  0  0  0  0  0  0  0  0  0
    8.8439   -1.8668   19.9498 H   0  0  0  0  0  0  0  0  0  0  0  0
    7.4268    0.2172   22.3635 C   0  0  0  0  0  0  0  0  0  0  0  0
    6.9891   -0.1096   23.4532 O   0  0  0  0  0  0  0  0  0  0  0  0
    8.0580    1.4371   22.1916 N   0  0  0  0  0  0  0  0  0  0  0  0
    7.6942    2.5277   23.0930 C   0  0  0  0  0  0  0  0  0  0  0  0
    6.2467    2.9808   22.9282 C   0  0  0  0  0  0  0  0  0  0  0  0
    5.1870    2.5977   23.7008 C   0  0  0  0  0  0  0  0  0  0  0  0
    3.7388    3.2582   23.0872 S   0  0  0  0  0  0  0  0  0  0  0  0
    4.4661    4.0393   21.8238 N   0  0  0  0  0  0  0  0  0  0  0  0
    5.7510    3.8138   21.8546 C   0  0  0  0  0  0  0  0  0  0  0  0
    6.3643    4.2819   21.0783 H   0  0  0  0  0  0  0  0  0  0  0  0
    5.1800    1.9395   24.5700 H   0  0  0  0  0  0  0  0  0  0  0  0
    7.8693    2.1830   24.1208 H   0  0  0  0  0  0  0  0  0  0  0  0
    8.3893    3.3545   22.9058 H   0  0  0  0  0  0  0  0  0  0  0  0
    8.2063    1.6797   21.2230 H   0  0  0  0  0  0  0  0  0  0  0  0
    6.6865    0.0294   19.9001 C   0  0  0  0  0  0  0  0  0  0  0  0
    5.4528    0.6559   20.1324 C   0  0  0  0  0  0  0  0  0  0  0  0
    4.8026    1.3107   19.0820 C   0  0  0  0  0  0  0  0  0  0  0  0
    5.3946    1.2985   17.8143 C   0  0  0  0  0  0  0  0  0  0  0  0
    6.5493    0.6754   17.5533 N   0  0  0  0  0  0  0  0  0  0  0  0
    7.1698    0.0636   18.5746 C   0  0  0  0  0  0  0  0  0  0  0  0
    8.1122   -0.4132   18.3113 H   0  0  0  0  0  0  0  0  0  0  0  0
    4.9216    1.8106   16.9769 H   0  0  0  0  0  0  0  0  0  0  0  0
    3.8660    1.8355   19.2314 H   0  0  0  0  0  0  0  0  0  0  0  0
    5.0195    0.6299   21.1347 H   0  0  0  0  0  0  0  0  0  0  0  0
    5.5229   -1.7498   21.6563 H   0  0  0  0  0  0  0  0  0  0  0  0
    6.5015   -2.5991   20.4620 H   0  0  0  0  0  0  0  0  0  0  0  0
    7.0037   -2.5767   22.1674 H   0  0  0  0  0  0  0  0  0  0  0  0
  1  2  1  0
  2  3  1  0
  3  4  1  0
  3  5  1  0
  3  6  1  0
  2  7  1  0
  7  8  2  0
  7  9  1  0
  9 10  1  0
 10 11  1  0
 11 12  2  0
 12 13  1  0
 13 14  1  0
 14 15  2  0
 15 16  1  0
 12 17  1  0
 10 18  1  0
 10 19  1  0
  9 20  1  0
  2 21  1  0
 21 22  2  0
 22 23  1  0
 23 24  2  0
 24 25  1  0
 25 26  2  0
 26 27  1  0
 24 28  1  0
 23 29  1  0
 22 30  1  0
  1 31  1  0
  1 32  1  0
  1 33  1  0
 15 11  1  0
 26 21  1  0
M  END
>  <plip>  (1) 
-0.07142857142857142

>  <filename>  (1) 
[H][c]1[n][c]([H])[c]([C]([C](=[O])[N]([H])[C]([H])([H])[c]2[c]([H])[n][s][c]2[H])([C]([H])([H])[H])[C]([H])([H])[H])[c]([H])[c]1[H]

$$$$
