
     RDKit          3D

 27 28  0  0  0  0  0  0  0  0999 V2000
    4.9298    1.8021   16.9718 H   0  0  0  0  0  0  0  0  0  0  0  0
    5.3908    1.2968   17.8232 C   0  0  0  0  0  0  0  0  0  0  0  0
    6.5521    0.6693   17.5844 N   0  0  0  0  0  0  0  0  0  0  0  0
    7.1619    0.0698   18.6160 C   0  0  0  0  0  0  0  0  0  0  0  0
    8.1049   -0.4139   18.3589 H   0  0  0  0  0  0  0  0  0  0  0  0
    6.6719    0.0500   19.9422 C   0  0  0  0  0  0  0  0  0  0  0  0
    7.4063   -0.6662   21.0739 C   0  0  0  0  0  0  0  0  0  0  0  0
    8.4844   -0.4823   21.0057 H   0  0  0  0  0  0  0  0  0  0  0  0
    7.0930   -0.2819   22.0553 H   0  0  0  0  0  0  0  0  0  0  0  0
    7.2178   -2.1853   20.9839 C   0  0  1  0  0  0  0  0  0  0  0  0
    7.4511   -2.4232   19.9623 H   0  0  0  0  0  0  0  0  0  0  0  0
    8.4088   -3.0385   22.0128 Cl  0  0  0  0  0  0  0  0  0  0  0  0
    5.7955   -2.6939   21.1782 C   0  0  0  0  0  0  0  0  0  0  0  0
    5.2601   -2.1567   20.3938 H   0  0  0  0  0  0  0  0  0  0  0  0
    5.3887   -2.4108   22.1539 H   0  0  0  0  0  0  0  0  0  0  0  0
    5.6349   -4.1619   20.9742 C   0  0  0  0  0  0  0  0  0  0  0  0
    5.5971   -4.7363   19.7231 N   0  0  0  0  0  0  0  0  0  0  0  0
    5.4450   -6.0191   19.9258 C   0  0  0  0  0  0  0  0  0  0  0  0
    5.3114   -6.7758   19.1668 H   0  0  0  0  0  0  0  0  0  0  0  0
    5.3809   -6.3210   21.2494 N   0  0  0  0  0  0  0  0  0  0  0  0
    5.2652   -7.2481   21.6290 H   0  0  0  0  0  0  0  0  0  0  0  0
    5.5099   -5.1302   21.9284 C   0  0  0  0  0  0  0  0  0  0  0  0
    5.5323   -5.0490   23.0010 H   0  0  0  0  0  0  0  0  0  0  0  0
    5.4375    0.6815   20.1485 C   0  0  0  0  0  0  0  0  0  0  0  0
    4.9884    0.6614   21.1423 H   0  0  0  0  0  0  0  0  0  0  0  0
    4.7902    1.3216   19.0840 C   0  0  0  0  0  0  0  0  0  0  0  0
    3.8512    1.8499   19.2218 H   0  0  0  0  0  0  0  0  0  0  0  0
  1  2  1  0
  2  3  2  0
  3  4  1  0
  4  5  1  0
  4  6  2  0
  6  7  1  0
  7  8  1  0
  7  9  1  0
  7 10  1  0
 10 11  1  6
 10 12  1  0
 10 13  1  0
 13 14  1  0
 13 15  1  0
 13 16  1  0
 16 17  1  0
 17 18  2  0
 18 19  1  0
 18 20  1  0
 20 21  1  0
 20 22  1  0
 22 23  1  0
  6 24  1  0
 24 25  1  0
 24 26  2  0
 26 27  1  0
 26  2  1  0
 22 16  2  0
M  END
>  <plip>  (1) 
-0.1

>  <filename>  (1) 
[H][c]1[n][c]([H])[c]([C]([H])([H])[C@@]([H])([Cl])[C]([H])([H])[c]2[n][c]([H])[n]([H])[c]2[H])[c]([H])[c]1[H]

$$$$
