
     RDKit          3D

 28 30  0  0  0  0  0  0  0  0999 V2000
    5.0131    1.7694   16.9592 H   0  0  0  0  0  0  0  0  0  0  0  0
    5.4620    1.2698   17.8163 C   0  0  0  0  0  0  0  0  0  0  0  0
    6.6250    0.6341   17.6012 N   0  0  0  0  0  0  0  0  0  0  0  0
    7.2054    0.0297   18.6440 C   0  0  0  0  0  0  0  0  0  0  0  0
    8.1467   -0.4822   18.4441 H   0  0  0  0  0  0  0  0  0  0  0  0
    6.6564    0.0293   19.9298 C   0  0  0  0  0  0  0  0  0  0  0  0
    7.3496   -0.6696   21.0107 C   0  0  0  0  0  0  0  0  0  0  0  0
    8.5368   -1.3126   20.8440 N   0  0  0  0  0  0  0  0  0  0  0  0
    8.7350   -1.8402   22.0264 C   0  0  0  0  0  0  0  0  0  0  0  0
    9.8270   -2.5896   22.3383 N   0  0  0  0  0  0  0  0  0  0  0  0
   10.4923   -2.5251   21.5778 H   0  0  0  0  0  0  0  0  0  0  0  0
    9.9578   -3.5382   23.3795 C   0  0  0  0  0  0  0  0  0  0  0  0
   11.2194   -3.8666   23.9221 C   0  0  0  0  0  0  0  0  0  0  0  0
   12.1057   -3.5110   23.4025 H   0  0  0  0  0  0  0  0  0  0  0  0
   11.3993   -4.6582   24.9862 N   0  0  0  0  0  0  0  0  0  0  0  0
   10.3140   -5.1751   25.5730 C   0  0  0  0  0  0  0  0  0  0  0  0
   10.4780   -5.7420   26.4814 H   0  0  0  0  0  0  0  0  0  0  0  0
    9.0266   -4.9790   25.0772 C   0  0  0  0  0  0  0  0  0  0  0  0
    8.1790   -5.4178   25.5872 H   0  0  0  0  0  0  0  0  0  0  0  0
    8.8415   -4.1670   23.9554 C   0  0  0  0  0  0  0  0  0  0  0  0
    7.8535   -4.0204   23.5337 H   0  0  0  0  0  0  0  0  0  0  0  0
    7.7382   -1.5250   22.8704 N   0  0  0  0  0  0  0  0  0  0  0  0
    7.7917   -1.5813   23.8735 H   0  0  0  0  0  0  0  0  0  0  0  0
    6.8315   -0.7326   22.2230 N   0  0  0  0  0  0  0  0  0  0  0  0
    5.4303    0.6782   20.1431 C   0  0  0  0  0  0  0  0  0  0  0  0
    4.9808    0.6744   21.1381 H   0  0  0  0  0  0  0  0  0  0  0  0
    4.8268    1.3092   19.0628 C   0  0  0  0  0  0  0  0  0  0  0  0
    3.8878    1.8368   19.1799 H   0  0  0  0  0  0  0  0  0  0  0  0
  1  2  1  0
  2  3  2  0
  3  4  1  0
  4  5  1  0
  4  6  2  0
  6  7  1  0
  7  8  1  0
  8  9  2  0
  9 10  1  0
 10 11  1  0
 10 12  1  0
 12 13  2  0
 13 14  1  0
 13 15  1  0
 15 16  2  0
 16 17  1  0
 16 18  1  0
 18 19  1  0
 18 20  2  0
 20 21  1  0
  9 22  1  0
 22 23  1  0
 22 24  1  0
  6 25  1  0
 25 26  1  0
 25 27  2  0
 27 28  1  0
 27  2  1  0
 24  7  2  0
 20 12  1  0
M  END
>  <plip>  (1) 
-0.06896551724137931

>  <filename>  (1) 
[H][c]1[n][c]([H])[c](-[c]2[n][c]([N]([H])[c]3[c]([H])[n][c]([H])[c]([H])[c]3[H])[n]([H])[n]2)[c]([H])[c]1[H]

$$$$
