
     RDKit          3D

 25 26  0  0  0  0  0  0  0  0999 V2000
    5.0003    1.8338   17.0527 H   0  0  0  0  0  0  0  0  0  0  0  0
    5.4772    1.2955   17.8649 C   0  0  0  0  0  0  0  0  0  0  0  0
    6.6253    0.6395   17.6188 N   0  0  0  0  0  0  0  0  0  0  0  0
    7.1917   -0.0370   18.6301 C   0  0  0  0  0  0  0  0  0  0  0  0
    8.1158   -0.5718   18.4260 H   0  0  0  0  0  0  0  0  0  0  0  0
    6.6394   -0.1078   19.9182 C   0  0  0  0  0  0  0  0  0  0  0  0
    7.2891   -0.9800   20.9661 C   0  0  2  0  0  0  0  0  0  0  0  0
    8.2172   -1.4162   20.5773 H   0  0  0  0  0  0  0  0  0  0  0  0
    6.0362   -2.4558   21.3928 Br  0  0  0  0  0  0  0  0  0  0  0  0
    7.6138   -0.2128   22.2493 C   0  0  0  0  0  0  0  0  0  0  0  0
    6.6947    0.1874   22.6864 H   0  0  0  0  0  0  0  0  0  0  0  0
    8.0689   -0.8878   22.9751 H   0  0  0  0  0  0  0  0  0  0  0  0
    8.5592    0.9139   21.9705 C   0  0  0  0  0  0  0  0  0  0  0  0
    8.1079    2.1240   21.7967 N   0  0  0  0  0  0  0  0  0  0  0  0
    9.1840    2.8953   21.5083 N   0  0  0  0  0  0  0  0  0  0  0  0
   10.2348    2.1300   21.4923 C   0  0  0  0  0  0  0  0  0  0  0  0
   11.6073    2.6901   21.1985 C   0  0  0  0  0  0  0  0  0  0  0  0
   11.7064    2.9082   20.1273 H   0  0  0  0  0  0  0  0  0  0  0  0
   11.7779    3.6134   21.7600 H   0  0  0  0  0  0  0  0  0  0  0  0
   12.3760    1.9753   21.4941 H   0  0  0  0  0  0  0  0  0  0  0  0
    9.9102    0.8399   21.8024 O   0  0  0  0  0  0  0  0  0  0  0  0
    5.4470    0.5786   20.1741 C   0  0  0  0  0  0  0  0  0  0  0  0
    4.9782    0.5460   21.1574 H   0  0  0  0  0  0  0  0  0  0  0  0
    4.8692    1.2884   19.1232 C   0  0  0  0  0  0  0  0  0  0  0  0
    3.9487    1.8388   19.2669 H   0  0  0  0  0  0  0  0  0  0  0  0
  1  2  1  0
  2  3  2  0
  3  4  1  0
  4  5  1  0
  4  6  2  0
  6  7  1  0
  7  8  1  6
  7  9  1  0
  7 10  1  0
 10 11  1  0
 10 12  1  0
 10 13  1  0
 13 14  2  0
 14 15  1  0
 15 16  2  0
 16 17  1  0
 17 18  1  0
 17 19  1  0
 17 20  1  0
 16 21  1  0
  6 22  1  0
 22 23  1  0
 22 24  2  0
 24 25  1  0
 24  2  1  0
 21 13  1  0
M  END
>  <plip>  (1) 
-0.10714285714285714

>  <filename>  (1) 
[H][c]1[n][c]([H])[c]([C@]([H])([Br])[C]([H])([H])[c]2[n][n][c]([C]([H])([H])[H])[o]2)[c]([H])[c]1[H]

$$$$
