
     RDKit          3D

 29 30  0  0  0  0  0  0  0  0999 V2000
    4.9892    1.7509   16.9044 H   0  0  0  0  0  0  0  0  0  0  0  0
    5.4110    1.2865   17.7959 C   0  0  0  0  0  0  0  0  0  0  0  0
    6.5834    0.6537   17.6401 N   0  0  0  0  0  0  0  0  0  0  0  0
    7.1247    0.0869   18.7213 C   0  0  0  0  0  0  0  0  0  0  0  0
    8.0690   -0.4378   18.5695 H   0  0  0  0  0  0  0  0  0  0  0  0
    6.5479    0.1166   20.0021 C   0  0  0  0  0  0  0  0  0  0  0  0
    7.2601   -0.4885   21.1679 C   0  0  0  0  0  0  0  0  0  0  0  0
    7.3896    0.2550   22.6045 S   0  0  0  0  0  0  0  0  0  0  0  0
    8.0812   -2.0515   20.8260 S   0  0  0  0  0  0  0  0  0  0  0  0
    6.8195   -3.2036   20.8376 N   0  0  0  0  0  0  0  0  0  0  0  0
    6.4963   -3.8639   22.0432 C   0  0  0  0  0  0  0  0  0  0  0  0
    7.4693   -4.0293   23.0495 C   0  0  0  0  0  0  0  0  0  0  0  0
    8.4814   -3.6794   22.8713 H   0  0  0  0  0  0  0  0  0  0  0  0
    7.1352   -4.6192   24.2674 C   0  0  0  0  0  0  0  0  0  0  0  0
    7.8955   -4.7060   25.0399 H   0  0  0  0  0  0  0  0  0  0  0  0
    5.8370   -5.0787   24.5069 C   0  0  0  0  0  0  0  0  0  0  0  0
    5.5784   -5.5194   25.4660 H   0  0  0  0  0  0  0  0  0  0  0  0
    4.8734   -4.9518   23.5060 C   0  0  0  0  0  0  0  0  0  0  0  0
    3.8583   -5.3061   23.6695 H   0  0  0  0  0  0  0  0  0  0  0  0
    5.1976   -4.3598   22.2860 C   0  0  0  0  0  0  0  0  0  0  0  0
    4.4343   -4.2655   21.5312 H   0  0  0  0  0  0  0  0  0  0  0  0
    5.9226   -3.2876   19.6927 C   0  0  0  0  0  0  0  0  0  0  0  0
    4.9112   -2.9930   19.9681 H   0  0  0  0  0  0  0  0  0  0  0  0
    6.2382   -2.6389   18.8762 H   0  0  0  0  0  0  0  0  0  0  0  0
    5.8789   -4.3122   19.3108 H   0  0  0  0  0  0  0  0  0  0  0  0
    5.3263    0.7868   20.1505 C   0  0  0  0  0  0  0  0  0  0  0  0
    4.8577    0.8545   21.1323 H   0  0  0  0  0  0  0  0  0  0  0  0
    4.7450    1.3653   19.0219 C   0  0  0  0  0  0  0  0  0  0  0  0
    3.8015    1.8881   19.0882 H   0  0  0  0  0  0  0  0  0  0  0  0
  1  2  1  0
  2  3  2  0
  3  4  1  0
  4  5  1  0
  4  6  2  0
  6  7  1  0
  7  8  2  0
  7  9  1  0
  9 10  1  0
 10 11  1  0
 11 12  2  0
 12 13  1  0
 12 14  1  0
 14 15  1  0
 14 16  2  0
 16 17  1  0
 16 18  1  0
 18 19  1  0
 18 20  2  0
 20 21  1  0
 10 22  1  0
 22 23  1  0
 22 24  1  0
 22 25  1  0
  6 26  1  0
 26 27  1  0
 26 28  2  0
 28 29  1  0
 28  2  1  0
 20 11  1  0
M  END
>  <plip>  (1) 
-0.034482758620689655

>  <filename>  (1) 
[H][c]1[n][c]([H])[c]([C](=[S])[S][N]([c]2[c]([H])[c]([H])[c]([H])[c]([H])[c]2[H])[C]([H])([H])[H])[c]([H])[c]1[H]

$$$$
