
     RDKit          3D

 31 33  0  0  0  0  0  0  0  0999 V2000
    4.9286    1.9622   16.7339 H   0  0  0  0  0  0  0  0  0  0  0  0
    5.3325    1.4344   17.5949 C   0  0  0  0  0  0  0  0  0  0  0  0
    6.4809    0.7664   17.3913 N   0  0  0  0  0  0  0  0  0  0  0  0
    7.0326    0.1461   18.4426 C   0  0  0  0  0  0  0  0  0  0  0  0
    7.9626   -0.3830   18.2406 H   0  0  0  0  0  0  0  0  0  0  0  0
    6.4766    0.1452   19.7444 C   0  0  0  0  0  0  0  0  0  0  0  0
    7.0957   -0.5096   20.8720 C   0  0  0  0  0  0  0  0  0  0  0  0
    7.5524   -1.0288   21.8652 C   0  0  0  0  0  0  0  0  0  0  0  0
    8.2118   -1.7951   22.9579 C   0  0  0  0  0  0  0  0  0  0  0  0
    7.7814   -3.2591   22.9699 C   0  0  0  0  0  0  0  0  0  0  0  0
    8.3187   -4.0567   21.9606 C   0  0  0  0  0  0  0  0  0  0  0  0
    8.9951   -3.6093   21.2377 H   0  0  0  0  0  0  0  0  0  0  0  0
    8.0561   -5.3562   21.8106 N   0  0  0  0  0  0  0  0  0  0  0  0
    7.2203   -5.9206   22.6944 C   0  0  0  0  0  0  0  0  0  0  0  0
    7.0278   -6.9809   22.5424 H   0  0  0  0  0  0  0  0  0  0  0  0
    6.6349   -5.2108   23.7514 C   0  0  0  0  0  0  0  0  0  0  0  0
    5.9855   -5.7310   24.4483 H   0  0  0  0  0  0  0  0  0  0  0  0
    6.8970   -3.8476   23.8823 C   0  0  0  0  0  0  0  0  0  0  0  0
    6.4217   -3.2383   24.6531 H   0  0  0  0  0  0  0  0  0  0  0  0
    8.0158   -1.1860   24.2131 O   0  0  0  0  0  0  0  0  0  0  0  0
    9.2188   -1.3029   24.9665 C   0  0  0  0  0  0  0  0  0  0  0  0
    9.4176   -0.3301   25.4241 H   0  0  0  0  0  0  0  0  0  0  0  0
    9.1171   -2.0390   25.7725 H   0  0  0  0  0  0  0  0  0  0  0  0
   10.2879   -1.7058   23.9352 C   0  0  0  0  0  0  0  0  0  0  0  0
   11.0862   -0.9624   23.8567 H   0  0  0  0  0  0  0  0  0  0  0  0
   10.7125   -2.6999   24.1502 H   0  0  0  0  0  0  0  0  0  0  0  0
    9.6001   -1.7030   22.7006 O   0  0  0  0  0  0  0  0  0  0  0  0
    5.2515    0.8194   19.9157 C   0  0  0  0  0  0  0  0  0  0  0  0
    4.7625    0.8124   20.8888 H   0  0  0  0  0  0  0  0  0  0  0  0
    4.6756    1.4801   18.8288 C   0  0  0  0  0  0  0  0  0  0  0  0
    3.7488    2.0388   18.9290 H   0  0  0  0  0  0  0  0  0  0  0  0
  1  2  1  0
  2  3  2  0
  3  4  1  0
  4  5  1  0
  4  6  2  0
  6  7  1  0
  7  8  3  0
  8  9  1  0
  9 10  1  0
 10 11  2  0
 11 12  1  0
 11 13  1  0
 13 14  2  0
 14 15  1  0
 14 16  1  0
 16 17  1  0
 16 18  2  0
 18 19  1  0
  9 20  1  0
 20 21  1  0
 21 22  1  0
 21 23  1  0
 21 24  1  0
 24 25  1  0
 24 26  1  0
 24 27  1  0
  6 28  1  0
 28 29  1  0
 28 30  2  0
 30 31  1  0
 30  2  1  0
 27  9  1  0
 18 10  1  0
M  END
>  <plip>  (1) 
-0.10344827586206896

>  <filename>  (1) 
[H][c]1[n][c]([H])[c]([C]#[C][C]2([c]3[c]([H])[n][c]([H])[c]([H])[c]3[H])[O][C]([H])([H])[C]([H])([H])[O]2)[c]([H])[c]1[H]

$$$$
