
     RDKit          3D

 35 36  0  0  0  0  0  0  0  0999 V2000
   10.1472    2.0503   22.0762 C   0  0  0  0  0  0  0  0  0  0  0  0
    8.7705    1.4816   21.7493 C   0  0  0  0  0  0  0  0  0  0  0  0
    8.7965    0.0090   21.3222 C   0  0  0  0  0  0  0  0  0  0  0  0
    7.3959   -0.5395   21.0670 C   0  0  0  0  0  0  0  0  0  0  0  0
    7.4439   -1.9972   20.7611 N   0  0  0  0  0  4  0  0  0  0  0  0
    6.0722   -2.6315   20.7141 C   0  0  0  0  0  0  0  0  0  0  0  0
    6.0614   -4.1245   20.5492 C   0  0  0  0  0  0  0  0  0  0  0  0
    5.5493   -4.6087   19.4393 N   0  0  0  0  0  0  0  0  0  0  0  0
    5.5846   -6.2559   19.4738 S   0  0  0  0  0  0  0  0  0  0  0  0
    6.3016   -6.3370   21.0189 C   0  0  0  0  0  0  0  0  0  0  0  0
    6.5172   -5.0852   21.5043 C   0  0  0  0  0  0  0  0  0  0  0  0
    6.9661   -4.8550   22.4692 H   0  0  0  0  0  0  0  0  0  0  0  0
    6.5076   -7.2818   21.5045 H   0  0  0  0  0  0  0  0  0  0  0  0
    5.5040   -2.3499   21.6110 H   0  0  0  0  0  0  0  0  0  0  0  0
    5.5248   -2.2346   19.8574 H   0  0  0  0  0  0  0  0  0  0  0  0
    8.0461   -2.5080   21.4439 H   0  0  0  0  0  0  0  0  0  0  0  0
    7.8619   -2.0702   19.7934 H   0  0  0  0  0  0  0  0  0  0  0  0
    6.6563    0.1267   19.9353 C   0  0  0  0  0  0  0  0  0  0  0  0
    5.4240    0.7594   20.1328 C   0  0  0  0  0  0  0  0  0  0  0  0
    4.7980    1.3619   19.0407 C   0  0  0  0  0  0  0  0  0  0  0  0
    5.4234    1.2928   17.7906 C   0  0  0  0  0  0  0  0  0  0  0  0
    6.5793    0.6460   17.5767 N   0  0  0  0  0  0  0  0  0  0  0  0
    7.1608    0.0625   18.6314 C   0  0  0  0  0  0  0  0  0  0  0  0
    8.0852   -0.4797   18.4170 H   0  0  0  0  0  0  0  0  0  0  0  0
    4.9698    1.7618   16.9207 H   0  0  0  0  0  0  0  0  0  0  0  0
    3.8530    1.8829   19.1431 H   0  0  0  0  0  0  0  0  0  0  0  0
    4.9640    0.7544   21.1241 H   0  0  0  0  0  0  0  0  0  0  0  0
    6.8035   -0.3966   21.9797 H   0  0  0  0  0  0  0  0  0  0  0  0
    9.4213   -0.1152   20.4262 H   0  0  0  0  0  0  0  0  0  0  0  0
    9.2567   -0.6027   22.1104 H   0  0  0  0  0  0  0  0  0  0  0  0
    8.1215    1.5926   22.6308 H   0  0  0  0  0  0  0  0  0  0  0  0
    8.2969    2.0792   20.9573 H   0  0  0  0  0  0  0  0  0  0  0  0
   10.0704    3.1006   22.3776 H   0  0  0  0  0  0  0  0  0  0  0  0
   10.8198    2.0005   21.2126 H   0  0  0  0  0  0  0  0  0  0  0  0
   10.6205    1.5010   22.8986 H   0  0  0  0  0  0  0  0  0  0  0  0
  1  2  1  0
  2  3  1  0
  3  4  1  0
  4  5  1  0
  5  6  1  0
  6  7  1  0
  7  8  2  0
  8  9  1  0
  9 10  1  0
 10 11  2  0
 11 12  1  0
 10 13  1  0
  6 14  1  0
  6 15  1  0
  5 16  1  0
  5 17  1  0
  4 18  1  0
 18 19  2  0
 19 20  1  0
 20 21  2  0
 21 22  1  0
 22 23  2  0
 23 24  1  0
 21 25  1  0
 20 26  1  0
 19 27  1  0
  4 28  1  0
  3 29  1  0
  3 30  1  0
  2 31  1  0
  2 32  1  0
  1 33  1  0
  1 34  1  0
  1 35  1  0
 11  7  1  0
 23 18  1  0
M  CHG  1   5   1
M  END
>  <plip>  (1) 
-0.10714285714285714

>  <filename>  (1) 
[H][c]1[n][c]([H])[c]([C]([H])([C]([H])([H])[C]([H])([H])[C]([H])([H])[H])[N+]([H])([H])[C]([H])([H])[c]2[n][s][c]([H])[c]2[H])[c]([H])[c]1[H]

$$$$
