
     RDKit          3D

 39 41  0  0  0  0  0  0  0  0999 V2000
    4.9429    1.7959   16.9906 H   0  0  0  0  0  0  0  0  0  0  0  0
    5.4052    1.2831   17.8316 C   0  0  0  0  0  0  0  0  0  0  0  0
    6.5606    0.6568   17.5797 N   0  0  0  0  0  0  0  0  0  0  0  0
    7.1631    0.0284   18.6020 C   0  0  0  0  0  0  0  0  0  0  0  0
    8.1189   -0.4246   18.3498 H   0  0  0  0  0  0  0  0  0  0  0  0
    6.6591   -0.0411   19.9134 C   0  0  0  0  0  0  0  0  0  0  0  0
    7.3802   -0.7502   21.0808 C   0  0  2  0  0  0  0  0  0  0  0  0
    6.4102   -1.8764   21.5396 C   0  0  0  0  0  0  0  0  0  0  0  0
    5.6136   -1.4017   22.0780 H   0  0  0  0  0  0  0  0  0  0  0  0
    6.0346   -2.4663   20.7007 H   0  0  0  0  0  0  0  0  0  0  0  0
    7.0251   -3.1275   22.6643 S   0  0  0  0  0  0  0  0  0  0  0  0
    7.7632   -2.4544   23.7344 O   0  0  0  0  0  0  0  0  0  0  0  0
    7.6653   -4.1562   21.8440 O   0  0  0  0  0  0  0  0  0  0  0  0
    5.5704   -3.8557   23.4154 C   0  0  0  0  0  0  0  0  0  0  0  0
    5.0465   -3.3074   24.5993 C   0  0  0  0  0  0  0  0  0  0  0  0
    5.4854   -2.4272   25.0706 H   0  0  0  0  0  0  0  0  0  0  0  0
    3.9498   -3.9172   25.2082 C   0  0  0  0  0  0  0  0  0  0  0  0
    3.5244   -3.5193   26.1217 H   0  0  0  0  0  0  0  0  0  0  0  0
    3.3956   -5.0657   24.6433 C   0  0  0  0  0  0  0  0  0  0  0  0
    2.0295   -5.8220   25.4048 Cl  0  0  0  0  0  0  0  0  0  0  0  0
    3.9235   -5.6204   23.4769 C   0  0  0  0  0  0  0  0  0  0  0  0
    3.4804   -6.5206   23.0705 H   0  0  0  0  0  0  0  0  0  0  0  0
    5.0203   -5.0198   22.8618 C   0  0  0  0  0  0  0  0  0  0  0  0
    5.4507   -5.4803   21.9718 H   0  0  0  0  0  0  0  0  0  0  0  0
    7.7441    0.2959   22.2018 C   0  0  0  0  0  0  0  0  0  0  0  0
    7.0205    1.1206   22.2391 H   0  0  0  0  0  0  0  0  0  0  0  0
    7.7242   -0.2079   23.1760 H   0  0  0  0  0  0  0  0  0  0  0  0
    9.0835    0.8099   21.8733 N   0  0  0  0  0  0  0  0  0  0  0  0
    9.6544    0.8749   22.7042 H   0  0  0  0  0  0  0  0  0  0  0  0
    9.6867   -0.0594   20.8604 C   0  0  0  0  0  0  0  0  0  0  0  0
   10.7213   -0.3294   21.1080 H   0  0  0  0  0  0  0  0  0  0  0  0
    9.6887    0.4597   19.8963 H   0  0  0  0  0  0  0  0  0  0  0  0
    8.7858   -1.2832   20.7676 C   0  0  0  0  0  0  0  0  0  0  0  0
    8.8452   -1.7770   19.8013 H   0  0  0  0  0  0  0  0  0  0  0  0
    9.0653   -2.0097   21.5387 H   0  0  0  0  0  0  0  0  0  0  0  0
    5.4350    0.6256   20.1432 C   0  0  0  0  0  0  0  0  0  0  0  0
    4.9874    0.6559   21.1394 H   0  0  0  0  0  0  0  0  0  0  0  0
    4.8032    1.2932   19.0941 C   0  0  0  0  0  0  0  0  0  0  0  0
    3.8792    1.8431   19.2450 H   0  0  0  0  0  0  0  0  0  0  0  0
  1  2  1  0
  2  3  2  0
  3  4  1  0
  4  5  1  0
  4  6  2  0
  6  7  1  0
  7  8  1  1
  8  9  1  0
  8 10  1  0
  8 11  1  0
 11 12  2  0
 11 13  2  0
 11 14  1  0
 14 15  2  0
 15 16  1  0
 15 17  1  0
 17 18  1  0
 17 19  2  0
 19 20  1  0
 19 21  1  0
 21 22  1  0
 21 23  2  0
 23 24  1  0
  7 25  1  0
 25 26  1  0
 25 27  1  0
 25 28  1  0
 28 29  1  0
 28 30  1  0
 30 31  1  0
 30 32  1  0
 30 33  1  0
 33 34  1  0
 33 35  1  0
  6 36  1  0
 36 37  1  0
 36 38  2  0
 38 39  1  0
 38  2  1  0
 33  7  1  0
 23 14  1  0
M  END
>  <plip>  (1) 
-0.03571428571428571

>  <filename>  (1) 
[H][c]1[n][c]([H])[c]([C@]2([C]([H])([H])[S](=[O])(=[O])[c]3[c]([H])[c]([H])[c]([Cl])[c]([H])[c]3[H])[C]([H])([H])[N]([H])[C]([H])([H])[C]2([H])[H])[c]([H])[c]1[H]

$$$$
