
     RDKit          3D

 32 33  0  0  0  0  0  0  0  0999 V2000
    5.1203    2.0846   16.2416 H   0  0  0  0  0  0  0  0  0  0  0  0
    5.4671    1.6668   17.1812 C   0  0  0  0  0  0  0  0  0  0  0  0
    6.5235    0.8396   17.1134 N   0  0  0  0  0  0  0  0  0  0  0  0
    6.9568    0.3113   18.2588 C   0  0  0  0  0  0  0  0  0  0  0  0
    7.8306   -0.3330   18.2098 H   0  0  0  0  0  0  0  0  0  0  0  0
    6.3629    0.5668   19.5176 C   0  0  0  0  0  0  0  0  0  0  0  0
    6.8556   -0.0693   20.6662 N   0  0  0  0  0  0  0  0  0  0  0  0
    6.5939    0.1692   22.0448 C   0  0  0  0  0  0  0  0  0  0  0  0
    6.1078    1.1826   22.5057 O   0  0  0  0  0  0  0  0  0  0  0  0
    7.0434   -1.0306   22.7066 C   0  0  0  0  0  0  0  0  0  0  0  0
    7.0160   -1.1756   23.7666 H   0  0  0  0  0  0  0  0  0  0  0  0
    7.5475   -1.8454   21.7613 C   0  0  0  0  0  0  0  0  0  0  0  0
    8.0098   -3.0855   21.8062 O   0  0  0  0  0  0  0  0  0  0  0  0
    8.5145   -3.4905   23.0836 C   0  0  0  0  0  0  0  0  0  0  0  0
    7.8262   -3.1903   23.8910 H   0  0  0  0  0  0  0  0  0  0  0  0
    8.5142   -4.5838   23.0445 H   0  0  0  0  0  0  0  0  0  0  0  0
    9.9445   -2.9869   23.3490 C   0  0  0  0  0  0  0  0  0  0  0  0
   10.5144   -3.2043   22.4363 H   0  0  0  0  0  0  0  0  0  0  0  0
   10.5468   -3.8288   24.4791 C   0  0  0  0  0  0  0  0  0  0  0  0
   10.3571   -4.8932   24.3076 H   0  0  0  0  0  0  0  0  0  0  0  0
   11.6288   -3.7144   24.5312 H   0  0  0  0  0  0  0  0  0  0  0  0
   10.1259   -3.5869   25.4593 H   0  0  0  0  0  0  0  0  0  0  0  0
   10.0406   -1.4590   23.5682 C   0  0  0  0  0  0  0  0  0  0  0  0
    9.6916   -0.9099   22.6797 H   0  0  0  0  0  0  0  0  0  0  0  0
    9.4412   -1.1143   24.4255 H   0  0  0  0  0  0  0  0  0  0  0  0
   11.0784   -1.1393   23.7330 H   0  0  0  0  0  0  0  0  0  0  0  0
    7.5496   -1.2805   20.5136 N   0  0  0  0  0  0  0  0  0  0  0  0
    7.1752   -1.9053   19.8068 H   0  0  0  0  0  0  0  0  0  0  0  0
    5.2788    1.4474   19.5798 C   0  0  0  0  0  0  0  0  0  0  0  0
    4.8298    1.6700   20.5457 H   0  0  0  0  0  0  0  0  0  0  0  0
    4.8305    2.0051   18.3789 C   0  0  0  0  0  0  0  0  0  0  0  0
    4.0107    2.7120   18.3615 H   0  0  0  0  0  0  0  0  0  0  0  0
  1  2  1  0
  2  3  2  0
  3  4  1  0
  4  5  1  0
  4  6  2  0
  6  7  1  0
  7  8  1  0
  8  9  2  0
  8 10  1  0
 10 11  1  0
 10 12  2  0
 12 13  1  0
 13 14  1  0
 14 15  1  0
 14 16  1  0
 14 17  1  0
 17 18  1  0
 17 19  1  0
 19 20  1  0
 19 21  1  0
 19 22  1  0
 17 23  1  0
 23 24  1  0
 23 25  1  0
 23 26  1  0
 12 27  1  0
 27 28  1  0
  6 29  1  0
 29 30  1  0
 29 31  2  0
 31 32  1  0
 31  2  1  0
 27  7  1  0
M  END
>  <plip>  (1) 
-0.13793103448275862

>  <filename>  (1) 
[H][c]1[n][c]([H])[c](-[n]2[c](=[O])[c]([H])[c]([O][C]([H])([H])[C]([H])([C]([H])([H])[H])[C]([H])([H])[H])[n]2[H])[c]([H])[c]1[H]

$$$$
