
     RDKit          3D

 34 36  0  0  0  0  0  0  0  0999 V2000
    5.9110   -4.9069   20.9134 C   0  0  0  0  0  0  0  0  0  0  0  0
    6.9511   -4.4600   21.9089 C   0  0  0  0  0  0  0  0  0  0  0  0
    7.4483   -5.3843   22.8392 C   0  0  0  0  0  0  0  0  0  0  0  0
    8.4064   -4.9777   23.7660 C   0  0  0  0  0  0  0  0  0  0  0  0
    8.8705   -3.6658   23.7868 C   0  0  0  0  0  0  0  0  0  0  0  0
    8.3874   -2.7322   22.8835 C   0  0  0  0  0  0  0  0  0  0  0  0
    7.4240   -3.1078   21.9306 C   0  0  0  0  0  0  0  0  0  0  0  0
    6.9618   -2.1658   21.0214 N   0  0  0  0  0  0  0  0  0  0  0  0
    7.3750   -0.7797   20.9927 C   0  0  0  0  0  0  0  0  0  0  0  0
    6.6423   -0.0212   19.9102 C   0  0  0  0  0  0  0  0  0  0  0  0
    5.4357    0.6458   20.1577 C   0  0  0  0  0  0  0  0  0  0  0  0
    4.8054    1.3104   19.1026 C   0  0  0  0  0  0  0  0  0  0  0  0
    5.4014    1.2895   17.8378 C   0  0  0  0  0  0  0  0  0  0  0  0
    6.5618    0.6665   17.5821 N   0  0  0  0  0  0  0  0  0  0  0  0
    7.1570    0.0392   18.6081 C   0  0  0  0  0  0  0  0  0  0  0  0
    8.1132   -0.4258   18.3719 H   0  0  0  0  0  0  0  0  0  0  0  0
    4.9282    1.7851   16.9906 H   0  0  0  0  0  0  0  0  0  0  0  0
    3.8750    1.8449   19.2499 H   0  0  0  0  0  0  0  0  0  0  0  0
    5.0033    0.6393   21.1615 H   0  0  0  0  0  0  0  0  0  0  0  0
    8.4630   -0.7196   20.8253 H   0  0  0  0  0  0  0  0  0  0  0  0
    7.1825   -0.2981   21.9662 H   0  0  0  0  0  0  0  0  0  0  0  0
    6.2571   -2.4515   20.3683 H   0  0  0  0  0  0  0  0  0  0  0  0
    8.7400   -1.7076   22.8927 H   0  0  0  0  0  0  0  0  0  0  0  0
    9.8827   -3.5234   24.8767 C   0  0  0  0  0  0  0  0  0  0  0  0
    9.9125   -4.9569   25.4599 C   0  0  0  0  0  0  0  0  0  0  0  0
    8.9768   -5.7683   24.7101 O   0  0  0  0  0  0  0  0  0  0  0  0
    9.6133   -4.9890   26.5101 H   0  0  0  0  0  0  0  0  0  0  0  0
   10.8959   -5.4244   25.3769 H   0  0  0  0  0  0  0  0  0  0  0  0
   10.8610   -3.2124   24.4968 H   0  0  0  0  0  0  0  0  0  0  0  0
    9.5849   -2.7794   25.6229 H   0  0  0  0  0  0  0  0  0  0  0  0
    7.0939   -6.4101   22.8438 H   0  0  0  0  0  0  0  0  0  0  0  0
    5.6603   -5.9627   21.0483 H   0  0  0  0  0  0  0  0  0  0  0  0
    4.9897   -4.3372   21.0529 H   0  0  0  0  0  0  0  0  0  0  0  0
    6.2371   -4.7780   19.8739 H   0  0  0  0  0  0  0  0  0  0  0  0
  1  2  1  0
  2  3  2  0
  3  4  1  0
  4  5  2  0
  5  6  1  0
  6  7  2  0
  7  8  1  0
  8  9  1  0
  9 10  1  0
 10 11  2  0
 11 12  1  0
 12 13  2  0
 13 14  1  0
 14 15  2  0
 15 16  1  0
 13 17  1  0
 12 18  1  0
 11 19  1  0
  9 20  1  0
  9 21  1  0
  8 22  1  0
  6 23  1  0
  5 24  1  0
 24 25  1  0
 25 26  1  0
 25 27  1  0
 25 28  1  0
 24 29  1  0
 24 30  1  0
  3 31  1  0
  1 32  1  0
  1 33  1  0
  1 34  1  0
  7  2  1  0
 15 10  1  0
 26  4  1  0
M  END
>  <plip>  (1) 
-0.10714285714285714

>  <filename>  (1) 
[H][c]1[n][c]([H])[c]([C]([H])([H])[N]([H])[c]2[c]([H])[c]3[c]([c]([H])[c]2[C]([H])([H])[H])[O][C]([H])([H])[C]3([H])[H])[c]([H])[c]1[H]

$$$$
