
     RDKit          3D

 55 57  0  0  0  0  0  0  0  0999 V2000
    7.1402   -5.6984   21.1150 C   0  0  0  0  0  0  0  0  0  0  0  0
    6.2083   -5.6096   22.3404 C   0  0  0  0  0  0  0  0  0  0  0  0
    6.1331   -4.1915   22.9071 C   0  0  0  0  0  0  0  0  0  0  0  0
    5.8003   -3.2518   21.7892 N   0  0  0  0  0  4  0  0  0  0  0  0
    5.9877   -1.8103   22.0289 C   0  0  0  0  0  0  0  0  0  0  0  0
    7.2811   -1.2792   21.4350 C   0  0  2  0  0  0  0  0  0  0  0  0
    8.5312   -1.7237   22.1983 C   0  0  0  0  0  0  0  0  0  0  0  0
    9.5620   -0.6030   22.0052 C   0  0  0  0  0  0  0  0  0  0  0  0
    8.7881    0.5872   21.4753 N   0  0  0  0  0  4  0  0  0  0  0  0
    9.1568    1.8599   22.1592 C   0  0  0  0  0  0  0  0  0  0  0  0
    8.6079    2.7152   21.7531 H   0  0  0  0  0  0  0  0  0  0  0  0
   10.2341    2.0497   22.0665 H   0  0  0  0  0  0  0  0  0  0  0  0
    8.9298    1.8039   23.2364 H   0  0  0  0  0  0  0  0  0  0  0  0
    7.3009    0.2555   21.4258 C   0  0  1  0  0  0  0  0  0  0  0  0
    6.6488    0.8323   20.1875 C   0  0  0  0  0  0  0  0  0  0  0  0
    5.3397    1.3486   20.2065 C   0  0  0  0  0  0  0  0  0  0  0  0
    4.7385    1.7109   18.9990 C   0  0  0  0  0  0  0  0  0  0  0  0
    5.4569    1.5524   17.8111 C   0  0  0  0  0  0  0  0  0  0  0  0
    6.7005    1.0482   17.7686 N   0  0  0  0  0  0  0  0  0  0  0  0
    7.2743    0.7254   18.9296 C   0  0  0  0  0  0  0  0  0  0  0  0
    8.2816    0.3125   18.8363 H   0  0  0  0  0  0  0  0  0  0  0  0
    5.0180    1.8266   16.8530 H   0  0  0  0  0  0  0  0  0  0  0  0
    3.7327    2.1176   18.9627 H   0  0  0  0  0  0  0  0  0  0  0  0
    4.7915    1.4658   21.1468 H   0  0  0  0  0  0  0  0  0  0  0  0
    6.8196    0.6701   22.3217 H   0  0  0  0  0  0  0  0  0  0  0  0
    8.9790    0.7009   20.4642 H   0  0  0  0  0  0  0  0  0  0  0  0
   10.0446   -0.3341   22.9495 H   0  0  0  0  0  0  0  0  0  0  0  0
   10.3507   -0.8776   21.2969 H   0  0  0  0  0  0  0  0  0  0  0  0
    8.9101   -2.6882   21.8428 H   0  0  0  0  0  0  0  0  0  0  0  0
    8.3037   -1.8381   23.2660 H   0  0  0  0  0  0  0  0  0  0  0  0
    7.3494   -1.6218   20.3931 H   0  0  0  0  0  0  0  0  0  0  0  0
    5.1475   -1.2652   21.5899 H   0  0  0  0  0  0  0  0  0  0  0  0
    5.9865   -1.5967   23.1107 H   0  0  0  0  0  0  0  0  0  0  0  0
    6.4373   -3.5111   21.0026 H   0  0  0  0  0  0  0  0  0  0  0  0
    4.8129   -3.4564   21.5171 H   0  0  0  0  0  0  0  0  0  0  0  0
    7.0913   -3.9028   23.3556 H   0  0  0  0  0  0  0  0  0  0  0  0
    5.3844   -4.1323   23.7079 H   0  0  0  0  0  0  0  0  0  0  0  0
    4.8133   -6.1895   21.9852 C   0  0  0  0  0  0  0  0  0  0  0  0
    3.8537   -6.4290   23.1429 C   0  0  0  0  0  0  0  0  0  0  0  0
    2.6557   -5.7052   23.2806 C   0  0  0  0  0  0  0  0  0  0  0  0
    1.7755   -5.9610   24.3423 C   0  0  0  0  0  0  0  0  0  0  0  0
    2.0822   -6.9482   25.2864 C   0  0  0  0  0  0  0  0  0  0  0  0
    3.2638   -7.6842   25.1596 C   0  0  0  0  0  0  0  0  0  0  0  0
    4.1413   -7.4224   24.1011 C   0  0  0  0  0  0  0  0  0  0  0  0
    5.0637   -7.9926   24.0089 H   0  0  0  0  0  0  0  0  0  0  0  0
    3.5034   -8.4697   25.8780 H   0  0  0  0  0  0  0  0  0  0  0  0
    1.4216   -7.1343   26.1323 H   0  0  0  0  0  0  0  0  0  0  0  0
    0.8636   -5.3769   24.4447 H   0  0  0  0  0  0  0  0  0  0  0  0
    2.3909   -4.9380   22.5527 H   0  0  0  0  0  0  0  0  0  0  0  0
    4.9934   -7.1334   21.4579 H   0  0  0  0  0  0  0  0  0  0  0  0
    4.3386   -5.5367   21.2431 H   0  0  0  0  0  0  0  0  0  0  0  0
    6.6330   -6.2331   23.1399 H   0  0  0  0  0  0  0  0  0  0  0  0
    6.6916   -5.2454   20.2195 H   0  0  0  0  0  0  0  0  0  0  0  0
    7.3214   -6.7408   20.8411 H   0  0  0  0  0  0  0  0  0  0  0  0
    8.1236   -5.2344   21.2896 H   0  0  0  0  0  0  0  0  0  0  0  0
  1  2  1  0
  2  3  1  0
  3  4  1  0
  4  5  1  0
  5  6  1  0
  6  7  1  0
  7  8  1  0
  8  9  1  0
  9 10  1  0
 10 11  1  0
 10 12  1  0
 10 13  1  0
  9 14  1  0
 14 15  1  0
 15 16  2  0
 16 17  1  0
 17 18  2  0
 18 19  1  0
 19 20  2  0
 20 21  1  0
 18 22  1  0
 17 23  1  0
 16 24  1  0
 14 25  1  1
  9 26  1  0
  8 27  1  0
  8 28  1  0
  7 29  1  0
  7 30  1  0
  6 31  1  6
  5 32  1  0
  5 33  1  0
  4 34  1  0
  4 35  1  0
  3 36  1  0
  3 37  1  0
  2 38  1  0
 38 39  1  0
 39 40  2  0
 40 41  1  0
 41 42  2  0
 42 43  1  0
 43 44  2  0
 44 45  1  0
 43 46  1  0
 42 47  1  0
 41 48  1  0
 40 49  1  0
 38 50  1  0
 38 51  1  0
  2 52  1  0
  1 53  1  0
  1 54  1  0
  1 55  1  0
 14  6  1  0
 20 15  1  0
 44 39  1  0
M  CHG  2   4   1   9   1
M  END
>  <plip>  (1) 
-0.13793103448275862

>  <filename>  (1) 
[H][c]1[n][c]([H])[c]([C@@]2([H])[C@]([H])([C]([H])([H])[N+]([H])([H])[C]([H])([H])[C]([H])([C]([H])([H])[H])[C]([H])([H])[c]3[c]([H])[c]([H])[c]([H])[c]([H])[c]3[H])[C]([H])([H])[C]([H])([H])[N+]2([H])[C]([H])([H])[H])[c]([H])[c]1[H]

$$$$
