
     RDKit          3D

 38 39  0  0  0  0  0  0  0  0999 V2000
    4.9858    1.8633   16.9060 H   0  0  0  0  0  0  0  0  0  0  0  0
    5.4131    1.3147   17.7467 C   0  0  0  0  0  0  0  0  0  0  0  0
    6.5489    0.6409   17.5080 N   0  0  0  0  0  0  0  0  0  0  0  0
    7.0965   -0.0201   18.5385 C   0  0  0  0  0  0  0  0  0  0  0  0
    8.0108   -0.5678   18.3188 H   0  0  0  0  0  0  0  0  0  0  0  0
    6.5702   -0.0449   19.8439 C   0  0  0  0  0  0  0  0  0  0  0  0
    7.4306   -0.8606   21.1678 S   0  0  0  0  0  0  0  0  0  0  0  0
    8.4356    0.5553   21.8080 C   0  0  2  0  0  0  0  0  0  0  0  0
    7.8062    1.4457   21.7159 H   0  0  0  0  0  0  0  0  0  0  0  0
    9.7163    0.7744   21.0006 C   0  0  0  0  0  0  0  0  0  0  0  0
   10.4206   -0.0566   21.1269 H   0  0  0  0  0  0  0  0  0  0  0  0
   10.2024    1.7078   21.3154 H   0  0  0  0  0  0  0  0  0  0  0  0
    9.4739    0.8233   19.9362 H   0  0  0  0  0  0  0  0  0  0  0  0
    8.6775    0.3338   23.3064 C   0  0  0  0  0  0  0  0  0  0  0  0
    9.3558   -0.5239   23.4231 H   0  0  0  0  0  0  0  0  0  0  0  0
    7.7310    0.0301   23.7844 H   0  0  0  0  0  0  0  0  0  0  0  0
    9.2719    1.5318   23.9357 N   0  0  0  0  0  0  0  0  0  0  0  0
   10.1860    1.2154   25.0538 C   0  0  0  0  0  0  0  0  0  0  0  0
   10.9812    0.5530   24.7061 H   0  0  0  0  0  0  0  0  0  0  0  0
   10.6862    2.1447   25.3565 H   0  0  0  0  0  0  0  0  0  0  0  0
    9.4639    0.6196   26.2732 C   0  0  0  0  0  0  0  0  0  0  0  0
    9.0037   -0.3510   25.9972 H   0  0  0  0  0  0  0  0  0  0  0  0
   10.1992    0.3609   27.0426 H   0  0  0  0  0  0  0  0  0  0  0  0
    8.4929    1.5977   26.7925 N   0  0  0  0  0  0  0  0  0  0  0  0
    7.7727    1.1398   27.9638 C   0  0  0  0  0  0  0  0  0  0  0  0
    8.4653    0.8171   28.7494 H   0  0  0  0  0  0  0  0  0  0  0  0
    7.1870    1.9760   28.3605 H   0  0  0  0  0  0  0  0  0  0  0  0
    7.0739    0.3076   27.7439 H   0  0  0  0  0  0  0  0  0  0  0  0
    7.5571    2.0555   25.7561 C   0  0  0  0  0  0  0  0  0  0  0  0
    7.0062    2.9167   26.1586 H   0  0  0  0  0  0  0  0  0  0  0  0
    6.7957    1.2855   25.5033 H   0  0  0  0  0  0  0  0  0  0  0  0
    8.2859    2.5021   24.4693 C   0  0  0  0  0  0  0  0  0  0  0  0
    7.5430    2.7563   23.7079 H   0  0  0  0  0  0  0  0  0  0  0  0
    8.8365    3.4255   24.6906 H   0  0  0  0  0  0  0  0  0  0  0  0
    5.3552    0.6229   20.0628 C   0  0  0  0  0  0  0  0  0  0  0  0
    4.8855    0.6026   21.0482 H   0  0  0  0  0  0  0  0  0  0  0  0
    4.7789    1.3165   18.9930 C   0  0  0  0  0  0  0  0  0  0  0  0
    3.8546    1.8622   19.1225 H   0  0  0  0  0  0  0  0  0  0  0  0
  1  2  1  0
  2  3  2  0
  3  4  1  0
  4  5  1  0
  4  6  2  0
  6  7  1  0
  7  8  1  0
  8  9  1  1
  8 10  1  0
 10 11  1  0
 10 12  1  0
 10 13  1  0
  8 14  1  0
 14 15  1  0
 14 16  1  0
 14 17  1  0
 17 18  1  0
 18 19  1  0
 18 20  1  0
 18 21  1  0
 21 22  1  0
 21 23  1  0
 21 24  1  0
 24 25  1  0
 25 26  1  0
 25 27  1  0
 25 28  1  0
 24 29  1  0
 29 30  1  0
 29 31  1  0
 29 32  1  0
 32 33  1  0
 32 34  1  0
  6 35  1  0
 35 36  1  0
 35 37  2  0
 37 38  1  0
 37  2  1  0
 32 17  1  0
M  END
>  <plip>  (1) 
-0.03571428571428571

>  <filename>  (1) 
[H][c]1[n][c]([H])[c]([S][C@]([H])([C]([H])([H])[H])[C]([H])([H])[N]2[C]([H])([H])[C]([H])([H])[N]([C]([H])([H])[H])[C]([H])([H])[C]2([H])[H])[c]([H])[c]1[H]

$$$$
