
     RDKit          3D

 34 35  0  0  0  0  0  0  0  0999 V2000
    5.0235    1.7936   17.0584 H   0  0  0  0  0  0  0  0  0  0  0  0
    5.5375    1.2867   17.8721 C   0  0  0  0  0  0  0  0  0  0  0  0
    6.7407    0.7610   17.5867 N   0  0  0  0  0  0  0  0  0  0  0  0
    7.4015    0.1320   18.5692 C   0  0  0  0  0  0  0  0  0  0  0  0
    8.3760   -0.2894   18.3140 H   0  0  0  0  0  0  0  0  0  0  0  0
    6.8826   -0.0451   19.8727 C   0  0  0  0  0  0  0  0  0  0  0  0
    7.5579   -0.7767   20.8921 N   0  0  0  0  0  0  0  0  0  0  0  0
    6.9071   -1.6656   21.7253 C   0  0  0  0  0  0  0  0  0  0  0  0
    5.8248   -2.1767   21.5842 O   0  0  0  0  0  0  0  0  0  0  0  0
    7.7642   -1.9980   22.7565 N   0  0  0  0  0  0  0  0  0  0  0  0
    7.5414   -2.8488   23.2372 H   0  0  0  0  0  0  0  0  0  0  0  0
    9.0605   -1.7377   22.4104 C   0  0  0  0  0  0  0  0  0  0  0  0
   10.0160   -2.2942   22.8842 O   0  0  0  0  0  0  0  0  0  0  0  0
    8.9850   -0.7244   21.2098 C   0  0  2  0  0  0  0  0  0  0  0  0
    9.5834   -1.1880   20.4123 H   0  0  0  0  0  0  0  0  0  0  0  0
    9.4924    0.6373   21.3918 N   0  0  0  0  0  0  0  0  0  0  0  0
   10.9554    0.6436   21.6215 C   0  0  0  0  0  0  0  0  0  0  0  0
   11.2046    0.2325   22.6190 H   0  0  0  0  0  0  0  0  0  0  0  0
   11.4061   -0.0393   20.8918 H   0  0  0  0  0  0  0  0  0  0  0  0
   11.6016    2.0179   21.4513 C   0  0  0  0  0  0  0  0  0  0  0  0
   11.5716    2.3468   20.4086 H   0  0  0  0  0  0  0  0  0  0  0  0
   11.0954    2.7900   22.0371 H   0  0  0  0  0  0  0  0  0  0  0  0
   12.6506    1.9900   21.7738 H   0  0  0  0  0  0  0  0  0  0  0  0
    8.7431    1.4924   22.3407 C   0  0  0  0  0  0  0  0  0  0  0  0
    9.4074    1.8190   23.1587 H   0  0  0  0  0  0  0  0  0  0  0  0
    7.9385    0.9291   22.8287 H   0  0  0  0  0  0  0  0  0  0  0  0
    8.1474    2.7109   21.6374 C   0  0  0  0  0  0  0  0  0  0  0  0
    8.8738    3.1403   20.9417 H   0  0  0  0  0  0  0  0  0  0  0  0
    7.2573    2.4313   21.0637 H   0  0  0  0  0  0  0  0  0  0  0  0
    7.8551    3.4778   22.3646 H   0  0  0  0  0  0  0  0  0  0  0  0
    5.6254    0.5172   20.1515 C   0  0  0  0  0  0  0  0  0  0  0  0
    5.2086    0.4269   21.1542 H   0  0  0  0  0  0  0  0  0  0  0  0
    4.9513    1.2018   19.1381 C   0  0  0  0  0  0  0  0  0  0  0  0
    3.9960    1.6809   19.3242 H   0  0  0  0  0  0  0  0  0  0  0  0
  1  2  1  0
  2  3  2  0
  3  4  1  0
  4  5  1  0
  4  6  2  0
  6  7  1  0
  7  8  1  0
  8  9  2  0
  8 10  1  0
 10 11  1  0
 10 12  1  0
 12 13  2  0
 12 14  1  0
 14 15  1  6
 14 16  1  0
 16 17  1  0
 17 18  1  0
 17 19  1  0
 17 20  1  0
 20 21  1  0
 20 22  1  0
 20 23  1  0
 16 24  1  0
 24 25  1  0
 24 26  1  0
 24 27  1  0
 27 28  1  0
 27 29  1  0
 27 30  1  0
  6 31  1  0
 31 32  1  0
 31 33  2  0
 33 34  1  0
 33  2  1  0
 14  7  1  0
M  END
>  <plip>  (1) 
-0.10714285714285714

>  <filename>  (1) 
[H][c]1[n][c]([H])[c]([N]2[C](=[O])[N]([H])[C](=[O])[C@]2([H])[N]([C]([H])([H])[C]([H])([H])[H])[C]([H])([H])[C]([H])([H])[H])[c]([H])[c]1[H]

$$$$
