
     RDKit          3D

 33 34  0  0  0  0  0  0  0  0999 V2000
    6.2615   -0.6271   27.4793 C   0  0  0  0  0  0  0  0  0  0  0  0
    7.5867   -0.3773   26.9731 O   0  0  0  0  0  0  0  0  0  0  0  0
    7.6969    0.4230   25.9003 C   0  0  0  0  0  0  0  0  0  0  0  0
    6.7458    0.9449   25.3531 O   0  0  0  0  0  0  0  0  0  0  0  0
    9.0865    0.6203   25.4326 C   0  0  0  0  0  0  0  0  0  0  0  0
    9.4841    1.3388   24.3193 C   0  0  0  0  0  0  0  0  0  0  0  0
    8.5773    2.0275   23.3259 C   0  0  0  0  0  0  0  0  0  0  0  0
    7.7534    1.1241   22.5573 O   0  0  0  0  0  0  0  0  0  0  0  0
    8.3834    0.3323   21.6679 C   0  0  0  0  0  0  0  0  0  0  0  0
    9.5562    0.4087   21.3983 O   0  0  0  0  0  0  0  0  0  0  0  0
    7.4162   -0.6566   21.0286 C   0  0  0  0  0  0  0  0  0  0  0  0
    6.6397   -0.0050   19.8940 C   0  0  0  0  0  0  0  0  0  0  0  0
    5.4318    0.6536   20.1423 C   0  0  0  0  0  0  0  0  0  0  0  0
    4.7932    1.3170   19.0904 C   0  0  0  0  0  0  0  0  0  0  0  0
    5.3867    1.2998   17.8254 C   0  0  0  0  0  0  0  0  0  0  0  0
    6.5449    0.6754   17.5655 N   0  0  0  0  0  0  0  0  0  0  0  0
    7.1494    0.0520   18.5837 C   0  0  0  0  0  0  0  0  0  0  0  0
    8.1073   -0.4175   18.3530 H   0  0  0  0  0  0  0  0  0  0  0  0
    4.9198    1.8049   16.9797 H   0  0  0  0  0  0  0  0  0  0  0  0
    3.8646    1.8544   19.2351 H   0  0  0  0  0  0  0  0  0  0  0  0
    5.0207    0.6486   21.1524 H   0  0  0  0  0  0  0  0  0  0  0  0
    6.7350   -1.0360   21.7982 H   0  0  0  0  0  0  0  0  0  0  0  0
    8.0227   -1.4929   20.6733 H   0  0  0  0  0  0  0  0  0  0  0  0
    9.1872    2.6253   22.6401 H   0  0  0  0  0  0  0  0  0  0  0  0
    7.8470    2.6577   23.8276 H   0  0  0  0  0  0  0  0  0  0  0  0
   10.9034    1.3517   24.1889 C   0  0  0  0  0  0  0  0  0  0  0  0
   11.5388    0.6316   25.1491 C   0  0  0  0  0  0  0  0  0  0  0  0
   10.4377   -0.0565   26.2608 S   0  0  0  0  0  0  0  0  0  0  0  0
   12.6032    0.4490   25.2469 H   0  0  0  0  0  0  0  0  0  0  0  0
   11.3994    1.8536   23.3611 H   0  0  0  0  0  0  0  0  0  0  0  0
    6.4178   -1.2723   28.3418 H   0  0  0  0  0  0  0  0  0  0  0  0
    5.6378   -1.1275   26.7297 H   0  0  0  0  0  0  0  0  0  0  0  0
    5.7648    0.3032   27.7780 H   0  0  0  0  0  0  0  0  0  0  0  0
  1  2  1  0
  2  3  1  0
  3  4  2  0
  3  5  1  0
  5  6  2  0
  6  7  1  0
  7  8  1  0
  8  9  1  0
  9 10  2  0
  9 11  1  0
 11 12  1  0
 12 13  2  0
 13 14  1  0
 14 15  2  0
 15 16  1  0
 16 17  2  0
 17 18  1  0
 15 19  1  0
 14 20  1  0
 13 21  1  0
 11 22  1  0
 11 23  1  0
  7 24  1  0
  7 25  1  0
  6 26  1  0
 26 27  2  0
 27 28  1  0
 27 29  1  0
 26 30  1  0
  1 31  1  0
  1 32  1  0
  1 33  1  0
 28  5  1  0
 17 12  1  0
M  END
>  <plip>  (1) 
-0.07142857142857142

>  <filename>  (1) 
[H][c]1[n][c]([H])[c]([C]([H])([H])[C](=[O])[O][C]([H])([H])[c]2[c]([C](=[O])[O][C]([H])([H])[H])[s][c]([H])[c]2[H])[c]([H])[c]1[H]

$$$$
