
     RDKit          3D

 45 47  0  0  0  0  0  0  0  0999 V2000
    4.9615    1.7971   16.9215 H   0  0  0  0  0  0  0  0  0  0  0  0
    5.4279    1.3018   17.7715 C   0  0  0  0  0  0  0  0  0  0  0  0
    6.5882    0.6740   17.5414 N   0  0  0  0  0  0  0  0  0  0  0  0
    7.1765    0.0599   18.5794 C   0  0  0  0  0  0  0  0  0  0  0  0
    8.1148   -0.4378   18.3421 H   0  0  0  0  0  0  0  0  0  0  0  0
    6.6656    0.0372   19.8944 C   0  0  0  0  0  0  0  0  0  0  0  0
    7.3305   -0.7126   21.0702 C   0  0  0  0  0  0  0  0  0  0  0  0
    7.2968    0.1064   22.4243 C   0  0  0  0  0  0  0  0  0  0  0  0
    7.0338   -0.4006   23.5013 O   0  0  0  0  0  0  0  0  0  0  0  0
    7.7018    1.4096   22.2609 N   0  0  0  0  0  0  0  0  0  0  0  0
    7.8849    1.6967   21.3093 H   0  0  0  0  0  0  0  0  0  0  0  0
    8.1250    2.2509   23.2785 N   0  0  0  0  0  0  0  0  0  0  0  0
    8.3637    3.6470   22.8959 C   0  0  0  0  0  0  0  0  0  0  0  0
    9.0724    3.7201   22.0442 H   0  0  0  0  0  0  0  0  0  0  0  0
    7.4369    4.1595   22.6179 H   0  0  0  0  0  0  0  0  0  0  0  0
    8.9839    4.2159   24.1720 C   0  0  0  0  0  0  0  0  0  0  0  0
    8.2034    4.4386   24.9097 H   0  0  0  0  0  0  0  0  0  0  0  0
    9.5472    5.1378   23.9867 H   0  0  0  0  0  0  0  0  0  0  0  0
    9.8795    3.0657   24.6526 C   0  0  2  0  0  0  0  0  0  0  0  0
    9.8480    2.9563   25.7347 H   0  0  0  0  0  0  0  0  0  0  0  0
   11.3145    3.1258   24.1152 C   0  0  0  0  0  0  0  0  0  0  0  0
   11.3436    3.7173   23.1745 H   0  0  0  0  0  0  0  0  0  0  0  0
   11.9979    3.6356   24.7975 H   0  0  0  0  0  0  0  0  0  0  0  0
   11.6756    1.7311   23.8704 N   0  0  0  0  0  0  0  0  0  0  0  0
   12.9149    1.5806   23.1222 C   0  0  0  0  0  0  0  0  0  0  0  0
   13.0947    0.5264   22.8834 H   0  0  0  0  0  0  0  0  0  0  0  0
   12.9269    2.1498   22.1703 H   0  0  0  0  0  0  0  0  0  0  0  0
   13.7573    1.9283   23.7330 H   0  0  0  0  0  0  0  0  0  0  0  0
   10.4757    1.1836   23.2182 C   0  0  0  0  0  0  0  0  0  0  0  0
   10.4593    0.0872   23.2235 H   0  0  0  0  0  0  0  0  0  0  0  0
   10.3959    1.5027   22.1598 H   0  0  0  0  0  0  0  0  0  0  0  0
    9.3037    1.7783   24.0290 C   0  0  2  0  0  0  0  0  0  0  0  0
    8.9835    1.0533   24.7841 H   0  0  0  0  0  0  0  0  0  0  0  0
    6.5578   -2.0300   21.2858 C   0  0  0  0  0  0  0  0  0  0  0  0
    6.9969   -2.5850   22.1188 H   0  0  0  0  0  0  0  0  0  0  0  0
    6.5861   -2.6479   20.3828 H   0  0  0  0  0  0  0  0  0  0  0  0
    5.5114   -1.8251   21.5353 H   0  0  0  0  0  0  0  0  0  0  0  0
    8.8214   -1.0475   20.7857 C   0  0  0  0  0  0  0  0  0  0  0  0
    9.4193   -0.1538   20.5565 H   0  0  0  0  0  0  0  0  0  0  0  0
    8.9041   -1.7266   19.9349 H   0  0  0  0  0  0  0  0  0  0  0  0
    9.2751   -1.5578   21.6434 H   0  0  0  0  0  0  0  0  0  0  0  0
    5.4348    0.6837   20.0981 C   0  0  0  0  0  0  0  0  0  0  0  0
    4.9808    0.6945   21.0933 H   0  0  0  0  0  0  0  0  0  0  0  0
    4.8122    1.3270   19.0290 C   0  0  0  0  0  0  0  0  0  0  0  0
    3.8725    1.8500   19.1594 H   0  0  0  0  0  0  0  0  0  0  0  0
  1  2  1  0
  2  3  2  0
  3  4  1  0
  4  5  1  0
  4  6  2  0
  6  7  1  0
  7  8  1  0
  8  9  2  0
  8 10  1  0
 10 11  1  0
 10 12  1  0
 12 13  1  0
 13 14  1  0
 13 15  1  0
 13 16  1  0
 16 17  1  0
 16 18  1  0
 16 19  1  0
 19 20  1  1
 19 21  1  0
 21 22  1  0
 21 23  1  0
 21 24  1  0
 24 25  1  0
 25 26  1  0
 25 27  1  0
 25 28  1  0
 24 29  1  0
 29 30  1  0
 29 31  1  0
 29 32  1  0
 32 33  1  1
  7 34  1  0
 34 35  1  0
 34 36  1  0
 34 37  1  0
  7 38  1  0
 38 39  1  0
 38 40  1  0
 38 41  1  0
  6 42  1  0
 42 43  1  0
 42 44  2  0
 44 45  1  0
 44  2  1  0
 32 12  1  0
 32 19  1  0
M  END
>  <plip>  (1) 
-0.07142857142857142

>  <filename>  (1) 
[H][c]1[n][c]([H])[c]([C]([C](=[O])[N]([H])[N]2[C]([H])([H])[C]([H])([H])[C@]3([H])[C]([H])([H])[N]([C]([H])([H])[H])[C]([H])([H])[C@]23[H])([C]([H])([H])[H])[C]([H])([H])[H])[c]([H])[c]1[H]

$$$$
