
     RDKit          3D

 30 31  0  0  0  0  0  0  0  0999 V2000
    4.9507    1.7911   17.0174 H   0  0  0  0  0  0  0  0  0  0  0  0
    5.4099    1.2754   17.8566 C   0  0  0  0  0  0  0  0  0  0  0  0
    6.5573    0.6300   17.5920 N   0  0  0  0  0  0  0  0  0  0  0  0
    7.1480   -0.0005   18.6101 C   0  0  0  0  0  0  0  0  0  0  0  0
    8.0925   -0.4960   18.4112 H   0  0  0  0  0  0  0  0  0  0  0  0
    6.6295   -0.0505   19.9209 C   0  0  0  0  0  0  0  0  0  0  0  0
    7.3403   -0.7476   20.9198 N   0  0  0  0  0  0  0  0  0  0  0  0
    8.7460   -0.6975   21.2077 C   0  0  0  0  0  0  0  0  0  0  0  0
    9.5732   -0.1085   20.5381 O   0  0  0  0  0  0  0  0  0  0  0  0
    8.8864   -1.4842   22.4094 C   0  0  0  0  0  0  0  0  0  0  0  0
    9.8205   -1.6847   22.8955 H   0  0  0  0  0  0  0  0  0  0  0  0
    7.6540   -1.8802   22.7747 C   0  0  0  0  0  0  0  0  0  0  0  0
    7.2812   -2.6930   23.8103 N   0  0  0  0  0  0  0  0  0  0  0  0
    7.8948   -2.8440   24.5825 H   0  0  0  0  0  0  0  0  0  0  0  0
    6.0821   -3.3197   23.9442 C   0  0  0  0  0  0  0  0  0  0  0  0
    5.1901   -3.3588   23.1207 O   0  0  0  0  0  0  0  0  0  0  0  0
    6.0985   -3.9089   25.1528 O   0  0  0  0  0  0  0  0  0  0  0  0
    4.9556   -4.6945   25.5380 C   0  0  0  0  0  0  0  0  0  0  0  0
    5.2897   -5.2001   26.4502 H   0  0  0  0  0  0  0  0  0  0  0  0
    4.7552   -5.4531   24.7689 H   0  0  0  0  0  0  0  0  0  0  0  0
    3.7350   -3.8234   25.7890 C   0  0  0  0  0  0  0  0  0  0  0  0
    3.4470   -3.3070   24.8661 H   0  0  0  0  0  0  0  0  0  0  0  0
    2.8958   -4.4472   26.1164 H   0  0  0  0  0  0  0  0  0  0  0  0
    3.9472   -3.0873   26.5736 H   0  0  0  0  0  0  0  0  0  0  0  0
    6.6826   -1.3705   21.9801 N   0  0  0  0  0  0  0  0  0  0  0  0
    5.8266   -1.9102   21.8477 H   0  0  0  0  0  0  0  0  0  0  0  0
    5.4244    0.6168   20.1833 C   0  0  0  0  0  0  0  0  0  0  0  0
    5.0043    0.6109   21.1900 H   0  0  0  0  0  0  0  0  0  0  0  0
    4.8135    1.2926   19.1237 C   0  0  0  0  0  0  0  0  0  0  0  0
    3.8900    1.8397   19.2720 H   0  0  0  0  0  0  0  0  0  0  0  0
  1  2  1  0
  2  3  2  0
  3  4  1  0
  4  5  1  0
  4  6  2  0
  6  7  1  0
  7  8  1  0
  8  9  2  0
  8 10  1  0
 10 11  1  0
 10 12  2  0
 12 13  1  0
 13 14  1  0
 13 15  1  0
 15 16  2  0
 15 17  1  0
 17 18  1  0
 18 19  1  0
 18 20  1  0
 18 21  1  0
 21 22  1  0
 21 23  1  0
 21 24  1  0
 12 25  1  0
 25 26  1  0
  6 27  1  0
 27 28  1  0
 27 29  2  0
 29 30  1  0
 29  2  1  0
 25  7  1  0
M  END
>  <plip>  (1) 
-0.10714285714285714

>  <filename>  (1) 
[H][c]1[n][c]([H])[c](-[n]2[c](=[O])[c]([H])[c]([N]([H])[C](=[O])[O][C]([H])([H])[C]([H])([H])[H])[n]2[H])[c]([H])[c]1[H]

$$$$
