
     RDKit          3D

 36 37  0  0  0  0  0  0  0  0999 V2000
    7.9741   -4.7586   25.3350 C   0  0  0  0  0  0  0  0  0  0  0  0
    6.8014   -3.8168   25.5016 C   0  0  0  0  0  0  0  0  0  0  0  0
    5.7130   -4.1765   26.3124 C   0  0  0  0  0  0  0  0  0  0  0  0
    4.6244   -3.3134   26.4678 C   0  0  0  0  0  0  0  0  0  0  0  0
    4.5513   -2.1203   25.8702 N   0  0  0  0  0  0  0  0  0  0  0  0
    5.5905   -1.7521   25.1117 C   0  0  0  0  0  0  0  0  0  0  0  0
    6.7379   -2.5481   24.8793 C   0  0  0  0  0  0  0  0  0  0  0  0
    7.7915   -2.0866   24.0332 N   0  0  0  0  0  0  0  0  0  0  0  0
    8.2769   -0.7946   24.0024 C   0  0  0  0  0  0  0  0  0  0  0  0
    7.9564    0.0438   24.8247 O   0  0  0  0  0  0  0  0  0  0  0  0
    9.1743   -0.4301   22.8311 C   0  0  0  0  0  0  0  0  0  0  0  0
    8.3627    0.2637   21.7133 C   0  0  0  0  0  0  0  0  0  0  0  0
    7.3982   -0.6952   20.9992 C   0  0  0  0  0  0  0  0  0  0  0  0
    6.6340   -0.0197   19.8864 C   0  0  0  0  0  0  0  0  0  0  0  0
    5.4237    0.6452   20.1304 C   0  0  0  0  0  0  0  0  0  0  0  0
    4.7900    1.3165   19.0804 C   0  0  0  0  0  0  0  0  0  0  0  0
    5.3879    1.3073   17.8164 C   0  0  0  0  0  0  0  0  0  0  0  0
    6.5489    0.6882   17.5595 N   0  0  0  0  0  0  0  0  0  0  0  0
    7.1487    0.0561   18.5788 C   0  0  0  0  0  0  0  0  0  0  0  0
    8.1016   -0.4141   18.3340 H   0  0  0  0  0  0  0  0  0  0  0  0
    4.9229    1.8137   16.9716 H   0  0  0  0  0  0  0  0  0  0  0  0
    3.8631    1.8545   19.2307 H   0  0  0  0  0  0  0  0  0  0  0  0
    4.9972    0.6450   21.1350 H   0  0  0  0  0  0  0  0  0  0  0  0
    6.7020   -1.1164   21.7383 H   0  0  0  0  0  0  0  0  0  0  0  0
    7.9778   -1.5407   20.6026 H   0  0  0  0  0  0  0  0  0  0  0  0
    9.0436    0.7073   20.9742 H   0  0  0  0  0  0  0  0  0  0  0  0
    7.7996    1.1051   22.1414 H   0  0  0  0  0  0  0  0  0  0  0  0
    9.9068    0.2708   23.2410 H   0  0  0  0  0  0  0  0  0  0  0  0
    9.7231   -1.2950   22.4310 H   0  0  0  0  0  0  0  0  0  0  0  0
    8.2784   -2.7728   23.4777 H   0  0  0  0  0  0  0  0  0  0  0  0
    5.5342   -0.7668   24.6469 H   0  0  0  0  0  0  0  0  0  0  0  0
    3.7712   -3.5823   27.0951 H   0  0  0  0  0  0  0  0  0  0  0  0
    5.7136   -5.1324   26.8253 H   0  0  0  0  0  0  0  0  0  0  0  0
    7.9960   -5.2160   24.3382 H   0  0  0  0  0  0  0  0  0  0  0  0
    8.9334   -4.2508   25.4931 H   0  0  0  0  0  0  0  0  0  0  0  0
    7.9072   -5.5749   26.0616 H   0  0  0  0  0  0  0  0  0  0  0  0
  1  2  1  0
  2  3  2  0
  3  4  1  0
  4  5  2  0
  5  6  1  0
  6  7  2  0
  7  8  1  0
  8  9  1  0
  9 10  2  0
  9 11  1  0
 11 12  1  0
 12 13  1  0
 13 14  1  0
 14 15  2  0
 15 16  1  0
 16 17  2  0
 17 18  1  0
 18 19  2  0
 19 20  1  0
 17 21  1  0
 16 22  1  0
 15 23  1  0
 13 24  1  0
 13 25  1  0
 12 26  1  0
 12 27  1  0
 11 28  1  0
 11 29  1  0
  8 30  1  0
  6 31  1  0
  4 32  1  0
  3 33  1  0
  1 34  1  0
  1 35  1  0
  1 36  1  0
  7  2  1  0
 19 14  1  0
M  END
>  <plip>  (1) 
-0.0

>  <filename>  (1) 
[H][c]1[n][c]([H])[c]([C]([H])([H])[C]([H])([H])[C]([H])([H])[C](=[O])[N]([H])[c]2[c]([H])[n][c]([H])[c]([H])[c]2[C]([H])([H])[H])[c]([H])[c]1[H]

$$$$
