
     RDKit          3D

 47 50  0  0  0  0  0  0  0  0999 V2000
    6.9055    1.4986   22.6541 O   0  0  0  0  0  0  0  0  0  0  0  0
    8.0542    1.2308   22.3543 C   0  0  0  0  0  0  0  0  0  0  0  0
    8.3852    0.0896   21.6628 N   0  0  0  0  0  0  0  0  0  0  0  0
    7.4033   -0.7912   21.0235 C   0  0  0  0  0  0  0  0  0  0  0  0
    6.5633   -1.5101   22.1090 C   0  0  0  0  0  0  0  0  0  0  0  0
    5.7625   -2.7133   21.6609 N   0  0  0  0  0  4  0  0  0  0  0  0
    6.5553   -3.8067   20.9667 C   0  0  0  0  0  0  0  0  0  0  0  0
    5.7453   -5.0967   21.1491 C   0  0  0  0  0  0  0  0  0  0  0  0
    4.7323   -4.8180   22.2800 C   0  0  0  0  0  0  0  0  0  0  0  0
    5.0602   -3.4193   22.7993 C   0  0  0  0  0  0  0  0  0  0  0  0
    5.7654   -3.4751   23.6333 H   0  0  0  0  0  0  0  0  0  0  0  0
    4.1725   -2.8783   23.1381 H   0  0  0  0  0  0  0  0  0  0  0  0
    3.7007   -4.8640   21.9245 H   0  0  0  0  0  0  0  0  0  0  0  0
    4.7995   -5.5455   23.0948 H   0  0  0  0  0  0  0  0  0  0  0  0
    6.4166   -5.9222   21.4001 H   0  0  0  0  0  0  0  0  0  0  0  0
    5.2495   -5.3721   20.2131 H   0  0  0  0  0  0  0  0  0  0  0  0
    6.7041   -3.5396   19.9203 H   0  0  0  0  0  0  0  0  0  0  0  0
    7.5356   -3.8670   21.4512 H   0  0  0  0  0  0  0  0  0  0  0  0
    5.0390   -2.3456   21.0052 H   0  0  0  0  0  0  0  0  0  0  0  0
    5.9322   -0.7819   22.6253 H   0  0  0  0  0  0  0  0  0  0  0  0
    7.2930   -1.8441   22.8536 H   0  0  0  0  0  0  0  0  0  0  0  0
    6.6345   -0.0478   19.9438 C   0  0  0  0  0  0  0  0  0  0  0  0
    5.4379    0.6476   20.1643 C   0  0  0  0  0  0  0  0  0  0  0  0
    4.8324    1.2993   19.0831 C   0  0  0  0  0  0  0  0  0  0  0  0
    5.4638    1.2695   17.8367 C   0  0  0  0  0  0  0  0  0  0  0  0
    6.6306    0.6462   17.6166 N   0  0  0  0  0  0  0  0  0  0  0  0
    7.1935    0.0209   18.6558 C   0  0  0  0  0  0  0  0  0  0  0  0
    8.1387   -0.4779   18.4360 H   0  0  0  0  0  0  0  0  0  0  0  0
    5.0175    1.7673   16.9752 H   0  0  0  0  0  0  0  0  0  0  0  0
    3.8993    1.8397   19.2003 H   0  0  0  0  0  0  0  0  0  0  0  0
    5.0161    0.7194   21.1682 H   0  0  0  0  0  0  0  0  0  0  0  0
    7.9841   -1.5819   20.5311 H   0  0  0  0  0  0  0  0  0  0  0  0
    9.2925    0.1452   21.2383 H   0  0  0  0  0  0  0  0  0  0  0  0
    9.2358    2.0657   22.7610 C   0  0  0  0  0  0  0  0  0  0  0  0
   10.5039    1.6463   23.0327 C   0  0  0  0  0  0  0  0  0  0  0  0
   11.2880    2.6213   23.5692 O   0  0  0  0  0  0  0  0  0  0  0  0
   10.5223    3.7396   23.6565 C   0  0  0  0  0  0  0  0  0  0  0  0
   10.9194    4.9661   24.2068 C   0  0  0  0  0  0  0  0  0  0  0  0
    9.9480    5.9554   24.1863 C   0  0  0  0  0  0  0  0  0  0  0  0
   10.2451    7.1479   24.7193 F   0  0  0  0  0  0  0  0  0  0  0  0
    8.6682    5.7859   23.6370 C   0  0  0  0  0  0  0  0  0  0  0  0
    8.3344    4.5460   23.1068 C   0  0  0  0  0  0  0  0  0  0  0  0
    7.1263    4.3861   22.5634 F   0  0  0  0  0  0  0  0  0  0  0  0
    9.2419    3.4787   23.1413 C   0  0  0  0  0  0  0  0  0  0  0  0
    7.9545    6.5970   23.6206 H   0  0  0  0  0  0  0  0  0  0  0  0
   11.9016    5.1611   24.6186 H   0  0  0  0  0  0  0  0  0  0  0  0
   11.0081    0.6911   22.9637 H   0  0  0  0  0  0  0  0  0  0  0  0
  1  2  2  0
  2  3  1  0
  3  4  1  0
  4  5  1  0
  5  6  1  0
  6  7  1  0
  7  8  1  0
  8  9  1  0
  9 10  1  0
 10 11  1  0
 10 12  1  0
  9 13  1  0
  9 14  1  0
  8 15  1  0
  8 16  1  0
  7 17  1  0
  7 18  1  0
  6 19  1  0
  5 20  1  0
  5 21  1  0
  4 22  1  0
 22 23  2  0
 23 24  1  0
 24 25  2  0
 25 26  1  0
 26 27  2  0
 27 28  1  0
 25 29  1  0
 24 30  1  0
 23 31  1  0
  4 32  1  0
  3 33  1  0
  2 34  1  0
 34 35  2  0
 35 36  1  0
 36 37  1  0
 37 38  2  0
 38 39  1  0
 39 40  1  0
 39 41  2  0
 41 42  1  0
 42 43  1  0
 42 44  2  0
 41 45  1  0
 38 46  1  0
 35 47  1  0
 10  6  1  0
 27 22  1  0
 44 34  1  0
 44 37  1  0
M  CHG  1   6   1
M  END
>  <plip>  (1) 
-0.1

>  <filename>  (1) 
[H][c]1[n][c]([H])[c]([C]([H])([N]([H])[C](=[O])[c]2[c]([H])[o][c]3[c]([H])[c]([F])[c]([H])[c]([F])[c]23)[C]([H])([H])[N+]2([H])[C]([H])([H])[C]([H])([H])[C]([H])([H])[C]2([H])[H])[c]([H])[c]1[H]

$$$$
