
     RDKit          3D

 32 33  0  0  0  0  0  0  0  0999 V2000
    5.0707    0.6588   28.8229 O   0  0  0  0  0  0  0  0  0  0  0  0
    6.2595   -0.1269   28.6226 C   0  0  0  0  0  0  0  0  0  0  0  0
    7.0510    0.1219   27.3239 C   0  0  0  0  0  0  0  0  0  0  0  0
    7.7314    1.3288   27.1092 C   0  0  0  0  0  0  0  0  0  0  0  0
    8.3467    1.4774   25.8801 C   0  0  0  0  0  0  0  0  0  0  0  0
    8.3531    0.5393   24.9386 N   0  0  0  0  0  0  0  0  0  0  0  0
    7.7505   -0.5887   25.2839 C   0  0  0  0  0  0  0  0  0  0  0  0
    7.7677   -1.6387   24.4456 N   0  0  0  0  0  0  0  0  0  0  0  0
    8.0070   -1.5549   23.0066 C   0  0  0  0  0  0  0  0  0  0  0  0
    6.9417   -0.7980   22.2038 C   0  0  0  0  0  0  0  0  0  0  0  0
    7.4028   -0.7474   20.8533 O   0  0  0  0  0  0  0  0  0  0  0  0
    6.6868   -0.0493   19.9336 C   0  0  0  0  0  0  0  0  0  0  0  0
    5.4774    0.6120   20.1760 C   0  0  0  0  0  0  0  0  0  0  0  0
    4.8599    1.2767   19.1073 C   0  0  0  0  0  0  0  0  0  0  0  0
    5.4645    1.2688   17.8500 C   0  0  0  0  0  0  0  0  0  0  0  0
    6.6271    0.6357   17.6052 N   0  0  0  0  0  0  0  0  0  0  0  0
    7.2163    0.0011   18.6227 C   0  0  0  0  0  0  0  0  0  0  0  0
    8.1562   -0.5069   18.4188 H   0  0  0  0  0  0  0  0  0  0  0  0
    5.0069    1.7834   17.0072 H   0  0  0  0  0  0  0  0  0  0  0  0
    3.9236    1.8043   19.2523 H   0  0  0  0  0  0  0  0  0  0  0  0
    5.0380    0.6078   21.1730 H   0  0  0  0  0  0  0  0  0  0  0  0
    5.9709   -1.3076   22.2359 H   0  0  0  0  0  0  0  0  0  0  0  0
    6.8266    0.2097   22.6252 H   0  0  0  0  0  0  0  0  0  0  0  0
    8.9742   -1.0654   22.8323 H   0  0  0  0  0  0  0  0  0  0  0  0
    8.0779   -2.5707   22.6004 H   0  0  0  0  0  0  0  0  0  0  0  0
    7.1681   -2.3145   24.8914 H   0  0  0  0  0  0  0  0  0  0  0  0
    7.0997   -0.8598   26.4252 N   0  0  0  0  0  0  0  0  0  0  0  0
    8.8680    2.4051   25.6390 H   0  0  0  0  0  0  0  0  0  0  0  0
    7.8068    2.0948   27.8658 H   0  0  0  0  0  0  0  0  0  0  0  0
    6.0608   -1.2054   28.6486 H   0  0  0  0  0  0  0  0  0  0  0  0
    6.9236    0.1325   29.4579 H   0  0  0  0  0  0  0  0  0  0  0  0
    4.2889    0.1297   28.6113 H   0  0  0  0  0  0  0  0  0  0  0  0
  1  2  1  0
  2  3  1  0
  3  4  2  0
  4  5  1  0
  5  6  2  0
  6  7  1  0
  7  8  1  0
  8  9  1  0
  9 10  1  0
 10 11  1  0
 11 12  1  0
 12 13  2  0
 13 14  1  0
 14 15  2  0
 15 16  1  0
 16 17  2  0
 17 18  1  0
 15 19  1  0
 14 20  1  0
 13 21  1  0
 10 22  1  0
 10 23  1  0
  9 24  1  0
  9 25  1  0
  8 26  1  0
  7 27  2  0
  5 28  1  0
  4 29  1  0
  2 30  1  0
  2 31  1  0
  1 32  1  0
 27  3  1  0
 17 12  1  0
M  END
>  <plip>  (1) 
-0.03571428571428571

>  <filename>  (1) 
[H][O][C]([H])([H])[c]1[n][c]([N]([H])[C]([H])([H])[C]([H])([H])[O][c]2[c]([H])[n][c]([H])[c]([H])[c]2[H])[n][c]([H])[c]1[H]

$$$$
