
     RDKit          3D

 44 46  0  0  0  0  0  0  0  0999 V2000
    6.1652   -3.1754   20.0557 O   0  0  0  0  0  0  0  0  0  0  0  0
    6.1564   -2.9111   21.2451 C   0  0  0  0  0  0  0  0  0  0  0  0
    5.7709   -3.9285   22.3297 C   0  0  0  0  0  0  0  0  0  0  0  0
    6.8377   -4.2035   23.3701 C   0  0  0  0  0  0  0  0  0  0  0  0
    7.9218   -5.0283   23.2567 C   0  0  0  0  0  0  0  0  0  0  0  0
    8.7269   -4.9070   24.3721 N   0  0  0  0  0  0  0  0  0  0  0  0
    8.1748   -3.9839   25.2309 C   0  0  0  0  0  0  0  0  0  0  0  0
    8.5671   -3.4463   26.4843 C   0  0  0  0  0  0  0  0  0  0  0  0
    7.8372   -2.5247   27.1157 N   0  0  0  0  0  0  0  0  0  0  0  0
    6.6919   -2.0950   26.5287 C   0  0  0  0  0  0  0  0  0  0  0  0
    6.2280   -2.5529   25.3034 C   0  0  0  0  0  0  0  0  0  0  0  0
    6.9804   -3.5321   24.6301 C   0  0  0  0  0  0  0  0  0  0  0  0
    5.3028   -2.1807   24.8801 H   0  0  0  0  0  0  0  0  0  0  0  0
    6.1221   -1.3435   27.0728 H   0  0  0  0  0  0  0  0  0  0  0  0
    9.4894   -3.7717   26.9668 H   0  0  0  0  0  0  0  0  0  0  0  0
    9.6112   -5.3729   24.5167 H   0  0  0  0  0  0  0  0  0  0  0  0
    8.1846   -5.7077   22.4510 H   0  0  0  0  0  0  0  0  0  0  0  0
    4.8663   -3.5408   22.8162 H   0  0  0  0  0  0  0  0  0  0  0  0
    5.4757   -4.8436   21.8189 H   0  0  0  0  0  0  0  0  0  0  0  0
    6.4844   -1.6839   21.7343 N   0  0  0  0  0  0  0  0  0  0  0  0
    7.3334   -0.7508   21.0203 C   0  0  0  0  0  0  0  0  0  0  0  0
    7.9720    0.2524   21.9985 C   0  0  0  0  0  0  0  0  0  0  0  0
    8.7281   -0.3341   23.2052 C   0  0  0  0  0  0  0  0  0  0  0  0
    9.8137   -1.3549   22.8757 C   0  0  0  0  0  0  0  0  0  0  0  0
   10.8194   -0.8443   22.0234 O   0  0  0  0  0  0  0  0  0  0  0  0
   11.2356   -0.1071   22.4854 H   0  0  0  0  0  0  0  0  0  0  0  0
    9.3776   -2.2054   22.3381 H   0  0  0  0  0  0  0  0  0  0  0  0
   10.2494   -1.7579   23.8057 H   0  0  0  0  0  0  0  0  0  0  0  0
    9.1765    0.4998   23.7643 H   0  0  0  0  0  0  0  0  0  0  0  0
    8.0239   -0.8162   23.8952 H   0  0  0  0  0  0  0  0  0  0  0  0
    7.1872    0.9320   22.3608 H   0  0  0  0  0  0  0  0  0  0  0  0
    8.6601    0.8745   21.4177 H   0  0  0  0  0  0  0  0  0  0  0  0
    6.5728   -0.0445   19.9083 C   0  0  0  0  0  0  0  0  0  0  0  0
    5.3658    0.6395   20.1182 C   0  0  0  0  0  0  0  0  0  0  0  0
    4.7915    1.3183   19.0416 C   0  0  0  0  0  0  0  0  0  0  0  0
    5.4354    1.3051   17.7983 C   0  0  0  0  0  0  0  0  0  0  0  0
    6.5821    0.6464   17.5725 N   0  0  0  0  0  0  0  0  0  0  0  0
    7.1132   -0.0050   18.6167 C   0  0  0  0  0  0  0  0  0  0  0  0
    8.0443   -0.5332   18.4143 H   0  0  0  0  0  0  0  0  0  0  0  0
    5.0157    1.8488   16.9523 H   0  0  0  0  0  0  0  0  0  0  0  0
    3.8686    1.8750   19.1569 H   0  0  0  0  0  0  0  0  0  0  0  0
    4.8850    0.6485   21.1015 H   0  0  0  0  0  0  0  0  0  0  0  0
    8.1405   -1.3268   20.5372 H   0  0  0  0  0  0  0  0  0  0  0  0
    6.2371   -1.4613   22.6843 H   0  0  0  0  0  0  0  0  0  0  0  0
  1  2  2  0
  2  3  1  0
  3  4  1  0
  4  5  2  0
  5  6  1  0
  6  7  1  0
  7  8  2  0
  8  9  1  0
  9 10  2  0
 10 11  1  0
 11 12  2  0
 11 13  1  0
 10 14  1  0
  8 15  1  0
  6 16  1  0
  5 17  1  0
  3 18  1  0
  3 19  1  0
  2 20  1  0
 20 21  1  0
 21 22  1  0
 22 23  1  0
 23 24  1  0
 24 25  1  0
 25 26  1  0
 24 27  1  0
 24 28  1  0
 23 29  1  0
 23 30  1  0
 22 31  1  0
 22 32  1  0
 21 33  1  0
 33 34  2  0
 34 35  1  0
 35 36  2  0
 36 37  1  0
 37 38  2  0
 38 39  1  0
 36 40  1  0
 35 41  1  0
 34 42  1  0
 21 43  1  0
 20 44  1  0
 12  4  1  0
 38 33  1  0
 12  7  1  0
M  END
>  <plip>  (1) 
-0.17857142857142858

>  <filename>  (1) 
[H][O][C]([H])([H])[C]([H])([H])[C]([H])([H])[C]([H])([c]1[c]([H])[n][c]([H])[c]([H])[c]1[H])[N]([H])[C](=[O])[C]([H])([H])[c]1[c]([H])[n]([H])[c]2[c]([H])[n][c]([H])[c]([H])[c]12

$$$$
