
     RDKit          3D

 40 42  0  0  0  0  0  0  0  0999 V2000
    4.9298    1.8620   16.9302 H   0  0  0  0  0  0  0  0  0  0  0  0
    5.3811    1.3171   17.7563 C   0  0  0  0  0  0  0  0  0  0  0  0
    6.5161    0.6612   17.4776 N   0  0  0  0  0  0  0  0  0  0  0  0
    7.1129    0.0171   18.4903 C   0  0  0  0  0  0  0  0  0  0  0  0
    8.0313   -0.5154   18.2354 H   0  0  0  0  0  0  0  0  0  0  0  0
    6.6339   -0.0093   19.8148 C   0  0  0  0  0  0  0  0  0  0  0  0
    7.3849   -0.7315   20.9105 C   0  0  0  0  0  0  0  0  0  0  0  0
    7.9029   -1.5955   20.4695 H   0  0  0  0  0  0  0  0  0  0  0  0
    6.6621   -1.1381   21.6304 H   0  0  0  0  0  0  0  0  0  0  0  0
    8.4468    0.0346   21.7608 C   0  0  1  0  0  0  0  0  0  0  0  0
    8.8706   -0.9853   22.7366 N   0  0  0  0  0  0  0  0  0  0  0  0
    8.9862   -1.8887   22.2893 H   0  0  0  0  0  0  0  0  0  0  0  0
    9.9633   -0.7185   23.6760 C   0  0  0  0  0  0  0  0  0  0  0  0
    9.8018    0.2674   24.1326 H   0  0  0  0  0  0  0  0  0  0  0  0
   10.9494   -0.6941   23.1790 H   0  0  0  0  0  0  0  0  0  0  0  0
    9.9464   -1.7816   24.7676 C   0  0  0  0  0  0  0  0  0  0  0  0
    9.2049   -1.5910   25.9485 C   0  0  0  0  0  0  0  0  0  0  0  0
    8.7623   -0.6318   26.1966 H   0  0  0  0  0  0  0  0  0  0  0  0
    9.0505   -2.6626   26.8358 C   0  0  0  0  0  0  0  0  0  0  0  0
    8.4495   -2.5406   27.7354 H   0  0  0  0  0  0  0  0  0  0  0  0
    9.5854   -3.8741   26.6468 N   0  0  0  0  0  0  0  0  0  0  0  0
   10.2981   -4.0505   25.5273 C   0  0  0  0  0  0  0  0  0  0  0  0
   10.6791   -5.0555   25.3543 H   0  0  0  0  0  0  0  0  0  0  0  0
   10.5302   -3.0495   24.5821 C   0  0  0  0  0  0  0  0  0  0  0  0
   11.1400   -3.2796   23.7138 H   0  0  0  0  0  0  0  0  0  0  0  0
    9.5825    0.6773   20.8970 C   0  0  0  0  0  0  0  0  0  0  0  0
    9.1695    0.9009   19.9093 H   0  0  0  0  0  0  0  0  0  0  0  0
   10.4302   -0.0046   20.7524 H   0  0  0  0  0  0  0  0  0  0  0  0
   10.0091    1.9478   21.4985 N   0  0  0  0  0  0  0  0  0  0  0  0
   10.7995    1.8012   22.1149 H   0  0  0  0  0  0  0  0  0  0  0  0
    8.8674    2.4503   22.2768 C   0  0  0  0  0  0  0  0  0  0  0  0
    9.2100    2.8923   23.2221 H   0  0  0  0  0  0  0  0  0  0  0  0
    8.3743    3.2616   21.7226 H   0  0  0  0  0  0  0  0  0  0  0  0
    7.8842    1.2746   22.5036 C   0  0  0  0  0  0  0  0  0  0  0  0
    6.8980    1.5449   22.1173 H   0  0  0  0  0  0  0  0  0  0  0  0
    7.7395    1.0436   23.5626 H   0  0  0  0  0  0  0  0  0  0  0  0
    5.4135    0.6381   20.0626 C   0  0  0  0  0  0  0  0  0  0  0  0
    4.9633    0.6015   21.0581 H   0  0  0  0  0  0  0  0  0  0  0  0
    4.7821    1.3207   19.0184 C   0  0  0  0  0  0  0  0  0  0  0  0
    3.8576    1.8632   19.1777 H   0  0  0  0  0  0  0  0  0  0  0  0
  1  2  1  0
  2  3  2  0
  3  4  1  0
  4  5  1  0
  4  6  2  0
  6  7  1  0
  7  8  1  0
  7  9  1  0
  7 10  1  0
 10 11  1  1
 11 12  1  0
 11 13  1  0
 13 14  1  0
 13 15  1  0
 13 16  1  0
 16 17  2  0
 17 18  1  0
 17 19  1  0
 19 20  1  0
 19 21  2  0
 21 22  1  0
 22 23  1  0
 22 24  2  0
 24 25  1  0
 10 26  1  0
 26 27  1  0
 26 28  1  0
 26 29  1  0
 29 30  1  0
 29 31  1  0
 31 32  1  0
 31 33  1  0
 31 34  1  0
 34 35  1  0
 34 36  1  0
  6 37  1  0
 37 38  1  0
 37 39  2  0
 39 40  1  0
 39  2  1  0
 34 10  1  0
 24 16  1  0
M  END
>  <plip>  (1) 
-0.10344827586206896

>  <filename>  (1) 
[H][c]1[n][c]([H])[c]([C]([H])([H])[C@@]2([N]([H])[C]([H])([H])[c]3[c]([H])[c]([H])[n][c]([H])[c]3[H])[C]([H])([H])[N]([H])[C]([H])([H])[C]2([H])[H])[c]([H])[c]1[H]

$$$$
