
     RDKit          3D

 30 32  0  0  0  0  0  0  0  0999 V2000
    4.9148    1.7950   16.9831 H   0  0  0  0  0  0  0  0  0  0  0  0
    5.3906    1.3031   17.8275 C   0  0  0  0  0  0  0  0  0  0  0  0
    6.5519    0.6850   17.5646 N   0  0  0  0  0  0  0  0  0  0  0  0
    7.1480    0.0621   18.5869 C   0  0  0  0  0  0  0  0  0  0  0  0
    8.1025   -0.4139   18.3737 H   0  0  0  0  0  0  0  0  0  0  0  0
    6.6290   -0.0045   19.8954 C   0  0  0  0  0  0  0  0  0  0  0  0
    7.3948   -0.7217   20.9960 C   0  0  0  0  0  0  0  0  0  0  0  0
    7.6681   -1.7361   20.6768 H   0  0  0  0  0  0  0  0  0  0  0  0
    6.7814   -0.8127   21.9035 H   0  0  0  0  0  0  0  0  0  0  0  0
    8.6780   -0.0257   21.3471 C   0  0  0  0  0  0  0  0  0  0  0  0
    9.8500   -0.3451   20.8625 N   0  0  0  0  0  0  0  0  0  0  0  0
   10.7689    0.5500   21.3552 N   0  0  0  0  0  0  0  0  0  0  0  0
   10.1221    1.3895   22.1106 C   0  0  0  0  0  0  0  0  0  0  0  0
   10.5625    2.1952   22.6828 H   0  0  0  0  0  0  0  0  0  0  0  0
    8.7822    1.0945   22.1342 N   0  0  0  0  0  0  0  0  0  0  0  0
    7.7482    1.7243   22.9286 C   0  0  0  0  0  0  0  0  0  0  0  0
    6.8589    1.8737   22.3130 H   0  0  0  0  0  0  0  0  0  0  0  0
    8.1041    2.7078   23.2486 H   0  0  0  0  0  0  0  0  0  0  0  0
    7.3559    0.9372   24.0768 N   0  0  0  0  0  0  0  0  0  0  0  0
    8.1838    0.5226   25.0833 C   0  0  0  0  0  0  0  0  0  0  0  0
    9.2390    0.7689   25.1010 H   0  0  0  0  0  0  0  0  0  0  0  0
    7.5480   -0.1816   25.9837 N   0  0  0  0  0  0  0  0  0  0  0  0
    6.2444   -0.2368   25.5573 C   0  0  0  0  0  0  0  0  0  0  0  0
    5.4885   -0.7658   26.1279 H   0  0  0  0  0  0  0  0  0  0  0  0
    6.0952    0.4498   24.3833 C   0  0  0  0  0  0  0  0  0  0  0  0
    5.2343    0.6162   23.7460 H   0  0  0  0  0  0  0  0  0  0  0  0
    5.4238    0.6537   20.1462 C   0  0  0  0  0  0  0  0  0  0  0  0
    4.9981    0.6373   21.1546 H   0  0  0  0  0  0  0  0  0  0  0  0
    4.7928    1.3216   19.0926 C   0  0  0  0  0  0  0  0  0  0  0  0
    3.8626    1.8529   19.2457 H   0  0  0  0  0  0  0  0  0  0  0  0
  1  2  1  0
  2  3  2  0
  3  4  1  0
  4  5  1  0
  4  6  2  0
  6  7  1  0
  7  8  1  0
  7  9  1  0
  7 10  1  0
 10 11  2  0
 11 12  1  0
 12 13  2  0
 13 14  1  0
 13 15  1  0
 15 16  1  0
 16 17  1  0
 16 18  1  0
 16 19  1  0
 19 20  1  0
 20 21  1  0
 20 22  2  0
 22 23  1  0
 23 24  1  0
 23 25  2  0
 25 26  1  0
  6 27  1  0
 27 28  1  0
 27 29  2  0
 29 30  1  0
 29  2  1  0
 15 10  1  0
 25 19  1  0
M  END
>  <plip>  (1) 
-0.07142857142857142

>  <filename>  (1) 
[H][c]1[n][c]([H])[c]([C]([H])([H])[c]2[n][n][c]([H])[n]2[C]([H])([H])[n]2[c]([H])[n][c]([H])[c]2[H])[c]([H])[c]1[H]

$$$$
