
     RDKit          3D

 37 39  0  0  0  0  0  0  0  0999 V2000
    8.4141   -2.0268   19.9066 H   0  0  0  0  0  0  0  0  0  0  0  0
    8.2115   -1.6804   20.8978 C   0  0  0  0  0  0  0  0  0  0  0  0
    8.7625   -2.3482   21.8894 N   0  0  0  0  0  0  0  0  0  0  0  0
    8.5671   -1.8874   23.1365 N   0  0  0  0  0  0  0  0  0  0  0  0
    7.8537   -0.7655   23.3254 C   0  0  0  0  0  0  0  0  0  0  0  0
    7.7792   -0.2630   24.5935 N   0  0  0  0  0  0  0  0  0  0  0  0
    6.7511    0.7304   24.8878 C   0  0  0  0  0  0  0  0  0  0  0  0
    6.5290    1.2887   23.9790 H   0  0  0  0  0  0  0  0  0  0  0  0
    5.8157    0.2344   25.2015 H   0  0  0  0  0  0  0  0  0  0  0  0
    7.2438    1.6723   25.9703 C   0  0  0  0  0  0  0  0  0  0  0  0
    8.1124    2.2288   25.5999 H   0  0  0  0  0  0  0  0  0  0  0  0
    6.4708    2.4107   26.2223 H   0  0  0  0  0  0  0  0  0  0  0  0
    7.6730    0.8840   27.2072 C   0  0  0  0  0  0  0  0  0  0  0  0
    6.8158    0.2880   27.5721 H   0  0  0  0  0  0  0  0  0  0  0  0
    8.1441    1.7738   28.1905 O   0  0  0  0  0  0  0  0  0  0  0  0
    7.2527    2.1693   29.1992 C   0  0  0  0  0  0  0  0  0  0  0  0
    7.7941    2.9034   29.8013 H   0  0  0  0  0  0  0  0  0  0  0  0
    6.9706    1.3213   29.8432 H   0  0  0  0  0  0  0  0  0  0  0  0
    6.3366    2.6494   28.8113 H   0  0  0  0  0  0  0  0  0  0  0  0
    8.7865   -0.0943   26.8301 C   0  0  0  0  0  0  0  0  0  0  0  0
    9.1261   -0.6588   27.7097 H   0  0  0  0  0  0  0  0  0  0  0  0
    9.6533    0.4663   26.4641 H   0  0  0  0  0  0  0  0  0  0  0  0
    8.2974   -1.0364   25.7338 C   0  0  0  0  0  0  0  0  0  0  0  0
    7.5132   -1.7064   26.1245 H   0  0  0  0  0  0  0  0  0  0  0  0
    9.1079   -1.6804   25.3886 H   0  0  0  0  0  0  0  0  0  0  0  0
    7.2019   -0.0826   22.3487 N   0  0  0  0  0  0  0  0  0  0  0  0
    7.3728   -0.5527   21.1255 C   0  0  0  0  0  0  0  0  0  0  0  0
    6.6404    0.0972   20.0173 C   0  0  0  0  0  0  0  0  0  0  0  0
    7.1759    0.0841   18.7202 C   0  0  0  0  0  0  0  0  0  0  0  0
    8.1292   -0.4089   18.5150 H   0  0  0  0  0  0  0  0  0  0  0  0
    6.5924    0.6513   17.6640 N   0  0  0  0  0  0  0  0  0  0  0  0
    5.4204    1.2703   17.8713 C   0  0  0  0  0  0  0  0  0  0  0  0
    4.9799    1.7496   17.0012 H   0  0  0  0  0  0  0  0  0  0  0  0
    4.7793    1.3210   19.1112 C   0  0  0  0  0  0  0  0  0  0  0  0
    3.8300    1.8388   19.2092 H   0  0  0  0  0  0  0  0  0  0  0  0
    5.3951    0.7243   20.2103 C   0  0  0  0  0  0  0  0  0  0  0  0
    4.9324    0.7341   21.1989 H   0  0  0  0  0  0  0  0  0  0  0  0
  1  2  1  0
  2  3  2  0
  3  4  1  0
  4  5  2  0
  5  6  1  0
  6  7  1  0
  7  8  1  0
  7  9  1  0
  7 10  1  0
 10 11  1  0
 10 12  1  0
 10 13  1  0
 13 14  1  0
 13 15  1  0
 15 16  1  0
 16 17  1  0
 16 18  1  0
 16 19  1  0
 13 20  1  0
 20 21  1  0
 20 22  1  0
 20 23  1  0
 23 24  1  0
 23 25  1  0
  5 26  1  0
 26 27  2  0
 27 28  1  0
 28 29  2  0
 29 30  1  0
 29 31  1  0
 31 32  2  0
 32 33  1  0
 32 34  1  0
 34 35  1  0
 34 36  2  0
 36 37  1  0
 27  2  1  0
 36 28  1  0
 23  6  1  0
M  END
>  <plip>  (1) 
-0.0

>  <filename>  (1) 
[H][c]1[n][n][c]([N]2[C]([H])([H])[C]([H])([H])[C]([H])([O][C]([H])([H])[H])[C]([H])([H])[C]2([H])[H])[n][c]1-[c]1[c]([H])[n][c]([H])[c]([H])[c]1[H]

$$$$
