
     RDKit          3D

 48 50  0  0  0  0  0  0  0  0999 V2000
    8.7918   -5.8250   25.1452 C   0  0  0  0  0  0  0  0  0  0  0  0
    7.6140   -5.1559   24.6344 N   0  0  0  0  0  0  0  0  0  0  0  0
    7.1838   -5.1468   23.3205 C   0  0  0  0  0  0  0  0  0  0  0  0
    6.0867   -4.3451   23.1656 C   0  0  0  0  0  0  0  0  0  0  0  0
    5.3628   -3.9497   21.9115 C   0  0  0  0  0  0  0  0  0  0  0  0
    5.9727   -2.8433   21.0421 C   0  0  0  0  0  0  0  0  0  0  0  0
    5.9825   -2.9523   19.8260 O   0  0  0  0  0  0  0  0  0  0  0  0
    6.4394   -1.7449   21.6916 N   0  0  0  0  0  0  0  0  0  0  0  0
    7.2876   -0.7644   21.0266 C   0  0  0  0  0  0  0  0  0  0  0  0
    7.8849    0.2338   22.0355 C   0  0  0  0  0  0  0  0  0  0  0  0
    9.0224   -0.2951   22.9328 C   0  0  0  0  0  0  0  0  0  0  0  0
    8.6562   -1.4076   23.9130 C   0  0  0  0  0  0  0  0  0  0  0  0
    7.5708   -1.0464   24.7475 O   0  0  0  0  0  0  0  0  0  0  0  0
    7.8429   -0.2594   25.2390 H   0  0  0  0  0  0  0  0  0  0  0  0
    9.5441   -1.6900   24.5048 H   0  0  0  0  0  0  0  0  0  0  0  0
    8.3391   -2.3144   23.3863 H   0  0  0  0  0  0  0  0  0  0  0  0
    9.4184    0.5481   23.5196 H   0  0  0  0  0  0  0  0  0  0  0  0
    9.8578   -0.6444   22.3103 H   0  0  0  0  0  0  0  0  0  0  0  0
    8.2892    1.0818   21.4693 H   0  0  0  0  0  0  0  0  0  0  0  0
    7.0767    0.6460   22.6557 H   0  0  0  0  0  0  0  0  0  0  0  0
    6.5412   -0.0503   19.9114 C   0  0  0  0  0  0  0  0  0  0  0  0
    5.3376    0.6372   20.1119 C   0  0  0  0  0  0  0  0  0  0  0  0
    4.7788    1.3356   19.0399 C   0  0  0  0  0  0  0  0  0  0  0  0
    5.4375    1.3133   17.8055 C   0  0  0  0  0  0  0  0  0  0  0  0
    6.5797    0.6475   17.5849 N   0  0  0  0  0  0  0  0  0  0  0  0
    7.0985   -0.0156   18.6278 C   0  0  0  0  0  0  0  0  0  0  0  0
    8.0297   -0.5497   18.4279 H   0  0  0  0  0  0  0  0  0  0  0  0
    5.0218    1.8331   16.9463 H   0  0  0  0  0  0  0  0  0  0  0  0
    3.8539    1.8890   19.1466 H   0  0  0  0  0  0  0  0  0  0  0  0
    4.8474    0.6182   21.0883 H   0  0  0  0  0  0  0  0  0  0  0  0
    8.1282   -1.2976   20.5514 H   0  0  0  0  0  0  0  0  0  0  0  0
    6.3482   -1.7070   22.6979 H   0  0  0  0  0  0  0  0  0  0  0  0
    5.2649   -4.8044   21.2437 H   0  0  0  0  0  0  0  0  0  0  0  0
    4.3379   -3.6360   22.1624 H   0  0  0  0  0  0  0  0  0  0  0  0
    5.7960   -3.8208   24.4657 C   0  0  0  0  0  0  0  0  0  0  0  0
    4.7841   -2.9731   24.9551 C   0  0  0  0  0  0  0  0  0  0  0  0
    4.8265   -2.5612   26.2753 C   0  0  0  0  0  0  0  0  0  0  0  0
    5.8592   -3.0006   27.1336 C   0  0  0  0  0  0  0  0  0  0  0  0
    6.8436   -3.8831   26.6960 C   0  0  0  0  0  0  0  0  0  0  0  0
    6.7975   -4.3027   25.3538 C   0  0  0  0  0  0  0  0  0  0  0  0
    7.6329   -4.2389   27.3553 H   0  0  0  0  0  0  0  0  0  0  0  0
    5.8806   -2.6243   28.1495 H   0  0  0  0  0  0  0  0  0  0  0  0
    4.0581   -1.8898   26.6483 H   0  0  0  0  0  0  0  0  0  0  0  0
    3.9780   -2.6593   24.2988 H   0  0  0  0  0  0  0  0  0  0  0  0
    7.7236   -5.7362   22.5865 H   0  0  0  0  0  0  0  0  0  0  0  0
    9.5771   -5.1048   25.4004 H   0  0  0  0  0  0  0  0  0  0  0  0
    8.5486   -6.4059   26.0398 H   0  0  0  0  0  0  0  0  0  0  0  0
    9.1864   -6.5118   24.3928 H   0  0  0  0  0  0  0  0  0  0  0  0
  1  2  1  0
  2  3  1  0
  3  4  2  0
  4  5  1  0
  5  6  1  0
  6  7  2  0
  6  8  1  0
  8  9  1  0
  9 10  1  0
 10 11  1  0
 11 12  1  0
 12 13  1  0
 13 14  1  0
 12 15  1  0
 12 16  1  0
 11 17  1  0
 11 18  1  0
 10 19  1  0
 10 20  1  0
  9 21  1  0
 21 22  2  0
 22 23  1  0
 23 24  2  0
 24 25  1  0
 25 26  2  0
 26 27  1  0
 24 28  1  0
 23 29  1  0
 22 30  1  0
  9 31  1  0
  8 32  1  0
  5 33  1  0
  5 34  1  0
  4 35  1  0
 35 36  2  0
 36 37  1  0
 37 38  2  0
 38 39  1  0
 39 40  2  0
 39 41  1  0
 38 42  1  0
 37 43  1  0
 36 44  1  0
  3 45  1  0
  1 46  1  0
  1 47  1  0
  1 48  1  0
 40  2  1  0
 26 21  1  0
 40 35  1  0
M  END
>  <plip>  (1) 
-0.1724137931034483

>  <filename>  (1) 
[H][O][C]([H])([H])[C]([H])([H])[C]([H])([H])[C]([H])([c]1[c]([H])[n][c]([H])[c]([H])[c]1[H])[N]([H])[C](=[O])[C]([H])([H])[c]1[c]([H])[n]([C]([H])([H])[H])[c]2[c]([H])[c]([H])[c]([H])[c]([H])[c]12

$$$$
