
     RDKit          3D

 44 47  0  0  0  0  0  0  0  0999 V2000
    6.8965   -2.8272   24.0752 C   0  0  0  0  0  0  0  0  0  0  0  0
    6.8136   -1.5430   23.2383 C   0  0  0  0  0  0  0  0  0  0  0  0
    6.5916   -1.8172   21.7327 C   0  0  0  0  0  0  0  0  0  0  0  0
    7.4077   -0.7987   20.9214 C   0  0  0  0  0  0  0  0  0  0  0  0
    6.6589    0.0100   19.8815 C   0  0  0  0  0  0  0  0  0  0  0  0
    5.4529    0.6858   20.1341 C   0  0  0  0  0  0  0  0  0  0  0  0
    4.8147    1.3438   19.0794 C   0  0  0  0  0  0  0  0  0  0  0  0
    5.4131    1.3294   17.8153 C   0  0  0  0  0  0  0  0  0  0  0  0
    6.5780    0.7196   17.5568 N   0  0  0  0  0  0  0  0  0  0  0  0
    7.1754    0.0910   18.5784 C   0  0  0  0  0  0  0  0  0  0  0  0
    8.1245   -0.3902   18.3381 H   0  0  0  0  0  0  0  0  0  0  0  0
    4.9352    1.8297   16.9739 H   0  0  0  0  0  0  0  0  0  0  0  0
    3.8760    1.8681   19.2184 H   0  0  0  0  0  0  0  0  0  0  0  0
    5.0072    0.6930   21.1322 H   0  0  0  0  0  0  0  0  0  0  0  0
    7.9788    0.1209   21.9829 N   0  0  0  0  0  4  0  0  0  0  0  0
    9.2355    0.8356   21.6226 C   0  0  0  0  0  0  0  0  0  0  0  0
    9.5181    1.9175   22.6302 C   0  0  0  0  0  0  0  0  0  0  0  0
    8.9256    3.2057   22.5308 C   0  0  0  0  0  0  0  0  0  0  0  0
    9.2577    4.1576   23.4699 C   0  0  0  0  0  0  0  0  0  0  0  0
   10.1614    3.8697   24.4919 C   0  0  0  0  0  0  0  0  0  0  0  0
   10.7518    2.6306   24.6218 C   0  0  0  0  0  0  0  0  0  0  0  0
   10.3906    1.6469   23.6985 C   0  0  0  0  0  0  0  0  0  0  0  0
   10.9358    0.4041   23.8519 O   0  0  0  0  0  0  0  0  0  0  0  0
   11.4861    0.4501   24.6419 H   0  0  0  0  0  0  0  0  0  0  0  0
   11.4980    2.3823   25.3666 H   0  0  0  0  0  0  0  0  0  0  0  0
   10.3291    4.9729   25.2726 O   0  0  0  0  0  0  0  0  0  0  0  0
    9.4949    5.9859   24.7138 C   0  0  0  0  0  0  0  0  0  0  0  0
    8.8279    5.4550   23.5726 O   0  0  0  0  0  0  0  0  0  0  0  0
   10.1241    6.8299   24.4123 H   0  0  0  0  0  0  0  0  0  0  0  0
    8.7511    6.2896   25.4588 H   0  0  0  0  0  0  0  0  0  0  0  0
    8.2342    3.4801   21.7390 H   0  0  0  0  0  0  0  0  0  0  0  0
    9.1331    1.2467   20.6140 H   0  0  0  0  0  0  0  0  0  0  0  0
   10.0706    0.1248   21.6018 H   0  0  0  0  0  0  0  0  0  0  0  0
    8.0320   -0.6287   23.3063 C   0  0  0  0  0  0  0  0  0  0  0  0
    8.9662   -1.1887   23.3913 H   0  0  0  0  0  0  0  0  0  0  0  0
    7.9816    0.0782   24.1414 H   0  0  0  0  0  0  0  0  0  0  0  0
    7.2383    0.8661   22.0636 H   0  0  0  0  0  0  0  0  0  0  0  0
    8.2485   -1.3041   20.4358 H   0  0  0  0  0  0  0  0  0  0  0  0
    6.9437   -2.8233   21.4853 H   0  0  0  0  0  0  0  0  0  0  0  0
    5.5312   -1.7697   21.4730 H   0  0  0  0  0  0  0  0  0  0  0  0
    5.9934   -0.9367   23.6258 H   0  0  0  0  0  0  0  0  0  0  0  0
    6.9854   -2.6362   25.1518 H   0  0  0  0  0  0  0  0  0  0  0  0
    6.0003   -3.4446   23.9265 H   0  0  0  0  0  0  0  0  0  0  0  0
    7.7634   -3.4291   23.7710 H   0  0  0  0  0  0  0  0  0  0  0  0
  1  2  1  0
  2  3  1  0
  3  4  1  0
  4  5  1  0
  5  6  2  0
  6  7  1  0
  7  8  2  0
  8  9  1  0
  9 10  2  0
 10 11  1  0
  8 12  1  0
  7 13  1  0
  6 14  1  0
  4 15  1  0
 15 16  1  0
 16 17  1  0
 17 18  2  0
 18 19  1  0
 19 20  2  0
 20 21  1  0
 21 22  2  0
 22 23  1  0
 23 24  1  0
 21 25  1  0
 20 26  1  0
 26 27  1  0
 27 28  1  0
 27 29  1  0
 27 30  1  0
 18 31  1  0
 16 32  1  0
 16 33  1  0
 15 34  1  0
 34 35  1  0
 34 36  1  0
 15 37  1  0
  4 38  1  0
  3 39  1  0
  3 40  1  0
  2 41  1  0
  1 42  1  0
  1 43  1  0
  1 44  1  0
 34  2  1  0
 10  5  1  0
 22 17  1  0
 28 19  1  0
M  CHG  1  15   1
M  END
>  <plip>  (1) 
-0.07142857142857142

>  <filename>  (1) 
[H][O][c]1[c]([H])[c]2[c]([c]([H])[c]1[C]([H])([H])[N+]1([H])[C]([H])([H])[C]([H])([C]([H])([H])[H])[C]([H])([H])[C]1([H])[c]1[c]([H])[n][c]([H])[c]([H])[c]1[H])[O][C]([H])([H])[O]2

$$$$
