
     RDKit          3D

 23 24  0  0  0  0  0  0  0  0999 V2000
    7.0396    2.1658   25.9042 H   0  0  0  0  0  0  0  0  0  0  0  0
    7.6143    1.4129   26.3058 N   0  0  0  0  0  0  0  0  0  0  0  0
    7.9727    0.5928   25.4951 N   0  0  0  0  0  4  0  0  0  0  0  0
    8.4693   -0.3642   24.9574 N   0  0  0  0  0  0  0  0  0  0  0  0
    8.2429   -0.7469   23.6047 C   0  0  0  0  0  0  0  0  0  0  0  0
    7.5094    0.4941   22.6024 S   0  0  0  0  0  0  0  0  0  0  0  0
    7.2537   -0.4169   21.1286 C   0  0  0  0  0  0  0  0  0  0  0  0
    6.5653    0.2981   20.0223 C   0  0  0  0  0  0  0  0  0  0  0  0
    7.1543    0.2983   18.7443 C   0  0  0  0  0  0  0  0  0  0  0  0
    8.1392   -0.1427   18.5875 H   0  0  0  0  0  0  0  0  0  0  0  0
    6.5868    0.8255   17.6567 N   0  0  0  0  0  0  0  0  0  0  0  0
    5.3698    1.3685   17.7927 C   0  0  0  0  0  0  0  0  0  0  0  0
    4.9348    1.7692   16.8783 H   0  0  0  0  0  0  0  0  0  0  0  0
    4.6978    1.4418   19.0167 C   0  0  0  0  0  0  0  0  0  0  0  0
    3.7237    1.9163   19.0489 H   0  0  0  0  0  0  0  0  0  0  0  0
    5.3143    0.9206   20.1576 C   0  0  0  0  0  0  0  0  0  0  0  0
    4.8354    1.0014   21.1325 H   0  0  0  0  0  0  0  0  0  0  0  0
    7.6464   -1.6884   20.9415 C   0  0  0  0  0  0  0  0  0  0  0  0
    7.5157   -2.1484   19.9743 H   0  0  0  0  0  0  0  0  0  0  0  0
    8.2531   -2.5865   21.9386 C   0  0  0  0  0  0  0  0  0  0  0  0
    8.4810   -3.7589   21.6702 O   0  0  0  0  0  0  0  0  0  0  0  0
    8.5757   -1.9977   23.2370 C   0  0  0  0  0  0  0  0  0  0  0  0
    9.0845   -2.6569   23.9371 H   0  0  0  0  0  0  0  0  0  0  0  0
  1  2  1  0
  2  3  2  0
  3  4  2  0
  4  5  1  0
  5  6  1  0
  6  7  1  0
  7  8  1  0
  8  9  2  0
  9 10  1  0
  9 11  1  0
 11 12  2  0
 12 13  1  0
 12 14  1  0
 14 15  1  0
 14 16  2  0
 16 17  1  0
  7 18  2  0
 18 19  1  0
 18 20  1  0
 20 21  2  0
 20 22  1  0
 22 23  1  0
 22  5  2  0
 16  8  1  0
M  CHG  1   3   1
M  END
>  <plip>  (1) 
-0.06896551724137931

>  <filename>  (1) 
[H][N]=[N+]=[N][c]1[s][c](-[c]2[c]([H])[n][c]([H])[c]([H])[c]2[H])[c]([H])[c](=[O])[c]1[H]

$$$$
