
     RDKit          3D

 33 35  0  0  0  0  0  0  0  0999 V2000
    9.9202   -2.5398   22.7178 C   0  0  0  0  0  0  0  0  0  0  0  0
   10.1414   -1.7933   21.4014 C   0  0  2  0  0  0  0  0  0  0  0  0
   11.4537   -0.9602   21.3633 C   0  0  0  0  0  0  0  0  0  0  0  0
   10.9869    0.4552   21.5895 C   0  0  0  0  0  0  0  0  0  0  0  0
   11.7079    1.6081   21.8851 C   0  0  0  0  0  0  0  0  0  0  0  0
   11.0109    2.7834   22.1765 C   0  0  0  0  0  0  0  0  0  0  0  0
    9.6046    2.8029   22.1947 C   0  0  0  0  0  0  0  0  0  0  0  0
    8.8778    1.6419   21.8963 C   0  0  0  0  0  0  0  0  0  0  0  0
    9.5902    0.4953   21.5522 C   0  0  0  0  0  0  0  0  0  0  0  0
    9.1089   -0.7553   21.1496 N   0  0  0  0  0  0  0  0  0  0  0  0
    7.5031   -1.1348   21.2614 S   0  0  0  0  0  0  0  0  0  0  0  0
    6.9764   -0.7365   22.5516 O   0  0  0  0  0  0  0  0  0  0  0  0
    7.4062   -2.5054   20.7933 O   0  0  0  0  0  0  0  0  0  0  0  0
    6.7706   -0.1170   20.0619 C   0  0  0  0  0  0  0  0  0  0  0  0
    5.5749    0.5713   20.2880 C   0  0  0  0  0  0  0  0  0  0  0  0
    5.0163    1.2149   19.1900 C   0  0  0  0  0  0  0  0  0  0  0  0
    5.6686    1.1395   17.9555 C   0  0  0  0  0  0  0  0  0  0  0  0
    6.8194    0.4763   17.7704 N   0  0  0  0  0  0  0  0  0  0  0  0
    7.3660   -0.1460   18.8128 C   0  0  0  0  0  0  0  0  0  0  0  0
    8.3036   -0.6675   18.6212 H   0  0  0  0  0  0  0  0  0  0  0  0
    5.2499    1.6313   17.0785 H   0  0  0  0  0  0  0  0  0  0  0  0
    4.0926    1.7729   19.2758 H   0  0  0  0  0  0  0  0  0  0  0  0
    5.0984    0.6008   21.2712 H   0  0  0  0  0  0  0  0  0  0  0  0
    7.7961    1.5970   21.9743 H   0  0  0  0  0  0  0  0  0  0  0  0
    9.0751    3.7250   22.4296 H   0  0  0  0  0  0  0  0  0  0  0  0
   11.5712    3.6847   22.4142 H   0  0  0  0  0  0  0  0  0  0  0  0
   12.7971    1.5668   21.9175 H   0  0  0  0  0  0  0  0  0  0  0  0
   11.9807   -1.0713   20.4109 H   0  0  0  0  0  0  0  0  0  0  0  0
   12.1618   -1.2645   22.1410 H   0  0  0  0  0  0  0  0  0  0  0  0
   10.0859   -2.5106   20.5767 H   0  0  0  0  0  0  0  0  0  0  0  0
    9.8099   -1.8515   23.5652 H   0  0  0  0  0  0  0  0  0  0  0  0
    9.0222   -3.1582   22.6355 H   0  0  0  0  0  0  0  0  0  0  0  0
   10.7811   -3.1900   22.9095 H   0  0  0  0  0  0  0  0  0  0  0  0
  1  2  1  0
  2  3  1  0
  3  4  1  0
  4  5  2  0
  5  6  1  0
  6  7  2  0
  7  8  1  0
  8  9  2  0
  9 10  1  0
 10 11  1  0
 11 12  2  0
 11 13  2  0
 11 14  1  0
 14 15  2  0
 15 16  1  0
 16 17  2  0
 17 18  1  0
 18 19  2  0
 19 20  1  0
 17 21  1  0
 16 22  1  0
 15 23  1  0
  8 24  1  0
  7 25  1  0
  6 26  1  0
  5 27  1  0
  3 28  1  0
  3 29  1  0
  2 30  1  6
  1 31  1  0
  1 32  1  0
  1 33  1  0
 10  2  1  0
 19 14  1  0
  9  4  1  0
M  END
>  <plip>  (1) 
-0.06896551724137931

>  <filename>  (1) 
[H][c]1[n][c]([H])[c]([S](=[O])(=[O])[N]2[c]3[c]([H])[c]([H])[c]([H])[c]([H])[c]3[C]([H])([H])[C@@]2([H])[C]([H])([H])[H])[c]([H])[c]1[H]

$$$$
