
     RDKit          3D

 33 34  0  0  0  0  0  0  0  0999 V2000
   10.4528    1.6229   20.3520 H   0  0  0  0  0  0  0  0  0  0  0  0
   10.6402    2.1465   21.2736 C   0  0  0  0  0  0  0  0  0  0  0  0
    9.9216    1.9039   22.3655 C   0  0  0  0  0  0  0  0  0  0  0  0
    8.7650    1.1229   22.3510 O   0  0  0  0  0  0  0  0  0  0  0  0
    8.6868    0.0515   21.5072 C   0  0  0  0  0  0  0  0  0  0  0  0
    9.6445   -0.4407   20.9550 O   0  0  0  0  0  0  0  0  0  0  0  0
    7.2422   -0.4327   21.3205 C   0  0  1  0  0  0  0  0  0  0  0  0
    6.6905   -0.1250   22.2149 H   0  0  0  0  0  0  0  0  0  0  0  0
    6.5916    0.2401   20.1008 C   0  0  0  0  0  0  0  0  0  0  0  0
    7.1621    0.1635   18.8144 C   0  0  0  0  0  0  0  0  0  0  0  0
    8.1265   -0.3278   18.6771 H   0  0  0  0  0  0  0  0  0  0  0  0
    6.5987    0.6590   17.7027 N   0  0  0  0  0  0  0  0  0  0  0  0
    5.4143    1.2742   17.8310 C   0  0  0  0  0  0  0  0  0  0  0  0
    4.9714    1.6568   16.9105 H   0  0  0  0  0  0  0  0  0  0  0  0
    4.7571    1.4227   19.0570 C   0  0  0  0  0  0  0  0  0  0  0  0
    3.7938    1.9236   19.0895 H   0  0  0  0  0  0  0  0  0  0  0  0
    5.3647    0.9131   20.2111 C   0  0  0  0  0  0  0  0  0  0  0  0
    4.8955    1.0320   21.1910 H   0  0  0  0  0  0  0  0  0  0  0  0
    7.2304   -1.9824   21.2375 C   0  0  0  0  0  0  0  0  0  0  0  0
    8.0230   -2.3390   20.5728 H   0  0  0  0  0  0  0  0  0  0  0  0
    7.4368   -2.4041   22.2272 H   0  0  0  0  0  0  0  0  0  0  0  0
    6.2682   -2.3724   20.8851 H   0  0  0  0  0  0  0  0  0  0  0  0
   10.2277    2.5113   23.7156 C   0  0  0  0  0  0  0  0  0  0  0  0
    9.4571    3.2547   23.9671 H   0  0  0  0  0  0  0  0  0  0  0  0
   10.1685    1.7327   24.4828 H   0  0  0  0  0  0  0  0  0  0  0  0
   11.6294    3.1707   23.7094 C   0  0  0  0  0  0  0  0  0  0  0  0
   11.7543    3.8495   24.5609 H   0  0  0  0  0  0  0  0  0  0  0  0
   12.3997    2.3892   23.8024 H   0  0  0  0  0  0  0  0  0  0  0  0
   11.9043    3.9100   22.4725 N   0  0  0  0  0  0  0  0  0  0  0  0
   11.1282    4.5587   22.3302 H   0  0  0  0  0  0  0  0  0  0  0  0
   11.8783    3.0012   21.3276 C   0  0  0  0  0  0  0  0  0  0  0  0
   12.0081    3.5783   20.4033 H   0  0  0  0  0  0  0  0  0  0  0  0
   12.7427    2.3250   21.3832 H   0  0  0  0  0  0  0  0  0  0  0  0
  1  2  1  0
  2  3  2  0
  3  4  1  0
  4  5  1  0
  5  6  2  0
  5  7  1  0
  7  8  1  1
  7  9  1  0
  9 10  2  0
 10 11  1  0
 10 12  1  0
 12 13  2  0
 13 14  1  0
 13 15  1  0
 15 16  1  0
 15 17  2  0
 17 18  1  0
  7 19  1  0
 19 20  1  0
 19 21  1  0
 19 22  1  0
  3 23  1  0
 23 24  1  0
 23 25  1  0
 23 26  1  0
 26 27  1  0
 26 28  1  0
 26 29  1  0
 29 30  1  0
 29 31  1  0
 31 32  1  0
 31 33  1  0
 31  2  1  0
 17  9  1  0
M  END
>  <plip>  (1) 
-0.14285714285714285

>  <filename>  (1) 
[H][C]1=[C]([O][C](=[O])[C@@]([H])([c]2[c]([H])[n][c]([H])[c]([H])[c]2[H])[C]([H])([H])[H])[C]([H])([H])[C]([H])([H])[N]([H])[C]1([H])[H]

$$$$
