
     RDKit          3D

 29 29  0  0  0  0  0  0  0  0999 V2000
    4.9191    1.7766   17.0391 H   0  0  0  0  0  0  0  0  0  0  0  0
    5.4094    1.2684   17.8645 C   0  0  0  0  0  0  0  0  0  0  0  0
    6.5700    0.6512   17.5760 N   0  0  0  0  0  0  0  0  0  0  0  0
    7.2220    0.0688   18.5897 C   0  0  0  0  0  0  0  0  0  0  0  0
    8.1664   -0.4255   18.3495 H   0  0  0  0  0  0  0  0  0  0  0  0
    6.7680    0.0672   19.9413 C   0  0  0  0  0  0  0  0  0  0  0  0
    7.5923   -0.4698   20.9693 N   0  0  0  0  0  0  0  0  0  0  0  0
    8.1799   -1.2744   20.8373 H   0  0  0  0  0  0  0  0  0  0  0  0
    7.5854   -0.4864   22.6225 S   0  0  0  0  0  0  0  0  0  0  0  0
    6.4044   -1.1267   23.1426 O   0  0  0  0  0  0  0  0  0  0  0  0
    8.8952   -1.0834   22.8411 O   0  0  0  0  0  0  0  0  0  0  0  0
    7.5221    1.2273   22.9901 C   0  0  0  0  0  0  0  0  0  0  0  0
    6.5482    1.5534   22.6223 H   0  0  0  0  0  0  0  0  0  0  0  0
    7.5297    1.2820   24.0799 H   0  0  0  0  0  0  0  0  0  0  0  0
    8.6841    2.0009   22.3791 C   0  0  0  0  0  0  0  0  0  0  0  0
    8.6378    3.0490   22.7000 H   0  0  0  0  0  0  0  0  0  0  0  0
    8.6442    2.0071   21.2809 H   0  0  0  0  0  0  0  0  0  0  0  0
    9.9443    1.4397   22.8074 N   0  0  0  0  0  0  0  0  0  0  0  0
   10.2260    0.5862   22.3549 H   0  0  0  0  0  0  0  0  0  0  0  0
   10.2976    1.4803   24.1313 C   0  0  0  0  0  0  0  0  0  0  0  0
    9.7210    2.1681   24.9550 O   0  0  0  0  0  0  0  0  0  0  0  0
   11.5007    0.6352   24.4653 C   0  0  0  0  0  0  0  0  0  0  0  0
   11.6423    0.6507   25.5470 H   0  0  0  0  0  0  0  0  0  0  0  0
   12.3810    1.0553   23.9689 H   0  0  0  0  0  0  0  0  0  0  0  0
   11.3569   -0.3936   24.1215 H   0  0  0  0  0  0  0  0  0  0  0  0
    5.5207    0.6417   20.2007 C   0  0  0  0  0  0  0  0  0  0  0  0
    5.0834    0.5673   21.1954 H   0  0  0  0  0  0  0  0  0  0  0  0
    4.8457    1.2725   19.1432 C   0  0  0  0  0  0  0  0  0  0  0  0
    3.9018    1.7795   19.3100 H   0  0  0  0  0  0  0  0  0  0  0  0
  1  2  1  0
  2  3  2  0
  3  4  1  0
  4  5  1  0
  4  6  2  0
  6  7  1  0
  7  8  1  0
  7  9  1  0
  9 10  2  0
  9 11  2  0
  9 12  1  0
 12 13  1  0
 12 14  1  0
 12 15  1  0
 15 16  1  0
 15 17  1  0
 15 18  1  0
 18 19  1  0
 18 20  1  0
 20 21  2  0
 20 22  1  0
 22 23  1  0
 22 24  1  0
 22 25  1  0
  6 26  1  0
 26 27  1  0
 26 28  2  0
 28 29  1  0
 28  2  1  0
M  END
>  <plip>  (1) 
-0.07142857142857142

>  <filename>  (1) 
[H][c]1[n][c]([H])[c]([N]([H])[S](=[O])(=[O])[C]([H])([H])[C]([H])([H])[N]([H])[C](=[O])[C]([H])([H])[H])[c]([H])[c]1[H]

$$$$
