
     RDKit          3D

 36 38  0  0  0  0  0  0  0  0999 V2000
   13.5362    0.3952   22.8727 Br  0  0  0  0  0  0  0  0  0  0  0  0
   11.9249   -0.5825   22.5672 C   0  0  0  0  0  0  0  0  0  0  0  0
   10.8701   -0.4199   23.4555 C   0  0  0  0  0  0  0  0  0  0  0  0
    9.6862   -1.1246   23.2288 C   0  0  0  0  0  0  0  0  0  0  0  0
    9.5799   -1.9630   22.1031 C   0  0  0  0  0  0  0  0  0  0  0  0
    8.2943   -2.7330   21.7558 C   0  0  0  0  0  0  0  0  0  0  0  0
    7.4195   -3.1016   22.9549 C   0  0  0  0  0  0  0  0  0  0  0  0
    6.0395   -3.3679   22.3616 C   0  0  0  0  0  0  0  0  0  0  0  0
    6.0375   -2.7319   20.9787 C   0  0  0  0  0  0  0  0  0  0  0  0
    7.3424   -2.0624   20.8261 N   0  0  0  0  0  4  0  0  0  0  0  0
    7.2432   -0.6235   21.0975 C   0  0  0  0  0  0  0  0  0  0  0  0
    6.5727   -0.0028   19.9312 C   0  0  0  0  0  0  0  0  0  0  0  0
    5.3817    0.6777   20.1310 C   0  0  0  0  0  0  0  0  0  0  0  0
    4.8262    1.3173   19.0336 C   0  0  0  0  0  0  0  0  0  0  0  0
    5.4616    1.2490   17.7890 C   0  0  0  0  0  0  0  0  0  0  0  0
    6.5994    0.5572   17.5964 N   0  0  0  0  0  0  0  0  0  0  0  0
    7.1444   -0.0652   18.6548 C   0  0  0  0  0  0  0  0  0  0  0  0
    8.0603   -0.6306   18.5085 H   0  0  0  0  0  0  0  0  0  0  0  0
    5.0147    1.7693   16.9475 H   0  0  0  0  0  0  0  0  0  0  0  0
    3.9094    1.8769   19.1468 H   0  0  0  0  0  0  0  0  0  0  0  0
    4.9211    0.7102   21.1184 H   0  0  0  0  0  0  0  0  0  0  0  0
    6.6747   -0.4307   22.0158 H   0  0  0  0  0  0  0  0  0  0  0  0
    8.2374   -0.1792   21.2234 H   0  0  0  0  0  0  0  0  0  0  0  0
    7.6589   -2.1769   19.8568 H   0  0  0  0  0  0  0  0  0  0  0  0
    5.8914   -3.5074   20.2160 H   0  0  0  0  0  0  0  0  0  0  0  0
    5.2251   -2.0016   20.8927 H   0  0  0  0  0  0  0  0  0  0  0  0
    5.2457   -2.9443   22.9840 H   0  0  0  0  0  0  0  0  0  0  0  0
    5.8655   -4.4437   22.2780 H   0  0  0  0  0  0  0  0  0  0  0  0
    7.8082   -3.9868   23.4668 H   0  0  0  0  0  0  0  0  0  0  0  0
    7.3557   -2.2850   23.6808 H   0  0  0  0  0  0  0  0  0  0  0  0
    8.6177   -3.6717   21.2966 H   0  0  0  0  0  0  0  0  0  0  0  0
   10.6142   -2.0989   21.2548 N   0  0  0  0  0  0  0  0  0  0  0  0
   11.7644   -1.4368   21.4699 C   0  0  0  0  0  0  0  0  0  0  0  0
   12.5800   -1.5567   20.7612 H   0  0  0  0  0  0  0  0  0  0  0  0
    8.8519   -1.0158   23.9129 H   0  0  0  0  0  0  0  0  0  0  0  0
   10.9796    0.2671   24.2919 H   0  0  0  0  0  0  0  0  0  0  0  0
  1  2  1  0
  2  3  2  0
  3  4  1  0
  4  5  2  0
  5  6  1  0
  6  7  1  0
  7  8  1  0
  8  9  1  0
  9 10  1  0
 10 11  1  0
 11 12  1  0
 12 13  2  0
 13 14  1  0
 14 15  2  0
 15 16  1  0
 16 17  2  0
 17 18  1  0
 15 19  1  0
 14 20  1  0
 13 21  1  0
 11 22  1  0
 11 23  1  0
 10 24  1  0
  9 25  1  0
  9 26  1  0
  8 27  1  0
  8 28  1  0
  7 29  1  0
  7 30  1  0
  6 31  1  0
  5 32  1  0
 32 33  2  0
 33 34  1  0
  4 35  1  0
  3 36  1  0
 33  2  1  0
 10  6  1  0
 17 12  1  0
M  CHG  1  10   1
M  END
>  <plip>  (1) 
-0.10714285714285714

>  <filename>  (1) 
[H][c]1[n][c]([H])[c]([C]([H])([H])[N+]2([H])[C]([H])([H])[C]([H])([H])[C]([H])([H])[C]2([H])[c]2[n][c]([H])[c]([Br])[c]([H])[c]2[H])[c]([H])[c]1[H]

$$$$
