
     RDKit          3D

 19 20  0  0  0  0  0  0  0  0999 V2000
    5.8529   -4.5247   22.4154 H   0  0  0  0  0  0  0  0  0  0  0  0
    6.3368   -3.5570   22.3325 C   0  0  0  0  0  0  0  0  0  0  0  0
    6.5633   -2.7548   23.4133 N   0  0  0  0  0  0  0  0  0  0  0  0
    7.1301   -1.7002   22.8630 C   0  0  0  0  0  0  0  0  0  0  0  0
    7.5322   -0.8183   23.3428 H   0  0  0  0  0  0  0  0  0  0  0  0
    7.1948   -1.8624   21.5240 N   0  0  0  0  0  0  0  0  0  0  0  0
    7.8015   -1.0383   20.5837 N   0  0  0  0  0  0  0  0  0  0  0  0
    8.3607   -1.6829   20.0303 H   0  0  0  0  0  0  0  0  0  0  0  0
    6.9442   -0.2467   19.7402 C   0  0  0  0  0  0  0  0  0  0  0  0
    7.3478    0.0229   18.4137 C   0  0  0  0  0  0  0  0  0  0  0  0
    8.2998   -0.3634   18.0512 H   0  0  0  0  0  0  0  0  0  0  0  0
    6.6368    0.7296   17.5314 N   0  0  0  0  0  0  0  0  0  0  0  0
    5.4718    1.2468   17.9527 C   0  0  0  0  0  0  0  0  0  0  0  0
    4.9122    1.8228   17.2179 H   0  0  0  0  0  0  0  0  0  0  0  0
    4.9949    1.0774   19.2574 C   0  0  0  0  0  0  0  0  0  0  0  0
    4.0675    1.5496   19.5515 H   0  0  0  0  0  0  0  0  0  0  0  0
    5.7452    0.3262   20.1770 C   0  0  0  0  0  0  0  0  0  0  0  0
    5.4254    0.1970   21.2100 H   0  0  0  0  0  0  0  0  0  0  0  0
    6.7320   -3.0712   21.1707 N   0  0  0  0  0  0  0  0  0  0  0  0
  1  2  1  0
  2  3  1  0
  3  4  2  0
  4  5  1  0
  4  6  1  0
  6  7  1  0
  7  8  1  0
  7  9  1  0
  9 10  2  0
 10 11  1  0
 10 12  1  0
 12 13  2  0
 13 14  1  0
 13 15  1  0
 15 16  1  0
 15 17  2  0
 17 18  1  0
  6 19  1  0
 19  2  2  0
 17  9  1  0
M  END
>  <plip>  (1) 
-0.034482758620689655

>  <filename>  (1) 
[H][c]1[n][c]([H])[n]([N]([H])[c]2[c]([H])[n][c]([H])[c]([H])[c]2[H])[n]1

$$$$
