
     RDKit          3D

 39 40  0  0  0  0  0  0  0  0999 V2000
   13.4406    4.5694   20.9028 C   0  0  0  0  0  0  0  0  0  0  0  0
   12.2883    4.0967   21.5722 O   0  0  0  0  0  0  0  0  0  0  0  0
   11.8358    4.8199   22.6432 C   0  0  0  0  0  0  0  0  0  0  0  0
   12.5893    5.8245   23.2678 C   0  0  0  0  0  0  0  0  0  0  0  0
   11.9906    6.6870   24.1886 C   0  0  0  0  0  0  0  0  0  0  0  0
   10.6527    6.5119   24.5354 C   0  0  0  0  0  0  0  0  0  0  0  0
    9.9432    5.4061   24.0406 C   0  0  0  0  0  0  0  0  0  0  0  0
   10.5217    4.5345   23.1168 C   0  0  0  0  0  0  0  0  0  0  0  0
    9.8219    3.4152   22.5925 N   0  0  0  0  0  0  0  0  0  0  0  0
    8.7411    2.7526   23.1066 C   0  0  0  0  0  0  0  0  0  0  0  0
    8.3187    2.9151   24.2353 O   0  0  0  0  0  0  0  0  0  0  0  0
    8.0299    1.8486   22.0937 C   0  0  0  0  0  0  0  0  0  0  0  0
    8.9127    0.3626   21.4710 S   0  0  0  0  0  0  0  0  0  0  0  0
    7.4779   -0.6807   20.9295 C   0  0  0  0  0  0  0  0  0  0  0  0
    6.7078   -1.2504   22.1211 C   0  0  0  0  0  0  0  0  0  0  0  0
    6.2973   -0.4695   22.7702 H   0  0  0  0  0  0  0  0  0  0  0  0
    7.3762   -1.8659   22.7296 H   0  0  0  0  0  0  0  0  0  0  0  0
    5.8789   -1.8752   21.7708 H   0  0  0  0  0  0  0  0  0  0  0  0
    6.6458    0.0026   19.8588 C   0  0  0  0  0  0  0  0  0  0  0  0
    5.4020    0.6144   20.0674 C   0  0  0  0  0  0  0  0  0  0  0  0
    4.7987    1.2967   19.0039 C   0  0  0  0  0  0  0  0  0  0  0  0
    5.4452    1.3264   17.7666 C   0  0  0  0  0  0  0  0  0  0  0  0
    6.6163    0.7119   17.5319 N   0  0  0  0  0  0  0  0  0  0  0  0
    7.1838    0.0746   18.5602 C   0  0  0  0  0  0  0  0  0  0  0  0
    8.1326   -0.4214   18.3492 H   0  0  0  0  0  0  0  0  0  0  0  0
    5.0053    1.8548   16.9225 H   0  0  0  0  0  0  0  0  0  0  0  0
    3.8489    1.8061   19.1226 H   0  0  0  0  0  0  0  0  0  0  0  0
    4.8986    0.5510   21.0343 H   0  0  0  0  0  0  0  0  0  0  0  0
    7.9895   -1.5213   20.4432 H   0  0  0  0  0  0  0  0  0  0  0  0
    7.1024    1.5325   22.5728 H   0  0  0  0  0  0  0  0  0  0  0  0
    7.7524    2.4539   21.2247 H   0  0  0  0  0  0  0  0  0  0  0  0
   10.1870    3.0723   21.7209 H   0  0  0  0  0  0  0  0  0  0  0  0
    8.9405    5.1912   24.3874 H   0  0  0  0  0  0  0  0  0  0  0  0
   10.1672    7.2097   25.2105 H   0  0  0  0  0  0  0  0  0  0  0  0
   12.5779    7.4900   24.6255 H   0  0  0  0  0  0  0  0  0  0  0  0
   13.6388    5.9440   23.0237 H   0  0  0  0  0  0  0  0  0  0  0  0
   13.4890    4.0398   19.9545 H   0  0  0  0  0  0  0  0  0  0  0  0
   13.3577    5.6452   20.7179 H   0  0  0  0  0  0  0  0  0  0  0  0
   14.3560    4.3760   21.4738 H   0  0  0  0  0  0  0  0  0  0  0  0
  1  2  1  0
  2  3  1  0
  3  4  2  0
  4  5  1  0
  5  6  2  0
  6  7  1  0
  7  8  2  0
  8  9  1  0
  9 10  1  0
 10 11  2  0
 10 12  1  0
 12 13  1  0
 13 14  1  0
 14 15  1  0
 15 16  1  0
 15 17  1  0
 15 18  1  0
 14 19  1  0
 19 20  2  0
 20 21  1  0
 21 22  2  0
 22 23  1  0
 23 24  2  0
 24 25  1  0
 22 26  1  0
 21 27  1  0
 20 28  1  0
 14 29  1  0
 12 30  1  0
 12 31  1  0
  9 32  1  0
  7 33  1  0
  6 34  1  0
  5 35  1  0
  4 36  1  0
  1 37  1  0
  1 38  1  0
  1 39  1  0
  8  3  1  0
 24 19  1  0
M  END
>  <plip>  (1) 
-0.10714285714285714

>  <filename>  (1) 
[H][c]1[n][c]([H])[c]([C]([H])([S][C]([H])([H])[C](=[O])[N]([H])[c]2[c]([H])[c]([H])[c]([H])[c]([H])[c]2[O][C]([H])([H])[H])[C]([H])([H])[H])[c]([H])[c]1[H]

$$$$
