
     RDKit          3D

 46 48  0  0  0  0  0  0  0  0999 V2000
    9.3679    1.2433   21.0474 O   0  0  0  0  0  0  0  0  0  0  0  0
    8.6766    1.1041   22.0439 C   0  0  0  0  0  0  0  0  0  0  0  0
    8.8494    1.9998   23.2608 C   0  0  0  0  0  0  0  0  0  0  0  0
    8.3627    3.4670   23.0571 C   0  0  0  0  0  0  0  0  0  0  0  0
    6.8168    3.5900   22.9972 C   0  0  0  0  0  0  0  0  0  0  0  0
    6.0463    3.0526   22.2365 O   0  0  0  0  0  0  0  0  0  0  0  0
    6.4293    4.4084   24.0236 N   0  0  0  0  0  0  0  0  0  0  0  0
    7.5080    4.8914   24.7629 C   0  0  0  0  0  0  0  0  0  0  0  0
    7.5127    5.7347   25.8716 C   0  0  0  0  0  0  0  0  0  0  0  0
    8.7471    6.1065   26.4215 C   0  0  0  0  0  0  0  0  0  0  0  0
    9.9313    5.6244   25.8521 C   0  0  0  0  0  0  0  0  0  0  0  0
   11.1038    6.0055   26.3911 F   0  0  0  0  0  0  0  0  0  0  0  0
    9.9338    4.7641   24.7517 C   0  0  0  0  0  0  0  0  0  0  0  0
    8.6989    4.3921   24.2151 C   0  0  0  0  0  0  0  0  0  0  0  0
   10.8809    4.4168   24.3467 H   0  0  0  0  0  0  0  0  0  0  0  0
    8.8193    6.7737   27.2748 H   0  0  0  0  0  0  0  0  0  0  0  0
    6.5784    6.0946   26.2908 H   0  0  0  0  0  0  0  0  0  0  0  0
    5.4473    4.5760   24.1315 H   0  0  0  0  0  0  0  0  0  0  0  0
    8.7732    3.8466   22.1091 H   0  0  0  0  0  0  0  0  0  0  0  0
    8.3751    1.5691   24.1504 H   0  0  0  0  0  0  0  0  0  0  0  0
    9.9283    2.0212   23.4499 H   0  0  0  0  0  0  0  0  0  0  0  0
    7.7340    0.1277   22.1524 N   0  0  0  0  0  0  0  0  0  0  0  0
    7.4186   -0.7139   21.0061 C   0  0  0  0  0  0  0  0  0  0  0  0
    6.6348   -1.9593   21.4251 C   0  0  0  0  0  0  0  0  0  0  0  0
    7.3972   -2.8700   22.3965 C   0  0  0  0  0  0  0  0  0  0  0  0
    6.6114   -4.0888   22.8462 C   0  0  0  0  0  0  0  0  0  0  0  0
    6.3797   -4.9211   21.7216 O   0  0  0  0  0  0  0  0  0  0  0  0
    5.8750   -5.6918   22.0062 H   0  0  0  0  0  0  0  0  0  0  0  0
    7.1851   -4.6202   23.6218 H   0  0  0  0  0  0  0  0  0  0  0  0
    5.6610   -3.7627   23.3046 H   0  0  0  0  0  0  0  0  0  0  0  0
    8.3318   -3.2051   21.9239 H   0  0  0  0  0  0  0  0  0  0  0  0
    7.6787   -2.3058   23.2968 H   0  0  0  0  0  0  0  0  0  0  0  0
    5.6795   -1.6377   21.8630 H   0  0  0  0  0  0  0  0  0  0  0  0
    6.3720   -2.5144   20.5146 H   0  0  0  0  0  0  0  0  0  0  0  0
    6.6756    0.0505   19.9217 C   0  0  0  0  0  0  0  0  0  0  0  0
    5.4470    0.6836   20.1559 C   0  0  0  0  0  0  0  0  0  0  0  0
    4.8016    1.3165   19.0901 C   0  0  0  0  0  0  0  0  0  0  0  0
    5.3984    1.2873   17.8243 C   0  0  0  0  0  0  0  0  0  0  0  0
    6.5605    0.6695   17.5724 N   0  0  0  0  0  0  0  0  0  0  0  0
    7.1725    0.0800   18.6115 C   0  0  0  0  0  0  0  0  0  0  0  0
    8.1190   -0.4099   18.3787 H   0  0  0  0  0  0  0  0  0  0  0  0
    4.9281    1.7878   16.9788 H   0  0  0  0  0  0  0  0  0  0  0  0
    3.8654    1.8473   19.2369 H   0  0  0  0  0  0  0  0  0  0  0  0
    4.9962    0.7006   21.1505 H   0  0  0  0  0  0  0  0  0  0  0  0
    8.3838   -1.0241   20.5848 H   0  0  0  0  0  0  0  0  0  0  0  0
    7.0321    0.2644   22.8618 H   0  0  0  0  0  0  0  0  0  0  0  0
  1  2  2  0
  2  3  1  0
  3  4  1  0
  4  5  1  0
  5  6  2  0
  5  7  1  0
  7  8  1  0
  8  9  2  0
  9 10  1  0
 10 11  2  0
 11 12  1  0
 11 13  1  0
 13 14  2  0
 13 15  1  0
 10 16  1  0
  9 17  1  0
  7 18  1  0
  4 19  1  0
  3 20  1  0
  3 21  1  0
  2 22  1  0
 22 23  1  0
 23 24  1  0
 24 25  1  0
 25 26  1  0
 26 27  1  0
 27 28  1  0
 26 29  1  0
 26 30  1  0
 25 31  1  0
 25 32  1  0
 24 33  1  0
 24 34  1  0
 23 35  1  0
 35 36  2  0
 36 37  1  0
 37 38  2  0
 38 39  1  0
 39 40  2  0
 40 41  1  0
 38 42  1  0
 37 43  1  0
 36 44  1  0
 23 45  1  0
 22 46  1  0
 14  4  1  0
 40 35  1  0
 14  8  1  0
M  END
>  <plip>  (1) 
-0.21428571428571427

>  <filename>  (1) 
[H][O][C]([H])([H])[C]([H])([H])[C]([H])([H])[C]([H])([c]1[c]([H])[n][c]([H])[c]([H])[c]1[H])[N]([H])[C](=[O])[C]([H])([H])[C]1([H])[C](=[O])[N]([H])[c]2[c]([H])[c]([H])[c]([F])[c]([H])[c]21

$$$$
