
     RDKit          3D

 15 15  0  0  0  0  0  0  0  0999 V2000
    7.0283    2.8711   23.1869 H   0  0  0  0  0  0  0  0  0  0  0  0
    7.5855    2.0027   23.1479 N   0  0  0  0  0  0  0  0  0  0  0  0
    7.2415    1.2673   22.1854 N   0  0  0  0  0  4  0  0  0  0  0  0
    7.5822    0.0787   21.9878 N   0  0  0  0  0  0  0  0  0  0  0  0
    7.0891   -0.6280   20.9333 O   0  0  0  0  0  0  0  0  0  0  0  0
    6.4331   -0.0482   19.8417 C   0  0  0  0  0  0  0  0  0  0  0  0
    7.1247   -0.0070   18.6262 C   0  0  0  0  0  0  0  0  0  0  0  0
    8.0742   -0.5338   18.5274 H   0  0  0  0  0  0  0  0  0  0  0  0
    6.6779    0.6793   17.5737 N   0  0  0  0  0  0  0  0  0  0  0  0
    5.5010    1.3172   17.6876 C   0  0  0  0  0  0  0  0  0  0  0  0
    5.1790    1.9132   16.8342 H   0  0  0  0  0  0  0  0  0  0  0  0
    4.6954    1.2153   18.8224 C   0  0  0  0  0  0  0  0  0  0  0  0
    3.7537    1.7461   18.8595 H   0  0  0  0  0  0  0  0  0  0  0  0
    5.1404    0.4776   19.9224 C   0  0  0  0  0  0  0  0  0  0  0  0
    4.5407    0.3789   20.8303 H   0  0  0  0  0  0  0  0  0  0  0  0
  1  2  1  0
  2  3  2  0
  3  4  2  0
  4  5  1  0
  5  6  1  0
  6  7  2  0
  7  8  1  0
  7  9  1  0
  9 10  2  0
 10 11  1  0
 10 12  1  0
 12 13  1  0
 12 14  2  0
 14 15  1  0
 14  6  1  0
M  CHG  1   3   1
M  END
>  <plip>  (1) 
-0.0

>  <filename>  (1) 
[H][N]=[N+]=[N][O][c]1[c]([H])[n][c]([H])[c]([H])[c]1[H]

$$$$
