
     RDKit          3D

 28 29  0  0  0  0  0  0  0  0999 V2000
    4.1932   -4.0055   25.1268 H   0  0  0  0  0  0  0  0  0  0  0  0
    5.2543   -3.7733   25.1574 C   0  0  0  0  0  0  0  0  0  0  0  0
    5.6970   -2.9828   24.1804 N   0  0  0  0  0  0  0  0  0  0  0  0
    7.0087   -2.7591   24.1220 C   0  0  0  0  0  0  0  0  0  0  0  0
    7.5974   -1.8852   23.0438 C   0  0  0  0  0  0  0  0  0  0  0  0
    8.6888   -1.3545   23.1508 O   0  0  0  0  0  0  0  0  0  0  0  0
    6.7567   -1.6976   21.7425 C   0  0  0  0  0  0  0  0  0  0  0  0
    5.7486   -2.3115   21.4774 O   0  0  0  0  0  0  0  0  0  0  0  0
    7.3391   -0.7674   20.8997 N   0  0  0  0  0  0  0  0  0  0  0  0
    8.2388   -0.4169   21.2053 H   0  0  0  0  0  0  0  0  0  0  0  0
    6.6702   -0.0588   19.8594 C   0  0  0  0  0  0  0  0  0  0  0  0
    7.2230    0.0454   18.5661 C   0  0  0  0  0  0  0  0  0  0  0  0
    8.1810   -0.4310   18.3591 H   0  0  0  0  0  0  0  0  0  0  0  0
    6.6345    0.6981   17.5547 N   0  0  0  0  0  0  0  0  0  0  0  0
    5.4627    1.3077   17.8062 C   0  0  0  0  0  0  0  0  0  0  0  0
    5.0025    1.8248   16.9665 H   0  0  0  0  0  0  0  0  0  0  0  0
    4.8436    1.2888   19.0601 C   0  0  0  0  0  0  0  0  0  0  0  0
    3.9107    1.8219   19.2092 H   0  0  0  0  0  0  0  0  0  0  0  0
    5.4562    0.5891   20.1081 C   0  0  0  0  0  0  0  0  0  0  0  0
    5.0259    0.5466   21.1085 H   0  0  0  0  0  0  0  0  0  0  0  0
    7.9029   -3.2725   24.9797 N   0  0  0  0  0  0  0  0  0  0  0  0
    7.4605   -4.0415   25.9762 C   0  0  0  0  0  0  0  0  0  0  0  0
    8.5204   -4.6947   26.8983 C   0  0  0  0  0  0  0  0  0  0  0  0
    9.0560   -5.7690   26.2939 F   0  0  0  0  0  0  0  0  0  0  0  0
    7.9506   -5.1271   28.0413 F   0  0  0  0  0  0  0  0  0  0  0  0
    9.5250   -3.8817   27.2428 F   0  0  0  0  0  0  0  0  0  0  0  0
    6.0989   -4.3287   26.1161 C   0  0  0  0  0  0  0  0  0  0  0  0
    5.7095   -4.9608   26.9032 H   0  0  0  0  0  0  0  0  0  0  0  0
  1  2  1  0
  2  3  2  0
  3  4  1  0
  4  5  1  0
  5  6  2  0
  5  7  1  0
  7  8  2  0
  7  9  1  0
  9 10  1  0
  9 11  1  0
 11 12  2  0
 12 13  1  0
 12 14  1  0
 14 15  2  0
 15 16  1  0
 15 17  1  0
 17 18  1  0
 17 19  2  0
 19 20  1  0
  4 21  2  0
 21 22  1  0
 22 23  1  0
 23 24  1  0
 23 25  1  0
 23 26  1  0
 22 27  2  0
 27 28  1  0
 27  2  1  0
 19 11  1  0
M  END
>  <plip>  (1) 
-0.07142857142857142

>  <filename>  (1) 
[H][c]1[n][c]([C](=[O])[C](=[O])[N]([H])[c]2[c]([H])[n][c]([H])[c]([H])[c]2[H])[n][c]([C]([F])([F])[F])[c]1[H]

$$$$
