
     RDKit          3D

 38 39  0  0  0  0  0  0  0  0999 V2000
    6.3393    4.4220   26.3822 C   0  0  0  0  0  0  0  0  0  0  0  0
    7.2162    4.7908   25.3450 O   0  0  0  0  0  0  0  0  0  0  0  0
    7.9961    3.7406   24.7925 C   0  0  2  0  0  0  0  0  0  0  0  0
    9.3127    3.6161   25.5549 C   0  0  0  0  0  0  0  0  0  0  0  0
    9.8535    4.5701   25.5122 H   0  0  0  0  0  0  0  0  0  0  0  0
    9.9458    2.8252   25.1376 H   0  0  0  0  0  0  0  0  0  0  0  0
    9.1173    3.3819   26.6069 H   0  0  0  0  0  0  0  0  0  0  0  0
    8.1915    4.1257   23.3206 C   0  0  0  0  0  0  0  0  0  0  0  0
    8.9024    3.1144   22.5683 O   0  0  0  0  0  0  0  0  0  0  0  0
    8.2699    1.9432   22.3330 C   0  0  0  0  0  0  0  0  0  0  0  0
    7.1133    1.7342   22.6474 O   0  0  0  0  0  0  0  0  0  0  0  0
    9.1882    0.9713   21.7118 C   0  0  0  0  0  0  0  0  0  0  0  0
   10.5721    0.9799   21.6466 C   0  0  0  0  0  0  0  0  0  0  0  0
   10.9727   -0.2705   21.1391 C   0  0  0  0  0  0  0  0  0  0  0  0
    9.8277   -0.9865   20.8800 C   0  0  0  0  0  0  0  0  0  0  0  0
    8.7387   -0.2378   21.2113 N   0  0  0  0  0  0  0  0  0  0  0  0
    7.3494   -0.6533   21.0239 C   0  0  0  0  0  0  0  0  0  0  0  0
    6.6214    0.0455   19.8861 C   0  0  0  0  0  0  0  0  0  0  0  0
    5.3986    0.6952   20.1046 C   0  0  0  0  0  0  0  0  0  0  0  0
    4.7712    1.3333   19.0330 C   0  0  0  0  0  0  0  0  0  0  0  0
    5.3870    1.3153   17.7809 C   0  0  0  0  0  0  0  0  0  0  0  0
    6.5451    0.6811   17.5437 N   0  0  0  0  0  0  0  0  0  0  0  0
    7.1369    0.0709   18.5767 C   0  0  0  0  0  0  0  0  0  0  0  0
    8.0753   -0.4326   18.3414 H   0  0  0  0  0  0  0  0  0  0  0  0
    4.9369    1.8281   16.9313 H   0  0  0  0  0  0  0  0  0  0  0  0
    3.8325    1.8575   19.1577 H   0  0  0  0  0  0  0  0  0  0  0  0
    4.9604    0.7239   21.1040 H   0  0  0  0  0  0  0  0  0  0  0  0
    7.3661   -1.7358   20.8607 H   0  0  0  0  0  0  0  0  0  0  0  0
    6.8054   -0.4847   21.9546 H   0  0  0  0  0  0  0  0  0  0  0  0
    9.6876   -1.9736   20.4565 H   0  0  0  0  0  0  0  0  0  0  0  0
   11.9882   -0.6331   21.0278 H   0  0  0  0  0  0  0  0  0  0  0  0
   11.2210    1.8090   21.9313 H   0  0  0  0  0  0  0  0  0  0  0  0
    7.2170    4.3350   22.8643 H   0  0  0  0  0  0  0  0  0  0  0  0
    8.8057    5.0259   23.2494 H   0  0  0  0  0  0  0  0  0  0  0  0
    7.4537    2.7806   24.8070 H   0  0  0  0  0  0  0  0  0  0  0  0
    5.9524    5.3496   26.8060 H   0  0  0  0  0  0  0  0  0  0  0  0
    6.8276    3.8507   27.1854 H   0  0  0  0  0  0  0  0  0  0  0  0
    5.4968    3.8254   26.0063 H   0  0  0  0  0  0  0  0  0  0  0  0
  1  2  1  0
  2  3  1  0
  3  4  1  0
  4  5  1  0
  4  6  1  0
  4  7  1  0
  3  8  1  0
  8  9  1  0
  9 10  1  0
 10 11  2  0
 10 12  1  0
 12 13  2  0
 13 14  1  0
 14 15  2  0
 15 16  1  0
 16 17  1  0
 17 18  1  0
 18 19  2  0
 19 20  1  0
 20 21  2  0
 21 22  1  0
 22 23  2  0
 23 24  1  0
 21 25  1  0
 20 26  1  0
 19 27  1  0
 17 28  1  0
 17 29  1  0
 15 30  1  0
 14 31  1  0
 13 32  1  0
  8 33  1  0
  8 34  1  0
  3 35  1  6
  1 36  1  0
  1 37  1  0
  1 38  1  0
 16 12  1  0
 23 18  1  0
M  END
>  <plip>  (1) 
-0.07142857142857142

>  <filename>  (1) 
[H][c]1[n][c]([H])[c]([C]([H])([H])[n]2[c]([H])[c]([H])[c]([H])[c]2[C](=[O])[O][C]([H])([H])[C@]([H])([O][C]([H])([H])[H])[C]([H])([H])[H])[c]([H])[c]1[H]

$$$$
