
     RDKit          3D

 27 29  0  0  0  0  0  0  0  0999 V2000
    9.4530    0.0804   20.4342 O   0  0  0  0  0  0  0  0  0  0  0  0
    8.7226   -0.6564   21.0863 C   0  0  0  0  0  0  0  0  0  0  0  0
    7.3555   -0.6320   20.9541 N   0  0  0  0  0  0  0  0  0  0  0  0
    6.6629    0.0074   19.8937 C   0  0  0  0  0  0  0  0  0  0  0  0
    5.4421    0.6385   20.1501 C   0  0  0  0  0  0  0  0  0  0  0  0
    4.7971    1.3069   19.1016 C   0  0  0  0  0  0  0  0  0  0  0  0
    5.3834    1.2982   17.8316 C   0  0  0  0  0  0  0  0  0  0  0  0
    6.5437    0.6774   17.5613 N   0  0  0  0  0  0  0  0  0  0  0  0
    7.1681    0.0623   18.5706 C   0  0  0  0  0  0  0  0  0  0  0  0
    8.1198   -0.4107   18.3427 H   0  0  0  0  0  0  0  0  0  0  0  0
    4.9117    1.8084   16.9954 H   0  0  0  0  0  0  0  0  0  0  0  0
    3.8658    1.8423   19.2602 H   0  0  0  0  0  0  0  0  0  0  0  0
    5.0394    0.6191   21.1620 H   0  0  0  0  0  0  0  0  0  0  0  0
    6.8364   -1.1828   21.6285 H   0  0  0  0  0  0  0  0  0  0  0  0
    9.2990   -1.6903   22.0700 C   0  0  0  0  0  0  0  0  0  0  0  0
   10.7195   -1.7450   22.1698 C   0  0  0  0  0  0  0  0  0  0  0  0
   11.3373   -2.7271   22.9109 C   0  0  0  0  0  0  0  0  0  0  0  0
   10.4906   -3.5509   23.6785 C   0  0  0  0  0  0  0  0  0  0  0  0
   10.6998   -4.5344   24.5967 N   0  0  0  0  0  0  0  0  0  0  0  0
    9.5447   -5.1212   24.9866 N   0  0  0  0  0  0  0  0  0  0  0  0
    8.5709   -4.5132   24.3421 C   0  0  0  0  0  0  0  0  0  0  0  0
    9.0801   -3.4601   23.5120 C   0  0  0  0  0  0  0  0  0  0  0  0
    8.4828   -2.5287   22.7217 N   0  0  0  0  0  0  0  0  0  0  0  0
    7.5499   -4.8630   24.4621 H   0  0  0  0  0  0  0  0  0  0  0  0
   11.5681   -4.8213   25.0326 H   0  0  0  0  0  0  0  0  0  0  0  0
   12.4067   -2.8704   22.8349 H   0  0  0  0  0  0  0  0  0  0  0  0
   11.2857   -0.9864   21.6462 H   0  0  0  0  0  0  0  0  0  0  0  0
  1  2  2  0
  2  3  1  0
  3  4  1  0
  4  5  2  0
  5  6  1  0
  6  7  2  0
  7  8  1  0
  8  9  2  0
  9 10  1  0
  7 11  1  0
  6 12  1  0
  5 13  1  0
  3 14  1  0
  2 15  1  0
 15 16  2  0
 16 17  1  0
 17 18  2  0
 18 19  1  0
 19 20  1  0
 20 21  2  0
 21 22  1  0
 22 23  2  0
 21 24  1  0
 19 25  1  0
 17 26  1  0
 16 27  1  0
  9  4  1  0
 23 15  1  0
 22 18  1  0
M  END
>  <plip>  (1) 
-0.13793103448275862

>  <filename>  (1) 
[H][c]1[n][c]([H])[c]([N]([H])[C](=[O])[c]2[n][c]3[c]([H])[n][n]([H])[c]3[c]([H])[c]2[H])[c]([H])[c]1[H]

$$$$
