
     RDKit          3D

 31 32  0  0  0  0  0  0  0  0999 V2000
    8.5041   -0.4624   21.0494 H   0  0  0  0  0  0  0  0  0  0  0  0
    7.4359   -0.6871   20.9659 C   0  0  0  0  0  0  0  0  0  0  0  0
    6.9728   -1.6297   21.7915 C   0  0  0  0  0  0  0  0  0  0  0  0
    5.4894   -2.5049   21.5916 Cl  0  0  0  0  0  0  0  0  0  0  0  0
    7.7106   -2.1472   22.8745 N   0  0  0  0  0  0  0  0  0  0  0  0
    7.7300   -3.1458   22.9915 H   0  0  0  0  0  0  0  0  0  0  0  0
    8.5714   -1.4850   23.6782 C   0  0  0  0  0  0  0  0  0  0  0  0
    8.7268    0.1462   23.8545 S   0  0  0  0  0  0  0  0  0  0  0  0
    9.4122   -2.3080   24.3822 N   0  0  0  0  0  0  0  0  0  0  0  0
   10.1195   -1.7222   24.8026 H   0  0  0  0  0  0  0  0  0  0  0  0
    9.1200   -3.5185   25.0673 C   0  0  0  0  0  0  0  0  0  0  0  0
   10.1837   -4.3747   25.3785 C   0  0  0  0  0  0  0  0  0  0  0  0
   11.1928   -4.0602   25.1322 H   0  0  0  0  0  0  0  0  0  0  0  0
    9.9385   -5.6141   25.9778 C   0  0  0  0  0  0  0  0  0  0  0  0
   10.7623   -6.2988   26.1773 H   0  0  0  0  0  0  0  0  0  0  0  0
    8.6277   -5.9856   26.3064 C   0  0  0  0  0  0  0  0  0  0  0  0
    8.4421   -6.9506   26.7636 H   0  0  0  0  0  0  0  0  0  0  0  0
    7.5698   -5.1047   26.0559 C   0  0  0  0  0  0  0  0  0  0  0  0
    6.5512   -5.3928   26.3159 H   0  0  0  0  0  0  0  0  0  0  0  0
    7.8137   -3.8670   25.4462 C   0  0  0  0  0  0  0  0  0  0  0  0
    7.0103   -3.1529   25.2914 H   0  0  0  0  0  0  0  0  0  0  0  0
    6.6807    0.0289   19.9013 C   0  0  0  0  0  0  0  0  0  0  0  0
    7.1814    0.0819   18.5852 C   0  0  0  0  0  0  0  0  0  0  0  0
    8.1286   -0.4045   18.3545 H   0  0  0  0  0  0  0  0  0  0  0  0
    6.5637    0.6838   17.5636 N   0  0  0  0  0  0  0  0  0  0  0  0
    5.3974    1.2965   17.8286 C   0  0  0  0  0  0  0  0  0  0  0  0
    4.9225    1.7959   16.9861 H   0  0  0  0  0  0  0  0  0  0  0  0
    4.8048    1.3078   19.0948 C   0  0  0  0  0  0  0  0  0  0  0  0
    3.8696    1.8423   19.2376 H   0  0  0  0  0  0  0  0  0  0  0  0
    5.4491    0.6540   20.1482 C   0  0  0  0  0  0  0  0  0  0  0  0
    5.0282    0.6329   21.1549 H   0  0  0  0  0  0  0  0  0  0  0  0
  1  2  1  0
  2  3  2  3
  3  4  1  0
  3  5  1  0
  5  6  1  0
  5  7  1  0
  7  8  2  0
  7  9  1  0
  9 10  1  0
  9 11  1  0
 11 12  2  0
 12 13  1  0
 12 14  1  0
 14 15  1  0
 14 16  2  0
 16 17  1  0
 16 18  1  0
 18 19  1  0
 18 20  2  0
 20 21  1  0
  2 22  1  0
 22 23  2  0
 23 24  1  0
 23 25  1  0
 25 26  2  0
 26 27  1  0
 26 28  1  0
 28 29  1  0
 28 30  2  0
 30 31  1  0
 20 11  1  0
 30 22  1  0
M  END
>  <plip>  (1) 
-0.07142857142857142

>  <filename>  (1) 
[H][C](=[C]([Cl])[N]([H])[C](=[S])[N]([H])[c]1[c]([H])[c]([H])[c]([H])[c]([H])[c]1[H])[c]1[c]([H])[n][c]([H])[c]([H])[c]1[H]

$$$$
