
     RDKit          3D

 35 37  0  0  0  0  0  0  0  0999 V2000
    4.9535    1.7639   17.0191 H   0  0  0  0  0  0  0  0  0  0  0  0
    5.4312    1.2681   17.8597 C   0  0  0  0  0  0  0  0  0  0  0  0
    6.5981    0.6594   17.5927 N   0  0  0  0  0  0  0  0  0  0  0  0
    7.2244    0.0505   18.6043 C   0  0  0  0  0  0  0  0  0  0  0  0
    8.1743   -0.4317   18.3837 H   0  0  0  0  0  0  0  0  0  0  0  0
    6.7170    0.0085   19.9234 C   0  0  0  0  0  0  0  0  0  0  0  0
    7.4600   -0.6097   21.0026 N   0  0  0  0  0  0  0  0  0  0  0  0
    8.8374   -0.4527   21.1956 C   0  0  0  0  0  0  0  0  0  0  0  0
    9.5656    0.1883   20.4823 O   0  0  0  0  0  0  0  0  0  0  0  0
    9.2570   -1.2636   22.4131 C   0  0  0  0  0  0  0  0  0  0  0  0
    9.8046   -0.6330   23.1198 H   0  0  0  0  0  0  0  0  0  0  0  0
    9.9661   -2.0110   22.0359 H   0  0  0  0  0  0  0  0  0  0  0  0
    7.9519   -1.9060   22.9221 C   0  0  1  0  0  0  0  0  0  0  0  0
    8.0303   -2.9940   22.9840 H   0  0  0  0  0  0  0  0  0  0  0  0
    7.2625   -1.5500   24.2446 C   0  0  0  0  0  0  0  0  0  0  0  0
    6.9033   -2.4438   24.9792 O   0  0  0  0  0  0  0  0  0  0  0  0
    7.0539   -0.2187   24.4830 N   0  0  0  0  0  0  0  0  0  0  0  0
    7.2121    0.4135   23.7164 H   0  0  0  0  0  0  0  0  0  0  0  0
    6.5264    0.3521   25.6717 C   0  0  0  0  0  0  0  0  0  0  0  0
    5.6299   -0.3515   26.4913 C   0  0  0  0  0  0  0  0  0  0  0  0
    5.3549   -1.3645   26.2217 H   0  0  0  0  0  0  0  0  0  0  0  0
    5.1283    0.2409   27.6550 C   0  0  0  0  0  0  0  0  0  0  0  0
    4.4392   -0.3061   28.2950 H   0  0  0  0  0  0  0  0  0  0  0  0
    5.5288    1.5339   28.0042 C   0  0  0  0  0  0  0  0  0  0  0  0
    4.9056    2.2549   29.4617 Cl  0  0  0  0  0  0  0  0  0  0  0  0
    6.4316    2.2424   27.2049 C   0  0  0  0  0  0  0  0  0  0  0  0
    6.7432    3.2403   27.5063 H   0  0  0  0  0  0  0  0  0  0  0  0
    6.9172    1.6518   26.0302 C   0  0  0  0  0  0  0  0  0  0  0  0
    7.6282    2.1937   25.4111 H   0  0  0  0  0  0  0  0  0  0  0  0
    6.9249   -1.5634   21.8712 C   0  0  0  0  0  0  0  0  0  0  0  0
    5.8337   -2.0531   21.8013 O   0  0  0  0  0  0  0  0  0  0  0  0
    5.4802    0.6117   20.1778 C   0  0  0  0  0  0  0  0  0  0  0  0
    5.0428    0.5628   21.1740 H   0  0  0  0  0  0  0  0  0  0  0  0
    4.8351    1.2714   19.1242 C   0  0  0  0  0  0  0  0  0  0  0  0
    3.8918    1.7886   19.2704 H   0  0  0  0  0  0  0  0  0  0  0  0
  1  2  1  0
  2  3  2  0
  3  4  1  0
  4  5  1  0
  4  6  2  0
  6  7  1  0
  7  8  1  0
  8  9  2  0
  8 10  1  0
 10 11  1  0
 10 12  1  0
 10 13  1  0
 13 14  1  1
 13 15  1  0
 15 16  2  0
 15 17  1  0
 17 18  1  0
 17 19  1  0
 19 20  2  0
 20 21  1  0
 20 22  1  0
 22 23  1  0
 22 24  2  0
 24 25  1  0
 24 26  1  0
 26 27  1  0
 26 28  2  0
 28 29  1  0
 13 30  1  0
 30 31  2  0
  6 32  1  0
 32 33  1  0
 32 34  2  0
 34 35  1  0
 34  2  1  0
 30  7  1  0
 28 19  1  0
M  END
>  <plip>  (1) 
-0.07142857142857142

>  <filename>  (1) 
[H][c]1[n][c]([H])[c]([N]2[C](=[O])[C]([H])([H])[C@@]([H])([C](=[O])[N]([H])[c]3[c]([H])[c]([H])[c]([Cl])[c]([H])[c]3[H])[C]2=[O])[c]([H])[c]1[H]

$$$$
