
     RDKit          3D

 55 57  0  0  0  0  0  0  0  0999 V2000
    6.5870    7.4642   25.0060 C   0  0  0  0  0  0  0  0  0  0  0  0
    7.6922    6.4898   24.6855 C   0  0  0  0  0  0  0  0  0  0  0  0
    8.1262    5.5616   25.6404 C   0  0  0  0  0  0  0  0  0  0  0  0
    9.1619    4.6706   25.3506 C   0  0  0  0  0  0  0  0  0  0  0  0
    9.7922    4.6828   24.0984 C   0  0  0  0  0  0  0  0  0  0  0  0
   10.9155    3.7096   23.7888 C   0  0  0  0  0  0  0  0  0  0  0  0
   12.2349    4.4499   23.4985 C   0  0  0  0  0  0  0  0  0  0  0  0
   12.4883    5.1390   24.3099 H   0  0  0  0  0  0  0  0  0  0  0  0
   13.0726    3.7543   23.3699 H   0  0  0  0  0  0  0  0  0  0  0  0
   12.1630    5.0551   22.5855 H   0  0  0  0  0  0  0  0  0  0  0  0
   10.5711    2.7766   22.6338 C   0  0  0  0  0  0  0  0  0  0  0  0
    9.3785    1.9530   22.9177 N   0  0  0  0  0  4  0  0  0  0  0  0
    9.0534    1.0118   21.8370 C   0  0  0  0  0  0  0  0  0  0  0  0
    7.8201    0.1887   22.1664 C   0  0  2  0  0  0  0  0  0  0  0  0
    7.9654   -0.7925   23.3459 C   0  0  0  0  0  0  0  0  0  0  0  0
    7.2091   -2.0833   22.9617 C   0  0  0  0  0  0  0  0  0  0  0  0
    6.6551   -1.8343   21.5827 N   0  0  0  0  0  4  0  0  0  0  0  0
    6.6230   -3.0446   20.7270 C   0  0  0  0  0  0  0  0  0  0  0  0
    7.6529   -3.3985   20.5737 H   0  0  0  0  0  0  0  0  0  0  0  0
    6.0754   -3.8758   21.1870 H   0  0  0  0  0  0  0  0  0  0  0  0
    6.2114   -2.8266   19.7358 H   0  0  0  0  0  0  0  0  0  0  0  0
    7.4483   -0.6910   20.9725 C   0  0  1  0  0  0  0  0  0  0  0  0
    6.6616    0.0058   19.9015 C   0  0  0  0  0  0  0  0  0  0  0  0
    5.4345    0.6405   20.1551 C   0  0  0  0  0  0  0  0  0  0  0  0
    4.8039    1.3061   19.1032 C   0  0  0  0  0  0  0  0  0  0  0  0
    5.4011    1.2929   17.8362 C   0  0  0  0  0  0  0  0  0  0  0  0
    6.5593    0.6768   17.5721 N   0  0  0  0  0  0  0  0  0  0  0  0
    7.1638    0.0572   18.5931 C   0  0  0  0  0  0  0  0  0  0  0  0
    8.1138   -0.4241   18.3611 H   0  0  0  0  0  0  0  0  0  0  0  0
    4.9206    1.7893   16.9940 H   0  0  0  0  0  0  0  0  0  0  0  0
    3.8768    1.8431   19.2525 H   0  0  0  0  0  0  0  0  0  0  0  0
    4.9954    0.6338   21.1601 H   0  0  0  0  0  0  0  0  0  0  0  0
    8.3560   -1.1314   20.5402 H   0  0  0  0  0  0  0  0  0  0  0  0
    5.6907   -1.4343   21.6636 H   0  0  0  0  0  0  0  0  0  0  0  0
    7.8928   -2.9367   22.9045 H   0  0  0  0  0  0  0  0  0  0  0  0
    6.4033   -2.3391   23.6574 H   0  0  0  0  0  0  0  0  0  0  0  0
    9.0204   -1.0356   23.5273 H   0  0  0  0  0  0  0  0  0  0  0  0
    7.5712   -0.3602   24.2700 H   0  0  0  0  0  0  0  0  0  0  0  0
    6.9963    0.8858   22.3658 H   0  0  0  0  0  0  0  0  0  0  0  0
    8.9250    1.5471   20.8851 H   0  0  0  0  0  0  0  0  0  0  0  0
    9.8952    0.3217   21.6749 H   0  0  0  0  0  0  0  0  0  0  0  0
    8.5654    2.6085   23.0906 H   0  0  0  0  0  0  0  0  0  0  0  0
    9.5190    1.4319   23.8236 H   0  0  0  0  0  0  0  0  0  0  0  0
   11.4354    2.1375   22.4132 H   0  0  0  0  0  0  0  0  0  0  0  0
   10.4011    3.3712   21.7294 H   0  0  0  0  0  0  0  0  0  0  0  0
   11.0681    3.0657   24.6609 H   0  0  0  0  0  0  0  0  0  0  0  0
    9.3651    5.6208   23.1468 C   0  0  0  0  0  0  0  0  0  0  0  0
    8.3285    6.5095   23.4365 C   0  0  0  0  0  0  0  0  0  0  0  0
    8.0045    7.2273   22.6882 H   0  0  0  0  0  0  0  0  0  0  0  0
    9.8448    5.6704   22.1720 H   0  0  0  0  0  0  0  0  0  0  0  0
    9.4831    3.9540   26.1020 H   0  0  0  0  0  0  0  0  0  0  0  0
    7.6469    5.5398   26.6157 H   0  0  0  0  0  0  0  0  0  0  0  0
    6.9918    8.3845   25.4408 H   0  0  0  0  0  0  0  0  0  0  0  0
    6.0232    7.7493   24.1123 H   0  0  0  0  0  0  0  0  0  0  0  0
    5.8786    7.0499   25.7301 H   0  0  0  0  0  0  0  0  0  0  0  0
  1  2  1  0
  2  3  2  0
  3  4  1  0
  4  5  2  0
  5  6  1  0
  6  7  1  0
  7  8  1  0
  7  9  1  0
  7 10  1  0
  6 11  1  0
 11 12  1  0
 12 13  1  0
 13 14  1  0
 14 15  1  0
 15 16  1  0
 16 17  1  0
 17 18  1  0
 18 19  1  0
 18 20  1  0
 18 21  1  0
 17 22  1  0
 22 23  1  0
 23 24  2  0
 24 25  1  0
 25 26  2  0
 26 27  1  0
 27 28  2  0
 28 29  1  0
 26 30  1  0
 25 31  1  0
 24 32  1  0
 22 33  1  6
 17 34  1  0
 16 35  1  0
 16 36  1  0
 15 37  1  0
 15 38  1  0
 14 39  1  1
 13 40  1  0
 13 41  1  0
 12 42  1  0
 12 43  1  0
 11 44  1  0
 11 45  1  0
  6 46  1  0
  5 47  1  0
 47 48  2  0
 48 49  1  0
 47 50  1  0
  4 51  1  0
  3 52  1  0
  1 53  1  0
  1 54  1  0
  1 55  1  0
 48  2  1  0
 22 14  1  0
 28 23  1  0
M  CHG  2  12   1  17   1
M  END
>  <plip>  (1) 
-0.07142857142857142

>  <filename>  (1) 
[H][c]1[n][c]([H])[c]([C@@]2([H])[C@]([H])([C]([H])([H])[N+]([H])([H])[C]([H])([H])[C]([H])([c]3[c]([H])[c]([H])[c]([C]([H])([H])[H])[c]([H])[c]3[H])[C]([H])([H])[H])[C]([H])([H])[C]([H])([H])[N+]2([H])[C]([H])([H])[H])[c]([H])[c]1[H]

$$$$
