
     RDKit          3D

 27 28  0  0  0  0  0  0  0  0999 V2000
    7.9317   -5.7238   25.8180 F   0  0  0  0  0  0  0  0  0  0  0  0
    8.6169   -5.8833   24.6554 C   0  0  0  0  0  0  0  0  0  0  0  0
    9.9300   -6.0017   24.9821 F   0  0  0  0  0  0  0  0  0  0  0  0
    8.3797   -4.7312   23.7193 C   0  0  0  0  0  0  0  0  0  0  0  0
    8.9608   -3.4445   23.8131 C   0  0  0  0  0  0  0  0  0  0  0  0
    8.5818   -2.5197   22.8612 C   0  0  0  0  0  0  0  0  0  0  0  0
    7.6824   -2.9247   21.8471 C   0  0  0  0  0  0  0  0  0  0  0  0
    7.2920   -2.0809   20.8360 N   0  0  0  0  0  0  0  0  0  0  0  0
    7.4059   -0.6433   20.9799 C   0  0  0  0  0  0  0  0  0  0  0  0
    6.6005   -0.0151   19.8879 C   0  0  0  0  0  0  0  0  0  0  0  0
    5.3852    0.6450   20.1026 C   0  0  0  0  0  0  0  0  0  0  0  0
    4.7871    1.2984   19.0218 C   0  0  0  0  0  0  0  0  0  0  0  0
    5.4182    1.2339   17.7761 C   0  0  0  0  0  0  0  0  0  0  0  0
    6.5310    0.5195   17.5391 N   0  0  0  0  0  0  0  0  0  0  0  0
    7.0824   -0.1142   18.5792 C   0  0  0  0  0  0  0  0  0  0  0  0
    7.9594   -0.7295   18.3654 H   0  0  0  0  0  0  0  0  0  0  0  0
    5.0061    1.7562   16.9166 H   0  0  0  0  0  0  0  0  0  0  0  0
    3.8675    1.8669   19.1363 H   0  0  0  0  0  0  0  0  0  0  0  0
    4.9254    0.6468   21.0927 H   0  0  0  0  0  0  0  0  0  0  0  0
    8.4609   -0.3432   20.8903 H   0  0  0  0  0  0  0  0  0  0  0  0
    7.0733   -0.2721   21.9623 H   0  0  0  0  0  0  0  0  0  0  0  0
    6.4027   -2.4020   20.4822 H   0  0  0  0  0  0  0  0  0  0  0  0
    7.1693   -4.1679   21.8151 N   0  0  0  0  0  0  0  0  0  0  0  0
    7.5243   -5.0515   22.7419 N   0  0  0  0  0  0  0  0  0  0  0  0
    8.9349   -1.4943   22.8685 H   0  0  0  0  0  0  0  0  0  0  0  0
    9.6910   -3.2006   24.5889 H   0  0  0  0  0  0  0  0  0  0  0  0
    8.2796   -6.7963   24.1653 H   0  0  0  0  0  0  0  0  0  0  0  0
  1  2  1  0
  2  3  1  0
  2  4  1  0
  4  5  2  0
  5  6  1  0
  6  7  2  0
  7  8  1  0
  8  9  1  0
  9 10  1  0
 10 11  2  0
 11 12  1  0
 12 13  2  0
 13 14  1  0
 14 15  2  0
 15 16  1  0
 13 17  1  0
 12 18  1  0
 11 19  1  0
  9 20  1  0
  9 21  1  0
  8 22  1  0
  7 23  1  0
 23 24  2  0
  6 25  1  0
  5 26  1  0
  2 27  1  0
 24  4  1  0
 15 10  1  0
M  END
>  <plip>  (1) 
-0.03333333333333333

>  <filename>  (1) 
[H][c]1[n][c]([H])[c]([C]([H])([H])[N]([H])[c]2[n][n][c]([C]([H])([F])[F])[c]([H])[c]2[H])[c]([H])[c]1[H]

$$$$
