
     RDKit          3D

 27 27  0  0  0  0  0  0  0  0999 V2000
   10.0162   -6.6097   24.7044 H   0  0  0  0  0  0  0  0  0  0  0  0
    9.4972   -5.8675   25.0416 O   0  0  0  0  0  0  0  0  0  0  0  0
    8.7746   -5.2853   23.9655 C   0  0  0  0  0  0  0  0  0  0  0  0
    7.9166   -5.9090   23.6742 H   0  0  0  0  0  0  0  0  0  0  0  0
    9.3914   -5.1591   23.0654 H   0  0  0  0  0  0  0  0  0  0  0  0
    8.2414   -3.9018   24.3419 C   0  0  0  0  0  0  0  0  0  0  0  0
    8.9906   -3.3711   24.9579 H   0  0  0  0  0  0  0  0  0  0  0  0
    7.3626   -4.0544   24.9810 H   0  0  0  0  0  0  0  0  0  0  0  0
    7.8596   -3.2189   23.1038 N   0  0  0  0  0  0  0  0  0  0  0  0
    8.6791   -3.0712   22.5168 H   0  0  0  0  0  0  0  0  0  0  0  0
    7.0491   -2.0010   23.1667 C   0  0  0  0  0  0  0  0  0  0  0  0
    6.1536   -2.1863   23.7717 H   0  0  0  0  0  0  0  0  0  0  0  0
    7.5741   -1.1278   23.5890 H   0  0  0  0  0  0  0  0  0  0  0  0
    6.5289   -1.6580   21.7626 C   0  0  0  0  0  0  0  0  0  0  0  0
    5.4917   -2.1296   21.3398 O   0  0  0  0  0  0  0  0  0  0  0  0
    7.3896   -0.7712   20.8485 C   0  0  0  0  0  0  0  0  0  0  0  0
    9.0202   -0.8077   20.9751 S   0  0  0  0  0  0  0  0  0  0  0  0
    6.6843    0.0278   19.8245 C   0  0  0  0  0  0  0  0  0  0  0  0
    7.2273    0.1429   18.5291 C   0  0  0  0  0  0  0  0  0  0  0  0
    8.1904   -0.3197   18.3146 H   0  0  0  0  0  0  0  0  0  0  0  0
    6.6211    0.7714   17.5218 N   0  0  0  0  0  0  0  0  0  0  0  0
    5.4379    1.3527   17.7762 C   0  0  0  0  0  0  0  0  0  0  0  0
    4.9538    1.8460   16.9328 H   0  0  0  0  0  0  0  0  0  0  0  0
    4.8249    1.3199   19.0301 C   0  0  0  0  0  0  0  0  0  0  0  0
    3.8775    1.8171   19.1712 H   0  0  0  0  0  0  0  0  0  0  0  0
    5.4458    0.6360   20.0745 C   0  0  0  0  0  0  0  0  0  0  0  0
    4.9765    0.5730   21.0570 H   0  0  0  0  0  0  0  0  0  0  0  0
  1  2  1  0
  2  3  1  0
  3  4  1  0
  3  5  1  0
  3  6  1  0
  6  7  1  0
  6  8  1  0
  6  9  1  0
  9 10  1  0
  9 11  1  0
 11 12  1  0
 11 13  1  0
 11 14  1  0
 14 15  2  0
 14 16  1  0
 16 17  2  0
 16 18  1  0
 18 19  2  0
 19 20  1  0
 19 21  1  0
 21 22  2  0
 22 23  1  0
 22 24  1  0
 24 25  1  0
 24 26  2  0
 26 27  1  0
 26 18  1  0
M  END
>  <plip>  (1) 
-0.13793103448275862

>  <filename>  (1) 
[H][O][C]([H])([H])[C]([H])([H])[N]([H])[C]([H])([H])[C](=[O])[C](=[S])[c]1[c]([H])[n][c]([H])[c]([H])[c]1[H]

$$$$
