
     RDKit          3D

 38 40  0  0  0  0  0  0  0  0999 V2000
    5.0130    1.8809   16.9563 H   0  0  0  0  0  0  0  0  0  0  0  0
    5.4850    1.3429   17.7739 C   0  0  0  0  0  0  0  0  0  0  0  0
    6.6776    0.7938   17.4994 N   0  0  0  0  0  0  0  0  0  0  0  0
    7.2900    0.1282   18.4805 C   0  0  0  0  0  0  0  0  0  0  0  0
    8.2850   -0.2534   18.2567 H   0  0  0  0  0  0  0  0  0  0  0  0
    6.7169   -0.0973   19.7483 C   0  0  0  0  0  0  0  0  0  0  0  0
    7.4547   -0.9586   20.6966 C   0  0  0  0  0  0  0  0  0  0  0  0
    8.7708   -0.8342   20.7318 N   0  0  0  0  0  0  0  0  0  0  0  0
    9.4587   -1.3196   21.8307 C   0  0  0  0  0  0  0  0  0  0  0  0
   10.9510   -1.0565   21.9294 C   0  0  0  0  0  0  0  0  0  0  0  0
   11.4800   -1.9898   22.1810 H   0  0  0  0  0  0  0  0  0  0  0  0
   11.2935   -0.7195   20.9375 H   0  0  0  0  0  0  0  0  0  0  0  0
   11.2073   -0.0776   22.9977 N   0  0  0  0  0  0  0  0  0  0  0  0
   12.1925   -0.0637   23.2345 H   0  0  0  0  0  0  0  0  0  0  0  0
   10.8009    1.2864   22.6370 C   0  0  0  0  0  0  0  0  0  0  0  0
    9.9126    1.2134   22.0012 H   0  0  0  0  0  0  0  0  0  0  0  0
   11.9262    2.0808   21.9581 C   0  0  0  0  0  0  0  0  0  0  0  0
   12.5097    1.4547   21.2810 H   0  0  0  0  0  0  0  0  0  0  0  0
   11.4800    2.8772   21.3540 H   0  0  0  0  0  0  0  0  0  0  0  0
   12.7753    2.6619   23.1009 C   0  0  0  0  0  0  0  0  0  0  0  0
   13.2022    3.6305   22.8304 H   0  0  0  0  0  0  0  0  0  0  0  0
   13.6355    2.0218   23.3192 H   0  0  0  0  0  0  0  0  0  0  0  0
   11.8299    2.7294   24.3234 C   0  0  0  0  0  0  0  0  0  0  0  0
   11.6934    3.7517   24.6827 H   0  0  0  0  0  0  0  0  0  0  0  0
   12.2379    2.1462   25.1503 H   0  0  0  0  0  0  0  0  0  0  0  0
   10.4888    2.1156   23.8830 C   0  0  0  0  0  0  0  0  0  0  0  0
    9.7779    2.9063   23.6161 H   0  0  0  0  0  0  0  0  0  0  0  0
   10.0162    1.5071   24.6613 H   0  0  0  0  0  0  0  0  0  0  0  0
    8.8282   -1.9392   22.8751 C   0  0  0  0  0  0  0  0  0  0  0  0
    9.3234   -2.1379   23.8248 H   0  0  0  0  0  0  0  0  0  0  0  0
    7.5004   -2.2904   22.7207 N   0  0  0  0  0  0  0  0  0  0  0  0
    6.9966   -2.9136   23.3421 H   0  0  0  0  0  0  0  0  0  0  0  0
    6.7417   -1.9785   21.5932 C   0  0  0  0  0  0  0  0  0  0  0  0
    5.6560   -2.5270   21.4683 O   0  0  0  0  0  0  0  0  0  0  0  0
    5.4921    0.5374   20.0382 C   0  0  0  0  0  0  0  0  0  0  0  0
    5.0478    0.4896   21.0343 H   0  0  0  0  0  0  0  0  0  0  0  0
    4.8690    1.2678   19.0257 C   0  0  0  0  0  0  0  0  0  0  0  0
    3.9349    1.7933   19.1897 H   0  0  0  0  0  0  0  0  0  0  0  0
  1  2  1  0
  2  3  2  0
  3  4  1  0
  4  5  1  0
  4  6  2  0
  6  7  1  0
  7  8  2  0
  8  9  1  0
  9 10  1  0
 10 11  1  0
 10 12  1  0
 10 13  1  0
 13 14  1  0
 13 15  1  0
 15 16  1  0
 15 17  1  0
 17 18  1  0
 17 19  1  0
 17 20  1  0
 20 21  1  0
 20 22  1  0
 20 23  1  0
 23 24  1  0
 23 25  1  0
 23 26  1  0
 26 27  1  0
 26 28  1  0
  9 29  2  0
 29 30  1  0
 29 31  1  0
 31 32  1  0
 31 33  1  0
 33 34  2  0
  6 35  1  0
 35 36  1  0
 35 37  2  0
 37 38  1  0
 37  2  1  0
 33  7  1  0
 26 15  1  0
M  END
>  <plip>  (1) 
-0.13793103448275862

>  <filename>  (1) 
[H][c]1[n][c]([H])[c](-[c]2[n][c]([C]([H])([H])[N]([H])[C]3([H])[C]([H])([H])[C]([H])([H])[C]([H])([H])[C]3([H])[H])[c]([H])[n]([H])[c]2=[O])[c]([H])[c]1[H]

$$$$
