
     RDKit          3D

 40 42  0  0  0  0  0  0  0  0999 V2000
    6.9042   -1.2985   26.4935 C   0  0  0  0  0  0  0  0  0  0  0  0
    6.9058   -2.6925   25.9322 C   0  0  0  0  0  0  0  0  0  0  0  0
    7.0205   -2.9070   24.5546 C   0  0  0  0  0  0  0  0  0  0  0  0
    7.1171   -1.9772   23.5602 O   0  0  0  0  0  0  0  0  0  0  0  0
    6.9970   -2.6716   22.3729 C   0  0  0  0  0  0  0  0  0  0  0  0
    6.8471   -2.0126   21.0721 C   0  0  0  0  0  0  0  0  0  0  0  0
    6.1385   -2.5701   20.2273 O   0  0  0  0  0  0  0  0  0  0  0  0
    7.3138   -0.7127   20.8531 N   0  0  0  0  0  0  0  0  0  0  0  0
    6.7280    0.0495   19.8263 C   0  0  0  0  0  0  0  0  0  0  0  0
    5.5206    0.6817   20.1076 C   0  0  0  0  0  0  0  0  0  0  0  0
    4.8635    1.3303   19.0661 C   0  0  0  0  0  0  0  0  0  0  0  0
    5.4354    1.3531   17.7869 C   0  0  0  0  0  0  0  0  0  0  0  0
    6.6125    0.7585   17.5064 N   0  0  0  0  0  0  0  0  0  0  0  0
    7.2453    0.1146   18.5092 C   0  0  0  0  0  0  0  0  0  0  0  0
    8.1737   -0.4087   18.2834 H   0  0  0  0  0  0  0  0  0  0  0  0
    4.8990    1.8528   16.9890 H   0  0  0  0  0  0  0  0  0  0  0  0
    3.9092    1.8108   19.2400 H   0  0  0  0  0  0  0  0  0  0  0  0
    5.1137    0.6280   21.1182 H   0  0  0  0  0  0  0  0  0  0  0  0
    8.2500   -0.0796   21.7953 C   0  0  0  0  0  0  0  0  0  0  0  0
    7.5515    0.9674   22.6688 C   0  0  0  0  0  0  0  0  0  0  0  0
    7.1434    1.7644   22.0357 H   0  0  0  0  0  0  0  0  0  0  0  0
    6.7364    0.5148   23.2459 H   0  0  0  0  0  0  0  0  0  0  0  0
    8.2690    1.4135   23.3692 H   0  0  0  0  0  0  0  0  0  0  0  0
    9.3544    0.6044   20.9936 C   0  0  0  0  0  0  0  0  0  0  0  0
    8.9132    1.4004   20.3848 H   0  0  0  0  0  0  0  0  0  0  0  0
    9.8421   -0.1223   20.3348 H   0  0  0  0  0  0  0  0  0  0  0  0
   10.1055    1.0453   21.6590 H   0  0  0  0  0  0  0  0  0  0  0  0
    8.7111   -0.8350   22.4457 H   0  0  0  0  0  0  0  0  0  0  0  0
    6.9701   -4.0282   22.5973 C   0  0  0  0  0  0  0  0  0  0  0  0
    6.9387   -4.1838   24.0220 C   0  0  0  0  0  0  0  0  0  0  0  0
    6.7474   -5.2842   24.8522 C   0  0  0  0  0  0  0  0  0  0  0  0
    6.6520   -5.0990   26.2377 C   0  0  0  0  0  0  0  0  0  0  0  0
    6.4014   -6.5800   27.4216 Br  0  0  0  0  0  0  0  0  0  0  0  0
    6.7307   -3.8060   26.7649 C   0  0  0  0  0  0  0  0  0  0  0  0
    6.6491   -3.6735   27.8363 H   0  0  0  0  0  0  0  0  0  0  0  0
    6.6252   -6.2668   24.4269 H   0  0  0  0  0  0  0  0  0  0  0  0
    6.9099   -4.8291   21.8615 H   0  0  0  0  0  0  0  0  0  0  0  0
    5.8910   -0.8835   26.4748 H   0  0  0  0  0  0  0  0  0  0  0  0
    7.5536   -0.6510   25.8973 H   0  0  0  0  0  0  0  0  0  0  0  0
    7.2617   -1.3022   27.5269 H   0  0  0  0  0  0  0  0  0  0  0  0
  1  2  1  0
  2  3  2  0
  3  4  1  0
  4  5  1  0
  5  6  1  0
  6  7  2  0
  6  8  1  0
  8  9  1  0
  9 10  2  0
 10 11  1  0
 11 12  2  0
 12 13  1  0
 13 14  2  0
 14 15  1  0
 12 16  1  0
 11 17  1  0
 10 18  1  0
  8 19  1  0
 19 20  1  0
 20 21  1  0
 20 22  1  0
 20 23  1  0
 19 24  1  0
 24 25  1  0
 24 26  1  0
 24 27  1  0
 19 28  1  0
  5 29  2  0
 29 30  1  0
 30 31  2  0
 31 32  1  0
 32 33  1  0
 32 34  2  0
 34 35  1  0
 31 36  1  0
 29 37  1  0
  1 38  1  0
  1 39  1  0
  1 40  1  0
 34  2  1  0
 30  3  1  0
 14  9  1  0
M  END
>  <plip>  (1) 
-0.10714285714285714

>  <filename>  (1) 
[H][c]1[n][c]([H])[c]([N]([C](=[O])[c]2[o][c]3[c]([C]([H])([H])[H])[c]([H])[c]([Br])[c]([H])[c]3[c]2[H])[C]([H])([C]([H])([H])[H])[C]([H])([H])[H])[c]([H])[c]1[H]

$$$$
