
     RDKit          3D

 22 24  0  0  0  0  0  0  0  0999 V2000
    4.9067    1.7725   17.0050 H   0  0  0  0  0  0  0  0  0  0  0  0
    5.3993    1.2914   17.8463 C   0  0  0  0  0  0  0  0  0  0  0  0
    6.5697    0.6801   17.5925 N   0  0  0  0  0  0  0  0  0  0  0  0
    7.1871    0.0571   18.5987 C   0  0  0  0  0  0  0  0  0  0  0  0
    8.1331   -0.4377   18.3821 H   0  0  0  0  0  0  0  0  0  0  0  0
    6.6642    0.0047   19.9007 C   0  0  0  0  0  0  0  0  0  0  0  0
    7.3625   -0.6808   20.9376 N   0  0  0  0  0  0  0  0  0  0  0  0
    8.3522   -1.5687   20.6821 N   0  0  0  0  0  0  0  0  0  0  0  0
    8.7910   -2.0178   21.8002 N   0  0  0  0  0  0  0  0  0  0  0  0
    8.1016   -1.4282   22.8315 C   0  0  0  0  0  0  0  0  0  0  0  0
    8.3403   -1.6932   24.2611 C   0  0  0  0  0  0  0  0  0  0  0  0
    7.6361   -1.0870   25.2640 N   0  0  0  0  0  0  0  0  0  0  0  0
    8.1046   -1.5491   26.3828 N   0  0  0  0  0  0  0  0  0  0  0  0
    9.0520   -2.3984   26.0473 N   0  0  0  0  0  0  0  0  0  0  0  0
    9.5925   -2.9108   26.7320 H   0  0  0  0  0  0  0  0  0  0  0  0
    9.2488   -2.5337   24.7544 N   0  0  0  0  0  0  0  0  0  0  0  0
    7.1865   -0.5719   22.2772 C   0  0  0  0  0  0  0  0  0  0  0  0
    6.4763    0.0859   22.7598 H   0  0  0  0  0  0  0  0  0  0  0  0
    5.4482    0.6481   20.1635 C   0  0  0  0  0  0  0  0  0  0  0  0
    5.0039    0.6276   21.1555 H   0  0  0  0  0  0  0  0  0  0  0  0
    4.8083    1.3090   19.1129 C   0  0  0  0  0  0  0  0  0  0  0  0
    3.8741    1.8436   19.2694 H   0  0  0  0  0  0  0  0  0  0  0  0
  1  2  1  0
  2  3  2  0
  3  4  1  0
  4  5  1  0
  4  6  2  0
  6  7  1  0
  7  8  1  0
  8  9  2  0
  9 10  1  0
 10 11  1  0
 11 12  1  0
 12 13  2  0
 13 14  1  0
 14 15  1  0
 14 16  1  0
 10 17  2  0
 17 18  1  0
  6 19  1  0
 19 20  1  0
 19 21  2  0
 21 22  1  0
 21  2  1  0
 17  7  1  0
 16 11  2  0
M  END
>  <plip>  (1) 
-0.034482758620689655

>  <filename>  (1) 
[H][c]1[n][c]([H])[c](-[n]2[n][n][c](-[c]3[n][n][n]([H])[n]3)[c]2[H])[c]([H])[c]1[H]

$$$$
