
     RDKit          3D

 34 36  0  0  0  0  0  0  0  0999 V2000
    5.4553   -1.6016   19.9247 H   0  0  0  0  0  0  0  0  0  0  0  0
    5.8864   -2.0176   20.8413 C   0  0  0  0  0  0  0  0  0  0  0  0
    6.7239   -1.2852   21.5775 C   0  0  0  0  0  0  0  0  0  0  0  0
    7.0428   -1.6154   22.5649 H   0  0  0  0  0  0  0  0  0  0  0  0
    7.4667   -0.0537   21.0854 C   0  0  0  0  0  0  0  0  0  0  0  0
    6.8081    0.6185   19.8867 C   0  0  0  0  0  0  0  0  0  0  0  0
    7.3490    0.4570   18.6061 C   0  0  0  0  0  0  0  0  0  0  0  0
    8.3019   -0.0478   18.4707 H   0  0  0  0  0  0  0  0  0  0  0  0
    6.7535    0.8663   17.4764 N   0  0  0  0  0  0  0  0  0  0  0  0
    5.5668    1.4743   17.5981 C   0  0  0  0  0  0  0  0  0  0  0  0
    5.0795    1.7515   16.6652 H   0  0  0  0  0  0  0  0  0  0  0  0
    4.9521    1.7260   18.8293 C   0  0  0  0  0  0  0  0  0  0  0  0
    3.9927    2.2319   18.8528 H   0  0  0  0  0  0  0  0  0  0  0  0
    5.5896    1.3078   19.9997 C   0  0  0  0  0  0  0  0  0  0  0  0
    5.1524    1.4990   20.9808 H   0  0  0  0  0  0  0  0  0  0  0  0
    8.7921   -0.4616   20.7538 O   0  0  0  0  0  0  0  0  0  0  0  0
    9.6980    0.3780   21.4481 C   0  0  0  0  0  0  0  0  0  0  0  0
    9.9032    1.2958   20.8786 H   0  0  0  0  0  0  0  0  0  0  0  0
   10.6266   -0.1752   21.6149 H   0  0  0  0  0  0  0  0  0  0  0  0
    8.9081    0.6975   22.6978 C   0  0  0  0  0  0  0  0  0  0  0  0
    9.1985    1.6226   23.2017 H   0  0  0  0  0  0  0  0  0  0  0  0
    8.9389   -0.1325   23.4211 H   0  0  0  0  0  0  0  0  0  0  0  0
    7.6023    0.8632   22.1591 O   0  0  0  0  0  0  0  0  0  0  0  0
    5.6172   -3.4581   21.0150 C   0  0  0  0  0  0  0  0  0  0  0  0
    5.3391   -4.0630   22.2503 C   0  0  0  0  0  0  0  0  0  0  0  0
    5.2946   -3.4530   23.1536 H   0  0  0  0  0  0  0  0  0  0  0  0
    5.1842   -5.4528   22.3311 C   0  0  0  0  0  0  0  0  0  0  0  0
    4.9715   -5.9274   23.2867 H   0  0  0  0  0  0  0  0  0  0  0  0
    5.3098   -6.2445   21.1859 C   0  0  0  0  0  0  0  0  0  0  0  0
    5.2658   -7.3287   21.2514 H   0  0  0  0  0  0  0  0  0  0  0  0
    5.5366   -5.6451   19.9437 C   0  0  0  0  0  0  0  0  0  0  0  0
    5.5879   -6.2341   19.0323 H   0  0  0  0  0  0  0  0  0  0  0  0
    5.6976   -4.2648   19.8646 C   0  0  0  0  0  0  0  0  0  0  0  0
    5.8799   -3.7982   18.9010 H   0  0  0  0  0  0  0  0  0  0  0  0
  1  2  1  0
  2  3  2  3
  3  4  1  0
  3  5  1  0
  5  6  1  0
  6  7  2  0
  7  8  1  0
  7  9  1  0
  9 10  2  0
 10 11  1  0
 10 12  1  0
 12 13  1  0
 12 14  2  0
 14 15  1  0
  5 16  1  0
 16 17  1  0
 17 18  1  0
 17 19  1  0
 17 20  1  0
 20 21  1  0
 20 22  1  0
 20 23  1  0
  2 24  1  0
 24 25  2  0
 25 26  1  0
 25 27  1  0
 27 28  1  0
 27 29  2  0
 29 30  1  0
 29 31  1  0
 31 32  1  0
 31 33  2  0
 33 34  1  0
 23  5  1  0
 33 24  1  0
 14  6  1  0
M  END
>  <plip>  (1) 
-0.06666666666666667

>  <filename>  (1) 
[H][C](=[C]([H])[C]1([c]2[c]([H])[n][c]([H])[c]([H])[c]2[H])[O][C]([H])([H])[C]([H])([H])[O]1)[c]1[c]([H])[c]([H])[c]([H])[c]([H])[c]1[H]

$$$$
