
     RDKit          3D

 50 53  0  0  0  0  0  0  0  0999 V2000
    6.6928   -5.1545   21.8591 C   0  0  0  0  0  0  0  0  0  0  0  0
    6.1589   -4.3476   20.6913 C   0  0  0  0  0  0  0  0  0  0  0  0
    6.8425   -3.0818   20.5312 O   0  0  0  0  0  0  0  0  0  0  0  0
    6.6432   -2.1223   21.4486 C   0  0  0  0  0  0  0  0  0  0  0  0
    6.0087   -2.2975   22.4666 O   0  0  0  0  0  0  0  0  0  0  0  0
    7.3867   -0.7657   21.0652 C   0  0  0  0  0  0  0  0  0  0  0  0
    8.8727   -1.0656   20.7425 C   0  0  0  0  0  0  0  0  0  0  0  0
    9.3696   -0.1166   20.5428 H   0  0  0  0  0  0  0  0  0  0  0  0
    8.9818   -1.7296   19.8870 H   0  0  0  0  0  0  0  0  0  0  0  0
    9.3418   -1.5337   21.6128 H   0  0  0  0  0  0  0  0  0  0  0  0
    7.3853    0.1254   22.2397 N   0  0  0  0  0  0  0  0  0  0  0  0
    7.9341    1.3735   22.2262 C   0  0  0  0  0  0  0  0  0  0  0  0
    8.4753    1.8311   21.2251 O   0  0  0  0  0  0  0  0  0  0  0  0
    7.8221    2.1711   23.5278 C   0  0  0  0  0  0  0  0  0  0  0  0
    7.3679    1.6574   24.6572 N   0  0  0  0  0  0  0  0  0  0  0  0
    7.4458    2.6579   25.6052 O   0  0  0  0  0  0  0  0  0  0  0  0
    7.9511    3.7637   25.0360 C   0  0  0  0  0  0  0  0  0  0  0  0
    8.2053    5.0252   25.7073 C   0  0  0  0  0  0  0  0  0  0  0  0
    8.9379    5.9826   24.9624 C   0  0  0  0  0  0  0  0  0  0  0  0
    9.5558    5.6225   23.6086 C   0  0  0  0  0  0  0  0  0  0  0  0
    8.7856    4.5625   22.7991 C   0  0  0  0  0  0  0  0  0  0  0  0
    8.2079    3.5271   23.7116 C   0  0  0  0  0  0  0  0  0  0  0  0
    7.9938    5.0366   22.1992 H   0  0  0  0  0  0  0  0  0  0  0  0
    9.4396    4.0553   22.0846 H   0  0  0  0  0  0  0  0  0  0  0  0
   10.5680    5.2402   23.7991 H   0  0  0  0  0  0  0  0  0  0  0  0
    9.6746    6.5371   23.0171 H   0  0  0  0  0  0  0  0  0  0  0  0
    9.1472    7.2505   25.5168 C   0  0  0  0  0  0  0  0  0  0  0  0
    8.6626    7.5740   26.7823 C   0  0  0  0  0  0  0  0  0  0  0  0
    7.9584    6.6134   27.5251 C   0  0  0  0  0  0  0  0  0  0  0  0
    7.7307    5.3474   27.0038 C   0  0  0  0  0  0  0  0  0  0  0  0
    7.1755    4.6130   27.5848 H   0  0  0  0  0  0  0  0  0  0  0  0
    7.5775    6.8768   28.5083 H   0  0  0  0  0  0  0  0  0  0  0  0
    8.8262    8.5686   27.1884 H   0  0  0  0  0  0  0  0  0  0  0  0
    9.6920    7.9969   24.9428 H   0  0  0  0  0  0  0  0  0  0  0  0
    6.9722   -0.2208   23.0993 H   0  0  0  0  0  0  0  0  0  0  0  0
    6.6547   -0.0504   19.9008 C   0  0  0  0  0  0  0  0  0  0  0  0
    5.4224    0.5895   20.1176 C   0  0  0  0  0  0  0  0  0  0  0  0
    4.8113    1.2642   19.0603 C   0  0  0  0  0  0  0  0  0  0  0  0
    5.4462    1.2817   17.8131 C   0  0  0  0  0  0  0  0  0  0  0  0
    6.6173    0.6794   17.5786 N   0  0  0  0  0  0  0  0  0  0  0  0
    7.1998    0.0534   18.6135 C   0  0  0  0  0  0  0  0  0  0  0  0
    8.1666   -0.3990   18.3961 H   0  0  0  0  0  0  0  0  0  0  0  0
    4.9998    1.8117   16.9733 H   0  0  0  0  0  0  0  0  0  0  0  0
    3.8831    1.8083   19.1948 H   0  0  0  0  0  0  0  0  0  0  0  0
    4.9720    0.6029   21.1138 H   0  0  0  0  0  0  0  0  0  0  0  0
    5.0969   -4.1473   20.8374 H   0  0  0  0  0  0  0  0  0  0  0  0
    6.2998   -4.8476   19.7291 H   0  0  0  0  0  0  0  0  0  0  0  0
    6.5089   -4.5924   22.7777 H   0  0  0  0  0  0  0  0  0  0  0  0
    6.1615   -6.1120   21.9163 H   0  0  0  0  0  0  0  0  0  0  0  0
    7.7647   -5.3492   21.7619 H   0  0  0  0  0  0  0  0  0  0  0  0
  1  2  1  0
  2  3  1  0
  3  4  1  0
  4  5  2  0
  4  6  1  0
  6  7  1  0
  7  8  1  0
  7  9  1  0
  7 10  1  0
  6 11  1  0
 11 12  1  0
 12 13  2  0
 12 14  1  0
 14 15  2  0
 15 16  1  0
 16 17  1  0
 17 18  1  0
 18 19  2  0
 19 20  1  0
 20 21  1  0
 21 22  1  0
 21 23  1  0
 21 24  1  0
 20 25  1  0
 20 26  1  0
 19 27  1  0
 27 28  2  0
 28 29  1  0
 29 30  2  0
 30 31  1  0
 29 32  1  0
 28 33  1  0
 27 34  1  0
 11 35  1  0
  6 36  1  0
 36 37  2  0
 37 38  1  0
 38 39  2  0
 39 40  1  0
 40 41  2  0
 41 42  1  0
 39 43  1  0
 38 44  1  0
 37 45  1  0
  2 46  1  0
  2 47  1  0
  1 48  1  0
  1 49  1  0
  1 50  1  0
 22 14  1  0
 41 36  1  0
 22 17  2  0
 30 18  1  0
M  END
>  <plip>  (1) 
-0.07142857142857142

>  <filename>  (1) 
[H][c]1[n][c]([H])[c]([C]([C](=[O])[O][C]([H])([H])[C]([H])([H])[H])([N]([H])[C](=[O])[c]2[n][o][c]3[c]2[C]([H])([H])[C]([H])([H])[c]2[c]([H])[c]([H])[c]([H])[c]([H])[c]2-3)[C]([H])([H])[H])[c]([H])[c]1[H]

$$$$
