
     RDKit          3D

 39 42  0  0  0  0  0  0  0  0999 V2000
    5.6968    2.1563   24.3887 C   0  0  0  0  0  0  0  0  0  0  0  0
    7.0327    1.9324   25.0550 C   0  0  0  0  0  0  0  0  0  0  0  0
    7.9435    2.9859   25.2493 C   0  0  0  0  0  0  0  0  0  0  0  0
    9.1944    2.8597   25.7083 N   0  0  0  0  0  0  0  0  0  0  0  0
    9.5955    1.6235   26.0305 C   0  0  0  0  0  0  0  0  0  0  0  0
    8.7683    0.5072   25.9575 C   0  0  0  0  0  0  0  0  0  0  0  0
    7.4814    0.6541   25.4377 C   0  0  0  0  0  0  0  0  0  0  0  0
    6.5359   -0.8018   25.0072 S   0  0  0  0  0  0  0  0  0  0  0  0
    7.2057   -0.9436   23.3557 C   0  0  0  0  0  0  0  0  0  0  0  0
    6.5252   -0.4009   22.3439 N   0  0  0  0  0  0  0  0  0  0  0  0
    7.0963   -0.4123   21.1391 C   0  0  0  0  0  0  0  0  0  0  0  0
    6.3693    0.2009   20.0127 C   0  0  0  0  0  0  0  0  0  0  0  0
    5.1214    0.8436   20.0848 C   0  0  0  0  0  0  0  0  0  0  0  0
    4.6140    1.4287   18.9226 C   0  0  0  0  0  0  0  0  0  0  0  0
    5.3505    1.3348   17.7354 C   0  0  0  0  0  0  0  0  0  0  0  0
    6.5164    0.6834   17.6451 N   0  0  0  0  0  0  0  0  0  0  0  0
    6.9963    0.1350   18.7621 C   0  0  0  0  0  0  0  0  0  0  0  0
    7.9419   -0.3909   18.6770 H   0  0  0  0  0  0  0  0  0  0  0  0
    4.9767    1.7982   16.8219 H   0  0  0  0  0  0  0  0  0  0  0  0
    3.6708    1.9635   18.9320 H   0  0  0  0  0  0  0  0  0  0  0  0
    4.5617    0.8847   21.0227 H   0  0  0  0  0  0  0  0  0  0  0  0
    8.2942   -0.9389   20.8677 N   0  0  0  0  0  0  0  0  0  0  0  0
    8.9321   -1.4918   21.8856 C   0  0  0  0  0  0  0  0  0  0  0  0
    8.4448   -1.5440   23.1786 C   0  0  0  0  0  0  0  0  0  0  0  0
    9.4401   -2.2693   24.0552 C   0  0  0  0  0  0  0  0  0  0  0  0
   10.2109   -3.1242   23.0299 C   0  0  0  0  0  0  0  0  0  0  0  0
   10.2343   -2.2156   21.7832 C   0  0  0  0  0  0  0  0  0  0  0  0
   10.2902   -2.7102   20.8198 H   0  0  0  0  0  0  0  0  0  0  0  0
   11.0593   -1.4945   21.8449 H   0  0  0  0  0  0  0  0  0  0  0  0
   11.2039   -3.4317   23.3701 H   0  0  0  0  0  0  0  0  0  0  0  0
    9.6568   -4.0487   22.8235 H   0  0  0  0  0  0  0  0  0  0  0  0
   10.1508   -1.5569   24.5008 H   0  0  0  0  0  0  0  0  0  0  0  0
    8.9859   -2.8370   24.8671 H   0  0  0  0  0  0  0  0  0  0  0  0
    9.1416   -0.4548   26.2890 H   0  0  0  0  0  0  0  0  0  0  0  0
   10.6265    1.5236   26.3587 H   0  0  0  0  0  0  0  0  0  0  0  0
    7.6239    3.9977   25.0003 H   0  0  0  0  0  0  0  0  0  0  0  0
    4.9146    1.5379   24.8395 H   0  0  0  0  0  0  0  0  0  0  0  0
    5.3816    3.2014   24.4279 H   0  0  0  0  0  0  0  0  0  0  0  0
    5.7694    1.8396   23.3410 H   0  0  0  0  0  0  0  0  0  0  0  0
  1  2  1  0
  2  3  2  0
  3  4  1  0
  4  5  2  0
  5  6  1  0
  6  7  2  0
  7  8  1  0
  8  9  1  0
  9 10  2  0
 10 11  1  0
 11 12  1  0
 12 13  2  0
 13 14  1  0
 14 15  2  0
 15 16  1  0
 16 17  2  0
 17 18  1  0
 15 19  1  0
 14 20  1  0
 13 21  1  0
 11 22  2  0
 22 23  1  0
 23 24  2  0
 24 25  1  0
 25 26  1  0
 26 27  1  0
 27 28  1  0
 27 29  1  0
 26 30  1  0
 26 31  1  0
 25 32  1  0
 25 33  1  0
  6 34  1  0
  5 35  1  0
  3 36  1  0
  1 37  1  0
  1 38  1  0
  1 39  1  0
  7  2  1  0
 24  9  1  0
 17 12  1  0
 27 23  1  0
M  END
>  <plip>  (1) 
-0.0

>  <filename>  (1) 
[H][c]1[n][c]([H])[c](-[c]2[n][c]([S][c]3[c]([H])[c]([H])[n][c]([H])[c]3[C]([H])([H])[H])[c]3[c]([n]2)[C]([H])([H])[C]([H])([H])[C]3([H])[H])[c]([H])[c]1[H]

$$$$
