
     RDKit          3D

 39 41  0  0  0  0  0  0  0  0999 V2000
    3.6257   -7.7861   25.8337 H   0  0  0  0  0  0  0  0  0  0  0  0
    3.7109   -7.3527   24.8338 C   0  0  0  0  0  0  0  0  0  0  0  0
    4.6473   -6.4074   24.6848 N   0  0  0  0  0  0  0  0  0  0  0  0
    4.7813   -5.8472   23.4666 C   0  0  0  0  0  0  0  0  0  0  0  0
    5.7383   -4.7753   23.3302 C   0  0  0  0  0  0  0  0  0  0  0  0
    6.4860   -3.8380   23.1837 C   0  0  0  0  0  0  0  0  0  0  0  0
    7.3416   -2.8235   23.0818 N   0  0  0  0  0  0  0  0  0  0  0  0
    8.3068   -2.7522   22.0017 C   0  0  0  0  0  0  0  0  0  0  0  0
    9.2370   -2.3244   22.3998 H   0  0  0  0  0  0  0  0  0  0  0  0
    8.5185   -3.7674   21.6534 H   0  0  0  0  0  0  0  0  0  0  0  0
    7.9057   -1.9202   20.7644 C   0  0  0  0  0  0  0  0  0  0  0  0
    7.0871   -2.4414   20.2486 H   0  0  0  0  0  0  0  0  0  0  0  0
    8.7825   -1.9366   20.0956 H   0  0  0  0  0  0  0  0  0  0  0  0
    7.4806   -0.5407   20.9739 N   0  0  0  0  0  0  0  0  0  0  0  0
    6.7516    0.0762   19.9224 C   0  0  0  0  0  0  0  0  0  0  0  0
    7.1847    0.0524   18.5656 C   0  0  0  0  0  0  0  0  0  0  0  0
    8.0936   -0.4857   18.3039 H   0  0  0  0  0  0  0  0  0  0  0  0
    6.5573    0.6469   17.5368 N   0  0  0  0  0  0  0  0  0  0  0  0
    5.4095    1.2924   17.7972 C   0  0  0  0  0  0  0  0  0  0  0  0
    4.9185    1.7826   16.9551 H   0  0  0  0  0  0  0  0  0  0  0  0
    4.8444    1.3373   19.0754 C   0  0  0  0  0  0  0  0  0  0  0  0
    3.8966    1.8445   19.2247 H   0  0  0  0  0  0  0  0  0  0  0  0
    5.5228    0.7345   20.1466 C   0  0  0  0  0  0  0  0  0  0  0  0
    5.1063    0.7443   21.1508 H   0  0  0  0  0  0  0  0  0  0  0  0
    7.7866    0.1362   22.2297 C   0  0  0  0  0  0  0  0  0  0  0  0
    8.8690    0.0713   22.4383 H   0  0  0  0  0  0  0  0  0  0  0  0
    7.5607    1.2002   22.0912 H   0  0  0  0  0  0  0  0  0  0  0  0
    7.0039   -0.3655   23.4449 C   0  0  0  0  0  0  0  0  0  0  0  0
    7.0940    0.3812   24.2415 H   0  0  0  0  0  0  0  0  0  0  0  0
    5.9571   -0.3800   23.1537 H   0  0  0  0  0  0  0  0  0  0  0  0
    7.3642   -1.7324   24.0371 C   0  0  0  0  0  0  0  0  0  0  0  0
    8.3701   -1.6932   24.4894 H   0  0  0  0  0  0  0  0  0  0  0  0
    6.6622   -1.9592   24.8478 H   0  0  0  0  0  0  0  0  0  0  0  0
    4.0022   -6.2442   22.3617 C   0  0  0  0  0  0  0  0  0  0  0  0
    4.1869   -5.7911   21.3964 H   0  0  0  0  0  0  0  0  0  0  0  0
    3.0192   -7.2190   22.5338 C   0  0  0  0  0  0  0  0  0  0  0  0
    2.3973   -7.5468   21.6958 H   0  0  0  0  0  0  0  0  0  0  0  0
    2.8702   -7.7839   23.8025 C   0  0  0  0  0  0  0  0  0  0  0  0
    2.1072   -8.5343   23.9976 H   0  0  0  0  0  0  0  0  0  0  0  0
  1  2  1  0
  2  3  2  0
  3  4  1  0
  4  5  1  0
  5  6  3  0
  6  7  1  0
  7  8  1  0
  8  9  1  0
  8 10  1  0
  8 11  1  0
 11 12  1  0
 11 13  1  0
 11 14  1  0
 14 15  1  0
 15 16  2  0
 16 17  1  0
 16 18  1  0
 18 19  2  0
 19 20  1  0
 19 21  1  0
 21 22  1  0
 21 23  2  0
 23 24  1  0
 14 25  1  0
 25 26  1  0
 25 27  1  0
 25 28  1  0
 28 29  1  0
 28 30  1  0
 28 31  1  0
 31 32  1  0
 31 33  1  0
  4 34  2  0
 34 35  1  0
 34 36  1  0
 36 37  1  0
 36 38  2  0
 38 39  1  0
 38  2  1  0
 31  7  1  0
 23 15  1  0
M  END
>  <plip>  (1) 
-0.03571428571428571

>  <filename>  (1) 
[H][c]1[n][c]([C]#[C][N]2[C]([H])([H])[C]([H])([H])[N]([c]3[c]([H])[n][c]([H])[c]([H])[c]3[H])[C]([H])([H])[C]([H])([H])[C]2([H])[H])[c]([H])[c]([H])[c]1[H]

$$$$
