
     RDKit          3D

 29 30  0  0  0  0  0  0  0  0999 V2000
    6.6455   -1.2430   22.1309 C   0  0  0  0  0  0  0  0  0  0  0  0
    7.4902   -0.6574   21.0027 C   0  0  1  0  0  0  0  0  0  0  0  0
    6.6886    0.0518   19.9332 C   0  0  0  0  0  0  0  0  0  0  0  0
    5.4492    0.6614   20.1616 C   0  0  0  0  0  0  0  0  0  0  0  0
    4.8080    1.3026   19.1010 C   0  0  0  0  0  0  0  0  0  0  0  0
    5.4034    1.2854   17.8386 C   0  0  0  0  0  0  0  0  0  0  0  0
    6.5670    0.6680   17.5889 N   0  0  0  0  0  0  0  0  0  0  0  0
    7.1831    0.0797   18.6203 C   0  0  0  0  0  0  0  0  0  0  0  0
    8.1232   -0.4160   18.3765 H   0  0  0  0  0  0  0  0  0  0  0  0
    4.9287    1.7808   16.9932 H   0  0  0  0  0  0  0  0  0  0  0  0
    3.8795    1.8345   19.2518 H   0  0  0  0  0  0  0  0  0  0  0  0
    4.9984    0.6505   21.1570 H   0  0  0  0  0  0  0  0  0  0  0  0
    8.5386    0.2034   21.5468 N   0  0  0  0  0  0  0  0  0  0  0  0
    8.3122    1.4453   22.1244 C   0  0  0  0  0  0  0  0  0  0  0  0
    7.2840    2.0779   22.1296 O   0  0  0  0  0  0  0  0  0  0  0  0
    9.4718    1.8306   22.7210 N   0  0  0  0  0  0  0  0  0  0  0  0
   10.5389    0.8663   22.5943 C   0  0  2  0  0  0  0  0  0  0  0  0
   11.7667    1.4269   21.8788 C   0  0  0  0  0  0  0  0  0  0  0  0
   12.2276    2.2357   22.4579 H   0  0  0  0  0  0  0  0  0  0  0  0
   12.5049    0.6318   21.7441 H   0  0  0  0  0  0  0  0  0  0  0  0
   11.4762    1.8259   20.9021 H   0  0  0  0  0  0  0  0  0  0  0  0
    9.8095   -0.2456   21.8190 C   0  0  0  0  0  0  0  0  0  0  0  0
   10.2455   -1.3280   21.5087 O   0  0  0  0  0  0  0  0  0  0  0  0
   10.8381    0.4475   23.5688 H   0  0  0  0  0  0  0  0  0  0  0  0
    9.4688    2.7131   23.1917 H   0  0  0  0  0  0  0  0  0  0  0  0
    8.0269   -1.4871   20.5260 H   0  0  0  0  0  0  0  0  0  0  0  0
    6.2287   -0.4474   22.7588 H   0  0  0  0  0  0  0  0  0  0  0  0
    7.2500   -1.9092   22.7555 H   0  0  0  0  0  0  0  0  0  0  0  0
    5.8221   -1.8250   21.7083 H   0  0  0  0  0  0  0  0  0  0  0  0
  1  2  1  0
  2  3  1  0
  3  4  2  0
  4  5  1  0
  5  6  2  0
  6  7  1  0
  7  8  2  0
  8  9  1  0
  6 10  1  0
  5 11  1  0
  4 12  1  0
  2 13  1  0
 13 14  1  0
 14 15  2  0
 14 16  1  0
 16 17  1  0
 17 18  1  0
 18 19  1  0
 18 20  1  0
 18 21  1  0
 17 22  1  0
 22 23  2  0
 17 24  1  1
 16 25  1  0
  2 26  1  6
  1 27  1  0
  1 28  1  0
  1 29  1  0
  8  3  1  0
 22 13  1  0
M  END
>  <plip>  (1) 
-0.03571428571428571

>  <filename>  (1) 
[H][c]1[n][c]([H])[c]([C@@]([H])([N]2[C](=[O])[N]([H])[C@]([H])([C]([H])([H])[H])[C]2=[O])[C]([H])([H])[H])[c]([H])[c]1[H]

$$$$
