
     RDKit          3D

 28 30  0  0  0  0  0  0  0  0999 V2000
    4.9595    1.7871   16.9608 H   0  0  0  0  0  0  0  0  0  0  0  0
    5.4157    1.2963   17.8177 C   0  0  0  0  0  0  0  0  0  0  0  0
    6.5841    0.6791   17.5804 N   0  0  0  0  0  0  0  0  0  0  0  0
    7.1679    0.0578   18.6170 C   0  0  0  0  0  0  0  0  0  0  0  0
    8.1279   -0.4173   18.4039 H   0  0  0  0  0  0  0  0  0  0  0  0
    6.6157    0.0031   19.9121 C   0  0  0  0  0  0  0  0  0  0  0  0
    7.2590   -0.6963   21.0421 C   0  0  0  0  0  0  0  0  0  0  0  0
    7.8737   -0.0014   22.0604 C   0  0  0  0  0  0  0  0  0  0  0  0
    7.8929    1.4911   22.2170 C   0  0  0  0  0  0  0  0  0  0  0  0
    8.1843    2.1934   21.2673 O   0  0  0  0  0  0  0  0  0  0  0  0
    7.5811    2.1097   23.5895 C   0  0  0  0  0  0  0  0  0  0  0  0
    8.0761    3.3874   23.9176 C   0  0  0  0  0  0  0  0  0  0  0  0
    8.6558    3.9655   23.2061 H   0  0  0  0  0  0  0  0  0  0  0  0
    7.7912    3.9388   25.1718 C   0  0  0  0  0  0  0  0  0  0  0  0
    8.1777    4.9198   25.4384 H   0  0  0  0  0  0  0  0  0  0  0  0
    7.0503    3.3245   26.1041 N   0  0  0  0  0  0  0  0  0  0  0  0
    6.5565    2.1213   25.7887 C   0  0  0  0  0  0  0  0  0  0  0  0
    5.9520    1.6395   26.5531 H   0  0  0  0  0  0  0  0  0  0  0  0
    6.7771    1.4801   24.5614 C   0  0  0  0  0  0  0  0  0  0  0  0
    6.2892    0.5234   24.3919 H   0  0  0  0  0  0  0  0  0  0  0  0
    8.8612   -0.9325   23.1543 S   0  0  0  0  0  0  0  0  0  0  0  0
    8.4102   -2.7385   22.2683 S   0  0  0  0  0  0  0  0  0  0  0  0
    7.1721   -2.1500   21.1795 C   0  0  0  0  0  0  0  0  0  0  0  0
    6.1116   -3.1760   20.4695 S   0  0  0  0  0  0  0  0  0  0  0  0
    5.4054    0.6687   20.1355 C   0  0  0  0  0  0  0  0  0  0  0  0
    4.9740    0.6807   21.1397 H   0  0  0  0  0  0  0  0  0  0  0  0
    4.7867    1.3176   19.0667 C   0  0  0  0  0  0  0  0  0  0  0  0
    3.8436    1.8409   19.1878 H   0  0  0  0  0  0  0  0  0  0  0  0
  1  2  1  0
  2  3  2  0
  3  4  1  0
  4  5  1  0
  4  6  2  0
  6  7  1  0
  7  8  2  0
  8  9  1  0
  9 10  2  0
  9 11  1  0
 11 12  2  0
 12 13  1  0
 12 14  1  0
 14 15  1  0
 14 16  2  0
 16 17  1  0
 17 18  1  0
 17 19  2  0
 19 20  1  0
  8 21  1  0
 21 22  1  0
 22 23  1  0
 23 24  2  0
  6 25  1  0
 25 26  1  0
 25 27  2  0
 27 28  1  0
 27  2  1  0
 23  7  1  0
 19 11  1  0
M  END
>  <plip>  (1) 
-0.03571428571428571

>  <filename>  (1) 
[H][c]1[n][c]([H])[c](-[c]2[c]([C](=[O])[c]3[c]([H])[c]([H])[n][c]([H])[c]3[H])[s][s][c]2=[S])[c]([H])[c]1[H]

$$$$
