
     RDKit          3D

 47 50  0  0  0  0  0  0  0  0999 V2000
    9.6048    0.9260   20.3708 O   0  0  0  0  0  0  0  0  0  0  0  0
    9.0655    1.1783   21.4402 C   0  0  0  0  0  0  0  0  0  0  0  0
    8.0251    0.4495   21.9170 N   0  0  0  0  0  0  0  0  0  0  0  0
    7.3396   -0.5806   21.1481 C   0  0  0  0  0  0  0  0  0  0  0  0
    8.2640   -1.7339   20.7614 C   0  0  0  0  0  0  0  0  0  0  0  0
    8.8490   -2.5555   21.9108 C   0  0  0  0  0  0  0  0  0  0  0  0
    7.8241   -3.4919   22.5119 C   0  0  0  0  0  0  0  0  0  0  0  0
    7.5351   -4.8096   21.8502 C   0  0  0  0  0  0  0  0  0  0  0  0
    8.2541   -4.7634   23.1742 C   0  0  0  0  0  0  0  0  0  0  0  0
    7.7314   -5.0852   24.0703 H   0  0  0  0  0  0  0  0  0  0  0  0
    9.3181   -4.9756   23.2034 H   0  0  0  0  0  0  0  0  0  0  0  0
    8.0958   -5.0658   20.9538 H   0  0  0  0  0  0  0  0  0  0  0  0
    6.5106   -5.1667   21.8275 H   0  0  0  0  0  0  0  0  0  0  0  0
    6.9649   -2.9852   22.9524 H   0  0  0  0  0  0  0  0  0  0  0  0
    9.2778   -1.9131   22.6880 H   0  0  0  0  0  0  0  0  0  0  0  0
    9.7009   -3.1195   21.5184 H   0  0  0  0  0  0  0  0  0  0  0  0
    7.6337   -2.3855   20.1628 H   0  0  0  0  0  0  0  0  0  0  0  0
    9.0611   -1.3483   20.1250 H   0  0  0  0  0  0  0  0  0  0  0  0
    6.6369    0.0349   19.9408 C   0  0  0  0  0  0  0  0  0  0  0  0
    5.4139    0.6821   20.1440 C   0  0  0  0  0  0  0  0  0  0  0  0
    4.7830    1.3166   19.0741 C   0  0  0  0  0  0  0  0  0  0  0  0
    5.4016    1.2825   17.8203 C   0  0  0  0  0  0  0  0  0  0  0  0
    6.5644    0.6589   17.5927 N   0  0  0  0  0  0  0  0  0  0  0  0
    7.1674    0.0685   18.6391 C   0  0  0  0  0  0  0  0  0  0  0  0
    8.1248   -0.3959   18.3964 H   0  0  0  0  0  0  0  0  0  0  0  0
    4.9516    1.7912   16.9690 H   0  0  0  0  0  0  0  0  0  0  0  0
    3.8490    1.8507   19.2072 H   0  0  0  0  0  0  0  0  0  0  0  0
    4.9753    0.6915   21.1434 H   0  0  0  0  0  0  0  0  0  0  0  0
    6.5628   -0.9745   21.8274 H   0  0  0  0  0  0  0  0  0  0  0  0
    7.8131    0.5727   22.8895 H   0  0  0  0  0  0  0  0  0  0  0  0
    9.5313    2.3082   22.3387 C   0  0  0  0  0  0  0  0  0  0  0  0
    8.6923    2.8878   23.3297 C   0  0  0  0  0  0  0  0  0  0  0  0
    9.1446    3.9155   24.1316 C   0  0  0  0  0  0  0  0  0  0  0  0
   10.4538    4.4198   23.9878 C   0  0  0  0  0  0  0  0  0  0  0  0
   10.9916    5.5109   24.8359 C   0  0  0  0  0  0  0  0  0  0  0  0
   10.3468    6.0319   25.7395 O   0  0  0  0  0  0  0  0  0  0  0  0
   12.3635    5.9419   24.5462 C   0  0  0  0  0  0  0  0  0  0  0  0
   13.0818    5.3660   23.5634 C   0  0  0  0  0  0  0  0  0  0  0  0
   12.5502    4.3537   22.8124 N   0  0  0  0  0  0  0  0  0  0  0  0
   11.2719    3.8628   22.9889 C   0  0  0  0  0  0  0  0  0  0  0  0
   10.8164    2.8195   22.1654 C   0  0  0  0  0  0  0  0  0  0  0  0
   11.4669    2.4422   21.3768 H   0  0  0  0  0  0  0  0  0  0  0  0
   13.0737    3.9337   22.0635 H   0  0  0  0  0  0  0  0  0  0  0  0
   14.1022    5.6560   23.3078 H   0  0  0  0  0  0  0  0  0  0  0  0
   12.7530    6.7375   25.1642 H   0  0  0  0  0  0  0  0  0  0  0  0
    8.4910    4.3412   24.8886 H   0  0  0  0  0  0  0  0  0  0  0  0
    7.6645    2.5511   23.4425 H   0  0  0  0  0  0  0  0  0  0  0  0
  1  2  2  0
  2  3  1  0
  3  4  1  0
  4  5  1  0
  5  6  1  0
  6  7  1  0
  7  8  1  0
  8  9  1  0
  9 10  1  0
  9 11  1  0
  8 12  1  0
  8 13  1  0
  7 14  1  0
  6 15  1  0
  6 16  1  0
  5 17  1  0
  5 18  1  0
  4 19  1  0
 19 20  2  0
 20 21  1  0
 21 22  2  0
 22 23  1  0
 23 24  2  0
 24 25  1  0
 22 26  1  0
 21 27  1  0
 20 28  1  0
  4 29  1  0
  3 30  1  0
  2 31  1  0
 31 32  2  0
 32 33  1  0
 33 34  2  0
 34 35  1  0
 35 36  2  0
 35 37  1  0
 37 38  2  0
 38 39  1  0
 39 40  1  0
 40 41  2  0
 41 42  1  0
 39 43  1  0
 38 44  1  0
 37 45  1  0
 33 46  1  0
 32 47  1  0
  9  7  1  0
 24 19  1  0
 41 31  1  0
 40 34  1  0
M  END
>  <plip>  (1) 
-0.10714285714285714

>  <filename>  (1) 
[H][c]1[n][c]([H])[c]([C]([H])([N]([H])[C](=[O])[c]2[c]([H])[c]([H])[c]3[c](=[O])[c]([H])[c]([H])[n]([H])[c]3[c]2[H])[C]([H])([H])[C]([H])([H])[C]2([H])[C]([H])([H])[C]2([H])[H])[c]([H])[c]1[H]

$$$$
