
     RDKit          3D

 36 37  0  0  0  0  0  0  0  0999 V2000
    9.6264    2.6153   21.7870 C   0  0  0  0  0  0  0  0  0  0  0  0
   10.1905    1.2864   22.2851 C   0  0  0  0  0  0  0  0  0  0  0  0
    9.4900    0.1515   21.6718 N   0  0  0  0  0  0  0  0  0  0  0  0
    8.1649   -0.0705   21.9522 C   0  0  0  0  0  0  0  0  0  0  0  0
    7.6365    0.3524   22.9627 O   0  0  0  0  0  0  0  0  0  0  0  0
    7.4235   -0.8978   20.8930 C   0  0  0  0  0  0  0  0  0  0  0  0
    6.7363   -0.0877   19.7885 C   0  0  0  0  0  0  0  0  0  0  0  0
    5.5779    0.6555   20.0737 C   0  0  0  0  0  0  0  0  0  0  0  0
    4.9449    1.3553   19.0431 C   0  0  0  0  0  0  0  0  0  0  0  0
    5.4987    1.3106   17.7610 C   0  0  0  0  0  0  0  0  0  0  0  0
    6.6140    0.6278   17.4648 N   0  0  0  0  0  0  0  0  0  0  0  0
    7.2090   -0.0411   18.4621 C   0  0  0  0  0  0  0  0  0  0  0  0
    8.1261   -0.5652   18.1898 H   0  0  0  0  0  0  0  0  0  0  0  0
    5.0306    1.8468   16.9358 H   0  0  0  0  0  0  0  0  0  0  0  0
    4.0446    1.9378   19.2125 H   0  0  0  0  0  0  0  0  0  0  0  0
    5.1868    0.6925   21.0925 H   0  0  0  0  0  0  0  0  0  0  0  0
    8.1185   -1.6353   20.4745 H   0  0  0  0  0  0  0  0  0  0  0  0
    6.6780   -1.4663   21.4529 H   0  0  0  0  0  0  0  0  0  0  0  0
    9.7704   -0.1073   20.7414 H   0  0  0  0  0  0  0  0  0  0  0  0
   11.7188    1.2024   21.9805 C   0  0  0  0  0  0  0  0  0  0  0  0
   12.4034   -0.0129   22.5981 C   0  0  0  0  0  0  0  0  0  0  0  0
   12.0095   -0.9356   22.1637 H   0  0  0  0  0  0  0  0  0  0  0  0
   13.4801    0.0526   22.4070 H   0  0  0  0  0  0  0  0  0  0  0  0
   12.2417   -0.0529   23.6829 H   0  0  0  0  0  0  0  0  0  0  0  0
   12.4334    2.4197   22.3933 N   0  0  0  0  0  0  0  0  0  0  0  0
   12.8678    2.7839   23.6086 C   0  0  0  0  0  0  0  0  0  0  0  0
   13.3410    4.0141   23.5881 N   0  0  0  0  0  0  0  0  0  0  0  0
   13.1442    4.3706   22.2959 C   0  0  0  0  0  0  0  0  0  0  0  0
   12.5833    3.4524   21.5365 N   0  0  0  0  0  0  0  0  0  0  0  0
   13.4229    5.3434   21.9102 H   0  0  0  0  0  0  0  0  0  0  0  0
   12.8475    2.1190   24.4642 H   0  0  0  0  0  0  0  0  0  0  0  0
   11.8391    1.1952   20.8937 H   0  0  0  0  0  0  0  0  0  0  0  0
   10.0388    1.2175   23.3713 H   0  0  0  0  0  0  0  0  0  0  0  0
    9.9123    2.7378   20.7411 H   0  0  0  0  0  0  0  0  0  0  0  0
   10.0889    3.4281   22.3523 H   0  0  0  0  0  0  0  0  0  0  0  0
    8.5371    2.6715   21.8664 H   0  0  0  0  0  0  0  0  0  0  0  0
  1  2  1  0
  2  3  1  0
  3  4  1  0
  4  5  2  0
  4  6  1  0
  6  7  1  0
  7  8  2  0
  8  9  1  0
  9 10  2  0
 10 11  1  0
 11 12  2  0
 12 13  1  0
 10 14  1  0
  9 15  1  0
  8 16  1  0
  6 17  1  0
  6 18  1  0
  3 19  1  0
  2 20  1  0
 20 21  1  0
 21 22  1  0
 21 23  1  0
 21 24  1  0
 20 25  1  0
 25 26  1  0
 26 27  2  0
 27 28  1  0
 28 29  2  0
 28 30  1  0
 26 31  1  0
 20 32  1  0
  2 33  1  0
  1 34  1  0
  1 35  1  0
  1 36  1  0
 12  7  1  0
 29 25  1  0
M  END
>  <plip>  (1) 
-0.0967741935483871

>  <filename>  (1) 
[H][c]1[n][c]([H])[n]([C]([H])([C]([H])([H])[H])[C]([H])([N]([H])[C](=[O])[C]([H])([H])[c]2[c]([H])[n][c]([H])[c]([H])[c]2[H])[C]([H])([H])[H])[n]1

$$$$
