
     RDKit          3D

 32 34  0  0  0  0  0  0  0  0999 V2000
    6.6959   -1.4118   21.5794 H   0  0  0  0  0  0  0  0  0  0  0  0
    7.3181   -0.7144   21.0114 C   0  0  0  0  0  0  0  0  0  0  0  0
    8.5869   -0.4639   21.3808 C   0  0  0  0  0  0  0  0  0  0  0  0
    9.3530   -1.1006   22.4536 C   0  0  0  0  0  0  0  0  0  0  0  0
    8.8315   -2.3059   23.2386 C   0  0  2  0  0  0  0  0  0  0  0  0
    9.6773   -2.6157   23.8660 H   0  0  0  0  0  0  0  0  0  0  0  0
    8.3977   -3.4649   22.4407 N   0  0  0  0  0  0  0  0  0  0  0  0
    7.2193   -3.7235   22.8391 C   0  0  0  0  0  0  0  0  0  0  0  0
    6.4720   -4.6834   22.3006 N   0  0  0  0  0  0  0  0  0  0  0  0
    6.9917   -5.1883   21.6102 H   0  0  0  0  0  0  0  0  0  0  0  0
    5.5863   -4.8938   22.7025 H   0  0  0  0  0  0  0  0  0  0  0  0
    6.6465   -2.9936   23.8031 O   0  0  0  0  0  0  0  0  0  0  0  0
    7.6065   -1.9665   24.1370 C   0  0  0  0  0  0  0  0  0  0  0  0
    7.8288   -2.0457   25.2056 H   0  0  0  0  0  0  0  0  0  0  0  0
    7.1328   -0.9924   23.9457 H   0  0  0  0  0  0  0  0  0  0  0  0
   10.4776   -0.5430   22.7130 N   0  0  0  0  0  0  0  0  0  0  0  0
   10.6991    0.5650   21.7656 C   0  0  0  0  0  0  0  0  0  0  0  0
   10.8113    1.4939   22.3339 H   0  0  0  0  0  0  0  0  0  0  0  0
   11.6405    0.3881   21.2375 H   0  0  0  0  0  0  0  0  0  0  0  0
    9.4734    0.6171   20.8153 C   0  0  0  0  0  0  0  0  0  0  0  0
    8.9687    1.5855   20.8055 H   0  0  0  0  0  0  0  0  0  0  0  0
    9.6904    0.3733   19.7755 H   0  0  0  0  0  0  0  0  0  0  0  0
    6.6369   -0.0226   19.9026 C   0  0  0  0  0  0  0  0  0  0  0  0
    7.1591    0.0557   18.5949 C   0  0  0  0  0  0  0  0  0  0  0  0
    8.1049   -0.4305   18.3607 H   0  0  0  0  0  0  0  0  0  0  0  0
    6.5587    0.6838   17.5766 N   0  0  0  0  0  0  0  0  0  0  0  0
    5.3957    1.3007   17.8319 C   0  0  0  0  0  0  0  0  0  0  0  0
    4.9234    1.8014   16.9869 H   0  0  0  0  0  0  0  0  0  0  0  0
    4.7939    1.3060   19.0951 C   0  0  0  0  0  0  0  0  0  0  0  0
    3.8682    1.8481   19.2441 H   0  0  0  0  0  0  0  0  0  0  0  0
    5.4163    0.6249   20.1408 C   0  0  0  0  0  0  0  0  0  0  0  0
    4.9950    0.6184   21.1448 H   0  0  0  0  0  0  0  0  0  0  0  0
  1  2  1  0
  2  3  2  3
  3  4  1  0
  4  5  1  0
  5  6  1  1
  5  7  1  0
  7  8  2  0
  8  9  1  0
  9 10  1  0
  9 11  1  0
  8 12  1  0
 12 13  1  0
 13 14  1  0
 13 15  1  0
  4 16  2  0
 16 17  1  0
 17 18  1  0
 17 19  1  0
 17 20  1  0
 20 21  1  0
 20 22  1  0
  2 23  1  0
 23 24  2  0
 24 25  1  0
 24 26  1  0
 26 27  2  0
 27 28  1  0
 27 29  1  0
 29 30  1  0
 29 31  2  0
 31 32  1  0
 20  3  1  0
 31 23  1  0
 13  5  1  0
M  END
>  <plip>  (1) 
-0.0

>  <filename>  (1) 
[H][C](=[C]1[C]([C@]2([H])[N]=[C]([N]([H])[H])[O][C]2([H])[H])=[N][C]([H])([H])[C]1([H])[H])[c]1[c]([H])[n][c]([H])[c]([H])[c]1[H]

$$$$
