
     RDKit          3D

 22 23  0  0  0  0  0  0  0  0999 V2000
    4.9340    1.8580   17.0003 H   0  0  0  0  0  0  0  0  0  0  0  0
    5.4127    1.2970   17.7973 C   0  0  0  0  0  0  0  0  0  0  0  0
    6.5589    0.6472   17.5308 N   0  0  0  0  0  0  0  0  0  0  0  0
    7.1514   -0.0130   18.5418 C   0  0  0  0  0  0  0  0  0  0  0  0
    8.0935   -0.5100   18.3359 H   0  0  0  0  0  0  0  0  0  0  0  0
    6.6309   -0.0744   19.8492 C   0  0  0  0  0  0  0  0  0  0  0  0
    7.3773   -0.8030   20.9495 C   0  0  0  0  0  0  0  0  0  0  0  0
    8.3033   -1.2379   20.5560 H   0  0  0  0  0  0  0  0  0  0  0  0
    7.6516   -0.0730   21.7230 H   0  0  0  0  0  0  0  0  0  0  0  0
    6.5265   -1.9101   21.5811 C   0  0  1  0  0  0  0  0  0  0  0  0
    5.6530   -1.4212   21.9952 H   0  0  0  0  0  0  0  0  0  0  0  0
    5.8940   -3.2143   20.2070 Br  0  0  0  0  0  0  0  0  0  0  0  0
    7.2442   -2.6373   22.7040 C   0  0  0  0  0  0  0  0  0  0  0  0
    8.5617   -3.0737   22.6636 N   0  0  0  0  0  0  0  0  0  0  0  0
    8.8187   -3.6440   23.7793 N   0  0  0  0  0  0  0  0  0  0  0  0
    7.6754   -3.5610   24.4962 N   0  0  0  0  0  0  0  0  0  0  0  0
    7.5973   -3.9238   25.4488 H   0  0  0  0  0  0  0  0  0  0  0  0
    6.6693   -2.9352   23.8407 N   0  0  0  0  0  0  0  0  0  0  0  0
    5.4269    0.5872   20.1129 C   0  0  0  0  0  0  0  0  0  0  0  0
    4.9846    0.5755   21.1088 H   0  0  0  0  0  0  0  0  0  0  0  0
    4.8209    1.2842   19.0653 C   0  0  0  0  0  0  0  0  0  0  0  0
    3.9036    1.8406   19.2231 H   0  0  0  0  0  0  0  0  0  0  0  0
  1  2  1  0
  2  3  2  0
  3  4  1  0
  4  5  1  0
  4  6  2  0
  6  7  1  0
  7  8  1  0
  7  9  1  0
  7 10  1  0
 10 11  1  1
 10 12  1  0
 10 13  1  0
 13 14  1  0
 14 15  2  0
 15 16  1  0
 16 17  1  0
 16 18  1  0
  6 19  1  0
 19 20  1  0
 19 21  2  0
 21 22  1  0
 21  2  1  0
 18 13  2  0
M  END
>  <plip>  (1) 
-0.034482758620689655

>  <filename>  (1) 
[H][c]1[n][c]([H])[c]([C]([H])([H])[C@@]([H])([Br])[c]2[n][n][n]([H])[n]2)[c]([H])[c]1[H]

$$$$
