
     RDKit          3D

 28 30  0  0  0  0  0  0  0  0999 V2000
    5.0803    1.7192   16.2805 H   0  0  0  0  0  0  0  0  0  0  0  0
    5.4951    1.4074   17.2372 C   0  0  0  0  0  0  0  0  0  0  0  0
    6.6838    0.7870   17.1975 N   0  0  0  0  0  0  0  0  0  0  0  0
    7.2178    0.3807   18.3592 C   0  0  0  0  0  0  0  0  0  0  0  0
    8.1821   -0.1184   18.3173 H   0  0  0  0  0  0  0  0  0  0  0  0
    6.5676    0.5509   19.5958 C   0  0  0  0  0  0  0  0  0  0  0  0
    7.2254    0.0582   20.7519 O   0  0  0  0  0  0  0  0  0  0  0  0
    6.2802   -0.5912   21.9234 S   0  0  0  0  0  0  0  0  0  0  0  0
    5.7244    0.5014   22.6909 O   0  0  0  0  0  0  0  0  0  0  0  0
    5.4446   -1.6073   21.3200 O   0  0  0  0  0  0  0  0  0  0  0  0
    7.4881   -1.4070   22.8941 C   0  0  0  0  0  0  0  0  0  0  0  0
    6.9286   -2.0076   24.4250 S   0  0  0  0  0  0  0  0  0  0  0  0
    8.4338   -2.8454   24.6870 C   0  0  0  0  0  0  0  0  0  0  0  0
    8.8029   -3.6760   25.7675 C   0  0  0  0  0  0  0  0  0  0  0  0
    8.1584   -3.8206   26.6343 H   0  0  0  0  0  0  0  0  0  0  0  0
   10.0534   -4.2864   25.7292 C   0  0  0  0  0  0  0  0  0  0  0  0
   10.3521   -4.9669   26.5230 H   0  0  0  0  0  0  0  0  0  0  0  0
   10.9572   -4.0263   24.6741 C   0  0  0  0  0  0  0  0  0  0  0  0
   11.9349   -4.4906   24.6568 H   0  0  0  0  0  0  0  0  0  0  0  0
   10.6242   -3.1578   23.6516 C   0  0  0  0  0  0  0  0  0  0  0  0
   11.3534   -2.8835   22.8918 H   0  0  0  0  0  0  0  0  0  0  0  0
    9.3345   -2.5925   23.6212 C   0  0  0  0  0  0  0  0  0  0  0  0
    8.7656   -1.7532   22.6046 C   0  0  0  0  0  0  0  0  0  0  0  0
    9.3159   -1.5088   21.6991 H   0  0  0  0  0  0  0  0  0  0  0  0
    5.3367    1.2062   19.6431 C   0  0  0  0  0  0  0  0  0  0  0  0
    4.8252    1.3724   20.5892 H   0  0  0  0  0  0  0  0  0  0  0  0
    4.7957    1.6444   18.4230 C   0  0  0  0  0  0  0  0  0  0  0  0
    3.8453    2.1645   18.3927 H   0  0  0  0  0  0  0  0  0  0  0  0
  1  2  1  0
  2  3  2  0
  3  4  1  0
  4  5  1  0
  4  6  2  0
  6  7  1  0
  7  8  1  0
  8  9  2  0
  8 10  2  0
  8 11  1  0
 11 12  1  0
 12 13  1  0
 13 14  2  0
 14 15  1  0
 14 16  1  0
 16 17  1  0
 16 18  2  0
 18 19  1  0
 18 20  1  0
 20 21  1  0
 20 22  2  0
 22 23  1  0
 23 24  1  0
  6 25  1  0
 25 26  1  0
 25 27  2  0
 27 28  1  0
 27  2  1  0
 23 11  2  0
 22 13  1  0
M  END
>  <plip>  (1) 
-0.07142857142857142

>  <filename>  (1) 
[H][c]1[n][c]([H])[c]([O][S](=[O])(=[O])[c]2[s][c]3[c]([H])[c]([H])[c]([H])[c]([H])[c]3[c]2[H])[c]([H])[c]1[H]

$$$$
