
     RDKit          3D

 47 49  0  0  0  0  0  0  0  0999 V2000
    7.0691    5.4740   23.4838 O   0  0  0  0  0  0  0  0  0  0  0  0
    6.8962    4.1333   22.9485 S   0  0  0  0  0  0  0  0  0  0  0  0
    7.0726    3.8684   21.5311 O   0  0  0  0  0  0  0  0  0  0  0  0
    8.0035    3.0534   23.8580 C   0  0  0  0  0  0  0  0  0  0  0  0
    9.4840    3.2929   23.4646 C   0  0  0  0  0  0  0  0  0  0  0  0
    9.6824    2.3732   22.2398 C   0  0  0  0  0  0  0  0  0  0  0  0
    8.3581    1.6764   22.0438 N   0  0  0  0  0  4  0  0  0  0  0  0
    8.5753    0.3960   21.3199 C   0  0  0  0  0  0  0  0  0  0  0  0
    7.3387   -0.4647   20.9819 C   0  0  0  0  0  0  0  0  0  0  0  0
    7.8205   -1.7390   20.5711 O   0  0  0  0  0  0  0  0  0  0  0  0
    7.9193   -2.2998   21.3476 H   0  0  0  0  0  0  0  0  0  0  0  0
    6.5275    0.0834   19.8370 C   0  0  0  0  0  0  0  0  0  0  0  0
    5.3408    0.7985   20.0203 C   0  0  0  0  0  0  0  0  0  0  0  0
    4.7589    1.4276   18.9149 C   0  0  0  0  0  0  0  0  0  0  0  0
    5.3725    1.2912   17.6679 C   0  0  0  0  0  0  0  0  0  0  0  0
    6.4641    0.5408   17.4571 N   0  0  0  0  0  0  0  0  0  0  0  0
    7.0036   -0.0654   18.5221 C   0  0  0  0  0  0  0  0  0  0  0  0
    7.8562   -0.7127   18.3279 H   0  0  0  0  0  0  0  0  0  0  0  0
    4.9619    1.7900   16.7908 H   0  0  0  0  0  0  0  0  0  0  0  0
    3.8614    2.0264   19.0081 H   0  0  0  0  0  0  0  0  0  0  0  0
    4.8630    0.8418   21.0019 H   0  0  0  0  0  0  0  0  0  0  0  0
    6.7081   -0.5438   21.8802 H   0  0  0  0  0  0  0  0  0  0  0  0
    9.0977    0.5724   20.3700 H   0  0  0  0  0  0  0  0  0  0  0  0
    9.2417   -0.2520   21.9096 H   0  0  0  0  0  0  0  0  0  0  0  0
    7.7625    1.6158   23.4113 C   0  0  0  0  0  0  0  0  0  0  0  0
    6.7149    1.2935   23.3999 H   0  0  0  0  0  0  0  0  0  0  0  0
    8.3191    0.9140   24.0562 H   0  0  0  0  0  0  0  0  0  0  0  0
    7.7394    2.3370   21.4998 H   0  0  0  0  0  0  0  0  0  0  0  0
    9.9606    2.9057   21.3243 H   0  0  0  0  0  0  0  0  0  0  0  0
   10.4470    1.6168   22.4533 H   0  0  0  0  0  0  0  0  0  0  0  0
   10.1406    2.9663   24.2834 H   0  0  0  0  0  0  0  0  0  0  0  0
    9.7202    4.3387   23.2445 H   0  0  0  0  0  0  0  0  0  0  0  0
    7.7810    3.2805   24.8976 H   0  0  0  0  0  0  0  0  0  0  0  0
    5.3194    3.5896   23.2628 N   0  0  0  0  0  0  0  0  0  0  0  0
    4.8757    3.5135   24.6722 C   0  0  0  0  0  0  0  0  0  0  0  0
    4.4308    4.8657   25.2618 C   0  0  0  0  0  0  0  0  0  0  0  0
    3.4357    5.4849   24.4457 O   0  0  0  0  0  0  0  0  0  0  0  0
    3.8921    5.6752   23.1050 C   0  0  0  0  0  0  0  0  0  0  0  0
    4.3108    4.3414   22.4473 C   0  0  0  0  0  0  0  0  0  0  0  0
    4.6769    4.5068   21.4270 H   0  0  0  0  0  0  0  0  0  0  0  0
    3.4276    3.6948   22.3579 H   0  0  0  0  0  0  0  0  0  0  0  0
    3.0619    6.1277   22.5541 H   0  0  0  0  0  0  0  0  0  0  0  0
    4.7535    6.3573   23.0888 H   0  0  0  0  0  0  0  0  0  0  0  0
    5.3035    5.5248   25.3708 H   0  0  0  0  0  0  0  0  0  0  0  0
    3.9725    4.7017   26.2424 H   0  0  0  0  0  0  0  0  0  0  0  0
    5.6328    3.0339   25.3014 H   0  0  0  0  0  0  0  0  0  0  0  0
    4.0121    2.8357   24.6783 H   0  0  0  0  0  0  0  0  0  0  0  0
  1  2  2  0
  2  3  2  0
  2  4  1  0
  4  5  1  0
  5  6  1  0
  6  7  1  0
  7  8  1  0
  8  9  1  0
  9 10  1  0
 10 11  1  0
  9 12  1  0
 12 13  2  0
 13 14  1  0
 14 15  2  0
 15 16  1  0
 16 17  2  0
 17 18  1  0
 15 19  1  0
 14 20  1  0
 13 21  1  0
  9 22  1  0
  8 23  1  0
  8 24  1  0
  7 25  1  0
 25 26  1  0
 25 27  1  0
  7 28  1  0
  6 29  1  0
  6 30  1  0
  5 31  1  0
  5 32  1  0
  4 33  1  0
  2 34  1  0
 34 35  1  0
 35 36  1  0
 36 37  1  0
 37 38  1  0
 38 39  1  0
 39 40  1  0
 39 41  1  0
 38 42  1  0
 38 43  1  0
 36 44  1  0
 36 45  1  0
 35 46  1  0
 35 47  1  0
 25  4  1  0
 39 34  1  0
 17 12  1  0
M  CHG  1   7   1
M  END
>  <plip>  (1) 
-0.21428571428571427

>  <filename>  (1) 
[H][O][C]([H])([c]1[c]([H])[n][c]([H])[c]([H])[c]1[H])[C]([H])([H])[N+]1([H])[C]([H])([H])[C]([H])([H])[C]([H])([S](=[O])(=[O])[N]2[C]([H])([H])[C]([H])([H])[O][C]([H])([H])[C]2([H])[H])[C]1([H])[H]

$$$$
