
     RDKit          3D

 41 44  0  0  0  0  0  0  0  0999 V2000
    5.3836    0.6019   24.6017 O   0  0  0  0  0  0  0  0  0  0  0  0
    6.3047   -0.1805   24.6104 C   0  0  0  0  0  0  0  0  0  0  0  0
    6.2982   -1.6765   24.6454 C   0  0  0  0  0  0  0  0  0  0  0  0
    5.2437   -2.5942   24.6811 C   0  0  0  0  0  0  0  0  0  0  0  0
    5.5584   -3.9545   24.6357 C   0  0  0  0  0  0  0  0  0  0  0  0
    6.9000   -4.3847   24.5734 C   0  0  0  0  0  0  0  0  0  0  0  0
    7.9513   -3.4624   24.5468 C   0  0  0  0  0  0  0  0  0  0  0  0
    7.6234   -2.1030   24.5790 C   0  0  0  0  0  0  0  0  0  0  0  0
    8.4905   -0.8870   24.5214 C   0  0  0  0  0  0  0  0  0  0  0  0
    9.6941   -0.8112   24.4608 O   0  0  0  0  0  0  0  0  0  0  0  0
    7.6363    0.2151   24.5523 N   0  0  0  0  0  0  0  0  0  0  0  0
    8.0386    1.5764   24.2223 C   0  0  0  0  0  0  0  0  0  0  0  0
    7.9425    1.8385   22.7161 C   0  0  0  0  0  0  0  0  0  0  0  0
    8.9412    1.0382   21.9537 C   0  0  0  0  0  0  0  0  0  0  0  0
   10.2170    1.3480   21.9386 N   0  0  0  0  0  0  0  0  0  0  0  0
   10.8240    0.3612   21.2150 C   0  0  0  0  0  0  0  0  0  0  0  0
    9.8979   -0.5381   20.7674 C   0  0  0  0  0  0  0  0  0  0  0  0
    8.6894   -0.1093   21.2608 N   0  0  0  0  0  0  0  0  0  0  0  0
    7.3947   -0.7079   20.9840 C   0  0  0  0  0  0  0  0  0  0  0  0
    6.6380    0.0128   19.8980 C   0  0  0  0  0  0  0  0  0  0  0  0
    5.4214    0.6521   20.1492 C   0  0  0  0  0  0  0  0  0  0  0  0
    4.7932    1.3155   19.0935 C   0  0  0  0  0  0  0  0  0  0  0  0
    5.3930    1.2991   17.8311 C   0  0  0  0  0  0  0  0  0  0  0  0
    6.5556    0.6841   17.5755 N   0  0  0  0  0  0  0  0  0  0  0  0
    7.1588    0.0697   18.5960 C   0  0  0  0  0  0  0  0  0  0  0  0
    8.1075   -0.4152   18.3704 H   0  0  0  0  0  0  0  0  0  0  0  0
    4.9178    1.7912   16.9863 H   0  0  0  0  0  0  0  0  0  0  0  0
    3.8652    1.8508   19.2454 H   0  0  0  0  0  0  0  0  0  0  0  0
    4.9878    0.6388   21.1566 H   0  0  0  0  0  0  0  0  0  0  0  0
    7.5932   -1.7506   20.7067 H   0  0  0  0  0  0  0  0  0  0  0  0
    6.8169   -0.7477   21.9147 H   0  0  0  0  0  0  0  0  0  0  0  0
    9.9524   -1.4282   20.1618 H   0  0  0  0  0  0  0  0  0  0  0  0
   11.8897    0.3611   21.0492 H   0  0  0  0  0  0  0  0  0  0  0  0
    8.1618    2.8934   22.5194 H   0  0  0  0  0  0  0  0  0  0  0  0
    6.9253    1.6528   22.3675 H   0  0  0  0  0  0  0  0  0  0  0  0
    7.3974    2.2746   24.7693 H   0  0  0  0  0  0  0  0  0  0  0  0
    9.0633    1.7316   24.5726 H   0  0  0  0  0  0  0  0  0  0  0  0
    8.9883   -3.7923   24.5004 H   0  0  0  0  0  0  0  0  0  0  0  0
    7.1172   -5.4503   24.5516 H   0  0  0  0  0  0  0  0  0  0  0  0
    4.7563   -4.6900   24.6501 H   0  0  0  0  0  0  0  0  0  0  0  0
    4.2082   -2.2631   24.7267 H   0  0  0  0  0  0  0  0  0  0  0  0
  1  2  2  0
  2  3  1  0
  3  4  2  0
  4  5  1  0
  5  6  2  0
  6  7  1  0
  7  8  2  0
  8  9  1  0
  9 10  2  0
  9 11  1  0
 11 12  1  0
 12 13  1  0
 13 14  1  0
 14 15  2  0
 15 16  1  0
 16 17  2  0
 17 18  1  0
 18 19  1  0
 19 20  1  0
 20 21  2  0
 21 22  1  0
 22 23  2  0
 23 24  1  0
 24 25  2  0
 25 26  1  0
 23 27  1  0
 22 28  1  0
 21 29  1  0
 19 30  1  0
 19 31  1  0
 17 32  1  0
 16 33  1  0
 13 34  1  0
 13 35  1  0
 12 36  1  0
 12 37  1  0
  7 38  1  0
  6 39  1  0
  5 40  1  0
  4 41  1  0
 11  2  1  0
 18 14  1  0
 25 20  1  0
  8  3  1  0
M  END
>  <plip>  (1) 
-0.07142857142857142

>  <filename>  (1) 
[H][c]1[n][c]([H])[c]([C]([H])([H])[n]2[c]([C]([H])([H])[C]([H])([H])[N]3[C](=[O])[c]4[c]([H])[c]([H])[c]([H])[c]([H])[c]4[C]3=[O])[n][c]([H])[c]2[H])[c]([H])[c]1[H]

$$$$
