
     RDKit          3D

 44 44  0  0  0  0  0  0  0  0999 V2000
    8.3205   -4.9645   24.4909 C   0  0  0  0  0  0  0  0  0  0  0  0
    7.4315   -4.0505   25.3437 C   0  0  0  0  0  0  0  0  0  0  0  0
    8.1932   -2.8791   25.9919 C   0  0  0  0  0  0  0  0  0  0  0  0
    8.8758   -1.9028   25.0078 C   0  0  0  0  0  0  0  0  0  0  0  0
    7.9503   -1.2798   23.9668 C   0  0  0  0  0  0  0  0  0  0  0  0
    6.7621   -0.5123   24.5602 C   0  0  0  0  0  0  0  0  0  0  0  0
    7.1160    0.7104   25.4154 C   0  0  0  0  0  0  0  0  0  0  0  0
    6.2154    1.1855   25.8225 H   0  0  0  0  0  0  0  0  0  0  0  0
    7.7569    0.4386   26.2630 H   0  0  0  0  0  0  0  0  0  0  0  0
    7.6573    1.4663   24.8330 H   0  0  0  0  0  0  0  0  0  0  0  0
    6.1784   -1.2257   25.1534 H   0  0  0  0  0  0  0  0  0  0  0  0
    6.1192   -0.2093   23.7277 H   0  0  0  0  0  0  0  0  0  0  0  0
    8.7695   -0.4135   23.0751 N   0  0  0  0  0  4  0  0  0  0  0  0
    8.0883    0.3033   21.9605 C   0  0  0  0  0  0  0  0  0  0  0  0
    9.1070    1.1765   21.2526 C   0  0  0  0  0  0  0  0  0  0  0  0
    9.6287    1.8450   21.9461 H   0  0  0  0  0  0  0  0  0  0  0  0
    9.8477    0.5689   20.7162 H   0  0  0  0  0  0  0  0  0  0  0  0
    8.5994    1.8033   20.5126 H   0  0  0  0  0  0  0  0  0  0  0  0
    7.3917   -0.6978   21.0100 C   0  0  0  0  0  0  0  0  0  0  0  0
    6.6372   -0.0217   19.8842 C   0  0  0  0  0  0  0  0  0  0  0  0
    5.4293    0.6450   20.1328 C   0  0  0  0  0  0  0  0  0  0  0  0
    4.7976    1.3156   19.0867 C   0  0  0  0  0  0  0  0  0  0  0  0
    5.3880    1.3053   17.8205 C   0  0  0  0  0  0  0  0  0  0  0  0
    6.5486    0.6857   17.5587 N   0  0  0  0  0  0  0  0  0  0  0  0
    7.1462    0.0516   18.5758 C   0  0  0  0  0  0  0  0  0  0  0  0
    8.1017   -0.4214   18.3360 H   0  0  0  0  0  0  0  0  0  0  0  0
    4.9153    1.8083   16.9767 H   0  0  0  0  0  0  0  0  0  0  0  0
    3.8695    1.8523   19.2385 H   0  0  0  0  0  0  0  0  0  0  0  0
    5.0071    0.6391   21.1443 H   0  0  0  0  0  0  0  0  0  0  0  0
    8.1515   -1.3863   20.6153 H   0  0  0  0  0  0  0  0  0  0  0  0
    6.7047   -1.2979   21.6187 H   0  0  0  0  0  0  0  0  0  0  0  0
    7.3010    0.9538   22.3680 H   0  0  0  0  0  0  0  0  0  0  0  0
    9.2684    0.2742   23.6842 H   0  0  0  0  0  0  0  0  0  0  0  0
    9.5257   -0.9864   22.6339 H   0  0  0  0  0  0  0  0  0  0  0  0
    7.5320   -2.1038   23.3711 H   0  0  0  0  0  0  0  0  0  0  0  0
    9.6768   -2.4198   24.4640 H   0  0  0  0  0  0  0  0  0  0  0  0
    9.3610   -1.0947   25.5701 H   0  0  0  0  0  0  0  0  0  0  0  0
    7.5039   -2.3211   26.6440 H   0  0  0  0  0  0  0  0  0  0  0  0
    8.9568   -3.2931   26.6651 H   0  0  0  0  0  0  0  0  0  0  0  0
    6.9593   -4.6427   26.1405 H   0  0  0  0  0  0  0  0  0  0  0  0
    6.5948   -3.6697   24.7393 H   0  0  0  0  0  0  0  0  0  0  0  0
    7.7770   -5.8500   24.1435 H   0  0  0  0  0  0  0  0  0  0  0  0
    9.1894   -5.3091   25.0666 H   0  0  0  0  0  0  0  0  0  0  0  0
    8.7087   -4.4476   23.6048 H   0  0  0  0  0  0  0  0  0  0  0  0
  1  2  1  0
  2  3  1  0
  3  4  1  0
  4  5  1  0
  5  6  1  0
  6  7  1  0
  7  8  1  0
  7  9  1  0
  7 10  1  0
  6 11  1  0
  6 12  1  0
  5 13  1  0
 13 14  1  0
 14 15  1  0
 15 16  1  0
 15 17  1  0
 15 18  1  0
 14 19  1  0
 19 20  1  0
 20 21  2  0
 21 22  1  0
 22 23  2  0
 23 24  1  0
 24 25  2  0
 25 26  1  0
 23 27  1  0
 22 28  1  0
 21 29  1  0
 19 30  1  0
 19 31  1  0
 14 32  1  0
 13 33  1  0
 13 34  1  0
  5 35  1  0
  4 36  1  0
  4 37  1  0
  3 38  1  0
  3 39  1  0
  2 40  1  0
  2 41  1  0
  1 42  1  0
  1 43  1  0
  1 44  1  0
 25 20  1  0
M  CHG  1  13   1
M  END
>  <plip>  (1) 
-0.07142857142857142

>  <filename>  (1) 
[H][c]1[n][c]([H])[c]([C]([H])([H])[C]([H])([C]([H])([H])[H])[N+]([H])([H])[C]([H])([C]([H])([H])[C]([H])([H])[H])[C]([H])([H])[C]([H])([H])[C]([H])([H])[C]([H])([H])[H])[c]([H])[c]1[H]

$$$$
