
     RDKit          3D

 31 33  0  0  0  0  0  0  0  0999 V2000
    5.4551   -0.0670   26.4503 H   0  0  0  0  0  0  0  0  0  0  0  0
    5.4229    0.5729   25.5659 C   0  0  0  0  0  0  0  0  0  0  0  0
    6.4613    0.4843   24.7435 N   0  0  0  0  0  0  0  0  0  0  0  0
    6.4074    1.2276   23.6393 C   0  0  0  0  0  0  0  0  0  0  0  0
    7.5748    1.1745   22.7155 C   0  0  0  0  0  0  0  0  0  0  0  0
    7.3845    1.8800   21.9055 H   0  0  0  0  0  0  0  0  0  0  0  0
    8.4737    1.4415   23.2754 H   0  0  0  0  0  0  0  0  0  0  0  0
    7.7815   -0.1923   22.1954 C   0  0  0  0  0  0  0  0  0  0  0  0
    8.4276   -1.1307   22.8326 N   0  0  0  0  0  0  0  0  0  0  0  0
    8.4040   -2.2660   22.0562 N   0  0  0  0  0  0  0  0  0  0  0  0
    7.7482   -1.9633   20.9762 C   0  0  0  0  0  0  0  0  0  0  0  0
    7.4333   -2.6281   20.1957 H   0  0  0  0  0  0  0  0  0  0  0  0
    7.3434   -0.6535   20.9709 N   0  0  0  0  0  0  0  0  0  0  0  0
    6.6569    0.0216   19.9070 C   0  0  0  0  0  0  0  0  0  0  0  0
    7.1680    0.0589   18.5905 C   0  0  0  0  0  0  0  0  0  0  0  0
    8.1229   -0.4112   18.3553 H   0  0  0  0  0  0  0  0  0  0  0  0
    6.5515    0.6756   17.5763 N   0  0  0  0  0  0  0  0  0  0  0  0
    5.3882    1.2976   17.8262 C   0  0  0  0  0  0  0  0  0  0  0  0
    4.9225    1.8040   16.9820 H   0  0  0  0  0  0  0  0  0  0  0  0
    4.7961    1.3119   19.0909 C   0  0  0  0  0  0  0  0  0  0  0  0
    3.8686    1.8473   19.2501 H   0  0  0  0  0  0  0  0  0  0  0  0
    5.4376    0.6567   20.1473 C   0  0  0  0  0  0  0  0  0  0  0  0
    5.0229    0.6571   21.1541 H   0  0  0  0  0  0  0  0  0  0  0  0
    5.4186    2.0549   23.3072 N   0  0  0  0  0  0  0  0  0  0  0  0
    4.3888    2.1913   24.1572 C   0  0  0  0  0  0  0  0  0  0  0  0
    3.2274    3.1821   23.8293 C   0  0  0  0  0  0  0  0  0  0  0  0
    3.3577    3.8185   22.6630 F   0  0  0  0  0  0  0  0  0  0  0  0
    3.1128    4.1187   24.7956 F   0  0  0  0  0  0  0  0  0  0  0  0
    2.0480    2.5201   23.7962 F   0  0  0  0  0  0  0  0  0  0  0  0
    4.3453    1.4252   25.3248 C   0  0  0  0  0  0  0  0  0  0  0  0
    3.5222    1.4763   26.0171 H   0  0  0  0  0  0  0  0  0  0  0  0
  1  2  1  0
  2  3  2  0
  3  4  1  0
  4  5  1  0
  5  6  1  0
  5  7  1  0
  5  8  1  0
  8  9  2  0
  9 10  1  0
 10 11  2  0
 11 12  1  0
 11 13  1  0
 13 14  1  0
 14 15  2  0
 15 16  1  0
 15 17  1  0
 17 18  2  0
 18 19  1  0
 18 20  1  0
 20 21  1  0
 20 22  2  0
 22 23  1  0
  4 24  2  0
 24 25  1  0
 25 26  1  0
 26 27  1  0
 26 28  1  0
 26 29  1  0
 25 30  2  0
 30 31  1  0
 30  2  1  0
 13  8  1  0
 22 14  1  0
M  END
>  <plip>  (1) 
-0.034482758620689655

>  <filename>  (1) 
[H][c]1[n][c]([C]([H])([H])[c]2[n][n][c]([H])[n]2-[c]2[c]([H])[n][c]([H])[c]([H])[c]2[H])[n][c]([C]([F])([F])[F])[c]1[H]

$$$$
