
     RDKit          3D

 38 41  0  0  0  0  0  0  0  0999 V2000
    4.9630    1.8703   16.8421 H   0  0  0  0  0  0  0  0  0  0  0  0
    5.4105    1.4236   17.7257 C   0  0  0  0  0  0  0  0  0  0  0  0
    6.6115    0.8488   17.5587 N   0  0  0  0  0  0  0  0  0  0  0  0
    7.1793    0.2966   18.6353 C   0  0  0  0  0  0  0  0  0  0  0  0
    8.1630   -0.1370   18.4527 H   0  0  0  0  0  0  0  0  0  0  0  0
    6.5893    0.2258   19.9067 C   0  0  0  0  0  0  0  0  0  0  0  0
    7.3195   -0.5381   20.9908 C   0  0  0  0  0  0  0  0  0  0  0  0
    8.5386    0.1310   21.3739 N   0  0  0  0  0  0  0  0  0  0  0  0
    9.3936   -0.3192   21.0996 H   0  0  0  0  0  0  0  0  0  0  0  0
    8.7207    1.0233   22.4027 C   0  0  0  0  0  0  0  0  0  0  0  0
    7.7453    1.9352   22.7460 C   0  0  0  0  0  0  0  0  0  0  0  0
    6.8544    1.9900   22.1244 H   0  0  0  0  0  0  0  0  0  0  0  0
    7.9164    2.7960   23.8628 C   0  0  0  0  0  0  0  0  0  0  0  0
    7.1083    3.4678   24.1480 H   0  0  0  0  0  0  0  0  0  0  0  0
    9.0911    2.7644   24.5780 C   0  0  0  0  0  0  0  0  0  0  0  0
    9.2721    3.3671   25.4617 H   0  0  0  0  0  0  0  0  0  0  0  0
   10.1563    1.9085   24.1760 C   0  0  0  0  0  0  0  0  0  0  0  0
   11.3325    2.0246   24.8767 N   0  0  0  0  0  0  0  0  0  0  0  0
   12.3327    1.2623   24.5148 C   0  0  0  0  0  0  0  0  0  0  0  0
   13.2696    1.3860   25.0581 H   0  0  0  0  0  0  0  0  0  0  0  0
   12.2695    0.3004   23.4709 C   0  0  0  0  0  0  0  0  0  0  0  0
   13.1461   -0.2936   23.2439 H   0  0  0  0  0  0  0  0  0  0  0  0
   11.0959    0.1498   22.7727 C   0  0  0  0  0  0  0  0  0  0  0  0
   11.0083   -0.6135   21.9941 H   0  0  0  0  0  0  0  0  0  0  0  0
    9.9864    0.9988   23.0889 C   0  0  0  0  0  0  0  0  0  0  0  0
    7.6773   -2.0123   20.6638 C   0  0  0  0  0  0  0  0  0  0  0  0
    8.7145   -2.1798   20.3666 H   0  0  0  0  0  0  0  0  0  0  0  0
    6.9846   -2.3927   19.9135 H   0  0  0  0  0  0  0  0  0  0  0  0
    7.2624   -2.4290   22.0864 C   0  0  0  0  0  0  0  0  0  0  0  0
    6.7061   -3.3635   22.1831 H   0  0  0  0  0  0  0  0  0  0  0  0
    8.1141   -2.4481   22.7785 H   0  0  0  0  0  0  0  0  0  0  0  0
    6.4594   -1.1153   22.1538 C   0  0  0  0  0  0  0  0  0  0  0  0
    6.4108   -0.5637   23.1003 H   0  0  0  0  0  0  0  0  0  0  0  0
    5.4676   -1.2850   21.7256 H   0  0  0  0  0  0  0  0  0  0  0  0
    5.3462    0.8645   20.0661 C   0  0  0  0  0  0  0  0  0  0  0  0
    4.8527    0.8959   21.0416 H   0  0  0  0  0  0  0  0  0  0  0  0
    4.7487    1.4610   18.9562 C   0  0  0  0  0  0  0  0  0  0  0  0
    3.7875    1.9569   19.0293 H   0  0  0  0  0  0  0  0  0  0  0  0
  1  2  1  0
  2  3  2  0
  3  4  1  0
  4  5  1  0
  4  6  2  0
  6  7  1  0
  7  8  1  0
  8  9  1  0
  8 10  1  0
 10 11  2  0
 11 12  1  0
 11 13  1  0
 13 14  1  0
 13 15  2  0
 15 16  1  0
 15 17  1  0
 17 18  2  0
 18 19  1  0
 19 20  1  0
 19 21  2  0
 21 22  1  0
 21 23  1  0
 23 24  1  0
 23 25  2  0
  7 26  1  0
 26 27  1  0
 26 28  1  0
 26 29  1  0
 29 30  1  0
 29 31  1  0
 29 32  1  0
 32 33  1  0
 32 34  1  0
  6 35  1  0
 35 36  1  0
 35 37  2  0
 37 38  1  0
 37  2  1  0
 32  7  1  0
 25 10  1  0
 25 17  1  0
M  END
>  <plip>  (1) 
-0.10714285714285714

>  <filename>  (1) 
[H][c]1[n][c]([H])[c]([C]2([N]([H])[c]3[c]([H])[c]([H])[c]([H])[c]4[n][c]([H])[c]([H])[c]([H])[c]34)[C]([H])([H])[C]([H])([H])[C]2([H])[H])[c]([H])[c]1[H]

$$$$
