
     RDKit          3D

 46 50  0  0  0  0  0  0  0  0999 V2000
    9.4046    0.7157   20.3890 O   0  0  0  0  0  0  0  0  0  0  0  0
    8.9254    1.0867   21.4570 C   0  0  0  0  0  0  0  0  0  0  0  0
    7.6935    0.7189   21.9047 N   0  0  0  0  0  0  0  0  0  0  0  0
    6.8227   -0.3074   21.3140 C   0  0  0  0  0  0  0  0  0  0  0  0
    6.2335    0.2251   20.0118 C   0  0  0  0  0  0  0  0  0  0  0  0
    5.0109    0.9150   20.0024 C   0  0  0  0  0  0  0  0  0  0  0  0
    4.5726    1.4891   18.8064 C   0  0  0  0  0  0  0  0  0  0  0  0
    5.3624    1.3499   17.6637 C   0  0  0  0  0  0  0  0  0  0  0  0
    6.5291    0.6927   17.6451 N   0  0  0  0  0  0  0  0  0  0  0  0
    6.9489    0.1663   18.8058 C   0  0  0  0  0  0  0  0  0  0  0  0
    7.9329   -0.2990   18.7683 H   0  0  0  0  0  0  0  0  0  0  0  0
    5.0483    1.7853   16.7189 H   0  0  0  0  0  0  0  0  0  0  0  0
    3.6561    2.0655   18.7581 H   0  0  0  0  0  0  0  0  0  0  0  0
    4.4236    1.0268   20.9152 H   0  0  0  0  0  0  0  0  0  0  0  0
    7.5457   -1.6676   21.2147 C   0  0  0  0  0  0  0  0  0  0  0  0
    8.3621   -2.1053   22.4346 C   0  0  0  0  0  0  0  0  0  0  0  0
    8.5584   -3.5685   22.0689 C   0  0  0  0  0  0  0  0  0  0  0  0
    7.1496   -3.9475   21.6159 C   0  0  0  0  0  0  0  0  0  0  0  0
    6.6194   -2.7474   21.0316 O   0  0  0  0  0  0  0  0  0  0  0  0
    7.1415   -4.7548   20.8775 H   0  0  0  0  0  0  0  0  0  0  0  0
    6.5066   -4.2702   22.4445 H   0  0  0  0  0  0  0  0  0  0  0  0
    9.0196   -4.1886   22.8445 H   0  0  0  0  0  0  0  0  0  0  0  0
    9.1981   -3.5870   21.1839 H   0  0  0  0  0  0  0  0  0  0  0  0
    7.7598   -2.0027   23.3464 H   0  0  0  0  0  0  0  0  0  0  0  0
    9.2951   -1.5423   22.5563 H   0  0  0  0  0  0  0  0  0  0  0  0
    8.2461   -1.5907   20.3701 H   0  0  0  0  0  0  0  0  0  0  0  0
    6.0090   -0.4546   22.0336 H   0  0  0  0  0  0  0  0  0  0  0  0
    7.4327    1.0867   22.8082 H   0  0  0  0  0  0  0  0  0  0  0  0
    9.6977    2.0016   22.4204 C   0  0  0  0  0  0  0  0  0  0  0  0
    9.2794    2.1651   23.6648 N   0  0  0  0  0  0  0  0  0  0  0  0
   10.1186    3.0722   24.2607 O   0  0  0  0  0  0  0  0  0  0  0  0
   11.0347    3.4565   23.3627 C   0  0  0  0  0  0  0  0  0  0  0  0
   11.9796    4.5043   23.5564 C   0  0  0  0  0  0  0  0  0  0  0  0
   12.7105    4.8790   22.4510 C   0  0  0  0  0  0  0  0  0  0  0  0
   12.6352    4.2311   21.0838 C   0  0  0  0  0  0  0  0  0  0  0  0
   11.8805    2.8700   21.0705 C   0  0  0  0  0  0  0  0  0  0  0  0
   10.8692    2.7721   22.1808 C   0  0  0  0  0  0  0  0  0  0  0  0
   11.4033    2.6929   20.1014 H   0  0  0  0  0  0  0  0  0  0  0  0
   12.5941    2.0427   21.1947 H   0  0  0  0  0  0  0  0  0  0  0  0
   12.1518    4.9403   20.3990 H   0  0  0  0  0  0  0  0  0  0  0  0
   13.6539    4.1354   20.6937 H   0  0  0  0  0  0  0  0  0  0  0  0
   13.6554    6.2650   22.7906 S   0  0  0  0  0  0  0  0  0  0  0  0
   13.0990    6.3175   24.4306 C   0  0  0  0  0  0  0  0  0  0  0  0
   12.2256    5.3242   24.7109 C   0  0  0  0  0  0  0  0  0  0  0  0
   11.7548    5.1676   25.6748 H   0  0  0  0  0  0  0  0  0  0  0  0
   13.4710    7.0910   25.0873 H   0  0  0  0  0  0  0  0  0  0  0  0
  1  2  2  0
  2  3  1  0
  3  4  1  0
  4  5  1  0
  5  6  2  0
  6  7  1  0
  7  8  2  0
  8  9  1  0
  9 10  2  0
 10 11  1  0
  8 12  1  0
  7 13  1  0
  6 14  1  0
  4 15  1  0
 15 16  1  0
 16 17  1  0
 17 18  1  0
 18 19  1  0
 18 20  1  0
 18 21  1  0
 17 22  1  0
 17 23  1  0
 16 24  1  0
 16 25  1  0
 15 26  1  0
  4 27  1  0
  3 28  1  0
  2 29  1  0
 29 30  2  0
 30 31  1  0
 31 32  1  0
 32 33  1  0
 33 34  2  0
 34 35  1  0
 35 36  1  0
 36 37  1  0
 36 38  1  0
 36 39  1  0
 35 40  1  0
 35 41  1  0
 34 42  1  0
 42 43  1  0
 43 44  2  0
 44 45  1  0
 43 46  1  0
 10  5  1  0
 19 15  1  0
 37 29  1  0
 37 32  2  0
 44 33  1  0
M  END
>  <plip>  (1) 
-0.13793103448275862

>  <filename>  (1) 
[H][c]1[n][c]([H])[c]([C]([H])([N]([H])[C](=[O])[c]2[n][o][c]3[c]2[C]([H])([H])[C]([H])([H])[c]2[s][c]([H])[c]([H])[c]2-3)[C]2([H])[O][C]([H])([H])[C]([H])([H])[C]2([H])[H])[c]([H])[c]1[H]

$$$$
