
     RDKit          3D

 39 41  0  0  0  0  0  0  0  0999 V2000
    8.9643   -3.3954   22.2513 C   0  0  0  0  0  0  0  0  0  0  0  0
    8.3378   -2.1052   22.0800 N   0  0  0  0  0  0  0  0  0  0  0  0
    8.0467   -1.2355   23.0540 C   0  0  0  0  0  0  0  0  0  0  0  0
    7.3739   -0.1883   22.4472 C   0  0  0  0  0  0  0  0  0  0  0  0
    6.9233    1.0372   23.1071 C   0  0  0  0  0  0  0  0  0  0  0  0
    6.5308    1.0559   24.2690 O   0  0  0  0  0  0  0  0  0  0  0  0
    7.0065    2.1480   22.3324 N   0  0  0  0  0  0  0  0  0  0  0  0
    6.6599    3.4712   22.8294 C   0  0  0  0  0  0  0  0  0  0  0  0
    7.6657    3.9845   23.8220 C   0  0  0  0  0  0  0  0  0  0  0  0
    7.5255    3.9716   25.1476 C   0  0  0  0  0  0  0  0  0  0  0  0
    8.7460    4.4685   25.8729 C   0  0  0  0  0  0  0  0  0  0  0  0
    9.7212    4.8587   24.7322 C   0  0  0  0  0  0  0  0  0  0  0  0
    9.0504    4.4111   23.4081 C   0  0  0  0  0  0  0  0  0  0  0  0
    9.5667    3.5635   22.9365 H   0  0  0  0  0  0  0  0  0  0  0  0
    9.0418    5.2047   22.6515 H   0  0  0  0  0  0  0  0  0  0  0  0
   10.7010    4.3879   24.8452 H   0  0  0  0  0  0  0  0  0  0  0  0
    9.8965    5.9388   24.7272 H   0  0  0  0  0  0  0  0  0  0  0  0
    9.1464    3.6815   26.5221 H   0  0  0  0  0  0  0  0  0  0  0  0
    8.5056    5.3115   26.5315 H   0  0  0  0  0  0  0  0  0  0  0  0
    6.6544    3.5605   25.6578 H   0  0  0  0  0  0  0  0  0  0  0  0
    5.6698    3.4309   23.3015 H   0  0  0  0  0  0  0  0  0  0  0  0
    6.5934    4.1325   21.9589 H   0  0  0  0  0  0  0  0  0  0  0  0
    7.2879    2.0056   21.3818 H   0  0  0  0  0  0  0  0  0  0  0  0
    7.2881   -0.5490   21.0731 C   0  0  0  0  0  0  0  0  0  0  0  0
    6.5788    0.1135   19.9649 C   0  0  0  0  0  0  0  0  0  0  0  0
    5.3354    0.7600   20.0994 C   0  0  0  0  0  0  0  0  0  0  0  0
    4.7724    1.3633   18.9750 C   0  0  0  0  0  0  0  0  0  0  0  0
    5.4635    1.3094   17.7631 C   0  0  0  0  0  0  0  0  0  0  0  0
    6.6256    0.6567   17.6088 N   0  0  0  0  0  0  0  0  0  0  0  0
    7.1485    0.0585   18.6806 C   0  0  0  0  0  0  0  0  0  0  0  0
    8.0685   -0.5015   18.5092 H   0  0  0  0  0  0  0  0  0  0  0  0
    5.0528    1.7746   16.8712 H   0  0  0  0  0  0  0  0  0  0  0  0
    3.8151    1.8680   19.0230 H   0  0  0  0  0  0  0  0  0  0  0  0
    4.8205    0.7952   21.0608 H   0  0  0  0  0  0  0  0  0  0  0  0
    7.9265   -1.6976   20.8746 N   0  0  0  0  0  0  0  0  0  0  0  0
    8.3718   -1.4006   24.0790 H   0  0  0  0  0  0  0  0  0  0  0  0
    8.6332   -3.8550   23.1867 H   0  0  0  0  0  0  0  0  0  0  0  0
   10.0500   -3.2939   22.2775 H   0  0  0  0  0  0  0  0  0  0  0  0
    8.6632   -4.0102   21.4054 H   0  0  0  0  0  0  0  0  0  0  0  0
  1  2  1  0
  2  3  1  0
  3  4  2  0
  4  5  1  0
  5  6  2  0
  5  7  1  0
  7  8  1  0
  8  9  1  0
  9 10  2  0
 10 11  1  0
 11 12  1  0
 12 13  1  0
 13 14  1  0
 13 15  1  0
 12 16  1  0
 12 17  1  0
 11 18  1  0
 11 19  1  0
 10 20  1  0
  8 21  1  0
  8 22  1  0
  7 23  1  0
  4 24  1  0
 24 25  1  0
 25 26  2  0
 26 27  1  0
 27 28  2  0
 28 29  1  0
 29 30  2  0
 30 31  1  0
 28 32  1  0
 27 33  1  0
 26 34  1  0
 24 35  2  0
  3 36  1  0
  1 37  1  0
  1 38  1  0
  1 39  1  0
 35  2  1  0
 13  9  1  0
 30 25  1  0
M  END
>  <plip>  (1) 
-0.07142857142857142

>  <filename>  (1) 
[H][C]1=[C]([C]([H])([H])[N]([H])[C](=[O])[c]2[c](-[c]3[c]([H])[n][c]([H])[c]([H])[c]3[H])[n][n]([C]([H])([H])[H])[c]2[H])[C]([H])([H])[C]([H])([H])[C]1([H])[H]

$$$$
