
     RDKit          3D

 43 45  0  0  0  0  0  0  0  0999 V2000
    6.0533   -3.5866   27.4961 F   0  0  0  0  0  0  0  0  0  0  0  0
    6.7282   -2.8512   26.5940 C   0  0  0  0  0  0  0  0  0  0  0  0
    6.9106   -1.6298   27.1391 F   0  0  0  0  0  0  0  0  0  0  0  0
    5.8995   -2.6670   25.5451 F   0  0  0  0  0  0  0  0  0  0  0  0
    8.0403   -3.4796   26.1684 C   0  0  0  0  0  0  0  0  0  0  0  0
    8.4454   -4.7335   26.6536 C   0  0  0  0  0  0  0  0  0  0  0  0
    9.6117   -5.3239   26.1471 C   0  0  0  0  0  0  0  0  0  0  0  0
   10.3241   -4.7013   25.1176 C   0  0  0  0  0  0  0  0  0  0  0  0
    9.9012   -3.4698   24.5864 C   0  0  0  0  0  0  0  0  0  0  0  0
   10.4587   -2.9228   23.2925 C   0  0  0  0  0  0  0  0  0  0  0  0
   10.8720   -1.4151   23.2261 C   0  0  0  0  0  0  0  0  0  0  0  0
    9.7991   -1.1435   22.1749 C   0  0  0  0  0  0  0  0  0  0  0  0
    8.7602   -0.1682   22.6652 N   0  0  0  0  0  4  0  0  0  0  0  0
    7.9497    0.4647   21.5977 C   0  0  0  0  0  0  0  0  0  0  0  0
    7.0744   -0.5555   20.8425 C   0  0  0  0  0  0  0  0  0  0  0  0
    6.3632    0.0824   19.6660 C   0  0  0  0  0  0  0  0  0  0  0  0
    5.1749    0.8098   19.8359 C   0  0  0  0  0  0  0  0  0  0  0  0
    4.6351    1.5007   18.7476 C   0  0  0  0  0  0  0  0  0  0  0  0
    5.3000    1.4453   17.5199 C   0  0  0  0  0  0  0  0  0  0  0  0
    6.4173    0.7314   17.3209 N   0  0  0  0  0  0  0  0  0  0  0  0
    6.9206    0.0747   18.3734 C   0  0  0  0  0  0  0  0  0  0  0  0
    7.8321   -0.4901   18.1717 H   0  0  0  0  0  0  0  0  0  0  0  0
    4.9258    2.0011   16.6612 H   0  0  0  0  0  0  0  0  0  0  0  0
    3.7342    2.0982   18.8394 H   0  0  0  0  0  0  0  0  0  0  0  0
    4.6873    0.8477   20.8122 H   0  0  0  0  0  0  0  0  0  0  0  0
    7.7190   -1.3722   20.4882 H   0  0  0  0  0  0  0  0  0  0  0  0
    6.3425   -0.9870   21.5419 H   0  0  0  0  0  0  0  0  0  0  0  0
    7.3219    1.2450   22.0349 H   0  0  0  0  0  0  0  0  0  0  0  0
    8.6071    0.9604   20.8713 H   0  0  0  0  0  0  0  0  0  0  0  0
    9.2699    0.5535   23.2311 H   0  0  0  0  0  0  0  0  0  0  0  0
    8.1018   -0.6877   23.3075 H   0  0  0  0  0  0  0  0  0  0  0  0
    9.3612   -2.6160   22.2111 C   0  0  0  0  0  0  0  0  0  0  0  0
    9.3914   -3.1477   21.2610 H   0  0  0  0  0  0  0  0  0  0  0  0
    8.3439   -2.7176   22.6009 H   0  0  0  0  0  0  0  0  0  0  0  0
   10.1819   -0.8270   21.2003 H   0  0  0  0  0  0  0  0  0  0  0  0
   10.7492   -0.8484   24.1535 H   0  0  0  0  0  0  0  0  0  0  0  0
   11.8847   -1.2442   22.8435 H   0  0  0  0  0  0  0  0  0  0  0  0
   11.2667   -3.5695   22.9482 H   0  0  0  0  0  0  0  0  0  0  0  0
    8.8326   -2.8174   25.2169 C   0  0  0  0  0  0  0  0  0  0  0  0
    8.6420   -1.7686   24.9845 H   0  0  0  0  0  0  0  0  0  0  0  0
   11.2106   -5.1848   24.7117 H   0  0  0  0  0  0  0  0  0  0  0  0
    9.9703   -6.2667   26.5560 H   0  0  0  0  0  0  0  0  0  0  0  0
    7.8594   -5.2378   27.4214 H   0  0  0  0  0  0  0  0  0  0  0  0
  1  2  1  0
  2  3  1  0
  2  4  1  0
  2  5  1  0
  5  6  2  0
  6  7  1  0
  7  8  2  0
  8  9  1  0
  9 10  1  0
 10 11  1  0
 11 12  1  0
 12 13  1  0
 13 14  1  0
 14 15  1  0
 15 16  1  0
 16 17  2  0
 17 18  1  0
 18 19  2  0
 19 20  1  0
 20 21  2  0
 21 22  1  0
 19 23  1  0
 18 24  1  0
 17 25  1  0
 15 26  1  0
 15 27  1  0
 14 28  1  0
 14 29  1  0
 13 30  1  0
 13 31  1  0
 12 32  1  0
 32 33  1  0
 32 34  1  0
 12 35  1  0
 11 36  1  0
 11 37  1  0
 10 38  1  0
  9 39  2  0
 39 40  1  0
  8 41  1  0
  7 42  1  0
  6 43  1  0
 39  5  1  0
 32 10  1  0
 21 16  1  0
M  CHG  1  13   1
M  END
>  <plip>  (1) 
-0.10344827586206896

>  <filename>  (1) 
[H][c]1[n][c]([H])[c]([C]([H])([H])[C]([H])([H])[N+]([H])([H])[C]2([H])[C]([H])([H])[C]([H])([c]3[c]([H])[c]([H])[c]([H])[c]([C]([F])([F])[F])[c]3[H])[C]2([H])[H])[c]([H])[c]1[H]

$$$$
