
     RDKit          3D

 29 31  0  0  0  0  0  0  0  0999 V2000
    9.1806   -5.7826   26.1854 C   0  0  0  0  0  0  0  0  0  0  0  0
    9.8584   -4.1434   26.5864 S   0  0  0  0  0  0  0  0  0  0  0  0
    8.6321   -3.0102   25.9541 C   0  0  0  0  0  0  0  0  0  0  0  0
    7.6422   -2.4921   26.8011 C   0  0  0  0  0  0  0  0  0  0  0  0
    6.6388   -1.6740   26.2813 C   0  0  0  0  0  0  0  0  0  0  0  0
    6.6975   -1.3623   24.9224 C   0  0  0  0  0  0  0  0  0  0  0  0
    7.7805   -1.8479   24.1692 C   0  0  0  0  0  0  0  0  0  0  0  0
    7.9390   -1.5152   22.7322 C   0  0  0  0  0  0  0  0  0  0  0  0
    8.8675   -1.8580   21.8987 N   0  0  0  0  0  0  0  0  0  0  0  0
    8.5183   -1.3227   20.6801 N   0  0  0  0  0  0  0  0  0  0  0  0
    7.4020   -0.6927   20.8575 C   0  0  0  0  0  0  0  0  0  0  0  0
    6.6257    0.0206   19.8690 C   0  0  0  0  0  0  0  0  0  0  0  0
    5.4126    0.6726   20.1309 C   0  0  0  0  0  0  0  0  0  0  0  0
    4.7978    1.3257   19.0645 C   0  0  0  0  0  0  0  0  0  0  0  0
    5.4090    1.3133   17.8044 C   0  0  0  0  0  0  0  0  0  0  0  0
    6.5657    0.6816   17.5567 N   0  0  0  0  0  0  0  0  0  0  0  0
    7.1522    0.0522   18.5726 C   0  0  0  0  0  0  0  0  0  0  0  0
    8.0945   -0.4596   18.3796 H   0  0  0  0  0  0  0  0  0  0  0  0
    4.9526    1.8360   16.9629 H   0  0  0  0  0  0  0  0  0  0  0  0
    3.8645    1.8526   19.1955 H   0  0  0  0  0  0  0  0  0  0  0  0
    4.9768    0.6811   21.1285 H   0  0  0  0  0  0  0  0  0  0  0  0
    6.9706   -0.7629   22.1320 O   0  0  0  0  0  0  0  0  0  0  0  0
    8.7273   -2.6601   24.6772 N   0  0  0  0  0  0  0  0  0  0  0  0
    5.9252   -0.7542   24.4637 H   0  0  0  0  0  0  0  0  0  0  0  0
    5.8220   -1.3049   26.9080 H   0  0  0  0  0  0  0  0  0  0  0  0
    7.6813   -2.7452   27.8387 H   0  0  0  0  0  0  0  0  0  0  0  0
    8.9635   -5.8941   25.1186 H   0  0  0  0  0  0  0  0  0  0  0  0
    8.3014   -6.0241   26.7899 H   0  0  0  0  0  0  0  0  0  0  0  0
    9.9824   -6.4805   26.4408 H   0  0  0  0  0  0  0  0  0  0  0  0
  1  2  1  0
  2  3  1  0
  3  4  2  0
  4  5  1  0
  5  6  2  0
  6  7  1  0
  7  8  1  0
  8  9  2  0
  9 10  1  0
 10 11  2  0
 11 12  1  0
 12 13  2  0
 13 14  1  0
 14 15  2  0
 15 16  1  0
 16 17  2  0
 17 18  1  0
 15 19  1  0
 14 20  1  0
 13 21  1  0
 11 22  1  0
  7 23  2  0
  6 24  1  0
  5 25  1  0
  4 26  1  0
  1 27  1  0
  1 28  1  0
  1 29  1  0
 23  3  1  0
 22  8  1  0
 17 12  1  0
M  END
>  <plip>  (1) 
-0.03571428571428571

>  <filename>  (1) 
[H][c]1[n][c]([H])[c](-[c]2[n][n][c](-[c]3[n][c]([S][C]([H])([H])[H])[c]([H])[c]([H])[c]3[H])[o]2)[c]([H])[c]1[H]

$$$$
