
     RDKit          3D

 39 41  0  0  0  0  0  0  0  0999 V2000
    6.8952    1.1759   22.5081 O   0  0  0  0  0  0  0  0  0  0  0  0
    7.1061    0.0007   22.2406 C   0  0  0  0  0  0  0  0  0  0  0  0
    7.2038   -0.4659   20.9491 N   0  0  0  0  0  0  0  0  0  0  0  0
    6.5930    0.1424   19.8125 C   0  0  0  0  0  0  0  0  0  0  0  0
    5.3745    0.8222   19.9372 C   0  0  0  0  0  0  0  0  0  0  0  0
    4.7997    1.3794   18.7888 C   0  0  0  0  0  0  0  0  0  0  0  0
    5.4654    1.2577   17.5654 C   0  0  0  0  0  0  0  0  0  0  0  0
    6.6271    0.5970   17.4252 N   0  0  0  0  0  0  0  0  0  0  0  0
    7.1688    0.0505   18.5236 C   0  0  0  0  0  0  0  0  0  0  0  0
    8.1099   -0.4824   18.3828 H   0  0  0  0  0  0  0  0  0  0  0  0
    5.0428    1.6941   16.6613 H   0  0  0  0  0  0  0  0  0  0  0  0
    3.8562    1.9136   18.8356 H   0  0  0  0  0  0  0  0  0  0  0  0
    4.8915    0.9031   20.9108 H   0  0  0  0  0  0  0  0  0  0  0  0
    7.4377   -1.4488   20.8804 H   0  0  0  0  0  0  0  0  0  0  0  0
    7.3197   -1.1251   23.3421 C   0  0  0  0  0  0  0  0  0  0  0  0
    7.4930   -2.3049   23.0330 O   0  0  0  0  0  0  0  0  0  0  0  0
    7.2795   -0.7102   24.6364 N   0  0  0  0  0  0  0  0  0  0  0  0
    7.3228    0.6310   25.2410 C   0  0  0  0  0  0  0  0  0  0  0  0
    7.6780   -0.0491   26.5768 C   0  0  0  0  0  0  0  0  0  0  0  0
    7.8783   -1.3841   25.8071 C   0  0  0  0  0  0  0  0  0  0  0  0
    7.0574   -2.5580   26.3850 C   0  0  0  0  0  0  0  0  0  0  0  0
    7.2743   -3.9153   25.6980 C   0  0  0  0  0  0  0  0  0  0  0  0
    8.9812   -4.4380   25.6903 S   0  0  0  0  0  0  0  0  0  0  0  0
    9.1052   -5.5435   24.7537 O   0  0  0  0  0  0  0  0  0  0  0  0
    9.4365   -4.5211   27.0737 O   0  0  0  0  0  0  0  0  0  0  0  0
    9.7603   -3.0176   24.9607 C   0  0  0  0  0  0  0  0  0  0  0  0
    9.3889   -1.6957   25.6577 C   0  0  0  0  0  0  0  0  0  0  0  0
    9.7867   -1.6592   26.6818 H   0  0  0  0  0  0  0  0  0  0  0  0
    9.8770   -0.8736   25.1117 H   0  0  0  0  0  0  0  0  0  0  0  0
   10.8301   -3.2448   24.9872 H   0  0  0  0  0  0  0  0  0  0  0  0
    9.4251   -3.0412   23.9258 H   0  0  0  0  0  0  0  0  0  0  0  0
    6.7553   -4.7410   26.1884 H   0  0  0  0  0  0  0  0  0  0  0  0
    6.9929   -3.8797   24.6463 H   0  0  0  0  0  0  0  0  0  0  0  0
    7.3188   -2.6385   27.4487 H   0  0  0  0  0  0  0  0  0  0  0  0
    5.9961   -2.2778   26.3410 H   0  0  0  0  0  0  0  0  0  0  0  0
    6.8475   -0.0914   27.2866 H   0  0  0  0  0  0  0  0  0  0  0  0
    8.5617    0.3263   27.0977 H   0  0  0  0  0  0  0  0  0  0  0  0
    6.3703    1.1617   25.1743 H   0  0  0  0  0  0  0  0  0  0  0  0
    8.1049    1.2743   24.8174 H   0  0  0  0  0  0  0  0  0  0  0  0
  1  2  2  0
  2  3  1  0
  3  4  1  0
  4  5  2  0
  5  6  1  0
  6  7  2  0
  7  8  1  0
  8  9  2  0
  9 10  1  0
  7 11  1  0
  6 12  1  0
  5 13  1  0
  3 14  1  0
  2 15  1  0
 15 16  2  0
 15 17  1  0
 17 18  1  0
 18 19  1  0
 19 20  1  0
 20 21  1  0
 21 22  1  0
 22 23  1  0
 23 24  2  0
 23 25  2  0
 23 26  1  0
 26 27  1  0
 27 28  1  0
 27 29  1  0
 26 30  1  0
 26 31  1  0
 22 32  1  0
 22 33  1  0
 21 34  1  0
 21 35  1  0
 19 36  1  0
 19 37  1  0
 18 38  1  0
 18 39  1  0
  9  4  1  0
 20 17  1  0
 27 20  1  0
M  END
>  <plip>  (1) 
-0.06896551724137931

>  <filename>  (1) 
[H][c]1[n][c]([H])[c]([N]([H])[C](=[O])[C](=[O])[N]2[C]([H])([H])[C]([H])([H])[C]23[C]([H])([H])[C]([H])([H])[S](=[O])(=[O])[C]([H])([H])[C]3([H])[H])[c]([H])[c]1[H]

$$$$
