
     RDKit          3D

 34 36  0  0  0  0  0  0  0  0999 V2000
    7.8158    0.8521   22.8904 O   0  0  0  0  0  0  0  0  0  0  0  0
    8.2544    0.3726   21.8747 C   0  0  0  0  0  0  0  0  0  0  0  0
    7.4965   -0.6218   20.9842 C   0  0  0  0  0  0  0  0  0  0  0  0
    6.7302    0.0128   19.8293 C   0  0  0  0  0  0  0  0  0  0  0  0
    5.5179    0.6596   20.1040 C   0  0  0  0  0  0  0  0  0  0  0  0
    4.8392    1.3096   19.0722 C   0  0  0  0  0  0  0  0  0  0  0  0
    5.3994    1.3012   17.7916 C   0  0  0  0  0  0  0  0  0  0  0  0
    6.5366    0.6574   17.4920 N   0  0  0  0  0  0  0  0  0  0  0  0
    7.1699    0.0273   18.4914 C   0  0  0  0  0  0  0  0  0  0  0  0
    8.0778   -0.5013   18.2010 H   0  0  0  0  0  0  0  0  0  0  0  0
    4.9097    1.8241   16.9695 H   0  0  0  0  0  0  0  0  0  0  0  0
    3.9031    1.8284   19.2461 H   0  0  0  0  0  0  0  0  0  0  0  0
    5.1203    0.6538   21.1206 H   0  0  0  0  0  0  0  0  0  0  0  0
    8.1946   -1.3850   20.6277 H   0  0  0  0  0  0  0  0  0  0  0  0
    6.7941   -1.1324   21.6438 H   0  0  0  0  0  0  0  0  0  0  0  0
    9.5043    0.6471   21.3835 N   0  0  0  0  0  0  0  0  0  0  0  0
   10.3773    1.5665   21.8447 C   0  0  0  0  0  0  0  0  0  0  0  0
   11.5393    1.7291   21.3143 N   0  0  0  0  0  0  0  0  0  0  0  0
   12.0679    2.7607   22.0807 C   0  0  0  0  0  0  0  0  0  0  0  0
   11.1685    3.1517   23.0200 C   0  0  0  0  0  0  0  0  0  0  0  0
   11.1419    4.1126   24.1150 C   0  0  0  0  0  0  0  0  0  0  0  0
   12.3062    4.8268   24.4306 C   0  0  0  0  0  0  0  0  0  0  0  0
   12.3329    5.7162   25.5041 C   0  0  0  0  0  0  0  0  0  0  0  0
   11.1784    5.9359   26.2591 C   0  0  0  0  0  0  0  0  0  0  0  0
    9.9966    5.2659   25.9251 C   0  0  0  0  0  0  0  0  0  0  0  0
    9.9718    4.3611   24.8624 C   0  0  0  0  0  0  0  0  0  0  0  0
    9.0511    3.8435   24.6131 H   0  0  0  0  0  0  0  0  0  0  0  0
    9.0947    5.4408   26.5013 H   0  0  0  0  0  0  0  0  0  0  0  0
   11.1940    6.6422   27.0850 H   0  0  0  0  0  0  0  0  0  0  0  0
   13.2488    6.2512   25.7344 H   0  0  0  0  0  0  0  0  0  0  0  0
   13.1958    4.6918   23.8219 H   0  0  0  0  0  0  0  0  0  0  0  0
   10.0579    2.3512   22.8575 O   0  0  0  0  0  0  0  0  0  0  0  0
   13.0521    3.1681   21.8850 H   0  0  0  0  0  0  0  0  0  0  0  0
    9.8425    0.1977   20.5621 H   0  0  0  0  0  0  0  0  0  0  0  0
  1  2  2  0
  2  3  1  0
  3  4  1  0
  4  5  2  0
  5  6  1  0
  6  7  2  0
  7  8  1  0
  8  9  2  0
  9 10  1  0
  7 11  1  0
  6 12  1  0
  5 13  1  0
  3 14  1  0
  3 15  1  0
  2 16  1  0
 16 17  1  0
 17 18  2  0
 18 19  1  0
 19 20  2  0
 20 21  1  0
 21 22  2  0
 22 23  1  0
 23 24  2  0
 24 25  1  0
 25 26  2  0
 26 27  1  0
 25 28  1  0
 24 29  1  0
 23 30  1  0
 22 31  1  0
 20 32  1  0
 19 33  1  0
 16 34  1  0
  9  4  1  0
 32 17  1  0
 26 21  1  0
M  END
>  <plip>  (1) 
-0.13793103448275862

>  <filename>  (1) 
[H][c]1[n][c]([N]([H])[C](=[O])[C]([H])([H])[c]2[c]([H])[n][c]([H])[c]([H])[c]2[H])[o][c]1-[c]1[c]([H])[c]([H])[c]([H])[c]([H])[c]1[H]

$$$$
