
     RDKit          3D

 32 33  0  0  0  0  0  0  0  0999 V2000
    4.9162    1.7775   16.9987 H   0  0  0  0  0  0  0  0  0  0  0  0
    5.4046    1.2900   17.8394 C   0  0  0  0  0  0  0  0  0  0  0  0
    6.5653    0.6747   17.5848 N   0  0  0  0  0  0  0  0  0  0  0  0
    7.1722    0.0588   18.6097 C   0  0  0  0  0  0  0  0  0  0  0  0
    8.1143   -0.4219   18.3682 H   0  0  0  0  0  0  0  0  0  0  0  0
    6.6665    0.0036   19.9118 C   0  0  0  0  0  0  0  0  0  0  0  0
    7.3714   -0.7382   21.0451 C   0  0  1  0  0  0  0  0  0  0  0  0
    8.6902   -1.2436   20.6761 N   0  0  0  0  0  0  0  0  0  0  0  0
    8.5991   -1.9176   19.9207 H   0  0  0  0  0  0  0  0  0  0  0  0
    9.2568   -0.4790   20.3255 H   0  0  0  0  0  0  0  0  0  0  0  0
    7.5706    0.2201   22.2311 C   0  0  0  0  0  0  0  0  0  0  0  0
    8.2593   -0.2116   22.9615 H   0  0  0  0  0  0  0  0  0  0  0  0
    7.9888    1.1731   21.8906 H   0  0  0  0  0  0  0  0  0  0  0  0
    6.6296    0.4449   22.7441 H   0  0  0  0  0  0  0  0  0  0  0  0
    6.5015   -1.9470   21.4480 C   0  0  0  0  0  0  0  0  0  0  0  0
    6.2956   -2.5481   20.5555 H   0  0  0  0  0  0  0  0  0  0  0  0
    5.5226   -1.5754   21.7501 H   0  0  0  0  0  0  0  0  0  0  0  0
    7.0735   -2.8442   22.5542 C   0  0  0  0  0  0  0  0  0  0  0  0
    7.2166   -2.2538   23.4681 H   0  0  0  0  0  0  0  0  0  0  0  0
    8.0612   -3.1987   22.2481 H   0  0  0  0  0  0  0  0  0  0  0  0
    6.1790   -3.9948   22.8624 C   0  0  0  0  0  0  0  0  0  0  0  0
    6.2416   -5.2027   22.2084 N   0  0  0  0  0  0  0  0  0  0  0  0
    5.2592   -5.9224   22.6910 C   0  0  0  0  0  0  0  0  0  0  0  0
    5.0250   -6.9425   22.4049 H   0  0  0  0  0  0  0  0  0  0  0  0
    4.5477   -5.2262   23.6197 N   0  0  0  0  0  0  0  0  0  0  0  0
    3.7528   -5.5674   24.1274 H   0  0  0  0  0  0  0  0  0  0  0  0
    5.1269   -3.9833   23.7347 C   0  0  0  0  0  0  0  0  0  0  0  0
    4.7659   -3.1958   24.3826 H   0  0  0  0  0  0  0  0  0  0  0  0
    5.4422    0.6506   20.1531 C   0  0  0  0  0  0  0  0  0  0  0  0
    4.9958    0.6419   21.1526 H   0  0  0  0  0  0  0  0  0  0  0  0
    4.8067    1.3111   19.1046 C   0  0  0  0  0  0  0  0  0  0  0  0
    3.8743    1.8432   19.2600 H   0  0  0  0  0  0  0  0  0  0  0  0
  1  2  1  0
  2  3  2  0
  3  4  1  0
  4  5  1  0
  4  6  2  0
  6  7  1  0
  7  8  1  6
  8  9  1  0
  8 10  1  0
  7 11  1  0
 11 12  1  0
 11 13  1  0
 11 14  1  0
  7 15  1  0
 15 16  1  0
 15 17  1  0
 15 18  1  0
 18 19  1  0
 18 20  1  0
 18 21  1  0
 21 22  1  0
 22 23  2  0
 23 24  1  0
 23 25  1  0
 25 26  1  0
 25 27  1  0
 27 28  1  0
  6 29  1  0
 29 30  1  0
 29 31  2  0
 31 32  1  0
 31  2  1  0
 27 21  2  0
M  END
>  <plip>  (1) 
-0.06896551724137931

>  <filename>  (1) 
[H][c]1[n][c]([H])[c]([C@@]([N]([H])[H])([C]([H])([H])[H])[C]([H])([H])[C]([H])([H])[c]2[n][c]([H])[n]([H])[c]2[H])[c]([H])[c]1[H]

$$$$
