
     RDKit          3D

 43 46  0  0  0  0  0  0  0  0999 V2000
    9.0349    1.5180   21.2233 O   0  0  0  0  0  0  0  0  0  0  0  0
    8.2290    1.3132   22.1138 C   0  0  0  0  0  0  0  0  0  0  0  0
    7.9748    2.2232   23.1637 N   0  0  0  0  0  0  0  0  0  0  0  0
    8.6005    3.4823   23.2377 N   0  0  0  0  0  0  0  0  0  0  0  0
    9.9700    3.6318   23.1967 C   0  0  0  0  0  0  0  0  0  0  0  0
   10.4050    4.7933   23.5776 N   0  0  0  0  0  0  0  0  0  0  0  0
    9.2498    5.4826   23.9127 C   0  0  0  0  0  0  0  0  0  0  0  0
    9.1491    6.7965   24.3823 C   0  0  0  0  0  0  0  0  0  0  0  0
    7.8889    7.3055   24.6697 C   0  0  0  0  0  0  0  0  0  0  0  0
    6.7365    6.5071   24.4899 C   0  0  0  0  0  0  0  0  0  0  0  0
    6.8202    5.1954   24.0164 C   0  0  0  0  0  0  0  0  0  0  0  0
    8.0980    4.6903   23.7293 C   0  0  0  0  0  0  0  0  0  0  0  0
    5.9214    4.6029   23.8794 H   0  0  0  0  0  0  0  0  0  0  0  0
    5.7636    6.9278   24.7305 H   0  0  0  0  0  0  0  0  0  0  0  0
    7.7885    8.3236   25.0357 H   0  0  0  0  0  0  0  0  0  0  0  0
   10.0550    7.3754   24.5078 H   0  0  0  0  0  0  0  0  0  0  0  0
   10.5542    2.7965   22.8385 H   0  0  0  0  0  0  0  0  0  0  0  0
    6.9819    2.2489   23.3419 H   0  0  0  0  0  0  0  0  0  0  0  0
    7.5038    0.1468   22.2323 N   0  0  0  0  0  0  0  0  0  0  0  0
    6.9405   -0.3612   23.4891 C   0  0  0  0  0  0  0  0  0  0  0  0
    7.3263   -1.8257   23.7523 C   0  0  0  0  0  0  0  0  0  0  0  0
    7.3157   -2.7316   22.4952 C   0  0  0  0  0  0  0  0  0  0  0  0
    6.7132   -2.0231   21.2814 C   0  0  0  0  0  0  0  0  0  0  0  0
    7.4003   -0.6776   21.0129 C   0  0  1  0  0  0  0  0  0  0  0  0
    6.6626    0.0628   19.9074 C   0  0  0  0  0  0  0  0  0  0  0  0
    5.4278    0.6914   20.1302 C   0  0  0  0  0  0  0  0  0  0  0  0
    4.7867    1.3269   19.0665 C   0  0  0  0  0  0  0  0  0  0  0  0
    5.4016    1.2943   17.8073 C   0  0  0  0  0  0  0  0  0  0  0  0
    6.5652    0.6733   17.5622 N   0  0  0  0  0  0  0  0  0  0  0  0
    7.1720    0.0842   18.6053 C   0  0  0  0  0  0  0  0  0  0  0  0
    8.1241   -0.4028   18.3844 H   0  0  0  0  0  0  0  0  0  0  0  0
    4.9342    1.7885   16.9587 H   0  0  0  0  0  0  0  0  0  0  0  0
    3.8431    1.8504   19.2035 H   0  0  0  0  0  0  0  0  0  0  0  0
    4.9746    0.6877   21.1249 H   0  0  0  0  0  0  0  0  0  0  0  0
    8.4297   -0.8736   20.6749 H   0  0  0  0  0  0  0  0  0  0  0  0
    5.6417   -1.8426   21.4466 H   0  0  0  0  0  0  0  0  0  0  0  0
    6.8016   -2.6305   20.3733 H   0  0  0  0  0  0  0  0  0  0  0  0
    6.7590   -3.6528   22.6900 H   0  0  0  0  0  0  0  0  0  0  0  0
    8.3389   -3.0473   22.2561 H   0  0  0  0  0  0  0  0  0  0  0  0
    8.3191   -1.8454   24.2093 H   0  0  0  0  0  0  0  0  0  0  0  0
    6.6299   -2.2040   24.5080 H   0  0  0  0  0  0  0  0  0  0  0  0
    7.2902    0.2518   24.3221 H   0  0  0  0  0  0  0  0  0  0  0  0
    5.8534   -0.2476   23.4688 H   0  0  0  0  0  0  0  0  0  0  0  0
  1  2  2  0
  2  3  1  0
  3  4  1  0
  4  5  1  0
  5  6  2  0
  6  7  1  0
  7  8  2  0
  8  9  1  0
  9 10  2  0
 10 11  1  0
 11 12  2  0
 11 13  1  0
 10 14  1  0
  9 15  1  0
  8 16  1  0
  5 17  1  0
  3 18  1  0
  2 19  1  0
 19 20  1  0
 20 21  1  0
 21 22  1  0
 22 23  1  0
 23 24  1  0
 24 25  1  0
 25 26  2  0
 26 27  1  0
 27 28  2  0
 28 29  1  0
 29 30  2  0
 30 31  1  0
 28 32  1  0
 27 33  1  0
 26 34  1  0
 24 35  1  6
 23 36  1  0
 23 37  1  0
 22 38  1  0
 22 39  1  0
 21 40  1  0
 21 41  1  0
 20 42  1  0
 20 43  1  0
 12  4  1  0
 24 19  1  0
 30 25  1  0
 12  7  1  0
M  END
>  <plip>  (1) 
-0.10714285714285714

>  <filename>  (1) 
[H][c]1[n][c]([H])[c]([C@@]2([H])[N]([C](=[O])[N]([H])[n]3[c]([H])[n][c]4[c]([H])[c]([H])[c]([H])[c]([H])[c]43)[C]([H])([H])[C]([H])([H])[C]([H])([H])[C]2([H])[H])[c]([H])[c]1[H]

$$$$
