
     RDKit          3D

 51 53  0  0  0  0  0  0  0  0999 V2000
    7.3299   -4.9664   24.6013 C   0  0  0  0  0  0  0  0  0  0  0  0
    7.8021   -3.5190   24.5820 C   0  0  0  0  0  0  0  0  0  0  0  0
    7.1174   -2.7244   23.5790 O   0  0  0  0  0  0  0  0  0  0  0  0
    7.4900   -2.8817   22.2961 C   0  0  0  0  0  0  0  0  0  0  0  0
    8.3689   -3.6262   21.9247 O   0  0  0  0  0  0  0  0  0  0  0  0
    6.6886   -2.0388   21.3456 C   0  0  0  0  0  0  0  0  0  0  0  0
    7.4119   -0.7364   21.0139 C   0  0  2  0  0  0  0  0  0  0  0  0
    7.5776    0.0373   22.2259 N   0  0  0  0  0  0  0  0  0  0  0  0
    8.3391    1.1754   22.1973 C   0  0  0  0  0  0  0  0  0  0  0  0
    9.0581    1.4384   21.2477 O   0  0  0  0  0  0  0  0  0  0  0  0
    8.2158    2.0923   23.3974 C   0  0  0  0  0  0  0  0  0  0  0  0
    7.0370    3.0948   23.2875 C   0  0  0  0  0  0  0  0  0  0  0  0
    6.9329    3.9813   24.5078 C   0  0  0  0  0  0  0  0  0  0  0  0
    7.4358    5.2218   24.6482 C   0  0  0  0  0  0  0  0  0  0  0  0
    7.2022    5.7744   26.0298 C   0  0  0  0  0  0  0  0  0  0  0  0
    6.4724    4.6311   26.7007 C   0  0  0  0  0  0  0  0  0  0  0  0
    5.9859    4.5076   27.9995 C   0  0  0  0  0  0  0  0  0  0  0  0
    5.3460    3.3193   28.3835 C   0  0  0  0  0  0  0  0  0  0  0  0
    5.1980    2.2629   27.4696 C   0  0  0  0  0  0  0  0  0  0  0  0
    5.6805    2.3767   26.1664 C   0  0  0  0  0  0  0  0  0  0  0  0
    6.3206    3.5697   25.7760 C   0  0  0  0  0  0  0  0  0  0  0  0
    5.5694    1.5535   25.4643 H   0  0  0  0  0  0  0  0  0  0  0  0
    4.7035    1.3466   27.7841 H   0  0  0  0  0  0  0  0  0  0  0  0
    4.9638    3.2170   29.3956 H   0  0  0  0  0  0  0  0  0  0  0  0
    6.1002    5.3240   28.7084 H   0  0  0  0  0  0  0  0  0  0  0  0
    8.1431    6.0375   26.5404 H   0  0  0  0  0  0  0  0  0  0  0  0
    6.6132    6.7057   26.0139 H   0  0  0  0  0  0  0  0  0  0  0  0
    7.9672    5.7669   23.8692 H   0  0  0  0  0  0  0  0  0  0  0  0
    6.0870    2.5561   23.1462 H   0  0  0  0  0  0  0  0  0  0  0  0
    7.1720    3.7274   22.3984 H   0  0  0  0  0  0  0  0  0  0  0  0
    8.1270    1.5242   24.3331 H   0  0  0  0  0  0  0  0  0  0  0  0
    9.1562    2.6497   23.4475 H   0  0  0  0  0  0  0  0  0  0  0  0
    6.9141   -0.0732   22.9749 H   0  0  0  0  0  0  0  0  0  0  0  0
    6.6648    0.0251   19.9277 C   0  0  0  0  0  0  0  0  0  0  0  0
    5.4400    0.6639   20.1575 C   0  0  0  0  0  0  0  0  0  0  0  0
    4.8025    1.3104   19.0982 C   0  0  0  0  0  0  0  0  0  0  0  0
    5.3996    1.2848   17.8331 C   0  0  0  0  0  0  0  0  0  0  0  0
    6.5607    0.6664   17.5837 N   0  0  0  0  0  0  0  0  0  0  0  0
    7.1698    0.0665   18.6196 C   0  0  0  0  0  0  0  0  0  0  0  0
    8.1198   -0.4162   18.3795 H   0  0  0  0  0  0  0  0  0  0  0  0
    4.9319    1.7849   16.9856 H   0  0  0  0  0  0  0  0  0  0  0  0
    3.8708    1.8403   19.2413 H   0  0  0  0  0  0  0  0  0  0  0  0
    4.9891    0.6588   21.1528 H   0  0  0  0  0  0  0  0  0  0  0  0
    8.4205   -0.9562   20.6318 H   0  0  0  0  0  0  0  0  0  0  0  0
    5.6892   -1.8284   21.7347 H   0  0  0  0  0  0  0  0  0  0  0  0
    6.5943   -2.6208   20.4303 H   0  0  0  0  0  0  0  0  0  0  0  0
    8.8863   -3.4533   24.4114 H   0  0  0  0  0  0  0  0  0  0  0  0
    7.5487   -2.9997   25.5116 H   0  0  0  0  0  0  0  0  0  0  0  0
    6.2492   -5.0229   24.7656 H   0  0  0  0  0  0  0  0  0  0  0  0
    7.8281   -5.4904   25.4239 H   0  0  0  0  0  0  0  0  0  0  0  0
    7.5803   -5.4791   23.6675 H   0  0  0  0  0  0  0  0  0  0  0  0
  1  2  1  0
  2  3  1  0
  3  4  1  0
  4  5  2  0
  4  6  1  0
  6  7  1  0
  7  8  1  0
  8  9  1  0
  9 10  2  0
  9 11  1  0
 11 12  1  0
 12 13  1  0
 13 14  2  0
 14 15  1  0
 15 16  1  0
 16 17  2  0
 17 18  1  0
 18 19  2  0
 19 20  1  0
 20 21  2  0
 20 22  1  0
 19 23  1  0
 18 24  1  0
 17 25  1  0
 15 26  1  0
 15 27  1  0
 14 28  1  0
 12 29  1  0
 12 30  1  0
 11 31  1  0
 11 32  1  0
  8 33  1  0
  7 34  1  0
 34 35  2  0
 35 36  1  0
 36 37  2  0
 37 38  1  0
 38 39  2  0
 39 40  1  0
 37 41  1  0
 36 42  1  0
 35 43  1  0
  7 44  1  6
  6 45  1  0
  6 46  1  0
  2 47  1  0
  2 48  1  0
  1 49  1  0
  1 50  1  0
  1 51  1  0
 21 13  1  0
 39 34  1  0
 21 16  1  0
M  END
>  <plip>  (1) 
-0.14285714285714285

>  <filename>  (1) 
[H][C]1=[C]([C]([H])([H])[C]([H])([H])[C](=[O])[N]([H])[C@]([H])([c]2[c]([H])[n][c]([H])[c]([H])[c]2[H])[C]([H])([H])[C](=[O])[O][C]([H])([H])[C]([H])([H])[H])[c]2[c]([H])[c]([H])[c]([H])[c]([H])[c]2[C]1([H])[H]

$$$$
