
     RDKit          3D

 28 29  0  0  0  0  0  0  0  0999 V2000
    5.9702   -0.9792   22.2657 H   0  0  0  0  0  0  0  0  0  0  0  0
    7.0206   -1.0910   21.9901 C   0  0  0  0  0  0  0  0  0  0  0  0
    7.4589   -0.6865   20.8600 N   0  0  0  0  0  0  0  0  0  0  0  0
    6.6566   -0.0114   19.9138 C   0  0  0  0  0  0  0  0  0  0  0  0
    7.1619    0.0505   18.5909 C   0  0  0  0  0  0  0  0  0  0  0  0
    8.1164   -0.4310   18.3965 H   0  0  0  0  0  0  0  0  0  0  0  0
    6.5547    0.6683   17.5768 N   0  0  0  0  0  0  0  0  0  0  0  0
    5.3897    1.2918   17.8355 C   0  0  0  0  0  0  0  0  0  0  0  0
    4.9338    1.8069   16.9943 H   0  0  0  0  0  0  0  0  0  0  0  0
    4.7998    1.3009   19.1006 C   0  0  0  0  0  0  0  0  0  0  0  0
    3.8700    1.8385   19.2481 H   0  0  0  0  0  0  0  0  0  0  0  0
    5.4369    0.6411   20.1617 C   0  0  0  0  0  0  0  0  0  0  0  0
    5.0110    0.6584   21.1617 H   0  0  0  0  0  0  0  0  0  0  0  0
    7.8664   -1.7810   22.9911 C   0  0  0  0  0  0  0  0  0  0  0  0
    7.3336   -2.2482   24.2072 C   0  0  0  0  0  0  0  0  0  0  0  0
    6.2772   -2.1153   24.4502 H   0  0  0  0  0  0  0  0  0  0  0  0
    8.1511   -2.9203   25.1260 C   0  0  0  0  0  0  0  0  0  0  0  0
    7.7502   -3.2839   26.0708 H   0  0  0  0  0  0  0  0  0  0  0  0
    9.5008   -3.1776   24.8218 C   0  0  0  0  0  0  0  0  0  0  0  0
   10.3528   -3.8904   25.5863 O   0  0  0  0  0  0  0  0  0  0  0  0
    9.9361   -4.3453   26.8589 C   0  0  0  0  0  0  0  0  0  0  0  0
    9.1433   -5.0973   26.7651 H   0  0  0  0  0  0  0  0  0  0  0  0
    9.5722   -3.5001   27.4567 H   0  0  0  0  0  0  0  0  0  0  0  0
   10.8314   -4.7910   27.2990 H   0  0  0  0  0  0  0  0  0  0  0  0
   10.0241   -2.7044   23.5961 C   0  0  0  0  0  0  0  0  0  0  0  0
   11.2917   -2.9807   23.2490 F   0  0  0  0  0  0  0  0  0  0  0  0
    9.2355   -2.0024   22.7165 C   0  0  0  0  0  0  0  0  0  0  0  0
    9.6962   -1.6574   21.7958 H   0  0  0  0  0  0  0  0  0  0  0  0
  1  2  1  0
  2  3  2  3
  3  4  1  0
  4  5  2  0
  5  6  1  0
  5  7  1  0
  7  8  2  0
  8  9  1  0
  8 10  1  0
 10 11  1  0
 10 12  2  0
 12 13  1  0
  2 14  1  0
 14 15  2  0
 15 16  1  0
 15 17  1  0
 17 18  1  0
 17 19  2  0
 19 20  1  0
 20 21  1  0
 21 22  1  0
 21 23  1  0
 21 24  1  0
 19 25  1  0
 25 26  1  0
 25 27  2  0
 27 28  1  0
 12  4  1  0
 27 14  1  0
M  END
>  <plip>  (1) 
-0.0

>  <filename>  (1) 
[H][C](=[N][c]1[c]([H])[n][c]([H])[c]([H])[c]1[H])[c]1[c]([H])[c]([H])[c]([O][C]([H])([H])[H])[c]([F])[c]1[H]

$$$$
