
     RDKit          3D

 45 47  0  0  0  0  0  0  0  0999 V2000
    9.1127    0.3719   24.1055 C   0  0  0  0  0  0  0  0  0  0  0  0
    8.6110   -0.4727   23.0746 O   0  0  0  0  0  0  0  0  0  0  0  0
    7.9825    0.2364   22.0465 C   0  0  0  0  0  0  0  0  0  0  0  0
    8.9365    1.0284   21.3772 O   0  0  0  0  0  0  0  0  0  0  0  0
    8.5577    2.3800   21.2302 C   0  0  0  0  0  0  0  0  0  0  0  0
    9.3299    2.8549   20.6272 H   0  0  0  0  0  0  0  0  0  0  0  0
    8.5061    2.8956   22.2030 H   0  0  0  0  0  0  0  0  0  0  0  0
    7.5816    2.4653   20.7297 H   0  0  0  0  0  0  0  0  0  0  0  0
    7.3364   -0.7320   21.0073 C   0  0  0  0  0  0  0  0  0  0  0  0
    6.3729   -1.6329   21.6226 N   0  0  0  0  0  0  0  0  0  0  0  0
    5.8239   -2.7104   20.9978 C   0  0  0  0  0  0  0  0  0  0  0  0
    5.8586   -2.8975   19.7990 O   0  0  0  0  0  0  0  0  0  0  0  0
    5.1270   -3.6361   21.9839 C   0  0  0  0  0  0  0  0  0  0  0  0
    6.0707   -4.1031   23.0360 C   0  0  0  0  0  0  0  0  0  0  0  0
    6.1536   -3.7171   24.3493 C   0  0  0  0  0  0  0  0  0  0  0  0
    7.1836   -4.4471   24.8882 N   0  0  0  0  0  0  0  0  0  0  0  0
    7.6766   -4.5197   26.1779 C   0  0  0  0  0  0  0  0  0  0  0  0
    8.7145   -5.3656   26.4174 C   0  0  0  0  0  0  0  0  0  0  0  0
    9.2136   -5.4700   27.6603 F   0  0  0  0  0  0  0  0  0  0  0  0
    9.2920   -6.1634   25.3858 C   0  0  0  0  0  0  0  0  0  0  0  0
    8.7718   -6.1012   24.1179 C   0  0  0  0  0  0  0  0  0  0  0  0
    7.6902   -5.2223   23.8425 C   0  0  0  0  0  0  0  0  0  0  0  0
    7.0336   -5.0076   22.7139 N   0  0  0  0  0  0  0  0  0  0  0  0
    9.1137   -6.7098   23.2932 H   0  0  0  0  0  0  0  0  0  0  0  0
   10.1386   -6.7897   25.6457 H   0  0  0  0  0  0  0  0  0  0  0  0
    7.2172   -3.9098   26.9386 H   0  0  0  0  0  0  0  0  0  0  0  0
    5.5876   -3.0122   24.9375 H   0  0  0  0  0  0  0  0  0  0  0  0
    4.2836   -3.1013   22.4284 H   0  0  0  0  0  0  0  0  0  0  0  0
    4.7425   -4.4927   21.4364 H   0  0  0  0  0  0  0  0  0  0  0  0
    6.3029   -1.6322   22.6269 H   0  0  0  0  0  0  0  0  0  0  0  0
    6.6324    0.0049   19.8815 C   0  0  0  0  0  0  0  0  0  0  0  0
    5.4226    0.6807   20.0972 C   0  0  0  0  0  0  0  0  0  0  0  0
    4.8281    1.3579   19.0345 C   0  0  0  0  0  0  0  0  0  0  0  0
    5.4626    1.3252   17.7859 C   0  0  0  0  0  0  0  0  0  0  0  0
    6.6059    0.6673   17.5470 N   0  0  0  0  0  0  0  0  0  0  0  0
    7.1594    0.0196   18.5872 C   0  0  0  0  0  0  0  0  0  0  0  0
    8.0751   -0.5359   18.3696 H   0  0  0  0  0  0  0  0  0  0  0  0
    5.0247    1.8485   16.9400 H   0  0  0  0  0  0  0  0  0  0  0  0
    3.8933    1.8916   19.1626 H   0  0  0  0  0  0  0  0  0  0  0  0
    4.9409    0.6402   21.0777 H   0  0  0  0  0  0  0  0  0  0  0  0
    8.1932   -1.2909   20.6025 H   0  0  0  0  0  0  0  0  0  0  0  0
    7.1828    0.8729   22.4799 H   0  0  0  0  0  0  0  0  0  0  0  0
    8.2971    0.9010   24.6276 H   0  0  0  0  0  0  0  0  0  0  0  0
    9.8218    1.1133   23.7100 H   0  0  0  0  0  0  0  0  0  0  0  0
    9.6316   -0.2679   24.8230 H   0  0  0  0  0  0  0  0  0  0  0  0
  1  2  1  0
  2  3  1  0
  3  4  1  0
  4  5  1  0
  5  6  1  0
  5  7  1  0
  5  8  1  0
  3  9  1  0
  9 10  1  0
 10 11  1  0
 11 12  2  0
 11 13  1  0
 13 14  1  0
 14 15  2  0
 15 16  1  0
 16 17  1  0
 17 18  2  0
 18 19  1  0
 18 20  1  0
 20 21  2  0
 21 22  1  0
 22 23  2  0
 21 24  1  0
 20 25  1  0
 17 26  1  0
 15 27  1  0
 13 28  1  0
 13 29  1  0
 10 30  1  0
  9 31  1  0
 31 32  2  0
 32 33  1  0
 33 34  2  0
 34 35  1  0
 35 36  2  0
 36 37  1  0
 34 38  1  0
 33 39  1  0
 32 40  1  0
  9 41  1  0
  3 42  1  0
  1 43  1  0
  1 44  1  0
  1 45  1  0
 23 14  1  0
 36 31  1  0
 22 16  1  0
M  END
>  <plip>  (1) 
-0.23333333333333334

>  <filename>  (1) 
[H][c]1[n][c]([H])[c]([C]([H])([N]([H])[C](=[O])[C]([H])([H])[c]2[n][c]3[c]([H])[c]([H])[c]([F])[c]([H])[n]3[c]2[H])[C]([H])([O][C]([H])([H])[H])[O][C]([H])([H])[H])[c]([H])[c]1[H]

$$$$
