
     RDKit          3D

 26 27  0  0  0  0  0  0  0  0999 V2000
    9.8899   -3.6834   23.9326 H   0  0  0  0  0  0  0  0  0  0  0  0
   10.2416   -2.9722   23.1833 C   0  0  0  0  0  0  0  0  0  0  0  0
    9.3485   -2.1811   22.6208 N   0  0  0  0  0  0  0  0  0  0  0  0
    9.8133   -1.3565   21.6927 C   0  0  0  0  0  0  0  0  0  0  0  0
    8.9798   -0.6373   20.8848 O   0  0  0  0  0  0  0  0  0  0  0  0
    7.4254   -0.9341   21.2295 S   0  0  0  0  0  0  0  0  0  0  0  0
    7.1197   -2.2969   20.8766 O   0  0  0  0  0  0  0  0  0  0  0  0
    7.1224   -0.3708   22.5165 O   0  0  0  0  0  0  0  0  0  0  0  0
    6.7983    0.1057   20.0012 C   0  0  0  0  0  0  0  0  0  0  0  0
    7.3783   -0.0273   18.7482 C   0  0  0  0  0  0  0  0  0  0  0  0
    8.3200   -0.5459   18.5702 H   0  0  0  0  0  0  0  0  0  0  0  0
    6.8041    0.4979   17.6681 N   0  0  0  0  0  0  0  0  0  0  0  0
    5.6493    1.1610   17.8230 C   0  0  0  0  0  0  0  0  0  0  0  0
    5.2042    1.5650   16.9159 H   0  0  0  0  0  0  0  0  0  0  0  0
    5.0206    1.3442   19.0591 C   0  0  0  0  0  0  0  0  0  0  0  0
    4.0856    1.8887   19.1131 H   0  0  0  0  0  0  0  0  0  0  0  0
    5.6116    0.8191   20.1992 C   0  0  0  0  0  0  0  0  0  0  0  0
    5.1668    0.9421   21.1922 H   0  0  0  0  0  0  0  0  0  0  0  0
   11.0859   -1.1337   21.3843 N   0  0  0  0  0  0  0  0  0  0  0  0
   11.9902   -1.9317   21.9541 C   0  0  0  0  0  0  0  0  0  0  0  0
   13.4913   -1.7134   21.5833 C   0  0  0  0  0  0  0  0  0  0  0  0
   14.2721   -2.6988   22.0516 F   0  0  0  0  0  0  0  0  0  0  0  0
   13.9544   -0.5715   22.1172 F   0  0  0  0  0  0  0  0  0  0  0  0
   13.7023   -1.6721   20.2617 F   0  0  0  0  0  0  0  0  0  0  0  0
   11.5912   -2.9195   22.8559 C   0  0  0  0  0  0  0  0  0  0  0  0
   12.2866   -3.6016   23.3128 H   0  0  0  0  0  0  0  0  0  0  0  0
  1  2  1  0
  2  3  2  0
  3  4  1  0
  4  5  1  0
  5  6  1  0
  6  7  2  0
  6  8  2  0
  6  9  1  0
  9 10  2  0
 10 11  1  0
 10 12  1  0
 12 13  2  0
 13 14  1  0
 13 15  1  0
 15 16  1  0
 15 17  2  0
 17 18  1  0
  4 19  2  0
 19 20  1  0
 20 21  1  0
 21 22  1  0
 21 23  1  0
 21 24  1  0
 20 25  2  0
 25 26  1  0
 25  2  1  0
 17  9  1  0
M  END
>  <plip>  (1) 
-0.14285714285714285

>  <filename>  (1) 
[H][c]1[n][c]([O][S](=[O])(=[O])[c]2[c]([H])[n][c]([H])[c]([H])[c]2[H])[n][c]([C]([F])([F])[F])[c]1[H]

$$$$
