
     RDKit          3D

 33 34  0  0  0  0  0  0  0  0999 V2000
    9.9093   -4.1868   26.5317 C   0  0  0  0  0  0  0  0  0  0  0  0
    8.6878   -4.2728   25.6350 C   0  0  1  0  0  0  0  0  0  0  0  0
    8.7161   -3.2500   24.6025 N   0  0  0  0  0  0  0  0  0  0  0  0
    7.5976   -2.9340   23.8839 C   0  0  0  0  0  0  0  0  0  0  0  0
    6.5084   -3.4305   24.1388 O   0  0  0  0  0  0  0  0  0  0  0  0
    7.7611   -1.9545   22.7450 C   0  0  0  0  0  0  0  0  0  0  0  0
    8.9056   -1.3634   22.3783 N   0  0  0  0  0  0  0  0  0  0  0  0
    8.5859   -0.6116   21.3216 N   0  0  0  0  0  0  0  0  0  0  0  0
    9.6470    0.1047   20.6543 C   0  0  0  0  0  0  0  0  0  0  0  0
    9.2750    1.0570   20.2736 H   0  0  0  0  0  0  0  0  0  0  0  0
   10.4320    0.2890   21.3860 H   0  0  0  0  0  0  0  0  0  0  0  0
   10.0509   -0.5016   19.8388 H   0  0  0  0  0  0  0  0  0  0  0  0
    7.2698   -0.7090   20.9744 C   0  0  0  0  0  0  0  0  0  0  0  0
    6.6165    0.0206   19.8643 C   0  0  0  0  0  0  0  0  0  0  0  0
    5.3993    0.6820   20.0855 C   0  0  0  0  0  0  0  0  0  0  0  0
    4.7898    1.3509   19.0209 C   0  0  0  0  0  0  0  0  0  0  0  0
    5.4065    1.3371   17.7650 C   0  0  0  0  0  0  0  0  0  0  0  0
    6.5626    0.6997   17.5213 N   0  0  0  0  0  0  0  0  0  0  0  0
    7.1372    0.0637   18.5538 C   0  0  0  0  0  0  0  0  0  0  0  0
    8.0684   -0.4523   18.3271 H   0  0  0  0  0  0  0  0  0  0  0  0
    4.9519    1.8547   16.9205 H   0  0  0  0  0  0  0  0  0  0  0  0
    3.8541    1.8799   19.1520 H   0  0  0  0  0  0  0  0  0  0  0  0
    4.9597    0.6860   21.0847 H   0  0  0  0  0  0  0  0  0  0  0  0
    6.7134   -1.5736   21.8891 C   0  0  0  0  0  0  0  0  0  0  0  0
    5.6953   -1.9228   21.9480 H   0  0  0  0  0  0  0  0  0  0  0  0
    9.5917   -2.8339   24.3038 H   0  0  0  0  0  0  0  0  0  0  0  0
    8.4933   -5.9906   25.1672 C   0  0  0  0  0  0  0  0  0  0  0  0
    7.7977   -6.5311   26.0313 O   0  0  0  0  0  0  0  0  0  0  0  0
    9.0557   -6.3513   24.1352 O   0  0  0  0  0  1  0  0  0  0  0  0
    7.7626   -4.1384   26.1947 H   0  0  0  0  0  0  0  0  0  0  0  0
   10.8416   -4.2798   25.9570 H   0  0  0  0  0  0  0  0  0  0  0  0
    9.8905   -3.2491   27.0953 H   0  0  0  0  0  0  0  0  0  0  0  0
    9.8929   -4.9950   27.2678 H   0  0  0  0  0  0  0  0  0  0  0  0
  1  2  1  0
  2  3  1  0
  3  4  1  0
  4  5  2  0
  4  6  1  0
  6  7  2  0
  7  8  1  0
  8  9  1  0
  9 10  1  0
  9 11  1  0
  9 12  1  0
  8 13  1  0
 13 14  1  0
 14 15  2  0
 15 16  1  0
 16 17  2  0
 17 18  1  0
 18 19  2  0
 19 20  1  0
 17 21  1  0
 16 22  1  0
 15 23  1  0
 13 24  2  0
 24 25  1  0
  3 26  1  0
  2 27  1  0
 27 28  2  0
 27 29  1  0
  2 30  1  1
  1 31  1  0
  1 32  1  0
  1 33  1  0
 24  6  1  0
 19 14  1  0
M  CHG  1  29  -1
M  END
>  <plip>  (1) 
-0.07142857142857142

>  <filename>  (1) 
[H][c]1[n][c]([H])[c](-[c]2[c]([H])[c]([C](=[O])[N]([H])[C@@]([H])([C](=[O])[O-])[C]([H])([H])[H])[n][n]2[C]([H])([H])[H])[c]([H])[c]1[H]

$$$$
