
     RDKit          3D

 41 44  0  0  0  0  0  0  0  0999 V2000
    4.9621    1.8401   16.8592 H   0  0  0  0  0  0  0  0  0  0  0  0
    5.3844    1.3163   17.7126 C   0  0  0  0  0  0  0  0  0  0  0  0
    6.5189    0.6401   17.4788 N   0  0  0  0  0  0  0  0  0  0  0  0
    7.0804    0.0083   18.5119 C   0  0  0  0  0  0  0  0  0  0  0  0
    7.9917   -0.5493   18.3037 H   0  0  0  0  0  0  0  0  0  0  0  0
    6.5681    0.0370   19.8235 C   0  0  0  0  0  0  0  0  0  0  0  0
    7.3396   -0.5731   20.9149 C   0  0  0  0  0  0  0  0  0  0  0  0
    8.1632   -1.6066   20.7145 N   0  0  0  0  0  0  0  0  0  0  0  0
    8.6999   -1.8191   21.9120 N   0  0  0  0  0  0  0  0  0  0  0  0
    8.3253   -0.9689   22.8734 C   0  0  0  0  0  0  0  0  0  0  0  0
    7.3787   -0.1473   22.2838 C   0  0  0  0  0  0  0  0  0  0  0  0
    6.5760    0.8496   22.9053 N   0  0  0  0  0  0  0  0  0  0  0  0
    6.5572    1.7438   22.4295 H   0  0  0  0  0  0  0  0  0  0  0  0
    6.5394    1.1025   24.2662 C   0  0  0  0  0  0  0  0  0  0  0  0
    6.6088    2.6662   24.8068 S   0  0  0  0  0  0  0  0  0  0  0  0
    6.3819   -0.0291   24.9926 N   0  0  0  0  0  0  0  0  0  0  0  0
    6.0571   -0.8048   24.4365 H   0  0  0  0  0  0  0  0  0  0  0  0
    6.3689   -0.1414   26.3969 C   0  0  0  0  0  0  0  0  0  0  0  0
    7.3327    0.5380   27.1524 C   0  0  0  0  0  0  0  0  0  0  0  0
    8.1044    1.0852   26.6254 H   0  0  0  0  0  0  0  0  0  0  0  0
    7.2450    0.5483   28.5434 C   0  0  0  0  0  0  0  0  0  0  0  0
    7.9829    1.1097   29.1124 H   0  0  0  0  0  0  0  0  0  0  0  0
    6.1934   -0.1180   29.1813 C   0  0  0  0  0  0  0  0  0  0  0  0
    6.1102   -0.0834   30.2624 H   0  0  0  0  0  0  0  0  0  0  0  0
    5.2750   -0.8590   28.4318 C   0  0  0  0  0  0  0  0  0  0  0  0
    4.4923   -1.4236   28.9361 H   0  0  0  0  0  0  0  0  0  0  0  0
    5.3831   -0.8965   27.0389 C   0  0  0  0  0  0  0  0  0  0  0  0
    4.6752   -1.4753   26.4571 H   0  0  0  0  0  0  0  0  0  0  0  0
    9.0764   -1.2831   24.1377 C   0  0  0  0  0  0  0  0  0  0  0  0
    9.4561   -0.3906   24.6402 H   0  0  0  0  0  0  0  0  0  0  0  0
    8.4199   -1.8039   24.8421 H   0  0  0  0  0  0  0  0  0  0  0  0
   10.1923   -2.2334   23.6317 C   0  0  0  0  0  0  0  0  0  0  0  0
   11.0951   -1.6627   23.3963 H   0  0  0  0  0  0  0  0  0  0  0  0
   10.4612   -3.0039   24.3555 H   0  0  0  0  0  0  0  0  0  0  0  0
    9.6404   -2.8320   22.3206 C   0  0  0  0  0  0  0  0  0  0  0  0
   10.3988   -2.9304   21.5534 H   0  0  0  0  0  0  0  0  0  0  0  0
    9.1343   -3.7947   22.4705 H   0  0  0  0  0  0  0  0  0  0  0  0
    5.3496    0.7070   20.0386 C   0  0  0  0  0  0  0  0  0  0  0  0
    4.8874    0.7118   21.0284 H   0  0  0  0  0  0  0  0  0  0  0  0
    4.7532    1.3580   18.9608 C   0  0  0  0  0  0  0  0  0  0  0  0
    3.8289    1.9124   19.0726 H   0  0  0  0  0  0  0  0  0  0  0  0
  1  2  1  0
  2  3  2  0
  3  4  1  0
  4  5  1  0
  4  6  2  0
  6  7  1  0
  7  8  2  0
  8  9  1  0
  9 10  1  0
 10 11  2  0
 11 12  1  0
 12 13  1  0
 12 14  1  0
 14 15  2  0
 14 16  1  0
 16 17  1  0
 16 18  1  0
 18 19  2  0
 19 20  1  0
 19 21  1  0
 21 22  1  0
 21 23  2  0
 23 24  1  0
 23 25  1  0
 25 26  1  0
 25 27  2  0
 27 28  1  0
 10 29  1  0
 29 30  1  0
 29 31  1  0
 29 32  1  0
 32 33  1  0
 32 34  1  0
 32 35  1  0
 35 36  1  0
 35 37  1  0
  6 38  1  0
 38 39  1  0
 38 40  2  0
 40 41  1  0
 40  2  1  0
 11  7  1  0
 27 18  1  0
 35  9  1  0
M  END
>  <plip>  (1) 
-0.14285714285714285

>  <filename>  (1) 
[H][c]1[n][c]([H])[c](-[c]2[n][n]3[c]([c]2[N]([H])[C](=[S])[N]([H])[c]2[c]([H])[c]([H])[c]([H])[c]([H])[c]2[H])[C]([H])([H])[C]([H])([H])[C]3([H])[H])[c]([H])[c]1[H]

$$$$
