
     RDKit          3D

 45 47  0  0  0  0  0  0  0  0999 V2000
    4.2557   -2.1268   25.4992 O   0  0  0  0  0  0  0  0  0  0  0  0
    4.8972   -1.0981   25.6331 C   0  0  0  0  0  0  0  0  0  0  0  0
    4.4945   -0.0398   26.6608 C   0  0  0  0  0  0  0  0  0  0  0  0
    4.1808    1.3660   26.1712 C   0  0  2  0  0  0  0  0  0  0  0  0
    3.0264    2.1108   26.7888 C   0  0  0  0  0  0  0  0  0  0  0  0
    2.9343    1.6228   25.3671 C   0  0  1  0  0  0  0  0  0  0  0  0
    2.9431    2.5914   24.2167 C   0  0  0  0  0  0  0  0  0  0  0  0
    1.9073    3.5273   24.0602 C   0  0  0  0  0  0  0  0  0  0  0  0
    1.8909    4.4004   22.9660 C   0  0  0  0  0  0  0  0  0  0  0  0
    2.9039    4.3392   22.0021 C   0  0  0  0  0  0  0  0  0  0  0  0
    3.9300    3.3991   22.1410 C   0  0  0  0  0  0  0  0  0  0  0  0
    3.9519    2.5417   23.2441 C   0  0  0  0  0  0  0  0  0  0  0  0
    4.7583    1.8241   23.3612 H   0  0  0  0  0  0  0  0  0  0  0  0
    4.7198    3.3245   21.3953 H   0  0  0  0  0  0  0  0  0  0  0  0
    2.9061    5.0207   21.1535 H   0  0  0  0  0  0  0  0  0  0  0  0
    1.0962    5.1339   22.8629 H   0  0  0  0  0  0  0  0  0  0  0  0
    1.1185    3.5699   24.8082 H   0  0  0  0  0  0  0  0  0  0  0  0
    2.2953    0.7520   25.2121 H   0  0  0  0  0  0  0  0  0  0  0  0
    2.4434    1.5824   27.5390 H   0  0  0  0  0  0  0  0  0  0  0  0
    3.1219    3.1781   26.9727 H   0  0  0  0  0  0  0  0  0  0  0  0
    5.0552    1.9708   25.9193 H   0  0  0  0  0  0  0  0  0  0  0  0
    5.2855    0.0123   27.4200 H   0  0  0  0  0  0  0  0  0  0  0  0
    3.6199   -0.4681   27.1594 H   0  0  0  0  0  0  0  0  0  0  0  0
    6.0672   -0.8607   24.9680 N   0  0  0  0  0  0  0  0  0  0  0  0
    6.6898   -1.8770   24.1380 C   0  0  0  0  0  0  0  0  0  0  0  0
    7.8135   -1.2035   23.3561 C   0  0  0  0  0  0  0  0  0  0  0  0
    7.2477   -0.1612   22.4213 C   0  0  0  0  0  0  0  0  0  0  0  0
    6.7743    0.8783   22.8457 O   0  0  0  0  0  0  0  0  0  0  0  0
    7.2942   -0.5119   21.1005 N   0  0  0  0  0  0  0  0  0  0  0  0
    6.6491    0.1147   20.0017 C   0  0  0  0  0  0  0  0  0  0  0  0
    5.4478    0.8031   20.1813 C   0  0  0  0  0  0  0  0  0  0  0  0
    4.8320    1.3791   19.0617 C   0  0  0  0  0  0  0  0  0  0  0  0
    5.4488    1.2627   17.8115 C   0  0  0  0  0  0  0  0  0  0  0  0
    6.5998    0.5947   17.6182 N   0  0  0  0  0  0  0  0  0  0  0  0
    7.1755    0.0317   18.6897 C   0  0  0  0  0  0  0  0  0  0  0  0
    8.0993   -0.5206   18.5148 H   0  0  0  0  0  0  0  0  0  0  0  0
    5.0015    1.7117   16.9273 H   0  0  0  0  0  0  0  0  0  0  0  0
    3.8884    1.9158   19.1465 H   0  0  0  0  0  0  0  0  0  0  0  0
    5.0093    0.8530   21.1762 H   0  0  0  0  0  0  0  0  0  0  0  0
    7.7061   -1.4134   20.9395 H   0  0  0  0  0  0  0  0  0  0  0  0
    8.4307   -1.9289   22.8236 H   0  0  0  0  0  0  0  0  0  0  0  0
    8.4635   -0.6752   24.0562 H   0  0  0  0  0  0  0  0  0  0  0  0
    5.9584   -2.3597   23.4735 H   0  0  0  0  0  0  0  0  0  0  0  0
    7.0914   -2.6822   24.7665 H   0  0  0  0  0  0  0  0  0  0  0  0
    6.2722    0.1014   24.7207 H   0  0  0  0  0  0  0  0  0  0  0  0
  1  2  2  0
  2  3  1  0
  3  4  1  0
  4  5  1  0
  5  6  1  0
  6  7  1  0
  7  8  2  0
  8  9  1  0
  9 10  2  0
 10 11  1  0
 11 12  2  0
 12 13  1  0
 11 14  1  0
 10 15  1  0
  9 16  1  0
  8 17  1  0
  6 18  1  1
  5 19  1  0
  5 20  1  0
  4 21  1  6
  3 22  1  0
  3 23  1  0
  2 24  1  0
 24 25  1  0
 25 26  1  0
 26 27  1  0
 27 28  2  0
 27 29  1  0
 29 30  1  0
 30 31  2  0
 31 32  1  0
 32 33  2  0
 33 34  1  0
 34 35  2  0
 35 36  1  0
 33 37  1  0
 32 38  1  0
 31 39  1  0
 29 40  1  0
 26 41  1  0
 26 42  1  0
 25 43  1  0
 25 44  1  0
 24 45  1  0
  6  4  1  0
 12  7  1  0
 35 30  1  0
M  END
>  <plip>  (1) 
-0.03571428571428571

>  <filename>  (1) 
[H][c]1[n][c]([H])[c]([N]([H])[C](=[O])[C]([H])([H])[C]([H])([H])[N]([H])[C](=[O])[C]([H])([H])[C@]2([H])[C]([H])([H])[C@@]2([H])[c]2[c]([H])[c]([H])[c]([H])[c]([H])[c]2[H])[c]([H])[c]1[H]

$$$$
