
     RDKit          3D

 27 28  0  0  0  0  0  0  0  0999 V2000
    4.9323    1.8054   16.9672 H   0  0  0  0  0  0  0  0  0  0  0  0
    5.3925    1.3010   17.8199 C   0  0  0  0  0  0  0  0  0  0  0  0
    6.5589    0.6860   17.5651 N   0  0  0  0  0  0  0  0  0  0  0  0
    7.1506    0.0594   18.5887 C   0  0  0  0  0  0  0  0  0  0  0  0
    8.1069   -0.4133   18.3709 H   0  0  0  0  0  0  0  0  0  0  0  0
    6.6091   -0.0136   19.8778 C   0  0  0  0  0  0  0  0  0  0  0  0
    7.5273   -0.8461   21.1631 S   0  0  0  0  0  0  0  0  0  0  0  0
    8.4594    0.4755   21.7190 N   0  0  0  0  0  0  0  0  0  0  0  0
    8.0989    0.9530   23.0613 C   0  0  0  0  0  0  0  0  0  0  0  0
    8.3099    0.1629   23.8028 H   0  0  0  0  0  0  0  0  0  0  0  0
    7.0167    1.1223   23.0775 H   0  0  0  0  0  0  0  0  0  0  0  0
    8.8482    2.2356   23.4586 C   0  0  0  0  0  0  0  0  0  0  0  0
    8.4835    3.0716   22.8472 H   0  0  0  0  0  0  0  0  0  0  0  0
    8.5912    2.4763   24.4981 H   0  0  0  0  0  0  0  0  0  0  0  0
   10.3693    2.0688   23.2902 C   0  0  0  0  0  0  0  0  0  0  0  0
   10.8980    3.0007   23.5282 H   0  0  0  0  0  0  0  0  0  0  0  0
   10.7369    1.3246   24.0138 H   0  0  0  0  0  0  0  0  0  0  0  0
   10.6900    1.5953   21.8597 C   0  0  0  0  0  0  0  0  0  0  0  0
   11.7599    1.3800   21.7464 H   0  0  0  0  0  0  0  0  0  0  0  0
   10.4510    2.3844   21.1341 H   0  0  0  0  0  0  0  0  0  0  0  0
    9.9017    0.3235   21.5091 C   0  0  0  0  0  0  0  0  0  0  0  0
   10.0375    0.0510   20.4595 H   0  0  0  0  0  0  0  0  0  0  0  0
   10.2802   -0.5216   22.1102 H   0  0  0  0  0  0  0  0  0  0  0  0
    5.3989    0.6357   20.1381 C   0  0  0  0  0  0  0  0  0  0  0  0
    4.9824    0.6411   21.1488 H   0  0  0  0  0  0  0  0  0  0  0  0
    4.7831    1.3101   19.0814 C   0  0  0  0  0  0  0  0  0  0  0  0
    3.8603    1.8561   19.2312 H   0  0  0  0  0  0  0  0  0  0  0  0
  1  2  1  0
  2  3  2  0
  3  4  1  0
  4  5  1  0
  4  6  2  0
  6  7  1  0
  7  8  1  0
  8  9  1  0
  9 10  1  0
  9 11  1  0
  9 12  1  0
 12 13  1  0
 12 14  1  0
 12 15  1  0
 15 16  1  0
 15 17  1  0
 15 18  1  0
 18 19  1  0
 18 20  1  0
 18 21  1  0
 21 22  1  0
 21 23  1  0
  6 24  1  0
 24 25  1  0
 24 26  2  0
 26 27  1  0
 26  2  1  0
 21  8  1  0
M  END
>  <plip>  (1) 
-0.03571428571428571

>  <filename>  (1) 
[H][c]1[n][c]([H])[c]([S][N]2[C]([H])([H])[C]([H])([H])[C]([H])([H])[C]([H])([H])[C]2([H])[H])[c]([H])[c]1[H]

$$$$
