
     RDKit          3D

 34 35  0  0  0  0  0  0  0  0999 V2000
    5.0766    1.6931   17.0190 H   0  0  0  0  0  0  0  0  0  0  0  0
    5.5399    1.2322   17.8898 C   0  0  0  0  0  0  0  0  0  0  0  0
    6.6920    0.5816   17.6761 N   0  0  0  0  0  0  0  0  0  0  0  0
    7.2832   -0.0132   18.7109 C   0  0  0  0  0  0  0  0  0  0  0  0
    8.2098   -0.5427   18.4983 H   0  0  0  0  0  0  0  0  0  0  0  0
    6.7482    0.0418   19.9889 C   0  0  0  0  0  0  0  0  0  0  0  0
    7.5348   -0.9722   21.1701 S   0  0  0  0  0  0  0  0  0  0  0  0
    8.6588   -1.6354   20.5185 O   0  0  0  0  0  0  0  0  0  0  0  0
    6.4940   -1.7690   21.8045 O   0  0  0  0  0  0  0  0  0  0  0  0
    8.2715    0.1743   22.4357 C   0  0  0  0  0  0  0  0  0  0  0  0
    9.4448    0.7007   21.5883 C   0  0  0  0  0  0  0  0  0  0  0  0
    9.2324    1.1142   20.4733 O   0  0  0  0  0  0  0  0  0  0  0  0
   10.8331    0.7917   22.1929 C   0  0  0  0  0  0  0  0  0  0  0  0
   11.0997    1.7972   23.1341 C   0  0  0  0  0  0  0  0  0  0  0  0
   10.3448    2.5225   23.4192 H   0  0  0  0  0  0  0  0  0  0  0  0
   12.3682    1.8781   23.7105 C   0  0  0  0  0  0  0  0  0  0  0  0
   12.5636    2.6542   24.4387 H   0  0  0  0  0  0  0  0  0  0  0  0
   13.3730    1.0435   23.4199 N   0  0  0  0  0  0  0  0  0  0  0  0
   13.1309    0.0895   22.5114 C   0  0  0  0  0  0  0  0  0  0  0  0
   13.9753   -0.5685   22.3010 H   0  0  0  0  0  0  0  0  0  0  0  0
   11.8897   -0.0846   21.8751 C   0  0  0  0  0  0  0  0  0  0  0  0
   11.7643   -0.8889   21.1553 H   0  0  0  0  0  0  0  0  0  0  0  0
    7.3712    1.3325   22.9203 C   0  0  0  0  0  0  0  0  0  0  0  0
    7.0675    2.0164   22.1184 H   0  0  0  0  0  0  0  0  0  0  0  0
    7.9309    1.9249   23.6561 H   0  0  0  0  0  0  0  0  0  0  0  0
    6.4804    0.9483   23.4291 H   0  0  0  0  0  0  0  0  0  0  0  0
    8.7142   -0.6832   23.6409 C   0  0  0  0  0  0  0  0  0  0  0  0
    9.4253   -1.4641   23.3428 H   0  0  0  0  0  0  0  0  0  0  0  0
    7.8419   -1.1517   24.1082 H   0  0  0  0  0  0  0  0  0  0  0  0
    9.2068   -0.0485   24.3881 H   0  0  0  0  0  0  0  0  0  0  0  0
    5.5390    0.6996   20.2326 C   0  0  0  0  0  0  0  0  0  0  0  0
    5.0680    0.7462   21.2194 H   0  0  0  0  0  0  0  0  0  0  0  0
    4.9283    1.3117   19.1428 C   0  0  0  0  0  0  0  0  0  0  0  0
    3.9925    1.8450   19.2471 H   0  0  0  0  0  0  0  0  0  0  0  0
  1  2  1  0
  2  3  2  0
  3  4  1  0
  4  5  1  0
  4  6  2  0
  6  7  1  0
  7  8  2  0
  7  9  2  0
  7 10  1  0
 10 11  1  0
 11 12  2  0
 11 13  1  0
 13 14  2  0
 14 15  1  0
 14 16  1  0
 16 17  1  0
 16 18  2  0
 18 19  1  0
 19 20  1  0
 19 21  2  0
 21 22  1  0
 10 23  1  0
 23 24  1  0
 23 25  1  0
 23 26  1  0
 10 27  1  0
 27 28  1  0
 27 29  1  0
 27 30  1  0
  6 31  1  0
 31 32  1  0
 31 33  2  0
 33 34  1  0
 33  2  1  0
 21 13  1  0
M  END
>  <plip>  (1) 
-0.10714285714285714

>  <filename>  (1) 
[H][c]1[n][c]([H])[c]([S](=[O])(=[O])[C]([C](=[O])[c]2[c]([H])[c]([H])[n][c]([H])[c]2[H])([C]([H])([H])[H])[C]([H])([H])[H])[c]([H])[c]1[H]

$$$$
