
     RDKit          3D

 28 29  0  0  0  0  0  0  0  0999 V2000
    4.9142    1.7803   16.9958 H   0  0  0  0  0  0  0  0  0  0  0  0
    5.4047    1.2935   17.8386 C   0  0  0  0  0  0  0  0  0  0  0  0
    6.5702    0.6742   17.5768 N   0  0  0  0  0  0  0  0  0  0  0  0
    7.1786    0.0644   18.6022 C   0  0  0  0  0  0  0  0  0  0  0  0
    8.1219   -0.4215   18.3604 H   0  0  0  0  0  0  0  0  0  0  0  0
    6.6677   -0.0086   19.9237 C   0  0  0  0  0  0  0  0  0  0  0  0
    7.2921   -0.7214   20.9270 N   0  0  0  0  0  0  0  0  0  0  0  0
    6.8153   -0.8296   21.8145 H   0  0  0  0  0  0  0  0  0  0  0  0
    8.6371   -1.0700   20.9064 N   0  0  0  0  0  0  0  0  0  0  0  0
    8.8131   -1.6564   20.0954 H   0  0  0  0  0  0  0  0  0  0  0  0
    9.5635    0.0718   20.9805 C   0  0  0  0  0  0  0  0  0  0  0  0
    9.3635    0.7828   20.1684 H   0  0  0  0  0  0  0  0  0  0  0  0
   10.5787   -0.3128   20.8430 H   0  0  0  0  0  0  0  0  0  0  0  0
    9.4590    0.7828   22.3108 C   0  0  0  0  0  0  0  0  0  0  0  0
   10.1084    0.2681   23.4409 C   0  0  0  0  0  0  0  0  0  0  0  0
   10.7154   -0.6283   23.3437 H   0  0  0  0  0  0  0  0  0  0  0  0
    9.9693    0.8836   24.6820 C   0  0  0  0  0  0  0  0  0  0  0  0
   10.4810    0.4896   25.5547 H   0  0  0  0  0  0  0  0  0  0  0  0
    9.1628    2.0187   24.8112 C   0  0  0  0  0  0  0  0  0  0  0  0
    8.9966    2.7595   26.3572 Cl  0  0  0  0  0  0  0  0  0  0  0  0
    8.4910    2.5315   23.6931 C   0  0  0  0  0  0  0  0  0  0  0  0
    7.4758    3.9259   23.8068 Cl  0  0  0  0  0  0  0  0  0  0  0  0
    8.6401    1.9095   22.4532 C   0  0  0  0  0  0  0  0  0  0  0  0
    8.0952    2.3082   21.6030 H   0  0  0  0  0  0  0  0  0  0  0  0
    5.4418    0.6376   20.1714 C   0  0  0  0  0  0  0  0  0  0  0  0
    5.0092    0.6248   21.1785 H   0  0  0  0  0  0  0  0  0  0  0  0
    4.8174    1.3016   19.1130 C   0  0  0  0  0  0  0  0  0  0  0  0
    3.8819    1.8373   19.2649 H   0  0  0  0  0  0  0  0  0  0  0  0
  1  2  1  0
  2  3  2  0
  3  4  1  0
  4  5  1  0
  4  6  2  0
  6  7  1  0
  7  8  1  0
  7  9  1  0
  9 10  1  0
  9 11  1  0
 11 12  1  0
 11 13  1  0
 11 14  1  0
 14 15  2  0
 15 16  1  0
 15 17  1  0
 17 18  1  0
 17 19  2  0
 19 20  1  0
 19 21  1  0
 21 22  1  0
 21 23  2  0
 23 24  1  0
  6 25  1  0
 25 26  1  0
 25 27  2  0
 27 28  1  0
 27  2  1  0
 23 14  1  0
M  END
>  <plip>  (1) 
-0.06896551724137931

>  <filename>  (1) 
[H][c]1[n][c]([H])[c]([N]([H])[N]([H])[C]([H])([H])[c]2[c]([H])[c]([H])[c]([Cl])[c]([Cl])[c]2[H])[c]([H])[c]1[H]

$$$$
