
     RDKit          3D

 26 28  0  0  0  0  0  0  0  0999 V2000
    4.9358    1.7858   17.0336 H   0  0  0  0  0  0  0  0  0  0  0  0
    5.4114    1.2718   17.8663 C   0  0  0  0  0  0  0  0  0  0  0  0
    6.5691    0.6475   17.5902 N   0  0  0  0  0  0  0  0  0  0  0  0
    7.2021    0.0366   18.5965 C   0  0  0  0  0  0  0  0  0  0  0  0
    8.1521   -0.4347   18.3563 H   0  0  0  0  0  0  0  0  0  0  0  0
    6.7014   -0.0200   19.9206 C   0  0  0  0  0  0  0  0  0  0  0  0
    7.3971   -0.6929   20.9954 N   0  0  0  0  0  0  0  0  0  0  0  0
    8.7733   -0.6544   21.1961 C   0  0  0  0  0  0  0  0  0  0  0  0
    9.5736   -0.0665   20.5184 O   0  0  0  0  0  0  0  0  0  0  0  0
    9.0313   -1.5369   22.4157 C   0  0  0  0  0  0  0  0  0  0  0  0
   10.0717   -1.8509   22.9264 O   0  0  0  0  0  0  0  0  0  0  0  0
    7.7800   -1.9840   22.8258 N   0  0  0  0  0  0  0  0  0  0  0  0
    7.5864   -2.8421   23.9359 C   0  0  0  0  0  0  0  0  0  0  0  0
    8.9203   -3.6430   24.7557 S   0  0  0  0  0  0  0  0  0  0  0  0
    7.8032   -4.3679   25.8589 C   0  0  0  0  0  0  0  0  0  0  0  0
    8.3644   -5.4118   27.1113 Cl  0  0  0  0  0  0  0  0  0  0  0  0
    6.5097   -4.0142   25.6237 C   0  0  0  0  0  0  0  0  0  0  0  0
    5.6929   -4.3818   26.2382 H   0  0  0  0  0  0  0  0  0  0  0  0
    6.3851   -3.1296   24.5078 C   0  0  0  0  0  0  0  0  0  0  0  0
    5.4652   -2.7119   24.1105 H   0  0  0  0  0  0  0  0  0  0  0  0
    6.8293   -1.6366   21.8566 C   0  0  0  0  0  0  0  0  0  0  0  0
    5.7438   -2.1295   21.7387 O   0  0  0  0  0  0  0  0  0  0  0  0
    5.4789    0.6099   20.1812 C   0  0  0  0  0  0  0  0  0  0  0  0
    5.0557    0.5622   21.1816 H   0  0  0  0  0  0  0  0  0  0  0  0
    4.8286    1.2821   19.1366 C   0  0  0  0  0  0  0  0  0  0  0  0
    3.8949    1.8198   19.2917 H   0  0  0  0  0  0  0  0  0  0  0  0
  1  2  1  0
  2  3  2  0
  3  4  1  0
  4  5  1  0
  4  6  2  0
  6  7  1  0
  7  8  1  0
  8  9  2  0
  8 10  1  0
 10 11  2  0
 10 12  1  0
 12 13  1  0
 13 14  1  0
 14 15  1  0
 15 16  1  0
 15 17  2  0
 17 18  1  0
 17 19  1  0
 19 20  1  0
 12 21  1  0
 21 22  2  0
  6 23  1  0
 23 24  1  0
 23 25  2  0
 25 26  1  0
 25  2  1  0
 21  7  1  0
 19 13  2  0
M  END
>  <plip>  (1) 
-0.06896551724137931

>  <filename>  (1) 
[H][c]1[n][c]([H])[c]([N]2[C](=[O])[C](=[O])[N]([c]3[s][c]([Cl])[c]([H])[c]3[H])[C]2=[O])[c]([H])[c]1[H]

$$$$
