
     RDKit          3D

 40 42  0  0  0  0  0  0  0  0999 V2000
    4.9351    1.7942   16.9717 H   0  0  0  0  0  0  0  0  0  0  0  0
    5.3892    1.2982   17.8275 C   0  0  0  0  0  0  0  0  0  0  0  0
    6.5519    0.6726   17.5978 N   0  0  0  0  0  0  0  0  0  0  0  0
    7.1534    0.0771   18.6385 C   0  0  0  0  0  0  0  0  0  0  0  0
    8.1030   -0.4049   18.3876 H   0  0  0  0  0  0  0  0  0  0  0  0
    6.6281    0.0525   19.9502 C   0  0  0  0  0  0  0  0  0  0  0  0
    7.3248   -0.6288   21.1252 C   0  0  1  0  0  0  0  0  0  0  0  0
    6.6976   -0.5481   22.0240 H   0  0  0  0  0  0  0  0  0  0  0  0
    7.5314   -2.1201   20.8296 C   0  0  0  0  0  0  0  0  0  0  0  0
    8.1641   -2.0634   19.9477 H   0  0  0  0  0  0  0  0  0  0  0  0
    6.6040   -2.6221   20.5418 H   0  0  0  0  0  0  0  0  0  0  0  0
    8.2350   -2.8981   21.8434 N   0  0  0  0  0  0  0  0  0  0  0  0
    7.6996   -2.8601   22.7093 H   0  0  0  0  0  0  0  0  0  0  0  0
    9.5611   -2.3333   22.0894 C   0  0  0  0  0  0  0  0  0  0  0  0
   10.0542   -2.9257   22.8697 H   0  0  0  0  0  0  0  0  0  0  0  0
   10.1527   -2.4872   21.1715 H   0  0  0  0  0  0  0  0  0  0  0  0
    9.5038   -0.8405   22.4655 C   0  0  0  0  0  0  0  0  0  0  0  0
    9.0100   -0.7526   23.4472 H   0  0  0  0  0  0  0  0  0  0  0  0
   10.5237   -0.4589   22.5767 H   0  0  0  0  0  0  0  0  0  0  0  0
    8.7245   -0.0101   21.4061 C   0  0  2  0  0  0  0  0  0  0  0  0
    9.2780   -0.0510   20.4599 H   0  0  0  0  0  0  0  0  0  0  0  0
    8.6544    1.4917   21.6798 C   0  0  0  0  0  0  0  0  0  0  0  0
    9.1506    2.2979   20.9127 O   0  0  0  0  0  0  0  0  0  0  0  0
    8.0093    1.8553   22.8334 N   0  0  0  0  0  0  0  0  0  0  0  0
    7.4427    1.1563   23.2745 H   0  0  0  0  0  0  0  0  0  0  0  0
    7.9633    3.1588   23.3594 C   0  0  0  0  0  0  0  0  0  0  0  0
    9.0831    3.9908   23.2520 C   0  0  0  0  0  0  0  0  0  0  0  0
    9.9623    3.6132   22.7426 H   0  0  0  0  0  0  0  0  0  0  0  0
    9.0448    5.2837   23.7757 C   0  0  0  0  0  0  0  0  0  0  0  0
    9.9021    5.9454   23.6851 H   0  0  0  0  0  0  0  0  0  0  0  0
    7.8779    5.7376   24.3979 C   0  0  0  0  0  0  0  0  0  0  0  0
    7.8233    7.3614   25.0209 Cl  0  0  0  0  0  0  0  0  0  0  0  0
    6.7560    4.9097   24.5169 C   0  0  0  0  0  0  0  0  0  0  0  0
    5.8590    5.2853   25.0009 H   0  0  0  0  0  0  0  0  0  0  0  0
    6.8060    3.6082   24.0038 C   0  0  0  0  0  0  0  0  0  0  0  0
    5.9472    2.9457   24.0791 H   0  0  0  0  0  0  0  0  0  0  0  0
    5.4026    0.6932   20.1507 C   0  0  0  0  0  0  0  0  0  0  0  0
    4.9622    0.6814   21.1480 H   0  0  0  0  0  0  0  0  0  0  0  0
    4.7725    1.3325   19.0812 C   0  0  0  0  0  0  0  0  0  0  0  0
    3.8389    1.8661   19.2140 H   0  0  0  0  0  0  0  0  0  0  0  0
  1  2  1  0
  2  3  2  0
  3  4  1  0
  4  5  1  0
  4  6  2  0
  6  7  1  0
  7  8  1  1
  7  9  1  0
  9 10  1  0
  9 11  1  0
  9 12  1  0
 12 13  1  0
 12 14  1  0
 14 15  1  0
 14 16  1  0
 14 17  1  0
 17 18  1  0
 17 19  1  0
 17 20  1  0
 20 21  1  6
 20 22  1  0
 22 23  2  0
 22 24  1  0
 24 25  1  0
 24 26  1  0
 26 27  2  0
 27 28  1  0
 27 29  1  0
 29 30  1  0
 29 31  2  0
 31 32  1  0
 31 33  1  0
 33 34  1  0
 33 35  2  0
 35 36  1  0
  6 37  1  0
 37 38  1  0
 37 39  2  0
 39 40  1  0
 39  2  1  0
 20  7  1  0
 35 26  1  0
M  END
>  <plip>  (1) 
-0.034482758620689655

>  <filename>  (1) 
[H][c]1[n][c]([H])[c]([C@@]2([H])[C]([H])([H])[N]([H])[C]([H])([H])[C]([H])([H])[C@]2([H])[C](=[O])[N]([H])[c]2[c]([H])[c]([H])[c]([Cl])[c]([H])[c]2[H])[c]([H])[c]1[H]

$$$$
