
     RDKit          3D

 31 34  0  0  0  0  0  0  0  0999 V2000
    4.9483    1.7930   16.9901 H   0  0  0  0  0  0  0  0  0  0  0  0
    5.4089    1.2883   17.8370 C   0  0  0  0  0  0  0  0  0  0  0  0
    6.5696    0.6631   17.5892 N   0  0  0  0  0  0  0  0  0  0  0  0
    7.1595    0.0257   18.6017 C   0  0  0  0  0  0  0  0  0  0  0  0
    8.1096   -0.4499   18.3677 H   0  0  0  0  0  0  0  0  0  0  0  0
    6.6394   -0.0198   19.9049 C   0  0  0  0  0  0  0  0  0  0  0  0
    7.3682   -0.7352   20.9528 C   0  0  0  0  0  0  0  0  0  0  0  0
    7.9013   -1.9817   20.7707 N   0  0  0  0  0  0  0  0  0  0  0  0
    8.3465   -2.3583   21.9416 C   0  0  0  0  0  0  0  0  0  0  0  0
    8.7993   -3.3208   22.1634 H   0  0  0  0  0  0  0  0  0  0  0  0
    8.1623   -1.4073   22.8895 N   0  0  0  0  0  0  0  0  0  0  0  0
    8.4594   -1.4410   23.8542 H   0  0  0  0  0  0  0  0  0  0  0  0
    7.5591   -0.3283   22.2657 C   0  0  0  0  0  0  0  0  0  0  0  0
    7.3369    0.9745   22.8321 C   0  0  0  0  0  0  0  0  0  0  0  0
    7.1910    1.0982   24.1961 O   0  0  0  0  0  0  0  0  0  0  0  0
    6.9891    2.4227   24.4462 C   0  0  0  0  0  0  0  0  0  0  0  0
    6.7801    3.0187   25.6958 C   0  0  0  0  0  0  0  0  0  0  0  0
    6.7532    2.4279   26.6088 H   0  0  0  0  0  0  0  0  0  0  0  0
    6.6157    4.4082   25.6934 C   0  0  0  0  0  0  0  0  0  0  0  0
    6.4542    4.9269   26.6353 H   0  0  0  0  0  0  0  0  0  0  0  0
    6.6537    5.1691   24.4999 C   0  0  0  0  0  0  0  0  0  0  0  0
    6.5225    6.2488   24.5391 H   0  0  0  0  0  0  0  0  0  0  0  0
    6.8581    4.5531   23.2694 C   0  0  0  0  0  0  0  0  0  0  0  0
    6.8914    5.1079   22.3349 H   0  0  0  0  0  0  0  0  0  0  0  0
    7.0290    3.1583   23.2469 C   0  0  0  0  0  0  0  0  0  0  0  0
    7.2630    2.1897   22.2201 C   0  0  0  0  0  0  0  0  0  0  0  0
    7.3602    2.3486   21.1568 H   0  0  0  0  0  0  0  0  0  0  0  0
    5.4186    0.6373   20.1517 C   0  0  0  0  0  0  0  0  0  0  0  0
    4.9908    0.6600   21.1569 H   0  0  0  0  0  0  0  0  0  0  0  0
    4.8020    1.3005   19.0950 C   0  0  0  0  0  0  0  0  0  0  0  0
    3.8767    1.8397   19.2392 H   0  0  0  0  0  0  0  0  0  0  0  0
  1  2  1  0
  2  3  2  0
  3  4  1  0
  4  5  1  0
  4  6  2  0
  6  7  1  0
  7  8  1  0
  8  9  2  0
  9 10  1  0
  9 11  1  0
 11 12  1  0
 11 13  1  0
 13 14  1  0
 14 15  1  0
 15 16  1  0
 16 17  2  0
 17 18  1  0
 17 19  1  0
 19 20  1  0
 19 21  2  0
 21 22  1  0
 21 23  1  0
 23 24  1  0
 23 25  2  0
 25 26  1  0
 26 27  1  0
  6 28  1  0
 28 29  1  0
 28 30  2  0
 30 31  1  0
 30  2  1  0
 13  7  2  0
 26 14  2  0
 25 16  1  0
M  END
>  <plip>  (1) 
-0.0

>  <filename>  (1) 
[H][c]1[n][c]([H])[c](-[c]2[n][c]([H])[n]([H])[c]2-[c]2[o][c]3[c]([H])[c]([H])[c]([H])[c]([H])[c]3[c]2[H])[c]([H])[c]1[H]

$$$$
