
     RDKit          3D

 27 28  0  0  0  0  0  0  0  0999 V2000
    4.9754    1.8085   16.9628 H   0  0  0  0  0  0  0  0  0  0  0  0
    5.4304    1.2906   17.8078 C   0  0  0  0  0  0  0  0  0  0  0  0
    6.5740    0.6444   17.5571 N   0  0  0  0  0  0  0  0  0  0  0  0
    7.1686    0.0279   18.5878 C   0  0  0  0  0  0  0  0  0  0  0  0
    8.0832   -0.5011   18.3366 H   0  0  0  0  0  0  0  0  0  0  0  0
    6.6881    0.0328   19.9097 C   0  0  0  0  0  0  0  0  0  0  0  0
    7.4245   -0.6390   21.0616 C   0  0  2  0  0  0  0  0  0  0  0  0
    6.7172   -1.3189   21.5651 H   0  0  0  0  0  0  0  0  0  0  0  0
    7.7544    0.3655   22.2256 C   0  0  0  0  0  0  0  0  0  0  0  0
    7.0073    0.4278   23.1817 O   0  0  0  0  0  0  0  0  0  0  0  0
    9.0360    1.2049   22.0627 C   0  0  0  0  0  0  0  0  0  0  0  0
    9.4729    1.9738   22.9902 N   0  0  0  0  0  0  0  0  0  0  0  0
   10.6034    2.7206   22.4411 C   0  0  0  0  0  0  0  0  0  0  0  0
   10.2730    3.7559   22.2751 H   0  0  0  0  0  0  0  0  0  0  0  0
   11.4526    2.7587   23.1369 H   0  0  0  0  0  0  0  0  0  0  0  0
   10.9663    2.0040   21.1240 C   0  0  0  0  0  0  0  0  0  0  0  0
   11.1845    2.7262   20.3312 H   0  0  0  0  0  0  0  0  0  0  0  0
   11.8339    1.3447   21.2507 H   0  0  0  0  0  0  0  0  0  0  0  0
    9.7563    1.2214   20.8637 N   0  0  0  0  0  0  0  0  0  0  0  0
    9.8254    0.3168   20.3850 H   0  0  0  0  0  0  0  0  0  0  0  0
    8.5966   -1.3424   20.4960 N   0  0  0  0  0  0  0  0  0  0  0  0
    8.2349   -2.0071   19.8083 H   0  0  0  0  0  0  0  0  0  0  0  0
    9.0536   -1.9346   21.1895 H   0  0  0  0  0  0  0  0  0  0  0  0
    5.4590    0.6719   20.1372 C   0  0  0  0  0  0  0  0  0  0  0  0
    5.0135    0.6768   21.1352 H   0  0  0  0  0  0  0  0  0  0  0  0
    4.8288    1.3113   19.0686 C   0  0  0  0  0  0  0  0  0  0  0  0
    3.8922    1.8375   19.1984 H   0  0  0  0  0  0  0  0  0  0  0  0
  1  2  1  0
  2  3  2  0
  3  4  1  0
  4  5  1  0
  4  6  2  0
  6  7  1  0
  7  8  1  1
  7  9  1  0
  9 10  2  0
  9 11  1  0
 11 12  2  0
 12 13  1  0
 13 14  1  0
 13 15  1  0
 13 16  1  0
 16 17  1  0
 16 18  1  0
 16 19  1  0
 19 20  1  0
  7 21  1  0
 21 22  1  0
 21 23  1  0
  6 24  1  0
 24 25  1  0
 24 26  2  0
 26 27  1  0
 26  2  1  0
 19 11  1  0
M  END
>  <plip>  (1) 
-0.06896551724137931

>  <filename>  (1) 
[H][c]1[n][c]([H])[c]([C@]([H])([C](=[O])[C]2=[N][C]([H])([H])[C]([H])([H])[N]2[H])[N]([H])[H])[c]([H])[c]1[H]

$$$$
