
     RDKit          3D

 30 31  0  0  0  0  0  0  0  0999 V2000
    4.9822    1.7455   16.9389 H   0  0  0  0  0  0  0  0  0  0  0  0
    5.4184    1.2702   17.8155 C   0  0  0  0  0  0  0  0  0  0  0  0
    6.6008    0.6627   17.6307 N   0  0  0  0  0  0  0  0  0  0  0  0
    7.1820    0.1063   18.6982 C   0  0  0  0  0  0  0  0  0  0  0  0
    8.1581   -0.3484   18.5356 H   0  0  0  0  0  0  0  0  0  0  0  0
    6.5979    0.0895   19.9747 C   0  0  0  0  0  0  0  0  0  0  0  0
    7.6135   -0.4170   21.3888 S   0  0  0  0  0  4  0  0  0  0  0  0
    8.9481    0.2241   21.1096 O   0  0  0  0  0  0  0  0  0  0  0  0
    7.7504   -2.2373   20.9214 C   0  0  0  0  0  0  0  0  0  0  0  0
    8.5284   -2.1562   20.1664 H   0  0  0  0  0  0  0  0  0  0  0  0
    6.7850   -2.5027   20.4724 H   0  0  0  0  0  0  0  0  0  0  0  0
    8.1410   -3.2316   21.8821 N   0  0  0  0  0  0  0  0  0  0  0  0
    9.0767   -3.0769   22.2493 H   0  0  0  0  0  0  0  0  0  0  0  0
    7.1734   -3.5639   22.9138 C   0  0  0  0  0  0  0  0  0  0  0  0
    7.7404   -4.0078   23.7441 H   0  0  0  0  0  0  0  0  0  0  0  0
    6.6728   -2.6628   23.3069 H   0  0  0  0  0  0  0  0  0  0  0  0
    6.1210   -4.5864   22.4693 C   0  0  0  0  0  0  0  0  0  0  0  0
    6.5087   -5.9005   22.1656 C   0  0  0  0  0  0  0  0  0  0  0  0
    7.5571   -6.1802   22.1273 H   0  0  0  0  0  0  0  0  0  0  0  0
    5.5401   -6.8819   21.9715 C   0  0  0  0  0  0  0  0  0  0  0  0
    5.8596   -7.9102   21.8049 H   0  0  0  0  0  0  0  0  0  0  0  0
    4.2227   -6.6429   22.0302 N   0  0  0  0  0  0  0  0  0  0  0  0
    3.8442   -5.3881   22.2825 C   0  0  0  0  0  0  0  0  0  0  0  0
    2.7724   -5.2232   22.3641 H   0  0  0  0  0  0  0  0  0  0  0  0
    4.7382   -4.3272   22.4735 C   0  0  0  0  0  0  0  0  0  0  0  0
    4.3315   -3.3303   22.6100 H   0  0  0  0  0  0  0  0  0  0  0  0
    5.3466    0.6854   20.1544 C   0  0  0  0  0  0  0  0  0  0  0  0
    4.8608    0.6870   21.1319 H   0  0  0  0  0  0  0  0  0  0  0  0
    4.7531    1.2993   19.0467 C   0  0  0  0  0  0  0  0  0  0  0  0
    3.8040    1.8156   19.1288 H   0  0  0  0  0  0  0  0  0  0  0  0
  1  2  1  0
  2  3  2  0
  3  4  1  0
  4  5  1  0
  4  6  2  0
  6  7  1  0
  7  8  2  0
  7  9  1  6
  9 10  1  0
  9 11  1  0
  9 12  1  0
 12 13  1  0
 12 14  1  0
 14 15  1  0
 14 16  1  0
 14 17  1  0
 17 18  2  0
 18 19  1  0
 18 20  1  0
 20 21  1  0
 20 22  2  0
 22 23  1  0
 23 24  1  0
 23 25  2  0
 25 26  1  0
  6 27  1  0
 27 28  1  0
 27 29  2  0
 29 30  1  0
 29  2  1  0
 25 17  1  0
M  END
>  <plip>  (1) 
-0.06666666666666667

>  <filename>  (1) 
[H][c]1[n][c]([H])[c]([S@](=[O])[C]([H])([H])[N]([H])[C]([H])([H])[c]2[c]([H])[c]([H])[n][c]([H])[c]2[H])[c]([H])[c]1[H]

$$$$
