
     RDKit          3D

 31 33  0  0  0  0  0  0  0  0999 V2000
    4.9257    1.7822   16.9911 H   0  0  0  0  0  0  0  0  0  0  0  0
    5.4029    1.2915   17.8389 C   0  0  0  0  0  0  0  0  0  0  0  0
    6.5631    0.6685   17.5958 N   0  0  0  0  0  0  0  0  0  0  0  0
    7.1676    0.0560   18.6217 C   0  0  0  0  0  0  0  0  0  0  0  0
    8.1122   -0.4190   18.3764 H   0  0  0  0  0  0  0  0  0  0  0  0
    6.6566   -0.0118   19.9407 C   0  0  0  0  0  0  0  0  0  0  0  0
    7.3512   -0.6432   20.9821 N   0  0  0  0  0  0  0  0  0  0  0  0
    6.6528   -1.3136   21.9600 N   0  0  0  0  0  0  0  0  0  0  0  0
    5.8416   -1.8437   21.6817 H   0  0  0  0  0  0  0  0  0  0  0  0
    6.8057   -1.0580   23.3211 C   0  0  0  0  0  0  0  0  0  0  0  0
    7.5508    0.0766   23.7825 C   0  0  0  0  0  0  0  0  0  0  0  0
    7.9399    0.7503   23.0261 H   0  0  0  0  0  0  0  0  0  0  0  0
    7.7725    0.3108   25.1278 C   0  0  0  0  0  0  0  0  0  0  0  0
    8.3405    1.1659   25.4834 H   0  0  0  0  0  0  0  0  0  0  0  0
    7.2237   -0.6195   26.0385 C   0  0  0  0  0  0  0  0  0  0  0  0
    6.4772   -1.7371   25.6115 C   0  0  0  0  0  0  0  0  0  0  0  0
    6.0949   -2.3793   26.8258 C   0  0  0  0  0  0  0  0  0  0  0  0
    5.5201   -3.2842   26.9499 H   0  0  0  0  0  0  0  0  0  0  0  0
    6.5366   -1.7264   27.8787 N   0  0  0  0  0  0  0  0  0  0  0  0
    7.2308   -0.6757   27.3964 N   0  0  0  0  0  0  0  0  0  0  0  0
    7.6844   -0.0390   28.0272 H   0  0  0  0  0  0  0  0  0  0  0  0
    6.2564   -1.9581   24.2327 C   0  0  0  0  0  0  0  0  0  0  0  0
    5.6825   -2.8183   23.8898 H   0  0  0  0  0  0  0  0  0  0  0  0
    8.7690   -0.9272   20.8981 C   0  0  0  0  0  0  0  0  0  0  0  0
    9.1442   -1.1984   21.8892 H   0  0  0  0  0  0  0  0  0  0  0  0
    9.2801   -0.0208   20.5694 H   0  0  0  0  0  0  0  0  0  0  0  0
    9.0065   -1.7385   20.1983 H   0  0  0  0  0  0  0  0  0  0  0  0
    5.4298    0.6462   20.1694 C   0  0  0  0  0  0  0  0  0  0  0  0
    5.0133    0.6311   21.1763 H   0  0  0  0  0  0  0  0  0  0  0  0
    4.8099    1.3083   19.1082 C   0  0  0  0  0  0  0  0  0  0  0  0
    3.8777    1.8404   19.2580 H   0  0  0  0  0  0  0  0  0  0  0  0
  1  2  1  0
  2  3  2  0
  3  4  1  0
  4  5  1  0
  4  6  2  0
  6  7  1  0
  7  8  1  0
  8  9  1  0
  8 10  1  0
 10 11  2  0
 11 12  1  0
 11 13  1  0
 13 14  1  0
 13 15  2  0
 15 16  1  0
 16 17  1  0
 17 18  1  0
 17 19  2  0
 19 20  1  0
 20 21  1  0
 16 22  2  0
 22 23  1  0
  7 24  1  0
 24 25  1  0
 24 26  1  0
 24 27  1  0
  6 28  1  0
 28 29  1  0
 28 30  2  0
 30 31  1  0
 30  2  1  0
 22 10  1  0
 20 15  1  0
M  END
>  <plip>  (1) 
-0.10714285714285714

>  <filename>  (1) 
[H][c]1[n][c]([H])[c]([N]([N]([H])[c]2[c]([H])[c]([H])[c]3[c]([c]([H])[n][n]3[H])[c]2[H])[C]([H])([H])[H])[c]([H])[c]1[H]

$$$$
