
     RDKit          3D

 20 21  0  0  0  0  0  0  0  0999 V2000
    7.6995   -2.2271   19.8995 H   0  0  0  0  0  0  0  0  0  0  0  0
    7.8931   -1.8974   20.8431 N   0  0  0  0  0  0  0  0  0  0  0  0
    7.3971   -0.7352   20.9693 C   0  0  0  0  0  0  0  0  0  0  0  0
    6.6509   -0.0023   19.9100 C   0  0  0  0  0  0  0  0  0  0  0  0
    7.1697    0.0459   18.6121 C   0  0  0  0  0  0  0  0  0  0  0  0
    8.1242   -0.4251   18.3765 H   0  0  0  0  0  0  0  0  0  0  0  0
    6.5711    0.6715   17.5939 N   0  0  0  0  0  0  0  0  0  0  0  0
    5.4047    1.2869   17.8413 C   0  0  0  0  0  0  0  0  0  0  0  0
    4.9257    1.7785   16.9955 H   0  0  0  0  0  0  0  0  0  0  0  0
    4.8014    1.3020   19.1023 C   0  0  0  0  0  0  0  0  0  0  0  0
    3.8732    1.8422   19.2540 H   0  0  0  0  0  0  0  0  0  0  0  0
    5.4315    0.6498   20.1584 C   0  0  0  0  0  0  0  0  0  0  0  0
    5.0044    0.6509   21.1650 H   0  0  0  0  0  0  0  0  0  0  0  0
    7.5424   -0.0896   22.2359 N   0  0  0  0  0  0  0  0  0  0  0  0
    7.2728    1.2317   22.5165 N   0  0  0  0  0  0  0  0  0  0  0  0
    7.6013    1.3188   23.7840 C   0  0  0  0  0  0  0  0  0  0  0  0
    7.5109    2.2529   24.3282 H   0  0  0  0  0  0  0  0  0  0  0  0
    8.0585    0.1661   24.3444 N   0  0  0  0  0  0  0  0  0  0  0  0
    8.0109   -0.6841   23.3567 C   0  0  0  0  0  0  0  0  0  0  0  0
    8.3000   -1.7229   23.4127 H   0  0  0  0  0  0  0  0  0  0  0  0
  1  2  1  0
  2  3  2  3
  3  4  1  0
  4  5  2  0
  5  6  1  0
  5  7  1  0
  7  8  2  0
  8  9  1  0
  8 10  1  0
 10 11  1  0
 10 12  2  0
 12 13  1  0
  3 14  1  0
 14 15  1  0
 15 16  2  0
 16 17  1  0
 16 18  1  0
 18 19  2  0
 19 20  1  0
 12  4  1  0
 19 14  1  0
M  END
>  <plip>  (1) 
-0.0

>  <filename>  (1) 
[H][N]=[C]([c]1[c]([H])[n][c]([H])[c]([H])[c]1[H])[n]1[n][c]([H])[n][c]1[H]

$$$$
