
     RDKit          3D

 23 24  0  0  0  0  0  0  0  0999 V2000
    6.9685   -0.6898   21.9660 H   0  0  0  0  0  0  0  0  0  0  0  0
    7.3688   -0.7919   20.9480 C   0  0  0  0  0  0  0  0  0  0  0  0
    8.3824   -1.5306   20.7058 N   0  0  0  0  0  0  0  0  0  0  0  0
    9.1343   -1.9256   21.8579 C   0  0  1  0  0  0  0  0  0  0  0  0
    8.6298   -2.6190   22.5386 H   0  0  0  0  0  0  0  0  0  0  0  0
   10.6140   -2.1277   21.7295 C   0  0  0  0  0  0  0  0  0  0  0  0
   11.1117   -2.9875   22.1582 H   0  0  0  0  0  0  0  0  0  0  0  0
   11.0317   -1.7635   20.8042 H   0  0  0  0  0  0  0  0  0  0  0  0
   10.1177   -1.0297   22.6118 C   0  0  1  0  0  0  0  0  0  0  0  0
   10.1156   -1.2869   23.6731 H   0  0  0  0  0  0  0  0  0  0  0  0
   10.4678    0.3029   22.2064 N   0  0  0  0  0  0  0  0  0  0  0  0
   11.4438    0.4716   22.4291 H   0  0  0  0  0  0  0  0  0  0  0  0
    9.8956    1.0125   22.6468 H   0  0  0  0  0  0  0  0  0  0  0  0
    6.6476   -0.0515   19.9074 C   0  0  0  0  0  0  0  0  0  0  0  0
    7.1782    0.0123   18.6098 C   0  0  0  0  0  0  0  0  0  0  0  0
    8.1330   -0.4676   18.3982 H   0  0  0  0  0  0  0  0  0  0  0  0
    6.5949    0.6579   17.5967 N   0  0  0  0  0  0  0  0  0  0  0  0
    5.4349    1.2869   17.8496 C   0  0  0  0  0  0  0  0  0  0  0  0
    4.9689    1.7931   17.0052 H   0  0  0  0  0  0  0  0  0  0  0  0
    4.8231    1.3027   19.1094 C   0  0  0  0  0  0  0  0  0  0  0  0
    3.8863    1.8379   19.2401 H   0  0  0  0  0  0  0  0  0  0  0  0
    5.4467    0.6305   20.1619 C   0  0  0  0  0  0  0  0  0  0  0  0
    5.0108    0.6564   21.1633 H   0  0  0  0  0  0  0  0  0  0  0  0
  1  2  1  0
  2  3  2  3
  3  4  1  0
  4  5  1  1
  4  6  1  0
  6  7  1  0
  6  8  1  0
  6  9  1  0
  9 10  1  1
  9 11  1  0
 11 12  1  0
 11 13  1  0
  2 14  1  0
 14 15  2  0
 15 16  1  0
 15 17  1  0
 17 18  2  0
 18 19  1  0
 18 20  1  0
 20 21  1  0
 20 22  2  0
 22 23  1  0
  9  4  1  0
 22 14  1  0
M  END
>  <plip>  (1) 
-0.034482758620689655

>  <filename>  (1) 
[H][C](=[N][C@@]1([H])[C]([H])([H])[C@@]1([H])[N]([H])[H])[c]1[c]([H])[n][c]([H])[c]([H])[c]1[H]

$$$$
