
     RDKit          3D

 24 25  0  0  0  0  0  0  0  0999 V2000
    9.1433    1.1795   20.1069 H   0  0  0  0  0  0  0  0  0  0  0  0
    9.5753    0.4627   20.8291 C   0  0  0  0  0  0  0  0  0  0  0  0
   10.7316    0.5493   21.1851 O   0  0  0  0  0  0  0  0  0  0  0  0
    8.6417   -0.5624   21.3233 C   0  0  0  0  0  0  0  0  0  0  0  0
    7.3614   -0.7219   20.9435 C   0  0  0  0  0  0  0  0  0  0  0  0
    6.6564    0.0238   19.8931 C   0  0  0  0  0  0  0  0  0  0  0  0
    7.1648    0.0774   18.5786 C   0  0  0  0  0  0  0  0  0  0  0  0
    8.1047   -0.4234   18.3506 H   0  0  0  0  0  0  0  0  0  0  0  0
    6.5546    0.6790   17.5522 N   0  0  0  0  0  0  0  0  0  0  0  0
    5.3969    1.3005   17.8246 C   0  0  0  0  0  0  0  0  0  0  0  0
    4.9169    1.7923   16.9839 H   0  0  0  0  0  0  0  0  0  0  0  0
    4.7998    1.3146   19.0952 C   0  0  0  0  0  0  0  0  0  0  0  0
    3.8677    1.8489   19.2475 H   0  0  0  0  0  0  0  0  0  0  0  0
    5.4242    0.6477   20.1463 C   0  0  0  0  0  0  0  0  0  0  0  0
    5.0045    0.6323   21.1588 H   0  0  0  0  0  0  0  0  0  0  0  0
    6.6739   -1.7800   21.7674 C   0  0  0  0  0  0  0  0  0  0  0  0
    5.9175   -1.3055   22.3862 H   0  0  0  0  0  0  0  0  0  0  0  0
    6.1368   -2.5019   21.1413 H   0  0  0  0  0  0  0  0  0  0  0  0
    7.7927   -2.4049   22.6315 C   0  0  0  0  0  0  0  0  0  0  0  0
    7.4967   -2.4700   23.6833 H   0  0  0  0  0  0  0  0  0  0  0  0
    8.0007   -3.4226   22.2933 H   0  0  0  0  0  0  0  0  0  0  0  0
    9.0280   -1.4941   22.4361 C   0  0  0  0  0  0  0  0  0  0  0  0
    9.9386   -2.0428   22.1826 H   0  0  0  0  0  0  0  0  0  0  0  0
    9.2768   -0.9159   23.3329 H   0  0  0  0  0  0  0  0  0  0  0  0
  1  2  1  0
  2  3  2  0
  2  4  1  0
  4  5  2  0
  5  6  1  0
  6  7  2  0
  7  8  1  0
  7  9  1  0
  9 10  2  0
 10 11  1  0
 10 12  1  0
 12 13  1  0
 12 14  2  0
 14 15  1  0
  5 16  1  0
 16 17  1  0
 16 18  1  0
 16 19  1  0
 19 20  1  0
 19 21  1  0
 19 22  1  0
 22 23  1  0
 22 24  1  0
 22  4  1  0
 14  6  1  0
M  END
>  <plip>  (1) 
-0.07142857142857142

>  <filename>  (1) 
[H][C](=[O])[C]1=[C]([c]2[c]([H])[n][c]([H])[c]([H])[c]2[H])[C]([H])([H])[C]([H])([H])[C]1([H])[H]

$$$$
