
     RDKit          3D

 42 44  0  0  0  0  0  0  0  0999 V2000
   10.1535   -0.7148   24.3149 O   0  0  0  0  0  0  0  0  0  0  0  0
    9.7364   -1.0553   25.3915 C   0  0  0  0  0  0  0  0  0  0  0  0
   10.0677   -0.4289   26.5555 O   0  0  0  0  0  0  0  0  0  0  0  0
    9.2734   -0.9437   27.6232 C   0  0  0  0  0  0  0  0  0  0  0  0
    8.8019   -2.3155   27.1169 C   0  0  0  0  0  0  0  0  0  0  0  0
    8.9144   -2.1133   25.6924 N   0  0  0  0  0  0  0  0  0  0  0  0
    8.2376   -2.9487   24.7093 C   0  0  0  0  0  0  0  0  0  0  0  0
    7.0211   -2.1748   24.1432 C   0  0  0  0  0  0  0  0  0  0  0  0
    6.4553   -2.8179   22.8633 C   0  0  0  0  0  0  0  0  0  0  0  0
    7.5136   -2.9700   21.7347 C   0  0  0  0  0  0  0  0  0  0  0  0
    7.2211   -2.0505   20.5723 N   0  0  0  0  0  4  0  0  0  0  0  0
    7.4895   -0.5862   20.7633 C   0  0  0  0  0  0  0  0  0  0  0  0
    6.7149    0.1127   19.6873 C   0  0  0  0  0  0  0  0  0  0  0  0
    5.5521    0.8427   19.9644 C   0  0  0  0  0  0  0  0  0  0  0  0
    4.8631    1.4466   18.9124 C   0  0  0  0  0  0  0  0  0  0  0  0
    5.3668    1.3029   17.6153 C   0  0  0  0  0  0  0  0  0  0  0  0
    6.4773    0.6056   17.3296 N   0  0  0  0  0  0  0  0  0  0  0  0
    7.1268    0.0302   18.3474 C   0  0  0  0  0  0  0  0  0  0  0  0
    8.0382   -0.5032   18.0701 H   0  0  0  0  0  0  0  0  0  0  0  0
    4.8631    1.7656   16.7695 H   0  0  0  0  0  0  0  0  0  0  0  0
    3.9710    2.0433   19.0809 H   0  0  0  0  0  0  0  0  0  0  0  0
    5.2036    0.9247   20.9964 H   0  0  0  0  0  0  0  0  0  0  0  0
    8.5627   -0.3739   20.6884 H   0  0  0  0  0  0  0  0  0  0  0  0
    7.1644   -0.2723   21.7625 H   0  0  0  0  0  0  0  0  0  0  0  0
    7.7785   -2.3369   19.7360 H   0  0  0  0  0  0  0  0  0  0  0  0
    6.2128   -2.1051   20.2988 H   0  0  0  0  0  0  0  0  0  0  0  0
    8.9561   -2.7737   22.2480 C   0  0  0  0  0  0  0  0  0  0  0  0
    9.1874   -3.4860   23.5955 C   0  0  0  0  0  0  0  0  0  0  0  0
    9.0355   -4.5722   23.4957 H   0  0  0  0  0  0  0  0  0  0  0  0
   10.2286   -3.3524   23.9079 H   0  0  0  0  0  0  0  0  0  0  0  0
    9.1667   -1.7105   22.4135 H   0  0  0  0  0  0  0  0  0  0  0  0
    9.6477   -3.1247   21.4770 H   0  0  0  0  0  0  0  0  0  0  0  0
    7.4445   -3.9947   21.3669 H   0  0  0  0  0  0  0  0  0  0  0  0
    5.6191   -2.2293   22.4752 H   0  0  0  0  0  0  0  0  0  0  0  0
    6.0480   -3.8107   23.1050 H   0  0  0  0  0  0  0  0  0  0  0  0
    7.3286   -1.1433   23.9158 H   0  0  0  0  0  0  0  0  0  0  0  0
    6.2522   -2.1120   24.9208 H   0  0  0  0  0  0  0  0  0  0  0  0
    7.8450   -3.8142   25.2655 H   0  0  0  0  0  0  0  0  0  0  0  0
    9.4287   -3.1652   27.4278 H   0  0  0  0  0  0  0  0  0  0  0  0
    7.7671   -2.5061   27.4234 H   0  0  0  0  0  0  0  0  0  0  0  0
    9.8944   -0.9802   28.5194 H   0  0  0  0  0  0  0  0  0  0  0  0
    8.4114   -0.2791   27.7910 H   0  0  0  0  0  0  0  0  0  0  0  0
  1  2  2  0
  2  3  1  0
  3  4  1  0
  4  5  1  0
  5  6  1  0
  6  7  1  0
  7  8  1  0
  8  9  1  0
  9 10  1  0
 10 11  1  0
 11 12  1  0
 12 13  1  0
 13 14  2  0
 14 15  1  0
 15 16  2  0
 16 17  1  0
 17 18  2  0
 18 19  1  0
 16 20  1  0
 15 21  1  0
 14 22  1  0
 12 23  1  0
 12 24  1  0
 11 25  1  0
 11 26  1  0
 10 27  1  0
 27 28  1  0
 28 29  1  0
 28 30  1  0
 27 31  1  0
 27 32  1  0
 10 33  1  0
  9 34  1  0
  9 35  1  0
  8 36  1  0
  8 37  1  0
  7 38  1  0
  5 39  1  0
  5 40  1  0
  4 41  1  0
  4 42  1  0
  6  2  1  0
 28  7  1  0
 18 13  1  0
M  CHG  1  11   1
M  END
>  <plip>  (1) 
-0.10714285714285714

>  <filename>  (1) 
[H][c]1[n][c]([H])[c]([C]([H])([H])[N+]([H])([H])[C]2([H])[C]([H])([H])[C]([H])([H])[C]([H])([N]3[C](=[O])[O][C]([H])([H])[C]3([H])[H])[C]([H])([H])[C]2([H])[H])[c]([H])[c]1[H]

$$$$
