
     RDKit          3D

 37 39  0  0  0  0  0  0  0  0999 V2000
    8.0738    6.1346   28.2282 C   0  0  0  0  0  0  0  0  0  0  0  0
    7.7753    4.8928   27.4453 C   0  0  0  0  0  0  0  0  0  0  0  0
    7.0772    3.8231   28.0348 C   0  0  0  0  0  0  0  0  0  0  0  0
    6.8190    2.6525   27.3076 C   0  0  0  0  0  0  0  0  0  0  0  0
    5.8778    1.1969   28.1142 Br  0  0  0  0  0  0  0  0  0  0  0  0
    7.2696    2.5724   25.9872 C   0  0  0  0  0  0  0  0  0  0  0  0
    7.1823    1.5404   24.9794 C   0  0  0  0  0  0  0  0  0  0  0  0
    7.8138    1.9836   23.8245 C   0  0  0  0  0  0  0  0  0  0  0  0
    7.9238    1.1798   22.5705 C   0  0  0  0  0  0  0  0  0  0  0  0
    8.4717    1.5860   21.5491 O   0  0  0  0  0  0  0  0  0  0  0  0
    7.3564   -0.0539   22.6128 N   0  0  0  0  0  0  0  0  0  0  0  0
    7.5564   -0.8204   21.1414 S   0  0  0  0  0  0  0  0  0  0  0  0
    8.9675   -0.9513   20.7759 O   0  0  0  0  0  0  0  0  0  0  0  0
    6.7453   -2.3929   21.3681 C   0  0  0  0  0  0  0  0  0  0  0  0
    7.2496   -2.9170   22.1788 H   0  0  0  0  0  0  0  0  0  0  0  0
    6.7846   -2.9737   20.4532 H   0  0  0  0  0  0  0  0  0  0  0  0
    5.7107   -2.2080   21.6621 H   0  0  0  0  0  0  0  0  0  0  0  0
    6.6288    0.0259   19.8995 C   0  0  0  0  0  0  0  0  0  0  0  0
    5.4207    0.6589   20.1708 C   0  0  0  0  0  0  0  0  0  0  0  0
    4.8181    1.2997   19.1044 C   0  0  0  0  0  0  0  0  0  0  0  0
    5.4156    1.2814   17.8437 C   0  0  0  0  0  0  0  0  0  0  0  0
    6.5825    0.6523   17.6148 N   0  0  0  0  0  0  0  0  0  0  0  0
    7.1892    0.0426   18.6361 C   0  0  0  0  0  0  0  0  0  0  0  0
    8.1409   -0.4426   18.4303 H   0  0  0  0  0  0  0  0  0  0  0  0
    4.9132    1.7921   17.0265 H   0  0  0  0  0  0  0  0  0  0  0  0
    3.8885    1.8321   19.2460 H   0  0  0  0  0  0  0  0  0  0  0  0
    4.9600    0.6753   21.1630 H   0  0  0  0  0  0  0  0  0  0  0  0
    8.2842    3.2769   24.1144 N   0  0  0  0  0  0  0  0  0  0  0  0
    7.9579    3.6260   25.4111 C   0  0  0  0  0  0  0  0  0  0  0  0
    8.2202    4.7887   26.1205 C   0  0  0  0  0  0  0  0  0  0  0  0
    8.7638    5.5984   25.6435 H   0  0  0  0  0  0  0  0  0  0  0  0
    8.7936    3.8926   23.4833 H   0  0  0  0  0  0  0  0  0  0  0  0
    6.6960    0.5793   25.1276 H   0  0  0  0  0  0  0  0  0  0  0  0
    6.7343    3.8962   29.0639 H   0  0  0  0  0  0  0  0  0  0  0  0
    7.2807    6.3181   28.9612 H   0  0  0  0  0  0  0  0  0  0  0  0
    9.0285    6.0178   28.7512 H   0  0  0  0  0  0  0  0  0  0  0  0
    8.1428    6.9958   27.5544 H   0  0  0  0  0  0  0  0  0  0  0  0
  1  2  1  0
  2  3  2  0
  3  4  1  0
  4  5  1  0
  4  6  2  0
  6  7  1  0
  7  8  2  0
  8  9  1  0
  9 10  2  0
  9 11  1  0
 11 12  2  0
 12 13  2  0
 12 14  1  0
 14 15  1  0
 14 16  1  0
 14 17  1  0
 12 18  1  0
 18 19  2  0
 19 20  1  0
 20 21  2  0
 21 22  1  0
 22 23  2  0
 23 24  1  0
 21 25  1  0
 20 26  1  0
 19 27  1  0
  8 28  1  0
 28 29  1  0
 29 30  2  0
 30 31  1  0
 28 32  1  0
  7 33  1  0
  3 34  1  0
  1 35  1  0
  1 36  1  0
  1 37  1  0
 30  2  1  0
 29  6  1  0
 23 18  1  0
M  END
>  <plip>  (1) 
-0.13793103448275862

>  <filename>  (1) 
[H][c]1[n][c]([H])[c]([S](=[O])(=[N][C](=[O])[c]2[c]([H])[c]3[c]([Br])[c]([H])[c]([C]([H])([H])[H])[c]([H])[c]3[n]2[H])[C]([H])([H])[H])[c]([H])[c]1[H]

$$$$
