
     RDKit          3D

 44 47  0  0  0  0  0  0  0  0999 V2000
   10.4603    1.2537   20.7858 O   0  0  0  0  0  0  0  0  0  0  0  0
    9.3017    0.9851   21.0394 C   0  0  0  0  0  0  0  0  0  0  0  0
    8.3928    2.1367   21.5121 C   0  0  0  0  0  0  0  0  0  0  0  0
    8.1688    2.0718   22.9537 N   0  0  0  0  0  0  0  0  0  0  0  0
    6.9730    1.9823   23.6373 C   0  0  0  0  0  0  0  0  0  0  0  0
    7.0935    1.6555   24.8950 N   0  0  0  0  0  0  0  0  0  0  0  0
    8.4570    1.5006   25.0848 C   0  0  0  0  0  0  0  0  0  0  0  0
    9.1826    1.0652   26.2066 C   0  0  0  0  0  0  0  0  0  0  0  0
   10.5618    0.9210   26.1009 C   0  0  0  0  0  0  0  0  0  0  0  0
   11.2383    1.2548   24.9088 C   0  0  0  0  0  0  0  0  0  0  0  0
   10.5440    1.7071   23.7911 C   0  0  0  0  0  0  0  0  0  0  0  0
    9.1463    1.7842   23.8880 C   0  0  0  0  0  0  0  0  0  0  0  0
   11.0453    1.9694   22.8679 H   0  0  0  0  0  0  0  0  0  0  0  0
   12.3164    1.1471   24.8534 H   0  0  0  0  0  0  0  0  0  0  0  0
   11.1191    0.5365   26.9498 H   0  0  0  0  0  0  0  0  0  0  0  0
    8.6603    0.8342   27.1263 H   0  0  0  0  0  0  0  0  0  0  0  0
    6.0290    2.1222   23.1250 H   0  0  0  0  0  0  0  0  0  0  0  0
    8.9196    3.0523   21.2456 H   0  0  0  0  0  0  0  0  0  0  0  0
    7.4459    2.1055   20.9824 H   0  0  0  0  0  0  0  0  0  0  0  0
    8.8423   -0.3323   21.0466 N   0  0  0  0  0  0  0  0  0  0  0  0
    9.7108   -1.2647   21.8276 C   0  0  0  0  0  0  0  0  0  0  0  0
    9.3949   -2.7231   21.5300 C   0  0  0  0  0  0  0  0  0  0  0  0
    7.9290   -3.0464   21.7841 N   0  0  0  0  0  4  0  0  0  0  0  0
    7.0901   -2.1236   20.8936 C   0  0  0  0  0  0  0  0  0  0  0  0
    7.3828   -0.6101   21.0693 C   0  0  0  0  0  0  0  0  0  0  0  0
    6.6491    0.1063   19.9441 C   0  0  0  0  0  0  0  0  0  0  0  0
    5.3882    0.6885   20.1379 C   0  0  0  0  0  0  0  0  0  0  0  0
    4.7604    1.3244   19.0616 C   0  0  0  0  0  0  0  0  0  0  0  0
    5.3998    1.3227   17.8190 C   0  0  0  0  0  0  0  0  0  0  0  0
    6.5798    0.7264   17.6004 N   0  0  0  0  0  0  0  0  0  0  0  0
    7.1820    0.1395   18.6437 C   0  0  0  0  0  0  0  0  0  0  0  0
    8.1380   -0.3376   18.4279 H   0  0  0  0  0  0  0  0  0  0  0  0
    4.9383    1.8048   16.9592 H   0  0  0  0  0  0  0  0  0  0  0  0
    3.8159    1.8421   19.1738 H   0  0  0  0  0  0  0  0  0  0  0  0
    4.9117    0.6809   21.1213 H   0  0  0  0  0  0  0  0  0  0  0  0
    6.9620   -0.2906   22.0388 H   0  0  0  0  0  0  0  0  0  0  0  0
    6.0275   -2.2914   21.0593 H   0  0  0  0  0  0  0  0  0  0  0  0
    7.3143   -2.3459   19.8495 H   0  0  0  0  0  0  0  0  0  0  0  0
    7.7007   -2.8556   22.7974 H   0  0  0  0  0  0  0  0  0  0  0  0
    7.7216   -4.0378   21.5582 H   0  0  0  0  0  0  0  0  0  0  0  0
    9.6150   -2.9095   20.4765 H   0  0  0  0  0  0  0  0  0  0  0  0
   10.0324   -3.3597   22.1414 H   0  0  0  0  0  0  0  0  0  0  0  0
   10.7497   -1.0743   21.5402 H   0  0  0  0  0  0  0  0  0  0  0  0
    9.6112   -1.0794   22.9140 H   0  0  0  0  0  0  0  0  0  0  0  0
  1  2  2  0
  2  3  1  0
  3  4  1  0
  4  5  1  0
  5  6  2  0
  6  7  1  0
  7  8  2  0
  8  9  1  0
  9 10  2  0
 10 11  1  0
 11 12  2  0
 11 13  1  0
 10 14  1  0
  9 15  1  0
  8 16  1  0
  5 17  1  0
  3 18  1  0
  3 19  1  0
  2 20  1  0
 20 21  1  0
 21 22  1  0
 22 23  1  0
 23 24  1  0
 24 25  1  0
 25 26  1  0
 26 27  2  0
 27 28  1  0
 28 29  2  0
 29 30  1  0
 30 31  2  0
 31 32  1  0
 29 33  1  0
 28 34  1  0
 27 35  1  0
 25 36  1  0
 24 37  1  0
 24 38  1  0
 23 39  1  0
 23 40  1  0
 22 41  1  0
 22 42  1  0
 21 43  1  0
 21 44  1  0
 12  4  1  0
 25 20  1  0
 31 26  1  0
 12  7  1  0
M  CHG  1  23   1
M  END
>  <plip>  (1) 
-0.06451612903225806

>  <filename>  (1) 
[H][c]1[n][c]([H])[c]([C]2([H])[N]([C](=[O])[C]([H])([H])[n]3[c]([H])[n][c]4[c]([H])[c]([H])[c]([H])[c]([H])[c]43)[C]([H])([H])[C]([H])([H])[N+]([H])([H])[C]2([H])[H])[c]([H])[c]1[H]

$$$$
