
     RDKit          3D

 23 24  0  0  0  0  0  0  0  0999 V2000
   10.9651   -4.2199   24.9192 H   0  0  0  0  0  0  0  0  0  0  0  0
   11.0534   -3.8877   24.0144 O   0  0  0  0  0  0  0  0  0  0  0  0
    9.8599   -3.1883   23.8295 N   0  0  0  0  0  0  0  0  0  0  0  0
    9.7973   -2.6706   22.6671 C   0  0  0  0  0  0  0  0  0  0  0  0
   10.6016   -2.7957   21.9402 H   0  0  0  0  0  0  0  0  0  0  0  0
    8.7016   -1.8719   22.2863 N   0  0  0  0  0  0  0  0  0  0  0  0
    7.8714   -1.1835   23.1567 C   0  0  0  0  0  0  0  0  0  0  0  0
    7.9465   -1.3169   24.2322 H   0  0  0  0  0  0  0  0  0  0  0  0
    7.0559   -0.3858   22.4290 C   0  0  0  0  0  0  0  0  0  0  0  0
    6.3881    0.3495   22.8545 H   0  0  0  0  0  0  0  0  0  0  0  0
    7.3253   -0.6010   21.0400 C   0  0  0  0  0  0  0  0  0  0  0  0
    6.6196    0.0472   19.9221 C   0  0  0  0  0  0  0  0  0  0  0  0
    7.1506    0.0658   18.6201 C   0  0  0  0  0  0  0  0  0  0  0  0
    8.0952   -0.4316   18.4142 H   0  0  0  0  0  0  0  0  0  0  0  0
    6.5781    0.6739   17.5711 N   0  0  0  0  0  0  0  0  0  0  0  0
    5.4152    1.3088   17.7821 C   0  0  0  0  0  0  0  0  0  0  0  0
    4.9715    1.8116   16.9200 H   0  0  0  0  0  0  0  0  0  0  0  0
    4.7798    1.3349   19.0287 C   0  0  0  0  0  0  0  0  0  0  0  0
    3.8417    1.8634   19.1443 H   0  0  0  0  0  0  0  0  0  0  0  0
    5.3850    0.6931   20.1088 C   0  0  0  0  0  0  0  0  0  0  0  0
    4.9120    0.6859   21.0902 H   0  0  0  0  0  0  0  0  0  0  0  0
    8.3527   -1.5096   20.9919 C   0  0  0  0  0  0  0  0  0  0  0  0
    8.8604   -1.9261   20.1336 H   0  0  0  0  0  0  0  0  0  0  0  0
  1  2  1  0
  2  3  1  0
  3  4  2  3
  4  5  1  0
  4  6  1  0
  6  7  1  0
  7  8  1  0
  7  9  2  0
  9 10  1  0
  9 11  1  0
 11 12  1  0
 12 13  2  0
 13 14  1  0
 13 15  1  0
 15 16  2  0
 16 17  1  0
 16 18  1  0
 18 19  1  0
 18 20  2  0
 20 21  1  0
 11 22  2  0
 22 23  1  0
 22  6  1  0
 20 12  1  0
M  END
>  <plip>  (1) 
-0.07142857142857142

>  <filename>  (1) 
[H][O][N]=[C]([H])[n]1[c]([H])[c]([H])[c](-[c]2[c]([H])[n][c]([H])[c]([H])[c]2[H])[c]1[H]

$$$$
