
     RDKit          3D

 28 30  0  0  0  0  0  0  0  0999 V2000
   10.0135   -3.3285   22.6768 H   0  0  0  0  0  0  0  0  0  0  0  0
    9.8750   -2.2645   22.4290 C   0  0  0  0  0  0  0  0  0  0  0  0
   10.8494   -1.3580   22.4808 C   0  0  0  0  0  0  0  0  0  0  0  0
   12.5500   -1.6952   22.1976 S   0  0  0  0  0  0  0  0  0  0  0  0
   12.9987   -0.0525   22.6242 C   0  0  0  0  0  0  0  0  0  0  0  0
   14.5022    0.5361   22.7670 S   0  0  0  0  0  0  0  0  0  0  0  0
   11.8784    0.6740   22.8540 N   0  0  0  0  0  0  0  0  0  0  0  0
   11.9157    1.6232   23.1761 H   0  0  0  0  0  0  0  0  0  0  0  0
   10.6448    0.0667   22.8373 C   0  0  0  0  0  0  0  0  0  0  0  0
    9.6338    0.6526   23.1334 O   0  0  0  0  0  0  0  0  0  0  0  0
    8.5967   -1.8502   22.0296 N   0  0  0  0  0  0  0  0  0  0  0  0
    7.4347   -2.4821   22.4119 C   0  0  0  0  0  0  0  0  0  0  0  0
    7.3459   -3.3104   23.2773 O   0  0  0  0  0  0  0  0  0  0  0  0
    6.3526   -1.9278   21.4722 C   0  0  0  0  0  0  0  0  0  0  0  0
    5.2432   -2.3504   21.3297 O   0  0  0  0  0  0  0  0  0  0  0  0
    6.9811   -0.9245   20.7345 N   0  0  0  0  0  0  0  0  0  0  0  0
    6.3751   -0.1204   19.6986 C   0  0  0  0  0  0  0  0  0  0  0  0
    6.9752    0.0211   18.4254 C   0  0  0  0  0  0  0  0  0  0  0  0
    7.9095   -0.4999   18.2298 H   0  0  0  0  0  0  0  0  0  0  0  0
    6.4702    0.7777   17.4459 N   0  0  0  0  0  0  0  0  0  0  0  0
    5.3447    1.4613   17.7096 C   0  0  0  0  0  0  0  0  0  0  0  0
    4.9733    2.0861   16.9014 H   0  0  0  0  0  0  0  0  0  0  0  0
    4.6675    1.3834   18.9296 C   0  0  0  0  0  0  0  0  0  0  0  0
    3.7637    1.9642   19.0713 H   0  0  0  0  0  0  0  0  0  0  0  0
    5.1832    0.5657   19.9442 C   0  0  0  0  0  0  0  0  0  0  0  0
    4.6874    0.4502   20.9055 H   0  0  0  0  0  0  0  0  0  0  0  0
    8.3421   -0.9143   21.0235 C   0  0  0  0  0  0  0  0  0  0  0  0
    9.1833   -0.2839   20.4538 O   0  0  0  0  0  0  0  0  0  0  0  0
  1  2  1  0
  2  3  2  3
  3  4  1  0
  4  5  1  0
  5  6  2  0
  5  7  1  0
  7  8  1  0
  7  9  1  0
  9 10  2  0
  2 11  1  0
 11 12  1  0
 12 13  2  0
 12 14  1  0
 14 15  2  0
 14 16  1  0
 16 17  1  0
 17 18  2  0
 18 19  1  0
 18 20  1  0
 20 21  2  0
 21 22  1  0
 21 23  1  0
 23 24  1  0
 23 25  2  0
 25 26  1  0
 16 27  1  0
 27 28  2  0
  9  3  1  0
 27 11  1  0
 25 17  1  0
M  END
>  <plip>  (1) 
-0.07142857142857142

>  <filename>  (1) 
[H][C](=[C]1[S][C](=[S])[N]([H])[C]1=[O])[N]1[C](=[O])[C](=[O])[N]([c]2[c]([H])[n][c]([H])[c]([H])[c]2[H])[C]1=[O]

$$$$
