
     RDKit          3D

 33 35  0  0  0  0  0  0  0  0999 V2000
    4.9425    1.7959   16.9930 H   0  0  0  0  0  0  0  0  0  0  0  0
    5.3966    1.2924   17.8445 C   0  0  0  0  0  0  0  0  0  0  0  0
    6.5511    0.6588   17.5946 N   0  0  0  0  0  0  0  0  0  0  0  0
    7.1350    0.0228   18.6115 C   0  0  0  0  0  0  0  0  0  0  0  0
    8.1087   -0.4190   18.4051 H   0  0  0  0  0  0  0  0  0  0  0  0
    6.5936   -0.0498   19.9128 C   0  0  0  0  0  0  0  0  0  0  0  0
    7.3090   -0.7634   21.0043 C   0  0  0  0  0  0  0  0  0  0  0  0
    6.5829   -1.5202   21.7998 N   0  0  0  0  0  0  0  0  0  0  0  0
    7.2068   -2.1939   22.7797 N   0  0  0  0  0  0  0  0  0  0  0  0
    6.3100   -2.9288   23.5025 O   0  0  0  0  0  0  0  0  0  0  0  0
    6.7677   -3.7189   24.6217 C   0  0  0  0  0  0  0  0  0  0  0  0
    7.2252   -3.0610   25.3734 H   0  0  0  0  0  0  0  0  0  0  0  0
    7.5046   -4.4556   24.2736 H   0  0  0  0  0  0  0  0  0  0  0  0
    5.5635   -4.4320   25.2195 C   0  0  0  0  0  0  0  0  0  0  0  0
    4.7929   -3.8445   26.2336 C   0  0  0  0  0  0  0  0  0  0  0  0
    5.0422   -2.8713   26.6425 H   0  0  0  0  0  0  0  0  0  0  0  0
    3.6787   -4.5284   26.7328 C   0  0  0  0  0  0  0  0  0  0  0  0
    3.0632   -4.0927   27.5201 H   0  0  0  0  0  0  0  0  0  0  0  0
    3.2952   -5.7344   26.2958 N   0  0  0  0  0  0  0  0  0  0  0  0
    4.0315   -6.3004   25.3320 C   0  0  0  0  0  0  0  0  0  0  0  0
    3.6981   -7.2829   24.9976 H   0  0  0  0  0  0  0  0  0  0  0  0
    5.1617   -5.6977   24.7680 C   0  0  0  0  0  0  0  0  0  0  0  0
    5.7089   -6.2219   23.9925 H   0  0  0  0  0  0  0  0  0  0  0  0
    8.5498   -2.1235   23.0516 C   0  0  0  0  0  0  0  0  0  0  0  0
    8.8691   -2.7276   23.8958 H   0  0  0  0  0  0  0  0  0  0  0  0
    9.3698   -1.3514   22.3048 C   0  0  0  0  0  0  0  0  0  0  0  0
   10.4316   -1.2527   22.4634 H   0  0  0  0  0  0  0  0  0  0  0  0
    8.8017   -0.5742   21.2043 C   0  0  0  0  0  0  0  0  0  0  0  0
    9.4909    0.1685   20.5109 O   0  0  0  0  0  0  0  0  0  0  0  0
    5.3888    0.6243   20.1569 C   0  0  0  0  0  0  0  0  0  0  0  0
    4.9679    0.6256   21.1622 H   0  0  0  0  0  0  0  0  0  0  0  0
    4.7869    1.3147   19.1031 C   0  0  0  0  0  0  0  0  0  0  0  0
    3.8646    1.8688   19.2366 H   0  0  0  0  0  0  0  0  0  0  0  0
  1  2  1  0
  2  3  2  0
  3  4  1  0
  4  5  1  0
  4  6  2  0
  6  7  1  0
  7  8  2  0
  8  9  1  0
  9 10  1  0
 10 11  1  0
 11 12  1  0
 11 13  1  0
 11 14  1  0
 14 15  2  0
 15 16  1  0
 15 17  1  0
 17 18  1  0
 17 19  2  0
 19 20  1  0
 20 21  1  0
 20 22  2  0
 22 23  1  0
  9 24  1  0
 24 25  1  0
 24 26  2  0
 26 27  1  0
 26 28  1  0
 28 29  2  0
  6 30  1  0
 30 31  1  0
 30 32  2  0
 32 33  1  0
 32  2  1  0
 28  7  1  0
 22 14  1  0
M  END
>  <plip>  (1) 
-0.07142857142857142

>  <filename>  (1) 
[H][c]1[n][c]([H])[c](-[c]2[n][n]([O][C]([H])([H])[c]3[c]([H])[c]([H])[n][c]([H])[c]3[H])[c]([H])[c]([H])[c]2=[O])[c]([H])[c]1[H]

$$$$
