
     RDKit          3D

 31 33  0  0  0  0  0  0  0  0999 V2000
    5.0039    1.8883   16.9252 H   0  0  0  0  0  0  0  0  0  0  0  0
    5.4653    1.3575   17.7554 C   0  0  0  0  0  0  0  0  0  0  0  0
    6.6278    0.7379   17.4878 N   0  0  0  0  0  0  0  0  0  0  0  0
    7.2225    0.0734   18.4837 C   0  0  0  0  0  0  0  0  0  0  0  0
    8.1640   -0.4220   18.2507 H   0  0  0  0  0  0  0  0  0  0  0  0
    6.6764   -0.0312   19.7788 C   0  0  0  0  0  0  0  0  0  0  0  0
    7.2951   -0.7891   20.8043 N   0  0  0  0  0  0  0  0  0  0  0  0
    6.6889   -1.7580   21.6498 C   0  0  0  0  0  0  0  0  0  0  0  0
    5.5423   -2.1592   21.5728 O   0  0  0  0  0  0  0  0  0  0  0  0
    7.7828   -2.1727   22.5060 C   0  0  0  0  0  0  0  0  0  0  0  0
    7.6283   -2.8661   23.3148 H   0  0  0  0  0  0  0  0  0  0  0  0
    8.9383   -1.5648   22.1069 C   0  0  0  0  0  0  0  0  0  0  0  0
   10.3296   -1.8519   22.6371 C   0  0  0  0  0  0  0  0  0  0  0  0
   10.5099   -2.8481   23.3154 O   0  0  0  0  0  0  0  0  0  0  0  0
   11.4769   -0.9045   22.3371 C   0  0  0  0  0  0  0  0  0  0  0  0
   11.3563    0.4999   22.3454 C   0  0  0  0  0  0  0  0  0  0  0  0
   10.3836    0.9903   22.3522 H   0  0  0  0  0  0  0  0  0  0  0  0
   12.5067    1.2987   22.3766 C   0  0  0  0  0  0  0  0  0  0  0  0
   12.4121    2.3686   22.5273 H   0  0  0  0  0  0  0  0  0  0  0  0
   13.7793    0.7200   22.3521 C   0  0  0  0  0  0  0  0  0  0  0  0
   14.6720    1.3413   22.3936 H   0  0  0  0  0  0  0  0  0  0  0  0
   13.9024   -0.6670   22.2404 C   0  0  0  0  0  0  0  0  0  0  0  0
   14.8763   -1.1408   22.2382 H   0  0  0  0  0  0  0  0  0  0  0  0
   12.7598   -1.4648   22.1912 C   0  0  0  0  0  0  0  0  0  0  0  0
   12.8605   -2.5400   22.0813 H   0  0  0  0  0  0  0  0  0  0  0  0
    8.6540   -0.7535   21.0305 N   0  0  0  0  0  0  0  0  0  0  0  0
    9.1896    0.0092   20.6360 H   0  0  0  0  0  0  0  0  0  0  0  0
    5.4590    0.6069   20.0457 C   0  0  0  0  0  0  0  0  0  0  0  0
    5.0224    0.5321   21.0411 H   0  0  0  0  0  0  0  0  0  0  0  0
    4.8517    1.3247   19.0127 C   0  0  0  0  0  0  0  0  0  0  0  0
    3.9200    1.8566   19.1694 H   0  0  0  0  0  0  0  0  0  0  0  0
  1  2  1  0
  2  3  2  0
  3  4  1  0
  4  5  1  0
  4  6  2  0
  6  7  1  0
  7  8  1  0
  8  9  2  0
  8 10  1  0
 10 11  1  0
 10 12  2  0
 12 13  1  0
 13 14  2  0
 13 15  1  0
 15 16  2  0
 16 17  1  0
 16 18  1  0
 18 19  1  0
 18 20  2  0
 20 21  1  0
 20 22  1  0
 22 23  1  0
 22 24  2  0
 24 25  1  0
 12 26  1  0
 26 27  1  0
  6 28  1  0
 28 29  1  0
 28 30  2  0
 30 31  1  0
 30  2  1  0
 26  7  1  0
 24 15  1  0
M  END
>  <plip>  (1) 
-0.10714285714285714

>  <filename>  (1) 
[H][c]1[n][c]([H])[c](-[n]2[c](=[O])[c]([H])[c]([C](=[O])[c]3[c]([H])[c]([H])[c]([H])[c]([H])[c]3[H])[n]2[H])[c]([H])[c]1[H]

$$$$
