
     RDKit          3D

 44 45  0  0  0  0  0  0  0  0999 V2000
    4.9078    1.7773   16.9995 H   0  0  0  0  0  0  0  0  0  0  0  0
    5.4002    1.2942   17.8387 C   0  0  0  0  0  0  0  0  0  0  0  0
    6.5635    0.6818   17.5674 N   0  0  0  0  0  0  0  0  0  0  0  0
    7.1746    0.0706   18.5900 C   0  0  0  0  0  0  0  0  0  0  0  0
    8.1172   -0.4306   18.3731 H   0  0  0  0  0  0  0  0  0  0  0  0
    6.6612    0.0140   19.8984 C   0  0  0  0  0  0  0  0  0  0  0  0
    7.3791   -0.7060   20.9776 C   0  0  0  0  0  0  0  0  0  0  0  0
    8.7679   -0.5821   21.1605 C   0  0  0  0  0  0  0  0  0  0  0  0
    9.3292    0.0667   20.4884 H   0  0  0  0  0  0  0  0  0  0  0  0
    9.4510   -1.1967   22.1314 N   0  0  0  0  0  0  0  0  0  0  0  0
    8.7499   -1.9861   22.9587 C   0  0  0  0  0  0  0  0  0  0  0  0
    9.3131   -2.4771   23.7466 H   0  0  0  0  0  0  0  0  0  0  0  0
    7.3677   -2.2142   22.8628 C   0  0  0  0  0  0  0  0  0  0  0  0
    6.6271   -3.0631   23.8580 C   0  0  0  0  0  0  0  0  0  0  0  0
    5.7629   -3.5322   23.3680 H   0  0  0  0  0  0  0  0  0  0  0  0
    7.2728   -3.8821   24.1954 H   0  0  0  0  0  0  0  0  0  0  0  0
    6.1329   -2.2423   25.0553 C   0  0  0  0  0  0  0  0  0  0  0  0
    6.9894   -1.7315   25.5170 H   0  0  0  0  0  0  0  0  0  0  0  0
    5.4959   -1.4357   24.6784 H   0  0  0  0  0  0  0  0  0  0  0  0
    5.3642   -3.0554   26.1076 C   0  0  0  0  0  0  0  0  0  0  0  0
    4.4970   -2.4735   26.4388 H   0  0  0  0  0  0  0  0  0  0  0  0
    4.9464   -3.9620   25.6455 H   0  0  0  0  0  0  0  0  0  0  0  0
    6.1949   -3.4265   27.3408 C   0  0  0  0  0  0  0  0  0  0  0  0
    5.5299   -3.8404   28.1102 H   0  0  0  0  0  0  0  0  0  0  0  0
    6.5884   -2.4912   27.7596 H   0  0  0  0  0  0  0  0  0  0  0  0
    7.3626   -4.3930   27.0984 C   0  0  0  0  0  0  0  0  0  0  0  0
    7.9233   -4.5114   28.0362 H   0  0  0  0  0  0  0  0  0  0  0  0
    8.0740   -3.9359   26.3966 H   0  0  0  0  0  0  0  0  0  0  0  0
    6.9600   -5.7828   26.5746 C   0  0  0  0  0  0  0  0  0  0  0  0
    7.8713   -6.3842   26.4448 H   0  0  0  0  0  0  0  0  0  0  0  0
    6.5224   -5.6880   25.5710 H   0  0  0  0  0  0  0  0  0  0  0  0
    5.9883   -6.5658   27.4672 C   0  0  0  0  0  0  0  0  0  0  0  0
    5.7544   -7.5202   26.9815 H   0  0  0  0  0  0  0  0  0  0  0  0
    5.0322   -6.0319   27.5497 H   0  0  0  0  0  0  0  0  0  0  0  0
    6.5341   -6.8465   28.8639 C   0  0  0  0  0  0  0  0  0  0  0  0
    6.6392   -5.9269   29.4493 H   0  0  0  0  0  0  0  0  0  0  0  0
    7.5222   -7.3171   28.8050 H   0  0  0  0  0  0  0  0  0  0  0  0
    5.8726   -7.5196   29.4160 H   0  0  0  0  0  0  0  0  0  0  0  0
    6.6814   -1.5337   21.8585 C   0  0  0  0  0  0  0  0  0  0  0  0
    5.6035   -1.6573   21.7391 H   0  0  0  0  0  0  0  0  0  0  0  0
    5.4393    0.6492   20.1519 C   0  0  0  0  0  0  0  0  0  0  0  0
    5.0140    0.6307   21.1591 H   0  0  0  0  0  0  0  0  0  0  0  0
    4.8025    1.3170   19.1055 C   0  0  0  0  0  0  0  0  0  0  0  0
    3.8690    1.8469   19.2634 H   0  0  0  0  0  0  0  0  0  0  0  0
  1  2  1  0
  2  3  2  0
  3  4  1  0
  4  5  1  0
  4  6  2  0
  6  7  1  0
  7  8  2  0
  8  9  1  0
  8 10  1  0
 10 11  2  0
 11 12  1  0
 11 13  1  0
 13 14  1  0
 14 15  1  0
 14 16  1  0
 14 17  1  0
 17 18  1  0
 17 19  1  0
 17 20  1  0
 20 21  1  0
 20 22  1  0
 20 23  1  0
 23 24  1  0
 23 25  1  0
 23 26  1  0
 26 27  1  0
 26 28  1  0
 26 29  1  0
 29 30  1  0
 29 31  1  0
 29 32  1  0
 32 33  1  0
 32 34  1  0
 32 35  1  0
 35 36  1  0
 35 37  1  0
 35 38  1  0
 13 39  2  0
 39 40  1  0
  6 41  1  0
 41 42  1  0
 41 43  2  0
 43 44  1  0
 43  2  1  0
 39  7  1  0
M  END
>  <plip>  (1) 
-0.07142857142857142

>  <filename>  (1) 
[H][c]1[n][c]([H])[c](-[c]2[c]([H])[n][c]([H])[c]([C]([H])([H])[C]([H])([H])[C]([H])([H])[C]([H])([H])[C]([H])([H])[C]([H])([H])[C]([H])([H])[C]([H])([H])[H])[c]2[H])[c]([H])[c]1[H]

$$$$
