
     RDKit          3D

 29 31  0  0  0  0  0  0  0  0999 V2000
    4.9485    1.7776   17.0542 H   0  0  0  0  0  0  0  0  0  0  0  0
    5.4201    1.2584   17.8855 C   0  0  0  0  0  0  0  0  0  0  0  0
    6.5758    0.6336   17.6112 N   0  0  0  0  0  0  0  0  0  0  0  0
    7.2083    0.0172   18.6144 C   0  0  0  0  0  0  0  0  0  0  0  0
    8.1587   -0.4474   18.3690 H   0  0  0  0  0  0  0  0  0  0  0  0
    6.7044   -0.0452   19.9382 C   0  0  0  0  0  0  0  0  0  0  0  0
    7.4146   -0.7162   21.0144 N   0  0  0  0  0  0  0  0  0  0  0  0
    8.7942   -0.6395   21.1991 C   0  0  0  0  0  0  0  0  0  0  0  0
    9.5738   -0.0383   20.5110 O   0  0  0  0  0  0  0  0  0  0  0  0
    9.0879   -1.5167   22.4310 C   0  0  0  0  0  0  0  0  0  0  0  0
   10.1545   -1.7798   22.9032 O   0  0  0  0  0  0  0  0  0  0  0  0
    7.8484   -1.9842   22.8470 N   0  0  0  0  0  0  0  0  0  0  0  0
    7.6175   -2.8261   23.9412 C   0  0  0  0  0  0  0  0  0  0  0  0
    8.6305   -3.2891   24.6598 N   0  0  0  0  0  0  0  0  0  0  0  0
    8.0563   -4.0329   25.6084 N   0  0  0  0  0  0  0  0  0  0  0  0
    8.8584   -4.7463   26.5859 C   0  0  0  0  0  0  0  0  0  0  0  0
    9.0223   -5.7842   26.2662 H   0  0  0  0  0  0  0  0  0  0  0  0
    8.3353   -4.7352   27.5512 H   0  0  0  0  0  0  0  0  0  0  0  0
    9.8159   -4.2256   26.6712 H   0  0  0  0  0  0  0  0  0  0  0  0
    6.7094   -4.0597   25.5038 C   0  0  0  0  0  0  0  0  0  0  0  0
    6.1440   -4.6330   26.2320 H   0  0  0  0  0  0  0  0  0  0  0  0
    6.3713   -3.2775   24.4212 C   0  0  0  0  0  0  0  0  0  0  0  0
    5.4107   -3.0432   23.9919 H   0  0  0  0  0  0  0  0  0  0  0  0
    6.8866   -1.6762   21.8997 C   0  0  0  0  0  0  0  0  0  0  0  0
    5.8159   -2.2064   21.8189 O   0  0  0  0  0  0  0  0  0  0  0  0
    5.4832    0.5893   20.1985 C   0  0  0  0  0  0  0  0  0  0  0  0
    5.0600    0.5437   21.1994 H   0  0  0  0  0  0  0  0  0  0  0  0
    4.8342    1.2673   19.1538 C   0  0  0  0  0  0  0  0  0  0  0  0
    3.9032    1.8108   19.3056 H   0  0  0  0  0  0  0  0  0  0  0  0
  1  2  1  0
  2  3  2  0
  3  4  1  0
  4  5  1  0
  4  6  2  0
  6  7  1  0
  7  8  1  0
  8  9  2  0
  8 10  1  0
 10 11  2  0
 10 12  1  0
 12 13  1  0
 13 14  2  0
 14 15  1  0
 15 16  1  0
 16 17  1  0
 16 18  1  0
 16 19  1  0
 15 20  1  0
 20 21  1  0
 20 22  2  0
 22 23  1  0
 12 24  1  0
 24 25  2  0
  6 26  1  0
 26 27  1  0
 26 28  2  0
 28 29  1  0
 28  2  1  0
 24  7  1  0
 22 13  1  0
M  END
>  <plip>  (1) 
-0.07142857142857142

>  <filename>  (1) 
[H][c]1[n][c]([H])[c]([N]2[C](=[O])[C](=[O])[N]([c]3[n][n]([C]([H])([H])[H])[c]([H])[c]3[H])[C]2=[O])[c]([H])[c]1[H]

$$$$
