
     RDKit          3D

 36 38  0  0  0  0  0  0  0  0999 V2000
    4.9667    1.7963   16.9955 H   0  0  0  0  0  0  0  0  0  0  0  0
    5.4133    1.2824   17.8435 C   0  0  0  0  0  0  0  0  0  0  0  0
    6.5747    0.6492   17.6016 N   0  0  0  0  0  0  0  0  0  0  0  0
    7.1684    0.0154   18.6158 C   0  0  0  0  0  0  0  0  0  0  0  0
    8.1142   -0.4682   18.3834 H   0  0  0  0  0  0  0  0  0  0  0  0
    6.6468   -0.0146   19.9174 C   0  0  0  0  0  0  0  0  0  0  0  0
    7.3645   -0.7041   20.9357 N   0  0  0  0  0  0  0  0  0  0  0  0
    7.6923   -1.9968   20.7595 N   0  0  0  0  0  0  0  0  0  0  0  0
    8.2681   -2.3652   21.8885 C   0  0  0  0  0  0  0  0  0  0  0  0
    8.5895   -3.3963   21.9731 H   0  0  0  0  0  0  0  0  0  0  0  0
    8.3480   -1.3018   22.8113 C   0  0  0  0  0  0  0  0  0  0  0  0
    8.7629   -1.3200   23.8107 H   0  0  0  0  0  0  0  0  0  0  0  0
    7.7735   -0.2290   22.1599 C   0  0  0  0  0  0  0  0  0  0  0  0
    7.5956    1.2145   22.5598 C   0  0  0  0  0  0  0  0  0  0  0  0
    7.2081    1.7518   21.6868 H   0  0  0  0  0  0  0  0  0  0  0  0
    6.5655    1.3531   23.7157 C   0  0  0  0  0  0  0  0  0  0  0  0
    6.2274    2.3965   23.7615 H   0  0  0  0  0  0  0  0  0  0  0  0
    5.6844    0.7217   23.5259 H   0  0  0  0  0  0  0  0  0  0  0  0
    7.1702    1.0037   25.0738 C   0  0  0  0  0  0  0  0  0  0  0  0
    7.3741   -0.0859   25.1580 H   0  0  0  0  0  0  0  0  0  0  0  0
    6.4590    1.2549   25.8730 H   0  0  0  0  0  0  0  0  0  0  0  0
    8.3593    1.8162   25.2805 N   0  0  0  0  0  0  0  0  0  0  0  0
    8.8823    1.7036   26.6149 C   0  0  0  0  0  0  0  0  0  0  0  0
    9.2053    0.6730   26.8657 H   0  0  0  0  0  0  0  0  0  0  0  0
    8.1480    2.0266   27.3570 H   0  0  0  0  0  0  0  0  0  0  0  0
    9.7422    2.3724   26.6530 H   0  0  0  0  0  0  0  0  0  0  0  0
    9.4187    1.5474   24.3173 C   0  0  0  0  0  0  0  0  0  0  0  0
    9.7990    0.5080   24.3936 H   0  0  0  0  0  0  0  0  0  0  0  0
   10.2580    2.2018   24.5829 H   0  0  0  0  0  0  0  0  0  0  0  0
    8.9539    1.8775   22.9076 C   0  0  0  0  0  0  0  0  0  0  0  0
    9.7258    1.5666   22.1918 H   0  0  0  0  0  0  0  0  0  0  0  0
    8.8555    2.9684   22.8317 H   0  0  0  0  0  0  0  0  0  0  0  0
    5.4284    0.6351   20.1615 C   0  0  0  0  0  0  0  0  0  0  0  0
    4.9924    0.6444   21.1618 H   0  0  0  0  0  0  0  0  0  0  0  0
    4.8018    1.2953   19.0995 C   0  0  0  0  0  0  0  0  0  0  0  0
    3.8728    1.8385   19.2426 H   0  0  0  0  0  0  0  0  0  0  0  0
  1  2  1  0
  2  3  2  0
  3  4  1  0
  4  5  1  0
  4  6  2  0
  6  7  1  0
  7  8  1  0
  8  9  2  0
  9 10  1  0
  9 11  1  0
 11 12  1  0
 11 13  2  0
 13 14  1  0
 14 15  1  0
 14 16  1  0
 16 17  1  0
 16 18  1  0
 16 19  1  0
 19 20  1  0
 19 21  1  0
 19 22  1  0
 22 23  1  0
 23 24  1  0
 23 25  1  0
 23 26  1  0
 22 27  1  0
 27 28  1  0
 27 29  1  0
 27 30  1  0
 30 31  1  0
 30 32  1  0
  6 33  1  0
 33 34  1  0
 33 35  2  0
 35 36  1  0
 35  2  1  0
 13  7  1  0
 30 14  1  0
M  END
>  <plip>  (1) 
-0.0

>  <filename>  (1) 
[H][c]1[n][c]([H])[c](-[n]2[n][c]([H])[c]([H])[c]2[C]2([H])[C]([H])([H])[C]([H])([H])[N]([C]([H])([H])[H])[C]([H])([H])[C]2([H])[H])[c]([H])[c]1[H]

$$$$
