
     RDKit          3D

 41 42  0  0  0  0  0  0  0  0999 V2000
    9.6111   -1.5501   20.8953 C   0  0  0  0  0  0  0  0  0  0  0  0
    8.7036   -0.4049   21.3163 C   0  0  0  0  0  0  0  0  0  0  0  0
    7.2881   -0.7175   21.0617 N   0  0  0  0  0  0  0  0  0  0  0  0
    6.6464   -1.7377   21.7515 C   0  0  0  0  0  0  0  0  0  0  0  0
    5.6081   -2.2584   21.4049 O   0  0  0  0  0  0  0  0  0  0  0  0
    7.3298   -2.0875   22.8707 O   0  0  0  0  0  0  0  0  0  0  0  0
    6.7082   -3.0692   23.7263 C   0  0  0  0  0  0  0  0  0  0  0  0
    7.4019   -2.9794   25.0702 C   0  0  0  0  0  0  0  0  0  0  0  0
    6.9001   -4.0617   26.0095 C   0  0  0  0  0  0  0  0  0  0  0  0
    7.1010   -5.4173   25.3774 N   0  0  0  0  0  4  0  0  0  0  0  0
    6.7114   -6.4571   26.3463 C   0  0  0  0  0  0  0  0  0  0  0  0
    5.6389   -6.3898   26.5733 H   0  0  0  0  0  0  0  0  0  0  0  0
    7.2491   -6.3281   27.2922 H   0  0  0  0  0  0  0  0  0  0  0  0
    6.9131   -7.4566   25.9698 H   0  0  0  0  0  0  0  0  0  0  0  0
    6.4066   -5.5470   24.0365 C   0  0  0  0  0  0  0  0  0  0  0  0
    6.9072   -4.4491   23.1097 C   0  0  0  0  0  0  0  0  0  0  0  0
    6.4032   -4.4772   22.1442 H   0  0  0  0  0  0  0  0  0  0  0  0
    7.9815   -4.5829   22.9330 H   0  0  0  0  0  0  0  0  0  0  0  0
    6.5947   -6.5387   23.6086 H   0  0  0  0  0  0  0  0  0  0  0  0
    5.3258   -5.4601   24.1966 H   0  0  0  0  0  0  0  0  0  0  0  0
    8.1205   -5.5087   25.1745 H   0  0  0  0  0  0  0  0  0  0  0  0
    5.8279   -3.9520   26.2131 H   0  0  0  0  0  0  0  0  0  0  0  0
    7.4265   -4.0426   26.9710 H   0  0  0  0  0  0  0  0  0  0  0  0
    7.2569   -1.9892   25.5047 H   0  0  0  0  0  0  0  0  0  0  0  0
    8.4755   -3.1275   24.9132 H   0  0  0  0  0  0  0  0  0  0  0  0
    5.6367   -2.8378   23.8316 H   0  0  0  0  0  0  0  0  0  0  0  0
    6.6227   -0.0665   19.9740 C   0  0  0  0  0  0  0  0  0  0  0  0
    5.4050    0.5897   20.1887 C   0  0  0  0  0  0  0  0  0  0  0  0
    4.8192    1.2773   19.1238 C   0  0  0  0  0  0  0  0  0  0  0  0
    5.4504    1.2642   17.8776 C   0  0  0  0  0  0  0  0  0  0  0  0
    6.6113    0.6309   17.6529 N   0  0  0  0  0  0  0  0  0  0  0  0
    7.1888    0.0009   18.6830 C   0  0  0  0  0  0  0  0  0  0  0  0
    8.1542   -0.4662   18.4765 H   0  0  0  0  0  0  0  0  0  0  0  0
    5.0121    1.7862   17.0291 H   0  0  0  0  0  0  0  0  0  0  0  0
    3.8990    1.8349   19.2508 H   0  0  0  0  0  0  0  0  0  0  0  0
    4.9578    0.5764   21.1825 H   0  0  0  0  0  0  0  0  0  0  0  0
    8.9529    0.4963   20.7466 H   0  0  0  0  0  0  0  0  0  0  0  0
    8.8346   -0.1369   22.3712 H   0  0  0  0  0  0  0  0  0  0  0  0
    9.3810   -1.8257   19.8621 H   0  0  0  0  0  0  0  0  0  0  0  0
    9.4628   -2.4318   21.5212 H   0  0  0  0  0  0  0  0  0  0  0  0
   10.6628   -1.2518   20.9544 H   0  0  0  0  0  0  0  0  0  0  0  0
  1  2  1  0
  2  3  1  0
  3  4  1  0
  4  5  2  0
  4  6  1  0
  6  7  1  0
  7  8  1  0
  8  9  1  0
  9 10  1  0
 10 11  1  0
 11 12  1  0
 11 13  1  0
 11 14  1  0
 10 15  1  0
 15 16  1  0
 16 17  1  0
 16 18  1  0
 15 19  1  0
 15 20  1  0
 10 21  1  0
  9 22  1  0
  9 23  1  0
  8 24  1  0
  8 25  1  0
  7 26  1  0
  3 27  1  0
 27 28  2  0
 28 29  1  0
 29 30  2  0
 30 31  1  0
 31 32  2  0
 32 33  1  0
 30 34  1  0
 29 35  1  0
 28 36  1  0
  2 37  1  0
  2 38  1  0
  1 39  1  0
  1 40  1  0
  1 41  1  0
 16  7  1  0
 32 27  1  0
M  CHG  1  10   1
M  END
>  <plip>  (1) 
-0.03571428571428571

>  <filename>  (1) 
[H][c]1[n][c]([H])[c]([N]([C](=[O])[O][C]2([H])[C]([H])([H])[C]([H])([H])[N+]([H])([C]([H])([H])[H])[C]([H])([H])[C]2([H])[H])[C]([H])([H])[C]([H])([H])[H])[c]([H])[c]1[H]

$$$$
