
     RDKit          3D

 25 26  0  0  0  0  0  0  0  0999 V2000
    7.0335   -0.2971   22.0502 H   0  0  0  0  0  0  0  0  0  0  0  0
    7.2966   -0.6615   21.0482 C   0  0  0  0  0  0  0  0  0  0  0  0
    8.1804   -1.6453   20.8895 C   0  0  0  0  0  0  0  0  0  0  0  0
    8.5102   -1.8590   19.8822 H   0  0  0  0  0  0  0  0  0  0  0  0
    8.8657   -2.3545   22.0370 C   0  0  0  0  0  0  0  0  0  0  0  0
    9.3817   -3.2635   21.7138 H   0  0  0  0  0  0  0  0  0  0  0  0
    8.1448   -2.6503   22.8111 H   0  0  0  0  0  0  0  0  0  0  0  0
    9.8389   -1.4856   22.6890 N   0  0  0  0  0  0  0  0  0  0  0  0
   11.0843   -1.1733   22.2348 C   0  0  0  0  0  0  0  0  0  0  0  0
   11.5021   -1.6500   21.3544 H   0  0  0  0  0  0  0  0  0  0  0  0
   11.6546   -0.2423   22.9537 N   0  0  0  0  0  0  0  0  0  0  0  0
   10.7305    0.0915   23.9139 C   0  0  0  0  0  0  0  0  0  0  0  0
   10.9618    0.8332   24.6672 H   0  0  0  0  0  0  0  0  0  0  0  0
    9.5925   -0.6497   23.7566 C   0  0  0  0  0  0  0  0  0  0  0  0
    8.6443   -0.6577   24.2765 H   0  0  0  0  0  0  0  0  0  0  0  0
    6.6408    0.0316   19.9225 C   0  0  0  0  0  0  0  0  0  0  0  0
    7.1520    0.0608   18.6050 C   0  0  0  0  0  0  0  0  0  0  0  0
    8.1067   -0.4097   18.3581 H   0  0  0  0  0  0  0  0  0  0  0  0
    6.5495    0.6700   17.5783 N   0  0  0  0  0  0  0  0  0  0  0  0
    5.3883    1.2980   17.8251 C   0  0  0  0  0  0  0  0  0  0  0  0
    4.9302    1.7988   16.9747 H   0  0  0  0  0  0  0  0  0  0  0  0
    4.7919    1.3278   19.0891 C   0  0  0  0  0  0  0  0  0  0  0  0
    3.8585    1.8524   19.2280 H   0  0  0  0  0  0  0  0  0  0  0  0
    5.4267    0.6874   20.1502 C   0  0  0  0  0  0  0  0  0  0  0  0
    4.9991    0.6618   21.1543 H   0  0  0  0  0  0  0  0  0  0  0  0
  1  2  1  0
  2  3  2  3
  3  4  1  0
  3  5  1  0
  5  6  1  0
  5  7  1  0
  5  8  1  0
  8  9  1  0
  9 10  1  0
  9 11  2  0
 11 12  1  0
 12 13  1  0
 12 14  2  0
 14 15  1  0
  2 16  1  0
 16 17  2  0
 17 18  1  0
 17 19  1  0
 19 20  2  0
 20 21  1  0
 20 22  1  0
 22 23  1  0
 22 24  2  0
 24 25  1  0
 14  8  1  0
 24 16  1  0
M  END
>  <plip>  (1) 
-0.07142857142857142

>  <filename>  (1) 
[H][C](=[C]([H])[C]([H])([H])[n]1[c]([H])[n][c]([H])[c]1[H])[c]1[c]([H])[n][c]([H])[c]([H])[c]1[H]

$$$$
