
     RDKit          3D

 30 32  0  0  0  0  0  0  0  0999 V2000
    8.3060    3.5550   26.9577 Br  0  0  0  0  0  0  0  0  0  0  0  0
    7.5737    1.9101   26.3452 C   0  0  0  0  0  0  0  0  0  0  0  0
    6.2786    1.8141   25.9068 C   0  0  0  0  0  0  0  0  0  0  0  0
    5.9628    0.4734   25.4429 C   0  0  0  0  0  0  0  0  0  0  0  0
    7.0399   -0.3787   25.5572 C   0  0  0  0  0  0  0  0  0  0  0  0
    7.0259   -1.8326   25.1719 C   0  0  0  0  0  0  0  0  0  0  0  0
    8.0741   -2.0931   24.1721 N   0  0  0  0  0  0  0  0  0  0  0  0
    7.9972   -1.6373   22.8688 C   0  0  0  0  0  0  0  0  0  0  0  0
    7.0095   -0.9423   22.2777 C   0  0  0  0  0  0  0  0  0  0  0  0
    7.4299   -0.7091   20.9147 C   0  0  0  0  0  0  0  0  0  0  0  0
    6.6676    0.0047   19.9022 C   0  0  0  0  0  0  0  0  0  0  0  0
    5.4481    0.6417   20.1698 C   0  0  0  0  0  0  0  0  0  0  0  0
    4.8244    1.2987   19.1091 C   0  0  0  0  0  0  0  0  0  0  0  0
    5.4048    1.2902   17.8352 C   0  0  0  0  0  0  0  0  0  0  0  0
    6.5719    0.6703   17.5847 N   0  0  0  0  0  0  0  0  0  0  0  0
    7.1876    0.0521   18.6048 C   0  0  0  0  0  0  0  0  0  0  0  0
    8.1338   -0.4398   18.4011 H   0  0  0  0  0  0  0  0  0  0  0  0
    4.8939    1.7935   17.0198 H   0  0  0  0  0  0  0  0  0  0  0  0
    3.8890    1.8271   19.2601 H   0  0  0  0  0  0  0  0  0  0  0  0
    5.0017    0.6380   21.1662 H   0  0  0  0  0  0  0  0  0  0  0  0
    8.6129   -1.2359   20.6917 N   0  0  0  0  0  0  0  0  0  0  0  0
    8.9494   -1.7956   21.8932 N   0  0  0  0  0  0  0  0  0  0  0  0
    9.8181   -2.2783   22.0853 H   0  0  0  0  0  0  0  0  0  0  0  0
    6.0945   -0.6201   22.7408 H   0  0  0  0  0  0  0  0  0  0  0  0
    8.8969   -2.6198   24.4538 H   0  0  0  0  0  0  0  0  0  0  0  0
    7.2103   -2.4406   26.0634 H   0  0  0  0  0  0  0  0  0  0  0  0
    6.0461   -2.1195   24.7731 H   0  0  0  0  0  0  0  0  0  0  0  0
    8.4690    0.3978   26.2347 S   0  0  0  0  0  0  0  0  0  0  0  0
    4.9876    0.1912   25.0482 H   0  0  0  0  0  0  0  0  0  0  0  0
    5.5782    2.6483   25.8965 H   0  0  0  0  0  0  0  0  0  0  0  0
  1  2  1  0
  2  3  2  0
  3  4  1  0
  4  5  2  0
  5  6  1  0
  6  7  1  0
  7  8  1  0
  8  9  2  0
  9 10  1  0
 10 11  1  0
 11 12  2  0
 12 13  1  0
 13 14  2  0
 14 15  1  0
 15 16  2  0
 16 17  1  0
 14 18  1  0
 13 19  1  0
 12 20  1  0
 10 21  2  0
 21 22  1  0
 22 23  1  0
  9 24  1  0
  7 25  1  0
  6 26  1  0
  6 27  1  0
  5 28  1  0
  4 29  1  0
  3 30  1  0
 28  2  1  0
 22  8  1  0
 16 11  1  0
M  END
>  <plip>  (1) 
-0.03571428571428571

>  <filename>  (1) 
[H][c]1[n][c]([H])[c](-[c]2[n][n]([H])[c]([N]([H])[C]([H])([H])[c]3[s][c]([Br])[c]([H])[c]3[H])[c]2[H])[c]([H])[c]1[H]

$$$$
