
     RDKit          3D

 32 35  0  0  0  0  0  0  0  0999 V2000
    4.9682    1.8350   16.9445 H   0  0  0  0  0  0  0  0  0  0  0  0
    5.4098    1.2995   17.7802 C   0  0  0  0  0  0  0  0  0  0  0  0
    6.5609    0.6588   17.5266 N   0  0  0  0  0  0  0  0  0  0  0  0
    7.1445    0.0082   18.5382 C   0  0  0  0  0  0  0  0  0  0  0  0
    8.0954   -0.4722   18.3101 H   0  0  0  0  0  0  0  0  0  0  0  0
    6.6162   -0.0394   19.8433 C   0  0  0  0  0  0  0  0  0  0  0  0
    7.3727   -0.6679   20.9417 C   0  0  0  0  0  0  0  0  0  0  0  0
    8.5114   -1.3417   20.7058 N   0  0  0  0  0  0  0  0  0  0  0  0
    8.9271   -1.6714   21.9481 N   0  0  0  0  0  0  0  0  0  0  0  0
   10.0986   -2.1905   22.4823 C   0  0  0  0  0  0  0  0  0  0  0  0
   10.8709   -2.5383   21.8205 H   0  0  0  0  0  0  0  0  0  0  0  0
    9.9994   -2.0383   23.8275 C   0  0  0  0  0  0  0  0  0  0  0  0
   10.6917   -2.3248   24.6043 H   0  0  0  0  0  0  0  0  0  0  0  0
    8.7575   -1.4728   24.1311 N   0  0  0  0  0  0  0  0  0  0  0  0
    8.3853   -0.7417   25.3378 C   0  0  0  0  0  0  0  0  0  0  0  0
    8.7676   -1.2522   26.2280 H   0  0  0  0  0  0  0  0  0  0  0  0
    7.2930   -0.7541   25.3908 H   0  0  0  0  0  0  0  0  0  0  0  0
    8.8309    0.6925   25.2629 C   0  0  0  0  0  0  0  0  0  0  0  0
    7.9707    1.6512   24.7781 N   0  0  0  0  0  0  0  0  0  0  0  0
    8.6631    2.7579   24.7221 C   0  0  0  0  0  0  0  0  0  0  0  0
    8.2782    3.7308   24.4348 H   0  0  0  0  0  0  0  0  0  0  0  0
    9.9414    2.5611   25.1419 N   0  0  0  0  0  0  0  0  0  0  0  0
   10.6667    3.2576   25.1298 H   0  0  0  0  0  0  0  0  0  0  0  0
   10.0658    1.2334   25.4973 C   0  0  0  0  0  0  0  0  0  0  0  0
   10.9740    0.8129   25.9200 H   0  0  0  0  0  0  0  0  0  0  0  0
    8.1200   -1.2254   22.9301 C   0  0  0  0  0  0  0  0  0  0  0  0
    7.0629   -0.5708   22.3215 C   0  0  0  0  0  0  0  0  0  0  0  0
    6.2864    0.0055   22.7973 H   0  0  0  0  0  0  0  0  0  0  0  0
    5.3982    0.6236   20.0798 C   0  0  0  0  0  0  0  0  0  0  0  0
    4.9519    0.6479   21.0743 H   0  0  0  0  0  0  0  0  0  0  0  0
    4.7879    1.3037   19.0319 C   0  0  0  0  0  0  0  0  0  0  0  0
    3.8665    1.8570   19.1785 H   0  0  0  0  0  0  0  0  0  0  0  0
  1  2  1  0
  2  3  2  0
  3  4  1  0
  4  5  1  0
  4  6  2  0
  6  7  1  0
  7  8  2  0
  8  9  1  0
  9 10  1  0
 10 11  1  0
 10 12  2  0
 12 13  1  0
 12 14  1  0
 14 15  1  0
 15 16  1  0
 15 17  1  0
 15 18  1  0
 18 19  1  0
 19 20  2  0
 20 21  1  0
 20 22  1  0
 22 23  1  0
 22 24  1  0
 24 25  1  0
 14 26  1  0
 26 27  2  0
 27 28  1  0
  6 29  1  0
 29 30  1  0
 29 31  2  0
 31 32  1  0
 31  2  1  0
 27  7  1  0
 26  9  1  0
 24 18  2  0
M  END
>  <plip>  (1) 
-0.0

>  <filename>  (1) 
[H][c]1[n][c]([H])[c](-[c]2[n][n]3[c]([H])[c]([H])[n]([C]([H])([H])[c]4[n][c]([H])[n]([H])[c]4[H])[c]3[c]2[H])[c]([H])[c]1[H]

$$$$
