
     RDKit          3D

 31 33  0  0  0  0  0  0  0  0999 V2000
    5.1454    1.8288   16.9532 H   0  0  0  0  0  0  0  0  0  0  0  0
    5.5560    1.3475   17.8384 C   0  0  0  0  0  0  0  0  0  0  0  0
    6.7753    0.8030   17.6999 N   0  0  0  0  0  0  0  0  0  0  0  0
    7.3053    0.2056   18.7752 C   0  0  0  0  0  0  0  0  0  0  0  0
    8.3043   -0.2136   18.6440 H   0  0  0  0  0  0  0  0  0  0  0  0
    6.6444    0.0869   20.0108 C   0  0  0  0  0  0  0  0  0  0  0  0
    7.2668   -0.6642   21.1699 C   0  0  1  0  0  0  0  0  0  0  0  0
    6.6905   -0.4419   22.0866 H   0  0  0  0  0  0  0  0  0  0  0  0
    7.2596   -2.2144   21.0299 C   0  0  0  0  0  0  0  0  0  0  0  0
    6.3460   -2.9765   20.8242 O   0  0  0  0  0  0  0  0  0  0  0  0
    8.5563   -2.5818   21.1996 N   0  0  0  0  0  0  0  0  0  0  0  0
    8.8789   -3.5245   21.2906 H   0  0  0  0  0  0  0  0  0  0  0  0
    9.4251   -1.5394   21.4044 C   0  0  0  0  0  0  0  0  0  0  0  0
   10.6003   -1.6970   21.6278 O   0  0  0  0  0  0  0  0  0  0  0  0
    8.7004   -0.3629   21.3116 N   0  0  0  0  0  0  0  0  0  0  0  0
    9.1738    0.8221   22.0407 C   0  0  2  0  0  0  0  0  0  0  0  0
    9.1698    0.6224   23.1234 H   0  0  0  0  0  0  0  0  0  0  0  0
    8.4074    2.1383   21.8503 C   0  0  0  0  0  0  0  0  0  0  0  0
    8.1388    2.2862   20.7926 H   0  0  0  0  0  0  0  0  0  0  0  0
    7.5058    2.2123   22.4638 H   0  0  0  0  0  0  0  0  0  0  0  0
    9.3170    3.1399   22.2930 O   0  0  0  0  0  0  0  0  0  0  0  0
   10.6577    2.6495   22.2515 C   0  0  0  0  0  0  0  0  0  0  0  0
   11.0539    2.5904   23.2763 H   0  0  0  0  0  0  0  0  0  0  0  0
   11.2861    3.3496   21.6876 H   0  0  0  0  0  0  0  0  0  0  0  0
   10.5666    1.2707   21.6058 C   0  0  0  0  0  0  0  0  0  0  0  0
   10.5429    1.3843   20.5191 H   0  0  0  0  0  0  0  0  0  0  0  0
   11.3492    0.5577   21.8724 H   0  0  0  0  0  0  0  0  0  0  0  0
    5.3742    0.6642   20.1357 C   0  0  0  0  0  0  0  0  0  0  0  0
    4.8368    0.6227   21.0856 H   0  0  0  0  0  0  0  0  0  0  0  0
    4.8240    1.3132   19.0268 C   0  0  0  0  0  0  0  0  0  0  0  0
    3.8572    1.8005   19.0803 H   0  0  0  0  0  0  0  0  0  0  0  0
  1  2  1  0
  2  3  2  0
  3  4  1  0
  4  5  1  0
  4  6  2  0
  6  7  1  0
  7  8  1  1
  7  9  1  0
  9 10  2  0
  9 11  1  0
 11 12  1  0
 11 13  1  0
 13 14  2  0
 13 15  1  0
 15 16  1  0
 16 17  1  1
 16 18  1  0
 18 19  1  0
 18 20  1  0
 18 21  1  0
 21 22  1  0
 22 23  1  0
 22 24  1  0
 22 25  1  0
 25 26  1  0
 25 27  1  0
  6 28  1  0
 28 29  1  0
 28 30  2  0
 30 31  1  0
 30  2  1  0
 15  7  1  0
 25 16  1  0
M  END
>  <plip>  (1) 
-0.13793103448275862

>  <filename>  (1) 
[H][c]1[n][c]([H])[c]([C@@]2([H])[C](=[O])[N]([H])[C](=[O])[N]2[C@]2([H])[C]([H])([H])[O][C]([H])([H])[C]2([H])[H])[c]([H])[c]1[H]

$$$$
