
     RDKit          3D

 31 33  0  0  0  0  0  0  0  0999 V2000
    8.7905    0.0797   21.2828 C   0  0  0  0  0  0  0  0  0  0  0  0
    7.3901   -0.5210   21.1214 C   0  0  0  0  0  0  0  0  0  0  0  0
    7.4321   -1.9515   20.9549 N   0  0  0  0  0  0  0  0  0  0  0  0
    7.7225   -2.8586   21.8970 C   0  0  0  0  0  0  0  0  0  0  0  0
    7.8410   -4.0778   21.4044 N   0  0  0  0  0  0  0  0  0  0  0  0
    8.1686   -5.0266   22.2845 C   0  0  0  0  0  0  0  0  0  0  0  0
    8.3976   -6.2881   22.0083 N   0  0  0  0  0  0  0  0  0  0  0  0
    8.8011   -6.8673   23.1635 C   0  0  0  0  0  0  0  0  0  0  0  0
    8.7997   -5.9864   24.2281 C   0  0  0  0  0  0  0  0  0  0  0  0
    8.3890   -4.7923   23.6680 N   0  0  0  0  0  0  0  0  0  0  0  0
    8.2234   -3.5221   24.1685 C   0  0  0  0  0  0  0  0  0  0  0  0
    7.8886   -2.5316   23.2985 C   0  0  0  0  0  0  0  0  0  0  0  0
    7.7719   -1.5119   23.6367 H   0  0  0  0  0  0  0  0  0  0  0  0
    8.3854   -3.4150   25.2435 H   0  0  0  0  0  0  0  0  0  0  0  0
    9.0731   -6.0504   25.2743 H   0  0  0  0  0  0  0  0  0  0  0  0
    9.1345   -7.8952   23.1114 H   0  0  0  0  0  0  0  0  0  0  0  0
    7.4906   -2.3724   20.0401 H   0  0  0  0  0  0  0  0  0  0  0  0
    6.6282    0.0275   19.9463 C   0  0  0  0  0  0  0  0  0  0  0  0
    5.4006    0.6751   20.1184 C   0  0  0  0  0  0  0  0  0  0  0  0
    4.8096    1.3056   19.0257 C   0  0  0  0  0  0  0  0  0  0  0  0
    5.4525    1.2330   17.7860 C   0  0  0  0  0  0  0  0  0  0  0  0
    6.5841    0.5395   17.5843 N   0  0  0  0  0  0  0  0  0  0  0  0
    7.1374   -0.0680   18.6444 C   0  0  0  0  0  0  0  0  0  0  0  0
    8.0416   -0.6421   18.4225 H   0  0  0  0  0  0  0  0  0  0  0  0
    5.0352    1.7386   16.9167 H   0  0  0  0  0  0  0  0  0  0  0  0
    3.8805    1.8549   19.1287 H   0  0  0  0  0  0  0  0  0  0  0  0
    4.9224    0.6725   21.0992 H   0  0  0  0  0  0  0  0  0  0  0  0
    6.8194   -0.2869   22.0341 H   0  0  0  0  0  0  0  0  0  0  0  0
    9.3993   -0.1030   20.3926 H   0  0  0  0  0  0  0  0  0  0  0  0
    9.3071   -0.3733   22.1340 H   0  0  0  0  0  0  0  0  0  0  0  0
    8.7420    1.1598   21.4470 H   0  0  0  0  0  0  0  0  0  0  0  0
  1  2  1  0
  2  3  1  0
  3  4  1  0
  4  5  2  0
  5  6  1  0
  6  7  2  0
  7  8  1  0
  8  9  2  0
  9 10  1  0
 10 11  1  0
 11 12  2  0
 12 13  1  0
 11 14  1  0
  9 15  1  0
  8 16  1  0
  3 17  1  0
  2 18  1  0
 18 19  2  0
 19 20  1  0
 20 21  2  0
 21 22  1  0
 22 23  2  0
 23 24  1  0
 21 25  1  0
 20 26  1  0
 19 27  1  0
  2 28  1  0
  1 29  1  0
  1 30  1  0
  1 31  1  0
 12  4  1  0
 23 18  1  0
 10  6  1  0
M  END
>  <plip>  (1) 
-0.1

>  <filename>  (1) 
[H][c]1[n][c]([H])[c]([C]([H])([N]([H])[c]2[n][c]3[n][c]([H])[c]([H])[n]3[c]([H])[c]2[H])[C]([H])([H])[H])[c]([H])[c]1[H]

$$$$
