
     RDKit          3D

 29 30  0  0  0  0  0  0  0  0999 V2000
    4.9259    1.7991   17.0176 H   0  0  0  0  0  0  0  0  0  0  0  0
    5.3997    1.2695   17.8414 C   0  0  0  0  0  0  0  0  0  0  0  0
    6.5527    0.6415   17.5599 N   0  0  0  0  0  0  0  0  0  0  0  0
    7.1771    0.0138   18.5647 C   0  0  0  0  0  0  0  0  0  0  0  0
    8.1191   -0.4694   18.3202 H   0  0  0  0  0  0  0  0  0  0  0  0
    6.6774   -0.0444   19.8932 C   0  0  0  0  0  0  0  0  0  0  0  0
    7.3887   -0.6957   20.9431 N   0  0  0  0  0  0  0  0  0  0  0  0
    8.7776   -0.6452   21.0926 C   0  0  0  0  0  0  0  0  0  0  0  0
    9.5364    0.0108   20.4155 O   0  0  0  0  0  0  0  0  0  0  0  0
    9.1595   -1.5057   22.2830 C   0  0  0  0  0  0  0  0  0  0  0  0
    9.5942   -0.8440   23.0359 H   0  0  0  0  0  0  0  0  0  0  0  0
    9.9283   -2.2238   21.9841 H   0  0  0  0  0  0  0  0  0  0  0  0
    7.8412   -2.1373   22.7480 C   0  0  0  0  0  0  0  0  0  0  0  0
    7.7130   -2.1607   23.8367 H   0  0  0  0  0  0  0  0  0  0  0  0
    7.7497   -3.1586   22.3689 H   0  0  0  0  0  0  0  0  0  0  0  0
    6.7756   -1.3568   22.0281 C   0  0  2  0  0  0  0  0  0  0  0  0
    6.0259   -0.7952   22.5741 H   0  0  0  0  0  0  0  0  0  0  0  0
    5.7922   -2.7546   21.1666 O   0  0  0  0  0  0  0  0  0  0  0  0
    4.8212   -3.3379   21.9101 C   0  0  0  0  0  0  0  0  0  0  0  0
    3.8923   -3.5847   21.4438 H   0  0  0  0  0  0  0  0  0  0  0  0
    5.5356   -2.6675   20.2345 H   0  0  0  0  0  0  0  0  0  0  0  0
    4.9657   -3.6645   23.2644 C   0  0  0  0  0  0  0  0  0  0  0  0
    5.4621   -2.8515   23.8461 H   0  0  0  0  0  0  0  0  0  0  0  0
    5.5385   -4.6013   23.4703 H   0  0  0  0  0  0  0  0  0  0  0  0
    3.6881   -3.8889   23.8192 F   0  0  0  0  0  0  0  0  0  0  0  0
    5.4578    0.5827   20.1554 C   0  0  0  0  0  0  0  0  0  0  0  0
    5.0379    0.5610   21.1613 H   0  0  0  0  0  0  0  0  0  0  0  0
    4.8183    1.2621   19.1117 C   0  0  0  0  0  0  0  0  0  0  0  0
    3.8938    1.7974   19.2852 H   0  0  0  0  0  0  0  0  0  0  0  0
  1  2  1  0
  2  3  2  0
  3  4  1  0
  4  5  1  0
  4  6  2  0
  6  7  1  0
  7  8  1  0
  8  9  2  0
  8 10  1  0
 10 11  1  0
 10 12  1  0
 10 13  1  0
 13 14  1  0
 13 15  1  0
 13 16  1  0
 16 17  1  1
 16 18  1  0
 18 19  1  0
 19 20  1  0
 19 21  1  0
 19 22  1  0
 22 23  1  0
 22 24  1  0
 22 25  1  0
  6 26  1  0
 26 27  1  0
 26 28  2  0
 28 29  1  0
 28  2  1  0
 16  7  1  0
M  END
>  <plip>  (1) 
-0.07142857142857142

>  <filename>  (1) 
[H][c]1[n][c]([H])[c]([N]2[C](=[O])[C]([H])([H])[C]([H])([H])[C@]2([H])[O][C]([H])([H])[C]([H])([H])[F])[c]([H])[c]1[H]

$$$$
