
     RDKit          3D

 33 34  0  0  0  0  0  0  0  0999 V2000
    8.2717   -5.4269   22.3519 C   0  0  0  0  0  0  0  0  0  0  0  0
    7.8310   -4.4342   21.5773 C   0  0  0  0  0  0  0  0  0  0  0  0
    7.8038   -2.9941   22.0240 C   0  0  0  0  0  0  0  0  0  0  0  0
    7.5080   -2.1057   20.8740 N   0  0  0  0  0  4  0  0  0  0  0  0
    7.3325   -0.6151   21.1807 C   0  0  0  0  0  0  0  0  0  0  0  0
    6.6147   -0.0280   19.9835 C   0  0  0  0  0  0  0  0  0  0  0  0
    5.3890    0.6437   20.1221 C   0  0  0  0  0  0  0  0  0  0  0  0
    4.8163    1.2525   19.0035 C   0  0  0  0  0  0  0  0  0  0  0  0
    5.4822    1.1734   17.7795 C   0  0  0  0  0  0  0  0  0  0  0  0
    6.6372    0.5099   17.6181 N   0  0  0  0  0  0  0  0  0  0  0  0
    7.1738   -0.0791   18.6946 C   0  0  0  0  0  0  0  0  0  0  0  0
    8.1122   -0.6051   18.5178 H   0  0  0  0  0  0  0  0  0  0  0  0
    5.0869    1.6668   16.8890 H   0  0  0  0  0  0  0  0  0  0  0  0
    3.8910    1.8178   19.0677 H   0  0  0  0  0  0  0  0  0  0  0  0
    4.8918    0.6833   21.0938 H   0  0  0  0  0  0  0  0  0  0  0  0
    8.6793    0.0951   21.5284 C   0  0  0  0  0  0  0  0  0  0  0  0
    8.7359    1.3117   22.2315 C   0  0  0  0  0  0  0  0  0  0  0  0
    9.9861    1.8450   22.5729 C   0  0  0  0  0  0  0  0  0  0  0  0
   11.1360    1.1414   22.2028 C   0  0  0  0  0  0  0  0  0  0  0  0
   10.9792   -0.0270   21.4550 C   0  0  0  0  0  0  0  0  0  0  0  0
    9.7954   -0.5263   21.0945 N   0  0  0  0  0  0  0  0  0  0  0  0
   11.8442   -0.5987   21.1245 H   0  0  0  0  0  0  0  0  0  0  0  0
   12.1314    1.4596   22.4840 H   0  0  0  0  0  0  0  0  0  0  0  0
   10.0670    2.7992   23.1025 H   0  0  0  0  0  0  0  0  0  0  0  0
    7.8266    1.8248   22.5229 H   0  0  0  0  0  0  0  0  0  0  0  0
    6.6944   -0.5017   22.0688 H   0  0  0  0  0  0  0  0  0  0  0  0
    8.3622   -2.1313   20.2549 H   0  0  0  0  0  0  0  0  0  0  0  0
    6.6812   -2.4278   20.3202 H   0  0  0  0  0  0  0  0  0  0  0  0
    7.0654   -2.8493   22.8293 H   0  0  0  0  0  0  0  0  0  0  0  0
    8.7739   -2.7212   22.4701 H   0  0  0  0  0  0  0  0  0  0  0  0
    7.4236   -4.6462   20.5811 H   0  0  0  0  0  0  0  0  0  0  0  0
    8.2610   -6.4747   22.0520 H   0  0  0  0  0  0  0  0  0  0  0  0
    8.6761   -5.2406   23.3517 H   0  0  0  0  0  0  0  0  0  0  0  0
  1  2  2  3
  2  3  1  0
  3  4  1  0
  4  5  1  0
  5  6  1  0
  6  7  2  0
  7  8  1  0
  8  9  2  0
  9 10  1  0
 10 11  2  0
 11 12  1  0
  9 13  1  0
  8 14  1  0
  7 15  1  0
  5 16  1  0
 16 17  2  0
 17 18  1  0
 18 19  2  0
 19 20  1  0
 20 21  2  0
 20 22  1  0
 19 23  1  0
 18 24  1  0
 17 25  1  0
  5 26  1  0
  4 27  1  0
  4 28  1  0
  3 29  1  0
  3 30  1  0
  2 31  1  0
  1 32  1  0
  1 33  1  0
 11  6  1  0
 21 16  1  0
M  CHG  1   4   1
M  END
>  <plip>  (1) 
-0.06896551724137931

>  <filename>  (1) 
[H][C]([H])=[C]([H])[C]([H])([H])[N+]([H])([H])[C]([H])([c]1[n][c]([H])[c]([H])[c]([H])[c]1[H])[c]1[c]([H])[n][c]([H])[c]([H])[c]1[H]

$$$$
