
     RDKit          3D

 26 28  0  0  0  0  0  0  0  0999 V2000
    4.9281    1.7959   16.9952 H   0  0  0  0  0  0  0  0  0  0  0  0
    5.3964    1.2915   17.8342 C   0  0  0  0  0  0  0  0  0  0  0  0
    6.5539    0.6644   17.5690 N   0  0  0  0  0  0  0  0  0  0  0  0
    7.1712    0.0452   18.5817 C   0  0  0  0  0  0  0  0  0  0  0  0
    8.1253   -0.4321   18.3586 H   0  0  0  0  0  0  0  0  0  0  0  0
    6.6461   -0.0024   19.8903 C   0  0  0  0  0  0  0  0  0  0  0  0
    7.3207   -0.6898   20.9508 N   0  0  0  0  0  0  0  0  0  0  0  0
    6.7294   -1.6043   21.8083 C   0  0  0  0  0  0  0  0  0  0  0  0
    5.6775   -1.8393   21.7240 H   0  0  0  0  0  0  0  0  0  0  0  0
    7.6789   -2.0629   22.6679 C   0  0  0  0  0  0  0  0  0  0  0  0
    7.6165   -2.9917   23.7734 C   0  0  0  0  0  0  0  0  0  0  0  0
    6.4126   -3.5632   24.0490 O   0  0  0  0  0  0  0  0  0  0  0  0
    6.5926   -4.3808   25.1110 C   0  0  0  0  0  0  0  0  0  0  0  0
    5.7009   -4.9000   25.4359 H   0  0  0  0  0  0  0  0  0  0  0  0
    7.8841   -4.3589   25.5321 C   0  0  0  0  0  0  0  0  0  0  0  0
    8.3063   -4.9225   26.3595 H   0  0  0  0  0  0  0  0  0  0  0  0
    8.5533   -3.4453   24.6544 C   0  0  0  0  0  0  0  0  0  0  0  0
    9.5930   -3.1484   24.6582 H   0  0  0  0  0  0  0  0  0  0  0  0
    8.8476   -1.3969   22.3051 N   0  0  0  0  0  0  0  0  0  0  0  0
    9.7733   -1.4106   22.7030 H   0  0  0  0  0  0  0  0  0  0  0  0
    8.6464   -0.5194   21.3007 C   0  0  0  0  0  0  0  0  0  0  0  0
    9.7999    0.5337   20.7502 S   0  0  0  0  0  0  0  0  0  0  0  0
    5.4387    0.6484   20.1527 C   0  0  0  0  0  0  0  0  0  0  0  0
    5.0360    0.6333   21.1678 H   0  0  0  0  0  0  0  0  0  0  0  0
    4.8031    1.3137   19.1016 C   0  0  0  0  0  0  0  0  0  0  0  0
    3.8717    1.8477   19.2572 H   0  0  0  0  0  0  0  0  0  0  0  0
  1  2  1  0
  2  3  2  0
  3  4  1  0
  4  5  1  0
  4  6  2  0
  6  7  1  0
  7  8  1  0
  8  9  1  0
  8 10  2  0
 10 11  1  0
 11 12  1  0
 12 13  1  0
 13 14  1  0
 13 15  2  0
 15 16  1  0
 15 17  1  0
 17 18  1  0
 10 19  1  0
 19 20  1  0
 19 21  1  0
 21 22  2  0
  6 23  1  0
 23 24  1  0
 23 25  2  0
 25 26  1  0
 25  2  1  0
 21  7  1  0
 17 11  2  0
M  END
>  <plip>  (1) 
-0.03571428571428571

>  <filename>  (1) 
[H][c]1[n][c]([H])[c](-[n]2[c]([H])[c](-[c]3[o][c]([H])[c]([H])[c]3[H])[n]([H])[c]2=[S])[c]([H])[c]1[H]

$$$$
