
     RDKit          3D

 33 35  0  0  0  0  0  0  0  0999 V2000
    5.0508    1.7830   16.6509 H   0  0  0  0  0  0  0  0  0  0  0  0
    5.5205    1.3984   17.5534 C   0  0  0  0  0  0  0  0  0  0  0  0
    6.7029    0.7900   17.3883 N   0  0  0  0  0  0  0  0  0  0  0  0
    7.3071    0.3216   18.4809 C   0  0  0  0  0  0  0  0  0  0  0  0
    8.2632   -0.1754   18.3348 H   0  0  0  0  0  0  0  0  0  0  0  0
    6.7841    0.4288   19.7759 C   0  0  0  0  0  0  0  0  0  0  0  0
    7.6480   -0.2028   20.8267 C   0  0  0  0  0  0  0  0  0  0  0  0
    8.6399   -0.8453   20.5506 O   0  0  0  0  0  0  0  0  0  0  0  0
    7.2042   -0.0168   22.1215 N   0  0  0  0  0  0  0  0  0  0  0  0
    6.4079    0.5818   22.2619 H   0  0  0  0  0  0  0  0  0  0  0  0
    7.6706   -0.7348   23.2080 N   0  0  0  0  0  0  0  0  0  0  0  0
    7.3179   -2.0627   23.2974 C   0  0  0  0  0  0  0  0  0  0  0  0
    8.2976   -3.2344   24.2015 S   0  0  0  0  0  0  0  0  0  0  0  0
    7.1812   -4.5248   23.7913 C   0  0  0  0  0  0  0  0  0  0  0  0
    7.2179   -5.8911   24.1198 C   0  0  0  0  0  0  0  0  0  0  0  0
    8.2328   -6.2978   23.9109 H   0  0  0  0  0  0  0  0  0  0  0  0
    5.9698   -6.5087   23.1014 C   0  0  0  0  0  0  0  0  0  0  0  0
    4.9454   -7.0994   24.0811 H   0  0  0  0  0  0  0  0  0  0  0  0
    5.7522   -6.7098   23.2589 C   0  0  0  0  0  0  0  0  0  0  0  0
    6.0276   -7.6066   22.4409 H   0  0  0  0  0  0  0  0  0  0  0  0
    5.2277   -5.0587   22.4923 C   0  0  0  0  0  0  0  0  0  0  0  0
    5.2338   -5.0286   21.3736 H   0  0  0  0  0  0  0  0  0  0  0  0
    6.1245   -4.0328   22.9694 C   0  0  0  0  0  0  0  0  0  0  0  0
    6.2263   -2.6491   22.6978 C   0  0  0  0  0  0  0  0  0  0  0  0
    5.5783   -2.0552   22.0617 H   0  0  0  0  0  0  0  0  0  0  0  0
    8.3829   -0.0054   24.2522 C   0  0  0  0  0  0  0  0  0  0  0  0
    8.6164    0.9897   23.8654 H   0  0  0  0  0  0  0  0  0  0  0  0
    9.3203   -0.5065   24.5181 H   0  0  0  0  0  0  0  0  0  0  0  0
    7.7614    0.0898   25.1515 H   0  0  0  0  0  0  0  0  0  0  0  0
    5.5285    1.0456   19.9348 C   0  0  0  0  0  0  0  0  0  0  0  0
    5.0240    1.1477   20.9010 H   0  0  0  0  0  0  0  0  0  0  0  0
    4.8951    1.5393   18.7965 C   0  0  0  0  0  0  0  0  0  0  0  0
    3.9384    2.0455   18.8609 H   0  0  0  0  0  0  0  0  0  0  0  0
  1  2  1  0
  2  3  2  0
  3  4  1  0
  4  5  1  0
  4  6  2  0
  6  7  1  0
  7  8  2  0
  7  9  1  0
  9 10  1  0
  9 11  1  0
 11 12  1  0
 12 13  1  0
 13 14  1  0
 14 15  2  0
 15 16  1  0
 15 17  1  0
 17 18  1  0
 17 19  2  0
 19 20  1  0
 19 21  1  0
 21 22  1  0
 21 23  2  0
 23 24  1  0
 24 25  1  0
 11 26  1  0
 26 27  1  0
 26 28  1  0
 26 29  1  0
  6 30  1  0
 30 31  1  0
 30 32  2  0
 32 33  1  0
 32  2  1  0
 24 12  2  0
 23 14  1  0
M  END
>  <plip>  (1) 
-0.10714285714285714

>  <filename>  (1) 
[H][c]1[n][c]([H])[c]([C](=[O])[N]([H])[N]([c]2[s][c]3[c]([H])[c]([H])[c]([H])[c]([H])[c]3[c]2[H])[C]([H])([H])[H])[c]([H])[c]1[H]

$$$$
