
     RDKit          3D

 30 32  0  0  0  0  0  0  0  0999 V2000
    4.9755    1.7812   16.9617 H   0  0  0  0  0  0  0  0  0  0  0  0
    5.4324    1.2892   17.8164 C   0  0  0  0  0  0  0  0  0  0  0  0
    6.5865    0.6432   17.5784 N   0  0  0  0  0  0  0  0  0  0  0  0
    7.1717    0.0243   18.6074 C   0  0  0  0  0  0  0  0  0  0  0  0
    8.0930   -0.5179   18.3940 H   0  0  0  0  0  0  0  0  0  0  0  0
    6.6454    0.0347   19.9123 C   0  0  0  0  0  0  0  0  0  0  0  0
    7.3409   -0.6297   20.9684 N   0  0  0  0  0  0  0  0  0  0  0  0
    7.9155   -1.8391   20.7609 N   0  0  0  0  0  0  0  0  0  0  0  0
    8.4212   -2.2069   21.8739 N   0  0  0  0  0  0  0  0  0  0  0  0
    8.2240   -1.2776   22.8317 N   0  0  0  0  0  0  0  0  0  0  0  0
    7.5503   -0.2968   22.2714 C   0  0  0  0  0  0  0  0  0  0  0  0
    7.1275    1.1028   23.1977 S   0  0  0  0  0  0  0  0  0  0  0  0
    8.6259    2.2868   22.3048 S   0  0  0  0  0  0  0  0  0  0  0  0
    8.2621    2.3138   20.8953 O   0  0  0  0  0  0  0  0  0  0  0  0
    8.7830    3.4964   23.0863 O   0  0  0  0  0  0  0  0  0  0  0  0
   10.1326    1.3188   22.3802 C   0  0  0  0  0  0  0  0  0  0  0  0
   10.9543    1.2731   23.5149 C   0  0  0  0  0  0  0  0  0  0  0  0
   10.7626    1.8602   24.4165 H   0  0  0  0  0  0  0  0  0  0  0  0
   12.0832    0.4427   23.4977 C   0  0  0  0  0  0  0  0  0  0  0  0
   12.7298    0.3774   24.3681 H   0  0  0  0  0  0  0  0  0  0  0  0
   12.3649   -0.3270   22.3678 C   0  0  0  0  0  0  0  0  0  0  0  0
   13.7844   -1.3298   22.3018 Cl  0  0  0  0  0  0  0  0  0  0  0  0
   11.5248   -0.3035   21.2582 C   0  0  0  0  0  0  0  0  0  0  0  0
   11.7464   -0.9356   20.4072 H   0  0  0  0  0  0  0  0  0  0  0  0
   10.4231    0.5416   21.2505 C   0  0  0  0  0  0  0  0  0  0  0  0
    9.7405    0.4970   20.4012 H   0  0  0  0  0  0  0  0  0  0  0  0
    5.4422    0.6987   20.1578 C   0  0  0  0  0  0  0  0  0  0  0  0
    5.0134    0.7330   21.1614 H   0  0  0  0  0  0  0  0  0  0  0  0
    4.8204    1.3258   19.0719 C   0  0  0  0  0  0  0  0  0  0  0  0
    3.8787    1.8477   19.1926 H   0  0  0  0  0  0  0  0  0  0  0  0
  1  2  1  0
  2  3  2  0
  3  4  1  0
  4  5  1  0
  4  6  2  0
  6  7  1  0
  7  8  1  0
  8  9  2  0
  9 10  1  0
 10 11  2  0
 11 12  1  0
 12 13  1  0
 13 14  2  0
 13 15  2  0
 13 16  1  0
 16 17  2  0
 17 18  1  0
 17 19  1  0
 19 20  1  0
 19 21  2  0
 21 22  1  0
 21 23  1  0
 23 24  1  0
 23 25  2  0
 25 26  1  0
  6 27  1  0
 27 28  1  0
 27 29  2  0
 29 30  1  0
 29  2  1  0
 11  7  1  0
 25 16  1  0
M  END
>  <plip>  (1) 
-0.06896551724137931

>  <filename>  (1) 
[H][c]1[n][c]([H])[c](-[n]2[n][n][n][c]2[S][S](=[O])(=[O])[c]2[c]([H])[c]([H])[c]([Cl])[c]([H])[c]2[H])[c]([H])[c]1[H]

$$$$
