
     RDKit          3D

 27 28  0  0  0  0  0  0  0  0999 V2000
    5.1140   -1.4690   25.6262 H   0  0  0  0  0  0  0  0  0  0  0  0
    5.6249   -0.7103   25.0458 C   0  0  0  0  0  0  0  0  0  0  0  0
    5.6203    0.6186   25.0952 C   0  0  0  0  0  0  0  0  0  0  0  0
    5.1443    1.3398   25.7485 H   0  0  0  0  0  0  0  0  0  0  0  0
    6.5487    1.1175   24.0346 C   0  0  0  0  0  0  0  0  0  0  0  0
    6.8536    2.2588   23.7907 O   0  0  0  0  0  0  0  0  0  0  0  0
    7.0434    0.0149   23.3799 N   0  0  0  0  0  0  0  0  0  0  0  0
    7.8679    0.1271   22.2063 C   0  0  0  0  0  0  0  0  0  0  0  0
    8.8652   -0.2796   22.4433 H   0  0  0  0  0  0  0  0  0  0  0  0
    7.9537    1.1968   21.9756 H   0  0  0  0  0  0  0  0  0  0  0  0
    7.3280   -0.5806   21.0832 N   0  0  0  0  0  0  0  0  0  0  0  0
    6.6829    0.0873   20.0007 C   0  0  0  0  0  0  0  0  0  0  0  0
    7.1733    0.0682   18.6672 C   0  0  0  0  0  0  0  0  0  0  0  0
    8.0942   -0.4674   18.4528 H   0  0  0  0  0  0  0  0  0  0  0  0
    6.5816    0.6598   17.6187 N   0  0  0  0  0  0  0  0  0  0  0  0
    5.4242    1.3026   17.8417 C   0  0  0  0  0  0  0  0  0  0  0  0
    4.9577    1.7744   16.9761 H   0  0  0  0  0  0  0  0  0  0  0  0
    4.8274    1.3699   19.1062 C   0  0  0  0  0  0  0  0  0  0  0  0
    3.8763    1.8822   19.2168 H   0  0  0  0  0  0  0  0  0  0  0  0
    5.4709    0.7695   20.2001 C   0  0  0  0  0  0  0  0  0  0  0  0
    5.0470    0.7841   21.2018 H   0  0  0  0  0  0  0  0  0  0  0  0
    7.8751   -1.9105   20.8359 C   0  0  0  0  0  0  0  0  0  0  0  0
    8.0236   -2.4179   21.7927 H   0  0  0  0  0  0  0  0  0  0  0  0
    7.1450   -2.4642   20.2357 H   0  0  0  0  0  0  0  0  0  0  0  0
    8.8330   -1.8900   20.2823 H   0  0  0  0  0  0  0  0  0  0  0  0
    6.5586   -1.1421   23.9522 C   0  0  0  0  0  0  0  0  0  0  0  0
    6.8872   -2.2693   23.6751 O   0  0  0  0  0  0  0  0  0  0  0  0
  1  2  1  0
  2  3  2  0
  3  4  1  0
  3  5  1  0
  5  6  2  0
  5  7  1  0
  7  8  1  0
  8  9  1  0
  8 10  1  0
  8 11  1  0
 11 12  1  0
 12 13  2  0
 13 14  1  0
 13 15  1  0
 15 16  2  0
 16 17  1  0
 16 18  1  0
 18 19  1  0
 18 20  2  0
 20 21  1  0
 11 22  1  0
 22 23  1  0
 22 24  1  0
 22 25  1  0
  7 26  1  0
 26 27  2  0
 26  2  1  0
 20 12  1  0
M  END
>  <plip>  (1) 
-0.03571428571428571

>  <filename>  (1) 
[H][C]1=[C]([H])[C](=[O])[N]([C]([H])([H])[N]([c]2[c]([H])[n][c]([H])[c]([H])[c]2[H])[C]([H])([H])[H])[C]1=[O]

$$$$
