
     RDKit          3D

 29 30  0  0  0  0  0  0  0  0999 V2000
    5.5834    2.5033   24.6578 H   0  0  0  0  0  0  0  0  0  0  0  0
    6.2237    2.4546   23.7845 C   0  0  0  0  0  0  0  0  0  0  0  0
    6.8965    1.2885   23.5187 N   0  0  0  0  0  0  0  0  0  0  0  0
    7.6965    1.4379   22.5186 C   0  0  0  0  0  0  0  0  0  0  0  0
    8.6249    0.3556   22.0792 C   0  0  0  0  0  0  0  0  0  0  0  0
    9.2619   -0.4048   23.2592 C   0  0  0  0  0  0  0  0  0  0  0  0
    9.9215    0.2646   23.8213 H   0  0  0  0  0  0  0  0  0  0  0  0
    9.8617   -1.2363   22.8759 H   0  0  0  0  0  0  0  0  0  0  0  0
    8.4985   -0.7985   23.9387 H   0  0  0  0  0  0  0  0  0  0  0  0
    9.7073    0.8255   21.1068 C   0  0  0  0  0  0  0  0  0  0  0  0
    9.2361    1.2880   20.2421 H   0  0  0  0  0  0  0  0  0  0  0  0
   10.3041   -0.0316   20.7807 H   0  0  0  0  0  0  0  0  0  0  0  0
   10.3592    1.5535   21.5984 H   0  0  0  0  0  0  0  0  0  0  0  0
    7.4718   -0.8036   21.2172 S   0  0  0  0  0  0  0  0  0  0  0  0
    8.3408   -1.7534   20.5253 O   0  0  0  0  0  0  0  0  0  0  0  0
    6.4427   -1.2778   22.1223 O   0  0  0  0  0  0  0  0  0  0  0  0
    6.6449    0.0710   19.9587 C   0  0  0  0  0  0  0  0  0  0  0  0
    7.1934    0.0361   18.6821 C   0  0  0  0  0  0  0  0  0  0  0  0
    8.1272   -0.4803   18.4552 H   0  0  0  0  0  0  0  0  0  0  0  0
    6.5982    0.6349   17.6548 N   0  0  0  0  0  0  0  0  0  0  0  0
    5.4405    1.2667   17.8818 C   0  0  0  0  0  0  0  0  0  0  0  0
    4.9901    1.7558   17.0226 H   0  0  0  0  0  0  0  0  0  0  0  0
    4.8113    1.3091   19.1293 C   0  0  0  0  0  0  0  0  0  0  0  0
    3.8767    1.8398   19.2469 H   0  0  0  0  0  0  0  0  0  0  0  0
    5.4118    0.6757   20.2077 C   0  0  0  0  0  0  0  0  0  0  0  0
    4.9438    0.6430   21.1980 H   0  0  0  0  0  0  0  0  0  0  0  0
    7.6230    3.0036   21.7652 S   0  0  0  0  0  0  0  0  0  0  0  0
    6.4652    3.4833   22.9308 C   0  0  0  0  0  0  0  0  0  0  0  0
    6.0192    4.4665   22.9211 H   0  0  0  0  0  0  0  0  0  0  0  0
  1  2  1  0
  2  3  1  0
  3  4  2  0
  4  5  1  0
  5  6  1  0
  6  7  1  0
  6  8  1  0
  6  9  1  0
  5 10  1  0
 10 11  1  0
 10 12  1  0
 10 13  1  0
  5 14  1  0
 14 15  2  0
 14 16  2  0
 14 17  1  0
 17 18  2  0
 18 19  1  0
 18 20  1  0
 20 21  2  0
 21 22  1  0
 21 23  1  0
 23 24  1  0
 23 25  2  0
 25 26  1  0
  4 27  1  0
 27 28  1  0
 28 29  1  0
 28  2  2  0
 25 17  1  0
M  END
>  <plip>  (1) 
-0.03571428571428571

>  <filename>  (1) 
[H][c]1[n][c]([C]([C]([H])([H])[H])([C]([H])([H])[H])[S](=[O])(=[O])[c]2[c]([H])[n][c]([H])[c]([H])[c]2[H])[s][c]1[H]

$$$$
