
     RDKit          3D

 34 35  0  0  0  0  0  0  0  0999 V2000
    4.9243    1.7760   17.0002 H   0  0  0  0  0  0  0  0  0  0  0  0
    5.4058    1.2876   17.8472 C   0  0  0  0  0  0  0  0  0  0  0  0
    6.5718    0.6677   17.5981 N   0  0  0  0  0  0  0  0  0  0  0  0
    7.1832    0.0527   18.6107 C   0  0  0  0  0  0  0  0  0  0  0  0
    8.1289   -0.4315   18.3753 H   0  0  0  0  0  0  0  0  0  0  0  0
    6.6629    0.0059   19.9106 C   0  0  0  0  0  0  0  0  0  0  0  0
    7.3644   -0.6857   20.9438 N   0  0  0  0  0  0  0  0  0  0  0  0
    8.5083   -1.3221   20.7559 N   0  0  0  0  0  0  0  0  0  0  0  0
    8.8457   -1.8282   21.9081 N   0  0  0  0  0  0  0  0  0  0  0  0
    7.8711   -1.4720   22.7774 C   0  0  0  0  0  0  0  0  0  0  0  0
    7.8106   -1.8913   24.2096 C   0  0  0  0  0  0  0  0  0  0  0  0
    8.8116   -2.1965   24.5252 H   0  0  0  0  0  0  0  0  0  0  0  0
    7.5329   -1.0266   24.8191 H   0  0  0  0  0  0  0  0  0  0  0  0
    6.8154   -3.0385   24.4500 C   0  0  0  0  0  0  0  0  0  0  0  0
    6.7081   -3.2066   25.5290 H   0  0  0  0  0  0  0  0  0  0  0  0
    5.8242   -2.7342   24.0910 H   0  0  0  0  0  0  0  0  0  0  0  0
    7.2413   -4.3418   23.7793 C   0  0  0  0  0  0  0  0  0  0  0  0
    7.2811   -4.2140   22.6891 H   0  0  0  0  0  0  0  0  0  0  0  0
    8.2674   -4.5876   24.0848 H   0  0  0  0  0  0  0  0  0  0  0  0
    6.3260   -5.5172   24.1046 C   0  0  0  0  0  0  0  0  0  0  0  0
    6.8100   -6.4254   23.7399 H   0  0  0  0  0  0  0  0  0  0  0  0
    6.2309   -5.6230   25.1954 H   0  0  0  0  0  0  0  0  0  0  0  0
    4.9375   -5.4277   23.4780 C   0  0  0  0  0  0  0  0  0  0  0  0
    5.0463   -5.2718   22.3980 H   0  0  0  0  0  0  0  0  0  0  0  0
    4.4133   -4.5441   23.8586 H   0  0  0  0  0  0  0  0  0  0  0  0
    4.0962   -6.6721   23.7331 C   0  0  0  0  0  0  0  0  0  0  0  0
    3.9599   -6.8368   24.8076 H   0  0  0  0  0  0  0  0  0  0  0  0
    4.5814   -7.5654   23.3239 H   0  0  0  0  0  0  0  0  0  0  0  0
    3.1060   -6.5862   23.2763 H   0  0  0  0  0  0  0  0  0  0  0  0
    6.9289   -0.7536   22.1911 N   0  0  0  0  0  0  0  0  0  0  0  0
    5.4414    0.6477   20.1735 C   0  0  0  0  0  0  0  0  0  0  0  0
    5.0072    0.6303   21.1749 H   0  0  0  0  0  0  0  0  0  0  0  0
    4.8140    1.3035   19.1136 C   0  0  0  0  0  0  0  0  0  0  0  0
    3.8827    1.8364   19.2644 H   0  0  0  0  0  0  0  0  0  0  0  0
  1  2  1  0
  2  3  2  0
  3  4  1  0
  4  5  1  0
  4  6  2  0
  6  7  1  0
  7  8  1  0
  8  9  2  0
  9 10  1  0
 10 11  1  0
 11 12  1  0
 11 13  1  0
 11 14  1  0
 14 15  1  0
 14 16  1  0
 14 17  1  0
 17 18  1  0
 17 19  1  0
 17 20  1  0
 20 21  1  0
 20 22  1  0
 20 23  1  0
 23 24  1  0
 23 25  1  0
 23 26  1  0
 26 27  1  0
 26 28  1  0
 26 29  1  0
 10 30  2  0
  6 31  1  0
 31 32  1  0
 31 33  2  0
 33 34  1  0
 33  2  1  0
 30  7  1  0
M  END
>  <plip>  (1) 
-0.10344827586206896

>  <filename>  (1) 
[H][c]1[n][c]([H])[c](-[n]2[n][n][c]([C]([H])([H])[C]([H])([H])[C]([H])([H])[C]([H])([H])[C]([H])([H])[C]([H])([H])[H])[n]2)[c]([H])[c]1[H]

$$$$
