
     RDKit          3D

 27 28  0  0  0  0  0  0  0  0999 V2000
    4.3402   -5.3865   23.0716 H   0  0  0  0  0  0  0  0  0  0  0  0
    5.2874   -4.9873   23.3653 C   0  0  0  0  0  0  0  0  0  0  0  0
    6.3383   -4.4940   23.6842 C   0  0  0  0  0  0  0  0  0  0  0  0
    7.6113   -3.8555   24.0484 C   0  0  0  0  0  0  0  0  0  0  0  0
    8.4503   -4.3639   23.5649 H   0  0  0  0  0  0  0  0  0  0  0  0
    7.7637   -3.8950   25.1280 H   0  0  0  0  0  0  0  0  0  0  0  0
    7.6329   -2.4578   23.7556 O   0  0  0  0  0  0  0  0  0  0  0  0
    7.9907   -2.1875   22.4251 N   0  0  0  0  0  0  0  0  0  0  0  0
    6.9434   -1.7335   21.5883 C   0  0  0  0  0  0  0  0  0  0  0  0
    5.8134   -2.1623   21.5218 O   0  0  0  0  0  0  0  0  0  0  0  0
    7.5204   -0.7639   20.7698 N   0  0  0  0  0  0  0  0  0  0  0  0
    6.8201   -0.0375   19.7849 C   0  0  0  0  0  0  0  0  0  0  0  0
    7.3384    0.1338   18.4808 C   0  0  0  0  0  0  0  0  0  0  0  0
    8.3127   -0.2913   18.2291 H   0  0  0  0  0  0  0  0  0  0  0  0
    6.6877    0.7748   17.5053 N   0  0  0  0  0  0  0  0  0  0  0  0
    5.4942    1.3134   17.8015 C   0  0  0  0  0  0  0  0  0  0  0  0
    4.9978    1.8318   16.9868 H   0  0  0  0  0  0  0  0  0  0  0  0
    4.9065    1.2256   19.0673 C   0  0  0  0  0  0  0  0  0  0  0  0
    3.9510    1.7045   19.2447 H   0  0  0  0  0  0  0  0  0  0  0  0
    5.5714    0.5339   20.0810 C   0  0  0  0  0  0  0  0  0  0  0  0
    5.1510    0.4378   21.0813 H   0  0  0  0  0  0  0  0  0  0  0  0
    8.9546   -0.6481   20.9744 C   0  0  0  0  0  0  0  0  0  0  0  0
    9.2661    0.4025   20.9379 H   0  0  0  0  0  0  0  0  0  0  0  0
    9.5136   -1.1994   20.2022 H   0  0  0  0  0  0  0  0  0  0  0  0
    9.1303   -1.2735   22.3596 C   0  0  0  0  0  0  0  0  0  0  0  0
    9.0517   -0.5368   23.1704 H   0  0  0  0  0  0  0  0  0  0  0  0
   10.0773   -1.8097   22.4790 H   0  0  0  0  0  0  0  0  0  0  0  0
  1  2  1  0
  2  3  3  0
  3  4  1  0
  4  5  1  0
  4  6  1  0
  4  7  1  0
  7  8  1  0
  8  9  1  0
  9 10  2  0
  9 11  1  0
 11 12  1  0
 12 13  2  0
 13 14  1  0
 13 15  1  0
 15 16  2  0
 16 17  1  0
 16 18  1  0
 18 19  1  0
 18 20  2  0
 20 21  1  0
 11 22  1  0
 22 23  1  0
 22 24  1  0
 22 25  1  0
 25 26  1  0
 25 27  1  0
 25  8  1  0
 20 12  1  0
M  END
>  <plip>  (1) 
-0.07142857142857142

>  <filename>  (1) 
[H][C]#[C][C]([H])([H])[O][N]1[C](=[O])[N]([c]2[c]([H])[n][c]([H])[c]([H])[c]2[H])[C]([H])([H])[C]1([H])[H]

$$$$
