
     RDKit          3D

 44 47  0  0  0  0  0  0  0  0999 V2000
    4.9174    1.8141   16.9840 H   0  0  0  0  0  0  0  0  0  0  0  0
    5.3910    1.3041   17.8219 C   0  0  0  0  0  0  0  0  0  0  0  0
    6.5508    0.6820   17.5561 N   0  0  0  0  0  0  0  0  0  0  0  0
    7.1579    0.0622   18.5797 C   0  0  0  0  0  0  0  0  0  0  0  0
    8.0964   -0.4367   18.3398 H   0  0  0  0  0  0  0  0  0  0  0  0
    6.6601   -0.0048   19.8977 C   0  0  0  0  0  0  0  0  0  0  0  0
    7.4086   -0.6878   20.9745 C   0  0  0  0  0  0  0  0  0  0  0  0
    8.6931   -0.5276   21.4517 C   0  0  0  0  0  0  0  0  0  0  0  0
    9.6822    0.4341   20.9043 C   0  0  0  0  0  0  0  0  0  0  0  0
    9.7393    0.2590   19.8261 H   0  0  0  0  0  0  0  0  0  0  0  0
   10.6610    0.2219   21.3405 H   0  0  0  0  0  0  0  0  0  0  0  0
    9.2625    1.8876   21.1145 C   0  0  0  0  0  0  0  0  0  0  0  0
   10.0757    2.5517   20.7628 H   0  0  0  0  0  0  0  0  0  0  0  0
    8.4009    2.0839   20.4629 H   0  0  0  0  0  0  0  0  0  0  0  0
    8.9040    2.1589   22.4942 N   0  0  0  0  0  0  0  0  0  0  0  0
   10.0441    2.3131   23.4140 C   0  0  0  0  0  0  0  0  0  0  0  0
   10.9566    1.9290   22.9392 H   0  0  0  0  0  0  0  0  0  0  0  0
    9.8835    1.6831   24.3040 H   0  0  0  0  0  0  0  0  0  0  0  0
   10.2416    3.7708   23.8479 C   0  0  0  0  0  0  0  0  0  0  0  0
   10.4249    4.3677   22.9430 H   0  0  0  0  0  0  0  0  0  0  0  0
   11.1380    3.8624   24.4689 H   0  0  0  0  0  0  0  0  0  0  0  0
    8.9868    4.3037   24.5823 C   0  0  0  0  0  0  0  0  0  0  0  0
    9.0750    4.1205   25.6602 H   0  0  0  0  0  0  0  0  0  0  0  0
    8.9305    5.3912   24.4509 H   0  0  0  0  0  0  0  0  0  0  0  0
    7.6870    3.6353   24.0631 C   0  0  0  0  0  0  0  0  0  0  0  0
    6.8385    4.3257   24.1306 H   0  0  0  0  0  0  0  0  0  0  0  0
    7.4314    2.7654   24.6813 H   0  0  0  0  0  0  0  0  0  0  0  0
    7.8369    3.1582   22.6201 C   0  0  0  0  0  0  0  0  0  0  0  0
    6.9009    2.7022   22.2667 H   0  0  0  0  0  0  0  0  0  0  0  0
    8.0187    4.0380   21.9706 H   0  0  0  0  0  0  0  0  0  0  0  0
    8.9627   -1.3861   22.4899 N   0  0  0  0  0  0  0  0  0  0  0  0
    7.8552   -2.0535   22.6316 C   0  0  0  0  0  0  0  0  0  0  0  0
    6.8688   -1.6769   21.7701 N   0  0  0  0  0  0  0  0  0  0  0  0
    5.9394   -2.7106   21.3725 C   0  0  0  0  0  0  0  0  0  0  0  0
    6.2756   -3.1879   20.4420 H   0  0  0  0  0  0  0  0  0  0  0  0
    4.9939   -2.2266   21.1973 H   0  0  0  0  0  0  0  0  0  0  0  0
    5.8740   -3.7143   22.5368 C   0  0  0  0  0  0  0  0  0  0  0  0
    4.9741   -3.5349   23.1322 H   0  0  0  0  0  0  0  0  0  0  0  0
    5.8516   -4.7477   22.1808 H   0  0  0  0  0  0  0  0  0  0  0  0
    7.4026   -3.4801   23.5561 S   0  0  0  0  0  0  0  0  0  0  0  0
    5.4325    0.6445   20.1393 C   0  0  0  0  0  0  0  0  0  0  0  0
    5.0024    0.6286   21.1420 H   0  0  0  0  0  0  0  0  0  0  0  0
    4.7973    1.3124   19.0883 C   0  0  0  0  0  0  0  0  0  0  0  0
    3.8614    1.8435   19.2362 H   0  0  0  0  0  0  0  0  0  0  0  0
  1  2  1  0
  2  3  2  0
  3  4  1  0
  4  5  1  0
  4  6  2  0
  6  7  1  0
  7  8  2  0
  8  9  1  0
  9 10  1  0
  9 11  1  0
  9 12  1  0
 12 13  1  0
 12 14  1  0
 12 15  1  0
 15 16  1  0
 16 17  1  0
 16 18  1  0
 16 19  1  0
 19 20  1  0
 19 21  1  0
 19 22  1  0
 22 23  1  0
 22 24  1  0
 22 25  1  0
 25 26  1  0
 25 27  1  0
 25 28  1  0
 28 29  1  0
 28 30  1  0
  8 31  1  0
 31 32  2  0
 32 33  1  0
 33 34  1  0
 34 35  1  0
 34 36  1  0
 34 37  1  0
 37 38  1  0
 37 39  1  0
 37 40  1  0
  6 41  1  0
 41 42  1  0
 41 43  2  0
 43 44  1  0
 43  2  1  0
 33  7  1  0
 28 15  1  0
 40 32  1  0
M  END
>  <plip>  (1) 
-0.07142857142857142

>  <filename>  (1) 
[H][c]1[n][c]([H])[c](-[c]2[c]([C]([H])([H])[C]([H])([H])[N]3[C]([H])([H])[C]([H])([H])[C]([H])([H])[C]([H])([H])[C]3([H])[H])[n][c]3[n]2[C]([H])([H])[C]([H])([H])[S]3)[c]([H])[c]1[H]

$$$$
