
     RDKit          3D

 45 47  0  0  0  0  0  0  0  0999 V2000
    5.5134   -4.9898   19.5775 C   0  0  0  0  0  0  0  0  0  0  0  0
    5.7480   -4.2022   20.8226 N   0  0  0  0  0  4  0  0  0  0  0  0
    6.4067   -5.1126   21.8180 C   0  0  0  0  0  0  0  0  0  0  0  0
    6.5405   -4.6262   22.7858 H   0  0  0  0  0  0  0  0  0  0  0  0
    7.3920   -5.4064   21.4307 H   0  0  0  0  0  0  0  0  0  0  0  0
    5.8108   -6.0206   21.9488 H   0  0  0  0  0  0  0  0  0  0  0  0
    6.6146   -3.0072   20.5062 C   0  0  0  0  0  0  0  0  0  0  0  0
    6.6049   -1.9106   21.5542 C   0  0  0  0  0  0  0  0  0  0  0  0
    7.3848   -0.6957   21.0462 C   0  0  0  0  0  0  0  0  0  0  0  0
    7.6786    0.1719   22.1608 N   0  0  0  0  0  0  0  0  0  0  0  0
    8.4862    1.2498   21.9954 C   0  0  0  0  0  0  0  0  0  0  0  0
    9.2523    1.3754   21.0537 O   0  0  0  0  0  0  0  0  0  0  0  0
    8.4114    2.2519   23.1038 C   0  0  0  0  0  0  0  0  0  0  0  0
    7.3731    2.6987   23.8854 C   0  0  0  0  0  0  0  0  0  0  0  0
    5.7364    2.1439   23.8054 Cl  0  0  0  0  0  0  0  0  0  0  0  0
    7.7231    3.7448   24.7986 C   0  0  0  0  0  0  0  0  0  0  0  0
    6.8902    4.3553   25.6681 N   0  0  0  0  0  0  0  0  0  0  0  0
    7.4160    5.3085   26.4210 C   0  0  0  0  0  0  0  0  0  0  0  0
    8.7751    5.6962   26.3612 C   0  0  0  0  0  0  0  0  0  0  0  0
    9.6366    5.0706   25.4684 C   0  0  0  0  0  0  0  0  0  0  0  0
    9.0966    4.0639   24.6586 C   0  0  0  0  0  0  0  0  0  0  0  0
    9.8729    3.1344   23.4232 S   0  0  0  0  0  0  0  0  0  0  0  0
   10.6890    5.3434   25.3847 H   0  0  0  0  0  0  0  0  0  0  0  0
    9.1347    6.4768   27.0137 H   0  0  0  0  0  0  0  0  0  0  0  0
    6.7325    5.7974   27.1136 H   0  0  0  0  0  0  0  0  0  0  0  0
    6.9738    0.2662   22.8710 H   0  0  0  0  0  0  0  0  0  0  0  0
    6.6473    0.0573   19.9443 C   0  0  0  0  0  0  0  0  0  0  0  0
    5.4266    0.7218   20.1544 C   0  0  0  0  0  0  0  0  0  0  0  0
    4.8054    1.3422   19.0658 C   0  0  0  0  0  0  0  0  0  0  0  0
    5.4301    1.3033   17.8126 C   0  0  0  0  0  0  0  0  0  0  0  0
    6.6026    0.6925   17.5937 N   0  0  0  0  0  0  0  0  0  0  0  0
    7.1877    0.1112   18.6528 C   0  0  0  0  0  0  0  0  0  0  0  0
    8.1481   -0.3647   18.4571 H   0  0  0  0  0  0  0  0  0  0  0  0
    4.9654    1.7818   16.9492 H   0  0  0  0  0  0  0  0  0  0  0  0
    3.8556    1.8594   19.1708 H   0  0  0  0  0  0  0  0  0  0  0  0
    4.9681    0.7829   21.1483 H   0  0  0  0  0  0  0  0  0  0  0  0
    8.3468   -1.0281   20.6320 H   0  0  0  0  0  0  0  0  0  0  0  0
    7.0716   -2.2524   22.4870 H   0  0  0  0  0  0  0  0  0  0  0  0
    5.5753   -1.6139   21.7782 H   0  0  0  0  0  0  0  0  0  0  0  0
    7.6423   -3.3776   20.4063 H   0  0  0  0  0  0  0  0  0  0  0  0
    6.3026   -2.6029   19.5349 H   0  0  0  0  0  0  0  0  0  0  0  0
    4.8676   -3.8188   21.2377 H   0  0  0  0  0  0  0  0  0  0  0  0
    6.4850   -5.2825   19.1588 H   0  0  0  0  0  0  0  0  0  0  0  0
    4.9427   -5.8942   19.7993 H   0  0  0  0  0  0  0  0  0  0  0  0
    4.9792   -4.3911   18.8354 H   0  0  0  0  0  0  0  0  0  0  0  0
  1  2  1  0
  2  3  1  0
  3  4  1  0
  3  5  1  0
  3  6  1  0
  2  7  1  0
  7  8  1  0
  8  9  1  0
  9 10  1  0
 10 11  1  0
 11 12  2  0
 11 13  1  0
 13 14  2  0
 14 15  1  0
 14 16  1  0
 16 17  2  0
 17 18  1  0
 18 19  2  0
 19 20  1  0
 20 21  2  0
 21 22  1  0
 20 23  1  0
 19 24  1  0
 18 25  1  0
 10 26  1  0
  9 27  1  0
 27 28  2  0
 28 29  1  0
 29 30  2  0
 30 31  1  0
 31 32  2  0
 32 33  1  0
 30 34  1  0
 29 35  1  0
 28 36  1  0
  9 37  1  0
  8 38  1  0
  8 39  1  0
  7 40  1  0
  7 41  1  0
  2 42  1  0
  1 43  1  0
  1 44  1  0
  1 45  1  0
 22 13  1  0
 32 27  1  0
 21 16  1  0
M  CHG  1   2   1
M  END
>  <plip>  (1) 
-0.1724137931034483

>  <filename>  (1) 
[H][c]1[n][c]([H])[c]([C]([H])([N]([H])[C](=[O])[c]2[s][c]3[c]([H])[c]([H])[c]([H])[n][c]3[c]2[Cl])[C]([H])([H])[C]([H])([H])[N+]([H])([C]([H])([H])[H])[C]([H])([H])[H])[c]([H])[c]1[H]

$$$$
