
     RDKit          3D

 41 44  0  0  0  0  0  0  0  0999 V2000
    8.7850   -3.5009   22.0407 C   0  0  0  0  0  0  0  0  0  0  0  0
    8.2902   -2.1559   21.8947 N   0  0  0  0  0  0  0  0  0  0  0  0
    8.1724   -1.2137   22.8521 C   0  0  0  0  0  0  0  0  0  0  0  0
    7.4896   -0.1565   22.2894 C   0  0  0  0  0  0  0  0  0  0  0  0
    6.9973    1.1052   22.8995 C   0  0  0  0  0  0  0  0  0  0  0  0
    7.9291    1.5220   24.0107 N   0  0  0  0  0  4  0  0  0  0  0  0
    7.7779    0.7855   25.3959 C   0  0  0  0  0  0  0  0  0  0  0  0
    7.5038    2.1233   26.1360 C   0  0  0  0  0  0  0  0  0  0  0  0
    6.0464    2.4133   26.5485 C   0  0  0  0  0  0  0  0  0  0  0  0
    5.6527    3.7107   25.8043 C   0  0  0  0  0  0  0  0  0  0  0  0
    6.4395    3.6422   24.4740 C   0  0  0  0  0  0  0  0  0  0  0  0
    7.7232    2.8715   24.7827 C   0  0  0  0  0  0  0  0  0  0  0  0
    8.6396    3.4511   24.7004 H   0  0  0  0  0  0  0  0  0  0  0  0
    6.6402    4.6144   24.0162 H   0  0  0  0  0  0  0  0  0  0  0  0
    5.8585    3.0835   23.7369 H   0  0  0  0  0  0  0  0  0  0  0  0
    4.5716    3.7700   25.6271 H   0  0  0  0  0  0  0  0  0  0  0  0
    5.9167    4.6020   26.3913 H   0  0  0  0  0  0  0  0  0  0  0  0
    5.8976    2.4798   27.6319 H   0  0  0  0  0  0  0  0  0  0  0  0
    5.4086    1.5882   26.2034 H   0  0  0  0  0  0  0  0  0  0  0  0
    8.2436    2.3425   26.9089 H   0  0  0  0  0  0  0  0  0  0  0  0
    6.9625    0.0584   25.3876 H   0  0  0  0  0  0  0  0  0  0  0  0
    8.7148    0.3001   25.6625 H   0  0  0  0  0  0  0  0  0  0  0  0
    8.8797    1.4129   23.6106 H   0  0  0  0  0  0  0  0  0  0  0  0
    6.9408    1.9029   22.1523 H   0  0  0  0  0  0  0  0  0  0  0  0
    5.9932    0.9594   23.3210 H   0  0  0  0  0  0  0  0  0  0  0  0
    7.2205   -0.5841   20.9623 C   0  0  0  0  0  0  0  0  0  0  0  0
    6.5038    0.1002   19.8882 C   0  0  0  0  0  0  0  0  0  0  0  0
    5.2805    0.7725   20.0430 C   0  0  0  0  0  0  0  0  0  0  0  0
    4.7334    1.4082   18.9279 C   0  0  0  0  0  0  0  0  0  0  0  0
    5.4349    1.3660   17.7183 C   0  0  0  0  0  0  0  0  0  0  0  0
    6.5977    0.7160   17.5544 N   0  0  0  0  0  0  0  0  0  0  0  0
    7.0961    0.0818   18.6166 C   0  0  0  0  0  0  0  0  0  0  0  0
    8.0236   -0.4696   18.4630 H   0  0  0  0  0  0  0  0  0  0  0  0
    5.0359    1.8510   16.8302 H   0  0  0  0  0  0  0  0  0  0  0  0
    3.7850    1.9316   18.9774 H   0  0  0  0  0  0  0  0  0  0  0  0
    4.7703    0.7972   21.0081 H   0  0  0  0  0  0  0  0  0  0  0  0
    7.7587   -1.7746   20.7351 N   0  0  0  0  0  0  0  0  0  0  0  0
    8.6158   -1.3599   23.8323 H   0  0  0  0  0  0  0  0  0  0  0  0
    8.7045   -3.9635   21.0561 H   0  0  0  0  0  0  0  0  0  0  0  0
    8.1707   -4.0620   22.7504 H   0  0  0  0  0  0  0  0  0  0  0  0
    9.8226   -3.4797   22.3836 H   0  0  0  0  0  0  0  0  0  0  0  0
  1  2  1  0
  2  3  1  0
  3  4  2  0
  4  5  1  0
  5  6  1  0
  6  7  1  0
  7  8  1  0
  8  9  1  0
  9 10  1  0
 10 11  1  0
 11 12  1  0
 12 13  1  0
 11 14  1  0
 11 15  1  0
 10 16  1  0
 10 17  1  0
  9 18  1  0
  9 19  1  0
  8 20  1  0
  7 21  1  0
  7 22  1  0
  6 23  1  0
  5 24  1  0
  5 25  1  0
  4 26  1  0
 26 27  1  0
 27 28  2  0
 28 29  1  0
 29 30  2  0
 30 31  1  0
 31 32  2  0
 32 33  1  0
 30 34  1  0
 29 35  1  0
 28 36  1  0
 26 37  2  0
  3 38  1  0
  1 39  1  0
  1 40  1  0
  1 41  1  0
 37  2  1  0
 12  6  1  0
 32 27  1  0
 12  8  1  0
M  CHG  1   6   1
M  END
>  <plip>  (1) 
-0.03571428571428571

>  <filename>  (1) 
[H][c]1[n][c]([H])[c](-[c]2[n][n]([C]([H])([H])[H])[c]([H])[c]2[C]([H])([H])[N+]2([H])[C]([H])([H])[C]3([H])[C]([H])([H])[C]([H])([H])[C]([H])([H])[C]32[H])[c]([H])[c]1[H]

$$$$
