
     RDKit          3D

 49 51  0  0  0  0  0  0  0  0999 V2000
    6.0336   -3.6794   22.0841 O   0  0  0  0  0  0  0  0  0  0  0  0
    7.1872   -3.5875   22.4823 C   0  0  0  0  0  0  0  0  0  0  0  0
    8.1255   -2.8129   21.8728 N   0  0  0  0  0  0  0  0  0  0  0  0
    7.7979   -2.0085   20.7105 C   0  0  0  0  0  0  0  0  0  0  0  0
    7.2356   -0.6281   21.0853 C   0  0  0  0  0  0  0  0  0  0  0  0
    6.5497    0.0659   19.9324 C   0  0  0  0  0  0  0  0  0  0  0  0
    5.3264    0.7293   20.0996 C   0  0  0  0  0  0  0  0  0  0  0  0
    4.7531    1.3792   19.0032 C   0  0  0  0  0  0  0  0  0  0  0  0
    5.4190    1.3324   17.7740 C   0  0  0  0  0  0  0  0  0  0  0  0
    6.5779    0.6835   17.5896 N   0  0  0  0  0  0  0  0  0  0  0  0
    7.1132    0.0649   18.6475 C   0  0  0  0  0  0  0  0  0  0  0  0
    8.0492   -0.4676   18.4628 H   0  0  0  0  0  0  0  0  0  0  0  0
    5.0080    1.8269   16.8955 H   0  0  0  0  0  0  0  0  0  0  0  0
    3.8160    1.9203   19.0826 H   0  0  0  0  0  0  0  0  0  0  0  0
    4.8365    0.7346   21.0759 H   0  0  0  0  0  0  0  0  0  0  0  0
    8.3562    0.1956   21.7120 N   0  0  0  0  0  4  0  0  0  0  0  0
    7.8591    1.3537   22.5825 C   0  0  0  0  0  0  0  0  0  0  0  0
    9.0530    2.2157   23.0762 C   0  0  0  0  0  0  0  0  0  0  0  0
   10.2890    1.5434   22.9216 O   0  0  0  0  0  0  0  0  0  0  0  0
   10.6134    1.2976   21.5615 C   0  0  0  0  0  0  0  0  0  0  0  0
    9.4368    0.7134   20.7477 C   0  0  0  0  0  0  0  0  0  0  0  0
    8.9774    1.4799   20.1219 H   0  0  0  0  0  0  0  0  0  0  0  0
    9.7981   -0.0820   20.0908 H   0  0  0  0  0  0  0  0  0  0  0  0
   10.9619    2.2209   21.0770 H   0  0  0  0  0  0  0  0  0  0  0  0
   11.4448    0.5919   21.5988 H   0  0  0  0  0  0  0  0  0  0  0  0
    8.9542    2.4261   24.1426 H   0  0  0  0  0  0  0  0  0  0  0  0
    9.0718    3.1771   22.5410 H   0  0  0  0  0  0  0  0  0  0  0  0
    7.1727    1.9706   21.9946 H   0  0  0  0  0  0  0  0  0  0  0  0
    7.3035    0.9474   23.4346 H   0  0  0  0  0  0  0  0  0  0  0  0
    8.8305   -0.4791   22.3613 H   0  0  0  0  0  0  0  0  0  0  0  0
    6.4818   -0.8167   21.8630 H   0  0  0  0  0  0  0  0  0  0  0  0
    7.0404   -2.5285   20.1297 H   0  0  0  0  0  0  0  0  0  0  0  0
    8.6877   -1.8873   20.0892 H   0  0  0  0  0  0  0  0  0  0  0  0
    9.0888   -2.9453   22.1555 H   0  0  0  0  0  0  0  0  0  0  0  0
    7.7195   -4.3325   23.7806 C   0  0  0  0  0  0  0  0  0  0  0  0
    8.9213   -4.4266   23.9816 O   0  0  0  0  0  0  0  0  0  0  0  0
    6.7575   -4.7958   24.6370 N   0  0  0  0  0  0  0  0  0  0  0  0
    6.9955   -5.2765   25.9346 C   0  0  0  0  0  0  0  0  0  0  0  0
    6.0698   -6.1598   26.5222 C   0  0  0  0  0  0  0  0  0  0  0  0
    4.6506   -6.6764   25.6681 Cl  0  0  0  0  0  0  0  0  0  0  0  0
    6.3375   -6.6513   27.8069 C   0  0  0  0  0  0  0  0  0  0  0  0
    5.4807   -7.5026   28.3795 F   0  0  0  0  0  0  0  0  0  0  0  0
    7.4787   -6.2749   28.5158 C   0  0  0  0  0  0  0  0  0  0  0  0
    8.3849   -5.3886   27.9243 C   0  0  0  0  0  0  0  0  0  0  0  0
    8.1366   -4.8770   26.6507 C   0  0  0  0  0  0  0  0  0  0  0  0
    8.8234   -4.1776   26.1990 H   0  0  0  0  0  0  0  0  0  0  0  0
    9.3116   -5.0985   28.4186 H   0  0  0  0  0  0  0  0  0  0  0  0
    7.6295   -6.7063   29.4993 H   0  0  0  0  0  0  0  0  0  0  0  0
    5.8234   -4.9487   24.2697 H   0  0  0  0  0  0  0  0  0  0  0  0
  1  2  2  0
  2  3  1  0
  3  4  1  0
  4  5  1  0
  5  6  1  0
  6  7  2  0
  7  8  1  0
  8  9  2  0
  9 10  1  0
 10 11  2  0
 11 12  1  0
  9 13  1  0
  8 14  1  0
  7 15  1  0
  5 16  1  0
 16 17  1  0
 17 18  1  0
 18 19  1  0
 19 20  1  0
 20 21  1  0
 21 22  1  0
 21 23  1  0
 20 24  1  0
 20 25  1  0
 18 26  1  0
 18 27  1  0
 17 28  1  0
 17 29  1  0
 16 30  1  0
  5 31  1  0
  4 32  1  0
  4 33  1  0
  3 34  1  0
  2 35  1  0
 35 36  2  0
 35 37  1  0
 37 38  1  0
 38 39  2  0
 39 40  1  0
 39 41  1  0
 41 42  1  0
 41 43  2  0
 43 44  1  0
 44 45  2  0
 45 46  1  0
 44 47  1  0
 43 48  1  0
 37 49  1  0
 11  6  1  0
 21 16  1  0
 45 38  1  0
M  CHG  1  16   1
M  END
>  <plip>  (1) 
-0.06451612903225806

>  <filename>  (1) 
[H][c]1[n][c]([H])[c]([C]([H])([C]([H])([H])[N]([H])[C](=[O])[C](=[O])[N]([H])[c]2[c]([H])[c]([H])[c]([H])[c]([F])[c]2[Cl])[N+]2([H])[C]([H])([H])[C]([H])([H])[O][C]([H])([H])[C]2([H])[H])[c]([H])[c]1[H]

$$$$
