
     RDKit          3D

 41 44  0  0  0  0  0  0  0  0999 V2000
    5.0388    1.7255   17.0272 H   0  0  0  0  0  0  0  0  0  0  0  0
    5.4996    1.2429   17.8870 C   0  0  0  0  0  0  0  0  0  0  0  0
    6.6660    0.6158   17.6609 N   0  0  0  0  0  0  0  0  0  0  0  0
    7.2315   -0.0112   18.7046 C   0  0  0  0  0  0  0  0  0  0  0  0
    8.1657   -0.5362   18.5004 H   0  0  0  0  0  0  0  0  0  0  0  0
    6.6919   -0.0585   20.0033 C   0  0  0  0  0  0  0  0  0  0  0  0
    7.3144   -0.9387   21.0404 C   0  0  2  0  0  0  0  0  0  0  0  0
    6.9787   -1.9732   20.9510 H   0  0  0  0  0  0  0  0  0  0  0  0
    7.6377   -0.5356   22.4536 C   0  0  2  0  0  0  0  0  0  0  0  0
    7.4099   -1.2607   23.2233 H   0  0  0  0  0  0  0  0  0  0  0  0
    7.6645    0.9362   22.8268 C   0  0  0  0  0  0  0  0  0  0  0  0
    6.7082    1.4352   22.6143 H   0  0  0  0  0  0  0  0  0  0  0  0
    7.8221    1.0389   23.9068 H   0  0  0  0  0  0  0  0  0  0  0  0
    8.7700    1.5449   22.0709 N   0  0  0  0  0  0  0  0  0  0  0  0
    8.4100    2.7251   21.2929 C   0  0  0  0  0  0  0  0  0  0  0  0
    9.2885    2.9442   20.6819 H   0  0  0  0  0  0  0  0  0  0  0  0
    7.6174    2.4565   20.5757 H   0  0  0  0  0  0  0  0  0  0  0  0
    8.0116    4.0150   22.0072 C   0  0  0  0  0  0  0  0  0  0  0  0
    6.7342    4.5608   21.8115 C   0  0  0  0  0  0  0  0  0  0  0  0
    5.9980    4.0097   21.2286 H   0  0  0  0  0  0  0  0  0  0  0  0
    6.3991    5.8116   22.3396 C   0  0  0  0  0  0  0  0  0  0  0  0
    5.4011    6.2118   22.1693 H   0  0  0  0  0  0  0  0  0  0  0  0
    7.3393    6.5542   23.0475 C   0  0  0  0  0  0  0  0  0  0  0  0
    7.0952    7.5262   23.4682 H   0  0  0  0  0  0  0  0  0  0  0  0
    8.6307    6.0364   23.2336 C   0  0  0  0  0  0  0  0  0  0  0  0
    9.5081    6.8333   23.9169 O   0  0  0  0  0  0  0  0  0  0  0  0
   10.8463    6.3846   24.0004 C   0  0  0  0  0  0  0  0  0  0  0  0
   10.9186    5.4225   24.5231 H   0  0  0  0  0  0  0  0  0  0  0  0
   11.4040    7.1236   24.5702 H   0  0  0  0  0  0  0  0  0  0  0  0
   11.2978    6.2873   23.0050 H   0  0  0  0  0  0  0  0  0  0  0  0
    8.9557    4.7641   22.7327 C   0  0  0  0  0  0  0  0  0  0  0  0
    9.9607    4.3701   22.8641 H   0  0  0  0  0  0  0  0  0  0  0  0
    9.4612    0.5264   21.2523 C   0  0  0  0  0  0  0  0  0  0  0  0
    9.4528    0.7808   20.1797 H   0  0  0  0  0  0  0  0  0  0  0  0
   10.5229    0.4645   21.5317 H   0  0  0  0  0  0  0  0  0  0  0  0
    8.7519   -0.7936   21.4881 C   0  0  2  0  0  0  0  0  0  0  0  0
    9.3553   -1.6936   21.5233 H   0  0  0  0  0  0  0  0  0  0  0  0
    5.4773    0.6076   20.2088 C   0  0  0  0  0  0  0  0  0  0  0  0
    5.0302    0.5981   21.2023 H   0  0  0  0  0  0  0  0  0  0  0  0
    4.8700    1.2663   19.1354 C   0  0  0  0  0  0  0  0  0  0  0  0
    3.9240    1.7823   19.2573 H   0  0  0  0  0  0  0  0  0  0  0  0
  1  2  1  0
  2  3  2  0
  3  4  1  0
  4  5  1  0
  4  6  2  0
  6  7  1  0
  7  8  1  1
  7  9  1  0
  9 10  1  1
  9 11  1  0
 11 12  1  0
 11 13  1  0
 11 14  1  0
 14 15  1  0
 15 16  1  0
 15 17  1  0
 15 18  1  0
 18 19  2  0
 19 20  1  0
 19 21  1  0
 21 22  1  0
 21 23  2  0
 23 24  1  0
 23 25  1  0
 25 26  1  0
 26 27  1  0
 27 28  1  0
 27 29  1  0
 27 30  1  0
 25 31  2  0
 31 32  1  0
 14 33  1  0
 33 34  1  0
 33 35  1  0
 33 36  1  0
 36 37  1  1
  6 38  1  0
 38 39  1  0
 38 40  2  0
 40 41  1  0
 40  2  1  0
 36  7  1  0
 36  9  1  0
 31 18  1  0
M  END
>  <plip>  (1) 
-0.07142857142857142

>  <filename>  (1) 
[H][c]1[n][c]([H])[c]([C@]2([H])[C@]3([H])[C]([H])([H])[N]([C]([H])([H])[c]4[c]([H])[c]([H])[c]([H])[c]([O][C]([H])([H])[H])[c]4[H])[C]([H])([H])[C@]23[H])[c]([H])[c]1[H]

$$$$
