
     RDKit          3D

 37 40  0  0  0  0  0  0  0  0999 V2000
    4.9341    1.7982   16.9865 H   0  0  0  0  0  0  0  0  0  0  0  0
    5.3910    1.2968   17.8383 C   0  0  0  0  0  0  0  0  0  0  0  0
    6.5454    0.6659   17.5823 N   0  0  0  0  0  0  0  0  0  0  0  0
    7.1303    0.0299   18.6005 C   0  0  0  0  0  0  0  0  0  0  0  0
    8.1062   -0.4094   18.3990 H   0  0  0  0  0  0  0  0  0  0  0  0
    6.5896   -0.0452   19.8970 C   0  0  0  0  0  0  0  0  0  0  0  0
    7.3187   -0.7645   20.9826 C   0  0  0  0  0  0  0  0  0  0  0  0
    6.5927   -1.5281   21.7532 N   0  0  0  0  0  0  0  0  0  0  0  0
    7.1812   -2.1435   22.8215 N   0  0  0  0  0  0  0  0  0  0  0  0
    6.2942   -2.8965   23.6972 C   0  0  0  0  0  0  0  0  0  0  0  0
    6.7484   -3.8770   23.8813 H   0  0  0  0  0  0  0  0  0  0  0  0
    5.3626   -3.0118   23.1352 H   0  0  0  0  0  0  0  0  0  0  0  0
    6.0504   -2.2906   24.9985 N   0  0  0  0  0  0  0  0  0  0  0  0
    6.0246   -3.0173   26.1791 C   0  0  0  0  0  0  0  0  0  0  0  0
    6.3783   -4.1694   26.2586 O   0  0  0  0  0  0  0  0  0  0  0  0
    5.4709   -2.0969   27.2306 C   0  0  0  0  0  0  0  0  0  0  0  0
    5.1944   -2.2713   28.5906 C   0  0  0  0  0  0  0  0  0  0  0  0
    5.3897   -3.2189   29.0901 H   0  0  0  0  0  0  0  0  0  0  0  0
    4.6541   -1.1837   29.2890 C   0  0  0  0  0  0  0  0  0  0  0  0
    4.4369   -1.2852   30.3479 H   0  0  0  0  0  0  0  0  0  0  0  0
    4.3849    0.0431   28.6454 C   0  0  0  0  0  0  0  0  0  0  0  0
    3.9625    0.8710   29.2082 H   0  0  0  0  0  0  0  0  0  0  0  0
    4.6604    0.2101   27.2867 C   0  0  0  0  0  0  0  0  0  0  0  0
    4.4621    1.1493   26.7705 H   0  0  0  0  0  0  0  0  0  0  0  0
    5.2126   -0.8769   26.6075 C   0  0  0  0  0  0  0  0  0  0  0  0
    5.6694   -0.9686   25.1989 C   0  0  0  0  0  0  0  0  0  0  0  0
    5.7578   -0.0816   24.3897 O   0  0  0  0  0  0  0  0  0  0  0  0
    8.5289   -2.0857   23.0708 C   0  0  0  0  0  0  0  0  0  0  0  0
    8.8541   -2.6842   23.9202 H   0  0  0  0  0  0  0  0  0  0  0  0
    9.3527   -1.3390   22.3147 C   0  0  0  0  0  0  0  0  0  0  0  0
   10.4150   -1.2463   22.4861 H   0  0  0  0  0  0  0  0  0  0  0  0
    8.7987   -0.5767   21.2064 C   0  0  0  0  0  0  0  0  0  0  0  0
    9.5051    0.1558   20.5156 O   0  0  0  0  0  0  0  0  0  0  0  0
    5.3909    0.6308   20.1555 C   0  0  0  0  0  0  0  0  0  0  0  0
    4.9893    0.6271   21.1715 H   0  0  0  0  0  0  0  0  0  0  0  0
    4.7882    1.3198   19.1020 C   0  0  0  0  0  0  0  0  0  0  0  0
    3.8640    1.8661   19.2358 H   0  0  0  0  0  0  0  0  0  0  0  0
  1  2  1  0
  2  3  2  0
  3  4  1  0
  4  5  1  0
  4  6  2  0
  6  7  1  0
  7  8  2  0
  8  9  1  0
  9 10  1  0
 10 11  1  0
 10 12  1  0
 10 13  1  0
 13 14  1  0
 14 15  2  0
 14 16  1  0
 16 17  2  0
 17 18  1  0
 17 19  1  0
 19 20  1  0
 19 21  2  0
 21 22  1  0
 21 23  1  0
 23 24  1  0
 23 25  2  0
 25 26  1  0
 26 27  2  0
  9 28  1  0
 28 29  1  0
 28 30  2  0
 30 31  1  0
 30 32  1  0
 32 33  2  0
  6 34  1  0
 34 35  1  0
 34 36  2  0
 36 37  1  0
 36  2  1  0
 32  7  1  0
 26 13  1  0
 25 16  1  0
M  END
>  <plip>  (1) 
-0.07142857142857142

>  <filename>  (1) 
[H][c]1[n][c]([H])[c](-[c]2[n][n]([C]([H])([H])[N]3[C](=[O])[c]4[c]([H])[c]([H])[c]([H])[c]([H])[c]4[C]3=[O])[c]([H])[c]([H])[c]2=[O])[c]([H])[c]1[H]

$$$$
