
     RDKit          3D

 17 17  0  0  0  0  0  0  0  0999 V2000
    4.9398    1.8128   17.0097 H   0  0  0  0  0  0  0  0  0  0  0  0
    5.4075    1.2971   17.8440 C   0  0  0  0  0  0  0  0  0  0  0  0
    6.5692    0.6737   17.5767 N   0  0  0  0  0  0  0  0  0  0  0  0
    7.1825    0.0287   18.5755 C   0  0  0  0  0  0  0  0  0  0  0  0
    8.1356   -0.4445   18.3344 H   0  0  0  0  0  0  0  0  0  0  0  0
    6.6760   -0.0448   19.8942 C   0  0  0  0  0  0  0  0  0  0  0  0
    7.3276   -0.7646   20.9331 N   0  0  0  0  0  0  0  0  0  0  0  0
    8.2425   -1.1801   20.7867 H   0  0  0  0  0  0  0  0  0  0  0  0
    6.9521   -0.7667   22.5510 S   0  0  0  0  0  4  0  0  0  0  0  0
    8.0995   -0.3355   23.3391 O   0  0  0  0  0  0  0  0  0  0  0  0
    6.4482   -2.3131   22.7597 N   0  0  0  0  0  0  0  0  0  0  0  0
    5.5883   -3.0247   23.2266 C   0  0  0  0  0  0  0  0  0  0  0  0
    4.3979   -3.9112   23.7240 S   0  0  0  0  0  0  0  0  0  0  0  0
    5.4693    0.6250   20.1535 C   0  0  0  0  0  0  0  0  0  0  0  0
    5.0402    0.6358   21.1513 H   0  0  0  0  0  0  0  0  0  0  0  0
    4.8241    1.2960   19.1138 C   0  0  0  0  0  0  0  0  0  0  0  0
    3.8874    1.8295   19.2699 H   0  0  0  0  0  0  0  0  0  0  0  0
  1  2  1  0
  2  3  2  0
  3  4  1  0
  4  5  1  0
  4  6  2  0
  6  7  1  0
  7  8  1  0
  9  7  1  1
  9 10  2  0
  9 11  1  0
 11 12  2  0
 12 13  2  0
  6 14  1  0
 14 15  1  0
 14 16  2  0
 16 17  1  0
 16  2  1  0
M  END
>  <plip>  (1) 
-0.03571428571428571

>  <filename>  (1) 
[H][c]1[n][c]([H])[c]([N]([H])[S@@](=[O])[N]=[C]=[S])[c]([H])[c]1[H]

$$$$
