
     RDKit          3D

 34 36  0  0  0  0  0  0  0  0999 V2000
    3.4730    4.1945   25.2640 H   0  0  0  0  0  0  0  0  0  0  0  0
    3.8963    4.1449   24.2646 C   0  0  0  0  0  0  0  0  0  0  0  0
    5.1920    3.8077   24.2068 N   0  0  0  0  0  0  0  0  0  0  0  0
    5.7425    3.6958   22.9870 C   0  0  0  0  0  0  0  0  0  0  0  0
    7.1907    3.2646   22.8867 C   0  0  0  0  0  0  0  0  0  0  0  0
    7.6317    3.2855   23.8863 H   0  0  0  0  0  0  0  0  0  0  0  0
    7.7375    3.9668   22.2443 H   0  0  0  0  0  0  0  0  0  0  0  0
    7.2518    1.9393   22.3093 O   0  0  0  0  0  0  0  0  0  0  0  0
    8.4619    1.4179   22.0488 C   0  0  0  0  0  0  0  0  0  0  0  0
    9.7505    1.8622   22.2422 C   0  0  0  0  0  0  0  0  0  0  0  0
   10.0541    2.7888   22.7147 H   0  0  0  0  0  0  0  0  0  0  0  0
   10.5433    0.8200   21.7100 C   0  0  0  0  0  0  0  0  0  0  0  0
   11.6233    0.7477   21.6567 H   0  0  0  0  0  0  0  0  0  0  0  0
    9.8165   -0.1763   21.2354 N   0  0  0  0  0  0  0  0  0  0  0  0
    8.5294    0.1906   21.4654 N   0  0  0  0  0  0  0  0  0  0  0  0
    7.4281   -0.6446   21.0051 C   0  0  0  0  0  0  0  0  0  0  0  0
    7.8791   -1.5882   20.6847 H   0  0  0  0  0  0  0  0  0  0  0  0
    6.7774   -0.8646   21.8581 H   0  0  0  0  0  0  0  0  0  0  0  0
    6.6355    0.0016   19.8940 C   0  0  0  0  0  0  0  0  0  0  0  0
    7.1577    0.0621   18.5920 C   0  0  0  0  0  0  0  0  0  0  0  0
    8.1104   -0.4142   18.3697 H   0  0  0  0  0  0  0  0  0  0  0  0
    6.5588    0.6819   17.5699 N   0  0  0  0  0  0  0  0  0  0  0  0
    5.3962    1.2968   17.8319 C   0  0  0  0  0  0  0  0  0  0  0  0
    4.9211    1.7892   16.9875 H   0  0  0  0  0  0  0  0  0  0  0  0
    4.7949    1.3103   19.0953 C   0  0  0  0  0  0  0  0  0  0  0  0
    3.8683    1.8524   19.2462 H   0  0  0  0  0  0  0  0  0  0  0  0
    5.4237    0.6455   20.1497 C   0  0  0  0  0  0  0  0  0  0  0  0
    5.0078    0.6421   21.1626 H   0  0  0  0  0  0  0  0  0  0  0  0
    5.0233    3.9678   21.8164 C   0  0  0  0  0  0  0  0  0  0  0  0
    5.5383    3.8857   20.8706 H   0  0  0  0  0  0  0  0  0  0  0  0
    3.6765    4.3328   21.8814 C   0  0  0  0  0  0  0  0  0  0  0  0
    3.1063    4.5404   20.9691 H   0  0  0  0  0  0  0  0  0  0  0  0
    3.0963    4.4140   23.1480 C   0  0  0  0  0  0  0  0  0  0  0  0
    2.0550    4.6884   23.2803 H   0  0  0  0  0  0  0  0  0  0  0  0
  1  2  1  0
  2  3  2  0
  3  4  1  0
  4  5  1  0
  5  6  1  0
  5  7  1  0
  5  8  1  0
  8  9  1  0
  9 10  2  0
 10 11  1  0
 10 12  1  0
 12 13  1  0
 12 14  2  0
 14 15  1  0
 15 16  1  0
 16 17  1  0
 16 18  1  0
 16 19  1  0
 19 20  2  0
 20 21  1  0
 20 22  1  0
 22 23  2  0
 23 24  1  0
 23 25  1  0
 25 26  1  0
 25 27  2  0
 27 28  1  0
  4 29  2  0
 29 30  1  0
 29 31  1  0
 31 32  1  0
 31 33  2  0
 33 34  1  0
 33  2  1  0
 15  9  1  0
 27 19  1  0
M  END
>  <plip>  (1) 
-0.03571428571428571

>  <filename>  (1) 
[H][c]1[n][c]([C]([H])([H])[O][c]2[c]([H])[c]([H])[n][n]2[C]([H])([H])[c]2[c]([H])[n][c]([H])[c]([H])[c]2[H])[c]([H])[c]([H])[c]1[H]

$$$$
