
     RDKit          3D

 27 27  0  0  0  0  0  0  0  0999 V2000
    7.8850   -3.7092   27.9216 H   0  0  0  0  0  0  0  0  0  0  0  0
    7.4050   -3.4984   27.1008 O   0  0  0  0  0  0  0  0  0  0  0  0
    8.3283   -2.8874   26.2510 N   0  0  0  0  0  0  0  0  0  0  0  0
    8.2775   -3.3092   25.3312 H   0  0  0  0  0  0  0  0  0  0  0  0
    8.4485   -1.5046   26.1993 C   0  0  0  0  0  0  0  0  0  0  0  0
    8.0703   -0.7309   27.0508 O   0  0  0  0  0  0  0  0  0  0  0  0
    9.2212   -1.0585   24.9813 C   0  0  0  0  0  0  0  0  0  0  0  0
    9.9640   -0.3475   25.3553 H   0  0  0  0  0  0  0  0  0  0  0  0
    9.7436   -1.8971   24.5114 H   0  0  0  0  0  0  0  0  0  0  0  0
    8.3253   -0.3712   23.9607 C   0  0  0  0  0  0  0  0  0  0  0  0
    7.7424    0.4343   24.4291 H   0  0  0  0  0  0  0  0  0  0  0  0
    8.9620    0.0794   23.1927 H   0  0  0  0  0  0  0  0  0  0  0  0
    7.4692   -1.3502   23.2830 N   0  0  0  0  0  0  0  0  0  0  0  0
    6.6622   -1.5642   23.8769 H   0  0  0  0  0  0  0  0  0  0  0  0
    6.8467   -0.6698   22.1812 O   0  0  0  0  0  0  0  0  0  0  0  0
    7.4533   -0.7230   20.9427 C   0  0  0  0  0  0  0  0  0  0  0  0
    8.5138   -1.2395   20.6936 O   0  0  0  0  0  0  0  0  0  0  0  0
    6.6313   -0.0090   19.9338 C   0  0  0  0  0  0  0  0  0  0  0  0
    7.1707    0.0261   18.6423 C   0  0  0  0  0  0  0  0  0  0  0  0
    8.1213   -0.4678   18.4454 H   0  0  0  0  0  0  0  0  0  0  0  0
    6.5834    0.6436   17.6157 N   0  0  0  0  0  0  0  0  0  0  0  0
    5.4243    1.2730   17.8622 C   0  0  0  0  0  0  0  0  0  0  0  0
    4.9647    1.7847   17.0206 H   0  0  0  0  0  0  0  0  0  0  0  0
    4.8012    1.2951   19.1160 C   0  0  0  0  0  0  0  0  0  0  0  0
    3.8702    1.8389   19.2508 H   0  0  0  0  0  0  0  0  0  0  0  0
    5.4122    0.6412   20.1836 C   0  0  0  0  0  0  0  0  0  0  0  0
    4.9631    0.6458   21.1772 H   0  0  0  0  0  0  0  0  0  0  0  0
  1  2  1  0
  2  3  1  0
  3  4  1  0
  3  5  1  0
  5  6  2  0
  5  7  1  0
  7  8  1  0
  7  9  1  0
  7 10  1  0
 10 11  1  0
 10 12  1  0
 10 13  1  0
 13 14  1  0
 13 15  1  0
 15 16  1  0
 16 17  2  0
 16 18  1  0
 18 19  2  0
 19 20  1  0
 19 21  1  0
 21 22  2  0
 22 23  1  0
 22 24  1  0
 24 25  1  0
 24 26  2  0
 26 27  1  0
 26 18  1  0
M  END
>  <plip>  (1) 
-0.03571428571428571

>  <filename>  (1) 
[H][O][N]([H])[C](=[O])[C]([H])([H])[C]([H])([H])[N]([H])[O][C](=[O])[c]1[c]([H])[n][c]([H])[c]([H])[c]1[H]

$$$$
