
     RDKit          3D

 26 27  0  0  0  0  0  0  0  0999 V2000
    5.8424    6.0654   22.9752 H   0  0  0  0  0  0  0  0  0  0  0  0
    6.7720    5.8293   22.7949 O   0  0  0  0  0  0  0  0  0  0  0  0
    6.7408    4.5155   22.3161 N   0  0  0  0  0  0  0  0  0  0  0  0
    7.4205    4.4283   21.5718 H   0  0  0  0  0  0  0  0  0  0  0  0
    6.8363    3.4559   23.2265 C   0  0  0  0  0  0  0  0  0  0  0  0
    6.5477    3.5340   24.4007 O   0  0  0  0  0  0  0  0  0  0  0  0
    7.2520    2.2080   22.5126 C   0  0  0  0  0  0  0  0  0  0  0  0
    7.5080    2.3255   21.4596 H   0  0  0  0  0  0  0  0  0  0  0  0
    7.3083    1.0023   23.0973 C   0  0  0  0  0  0  0  0  0  0  0  0
    7.1590    0.8691   24.1700 H   0  0  0  0  0  0  0  0  0  0  0  0
    7.5687   -0.2668   22.4050 C   0  0  0  0  0  0  0  0  0  0  0  0
    8.1330   -1.2234   23.1057 N   0  0  0  0  0  0  0  0  0  0  0  0
    8.2622   -2.2901   22.2606 O   0  0  0  0  0  0  0  0  0  0  0  0
    7.7588   -1.9705   21.0746 C   0  0  0  0  0  0  0  0  0  0  0  0
    7.7353   -2.7961   20.3939 H   0  0  0  0  0  0  0  0  0  0  0  0
    7.3067   -0.6889   21.0437 C   0  0  0  0  0  0  0  0  0  0  0  0
    6.6465    0.0339   19.9168 C   0  0  0  0  0  0  0  0  0  0  0  0
    7.1672    0.0734   18.5984 C   0  0  0  0  0  0  0  0  0  0  0  0
    8.1117   -0.4213   18.3715 H   0  0  0  0  0  0  0  0  0  0  0  0
    6.5806    0.6944   17.5635 N   0  0  0  0  0  0  0  0  0  0  0  0
    5.4137    1.3172   17.8027 C   0  0  0  0  0  0  0  0  0  0  0  0
    4.9335    1.8100   16.9555 H   0  0  0  0  0  0  0  0  0  0  0  0
    4.8007    1.3299   19.0587 C   0  0  0  0  0  0  0  0  0  0  0  0
    3.8536    1.8370   19.1905 H   0  0  0  0  0  0  0  0  0  0  0  0
    5.4236    0.6809   20.1283 C   0  0  0  0  0  0  0  0  0  0  0  0
    4.9778    0.6622   21.1254 H   0  0  0  0  0  0  0  0  0  0  0  0
  1  2  1  0
  2  3  1  0
  3  4  1  0
  3  5  1  0
  5  6  2  0
  5  7  1  0
  7  8  1  0
  7  9  2  3
  9 10  1  0
  9 11  1  0
 11 12  2  0
 12 13  1  0
 13 14  1  0
 14 15  1  0
 14 16  2  0
 16 17  1  0
 17 18  2  0
 18 19  1  0
 18 20  1  0
 20 21  2  0
 21 22  1  0
 21 23  1  0
 23 24  1  0
 23 25  2  0
 25 26  1  0
 16 11  1  0
 25 17  1  0
M  END
>  <plip>  (1) 
-0.10344827586206896

>  <filename>  (1) 
[H][O][N]([H])[C](=[O])[C]([H])=[C]([H])[c]1[n][o][c]([H])[c]1-[c]1[c]([H])[n][c]([H])[c]([H])[c]1[H]

$$$$
