
     RDKit          3D

 43 45  0  0  0  0  0  0  0  0999 V2000
    8.2909   -1.1848   23.2079 C   0  0  0  0  0  0  0  0  0  0  0  0
    7.7022   -0.2427   22.1704 C   0  0  0  0  0  0  0  0  0  0  0  0
    7.3893   -0.6609   20.9356 C   0  0  0  0  0  0  0  0  0  0  0  0
    6.6286    0.0389   19.8801 C   0  0  0  0  0  0  0  0  0  0  0  0
    5.3961    0.6687   20.1082 C   0  0  0  0  0  0  0  0  0  0  0  0
    4.7673    1.3275   19.0519 C   0  0  0  0  0  0  0  0  0  0  0  0
    5.3819    1.3173   17.7976 C   0  0  0  0  0  0  0  0  0  0  0  0
    6.5409    0.6854   17.5420 N   0  0  0  0  0  0  0  0  0  0  0  0
    7.1374    0.0696   18.5656 C   0  0  0  0  0  0  0  0  0  0  0  0
    8.0841   -0.4255   18.3400 H   0  0  0  0  0  0  0  0  0  0  0  0
    4.9263    1.8369   16.9585 H   0  0  0  0  0  0  0  0  0  0  0  0
    3.8385    1.8730   19.1941 H   0  0  0  0  0  0  0  0  0  0  0  0
    4.9408    0.6199   21.0971 H   0  0  0  0  0  0  0  0  0  0  0  0
    7.7383   -1.6645   20.6549 H   0  0  0  0  0  0  0  0  0  0  0  0
    7.4660    1.1716   22.6414 C   0  0  0  0  0  0  0  0  0  0  0  0
    7.2150    1.4310   23.8010 O   0  0  0  0  0  0  0  0  0  0  0  0
    7.5794    2.1168   21.6786 O   0  0  0  0  0  0  0  0  0  0  0  0
    7.3509    3.4918   22.0833 C   0  0  0  0  0  0  0  0  0  0  0  0
    5.8495    3.8656   22.0833 C   0  0  0  0  0  0  0  0  0  0  0  0
    5.5614    5.2533   22.3683 N   0  0  0  0  0  0  0  0  0  0  0  0
    5.1013    6.2091   21.3647 C   0  0  0  0  0  0  0  0  0  0  0  0
    4.9987    7.5613   22.1087 C   0  0  0  0  0  0  0  0  0  0  0  0
    5.4532    7.2244   23.5094 C   0  0  0  0  0  0  0  0  0  0  0  0
    5.5814    8.0231   24.6399 C   0  0  0  0  0  0  0  0  0  0  0  0
    6.0276    7.4562   25.8431 C   0  0  0  0  0  0  0  0  0  0  0  0
    6.3472    6.0925   25.9114 C   0  0  0  0  0  0  0  0  0  0  0  0
    6.2227    5.2756   24.7818 C   0  0  0  0  0  0  0  0  0  0  0  0
    5.7720    5.8552   23.5846 C   0  0  0  0  0  0  0  0  0  0  0  0
    6.4747    4.2178   24.8226 H   0  0  0  0  0  0  0  0  0  0  0  0
    6.6958    5.6613   26.8487 H   0  0  0  0  0  0  0  0  0  0  0  0
    6.1206    8.0755   26.7293 H   0  0  0  0  0  0  0  0  0  0  0  0
    5.3325    9.0803   24.5862 H   0  0  0  0  0  0  0  0  0  0  0  0
    5.6462    8.3111   21.6380 H   0  0  0  0  0  0  0  0  0  0  0  0
    3.9759    7.9594   22.0942 H   0  0  0  0  0  0  0  0  0  0  0  0
    4.1301    5.8994   20.9483 H   0  0  0  0  0  0  0  0  0  0  0  0
    5.8313    6.2771   20.5454 H   0  0  0  0  0  0  0  0  0  0  0  0
    5.4124    3.5933   21.1149 H   0  0  0  0  0  0  0  0  0  0  0  0
    5.3639    3.2330   22.8396 H   0  0  0  0  0  0  0  0  0  0  0  0
    7.9221    4.1056   21.3872 H   0  0  0  0  0  0  0  0  0  0  0  0
    7.7734    3.6537   23.0756 H   0  0  0  0  0  0  0  0  0  0  0  0
    7.9634   -0.8935   24.2079 H   0  0  0  0  0  0  0  0  0  0  0  0
    7.9672   -2.2168   23.0329 H   0  0  0  0  0  0  0  0  0  0  0  0
    9.3894   -1.1710   23.2096 H   0  0  0  0  0  0  0  0  0  0  0  0
  1  2  1  0
  2  3  2  3
  3  4  1  0
  4  5  2  0
  5  6  1  0
  6  7  2  0
  7  8  1  0
  8  9  2  0
  9 10  1  0
  7 11  1  0
  6 12  1  0
  5 13  1  0
  3 14  1  0
  2 15  1  0
 15 16  2  0
 15 17  1  0
 17 18  1  0
 18 19  1  0
 19 20  1  0
 20 21  1  0
 21 22  1  0
 22 23  1  0
 23 24  2  0
 24 25  1  0
 25 26  2  0
 26 27  1  0
 27 28  2  0
 27 29  1  0
 26 30  1  0
 25 31  1  0
 24 32  1  0
 22 33  1  0
 22 34  1  0
 21 35  1  0
 21 36  1  0
 19 37  1  0
 19 38  1  0
 18 39  1  0
 18 40  1  0
  1 41  1  0
  1 42  1  0
  1 43  1  0
  9  4  1  0
 28 20  1  0
 28 23  1  0
M  END
>  <plip>  (1) 
-0.0

>  <filename>  (1) 
[H][C](=[C]([C](=[O])[O][C]([H])([H])[C]([H])([H])[N]1[c]2[c]([H])[c]([H])[c]([H])[c]([H])[c]2[C]([H])([H])[C]1([H])[H])[C]([H])([H])[H])[c]1[c]([H])[n][c]([H])[c]([H])[c]1[H]

$$$$
