
     RDKit          3D

 45 47  0  0  0  0  0  0  0  0999 V2000
    4.9871    1.8856   16.9867 H   0  0  0  0  0  0  0  0  0  0  0  0
    5.4448    1.3377   17.8065 C   0  0  0  0  0  0  0  0  0  0  0  0
    6.6049    0.7204   17.5271 N   0  0  0  0  0  0  0  0  0  0  0  0
    7.1943    0.0451   18.5228 C   0  0  0  0  0  0  0  0  0  0  0  0
    8.1391   -0.4450   18.2913 H   0  0  0  0  0  0  0  0  0  0  0  0
    6.6570   -0.0804   19.8200 C   0  0  0  0  0  0  0  0  0  0  0  0
    7.3800   -0.7714   20.8557 N   0  0  0  0  0  0  0  0  0  0  0  0
    6.7872   -1.8848   21.4681 C   0  0  0  0  0  0  0  0  0  0  0  0
    5.6187   -2.1839   21.3154 O   0  0  0  0  0  0  0  0  0  0  0  0
    7.6463   -2.6713   22.2434 N   0  0  0  0  0  0  0  0  0  0  0  0
    7.0662   -3.3187   23.3753 C   0  0  0  0  0  0  0  0  0  0  0  0
    6.8255   -4.6923   23.3310 C   0  0  0  0  0  0  0  0  0  0  0  0
    7.1161   -5.2562   22.4430 H   0  0  0  0  0  0  0  0  0  0  0  0
    6.2562   -5.3683   24.4093 C   0  0  0  0  0  0  0  0  0  0  0  0
    6.0386   -6.4254   24.3462 H   0  0  0  0  0  0  0  0  0  0  0  0
    5.9814   -4.6662   25.5870 C   0  0  0  0  0  0  0  0  0  0  0  0
    5.4948   -5.2266   26.7271 O   0  0  0  0  0  0  0  0  0  0  0  0
    5.5013   -6.6385   26.8216 C   0  0  0  0  0  0  0  0  0  0  0  0
    5.1771   -6.8836   27.8332 H   0  0  0  0  0  0  0  0  0  0  0  0
    6.5113   -7.0365   26.6447 H   0  0  0  0  0  0  0  0  0  0  0  0
    4.8026   -7.0743   26.0938 H   0  0  0  0  0  0  0  0  0  0  0  0
    6.2023   -3.2839   25.6517 C   0  0  0  0  0  0  0  0  0  0  0  0
    6.0082   -2.7707   26.5825 H   0  0  0  0  0  0  0  0  0  0  0  0
    6.7055   -2.5944   24.5495 C   0  0  0  0  0  0  0  0  0  0  0  0
    6.9085   -1.2471   24.5413 O   0  0  0  0  0  0  0  0  0  0  0  0
    6.4471   -0.4598   25.6247 C   0  0  0  0  0  0  0  0  0  0  0  0
    5.3762   -0.6302   25.7987 H   0  0  0  0  0  0  0  0  0  0  0  0
    6.6213    0.5789   25.3279 H   0  0  0  0  0  0  0  0  0  0  0  0
    7.0029   -0.6937   26.5429 H   0  0  0  0  0  0  0  0  0  0  0  0
    9.0031   -3.0564   21.8437 C   0  0  0  0  0  0  0  0  0  0  0  0
    9.0201   -3.3747   20.7920 H   0  0  0  0  0  0  0  0  0  0  0  0
    9.2734   -3.9232   22.4546 H   0  0  0  0  0  0  0  0  0  0  0  0
   10.0580   -1.9759   22.0776 C   0  0  0  0  0  0  0  0  0  0  0  0
   11.0395   -2.3947   21.8135 H   0  0  0  0  0  0  0  0  0  0  0  0
   10.0829   -1.7496   23.1524 H   0  0  0  0  0  0  0  0  0  0  0  0
    9.8362   -0.6954   21.2749 C   0  0  0  0  0  0  0  0  0  0  0  0
    9.9160   -0.9005   20.2007 H   0  0  0  0  0  0  0  0  0  0  0  0
   10.6315    0.0171   21.5210 H   0  0  0  0  0  0  0  0  0  0  0  0
    8.4796   -0.0337   21.5134 C   0  0  0  0  0  0  0  0  0  0  0  0
    8.4871    0.9800   21.0983 H   0  0  0  0  0  0  0  0  0  0  0  0
    8.2763    0.0566   22.5918 H   0  0  0  0  0  0  0  0  0  0  0  0
    5.4478    0.5726   20.0947 C   0  0  0  0  0  0  0  0  0  0  0  0
    5.0061    0.5045   21.0895 H   0  0  0  0  0  0  0  0  0  0  0  0
    4.8327    1.2974   19.0665 C   0  0  0  0  0  0  0  0  0  0  0  0
    3.9021    1.8336   19.2304 H   0  0  0  0  0  0  0  0  0  0  0  0
  1  2  1  0
  2  3  2  0
  3  4  1  0
  4  5  1  0
  4  6  2  0
  6  7  1  0
  7  8  1  0
  8  9  2  0
  8 10  1  0
 10 11  1  0
 11 12  2  0
 12 13  1  0
 12 14  1  0
 14 15  1  0
 14 16  2  0
 16 17  1  0
 17 18  1  0
 18 19  1  0
 18 20  1  0
 18 21  1  0
 16 22  1  0
 22 23  1  0
 22 24  2  0
 24 25  1  0
 25 26  1  0
 26 27  1  0
 26 28  1  0
 26 29  1  0
 10 30  1  0
 30 31  1  0
 30 32  1  0
 30 33  1  0
 33 34  1  0
 33 35  1  0
 33 36  1  0
 36 37  1  0
 36 38  1  0
 36 39  1  0
 39 40  1  0
 39 41  1  0
  6 42  1  0
 42 43  1  0
 42 44  2  0
 44 45  1  0
 44  2  1  0
 39  7  1  0
 24 11  1  0
M  END
>  <plip>  (1) 
-0.10714285714285714

>  <filename>  (1) 
[H][c]1[n][c]([H])[c]([N]2[C](=[O])[N]([c]3[c]([H])[c]([H])[c]([O][C]([H])([H])[H])[c]([H])[c]3[O][C]([H])([H])[H])[C]([H])([H])[C]([H])([H])[C]([H])([H])[C]2([H])[H])[c]([H])[c]1[H]

$$$$
