
     RDKit          3D

 30 32  0  0  0  0  0  0  0  0999 V2000
    4.9120    1.7938   16.9874 H   0  0  0  0  0  0  0  0  0  0  0  0
    5.3943    1.2987   17.8241 C   0  0  0  0  0  0  0  0  0  0  0  0
    6.5579    0.6859   17.5503 N   0  0  0  0  0  0  0  0  0  0  0  0
    7.1697    0.0703   18.5695 C   0  0  0  0  0  0  0  0  0  0  0  0
    8.1182   -0.4129   18.3358 H   0  0  0  0  0  0  0  0  0  0  0  0
    6.6719    0.0100   19.8808 C   0  0  0  0  0  0  0  0  0  0  0  0
    7.4241   -0.7132   20.9638 C   0  0  1  0  0  0  0  0  0  0  0  0
    8.3364   -1.1746   20.5641 H   0  0  0  0  0  0  0  0  0  0  0  0
    7.6686    0.0915   22.2732 C   0  0  0  0  0  0  0  0  0  0  0  0
    7.2648    1.1100   22.2545 H   0  0  0  0  0  0  0  0  0  0  0  0
    8.7106    0.1608   22.5932 H   0  0  0  0  0  0  0  0  0  0  0  0
    6.8179   -0.9285   23.0581 C   0  0  0  0  0  0  0  0  0  0  0  0
    5.9367   -0.4823   23.5175 H   0  0  0  0  0  0  0  0  0  0  0  0
    7.3216   -1.4826   23.8572 H   0  0  0  0  0  0  0  0  0  0  0  0
    6.6038   -1.7630   21.7659 C   0  0  2  0  0  0  0  0  0  0  0  0
    5.5684   -1.8376   21.4167 H   0  0  0  0  0  0  0  0  0  0  0  0
    7.1843   -3.0926   21.7651 N   0  0  0  0  0  0  0  0  0  0  0  0
    8.1110   -3.0227   22.1761 H   0  0  0  0  0  0  0  0  0  0  0  0
    6.4009   -4.0395   22.5096 C   0  0  0  0  0  0  0  0  0  0  0  0
    6.1383   -3.8086   23.5506 H   0  0  0  0  0  0  0  0  0  0  0  0
    6.6344   -5.4747   22.1661 C   0  0  0  0  0  0  0  0  0  0  0  0
    6.5676   -6.2155   22.9567 H   0  0  0  0  0  0  0  0  0  0  0  0
    7.4089   -5.6783   21.4321 H   0  0  0  0  0  0  0  0  0  0  0  0
    5.3817   -4.7835   21.7022 C   0  0  0  0  0  0  0  0  0  0  0  0
    5.3349   -4.5105   20.6535 H   0  0  0  0  0  0  0  0  0  0  0  0
    4.4267   -5.0406   22.1495 H   0  0  0  0  0  0  0  0  0  0  0  0
    5.4493    0.6470   20.1410 C   0  0  0  0  0  0  0  0  0  0  0  0
    5.0143    0.6357   21.1449 H   0  0  0  0  0  0  0  0  0  0  0  0
    4.8076    1.3083   19.0953 C   0  0  0  0  0  0  0  0  0  0  0  0
    3.8779    1.8385   19.2556 H   0  0  0  0  0  0  0  0  0  0  0  0
  1  2  1  0
  2  3  2  0
  3  4  1  0
  4  5  1  0
  4  6  2  0
  6  7  1  0
  7  8  1  6
  7  9  1  0
  9 10  1  0
  9 11  1  0
  9 12  1  0
 12 13  1  0
 12 14  1  0
 12 15  1  0
 15 16  1  6
 15 17  1  0
 17 18  1  0
 17 19  1  0
 19 20  1  0
 19 21  1  0
 21 22  1  0
 21 23  1  0
 21 24  1  0
 24 25  1  0
 24 26  1  0
  6 27  1  0
 27 28  1  0
 27 29  2  0
 29 30  1  0
 29  2  1  0
 15  7  1  0
 24 19  1  0
M  END
>  <plip>  (1) 
-0.034482758620689655

>  <filename>  (1) 
[H][c]1[n][c]([H])[c]([C@@]2([H])[C]([H])([H])[C]([H])([H])[C@]2([H])[N]([H])[C]2([H])[C]([H])([H])[C]2([H])[H])[c]([H])[c]1[H]

$$$$
