
     RDKit          3D

 29 31  0  0  0  0  0  0  0  0999 V2000
    4.9599    1.8044   17.0204 H   0  0  0  0  0  0  0  0  0  0  0  0
    5.4276    1.2772   17.8499 C   0  0  0  0  0  0  0  0  0  0  0  0
    6.5892    0.6540   17.5795 N   0  0  0  0  0  0  0  0  0  0  0  0
    7.1973    0.0151   18.5885 C   0  0  0  0  0  0  0  0  0  0  0  0
    8.1382   -0.4903   18.3780 H   0  0  0  0  0  0  0  0  0  0  0  0
    6.7028   -0.0433   19.9113 C   0  0  0  0  0  0  0  0  0  0  0  0
    7.4087   -0.7849   20.8974 N   0  0  0  0  0  0  0  0  0  0  0  0
    7.5180   -0.3730   22.0979 C   0  0  0  0  0  0  0  0  0  0  0  0
    7.2718    1.0070   22.6401 C   0  0  0  0  0  0  0  0  0  0  0  0
    7.7222    2.1652   21.9166 C   0  0  0  0  0  0  0  0  0  0  0  0
    8.2569    2.0340   20.9768 H   0  0  0  0  0  0  0  0  0  0  0  0
    7.4658    3.4452   22.3723 C   0  0  0  0  0  0  0  0  0  0  0  0
    7.7906    4.3184   21.8150 H   0  0  0  0  0  0  0  0  0  0  0  0
    6.7421    3.5707   23.5802 C   0  0  0  0  0  0  0  0  0  0  0  0
    6.2975    2.4477   24.3163 C   0  0  0  0  0  0  0  0  0  0  0  0
    5.6182    3.0222   25.4369 C   0  0  0  0  0  0  0  0  0  0  0  0
    5.1271    2.5094   26.2551 H   0  0  0  0  0  0  0  0  0  0  0  0
    5.6342    4.3391   25.3922 N   0  0  0  0  0  0  0  0  0  0  0  0
    6.3156    4.6616   24.2697 N   0  0  0  0  0  0  0  0  0  0  0  0
    6.4417    5.6285   24.0097 H   0  0  0  0  0  0  0  0  0  0  0  0
    6.5745    1.1445   23.8336 C   0  0  0  0  0  0  0  0  0  0  0  0
    6.2460    0.2531   24.3643 H   0  0  0  0  0  0  0  0  0  0  0  0
    7.9334   -1.3131   23.0133 N   0  0  0  0  0  0  0  0  0  0  0  0
    8.5029   -0.9129   23.7420 H   0  0  0  0  0  0  0  0  0  0  0  0
    8.3741   -2.0543   22.4819 H   0  0  0  0  0  0  0  0  0  0  0  0
    5.4809    0.6017   20.1625 C   0  0  0  0  0  0  0  0  0  0  0  0
    5.1035    0.6066   21.1838 H   0  0  0  0  0  0  0  0  0  0  0  0
    4.8356    1.2677   19.1155 C   0  0  0  0  0  0  0  0  0  0  0  0
    3.9020    1.7954   19.2755 H   0  0  0  0  0  0  0  0  0  0  0  0
  1  2  1  0
  2  3  2  0
  3  4  1  0
  4  5  1  0
  4  6  2  0
  6  7  1  0
  7  8  2  3
  8  9  1  0
  9 10  2  0
 10 11  1  0
 10 12  1  0
 12 13  1  0
 12 14  2  0
 14 15  1  0
 15 16  1  0
 16 17  1  0
 16 18  2  0
 18 19  1  0
 19 20  1  0
 15 21  2  0
 21 22  1  0
  8 23  1  0
 23 24  1  0
 23 25  1  0
  6 26  1  0
 26 27  1  0
 26 28  2  0
 28 29  1  0
 28  2  1  0
 21  9  1  0
 19 14  1  0
M  END
>  <plip>  (1) 
-0.03571428571428571

>  <filename>  (1) 
[H][c]1[n][c]([H])[c]([N]=[C]([c]2[c]([H])[c]([H])[c]3[c]([c]([H])[n][n]3[H])[c]2[H])[N]([H])[H])[c]([H])[c]1[H]

$$$$
