
     RDKit          3D

 35 36  0  0  0  0  0  0  0  0999 V2000
    5.9893   -4.9985   22.4158 C   0  0  0  0  0  0  0  0  0  0  0  0
    6.4347   -4.2236   23.6163 C   0  0  0  0  0  0  0  0  0  0  0  0
    6.3007   -4.7407   24.8078 N   0  0  0  0  0  0  0  0  0  0  0  0
    6.7847   -3.8044   25.6945 O   0  0  0  0  0  0  0  0  0  0  0  0
    7.1906   -2.7072   25.0356 C   0  0  0  0  0  0  0  0  0  0  0  0
    7.7911   -1.5836   25.8411 C   0  0  0  0  0  0  0  0  0  0  0  0
    7.0124   -1.2562   27.1231 C   0  0  0  0  0  0  0  0  0  0  0  0
    7.5689   -0.5407   27.7361 H   0  0  0  0  0  0  0  0  0  0  0  0
    6.8287   -2.1516   27.7193 H   0  0  0  0  0  0  0  0  0  0  0  0
    6.0408   -0.8151   26.8947 H   0  0  0  0  0  0  0  0  0  0  0  0
    9.2673   -1.8968   26.1358 C   0  0  0  0  0  0  0  0  0  0  0  0
    9.7395   -1.0703   26.6815 H   0  0  0  0  0  0  0  0  0  0  0  0
    9.8254   -2.0328   25.2025 H   0  0  0  0  0  0  0  0  0  0  0  0
    9.3816   -2.8143   26.7271 H   0  0  0  0  0  0  0  0  0  0  0  0
    7.7824   -0.6815   25.2090 H   0  0  0  0  0  0  0  0  0  0  0  0
    7.0296   -2.9137   23.6947 C   0  0  0  0  0  0  0  0  0  0  0  0
    7.4508   -2.0619   22.6336 N   0  0  0  0  0  0  0  0  0  0  0  0
    6.6932   -1.7147   21.5185 C   0  0  0  0  0  0  0  0  0  0  0  0
    5.6664   -2.2537   21.1638 O   0  0  0  0  0  0  0  0  0  0  0  0
    7.3176   -0.6716   20.8472 N   0  0  0  0  0  0  0  0  0  0  0  0
    6.7218    0.0649   19.7795 C   0  0  0  0  0  0  0  0  0  0  0  0
    5.4887    0.6981   19.9888 C   0  0  0  0  0  0  0  0  0  0  0  0
    4.8852    1.3598   18.9138 C   0  0  0  0  0  0  0  0  0  0  0  0
    5.5301    1.3820   17.6750 C   0  0  0  0  0  0  0  0  0  0  0  0
    6.7315    0.8194   17.4646 N   0  0  0  0  0  0  0  0  0  0  0  0
    7.3170    0.2034   18.5015 C   0  0  0  0  0  0  0  0  0  0  0  0
    8.3030   -0.2218   18.3125 H   0  0  0  0  0  0  0  0  0  0  0  0
    5.0641    1.8621   16.8179 H   0  0  0  0  0  0  0  0  0  0  0  0
    3.9297    1.8552   19.0289 H   0  0  0  0  0  0  0  0  0  0  0  0
    5.0370    0.6704   20.9807 H   0  0  0  0  0  0  0  0  0  0  0  0
    8.3089   -0.6003   21.0100 H   0  0  0  0  0  0  0  0  0  0  0  0
    8.0524   -1.2964   22.9018 H   0  0  0  0  0  0  0  0  0  0  0  0
    5.0701   -4.5727   22.0029 H   0  0  0  0  0  0  0  0  0  0  0  0
    6.7461   -4.9448   21.6315 H   0  0  0  0  0  0  0  0  0  0  0  0
    5.8184   -6.0422   22.6898 H   0  0  0  0  0  0  0  0  0  0  0  0
  1  2  1  0
  2  3  2  0
  3  4  1  0
  4  5  1  0
  5  6  1  0
  6  7  1  0
  7  8  1  0
  7  9  1  0
  7 10  1  0
  6 11  1  0
 11 12  1  0
 11 13  1  0
 11 14  1  0
  6 15  1  0
  5 16  2  0
 16 17  1  0
 17 18  1  0
 18 19  2  0
 18 20  1  0
 20 21  1  0
 21 22  2  0
 22 23  1  0
 23 24  2  0
 24 25  1  0
 25 26  2  0
 26 27  1  0
 24 28  1  0
 23 29  1  0
 22 30  1  0
 20 31  1  0
 17 32  1  0
  1 33  1  0
  1 34  1  0
  1 35  1  0
 16  2  1  0
 26 21  1  0
M  END
>  <plip>  (1) 
-0.06896551724137931

>  <filename>  (1) 
[H][c]1[n][c]([H])[c]([N]([H])[C](=[O])[N]([H])[c]2[c]([C]([H])([H])[H])[n][o][c]2[C]([H])([C]([H])([H])[H])[C]([H])([H])[H])[c]([H])[c]1[H]

$$$$
