
     RDKit          3D

 27 29  0  0  0  0  0  0  0  0999 V2000
   10.1716   -4.5987   26.4316 Br  0  0  0  0  0  0  0  0  0  0  0  0
    9.0782   -3.1055   25.9545 C   0  0  0  0  0  0  0  0  0  0  0  0
    8.2464   -2.4745   26.8833 C   0  0  0  0  0  0  0  0  0  0  0  0
    7.4477   -1.3834   26.4978 C   0  0  0  0  0  0  0  0  0  0  0  0
    7.4175   -0.9850   25.1591 C   0  0  0  0  0  0  0  0  0  0  0  0
    8.2227   -1.6273   24.2048 C   0  0  0  0  0  0  0  0  0  0  0  0
    8.1080   -1.3181   22.7709 C   0  0  0  0  0  0  0  0  0  0  0  0
    8.8639   -1.8403   21.8357 N   0  0  0  0  0  0  0  0  0  0  0  0
    8.4204   -1.3943   20.6157 N   0  0  0  0  0  0  0  0  0  0  0  0
    7.3828   -0.6245   20.8230 C   0  0  0  0  0  0  0  0  0  0  0  0
    6.6082    0.0326   19.8066 C   0  0  0  0  0  0  0  0  0  0  0  0
    5.4034    0.6799   20.0844 C   0  0  0  0  0  0  0  0  0  0  0  0
    4.7878    1.3419   19.0289 C   0  0  0  0  0  0  0  0  0  0  0  0
    5.3809    1.3330   17.7588 C   0  0  0  0  0  0  0  0  0  0  0  0
    6.5306    0.6866   17.4995 N   0  0  0  0  0  0  0  0  0  0  0  0
    7.1282    0.0462   18.5135 C   0  0  0  0  0  0  0  0  0  0  0  0
    8.0698   -0.4631   18.3294 H   0  0  0  0  0  0  0  0  0  0  0  0
    4.8982    1.8668   16.9483 H   0  0  0  0  0  0  0  0  0  0  0  0
    3.8641    1.8844   19.1852 H   0  0  0  0  0  0  0  0  0  0  0  0
    4.9723    0.6876   21.0874 H   0  0  0  0  0  0  0  0  0  0  0  0
    7.1612   -0.5267   22.1634 N   0  0  0  0  0  0  0  0  0  0  0  0
    6.4009   -0.0178   22.6065 H   0  0  0  0  0  0  0  0  0  0  0  0
    9.0849   -2.6570   24.6339 C   0  0  0  0  0  0  0  0  0  0  0  0
    9.7254   -3.1677   23.9263 H   0  0  0  0  0  0  0  0  0  0  0  0
    6.7468   -0.1796   24.8648 H   0  0  0  0  0  0  0  0  0  0  0  0
    6.8352   -0.8531   27.2234 H   0  0  0  0  0  0  0  0  0  0  0  0
    8.2116   -2.8691   27.8900 H   0  0  0  0  0  0  0  0  0  0  0  0
  1  2  1  0
  2  3  2  0
  3  4  1  0
  4  5  2  0
  5  6  1  0
  6  7  1  0
  7  8  2  0
  8  9  1  0
  9 10  2  0
 10 11  1  0
 11 12  2  0
 12 13  1  0
 13 14  2  0
 14 15  1  0
 15 16  2  0
 16 17  1  0
 14 18  1  0
 13 19  1  0
 12 20  1  0
 10 21  1  0
 21 22  1  0
  6 23  2  0
 23 24  1  0
  5 25  1  0
  4 26  1  0
  3 27  1  0
 23  2  1  0
 21  7  1  0
 16 11  1  0
M  END
>  <plip>  (1) 
-0.06666666666666667

>  <filename>  (1) 
[H][c]1[n][c]([H])[c](-[c]2[n][n][c](-[c]3[c]([H])[c]([H])[c]([H])[c]([Br])[c]3[H])[n]2[H])[c]([H])[c]1[H]

$$$$
