
     RDKit          3D

 37 39  0  0  0  0  0  0  0  0999 V2000
    5.6245   -1.6324   21.7802 H   0  0  0  0  0  0  0  0  0  0  0  0
    6.6877   -1.5196   21.8427 C   0  0  0  0  0  0  0  0  0  0  0  0
    7.3403   -0.7384   20.9739 C   0  0  0  0  0  0  0  0  0  0  0  0
    6.6890    0.0280   19.8934 C   0  0  0  0  0  0  0  0  0  0  0  0
    7.2143    0.0850   18.5885 C   0  0  0  0  0  0  0  0  0  0  0  0
    8.1585   -0.4075   18.3440 H   0  0  0  0  0  0  0  0  0  0  0  0
    6.6034    0.6997   17.5681 N   0  0  0  0  0  0  0  0  0  0  0  0
    5.4361    1.3166   17.8166 C   0  0  0  0  0  0  0  0  0  0  0  0
    4.9556    1.7968   16.9658 H   0  0  0  0  0  0  0  0  0  0  0  0
    4.8329    1.3374   19.0772 C   0  0  0  0  0  0  0  0  0  0  0  0
    3.8829    1.8395   19.2166 H   0  0  0  0  0  0  0  0  0  0  0  0
    5.4661    0.6825   20.1301 C   0  0  0  0  0  0  0  0  0  0  0  0
    5.0437    0.6821   21.1363 H   0  0  0  0  0  0  0  0  0  0  0  0
    8.7252   -0.6727   21.0737 N   0  0  0  0  0  0  0  0  0  0  0  0
    9.2485    0.0182   20.5700 H   0  0  0  0  0  0  0  0  0  0  0  0
    9.4678   -1.3179   22.0087 C   0  0  0  0  0  0  0  0  0  0  0  0
   11.0926   -1.0384   22.1531 S   0  0  0  0  0  0  0  0  0  0  0  0
    8.8120   -2.1858   22.8060 N   0  0  0  0  0  0  0  0  0  0  0  0
    9.2837   -2.3221   23.6758 H   0  0  0  0  0  0  0  0  0  0  0  0
    7.3681   -2.2463   22.9510 C   0  0  1  0  0  0  0  0  0  0  0  0
    7.0591   -3.3031   22.9485 H   0  0  0  0  0  0  0  0  0  0  0  0
    7.0821   -1.7846   24.3049 N   0  0  0  0  0  0  0  0  0  0  0  0
    6.0970   -2.4439   25.0780 C   0  0  0  0  0  0  0  0  0  0  0  0
    6.2366   -2.4136   26.4747 C   0  0  0  0  0  0  0  0  0  0  0  0
    7.0646   -1.8379   26.8740 H   0  0  0  0  0  0  0  0  0  0  0  0
    5.3629   -3.1229   27.2999 C   0  0  0  0  0  0  0  0  0  0  0  0
    5.5099   -3.1120   28.3771 H   0  0  0  0  0  0  0  0  0  0  0  0
    4.3014   -3.8425   26.7397 C   0  0  0  0  0  0  0  0  0  0  0  0
    3.6240   -4.3993   27.3805 H   0  0  0  0  0  0  0  0  0  0  0  0
    4.1186   -3.8412   25.3533 C   0  0  0  0  0  0  0  0  0  0  0  0
    3.2886   -4.3877   24.9097 H   0  0  0  0  0  0  0  0  0  0  0  0
    5.0113   -3.1546   24.5233 C   0  0  0  0  0  0  0  0  0  0  0  0
    4.8709   -3.1580   23.4482 H   0  0  0  0  0  0  0  0  0  0  0  0
    7.3541   -0.3790   24.6080 C   0  0  0  0  0  0  0  0  0  0  0  0
    6.4286    0.1596   24.8558 H   0  0  0  0  0  0  0  0  0  0  0  0
    8.0516   -0.2538   25.4496 H   0  0  0  0  0  0  0  0  0  0  0  0
    7.8056    0.1072   23.7372 H   0  0  0  0  0  0  0  0  0  0  0  0
  1  2  1  0
  2  3  2  0
  3  4  1  0
  4  5  2  0
  5  6  1  0
  5  7  1  0
  7  8  2  0
  8  9  1  0
  8 10  1  0
 10 11  1  0
 10 12  2  0
 12 13  1  0
  3 14  1  0
 14 15  1  0
 14 16  1  0
 16 17  2  0
 16 18  1  0
 18 19  1  0
 18 20  1  0
 20 21  1  1
 20 22  1  0
 22 23  1  0
 23 24  2  0
 24 25  1  0
 24 26  1  0
 26 27  1  0
 26 28  2  0
 28 29  1  0
 28 30  1  0
 30 31  1  0
 30 32  2  0
 32 33  1  0
 22 34  1  0
 34 35  1  0
 34 36  1  0
 34 37  1  0
 20  2  1  0
 32 23  1  0
 12  4  1  0
M  END
>  <plip>  (1) 
-0.034482758620689655

>  <filename>  (1) 
[H][C]1=[C]([c]2[c]([H])[n][c]([H])[c]([H])[c]2[H])[N]([H])[C](=[S])[N]([H])[C@@]1([H])[N]([c]1[c]([H])[c]([H])[c]([H])[c]([H])[c]1[H])[C]([H])([H])[H]

$$$$
