
     RDKit          3D

 34 36  0  0  0  0  0  0  0  0999 V2000
    5.2612    1.8303   17.0277 H   0  0  0  0  0  0  0  0  0  0  0  0
    5.6456    1.3365   17.9171 C   0  0  0  0  0  0  0  0  0  0  0  0
    6.8673    0.7923   17.8041 N   0  0  0  0  0  0  0  0  0  0  0  0
    7.3680    0.1693   18.8826 C   0  0  0  0  0  0  0  0  0  0  0  0
    8.3698   -0.2460   18.7689 H   0  0  0  0  0  0  0  0  0  0  0  0
    6.6603    0.0220   20.0899 C   0  0  0  0  0  0  0  0  0  0  0  0
    7.1510   -0.8451   21.2295 C   0  0  1  0  0  0  0  0  0  0  0  0
    6.5093   -0.6728   22.1041 H   0  0  0  0  0  0  0  0  0  0  0  0
    7.1110   -2.3788   20.9760 C   0  0  0  0  0  0  0  0  0  0  0  0
    6.2033   -3.0915   20.6401 O   0  0  0  0  0  0  0  0  0  0  0  0
    8.3791   -2.7912   21.2416 N   0  0  0  0  0  0  0  0  0  0  0  0
    8.6539   -3.7470   21.2022 H   0  0  0  0  0  0  0  0  0  0  0  0
    9.2826   -1.8067   21.5616 C   0  0  0  0  0  0  0  0  0  0  0  0
   10.4258   -2.0124   21.8375 O   0  0  0  0  0  0  0  0  0  0  0  0
    8.5658   -0.6285   21.5709 N   0  0  0  0  0  0  0  0  0  0  0  0
    9.2767    0.5762   21.5775 C   0  0  0  0  0  0  0  0  0  0  0  0
   10.3876    0.6582   21.1010 O   0  0  0  0  0  0  0  0  0  0  0  0
    8.6023    1.6506   22.0837 N   0  0  0  0  0  0  0  0  0  0  0  0
    7.5240    1.6894   23.0674 C   0  0  0  0  0  0  0  0  0  0  0  0
    7.5766    0.8709   23.7908 H   0  0  0  0  0  0  0  0  0  0  0  0
    6.5489    1.6504   22.5646 H   0  0  0  0  0  0  0  0  0  0  0  0
    7.7034    3.0720   23.6928 C   0  0  0  0  0  0  0  0  0  0  0  0
    8.5231    3.0521   24.4213 H   0  0  0  0  0  0  0  0  0  0  0  0
    6.7985    3.4197   24.1992 H   0  0  0  0  0  0  0  0  0  0  0  0
    8.0941    3.9222   22.4840 C   0  0  0  0  0  0  0  0  0  0  0  0
    8.5731    4.8730   22.7439 H   0  0  0  0  0  0  0  0  0  0  0  0
    7.2125    4.1331   21.8659 H   0  0  0  0  0  0  0  0  0  0  0  0
    9.0395    3.0025   21.7111 C   0  0  0  0  0  0  0  0  0  0  0  0
   10.0840    3.1597   22.0141 H   0  0  0  0  0  0  0  0  0  0  0  0
    8.9572    3.1200   20.6221 H   0  0  0  0  0  0  0  0  0  0  0  0
    5.4008    0.6231   20.1948 C   0  0  0  0  0  0  0  0  0  0  0  0
    4.8489    0.5846   21.1395 H   0  0  0  0  0  0  0  0  0  0  0  0
    4.8809    1.2980   19.0895 C   0  0  0  0  0  0  0  0  0  0  0  0
    3.9194    1.8000   19.1314 H   0  0  0  0  0  0  0  0  0  0  0  0
  1  2  1  0
  2  3  2  0
  3  4  1  0
  4  5  1  0
  4  6  2  0
  6  7  1  0
  7  8  1  1
  7  9  1  0
  9 10  2  0
  9 11  1  0
 11 12  1  0
 11 13  1  0
 13 14  2  0
 13 15  1  0
 15 16  1  0
 16 17  2  0
 16 18  1  0
 18 19  1  0
 19 20  1  0
 19 21  1  0
 19 22  1  0
 22 23  1  0
 22 24  1  0
 22 25  1  0
 25 26  1  0
 25 27  1  0
 25 28  1  0
 28 29  1  0
 28 30  1  0
  6 31  1  0
 31 32  1  0
 31 33  2  0
 33 34  1  0
 33  2  1  0
 15  7  1  0
 28 18  1  0
M  END
>  <plip>  (1) 
-0.06896551724137931

>  <filename>  (1) 
[H][c]1[n][c]([H])[c]([C@@]2([H])[C](=[O])[N]([H])[C](=[O])[N]2[C](=[O])[N]2[C]([H])([H])[C]([H])([H])[C]([H])([H])[C]2([H])[H])[c]([H])[c]1[H]

$$$$
