
     RDKit          3D

 31 33  0  0  0  0  0  0  0  0999 V2000
    4.9722    1.7879   17.0382 H   0  0  0  0  0  0  0  0  0  0  0  0
    5.4339    1.2708   17.8723 C   0  0  0  0  0  0  0  0  0  0  0  0
    6.6015    0.6569   17.6051 N   0  0  0  0  0  0  0  0  0  0  0  0
    7.1892    0.0080   18.6173 C   0  0  0  0  0  0  0  0  0  0  0  0
    8.1438   -0.4749   18.4099 H   0  0  0  0  0  0  0  0  0  0  0  0
    6.6715   -0.0533   19.9354 C   0  0  0  0  0  0  0  0  0  0  0  0
    7.3580   -0.7946   20.9266 N   0  0  0  0  0  0  0  0  0  0  0  0
    7.5777   -0.3646   22.1125 C   0  0  0  0  0  0  0  0  0  0  0  0
    7.2523    1.0404   22.6979 C   0  0  0  0  0  0  0  0  0  0  0  0
    6.6521    1.1368   23.8731 N   0  0  0  0  0  0  0  0  0  0  0  0
    6.3848    2.3871   24.3635 C   0  0  0  0  0  0  0  0  0  0  0  0
    5.7321    2.4647   25.6247 C   0  0  0  0  0  0  0  0  0  0  0  0
    5.5107    1.5083   26.0827 H   0  0  0  0  0  0  0  0  0  0  0  0
    5.4347    3.6852   26.1863 C   0  0  0  0  0  0  0  0  0  0  0  0
    4.9435    3.7485   27.1575 H   0  0  0  0  0  0  0  0  0  0  0  0
    5.7773    4.8873   25.4998 C   0  0  0  0  0  0  0  0  0  0  0  0
    5.5372    5.8445   25.9530 H   0  0  0  0  0  0  0  0  0  0  0  0
    6.4101    4.8466   24.2751 C   0  0  0  0  0  0  0  0  0  0  0  0
    6.6735    5.7566   23.7399 H   0  0  0  0  0  0  0  0  0  0  0  0
    6.7382    3.5903   23.6798 C   0  0  0  0  0  0  0  0  0  0  0  0
    7.4062    3.4457   22.4315 C   0  0  0  0  0  0  0  0  0  0  0  0
    7.6875    4.3258   21.8605 H   0  0  0  0  0  0  0  0  0  0  0  0
    7.6548    2.1875   21.9447 C   0  0  0  0  0  0  0  0  0  0  0  0
    8.1197    2.0108   20.9837 H   0  0  0  0  0  0  0  0  0  0  0  0
    8.2895   -1.2493   22.8799 N   0  0  0  0  0  0  0  0  0  0  0  0
    8.2273   -1.1580   23.8800 H   0  0  0  0  0  0  0  0  0  0  0  0
    8.2754   -2.1575   22.4369 H   0  0  0  0  0  0  0  0  0  0  0  0
    5.4547    0.5939   20.1855 C   0  0  0  0  0  0  0  0  0  0  0  0
    5.0765    0.5986   21.2095 H   0  0  0  0  0  0  0  0  0  0  0  0
    4.8260    1.2674   19.1317 C   0  0  0  0  0  0  0  0  0  0  0  0
    3.8929    1.8012   19.2799 H   0  0  0  0  0  0  0  0  0  0  0  0
  1  2  1  0
  2  3  2  0
  3  4  1  0
  4  5  1  0
  4  6  2  0
  6  7  1  0
  7  8  2  3
  8  9  1  0
  9 10  2  0
 10 11  1  0
 11 12  2  0
 12 13  1  0
 12 14  1  0
 14 15  1  0
 14 16  2  0
 16 17  1  0
 16 18  1  0
 18 19  1  0
 18 20  2  0
 20 21  1  0
 21 22  1  0
 21 23  2  0
 23 24  1  0
  8 25  1  0
 25 26  1  0
 25 27  1  0
  6 28  1  0
 28 29  1  0
 28 30  2  0
 30 31  1  0
 30  2  1  0
 23  9  1  0
 20 11  1  0
M  END
>  <plip>  (1) 
-0.03571428571428571

>  <filename>  (1) 
[H][c]1[n][c]([H])[c]([N]=[C]([c]2[n][c]3[c]([H])[c]([H])[c]([H])[c]([H])[c]3[c]([H])[c]2[H])[N]([H])[H])[c]([H])[c]1[H]

$$$$
