
     RDKit          3D

 28 30  0  0  0  0  0  0  0  0999 V2000
    4.8047    1.3113   19.1058 C   0  0  0  0  0  0  0  0  0  0  0  0
    5.4034    1.2898   17.8413 C   0  0  0  0  0  0  0  0  0  0  0  0
    6.5661    0.6731   17.5828 N   0  0  0  0  0  0  0  0  0  0  0  0
    7.1656    0.0489   18.6047 C   0  0  0  0  0  0  0  0  0  0  0  0
    6.6490   -0.0072   19.9031 C   0  0  0  0  0  0  0  0  0  0  0  0
    7.3689   -0.7688   20.9829 C   0  0  0  0  0  0  0  0  0  0  0  0
    6.9395   -2.1479   21.0057 N   0  0  0  0  0  0  0  0  0  0  0  0
    7.4101   -3.0752   21.9089 C   0  0  0  0  0  0  0  0  0  0  0  0
    8.3650   -2.7318   22.8580 C   0  0  0  0  0  0  0  0  0  0  0  0
    8.8373   -3.7151   23.7670 C   0  0  0  0  0  0  0  0  0  0  0  0
    9.7685   -3.5960   24.7729 C   0  0  0  0  0  0  0  0  0  0  0  0
    9.9557   -5.0814   25.5486 S   0  0  0  0  0  0  0  0  0  0  0  0
    8.8619   -5.9032   24.6282 N   0  0  0  0  0  0  0  0  0  0  0  0
    8.3477   -5.0638   23.7290 C   0  0  0  0  0  0  0  0  0  0  0  0
    7.3483   -5.4005   22.7302 C   0  0  0  0  0  0  0  0  0  0  0  0
    6.9080   -4.4379   21.8647 C   0  0  0  0  0  0  0  0  0  0  0  0
    6.1577   -4.6849   21.1151 H   0  0  0  0  0  0  0  0  0  0  0  0
    6.9806   -6.4236   22.7115 H   0  0  0  0  0  0  0  0  0  0  0  0
   10.2999   -2.6966   25.0287 H   0  0  0  0  0  0  0  0  0  0  0  0
    8.7662   -1.7299   22.9308 H   0  0  0  0  0  0  0  0  0  0  0  0
    6.2414   -2.4370   20.3457 H   0  0  0  0  0  0  0  0  0  0  0  0
    8.4545   -0.7157   20.8138 H   0  0  0  0  0  0  0  0  0  0  0  0
    7.1705   -0.2868   21.9530 H   0  0  0  0  0  0  0  0  0  0  0  0
    5.4405    0.6491   20.1573 C   0  0  0  0  0  0  0  0  0  0  0  0
    5.0065    0.6322   21.1608 H   0  0  0  0  0  0  0  0  0  0  0  0
    8.1180   -0.4285   18.3768 H   0  0  0  0  0  0  0  0  0  0  0  0
    4.9163    1.7779   16.9984 H   0  0  0  0  0  0  0  0  0  0  0  0
    3.8717    1.8460   19.2596 H   0  0  0  0  0  0  0  0  0  0  0  0
  1  2  2  0
  2  3  1  0
  3  4  2  0
  4  5  1  0
  5  6  1  0
  6  7  1  0
  7  8  1  0
  8  9  2  0
  9 10  1  0
 10 11  2  0
 11 12  1  0
 12 13  1  0
 13 14  2  0
 14 15  1  0
 15 16  2  0
 16 17  1  0
 15 18  1  0
 11 19  1  0
  9 20  1  0
  7 21  1  0
  6 22  1  0
  6 23  1  0
  5 24  2  0
 24 25  1  0
  4 26  1  0
  2 27  1  0
  1 28  1  0
 24  1  1  0
 16  8  1  0
 14 10  1  0
M  END
>  <plip>  (1) 
-0.10714285714285714

>  <filename>  (1) 
[H][c]1[n][c]([H])[c]([C]([H])([H])[N]([H])[c]2[c]([H])[c]([H])[c]3[n][s][c]([H])[c]3[c]2[H])[c]([H])[c]1[H]

$$$$
