
     RDKit          3D

 39 41  0  0  0  0  0  0  0  0999 V2000
    3.7264    6.7122   23.0967 H   0  0  0  0  0  0  0  0  0  0  0  0
    3.2496    5.9532   23.4609 O   0  0  0  0  0  0  0  0  0  0  0  0
    3.9781    4.7745   23.1596 C   0  0  0  0  0  0  0  0  0  0  0  0
    3.3041    3.9384   23.3818 H   0  0  0  0  0  0  0  0  0  0  0  0
    4.2332    4.7113   22.0888 H   0  0  0  0  0  0  0  0  0  0  0  0
    5.2608    4.6226   24.0046 C   0  0  0  0  0  0  0  0  0  0  0  0
    4.9861    4.6518   25.0689 H   0  0  0  0  0  0  0  0  0  0  0  0
    5.9102    5.4951   23.8317 H   0  0  0  0  0  0  0  0  0  0  0  0
    6.0484    3.4164   23.7627 N   0  0  0  0  0  0  0  0  0  0  0  0
    6.6128    3.3139   22.4059 C   0  0  0  0  0  0  0  0  0  0  0  0
    7.1134    4.2589   22.1555 H   0  0  0  0  0  0  0  0  0  0  0  0
    5.8357    3.1241   21.6368 H   0  0  0  0  0  0  0  0  0  0  0  0
    7.6162    2.1577   22.3242 C   0  0  0  0  0  0  0  0  0  0  0  0
    8.5065    2.3890   22.9340 H   0  0  0  0  0  0  0  0  0  0  0  0
    7.9309    2.0208   21.2834 H   0  0  0  0  0  0  0  0  0  0  0  0
    6.9769    0.9180   22.7752 N   0  0  0  0  0  0  0  0  0  0  0  0
    7.5085   -0.2928   22.3367 C   0  0  0  0  0  0  0  0  0  0  0  0
    7.4111   -0.6780   21.0146 C   0  0  0  0  0  0  0  0  0  0  0  0
    6.6861    0.0130   19.9146 C   0  0  0  0  0  0  0  0  0  0  0  0
    7.1753    0.0572   18.5860 C   0  0  0  0  0  0  0  0  0  0  0  0
    8.1214   -0.4201   18.3410 H   0  0  0  0  0  0  0  0  0  0  0  0
    6.5599    0.6745   17.5694 N   0  0  0  0  0  0  0  0  0  0  0  0
    5.3998    1.2979   17.8342 C   0  0  0  0  0  0  0  0  0  0  0  0
    4.9285    1.8020   16.9928 H   0  0  0  0  0  0  0  0  0  0  0  0
    4.8093    1.3144   19.1014 C   0  0  0  0  0  0  0  0  0  0  0  0
    3.8686    1.8384   19.2453 H   0  0  0  0  0  0  0  0  0  0  0  0
    5.4613    0.6649   20.1537 C   0  0  0  0  0  0  0  0  0  0  0  0
    5.0327    0.6440   21.1541 H   0  0  0  0  0  0  0  0  0  0  0  0
    8.1839   -2.1931   20.8046 S   0  0  0  0  0  0  0  0  0  0  0  0
    8.6288   -2.3192   22.4452 C   0  0  0  0  0  0  0  0  0  0  0  0
    9.1745   -3.2033   22.7551 H   0  0  0  0  0  0  0  0  0  0  0  0
    8.2062   -1.2402   23.1585 C   0  0  0  0  0  0  0  0  0  0  0  0
    8.3700   -1.0673   24.2173 H   0  0  0  0  0  0  0  0  0  0  0  0
    6.3699    0.9943   24.0953 C   0  0  0  0  0  0  0  0  0  0  0  0
    7.1217    1.1254   24.8937 H   0  0  0  0  0  0  0  0  0  0  0  0
    5.8335    0.0536   24.2640 H   0  0  0  0  0  0  0  0  0  0  0  0
    5.3771    2.1610   24.1278 C   0  0  0  0  0  0  0  0  0  0  0  0
    4.9562    2.2541   25.1367 H   0  0  0  0  0  0  0  0  0  0  0  0
    4.5505    1.9150   23.4289 H   0  0  0  0  0  0  0  0  0  0  0  0
  1  2  1  0
  2  3  1  0
  3  4  1  0
  3  5  1  0
  3  6  1  0
  6  7  1  0
  6  8  1  0
  6  9  1  0
  9 10  1  0
 10 11  1  0
 10 12  1  0
 10 13  1  0
 13 14  1  0
 13 15  1  0
 13 16  1  0
 16 17  1  0
 17 18  2  0
 18 19  1  0
 19 20  2  0
 20 21  1  0
 20 22  1  0
 22 23  2  0
 23 24  1  0
 23 25  1  0
 25 26  1  0
 25 27  2  0
 27 28  1  0
 18 29  1  0
 29 30  1  0
 30 31  1  0
 30 32  2  0
 32 33  1  0
 16 34  1  0
 34 35  1  0
 34 36  1  0
 34 37  1  0
 37 38  1  0
 37 39  1  0
 37  9  1  0
 32 17  1  0
 27 19  1  0
M  END
>  <plip>  (1) 
-0.03571428571428571

>  <filename>  (1) 
[H][O][C]([H])([H])[C]([H])([H])[N]1[C]([H])([H])[C]([H])([H])[N]([c]2[c](-[c]3[c]([H])[n][c]([H])[c]([H])[c]3[H])[s][c]([H])[c]2[H])[C]([H])([H])[C]1([H])[H]

$$$$
