
     RDKit          3D

 31 32  0  0  0  0  0  0  0  0999 V2000
    4.9430    1.7944   16.9872 H   0  0  0  0  0  0  0  0  0  0  0  0
    5.4026    1.2887   17.8359 C   0  0  0  0  0  0  0  0  0  0  0  0
    6.5642    0.6624   17.5940 N   0  0  0  0  0  0  0  0  0  0  0  0
    7.1685    0.0509   18.6223 C   0  0  0  0  0  0  0  0  0  0  0  0
    8.1199   -0.4099   18.3607 H   0  0  0  0  0  0  0  0  0  0  0  0
    6.6637    0.0075   19.9429 C   0  0  0  0  0  0  0  0  0  0  0  0
    7.3921   -0.6804   21.0335 C   0  0  0  0  0  0  0  0  0  0  0  0
    7.0637   -0.3841   22.7252 S   0  0  0  0  0  0  0  0  0  0  0  0
    8.2534   -1.5928   23.2247 C   0  0  0  0  0  0  0  0  0  0  0  0
    8.5985   -1.9270   24.4737 O   0  0  0  0  0  0  0  0  0  0  0  0
    8.0213   -1.3229   25.6743 C   0  0  0  0  0  0  0  0  0  0  0  0
    8.3535    0.1686   25.7381 C   0  0  0  0  0  0  0  0  0  0  0  0
    9.4268    0.3221   25.5788 H   0  0  0  0  0  0  0  0  0  0  0  0
    7.8010    0.7498   24.9948 H   0  0  0  0  0  0  0  0  0  0  0  0
    8.0918    0.5414   26.7340 H   0  0  0  0  0  0  0  0  0  0  0  0
    8.7291   -2.0531   26.8124 C   0  0  0  0  0  0  0  0  0  0  0  0
    8.3452   -1.6892   27.7703 H   0  0  0  0  0  0  0  0  0  0  0  0
    8.5680   -3.1358   26.7486 H   0  0  0  0  0  0  0  0  0  0  0  0
    9.7956   -1.8413   26.7807 H   0  0  0  0  0  0  0  0  0  0  0  0
    6.5227   -1.6039   25.7509 C   0  0  0  0  0  0  0  0  0  0  0  0
    5.9495   -1.0417   25.0085 H   0  0  0  0  0  0  0  0  0  0  0  0
    6.3406   -2.6748   25.6078 H   0  0  0  0  0  0  0  0  0  0  0  0
    6.1761   -1.3167   26.7489 H   0  0  0  0  0  0  0  0  0  0  0  0
    8.8417   -2.1662   22.1382 C   0  0  0  0  0  0  0  0  0  0  0  0
    9.5873   -2.9393   22.2709 H   0  0  0  0  0  0  0  0  0  0  0  0
    8.3765   -1.6203   20.9067 C   0  0  0  0  0  0  0  0  0  0  0  0
    8.7864   -1.8740   19.9451 H   0  0  0  0  0  0  0  0  0  0  0  0
    5.4329    0.6581   20.1581 C   0  0  0  0  0  0  0  0  0  0  0  0
    4.9861    0.6535   21.1522 H   0  0  0  0  0  0  0  0  0  0  0  0
    4.8001    1.3094   19.0972 C   0  0  0  0  0  0  0  0  0  0  0  0
    3.8674    1.8431   19.2391 H   0  0  0  0  0  0  0  0  0  0  0  0
  1  2  1  0
  2  3  2  0
  3  4  1  0
  4  5  1  0
  4  6  2  0
  6  7  1  0
  7  8  1  0
  8  9  1  0
  9 10  1  0
 10 11  1  0
 11 12  1  0
 12 13  1  0
 12 14  1  0
 12 15  1  0
 11 16  1  0
 16 17  1  0
 16 18  1  0
 16 19  1  0
 11 20  1  0
 20 21  1  0
 20 22  1  0
 20 23  1  0
  9 24  2  0
 24 25  1  0
 24 26  1  0
 26 27  1  0
  6 28  1  0
 28 29  1  0
 28 30  2  0
 30 31  1  0
 30  2  1  0
 26  7  2  0
M  END
>  <plip>  (1) 
-0.0

>  <filename>  (1) 
[H][c]1[n][c]([H])[c](-[c]2[s][c]([O][C]([C]([H])([H])[H])([C]([H])([H])[H])[C]([H])([H])[H])[c]([H])[c]2[H])[c]([H])[c]1[H]

$$$$
