
     RDKit          3D

 40 42  0  0  0  0  0  0  0  0999 V2000
    9.5766   -0.6123   27.2618 C   0  0  0  0  0  0  0  0  0  0  0  0
    9.2680   -1.5528   26.1213 C   0  0  0  0  0  0  0  0  0  0  0  0
   10.0349   -1.4606   24.9270 C   0  0  0  0  0  0  0  0  0  0  0  0
    9.7827   -2.2735   23.8194 C   0  0  0  0  0  0  0  0  0  0  0  0
    8.7398   -3.1851   23.9308 C   0  0  0  0  0  0  0  0  0  0  0  0
    8.1630   -4.0254   23.0092 N   0  0  0  0  0  0  0  0  0  0  0  0
    7.0142   -4.5025   23.6133 C   0  0  0  0  0  0  0  0  0  0  0  0
    5.6984   -5.1540   22.6102 S   0  0  0  0  0  0  0  0  0  0  0  0
    4.8591   -3.5522   22.2666 C   0  0  0  0  0  0  0  0  0  0  0  0
    5.6844   -2.5579   21.4172 C   0  0  0  0  0  0  0  0  0  0  0  0
    5.6862   -2.6972   20.1925 O   0  0  0  0  0  0  0  0  0  0  0  0
    6.3262   -1.6467   22.1244 N   0  0  0  0  0  0  0  0  0  0  0  0
    7.5090   -1.0005   21.1858 S   0  0  0  0  0  0  0  0  0  0  0  0
    8.5197   -1.9356   20.6913 O   0  0  0  0  0  0  0  0  0  0  0  0
    8.1598    0.2850   22.2225 C   0  0  0  0  0  0  0  0  0  0  0  0
    7.3322    0.9266   22.5401 H   0  0  0  0  0  0  0  0  0  0  0  0
    8.5966   -0.2145   23.0817 H   0  0  0  0  0  0  0  0  0  0  0  0
    8.9165    0.8365   21.6644 H   0  0  0  0  0  0  0  0  0  0  0  0
    6.6214   -0.1728   19.9661 C   0  0  0  0  0  0  0  0  0  0  0  0
    5.4265    0.5108   20.2189 C   0  0  0  0  0  0  0  0  0  0  0  0
    4.8926    1.2205   19.1508 C   0  0  0  0  0  0  0  0  0  0  0  0
    5.5514    1.1975   17.9162 C   0  0  0  0  0  0  0  0  0  0  0  0
    6.6732    0.4992   17.6890 N   0  0  0  0  0  0  0  0  0  0  0  0
    7.1917   -0.1909   18.7027 C   0  0  0  0  0  0  0  0  0  0  0  0
    8.0960   -0.7575   18.4866 H   0  0  0  0  0  0  0  0  0  0  0  0
    5.1574    1.7559   17.0710 H   0  0  0  0  0  0  0  0  0  0  0  0
    3.9811    1.7960   19.2566 H   0  0  0  0  0  0  0  0  0  0  0  0
    4.9056    0.4864   21.1827 H   0  0  0  0  0  0  0  0  0  0  0  0
    4.6238   -3.0575   23.2098 H   0  0  0  0  0  0  0  0  0  0  0  0
    3.9491   -3.7974   21.7259 H   0  0  0  0  0  0  0  0  0  0  0  0
    6.9015   -4.1727   24.8693 N   0  0  0  0  0  0  0  0  0  0  0  0
    7.9618   -3.3085   25.0964 C   0  0  0  0  0  0  0  0  0  0  0  0
    8.2262   -2.4873   26.2026 C   0  0  0  0  0  0  0  0  0  0  0  0
    7.5895   -2.5672   27.0774 H   0  0  0  0  0  0  0  0  0  0  0  0
    8.3055   -3.8917   22.0176 H   0  0  0  0  0  0  0  0  0  0  0  0
   10.2993   -2.1487   22.8710 H   0  0  0  0  0  0  0  0  0  0  0  0
   10.8270   -0.7222   24.8696 H   0  0  0  0  0  0  0  0  0  0  0  0
   10.3555    0.1025   26.9731 H   0  0  0  0  0  0  0  0  0  0  0  0
    8.6958   -0.0302   27.5621 H   0  0  0  0  0  0  0  0  0  0  0  0
    9.9449   -1.1385   28.1513 H   0  0  0  0  0  0  0  0  0  0  0  0
  1  2  1  0
  2  3  2  0
  3  4  1  0
  4  5  2  0
  5  6  1  0
  6  7  1  0
  7  8  1  0
  8  9  1  0
  9 10  1  0
 10 11  2  0
 10 12  1  0
 12 13  2  0
 13 14  2  0
 13 15  1  0
 15 16  1  0
 15 17  1  0
 15 18  1  0
 13 19  1  0
 19 20  2  0
 20 21  1  0
 21 22  2  0
 22 23  1  0
 23 24  2  0
 24 25  1  0
 22 26  1  0
 21 27  1  0
 20 28  1  0
  9 29  1  0
  9 30  1  0
  7 31  2  0
 31 32  1  0
 32 33  2  0
 33 34  1  0
  6 35  1  0
  4 36  1  0
  3 37  1  0
  1 38  1  0
  1 39  1  0
  1 40  1  0
 33  2  1  0
 32  5  1  0
 24 19  1  0
M  END
>  <plip>  (1) 
-0.06666666666666667

>  <filename>  (1) 
[H][c]1[n][c]([H])[c]([S](=[O])(=[N][C](=[O])[C]([H])([H])[S][c]2[n][c]3[c]([H])[c]([C]([H])([H])[H])[c]([H])[c]([H])[c]3[n]2[H])[C]([H])([H])[H])[c]([H])[c]1[H]

$$$$
