
     RDKit          3D

 43 45  0  0  0  0  0  0  0  0999 V2000
   11.8818    1.9110   22.6776 Cl  0  0  0  0  0  0  0  0  0  0  0  0
   10.4440    2.8944   22.4912 C   0  0  0  0  0  0  0  0  0  0  0  0
   10.5341    4.2199   22.9307 C   0  0  0  0  0  0  0  0  0  0  0  0
    9.4433    5.0730   22.7590 C   0  0  0  0  0  0  0  0  0  0  0  0
    8.2765    4.6010   22.1463 C   0  0  0  0  0  0  0  0  0  0  0  0
    8.1964    3.2652   21.7421 C   0  0  0  0  0  0  0  0  0  0  0  0
    9.2708    2.3751   21.9088 C   0  0  0  0  0  0  0  0  0  0  0  0
    9.1489    0.9540   21.3990 C   0  0  0  0  0  0  0  0  0  0  0  0
    7.9532    0.1921   21.9871 N   0  0  0  0  0  4  0  0  0  0  0  0
    7.3662   -0.7507   20.9728 C   0  0  0  0  0  0  0  0  0  0  0  0
    6.6562    0.0152   19.8984 C   0  0  0  0  0  0  0  0  0  0  0  0
    5.4447    0.6685   20.1581 C   0  0  0  0  0  0  0  0  0  0  0  0
    4.8052    1.3200   19.1032 C   0  0  0  0  0  0  0  0  0  0  0  0
    5.3985    1.2977   17.8349 C   0  0  0  0  0  0  0  0  0  0  0  0
    6.5583    0.6834   17.5695 N   0  0  0  0  0  0  0  0  0  0  0  0
    7.1694    0.0726   18.5928 C   0  0  0  0  0  0  0  0  0  0  0  0
    8.1159   -0.4214   18.3650 H   0  0  0  0  0  0  0  0  0  0  0  0
    4.9171    1.7873   16.9917 H   0  0  0  0  0  0  0  0  0  0  0  0
    3.8727    1.8464   19.2516 H   0  0  0  0  0  0  0  0  0  0  0  0
    5.0081    0.6394   21.1632 H   0  0  0  0  0  0  0  0  0  0  0  0
    6.6647   -1.4234   21.4817 H   0  0  0  0  0  0  0  0  0  0  0  0
    8.1764   -1.3676   20.5553 H   0  0  0  0  0  0  0  0  0  0  0  0
    8.2978   -0.5109   23.2850 C   0  0  0  0  0  0  0  0  0  0  0  0
    8.8732    0.4110   24.3531 C   0  0  0  0  0  0  0  0  0  0  0  0
    8.6131   -0.3173   25.6809 C   0  0  0  0  0  0  0  0  0  0  0  0
    7.3074   -1.1241   25.4713 C   0  0  0  0  0  0  0  0  0  0  0  0
    7.0784   -1.1761   23.9405 C   0  0  0  0  0  0  0  0  0  0  0  0
    6.9396   -2.1966   23.5687 H   0  0  0  0  0  0  0  0  0  0  0  0
    6.1809   -0.6141   23.6632 H   0  0  0  0  0  0  0  0  0  0  0  0
    6.4578   -0.6420   25.9674 H   0  0  0  0  0  0  0  0  0  0  0  0
    7.3909   -2.1286   25.8993 H   0  0  0  0  0  0  0  0  0  0  0  0
    9.4479   -0.9936   25.9067 H   0  0  0  0  0  0  0  0  0  0  0  0
    8.5434    0.3791   26.5231 H   0  0  0  0  0  0  0  0  0  0  0  0
    8.3494    1.3714   24.3058 H   0  0  0  0  0  0  0  0  0  0  0  0
    9.9347    0.6132   24.1834 H   0  0  0  0  0  0  0  0  0  0  0  0
    9.0431   -1.2804   23.0501 H   0  0  0  0  0  0  0  0  0  0  0  0
    7.2430    0.9202   22.2215 H   0  0  0  0  0  0  0  0  0  0  0  0
    9.0189    0.9862   20.3155 H   0  0  0  0  0  0  0  0  0  0  0  0
   10.0549    0.3857   21.6144 H   0  0  0  0  0  0  0  0  0  0  0  0
    7.2999    2.9096   21.2313 H   0  0  0  0  0  0  0  0  0  0  0  0
    7.4420    5.2742   21.9661 H   0  0  0  0  0  0  0  0  0  0  0  0
    9.5191    6.1095   23.0735 H   0  0  0  0  0  0  0  0  0  0  0  0
   11.4656    4.5612   23.3741 H   0  0  0  0  0  0  0  0  0  0  0  0
  1  2  1  0
  2  3  2  0
  3  4  1  0
  4  5  2  0
  5  6  1  0
  6  7  2  0
  7  8  1  0
  8  9  1  0
  9 10  1  0
 10 11  1  0
 11 12  2  0
 12 13  1  0
 13 14  2  0
 14 15  1  0
 15 16  2  0
 16 17  1  0
 14 18  1  0
 13 19  1  0
 12 20  1  0
 10 21  1  0
 10 22  1  0
  9 23  1  0
 23 24  1  0
 24 25  1  0
 25 26  1  0
 26 27  1  0
 27 28  1  0
 27 29  1  0
 26 30  1  0
 26 31  1  0
 25 32  1  0
 25 33  1  0
 24 34  1  0
 24 35  1  0
 23 36  1  0
  9 37  1  0
  8 38  1  0
  8 39  1  0
  6 40  1  0
  5 41  1  0
  4 42  1  0
  3 43  1  0
  7  2  1  0
 16 11  1  0
 27 23  1  0
M  CHG  1   9   1
M  END
>  <plip>  (1) 
-0.03571428571428571

>  <filename>  (1) 
[H][c]1[n][c]([H])[c]([C]([H])([H])[N+]([H])([C]([H])([H])[c]2[c]([H])[c]([H])[c]([H])[c]([H])[c]2[Cl])[C]2([H])[C]([H])([H])[C]([H])([H])[C]([H])([H])[C]2([H])[H])[c]([H])[c]1[H]

$$$$
