
     RDKit          3D

 26 27  0  0  0  0  0  0  0  0999 V2000
    4.9264   -2.0521   26.4696 H   0  0  0  0  0  0  0  0  0  0  0  0
    4.8452   -2.6638   25.5711 C   0  0  0  0  0  0  0  0  0  0  0  0
    4.1288   -3.4839   25.6412 H   0  0  0  0  0  0  0  0  0  0  0  0
    5.5748   -2.3983   24.4902 C   0  0  0  0  0  0  0  0  0  0  0  0
    6.2391   -1.5265   24.4874 H   0  0  0  0  0  0  0  0  0  0  0  0
    5.5821   -3.1659   23.1771 C   0  0  0  0  0  0  0  0  0  0  0  0
    6.3625   -3.9399   23.1828 H   0  0  0  0  0  0  0  0  0  0  0  0
    4.6205   -3.6477   22.9849 H   0  0  0  0  0  0  0  0  0  0  0  0
    5.8126   -2.3100   22.0390 O   0  0  0  0  0  0  0  0  0  0  0  0
    7.0529   -1.7967   21.9630 C   0  0  0  0  0  0  0  0  0  0  0  0
    8.1890   -1.9767   22.7202 C   0  0  0  0  0  0  0  0  0  0  0  0
    8.3201   -2.5583   23.6211 H   0  0  0  0  0  0  0  0  0  0  0  0
    9.2301   -1.2397   22.2085 N   0  0  0  0  0  0  0  0  0  0  0  0
    8.7313   -0.6174   21.1808 C   0  0  0  0  0  0  0  0  0  0  0  0
    9.2173    0.0961   20.5243 H   0  0  0  0  0  0  0  0  0  0  0  0
    7.4009   -0.9174   20.9562 N   0  0  0  0  0  0  0  0  0  0  0  0
    6.6288   -0.2675   19.9425 C   0  0  0  0  0  0  0  0  0  0  0  0
    7.1434   -0.1846   18.6322 C   0  0  0  0  0  0  0  0  0  0  0  0
    8.0740   -0.6969   18.3925 H   0  0  0  0  0  0  0  0  0  0  0  0
    6.5801    0.5293   17.6541 N   0  0  0  0  0  0  0  0  0  0  0  0
    5.4612    1.2084   17.9509 C   0  0  0  0  0  0  0  0  0  0  0  0
    5.0407    1.8010   17.1413 H   0  0  0  0  0  0  0  0  0  0  0  0
    4.8583    1.1791   19.2148 C   0  0  0  0  0  0  0  0  0  0  0  0
    3.9673    1.7708   19.3934 H   0  0  0  0  0  0  0  0  0  0  0  0
    5.4445    0.4156   20.2339 C   0  0  0  0  0  0  0  0  0  0  0  0
    5.0258    0.3728   21.2397 H   0  0  0  0  0  0  0  0  0  0  0  0
  1  2  1  0
  2  3  1  0
  2  4  2  3
  4  5  1  0
  4  6  1  0
  6  7  1  0
  6  8  1  0
  6  9  1  0
  9 10  1  0
 10 11  2  0
 11 12  1  0
 11 13  1  0
 13 14  2  0
 14 15  1  0
 14 16  1  0
 16 17  1  0
 17 18  2  0
 18 19  1  0
 18 20  1  0
 20 21  2  0
 21 22  1  0
 21 23  1  0
 23 24  1  0
 23 25  2  0
 25 26  1  0
 16 10  1  0
 25 17  1  0
M  END
>  <plip>  (1) 
-0.07142857142857142

>  <filename>  (1) 
[H][C]([H])=[C]([H])[C]([H])([H])[O][c]1[c]([H])[n][c]([H])[n]1-[c]1[c]([H])[n][c]([H])[c]([H])[c]1[H]

$$$$
