
     RDKit          3D

 31 33  0  0  0  0  0  0  0  0999 V2000
    5.0038    1.7671   17.0204 H   0  0  0  0  0  0  0  0  0  0  0  0
    5.4718    1.2499   17.8548 C   0  0  0  0  0  0  0  0  0  0  0  0
    6.6307    0.6198   17.5930 N   0  0  0  0  0  0  0  0  0  0  0  0
    7.2415    0.0000   18.6099 C   0  0  0  0  0  0  0  0  0  0  0  0
    8.1765   -0.5087   18.3770 H   0  0  0  0  0  0  0  0  0  0  0  0
    6.7468   -0.0325   19.9450 C   0  0  0  0  0  0  0  0  0  0  0  0
    7.4164   -0.6405   20.9691 N   0  0  0  0  0  0  0  0  0  0  0  0
    8.7045   -1.2958   21.0380 C   0  0  0  0  0  0  0  0  0  0  0  0
    9.5568   -0.6271   20.8494 H   0  0  0  0  0  0  0  0  0  0  0  0
    8.7895   -2.1661   20.3826 H   0  0  0  0  0  0  0  0  0  0  0  0
    8.3807   -1.6222   22.5232 C   0  0  0  0  0  0  0  0  0  0  0  0
    9.0580   -1.1783   23.2548 H   0  0  0  0  0  0  0  0  0  0  0  0
    8.1672   -3.1033   22.8010 C   0  0  0  0  0  0  0  0  0  0  0  0
    8.4495   -3.9621   21.9925 O   0  0  0  0  0  0  0  0  0  0  0  0
    7.5078   -3.4627   24.1843 C   0  0  0  0  0  0  0  0  0  0  0  0
    7.6950   -2.7457   25.1538 O   0  0  0  0  0  0  0  0  0  0  0  0
    6.6308   -4.6549   24.2757 C   0  0  0  0  0  0  0  0  0  0  0  0
    5.9649   -5.0735   25.8204 S   0  0  0  0  0  0  0  0  0  0  0  0
    5.0769   -6.3748   25.1439 C   0  0  0  0  0  0  0  0  0  0  0  0
    4.4265   -6.9745   25.7711 H   0  0  0  0  0  0  0  0  0  0  0  0
    5.2822   -6.4819   23.7974 C   0  0  0  0  0  0  0  0  0  0  0  0
    4.8185   -7.2390   23.1756 H   0  0  0  0  0  0  0  0  0  0  0  0
    6.1786   -5.5022   23.2938 C   0  0  0  0  0  0  0  0  0  0  0  0
    6.4733   -5.4551   22.2501 H   0  0  0  0  0  0  0  0  0  0  0  0
    7.0542   -0.8138   22.3548 C   0  0  0  0  0  0  0  0  0  0  0  0
    6.9841    0.1299   22.9157 H   0  0  0  0  0  0  0  0  0  0  0  0
    6.1296   -1.3831   22.5108 H   0  0  0  0  0  0  0  0  0  0  0  0
    5.5126    0.6065   20.1830 C   0  0  0  0  0  0  0  0  0  0  0  0
    5.0900    0.5935   21.1876 H   0  0  0  0  0  0  0  0  0  0  0  0
    4.8775    1.2551   19.1234 C   0  0  0  0  0  0  0  0  0  0  0  0
    3.9378    1.7767   19.2763 H   0  0  0  0  0  0  0  0  0  0  0  0
  1  2  1  0
  2  3  2  0
  3  4  1  0
  4  5  1  0
  4  6  2  0
  6  7  1  0
  7  8  1  0
  8  9  1  0
  8 10  1  0
  8 11  1  0
 11 12  1  0
 11 13  1  0
 13 14  2  0
 13 15  1  0
 15 16  2  0
 15 17  1  0
 17 18  1  0
 18 19  1  0
 19 20  1  0
 19 21  2  0
 21 22  1  0
 21 23  1  0
 23 24  1  0
 11 25  1  0
 25 26  1  0
 25 27  1  0
  6 28  1  0
 28 29  1  0
 28 30  2  0
 30 31  1  0
 30  2  1  0
 25  7  1  0
 23 17  2  0
M  END
>  <plip>  (1) 
-0.06896551724137931

>  <filename>  (1) 
[H][c]1[n][c]([H])[c]([N]2[C]([H])([H])[C]([H])([C](=[O])[C](=[O])[c]3[s][c]([H])[c]([H])[c]3[H])[C]2([H])[H])[c]([H])[c]1[H]

$$$$
