
     RDKit          3D

 45 47  0  0  0  0  0  0  0  0999 V2000
   11.1235    4.6143   22.6320 C   0  0  0  0  0  0  0  0  0  0  0  0
   11.8227    3.3533   22.1237 C   0  0  0  0  0  0  0  0  0  0  0  0
   13.0961    3.7861   21.7019 F   0  0  0  0  0  0  0  0  0  0  0  0
   11.2273    2.6542   20.8652 C   0  0  0  0  0  0  0  0  0  0  0  0
    9.8785    2.1096   21.0400 N   0  0  0  0  0  0  0  0  0  0  0  0
    9.6488    0.7748   21.2779 C   0  0  0  0  0  0  0  0  0  0  0  0
   10.4942   -0.0776   21.0630 O   0  0  0  0  0  0  0  0  0  0  0  0
    8.2982    0.3989   21.8494 C   0  0  2  0  0  0  0  0  0  0  0  0
    8.3616   -0.3602   23.1897 C   0  0  0  0  0  0  0  0  0  0  0  0
    7.0165   -1.0965   23.1972 C   0  0  0  0  0  0  0  0  0  0  0  0
    6.6468   -1.2684   21.8346 O   0  0  0  0  0  0  0  0  0  0  0  0
    7.5297   -0.5973   20.9552 C   0  0  1  0  0  0  0  0  0  0  0  0
    6.7359    0.0445   19.8424 C   0  0  0  0  0  0  0  0  0  0  0  0
    5.4896    0.6532   20.0662 C   0  0  0  0  0  0  0  0  0  0  0  0
    4.8593    1.3012   19.0053 C   0  0  0  0  0  0  0  0  0  0  0  0
    5.4857    1.3096   17.7528 C   0  0  0  0  0  0  0  0  0  0  0  0
    6.6538    0.6965   17.5110 N   0  0  0  0  0  0  0  0  0  0  0  0
    7.2453    0.0768   18.5409 C   0  0  0  0  0  0  0  0  0  0  0  0
    8.1807   -0.4394   18.3128 H   0  0  0  0  0  0  0  0  0  0  0  0
    5.0256    1.8156   16.9042 H   0  0  0  0  0  0  0  0  0  0  0  0
    3.9076    1.8072   19.1322 H   0  0  0  0  0  0  0  0  0  0  0  0
    5.0193    0.5988   21.0504 H   0  0  0  0  0  0  0  0  0  0  0  0
    8.2208   -1.3377   20.5224 H   0  0  0  0  0  0  0  0  0  0  0  0
    7.0564   -2.0864   23.6657 H   0  0  0  0  0  0  0  0  0  0  0  0
    6.2420   -0.5129   23.7132 H   0  0  0  0  0  0  0  0  0  0  0  0
    8.4948    0.3040   24.0538 H   0  0  0  0  0  0  0  0  0  0  0  0
    9.1942   -1.0778   23.1701 H   0  0  0  0  0  0  0  0  0  0  0  0
    7.6737    1.2894   21.9726 H   0  0  0  0  0  0  0  0  0  0  0  0
    9.1324    2.7386   21.2912 H   0  0  0  0  0  0  0  0  0  0  0  0
   11.3066    3.3147   20.0002 H   0  0  0  0  0  0  0  0  0  0  0  0
   11.8945    1.8295   20.6082 H   0  0  0  0  0  0  0  0  0  0  0  0
   12.0196    2.2844   23.1982 C   0  0  0  0  0  0  0  0  0  0  0  0
   11.1365    2.0704   24.2692 C   0  0  0  0  0  0  0  0  0  0  0  0
   11.3549    1.0127   25.1585 C   0  0  0  0  0  0  0  0  0  0  0  0
   12.4289    0.1423   24.9646 C   0  0  0  0  0  0  0  0  0  0  0  0
   13.2924    0.3262   23.8805 C   0  0  0  0  0  0  0  0  0  0  0  0
   13.0745    1.3807   23.0022 C   0  0  0  0  0  0  0  0  0  0  0  0
   13.7263    1.5040   22.1485 H   0  0  0  0  0  0  0  0  0  0  0  0
   14.1235   -0.3368   23.6703 H   0  0  0  0  0  0  0  0  0  0  0  0
   12.5632   -0.7054   25.6177 H   0  0  0  0  0  0  0  0  0  0  0  0
   10.6866    0.8585   26.0079 H   0  0  0  0  0  0  0  0  0  0  0  0
   10.2694    2.7095   24.4250 H   0  0  0  0  0  0  0  0  0  0  0  0
   11.5335    4.8569   23.6212 H   0  0  0  0  0  0  0  0  0  0  0  0
   10.0406    4.4864   22.7241 H   0  0  0  0  0  0  0  0  0  0  0  0
   11.3343    5.4539   21.9550 H   0  0  0  0  0  0  0  0  0  0  0  0
  1  2  1  0
  2  3  1  0
  2  4  1  0
  4  5  1  0
  5  6  1  0
  6  7  2  0
  6  8  1  0
  8  9  1  0
  9 10  1  0
 10 11  1  0
 11 12  1  0
 12 13  1  0
 13 14  2  0
 14 15  1  0
 15 16  2  0
 16 17  1  0
 17 18  2  0
 18 19  1  0
 16 20  1  0
 15 21  1  0
 14 22  1  0
 12 23  1  6
 10 24  1  0
 10 25  1  0
  9 26  1  0
  9 27  1  0
  8 28  1  1
  5 29  1  0
  4 30  1  0
  4 31  1  0
  2 32  1  0
 32 33  2  0
 33 34  1  0
 34 35  2  0
 35 36  1  0
 36 37  2  0
 37 38  1  0
 36 39  1  0
 35 40  1  0
 34 41  1  0
 33 42  1  0
  1 43  1  0
  1 44  1  0
  1 45  1  0
 12  8  1  0
 18 13  1  0
 37 32  1  0
M  END
>  <plip>  (1) 
-0.0967741935483871

>  <filename>  (1) 
[H][c]1[n][c]([H])[c]([C@]2([H])[O][C]([H])([H])[C]([H])([H])[C@@]2([H])[C](=[O])[N]([H])[C]([H])([H])[C]([F])([c]2[c]([H])[c]([H])[c]([H])[c]([H])[c]2[H])[C]([H])([H])[H])[c]([H])[c]1[H]

$$$$
