
     RDKit          3D

 39 41  0  0  0  0  0  0  0  0999 V2000
    7.1172    0.9059   22.4305 H   0  0  0  0  0  0  0  0  0  0  0  0
    7.5407   -0.0568   22.1992 C   0  0  0  0  0  0  0  0  0  0  0  0
    7.4064   -0.5798   20.9746 C   0  0  0  0  0  0  0  0  0  0  0  0
    6.6480    0.0341   19.8785 C   0  0  0  0  0  0  0  0  0  0  0  0
    7.1568    0.0266   18.5677 C   0  0  0  0  0  0  0  0  0  0  0  0
    8.0892   -0.4909   18.3492 H   0  0  0  0  0  0  0  0  0  0  0  0
    6.5738    0.6419   17.5331 N   0  0  0  0  0  0  0  0  0  0  0  0
    5.4195    1.2842   17.7743 C   0  0  0  0  0  0  0  0  0  0  0  0
    4.9669    1.7973   16.9292 H   0  0  0  0  0  0  0  0  0  0  0  0
    4.7948    1.3094   19.0278 C   0  0  0  0  0  0  0  0  0  0  0  0
    3.8545    1.8329   19.1506 H   0  0  0  0  0  0  0  0  0  0  0  0
    5.4170    0.6753   20.1021 C   0  0  0  0  0  0  0  0  0  0  0  0
    4.9552    0.6469   21.0920 H   0  0  0  0  0  0  0  0  0  0  0  0
    8.0234   -1.7951   20.6846 N   0  0  0  0  0  0  0  0  0  0  0  0
    7.6733   -2.3088   19.8933 H   0  0  0  0  0  0  0  0  0  0  0  0
    8.2664   -2.7460   21.6755 C   0  0  0  0  0  0  0  0  0  0  0  0
    8.3324   -3.9112   21.3492 O   0  0  0  0  0  0  0  0  0  0  0  0
    8.4198   -2.2133   22.9594 N   0  0  0  0  0  0  0  0  0  0  0  0
    8.5847   -3.0677   24.0415 N   0  0  0  0  0  0  0  0  0  0  0  0
    9.9349   -3.0451   24.6440 C   0  0  0  0  0  0  0  0  0  0  0  0
   10.2019   -2.0299   24.9994 H   0  0  0  0  0  0  0  0  0  0  0  0
   10.6615   -3.3375   23.8826 H   0  0  0  0  0  0  0  0  0  0  0  0
    9.9280   -4.0368   25.8165 C   0  0  0  0  0  0  0  0  0  0  0  0
   10.9358   -4.2440   26.1942 H   0  0  0  0  0  0  0  0  0  0  0  0
    9.5713   -5.0044   25.4072 H   0  0  0  0  0  0  0  0  0  0  0  0
    9.0623   -3.5507   26.9187 N   0  0  0  0  0  0  0  0  0  0  0  0
    8.6975   -4.6546   27.7903 C   0  0  0  0  0  0  0  0  0  0  0  0
    9.5945   -5.0056   28.3179 H   0  0  0  0  0  0  0  0  0  0  0  0
    8.2568   -5.5153   27.2530 H   0  0  0  0  0  0  0  0  0  0  0  0
    7.9660   -4.3222   28.5330 H   0  0  0  0  0  0  0  0  0  0  0  0
    7.9313   -2.7245   26.4290 C   0  0  0  0  0  0  0  0  0  0  0  0
    8.2608   -1.6722   26.3929 H   0  0  0  0  0  0  0  0  0  0  0  0
    7.0914   -2.7658   27.1343 H   0  0  0  0  0  0  0  0  0  0  0  0
    7.4639   -3.1391   25.0138 C   0  0  0  0  0  0  0  0  0  0  0  0
    7.1130   -4.1823   25.0563 H   0  0  0  0  0  0  0  0  0  0  0  0
    6.6242   -2.5256   24.6637 H   0  0  0  0  0  0  0  0  0  0  0  0
    8.3642   -0.7623   23.2242 C   0  0  0  0  0  0  0  0  0  0  0  0
    7.9233   -0.5849   24.2201 H   0  0  0  0  0  0  0  0  0  0  0  0
    9.3931   -0.3530   23.2620 H   0  0  0  0  0  0  0  0  0  0  0  0
  1  2  1  0
  2  3  2  0
  3  4  1  0
  4  5  2  0
  5  6  1  0
  5  7  1  0
  7  8  2  0
  8  9  1  0
  8 10  1  0
 10 11  1  0
 10 12  2  0
 12 13  1  0
  3 14  1  0
 14 15  1  0
 14 16  1  0
 16 17  2  0
 16 18  1  0
 18 19  1  0
 19 20  1  0
 20 21  1  0
 20 22  1  0
 20 23  1  0
 23 24  1  0
 23 25  1  0
 23 26  1  0
 26 27  1  0
 27 28  1  0
 27 29  1  0
 27 30  1  0
 26 31  1  0
 31 32  1  0
 31 33  1  0
 31 34  1  0
 34 35  1  0
 34 36  1  0
 18 37  1  0
 37 38  1  0
 37 39  1  0
 37  2  1  0
 12  4  1  0
 34 19  1  0
M  END
>  <plip>  (1) 
-0.034482758620689655

>  <filename>  (1) 
[H][C]1=[C]([c]2[c]([H])[n][c]([H])[c]([H])[c]2[H])[N]([H])[C](=[O])[N]([N]2[C]([H])([H])[C]([H])([H])[N]([C]([H])([H])[H])[C]([H])([H])[C]2([H])[H])[C]1([H])[H]

$$$$
