
     RDKit          3D

 46 49  0  0  0  0  0  0  0  0999 V2000
    5.0189   -3.4956   21.1219 O   0  0  0  0  0  0  0  0  0  0  0  0
    5.8967   -2.9046   21.7258 C   0  0  0  0  0  0  0  0  0  0  0  0
    5.8822   -2.7638   23.0792 N   0  0  0  0  0  0  0  0  0  0  0  0
    4.8460   -3.3008   23.9431 C   0  0  0  0  0  0  0  0  0  0  0  0
    4.9089   -4.7968   24.1512 C   0  0  1  0  0  0  0  0  0  0  0  0
    5.4650   -5.4550   25.3890 C   0  0  0  0  0  0  0  0  0  0  0  0
    3.9753   -5.3520   25.1977 C   0  0  2  0  0  0  0  0  0  0  0  0
    3.1302   -6.5545   24.9070 C   0  0  0  0  0  0  0  0  0  0  0  0
    2.1353   -6.4961   23.9188 C   0  0  0  0  0  0  0  0  0  0  0  0
    1.3552   -7.6177   23.6239 C   0  0  0  0  0  0  0  0  0  0  0  0
    1.5579   -8.8121   24.3263 C   0  0  0  0  0  0  0  0  0  0  0  0
    2.5125   -8.8666   25.3486 C   0  0  0  0  0  0  0  0  0  0  0  0
    3.2853   -7.7402   25.6427 C   0  0  0  0  0  0  0  0  0  0  0  0
    4.0123   -7.7556   26.4531 H   0  0  0  0  0  0  0  0  0  0  0  0
    2.6446   -9.7893   25.9068 H   0  0  0  0  0  0  0  0  0  0  0  0
    0.9726   -9.6959   24.0869 H   0  0  0  0  0  0  0  0  0  0  0  0
    0.5922   -7.5563   22.8515 H   0  0  0  0  0  0  0  0  0  0  0  0
    1.9908   -5.5567   23.3876 H   0  0  0  0  0  0  0  0  0  0  0  0
    3.4563   -4.5929   25.7910 H   0  0  0  0  0  0  0  0  0  0  0  0
    5.9116   -6.4432   25.2692 H   0  0  0  0  0  0  0  0  0  0  0  0
    5.9462   -4.8450   26.1511 H   0  0  0  0  0  0  0  0  0  0  0  0
    5.0248   -5.3657   23.2294 H   0  0  0  0  0  0  0  0  0  0  0  0
    3.8601   -3.0555   23.5281 H   0  0  0  0  0  0  0  0  0  0  0  0
    4.9263   -2.7942   24.9130 H   0  0  0  0  0  0  0  0  0  0  0  0
    6.5574   -2.1389   23.4664 H   0  0  0  0  0  0  0  0  0  0  0  0
    7.1271   -2.3338   21.0367 C   0  0  2  0  0  0  0  0  0  0  0  0
    8.4741   -2.8514   21.5853 C   0  0  0  0  0  0  0  0  0  0  0  0
    9.4607   -1.7419   21.2325 C   0  0  0  0  0  0  0  0  0  0  0  0
    8.7000   -0.5894   20.9241 O   0  0  0  0  0  0  0  0  0  0  0  0
    7.3071   -0.7985   21.0905 C   0  0  1  0  0  0  0  0  0  0  0  0
    6.5945   -0.0448   19.9886 C   0  0  0  0  0  0  0  0  0  0  0  0
    5.3789    0.6268   20.1781 C   0  0  0  0  0  0  0  0  0  0  0  0
    4.8052    1.2952   19.0908 C   0  0  0  0  0  0  0  0  0  0  0  0
    5.4590    1.2641   17.8565 C   0  0  0  0  0  0  0  0  0  0  0  0
    6.6179    0.6191   17.6511 N   0  0  0  0  0  0  0  0  0  0  0  0
    7.1656   -0.0031   18.7012 C   0  0  0  0  0  0  0  0  0  0  0  0
    8.1230   -0.4868   18.5114 H   0  0  0  0  0  0  0  0  0  0  0  0
    5.0376    1.7705   16.9887 H   0  0  0  0  0  0  0  0  0  0  0  0
    3.8772    1.8505   19.1855 H   0  0  0  0  0  0  0  0  0  0  0  0
    4.8944    0.6393   21.1577 H   0  0  0  0  0  0  0  0  0  0  0  0
    7.0201   -0.3866   22.0758 H   0  0  0  0  0  0  0  0  0  0  0  0
   10.1658   -1.5059   22.0394 H   0  0  0  0  0  0  0  0  0  0  0  0
   10.0518   -2.0256   20.3679 H   0  0  0  0  0  0  0  0  0  0  0  0
    8.7489   -3.8164   21.1545 H   0  0  0  0  0  0  0  0  0  0  0  0
    8.4384   -2.9819   22.6718 H   0  0  0  0  0  0  0  0  0  0  0  0
    6.9811   -2.6015   19.9885 H   0  0  0  0  0  0  0  0  0  0  0  0
  1  2  2  0
  2  3  1  0
  3  4  1  0
  4  5  1  0
  5  6  1  0
  6  7  1  0
  7  8  1  0
  8  9  2  0
  9 10  1  0
 10 11  2  0
 11 12  1  0
 12 13  2  0
 13 14  1  0
 12 15  1  0
 11 16  1  0
 10 17  1  0
  9 18  1  0
  7 19  1  1
  6 20  1  0
  6 21  1  0
  5 22  1  6
  4 23  1  0
  4 24  1  0
  3 25  1  0
  2 26  1  0
 26 27  1  0
 27 28  1  0
 28 29  1  0
 29 30  1  0
 30 31  1  0
 31 32  2  0
 32 33  1  0
 33 34  2  0
 34 35  1  0
 35 36  2  0
 36 37  1  0
 34 38  1  0
 33 39  1  0
 32 40  1  0
 30 41  1  1
 28 42  1  0
 28 43  1  0
 27 44  1  0
 27 45  1  0
 26 46  1  6
  7  5  1  0
 13  8  1  0
 30 26  1  0
 36 31  1  0
M  END
>  <plip>  (1) 
-0.07142857142857142

>  <filename>  (1) 
[H][c]1[n][c]([H])[c]([C@]2([H])[O][C]([H])([H])[C]([H])([H])[C@@]2([H])[C](=[O])[N]([H])[C]([H])([H])[C@@]2([H])[C]([H])([H])[C@]2([H])[c]2[c]([H])[c]([H])[c]([H])[c]([H])[c]2[H])[c]([H])[c]1[H]

$$$$
