
     RDKit          3D

 37 38  0  0  0  0  0  0  0  0999 V2000
    5.7704   -4.5325   21.9212 C   0  0  0  0  0  0  0  0  0  0  0  0
    5.1664   -3.1693   22.1791 C   0  0  0  0  0  0  0  0  0  0  0  0
    5.6164   -2.1574   21.2855 O   0  0  0  0  0  0  0  0  0  0  0  0
    6.9053   -1.7934   21.5965 N   0  0  0  0  0  0  0  0  0  0  0  0
    7.3241   -0.7617   20.9653 C   0  0  0  0  0  0  0  0  0  0  0  0
    8.7243   -0.3243   21.3394 C   0  0  0  0  0  0  0  0  0  0  0  0
    8.7537    0.8942   22.2945 C   0  0  0  0  0  0  0  0  0  0  0  0
   10.1561    1.3429   22.6625 C   0  0  0  0  0  0  0  0  0  0  0  0
   10.8260    0.7911   23.7711 C   0  0  0  0  0  0  0  0  0  0  0  0
   12.1404    1.1590   24.0747 C   0  0  0  0  0  0  0  0  0  0  0  0
   12.8010    2.1030   23.2822 C   0  0  0  0  0  0  0  0  0  0  0  0
   12.1447    2.6728   22.1874 C   0  0  0  0  0  0  0  0  0  0  0  0
   10.8330    2.2972   21.8851 C   0  0  0  0  0  0  0  0  0  0  0  0
   10.3298    2.7586   21.0371 H   0  0  0  0  0  0  0  0  0  0  0  0
   12.6501    3.4166   21.5747 H   0  0  0  0  0  0  0  0  0  0  0  0
   13.8211    2.3957   23.5137 H   0  0  0  0  0  0  0  0  0  0  0  0
   12.6451    0.7165   24.9318 H   0  0  0  0  0  0  0  0  0  0  0  0
   10.3182    0.0679   24.4102 H   0  0  0  0  0  0  0  0  0  0  0  0
    8.2077    1.7144   21.8138 H   0  0  0  0  0  0  0  0  0  0  0  0
    8.2063    0.6681   23.2181 H   0  0  0  0  0  0  0  0  0  0  0  0
    9.2909   -0.0817   20.4347 H   0  0  0  0  0  0  0  0  0  0  0  0
    9.2284   -1.1699   21.8131 H   0  0  0  0  0  0  0  0  0  0  0  0
    6.5896   -0.0016   19.9172 C   0  0  0  0  0  0  0  0  0  0  0  0
    5.3607    0.6539   20.1260 C   0  0  0  0  0  0  0  0  0  0  0  0
    4.7846    1.3304   19.0541 C   0  0  0  0  0  0  0  0  0  0  0  0
    5.4268    1.3073   17.8113 C   0  0  0  0  0  0  0  0  0  0  0  0
    6.5802    0.6536   17.5876 N   0  0  0  0  0  0  0  0  0  0  0  0
    7.1406    0.0352   18.6295 C   0  0  0  0  0  0  0  0  0  0  0  0
    8.0761   -0.4911   18.4241 H   0  0  0  0  0  0  0  0  0  0  0  0
    5.0062    1.8485   16.9666 H   0  0  0  0  0  0  0  0  0  0  0  0
    3.8676    1.8981   19.1710 H   0  0  0  0  0  0  0  0  0  0  0  0
    4.8775    0.6364   21.1051 H   0  0  0  0  0  0  0  0  0  0  0  0
    5.3146   -2.8471   23.2153 H   0  0  0  0  0  0  0  0  0  0  0  0
    4.0968   -3.1890   22.0011 H   0  0  0  0  0  0  0  0  0  0  0  0
    5.2426   -5.2703   22.5324 H   0  0  0  0  0  0  0  0  0  0  0  0
    5.6827   -4.8119   20.8687 H   0  0  0  0  0  0  0  0  0  0  0  0
    6.8265   -4.5650   22.1894 H   0  0  0  0  0  0  0  0  0  0  0  0
  1  2  1  0
  2  3  1  0
  3  4  1  0
  4  5  2  3
  5  6  1  0
  6  7  1  0
  7  8  1  0
  8  9  2  0
  9 10  1  0
 10 11  2  0
 11 12  1  0
 12 13  2  0
 13 14  1  0
 12 15  1  0
 11 16  1  0
 10 17  1  0
  9 18  1  0
  7 19  1  0
  7 20  1  0
  6 21  1  0
  6 22  1  0
  5 23  1  0
 23 24  2  0
 24 25  1  0
 25 26  2  0
 26 27  1  0
 27 28  2  0
 28 29  1  0
 26 30  1  0
 25 31  1  0
 24 32  1  0
  2 33  1  0
  2 34  1  0
  1 35  1  0
  1 36  1  0
  1 37  1  0
 13  8  1  0
 28 23  1  0
M  END
>  <plip>  (1) 
-0.10714285714285714

>  <filename>  (1) 
[H][c]1[n][c]([H])[c]([C](=[N][O][C]([H])([H])[C]([H])([H])[H])[C]([H])([H])[C]([H])([H])[c]2[c]([H])[c]([H])[c]([H])[c]([H])[c]2[H])[c]([H])[c]1[H]

$$$$
