
     RDKit          3D

 20 21  0  0  0  0  0  0  0  0999 V2000
    4.9132    1.7866   16.9914 H   0  0  0  0  0  0  0  0  0  0  0  0
    5.3976    1.2987   17.8339 C   0  0  0  0  0  0  0  0  0  0  0  0
    6.5608    0.6818   17.5665 N   0  0  0  0  0  0  0  0  0  0  0  0
    7.1739    0.0660   18.5876 C   0  0  0  0  0  0  0  0  0  0  0  0
    8.1180   -0.4263   18.3676 H   0  0  0  0  0  0  0  0  0  0  0  0
    6.6614   -0.0089   19.9087 C   0  0  0  0  0  0  0  0  0  0  0  0
    7.3186   -0.7030   20.9342 N   0  0  0  0  0  0  0  0  0  0  0  0
    6.7663   -1.1562   21.6476 H   0  0  0  0  0  0  0  0  0  0  0  0
    8.6877   -0.6749   21.1493 C   0  0  0  0  0  0  0  0  0  0  0  0
    9.6076    0.1838   20.6379 C   0  0  0  0  0  0  0  0  0  0  0  0
    9.5127    1.0327   19.9823 H   0  0  0  0  0  0  0  0  0  0  0  0
   10.8450   -0.1157   21.1152 O   0  0  0  0  0  0  0  0  0  0  0  0
   10.7021   -1.1895   21.9224 C   0  0  0  0  0  0  0  0  0  0  0  0
   11.6119   -1.5471   22.3869 H   0  0  0  0  0  0  0  0  0  0  0  0
    9.4058   -1.5811   21.9889 C   0  0  0  0  0  0  0  0  0  0  0  0
    9.0033   -2.4022   22.5584 H   0  0  0  0  0  0  0  0  0  0  0  0
    5.4381    0.6320   20.1615 C   0  0  0  0  0  0  0  0  0  0  0  0
    5.0195    0.6188   21.1705 H   0  0  0  0  0  0  0  0  0  0  0  0
    4.8097    1.3069   19.1075 C   0  0  0  0  0  0  0  0  0  0  0  0
    3.8773    1.8407   19.2627 H   0  0  0  0  0  0  0  0  0  0  0  0
  1  2  1  0
  2  3  2  0
  3  4  1  0
  4  5  1  0
  4  6  2  0
  6  7  1  0
  7  8  1  0
  7  9  1  0
  9 10  2  0
 10 11  1  0
 10 12  1  0
 12 13  1  0
 13 14  1  0
 13 15  2  0
 15 16  1  0
  6 17  1  0
 17 18  1  0
 17 19  2  0
 19 20  1  0
 19  2  1  0
 15  9  1  0
M  END
>  <plip>  (1) 
-0.10714285714285714

>  <filename>  (1) 
[H][c]1[n][c]([H])[c]([N]([H])[c]2[c]([H])[o][c]([H])[c]2[H])[c]([H])[c]1[H]

$$$$
