
     RDKit          3D

 27 27  0  0  0  0  0  0  0  0999 V2000
   10.1496    1.3487   21.8774 H   0  0  0  0  0  0  0  0  0  0  0  0
    9.5063    0.6231   21.3909 C   0  0  0  0  0  0  0  0  0  0  0  0
    9.8927    0.1042   20.5215 H   0  0  0  0  0  0  0  0  0  0  0  0
    8.2659    0.3293   21.7886 C   0  0  0  0  0  0  0  0  0  0  0  0
    7.5956    0.9028   22.8290 O   0  0  0  0  0  0  0  0  0  0  0  0
    8.1488    2.0304   23.5061 C   0  0  0  0  0  0  0  0  0  0  0  0
    7.5657    2.1161   24.4241 H   0  0  0  0  0  0  0  0  0  0  0  0
    9.1876    1.8476   23.8098 H   0  0  0  0  0  0  0  0  0  0  0  0
    8.0494    3.3588   22.7430 C   0  0  0  0  0  0  0  0  0  0  0  0
    8.5895    3.2834   21.7929 H   0  0  0  0  0  0  0  0  0  0  0  0
    7.0020    3.5362   22.4802 H   0  0  0  0  0  0  0  0  0  0  0  0
    8.5482    4.5246   23.4811 N   0  0  0  0  0  0  0  0  0  0  0  0
    8.0408    4.6317   24.3551 H   0  0  0  0  0  0  0  0  0  0  0  0
    9.5184    4.3803   23.7460 H   0  0  0  0  0  0  0  0  0  0  0  0
    7.3934   -0.6691   21.0410 C   0  0  0  0  0  0  0  0  0  0  0  0
    6.6983   -1.1480   21.7406 H   0  0  0  0  0  0  0  0  0  0  0  0
    8.0399   -1.4548   20.6338 H   0  0  0  0  0  0  0  0  0  0  0  0
    6.6402   -0.0068   19.8971 C   0  0  0  0  0  0  0  0  0  0  0  0
    7.1576    0.0616   18.5931 C   0  0  0  0  0  0  0  0  0  0  0  0
    8.1085   -0.4203   18.3579 H   0  0  0  0  0  0  0  0  0  0  0  0
    6.5607    0.6848   17.5697 N   0  0  0  0  0  0  0  0  0  0  0  0
    5.3959    1.2981   17.8306 C   0  0  0  0  0  0  0  0  0  0  0  0
    4.9150    1.7899   16.9868 H   0  0  0  0  0  0  0  0  0  0  0  0
    4.7985    1.3146   19.0946 C   0  0  0  0  0  0  0  0  0  0  0  0
    3.8683    1.8480   19.2494 H   0  0  0  0  0  0  0  0  0  0  0  0
    5.4300    0.6486   20.1474 C   0  0  0  0  0  0  0  0  0  0  0  0
    5.0232    0.6406   21.1612 H   0  0  0  0  0  0  0  0  0  0  0  0
  1  2  1  0
  2  3  1  0
  2  4  2  3
  4  5  1  0
  5  6  1  0
  6  7  1  0
  6  8  1  0
  6  9  1  0
  9 10  1  0
  9 11  1  0
  9 12  1  0
 12 13  1  0
 12 14  1  0
  4 15  1  0
 15 16  1  0
 15 17  1  0
 15 18  1  0
 18 19  2  0
 19 20  1  0
 19 21  1  0
 21 22  2  0
 22 23  1  0
 22 24  1  0
 24 25  1  0
 24 26  2  0
 26 27  1  0
 26 18  1  0
M  END
>  <plip>  (1) 
-0.03571428571428571

>  <filename>  (1) 
[H][C]([H])=[C]([O][C]([H])([H])[C]([H])([H])[N]([H])[H])[C]([H])([H])[c]1[c]([H])[n][c]([H])[c]([H])[c]1[H]

$$$$
