
     RDKit          3D

 32 33  0  0  0  0  0  0  0  0999 V2000
   10.5020    3.1026   22.2713 N   0  0  0  0  0  4  0  0  0  0  0  0
    9.4176    2.1011   22.6825 C   0  0  0  0  0  0  0  0  0  0  0  0
    9.0038    1.1982   21.5094 C   0  0  0  0  0  0  0  0  0  0  0  0
    7.9280    0.1931   21.9356 N   0  0  0  0  0  4  0  0  0  0  0  0
    7.4608   -0.8363   20.8743 C   0  0  0  0  0  0  0  0  0  0  0  0
    6.6914   -0.0206   19.8519 C   0  0  0  0  0  0  0  0  0  0  0  0
    5.4803    0.6251   20.1315 C   0  0  0  0  0  0  0  0  0  0  0  0
    4.8384    1.3012   19.0904 C   0  0  0  0  0  0  0  0  0  0  0  0
    5.4361    1.3256   17.8244 C   0  0  0  0  0  0  0  0  0  0  0  0
    6.6068    0.7315   17.5547 N   0  0  0  0  0  0  0  0  0  0  0  0
    7.2071    0.0809   18.5575 C   0  0  0  0  0  0  0  0  0  0  0  0
    8.1531   -0.4074   18.3225 H   0  0  0  0  0  0  0  0  0  0  0  0
    4.9626    1.8622   16.9995 H   0  0  0  0  0  0  0  0  0  0  0  0
    3.9079    1.8345   19.2442 H   0  0  0  0  0  0  0  0  0  0  0  0
    5.0197    0.5960   21.1245 H   0  0  0  0  0  0  0  0  0  0  0  0
    6.6670   -2.0170   21.4365 C   0  0  0  0  0  0  0  0  0  0  0  0
    6.4222   -3.1050   20.7545 N   0  0  0  0  0  0  0  0  0  0  0  0
    5.6326   -3.9235   21.5225 N   0  0  0  0  0  0  0  0  0  0  0  0
    5.4278   -3.3224   22.6610 C   0  0  0  0  0  0  0  0  0  0  0  0
    6.0949   -2.1351   22.6730 N   0  0  0  0  0  0  0  0  0  0  0  0
    5.9542   -1.4371   23.3810 H   0  0  0  0  0  0  0  0  0  0  0  0
    4.8279   -3.7035   23.4811 H   0  0  0  0  0  0  0  0  0  0  0  0
    8.3307   -1.2905   20.3965 H   0  0  0  0  0  0  0  0  0  0  0  0
    7.0321    0.7429   22.0750 H   0  0  0  0  0  0  0  0  0  0  0  0
    8.2231   -0.3105   22.8001 H   0  0  0  0  0  0  0  0  0  0  0  0
    8.6111    1.8103   20.6879 H   0  0  0  0  0  0  0  0  0  0  0  0
    9.8903    0.6825   21.1125 H   0  0  0  0  0  0  0  0  0  0  0  0
    8.5455    2.6496   23.0555 H   0  0  0  0  0  0  0  0  0  0  0  0
    9.7931    1.4856   23.5086 H   0  0  0  0  0  0  0  0  0  0  0  0
   11.3471    2.6171   21.9112 H   0  0  0  0  0  0  0  0  0  0  0  0
   10.8023    3.7032   23.0558 H   0  0  0  0  0  0  0  0  0  0  0  0
   10.1616    3.7421   21.5186 H   0  0  0  0  0  0  0  0  0  0  0  0
  1  2  1  0
  2  3  1  0
  3  4  1  0
  4  5  1  0
  5  6  1  0
  6  7  2  0
  7  8  1  0
  8  9  2  0
  9 10  1  0
 10 11  2  0
 11 12  1  0
  9 13  1  0
  8 14  1  0
  7 15  1  0
  5 16  1  0
 16 17  2  0
 17 18  1  0
 18 19  2  0
 19 20  1  0
 20 21  1  0
 19 22  1  0
  5 23  1  0
  4 24  1  0
  4 25  1  0
  3 26  1  0
  3 27  1  0
  2 28  1  0
  2 29  1  0
  1 30  1  0
  1 31  1  0
  1 32  1  0
 11  6  1  0
 20 16  1  0
M  CHG  2   1   1   4   1
M  END
>  <plip>  (1) 
-0.14285714285714285

>  <filename>  (1) 
[H][c]1[n][c]([H])[c]([C]([H])([c]2[n][n][c]([H])[n]2[H])[N+]([H])([H])[C]([H])([H])[C]([H])([H])[N+]([H])([H])[H])[c]([H])[c]1[H]

$$$$
