
     RDKit          3D

 38 40  0  0  0  0  0  0  0  0999 V2000
    6.1577   -2.8847   20.0781 C   0  0  0  0  0  0  0  0  0  0  0  0
    6.4248   -2.0594   21.2610 N   0  0  0  0  0  0  0  0  0  0  0  0
    6.2253   -2.5509   22.5571 C   0  0  0  0  0  0  0  0  0  0  0  0
    6.7626   -2.0279   23.5264 O   0  0  0  0  0  0  0  0  0  0  0  0
    5.3124   -3.8065   22.7670 C   0  0  0  0  0  0  0  0  0  0  0  0
    4.2076   -3.9289   22.0377 N   0  0  0  0  0  0  0  0  0  0  0  0
    3.2735   -4.8526   22.3682 C   0  0  0  0  0  0  0  0  0  0  0  0
    3.4339   -5.7696   23.3703 C   0  0  0  0  0  0  0  0  0  0  0  0
    4.6237   -5.7505   24.1316 C   0  0  0  0  0  0  0  0  0  0  0  0
    4.8319   -6.6434   25.2281 C   0  0  0  0  0  0  0  0  0  0  0  0
    3.5820   -7.7689   25.7057 Cl  0  0  0  0  0  0  0  0  0  0  0  0
    5.9893   -6.5970   25.9674 C   0  0  0  0  0  0  0  0  0  0  0  0
    7.0051   -5.6742   25.6250 C   0  0  0  0  0  0  0  0  0  0  0  0
    6.8461   -4.7935   24.5741 C   0  0  0  0  0  0  0  0  0  0  0  0
    5.6301   -4.7741   23.8155 C   0  0  0  0  0  0  0  0  0  0  0  0
    7.6480   -4.1174   24.3023 H   0  0  0  0  0  0  0  0  0  0  0  0
    7.9102   -5.6491   26.2293 H   0  0  0  0  0  0  0  0  0  0  0  0
    6.0964   -7.2617   26.8179 H   0  0  0  0  0  0  0  0  0  0  0  0
    2.6586   -6.4908   23.5902 H   0  0  0  0  0  0  0  0  0  0  0  0
    2.3530   -4.8176   21.7983 H   0  0  0  0  0  0  0  0  0  0  0  0
    7.2506   -0.8453   21.0486 C   0  0  0  0  0  0  0  0  0  0  0  0
    8.9269   -1.0650   20.8048 C   0  0  0  0  0  0  0  0  0  0  0  0
    9.4922    0.0362   20.7658 O   0  0  0  0  0  0  0  0  0  0  0  0
    9.3311   -2.2286   20.7094 O   0  0  0  0  0  1  0  0  0  0  0  0
    6.6507    0.0236   19.9375 C   0  0  0  0  0  0  0  0  0  0  0  0
    5.4391    0.7051   20.1433 C   0  0  0  0  0  0  0  0  0  0  0  0
    4.8278    1.3608   19.0689 C   0  0  0  0  0  0  0  0  0  0  0  0
    5.4589    1.3372   17.8224 C   0  0  0  0  0  0  0  0  0  0  0  0
    6.6332    0.7272   17.6067 N   0  0  0  0  0  0  0  0  0  0  0  0
    7.2064    0.1048   18.6470 C   0  0  0  0  0  0  0  0  0  0  0  0
    8.1664   -0.3710   18.4431 H   0  0  0  0  0  0  0  0  0  0  0  0
    5.0159    1.8291   16.9577 H   0  0  0  0  0  0  0  0  0  0  0  0
    3.8864    1.8886   19.1778 H   0  0  0  0  0  0  0  0  0  0  0  0
    4.9904    0.7074   21.1365 H   0  0  0  0  0  0  0  0  0  0  0  0
    7.2092   -0.2851   21.9898 H   0  0  0  0  0  0  0  0  0  0  0  0
    5.1076   -3.1792   20.0510 H   0  0  0  0  0  0  0  0  0  0  0  0
    6.3898   -2.3054   19.1814 H   0  0  0  0  0  0  0  0  0  0  0  0
    6.7749   -3.7885   20.0943 H   0  0  0  0  0  0  0  0  0  0  0  0
  1  2  1  0
  2  3  1  0
  3  4  2  0
  3  5  1  0
  5  6  2  0
  6  7  1  0
  7  8  2  0
  8  9  1  0
  9 10  2  0
 10 11  1  0
 10 12  1  0
 12 13  2  0
 13 14  1  0
 14 15  2  0
 14 16  1  0
 13 17  1  0
 12 18  1  0
  8 19  1  0
  7 20  1  0
  2 21  1  0
 21 22  1  0
 22 23  2  0
 22 24  1  0
 21 25  1  0
 25 26  2  0
 26 27  1  0
 27 28  2  0
 28 29  1  0
 29 30  2  0
 30 31  1  0
 28 32  1  0
 27 33  1  0
 26 34  1  0
 21 35  1  0
  1 36  1  0
  1 37  1  0
  1 38  1  0
 15  5  1  0
 30 25  1  0
 15  9  1  0
M  CHG  1  24  -1
M  END
>  <plip>  (1) 
-0.14285714285714285

>  <filename>  (1) 
[H][c]1[n][c]([H])[c]([C]([H])([C](=[O])[O-])[N]([C](=[O])[c]2[n][c]([H])[c]([H])[c]3[c]([Cl])[c]([H])[c]([H])[c]([H])[c]23)[C]([H])([H])[H])[c]([H])[c]1[H]

$$$$
