
     RDKit          3D

 30 31  0  0  0  0  0  0  0  0999 V2000
    4.9712    1.7355   16.9007 H   0  0  0  0  0  0  0  0  0  0  0  0
    5.4340    1.3014   17.7847 C   0  0  0  0  0  0  0  0  0  0  0  0
    6.6337    0.7212   17.6107 N   0  0  0  0  0  0  0  0  0  0  0  0
    7.2187    0.1744   18.6846 C   0  0  0  0  0  0  0  0  0  0  0  0
    8.2051   -0.2578   18.5368 H   0  0  0  0  0  0  0  0  0  0  0  0
    6.6300    0.1380   19.9760 C   0  0  0  0  0  0  0  0  0  0  0  0
    7.2031   -0.4935   21.1012 N   0  0  0  0  0  0  0  0  0  0  0  0
    6.5119   -1.0229   21.6537 H   0  0  0  0  0  0  0  0  0  0  0  0
    8.3607   -1.2095   20.8604 N   0  0  0  0  0  0  0  0  0  0  0  0
    9.1652   -0.8061   21.3694 H   0  0  0  0  0  0  0  0  0  0  0  0
    8.2135   -2.6139   21.0600 N   0  0  0  0  0  0  0  0  0  0  0  0
    7.9833   -3.0950   20.1967 H   0  0  0  0  0  0  0  0  0  0  0  0
    6.9560   -3.4150   21.9065 S   0  0  0  0  0  0  0  0  0  0  0  0
    5.7421   -2.6190   22.0193 O   0  0  0  0  0  0  0  0  0  0  0  0
    6.9540   -4.6609   21.1664 O   0  0  0  0  0  0  0  0  0  0  0  0
    7.7346   -3.5393   23.4700 C   0  0  0  0  0  0  0  0  0  0  0  0
    8.8796   -4.3386   23.5972 C   0  0  0  0  0  0  0  0  0  0  0  0
    9.1985   -5.0105   22.8003 H   0  0  0  0  0  0  0  0  0  0  0  0
    9.6414   -4.2335   24.7587 C   0  0  0  0  0  0  0  0  0  0  0  0
   10.5354   -4.8432   24.8729 H   0  0  0  0  0  0  0  0  0  0  0  0
    9.2739   -3.3307   25.7659 C   0  0  0  0  0  0  0  0  0  0  0  0
    9.8789   -3.2500   26.6627 H   0  0  0  0  0  0  0  0  0  0  0  0
    8.1245   -2.5430   25.6212 C   0  0  0  0  0  0  0  0  0  0  0  0
    7.8332   -1.8377   26.3964 H   0  0  0  0  0  0  0  0  0  0  0  0
    7.3410   -2.6431   24.4742 C   0  0  0  0  0  0  0  0  0  0  0  0
    6.4504   -2.0247   24.3520 H   0  0  0  0  0  0  0  0  0  0  0  0
    5.3918    0.7798   20.1365 C   0  0  0  0  0  0  0  0  0  0  0  0
    4.9355    0.8221   21.1265 H   0  0  0  0  0  0  0  0  0  0  0  0
    4.7894    1.3690   19.0248 C   0  0  0  0  0  0  0  0  0  0  0  0
    3.8365    1.8837   19.1167 H   0  0  0  0  0  0  0  0  0  0  0  0
  1  2  1  0
  2  3  2  0
  3  4  1  0
  4  5  1  0
  4  6  2  0
  6  7  1  0
  7  8  1  0
  7  9  1  0
  9 10  1  0
  9 11  1  0
 11 12  1  0
 11 13  1  0
 13 14  2  0
 13 15  2  0
 13 16  1  0
 16 17  2  0
 17 18  1  0
 17 19  1  0
 19 20  1  0
 19 21  2  0
 21 22  1  0
 21 23  1  0
 23 24  1  0
 23 25  2  0
 25 26  1  0
  6 27  1  0
 27 28  1  0
 27 29  2  0
 29 30  1  0
 29  2  1  0
 25 16  1  0
M  END
>  <plip>  (1) 
-0.10344827586206896

>  <filename>  (1) 
[H][c]1[n][c]([H])[c]([N]([H])[N]([H])[N]([H])[S](=[O])(=[O])[c]2[c]([H])[c]([H])[c]([H])[c]([H])[c]2[H])[c]([H])[c]1[H]

$$$$
