
     RDKit          3D

 39 41  0  0  0  0  0  0  0  0999 V2000
    9.4829   -1.4423   20.8232 C   0  0  0  0  0  0  0  0  0  0  0  0
    8.5458   -0.4293   21.3144 N   0  0  0  0  0  0  0  0  0  0  0  0
    8.9051    0.8002   21.8804 C   0  0  0  0  0  0  0  0  0  0  0  0
    8.0561    1.6619   22.0790 O   0  0  0  0  0  0  0  0  0  0  0  0
   10.3573    1.0579   22.2585 C   0  0  0  0  0  0  0  0  0  0  0  0
   11.3364    0.1452   22.3398 N   0  0  0  0  0  0  0  0  0  0  0  0
   12.4524    0.7893   22.6834 N   0  0  0  0  0  0  0  0  0  0  0  0
   13.6789    0.0679   22.9099 C   0  0  0  0  0  0  0  0  0  0  0  0
   14.5092    0.6268   22.4671 H   0  0  0  0  0  0  0  0  0  0  0  0
   13.5684   -0.8981   22.4168 H   0  0  0  0  0  0  0  0  0  0  0  0
   13.8560   -0.0618   23.9823 H   0  0  0  0  0  0  0  0  0  0  0  0
   12.2537    2.1199   22.8324 C   0  0  0  0  0  0  0  0  0  0  0  0
   13.1604    3.1686   23.0682 C   0  0  0  0  0  0  0  0  0  0  0  0
   12.6665    4.4532   23.0863 C   0  0  0  0  0  0  0  0  0  0  0  0
   11.2830    4.6846   22.8861 C   0  0  0  0  0  0  0  0  0  0  0  0
   10.8601    5.9583   22.9134 F   0  0  0  0  0  0  0  0  0  0  0  0
   10.3724    3.6730   22.6510 C   0  0  0  0  0  0  0  0  0  0  0  0
   10.8866    2.3526   22.5958 C   0  0  0  0  0  0  0  0  0  0  0  0
    9.3215    3.8801   22.4818 H   0  0  0  0  0  0  0  0  0  0  0  0
   13.3319    5.2999   23.2066 H   0  0  0  0  0  0  0  0  0  0  0  0
   14.2179    2.9588   23.1684 H   0  0  0  0  0  0  0  0  0  0  0  0
    7.1121   -0.7172   21.1427 C   0  0  0  0  0  0  0  0  0  0  0  0
    6.5958   -2.4069   21.2543 C   0  0  0  0  0  0  0  0  0  0  0  0
    5.4592   -2.5942   20.8246 O   0  0  0  0  0  0  0  0  0  0  0  0
    7.4283   -3.1629   21.7638 O   0  0  0  0  0  1  0  0  0  0  0  0
    6.5473    0.0424   19.9488 C   0  0  0  0  0  0  0  0  0  0  0  0
    5.3059    0.6823   20.0704 C   0  0  0  0  0  0  0  0  0  0  0  0
    4.7536    1.3383   18.9648 C   0  0  0  0  0  0  0  0  0  0  0  0
    5.4772    1.3381   17.7696 C   0  0  0  0  0  0  0  0  0  0  0  0
    6.6803    0.7571   17.6294 N   0  0  0  0  0  0  0  0  0  0  0  0
    7.2019    0.1536   18.7095 C   0  0  0  0  0  0  0  0  0  0  0  0
    8.2029   -0.2614   18.5747 H   0  0  0  0  0  0  0  0  0  0  0  0
    5.0768    1.8197   16.8783 H   0  0  0  0  0  0  0  0  0  0  0  0
    3.8020    1.8581   19.0231 H   0  0  0  0  0  0  0  0  0  0  0  0
    4.8077    0.7049   21.0393 H   0  0  0  0  0  0  0  0  0  0  0  0
    6.6112   -0.3488   22.0476 H   0  0  0  0  0  0  0  0  0  0  0  0
   10.3969   -0.9649   20.4678 H   0  0  0  0  0  0  0  0  0  0  0  0
    9.7136   -2.1769   21.6009 H   0  0  0  0  0  0  0  0  0  0  0  0
    9.0239   -1.9699   19.9907 H   0  0  0  0  0  0  0  0  0  0  0  0
  1  2  1  0
  2  3  1  0
  3  4  2  0
  3  5  1  0
  5  6  2  0
  6  7  1  0
  7  8  1  0
  8  9  1  0
  8 10  1  0
  8 11  1  0
  7 12  1  0
 12 13  2  0
 13 14  1  0
 14 15  2  0
 15 16  1  0
 15 17  1  0
 17 18  2  0
 17 19  1  0
 14 20  1  0
 13 21  1  0
  2 22  1  0
 22 23  1  0
 23 24  2  0
 23 25  1  0
 22 26  1  0
 26 27  2  0
 27 28  1  0
 28 29  2  0
 29 30  1  0
 30 31  2  0
 31 32  1  0
 29 33  1  0
 28 34  1  0
 27 35  1  0
 22 36  1  0
  1 37  1  0
  1 38  1  0
  1 39  1  0
 18  5  1  0
 31 26  1  0
 18 12  1  0
M  CHG  1  25  -1
M  END
>  <plip>  (1) 
-0.06896551724137931

>  <filename>  (1) 
[H][c]1[n][c]([H])[c]([C]([H])([C](=[O])[O-])[N]([C](=[O])[c]2[n][n]([C]([H])([H])[H])[c]3[c]([H])[c]([H])[c]([F])[c]([H])[c]23)[C]([H])([H])[H])[c]([H])[c]1[H]

$$$$
