
     RDKit          3D

 34 35  0  0  0  0  0  0  0  0999 V2000
    7.4668   -1.9952   21.0476 C   0  0  0  0  0  0  0  0  0  0  0  0
    7.3161   -0.4933   21.2596 C   0  0  1  0  0  0  0  0  0  0  0  0
    8.6573    0.0795   21.3128 N   0  0  0  0  0  4  0  0  0  0  0  0
    9.3169   -0.2320   22.5974 C   0  0  0  0  0  0  0  0  0  0  0  0
   10.6438    0.4625   22.7141 C   0  0  0  0  0  0  0  0  0  0  0  0
   11.7805   -0.2224   22.2779 C   0  0  0  0  0  0  0  0  0  0  0  0
   11.5567   -1.9422   21.5012 Br  0  0  0  0  0  0  0  0  0  0  0  0
   13.0543    0.3283   22.4387 C   0  0  0  0  0  0  0  0  0  0  0  0
   14.1558   -0.3582   22.0253 O   0  0  0  0  0  0  0  0  0  0  0  0
   13.8649   -1.2149   21.6751 H   0  0  0  0  0  0  0  0  0  0  0  0
   13.2041    1.5702   23.0379 C   0  0  0  0  0  0  0  0  0  0  0  0
   12.0759    2.2666   23.4844 C   0  0  0  0  0  0  0  0  0  0  0  0
   10.7980    1.7163   23.3240 C   0  0  0  0  0  0  0  0  0  0  0  0
    9.9338    2.2638   23.6879 H   0  0  0  0  0  0  0  0  0  0  0  0
   12.1871    3.2338   23.9592 H   0  0  0  0  0  0  0  0  0  0  0  0
   14.2078    1.9656   23.1448 H   0  0  0  0  0  0  0  0  0  0  0  0
    8.6701    0.0489   23.4374 H   0  0  0  0  0  0  0  0  0  0  0  0
    9.5096   -1.3142   22.6686 H   0  0  0  0  0  0  0  0  0  0  0  0
    9.2074   -0.2987   20.5401 H   0  0  0  0  0  0  0  0  0  0  0  0
    8.5877    1.0919   21.2008 H   0  0  0  0  0  0  0  0  0  0  0  0
    6.6392    0.1639   20.0947 C   0  0  0  0  0  0  0  0  0  0  0  0
    5.3967    0.8020   20.2122 C   0  0  0  0  0  0  0  0  0  0  0  0
    4.8489    1.3677   19.0598 C   0  0  0  0  0  0  0  0  0  0  0  0
    5.5312    1.2903   17.8442 C   0  0  0  0  0  0  0  0  0  0  0  0
    6.7165    0.6653   17.7303 N   0  0  0  0  0  0  0  0  0  0  0  0
    7.2520    0.1233   18.8384 C   0  0  0  0  0  0  0  0  0  0  0  0
    8.2037   -0.3889   18.7607 H   0  0  0  0  0  0  0  0  0  0  0  0
    5.0814    1.7444   16.9644 H   0  0  0  0  0  0  0  0  0  0  0  0
    3.8959    1.8804   19.0873 H   0  0  0  0  0  0  0  0  0  0  0  0
    4.8628    0.8635   21.1603 H   0  0  0  0  0  0  0  0  0  0  0  0
    6.7647   -0.3038   22.1920 H   0  0  0  0  0  0  0  0  0  0  0  0
    7.6328   -2.5018   22.0040 H   0  0  0  0  0  0  0  0  0  0  0  0
    8.3363   -2.1758   20.4137 H   0  0  0  0  0  0  0  0  0  0  0  0
    6.5737   -2.4147   20.5723 H   0  0  0  0  0  0  0  0  0  0  0  0
  1  2  1  0
  2  3  1  0
  3  4  1  0
  4  5  1  0
  5  6  2  0
  6  7  1  0
  6  8  1  0
  8  9  1  0
  9 10  1  0
  8 11  2  0
 11 12  1  0
 12 13  2  0
 13 14  1  0
 12 15  1  0
 11 16  1  0
  4 17  1  0
  4 18  1  0
  3 19  1  0
  3 20  1  0
  2 21  1  0
 21 22  2  0
 22 23  1  0
 23 24  2  0
 24 25  1  0
 25 26  2  0
 26 27  1  0
 24 28  1  0
 23 29  1  0
 22 30  1  0
  2 31  1  1
  1 32  1  0
  1 33  1  0
  1 34  1  0
 13  5  1  0
 26 21  1  0
M  CHG  1   3   1
M  END
>  <plip>  (1) 
-0.10344827586206896

>  <filename>  (1) 
[H][O][c]1[c]([H])[c]([H])[c]([H])[c]([C]([H])([H])[N+]([H])([H])[C@@]([H])([c]2[c]([H])[n][c]([H])[c]([H])[c]2[H])[C]([H])([H])[H])[c]1[Br]

$$$$
