
     RDKit          3D

 43 45  0  0  0  0  0  0  0  0999 V2000
    4.9323    1.8115   16.9709 H   0  0  0  0  0  0  0  0  0  0  0  0
    5.3896    1.3069   17.8211 C   0  0  0  0  0  0  0  0  0  0  0  0
    6.5561    0.6913   17.5818 N   0  0  0  0  0  0  0  0  0  0  0  0
    7.1505    0.0714   18.6099 C   0  0  0  0  0  0  0  0  0  0  0  0
    8.1041   -0.4014   18.3772 H   0  0  0  0  0  0  0  0  0  0  0  0
    6.6172   -0.0039   19.9100 C   0  0  0  0  0  0  0  0  0  0  0  0
    7.3263   -0.7733   21.0104 C   0  0  0  0  0  0  0  0  0  0  0  0
    6.8149   -0.6102   21.9690 H   0  0  0  0  0  0  0  0  0  0  0  0
    7.2389   -1.8523   20.8198 H   0  0  0  0  0  0  0  0  0  0  0  0
    8.7867   -0.4433   21.1347 C   0  0  0  0  0  0  0  0  0  0  0  0
    9.8652   -1.2651   20.7336 C   0  0  0  0  0  0  0  0  0  0  0  0
    9.8125   -2.2338   20.2426 H   0  0  0  0  0  0  0  0  0  0  0  0
   11.0487   -0.7218   20.9651 N   0  0  0  0  0  0  0  0  0  0  0  0
   10.7459    0.4759   21.5128 N   0  0  0  0  0  0  0  0  0  0  0  0
   11.4509    1.1076   21.8688 H   0  0  0  0  0  0  0  0  0  0  0  0
    9.4193    0.6814   21.6322 C   0  0  0  0  0  0  0  0  0  0  0  0
    9.0667    1.8441   22.1948 O   0  0  0  0  0  0  0  0  0  0  0  0
    7.6896    2.2207   22.1777 C   0  0  0  0  0  0  0  0  0  0  0  0
    7.3729    2.3206   21.1349 H   0  0  0  0  0  0  0  0  0  0  0  0
    7.0831    1.4521   22.6718 H   0  0  0  0  0  0  0  0  0  0  0  0
    7.5556    3.5546   22.8996 C   0  0  0  0  0  0  0  0  0  0  0  0
    8.2323    4.2596   22.3955 H   0  0  0  0  0  0  0  0  0  0  0  0
    6.5202    3.9120   22.7452 H   0  0  0  0  0  0  0  0  0  0  0  0
    7.9270    3.5001   24.3189 N   0  0  0  0  0  0  0  0  0  0  0  0
    6.8554    3.0931   25.2303 C   0  0  0  0  0  0  0  0  0  0  0  0
    7.3329    2.7351   26.1580 H   0  0  0  0  0  0  0  0  0  0  0  0
    6.3409    2.2303   24.7853 H   0  0  0  0  0  0  0  0  0  0  0  0
    5.8552    4.2265   25.5587 C   0  0  0  0  0  0  0  0  0  0  0  0
    5.1291    3.8718   26.3014 H   0  0  0  0  0  0  0  0  0  0  0  0
    5.2792    4.4530   24.6486 H   0  0  0  0  0  0  0  0  0  0  0  0
    6.5847    5.4973   26.0491 C   0  0  0  0  0  0  0  0  0  0  0  0
    5.8766    6.3268   26.1808 H   0  0  0  0  0  0  0  0  0  0  0  0
    7.0182    5.3074   27.0446 H   0  0  0  0  0  0  0  0  0  0  0  0
    7.7143    5.8827   25.0699 C   0  0  0  0  0  0  0  0  0  0  0  0
    8.2958    6.7374   25.4384 H   0  0  0  0  0  0  0  0  0  0  0  0
    7.2876    6.1920   24.1028 H   0  0  0  0  0  0  0  0  0  0  0  0
    8.6401    4.6759   24.8200 C   0  0  0  0  0  0  0  0  0  0  0  0
    9.1412    4.3818   25.7564 H   0  0  0  0  0  0  0  0  0  0  0  0
    9.4368    4.9227   24.1045 H   0  0  0  0  0  0  0  0  0  0  0  0
    5.4072    0.6599   20.1388 C   0  0  0  0  0  0  0  0  0  0  0  0
    4.9827    0.6760   21.1443 H   0  0  0  0  0  0  0  0  0  0  0  0
    4.7789    1.3235   19.0796 C   0  0  0  0  0  0  0  0  0  0  0  0
    3.8480    1.8629   19.2196 H   0  0  0  0  0  0  0  0  0  0  0  0
  1  2  1  0
  2  3  2  0
  3  4  1  0
  4  5  1  0
  4  6  2  0
  6  7  1  0
  7  8  1  0
  7  9  1  0
  7 10  1  0
 10 11  1  0
 11 12  1  0
 11 13  2  0
 13 14  1  0
 14 15  1  0
 14 16  1  0
 16 17  1  0
 17 18  1  0
 18 19  1  0
 18 20  1  0
 18 21  1  0
 21 22  1  0
 21 23  1  0
 21 24  1  0
 24 25  1  0
 25 26  1  0
 25 27  1  0
 25 28  1  0
 28 29  1  0
 28 30  1  0
 28 31  1  0
 31 32  1  0
 31 33  1  0
 31 34  1  0
 34 35  1  0
 34 36  1  0
 34 37  1  0
 37 38  1  0
 37 39  1  0
  6 40  1  0
 40 41  1  0
 40 42  2  0
 42 43  1  0
 42  2  1  0
 16 10  2  0
 37 24  1  0
M  END
>  <plip>  (1) 
-0.03571428571428571

>  <filename>  (1) 
[H][c]1[n][c]([H])[c]([C]([H])([H])[c]2[c]([H])[n][n]([H])[c]2[O][C]([H])([H])[C]([H])([H])[N]2[C]([H])([H])[C]([H])([H])[C]([H])([H])[C]([H])([H])[C]2([H])[H])[c]([H])[c]1[H]

$$$$
