
     RDKit          3D

 27 28  0  0  0  0  0  0  0  0999 V2000
   13.0542   -1.1669   21.5699 O   0  0  0  0  0  0  0  0  0  0  0  0
   11.8417   -1.0748   21.6498 N   0  0  0  0  0  4  0  0  0  0  0  0
   11.1064   -2.0356   21.8719 O   0  0  0  0  0  1  0  0  0  0  0  0
   11.2503    0.2408   21.5289 C   0  0  0  0  0  0  0  0  0  0  0  0
   12.0042    1.3623   21.8731 C   0  0  0  0  0  0  0  0  0  0  0  0
   11.4614    2.5603   22.0353 N   0  0  0  0  0  0  0  0  0  0  0  0
   10.1463    2.7002   21.7902 C   0  0  0  0  0  0  0  0  0  0  0  0
    9.3384    1.6772   21.3316 C   0  0  0  0  0  0  0  0  0  0  0  0
    9.9088    0.4280   21.1936 C   0  0  0  0  0  0  0  0  0  0  0  0
    9.1970   -0.6234   20.6614 N   0  0  0  0  0  0  0  0  0  0  0  0
    7.6229   -0.8305   21.1342 S   0  0  0  0  0  0  0  0  0  0  0  0
    7.3835   -0.2189   22.4221 O   0  0  0  0  0  0  0  0  0  0  0  0
    7.5050   -2.2583   20.9272 O   0  0  0  0  0  0  0  0  0  0  0  0
    6.7274    0.0369   19.9419 C   0  0  0  0  0  0  0  0  0  0  0  0
    5.5077    0.6676   20.2145 C   0  0  0  0  0  0  0  0  0  0  0  0
    4.8761    1.2855   19.1384 C   0  0  0  0  0  0  0  0  0  0  0  0
    5.4843    1.2454   17.8772 C   0  0  0  0  0  0  0  0  0  0  0  0
    6.6522    0.6310   17.6447 N   0  0  0  0  0  0  0  0  0  0  0  0
    7.2635    0.0318   18.6636 C   0  0  0  0  0  0  0  0  0  0  0  0
    8.2159   -0.4383   18.4340 H   0  0  0  0  0  0  0  0  0  0  0  0
    5.0109    1.7252   17.0211 H   0  0  0  0  0  0  0  0  0  0  0  0
    3.9298    1.8032   19.2542 H   0  0  0  0  0  0  0  0  0  0  0  0
    5.0668    0.6928   21.2168 H   0  0  0  0  0  0  0  0  0  0  0  0
    9.5368   -1.5295   20.9672 H   0  0  0  0  0  0  0  0  0  0  0  0
    8.2929    1.8212   21.1012 H   0  0  0  0  0  0  0  0  0  0  0  0
    9.7238    3.6787   21.9900 H   0  0  0  0  0  0  0  0  0  0  0  0
   13.0789    1.2746   22.0378 H   0  0  0  0  0  0  0  0  0  0  0  0
  1  2  2  0
  2  3  1  0
  2  4  1  0
  4  5  2  0
  5  6  1  0
  6  7  2  0
  7  8  1  0
  8  9  2  0
  9 10  1  0
 10 11  1  0
 11 12  2  0
 11 13  2  0
 11 14  1  0
 14 15  2  0
 15 16  1  0
 16 17  2  0
 17 18  1  0
 18 19  2  0
 19 20  1  0
 17 21  1  0
 16 22  1  0
 15 23  1  0
 10 24  1  0
  8 25  1  0
  7 26  1  0
  5 27  1  0
  9  4  1  0
 19 14  1  0
M  CHG  2   2   1   3  -1
M  END
>  <plip>  (1) 
-0.034482758620689655

>  <filename>  (1) 
[H][c]1[n][c]([H])[c]([S](=[O])(=[O])[N]([H])[c]2[c]([H])[c]([H])[n][c]([H])[c]2[N+](=[O])[O-])[c]([H])[c]1[H]

$$$$
