
     RDKit          3D

 39 41  0  0  0  0  0  0  0  0999 V2000
    8.8527   -3.1079   24.5599 C   0  0  0  0  0  0  0  0  0  0  0  0
    7.9849   -1.8817   24.2597 C   0  0  0  0  0  0  0  0  0  0  0  0
    7.9443   -1.3948   22.8691 C   0  0  0  0  0  0  0  0  0  0  0  0
    7.0753   -0.5931   22.3514 N   0  0  0  0  0  0  0  0  0  0  0  0
    7.4418   -0.6085   21.0227 C   0  0  0  0  0  0  0  0  0  0  0  0
    6.6693    0.0443   19.9618 C   0  0  0  0  0  0  0  0  0  0  0  0
    5.4350    0.6683   20.1920 C   0  0  0  0  0  0  0  0  0  0  0  0
    4.8106    1.2984   19.1159 C   0  0  0  0  0  0  0  0  0  0  0  0
    5.4294    1.2693   17.8602 C   0  0  0  0  0  0  0  0  0  0  0  0
    6.5872    0.6377   17.6253 N   0  0  0  0  0  0  0  0  0  0  0  0
    7.1864    0.0389   18.6567 C   0  0  0  0  0  0  0  0  0  0  0  0
    8.1249   -0.4648   18.4333 H   0  0  0  0  0  0  0  0  0  0  0  0
    4.9771    1.7750   17.0085 H   0  0  0  0  0  0  0  0  0  0  0  0
    3.8741    1.8293   19.2363 H   0  0  0  0  0  0  0  0  0  0  0  0
    4.9822    0.6688   21.1871 H   0  0  0  0  0  0  0  0  0  0  0  0
    8.5261   -1.2973   20.7695 N   0  0  0  0  0  0  0  0  0  0  0  0
    8.8662   -1.8182   22.0083 O   0  0  0  0  0  0  0  0  0  0  0  0
    8.2744   -0.3766   25.2099 S   0  0  0  0  0  0  0  0  0  0  0  0
    7.0461    0.3988   25.1205 O   0  0  0  0  0  0  0  0  0  0  0  0
    8.7473   -0.8292   26.5139 O   0  0  0  0  0  0  0  0  0  0  0  0
    9.5900    0.6148   24.3975 C   0  0  0  0  0  0  0  0  0  0  0  0
    9.8055    1.9610   25.1270 C   0  0  0  0  0  0  0  0  0  0  0  0
   10.8505    2.7783   24.3596 C   0  0  0  0  0  0  0  0  0  0  0  0
   12.0842    2.0761   24.3580 O   0  0  0  0  0  0  0  0  0  0  0  0
   12.0080    0.8365   23.6647 C   0  0  0  0  0  0  0  0  0  0  0  0
   10.9336   -0.1194   24.2164 C   0  0  0  0  0  0  0  0  0  0  0  0
   10.8359   -0.9766   23.5325 H   0  0  0  0  0  0  0  0  0  0  0  0
   11.2668   -0.4939   25.1934 H   0  0  0  0  0  0  0  0  0  0  0  0
   12.9946    0.3689   23.7463 H   0  0  0  0  0  0  0  0  0  0  0  0
   11.8243    1.0255   22.5941 H   0  0  0  0  0  0  0  0  0  0  0  0
   11.0364    3.7671   24.7890 H   0  0  0  0  0  0  0  0  0  0  0  0
   10.5208    2.9526   23.3189 H   0  0  0  0  0  0  0  0  0  0  0  0
   10.1906    1.7649   26.1381 H   0  0  0  0  0  0  0  0  0  0  0  0
    8.8610    2.5042   25.2193 H   0  0  0  0  0  0  0  0  0  0  0  0
    9.1136    0.8225   23.4345 H   0  0  0  0  0  0  0  0  0  0  0  0
    6.9564   -2.0510   24.5948 H   0  0  0  0  0  0  0  0  0  0  0  0
    9.9115   -2.9495   24.3257 H   0  0  0  0  0  0  0  0  0  0  0  0
    8.5034   -3.9599   23.9668 H   0  0  0  0  0  0  0  0  0  0  0  0
    8.7700   -3.3748   25.6178 H   0  0  0  0  0  0  0  0  0  0  0  0
  1  2  1  0
  2  3  1  0
  3  4  2  0
  4  5  1  0
  5  6  1  0
  6  7  2  0
  7  8  1  0
  8  9  2  0
  9 10  1  0
 10 11  2  0
 11 12  1  0
  9 13  1  0
  8 14  1  0
  7 15  1  0
  5 16  2  0
 16 17  1  0
  2 18  1  0
 18 19  2  0
 18 20  2  0
 18 21  1  0
 21 22  1  0
 22 23  1  0
 23 24  1  0
 24 25  1  0
 25 26  1  0
 26 27  1  0
 26 28  1  0
 25 29  1  0
 25 30  1  0
 23 31  1  0
 23 32  1  0
 22 33  1  0
 22 34  1  0
 21 35  1  0
  2 36  1  0
  1 37  1  0
  1 38  1  0
  1 39  1  0
 17  3  1  0
 26 21  1  0
 11  6  1  0
M  END
>  <plip>  (1) 
-0.03571428571428571

>  <filename>  (1) 
[H][c]1[n][c]([H])[c](-[c]2[n][o][c]([C]([H])([C]([H])([H])[H])[S](=[O])(=[O])[C]3([H])[C]([H])([H])[C]([H])([H])[O][C]([H])([H])[C]3([H])[H])[n]2)[c]([H])[c]1[H]

$$$$
