
     RDKit          3D

 33 34  0  0  0  0  0  0  0  0999 V2000
    8.3953   -5.7964   25.2327 H   0  0  0  0  0  0  0  0  0  0  0  0
    8.4876   -5.1804   25.9981 O   0  0  0  0  0  0  0  0  0  0  0  0
    7.7992   -4.1214   25.1033 P   0  0  0  0  0  0  0  0  0  0  0  0
    6.3634   -4.0005   25.3308 O   0  0  0  0  0  0  0  0  0  0  0  0
    8.5753   -5.2566   24.4750 O   0  0  0  0  0  0  0  0  0  0  0  0
    9.1134   -5.2991   25.3062 H   0  0  0  0  0  0  0  0  0  0  0  0
    8.3508   -2.4919   24.6411 C   0  0  0  0  0  0  0  0  0  0  0  0
    9.3389   -2.6097   24.2123 H   0  0  0  0  0  0  0  0  0  0  0  0
    7.5949   -1.3534   23.8680 N   0  0  0  0  0  0  0  0  0  0  0  0
    6.6084   -1.1700   24.1099 H   0  0  0  0  0  0  0  0  0  0  0  0
    7.7292   -1.1771   22.4646 N   0  0  0  0  0  0  0  0  0  0  0  0
    6.7802   -0.5288   21.7430 N   0  0  0  0  0  0  0  0  0  0  0  0
    7.2518   -0.4531   20.5246 C   0  0  0  0  0  0  0  0  0  0  0  0
    6.5830    0.2071   19.4137 C   0  0  0  0  0  0  0  0  0  0  0  0
    7.1813    0.1665   18.1557 C   0  0  0  0  0  0  0  0  0  0  0  0
    8.1136   -0.3789   18.0335 H   0  0  0  0  0  0  0  0  0  0  0  0
    6.6623    0.7829   17.0834 N   0  0  0  0  0  0  0  0  0  0  0  0
    5.5166    1.4689   17.2317 C   0  0  0  0  0  0  0  0  0  0  0  0
    5.1008    1.9878   16.3743 H   0  0  0  0  0  0  0  0  0  0  0  0
    4.8450    1.5375   18.4524 C   0  0  0  0  0  0  0  0  0  0  0  0
    3.9235    2.1048   18.5168 H   0  0  0  0  0  0  0  0  0  0  0  0
    5.3756    0.8998   19.5706 C   0  0  0  0  0  0  0  0  0  0  0  0
    4.8714    0.9550   20.5351 H   0  0  0  0  0  0  0  0  0  0  0  0
    8.5552   -1.0866   20.4439 C   0  0  0  0  0  0  0  0  0  0  0  0
    9.1855   -1.1652   19.5667 H   0  0  0  0  0  0  0  0  0  0  0  0
    8.8217   -1.5301   21.7038 C   0  0  0  0  0  0  0  0  0  0  0  0
    9.7027   -2.0371   22.0754 H   0  0  0  0  0  0  0  0  0  0  0  0
    8.5389   -2.6938   26.3824 P   0  0  0  0  0  0  0  0  0  0  0  0
    9.8046   -3.4191   26.5587 O   0  0  0  0  0  0  0  0  0  0  0  0
    7.4291   -3.0100   27.3845 O   0  0  0  0  0  0  0  0  0  0  0  0
    7.2805   -2.0314   27.4454 H   0  0  0  0  0  0  0  0  0  0  0  0
    8.1266   -1.6284   27.3361 O   0  0  0  0  0  0  0  0  0  0  0  0
    7.8725   -2.3785   27.9348 H   0  0  0  0  0  0  0  0  0  0  0  0
  1  2  1  0
  2  3  1  0
  3  4  2  0
  3  5  1  0
  5  6  1  0
  3  7  1  0
  7  8  1  0
  7  9  1  0
  9 10  1  0
  9 11  1  0
 11 12  1  0
 12 13  2  0
 13 14  1  0
 14 15  2  0
 15 16  1  0
 15 17  1  0
 17 18  2  0
 18 19  1  0
 18 20  1  0
 20 21  1  0
 20 22  2  0
 22 23  1  0
 13 24  1  0
 24 25  1  0
 24 26  2  0
 26 27  1  0
  7 28  1  0
 28 29  2  0
 28 30  1  0
 30 31  1  0
 28 32  1  0
 32 33  1  0
 26 11  1  0
 22 14  1  0
M  END
>  <plip>  (1) 
-0.10344827586206896

>  <filename>  (1) 
[H][O][P](=[O])([O][H])[C]([H])([N]([H])[n]1[n][c](-[c]2[c]([H])[n][c]([H])[c]([H])[c]2[H])[c]([H])[c]1[H])[P](=[O])([O][H])[O][H]

$$$$
