
     RDKit          3D

 26 27  0  0  0  0  0  0  0  0999 V2000
    6.6469   -0.4201   21.8295 H   0  0  0  0  0  0  0  0  0  0  0  0
    7.1776   -0.4774   20.8654 C   0  0  0  0  0  0  0  0  0  0  0  0
    8.3213   -1.0444   20.7741 N   0  0  0  0  0  0  0  0  0  0  0  0
    8.8290   -1.7741   21.8835 C   0  0  0  0  0  0  0  0  0  0  0  0
    8.0508   -2.4016   22.8929 C   0  0  0  0  0  0  0  0  0  0  0  0
    6.9730   -2.3184   22.8878 H   0  0  0  0  0  0  0  0  0  0  0  0
    8.5499   -3.1770   23.8466 N   0  0  0  0  0  0  0  0  0  0  0  0
    9.8729   -3.4036   23.8767 C   0  0  0  0  0  0  0  0  0  0  0  0
   10.3206   -4.4134   24.9481 C   0  0  0  0  0  0  0  0  0  0  0  0
   10.1822   -3.9211   26.1909 F   0  0  0  0  0  0  0  0  0  0  0  0
    9.6059   -5.5487   24.8922 F   0  0  0  0  0  0  0  0  0  0  0  0
   11.6084   -4.7671   24.7969 F   0  0  0  0  0  0  0  0  0  0  0  0
   10.7481   -2.7893   22.9604 C   0  0  0  0  0  0  0  0  0  0  0  0
   11.8179   -2.9747   22.9856 H   0  0  0  0  0  0  0  0  0  0  0  0
   10.2191   -1.9652   21.9643 C   0  0  0  0  0  0  0  0  0  0  0  0
   10.8437   -1.4728   21.2207 H   0  0  0  0  0  0  0  0  0  0  0  0
    6.4881    0.1724   19.7571 C   0  0  0  0  0  0  0  0  0  0  0  0
    7.0263    0.1725   18.4606 C   0  0  0  0  0  0  0  0  0  0  0  0
    7.9593   -0.3463   18.2526 H   0  0  0  0  0  0  0  0  0  0  0  0
    6.4443    0.7853   17.4288 N   0  0  0  0  0  0  0  0  0  0  0  0
    5.2899    1.4317   17.6527 C   0  0  0  0  0  0  0  0  0  0  0  0
    4.8519    1.9387   16.7963 H   0  0  0  0  0  0  0  0  0  0  0  0
    4.6537    1.4703   18.8980 C   0  0  0  0  0  0  0  0  0  0  0  0
    3.7179    2.0081   19.0125 H   0  0  0  0  0  0  0  0  0  0  0  0
    5.2625    0.8260   19.9702 C   0  0  0  0  0  0  0  0  0  0  0  0
    4.7987    0.8338   20.9573 H   0  0  0  0  0  0  0  0  0  0  0  0
  1  2  1  0
  2  3  2  3
  3  4  1  0
  4  5  2  0
  5  6  1  0
  5  7  1  0
  7  8  2  0
  8  9  1  0
  9 10  1  0
  9 11  1  0
  9 12  1  0
  8 13  1  0
 13 14  1  0
 13 15  2  0
 15 16  1  0
  2 17  1  0
 17 18  2  0
 18 19  1  0
 18 20  1  0
 20 21  2  0
 21 22  1  0
 21 23  1  0
 23 24  1  0
 23 25  2  0
 25 26  1  0
 15  4  1  0
 25 17  1  0
M  END
>  <plip>  (1) 
-0.07142857142857142

>  <filename>  (1) 
[H][C](=[N][c]1[c]([H])[n][c]([C]([F])([F])[F])[c]([H])[c]1[H])[c]1[c]([H])[n][c]([H])[c]([H])[c]1[H]

$$$$
