
     RDKit          3D

 30 32  0  0  0  0  0  0  0  0999 V2000
    4.9431    1.8245   16.9683 H   0  0  0  0  0  0  0  0  0  0  0  0
    5.3979    1.3051   17.8102 C   0  0  0  0  0  0  0  0  0  0  0  0
    6.5534    0.6682   17.5644 N   0  0  0  0  0  0  0  0  0  0  0  0
    7.1434    0.0493   18.5960 C   0  0  0  0  0  0  0  0  0  0  0  0
    8.0825   -0.4491   18.3544 H   0  0  0  0  0  0  0  0  0  0  0  0
    6.6255   -0.0079   19.9101 C   0  0  0  0  0  0  0  0  0  0  0  0
    7.3588   -0.7150   21.0098 C   0  0  0  0  0  0  0  0  0  0  0  0
    8.7775   -0.5714   21.1417 C   0  0  0  0  0  0  0  0  0  0  0  0
    9.3102    0.0856   20.4494 H   0  0  0  0  0  0  0  0  0  0  0  0
    9.4530   -1.2304   22.1234 C   0  0  0  0  0  0  0  0  0  0  0  0
   10.5212   -1.1669   22.2639 H   0  0  0  0  0  0  0  0  0  0  0  0
    8.8168   -2.1194   23.0811 C   0  0  0  0  0  0  0  0  0  0  0  0
    9.4542   -2.7159   23.9358 O   0  0  0  0  0  0  0  0  0  0  0  0
    7.3897   -2.2145   22.9134 N   0  0  0  0  0  0  0  0  0  0  0  0
    6.6346   -3.1800   23.6211 N   0  0  0  0  0  0  0  0  0  0  0  0
    5.6355   -3.0362   23.4608 H   0  0  0  0  0  0  0  0  0  0  0  0
    6.8669   -3.2169   25.0402 C   0  0  0  0  0  0  0  0  0  0  0  0
    7.1379   -2.2826   25.5208 H   0  0  0  0  0  0  0  0  0  0  0  0
    6.0065   -4.1748   25.8046 C   0  0  0  0  0  0  0  0  0  0  0  0
    5.7389   -3.9248   26.8311 H   0  0  0  0  0  0  0  0  0  0  0  0
    5.2275   -4.7107   25.2608 H   0  0  0  0  0  0  0  0  0  0  0  0
    7.4571   -4.4966   25.5395 C   0  0  0  0  0  0  0  0  0  0  0  0
    8.1726   -4.4561   26.3574 H   0  0  0  0  0  0  0  0  0  0  0  0
    7.6826   -5.2114   24.7523 H   0  0  0  0  0  0  0  0  0  0  0  0
    6.7206   -1.5349   21.9115 C   0  0  0  0  0  0  0  0  0  0  0  0
    5.6490   -1.7324   21.8628 H   0  0  0  0  0  0  0  0  0  0  0  0
    5.4036    0.6506   20.1297 C   0  0  0  0  0  0  0  0  0  0  0  0
    4.9672    0.6704   21.1296 H   0  0  0  0  0  0  0  0  0  0  0  0
    4.7906    1.3212   19.0686 C   0  0  0  0  0  0  0  0  0  0  0  0
    3.8618    1.8595   19.2048 H   0  0  0  0  0  0  0  0  0  0  0  0
  1  2  1  0
  2  3  2  0
  3  4  1  0
  4  5  1  0
  4  6  2  0
  6  7  1  0
  7  8  1  0
  8  9  1  0
  8 10  2  0
 10 11  1  0
 10 12  1  0
 12 13  2  0
 12 14  1  0
 14 15  1  0
 15 16  1  0
 15 17  1  0
 17 18  1  0
 17 19  1  0
 19 20  1  0
 19 21  1  0
 19 22  1  0
 22 23  1  0
 22 24  1  0
 14 25  1  0
 25 26  1  0
  6 27  1  0
 27 28  1  0
 27 29  2  0
 29 30  1  0
 29  2  1  0
 25  7  2  0
 22 17  1  0
M  END
>  <plip>  (1) 
-0.07142857142857142

>  <filename>  (1) 
[H][c]1[n][c]([H])[c](-[c]2[c]([H])[c]([H])[c](=[O])[n]([N]([H])[C]3([H])[C]([H])([H])[C]3([H])[H])[c]2[H])[c]([H])[c]1[H]

$$$$
