
     RDKit          3D

 33 34  0  0  0  0  0  0  0  0999 V2000
    7.9903    1.8758   21.5408 O   0  0  0  0  0  0  0  0  0  0  0  0
    7.7249    1.2894   22.5679 C   0  0  0  0  0  0  0  0  0  0  0  0
    7.9036    1.8666   23.9044 C   0  0  0  0  0  0  0  0  0  0  0  0
    8.1047    1.2567   25.0867 C   0  0  0  0  0  0  0  0  0  0  0  0
    8.5141   -0.4456   25.3460 S   0  0  0  0  0  0  0  0  0  0  0  0
    7.1766   -0.9456   26.4329 C   0  0  0  0  0  0  0  0  0  0  0  0
    6.2058   -1.8292   25.9451 C   0  0  0  0  0  0  0  0  0  0  0  0
    5.1323   -2.2137   26.7559 C   0  0  0  0  0  0  0  0  0  0  0  0
    5.0366   -1.7272   28.0650 C   0  0  0  0  0  0  0  0  0  0  0  0
    6.0232   -0.8693   28.5661 C   0  0  0  0  0  0  0  0  0  0  0  0
    7.0952   -0.4792   27.7530 C   0  0  0  0  0  0  0  0  0  0  0  0
    7.8690    0.1795   28.1425 H   0  0  0  0  0  0  0  0  0  0  0  0
    5.9649   -0.5117   29.5930 H   0  0  0  0  0  0  0  0  0  0  0  0
    4.2051   -2.0264   28.6984 H   0  0  0  0  0  0  0  0  0  0  0  0
    4.3803   -2.8913   26.3563 H   0  0  0  0  0  0  0  0  0  0  0  0
    6.2948   -2.2156   24.9321 H   0  0  0  0  0  0  0  0  0  0  0  0
    8.0391    1.8445   26.0031 H   0  0  0  0  0  0  0  0  0  0  0  0
    7.9193    2.9460   23.8399 H   0  0  0  0  0  0  0  0  0  0  0  0
    7.1398    0.0457   22.5445 N   0  0  0  0  0  0  0  0  0  0  0  0
    7.4811   -0.8122   21.1894 S   0  0  0  0  0  0  0  0  0  0  0  0
    8.8924   -0.7193   20.8831 O   0  0  0  0  0  0  0  0  0  0  0  0
    6.8465   -2.0838   21.4503 O   0  0  0  0  0  0  0  0  0  0  0  0
    6.6191    0.1132   20.0253 C   0  0  0  0  0  0  0  0  0  0  0  0
    5.3944    0.7591   20.2206 C   0  0  0  0  0  0  0  0  0  0  0  0
    4.8219    1.3292   19.0877 C   0  0  0  0  0  0  0  0  0  0  0  0
    5.4924    1.2440   17.8637 C   0  0  0  0  0  0  0  0  0  0  0  0
    6.6848    0.6523   17.7140 N   0  0  0  0  0  0  0  0  0  0  0  0
    7.2516    0.1239   18.7944 C   0  0  0  0  0  0  0  0  0  0  0  0
    8.2459   -0.2968   18.6652 H   0  0  0  0  0  0  0  0  0  0  0  0
    5.0632    1.6852   16.9655 H   0  0  0  0  0  0  0  0  0  0  0  0
    3.8845    1.8707   19.1368 H   0  0  0  0  0  0  0  0  0  0  0  0
    4.9181    0.8729   21.1994 H   0  0  0  0  0  0  0  0  0  0  0  0
    7.2757   -0.5637   23.3309 H   0  0  0  0  0  0  0  0  0  0  0  0
  1  2  2  0
  2  3  1  0
  3  4  2  3
  4  5  1  0
  5  6  1  0
  6  7  2  0
  7  8  1  0
  8  9  2  0
  9 10  1  0
 10 11  2  0
 11 12  1  0
 10 13  1  0
  9 14  1  0
  8 15  1  0
  7 16  1  0
  4 17  1  0
  3 18  1  0
  2 19  1  0
 19 20  1  0
 20 21  2  0
 20 22  2  0
 20 23  1  0
 23 24  2  0
 24 25  1  0
 25 26  2  0
 26 27  1  0
 27 28  2  0
 28 29  1  0
 26 30  1  0
 25 31  1  0
 24 32  1  0
 19 33  1  0
 11  6  1  0
 28 23  1  0
M  END
>  <plip>  (1) 
-0.07142857142857142

>  <filename>  (1) 
[H][C]([S][c]1[c]([H])[c]([H])[c]([H])[c]([H])[c]1[H])=[C]([H])[C](=[O])[N]([H])[S](=[O])(=[O])[c]1[c]([H])[n][c]([H])[c]([H])[c]1[H]

$$$$
