
     RDKit          3D

 39 39  0  0  0  0  0  0  0  0999 V2000
    7.6111   -2.4086   20.3431 H   0  0  0  0  0  0  0  0  0  0  0  0
    8.1621   -1.6454   20.5945 O   0  0  0  0  0  0  0  0  0  0  0  0
    7.2590   -0.6506   20.9868 N   0  0  0  0  0  0  0  0  0  0  0  0
    7.2549   -0.2017   22.3337 C   0  0  0  0  0  0  0  0  0  0  0  0
    6.6904    0.8168   22.6685 O   0  0  0  0  0  0  0  0  0  0  0  0
    7.8734   -1.1184   23.2085 N   0  0  0  0  0  0  0  0  0  0  0  0
    8.7960   -1.3438   22.8562 H   0  0  0  0  0  0  0  0  0  0  0  0
    8.0087   -0.6768   24.5319 O   0  0  0  0  0  0  0  0  0  0  0  0
    6.7611   -0.9002   25.1974 C   0  0  0  0  0  0  0  0  0  0  0  0
    5.9584   -0.3929   24.6486 H   0  0  0  0  0  0  0  0  0  0  0  0
    6.5478   -1.9770   25.2138 H   0  0  0  0  0  0  0  0  0  0  0  0
    6.8390   -0.3592   26.6224 C   0  0  0  0  0  0  0  0  0  0  0  0
    6.9661    0.7299   26.6025 H   0  0  0  0  0  0  0  0  0  0  0  0
    7.7434   -0.7465   27.1099 H   0  0  0  0  0  0  0  0  0  0  0  0
    5.6798   -0.6964   27.4595 N   0  0  0  0  0  0  0  0  0  0  0  0
    4.4127   -0.0768   27.0671 C   0  0  0  0  0  0  0  0  0  0  0  0
    3.6430   -0.4054   27.7753 H   0  0  0  0  0  0  0  0  0  0  0  0
    4.0699   -0.4156   26.0680 H   0  0  0  0  0  0  0  0  0  0  0  0
    4.4637    1.4454   27.1068 C   0  0  0  0  0  0  0  0  0  0  0  0
    3.4605    1.8669   26.9896 H   0  0  0  0  0  0  0  0  0  0  0  0
    5.0865    1.8543   26.3055 H   0  0  0  0  0  0  0  0  0  0  0  0
    4.8717    1.7891   28.0620 H   0  0  0  0  0  0  0  0  0  0  0  0
    5.5521   -2.1276   27.7334 C   0  0  0  0  0  0  0  0  0  0  0  0
    6.5588   -2.5603   27.7462 H   0  0  0  0  0  0  0  0  0  0  0  0
    5.0099   -2.6701   26.9303 H   0  0  0  0  0  0  0  0  0  0  0  0
    4.8854   -2.4025   29.0802 C   0  0  0  0  0  0  0  0  0  0  0  0
    5.1384   -3.4069   29.4386 H   0  0  0  0  0  0  0  0  0  0  0  0
    3.7948   -2.3351   29.0096 H   0  0  0  0  0  0  0  0  0  0  0  0
    5.2232   -1.6687   29.8184 H   0  0  0  0  0  0  0  0  0  0  0  0
    6.6470    0.0250   19.8952 C   0  0  0  0  0  0  0  0  0  0  0  0
    7.1858   -0.0609   18.5883 C   0  0  0  0  0  0  0  0  0  0  0  0
    8.1091   -0.6082   18.4211 H   0  0  0  0  0  0  0  0  0  0  0  0
    6.6258    0.5177   17.5223 N   0  0  0  0  0  0  0  0  0  0  0  0
    5.4980    1.2219   17.7122 C   0  0  0  0  0  0  0  0  0  0  0  0
    5.0671    1.6908   16.8294 H   0  0  0  0  0  0  0  0  0  0  0  0
    4.8959    1.3756   18.9649 C   0  0  0  0  0  0  0  0  0  0  0  0
    4.0028    1.9831   19.0610 H   0  0  0  0  0  0  0  0  0  0  0  0
    5.4748    0.7738   20.0839 C   0  0  0  0  0  0  0  0  0  0  0  0
    5.0519    0.8881   21.0773 H   0  0  0  0  0  0  0  0  0  0  0  0
  1  2  1  0
  2  3  1  0
  3  4  1  0
  4  5  2  0
  4  6  1  0
  6  7  1  0
  6  8  1  0
  8  9  1  0
  9 10  1  0
  9 11  1  0
  9 12  1  0
 12 13  1  0
 12 14  1  0
 12 15  1  0
 15 16  1  0
 16 17  1  0
 16 18  1  0
 16 19  1  0
 19 20  1  0
 19 21  1  0
 19 22  1  0
 15 23  1  0
 23 24  1  0
 23 25  1  0
 23 26  1  0
 26 27  1  0
 26 28  1  0
 26 29  1  0
  3 30  1  0
 30 31  2  0
 31 32  1  0
 31 33  1  0
 33 34  2  0
 34 35  1  0
 34 36  1  0
 36 37  1  0
 36 38  2  0
 38 39  1  0
 38 30  1  0
M  END
>  <plip>  (1) 
-0.07142857142857142

>  <filename>  (1) 
[H][O][N]([C](=[O])[N]([H])[O][C]([H])([H])[C]([H])([H])[N]([C]([H])([H])[C]([H])([H])[H])[C]([H])([H])[C]([H])([H])[H])[c]1[c]([H])[n][c]([H])[c]([H])[c]1[H]

$$$$
