
     RDKit          3D

 35 36  0  0  0  0  0  0  0  0999 V2000
    6.8079    3.6701   22.0035 N   0  0  0  0  0  4  0  0  0  0  0  0
    8.2106    4.1540   21.8089 C   0  0  0  0  0  0  0  0  0  0  0  0
    9.1808    3.5407   22.7956 C   0  0  0  0  0  0  0  0  0  0  0  0
    9.8367    4.4050   23.6756 C   0  0  0  0  0  0  0  0  0  0  0  0
   10.8824    3.9595   24.4802 C   0  0  0  0  0  0  0  0  0  0  0  0
   11.2238    2.6049   24.4878 C   0  0  0  0  0  0  0  0  0  0  0  0
   10.5545    1.7172   23.6403 C   0  0  0  0  0  0  0  0  0  0  0  0
    9.5796    2.1785   22.7355 C   0  0  0  0  0  0  0  0  0  0  0  0
    9.0721    1.2484   21.6500 C   0  0  0  0  0  0  0  0  0  0  0  0
    7.8166    0.5851   22.0425 N   0  0  0  0  0  0  0  0  0  0  0  0
    7.4060   -0.7718   21.1703 S   0  0  0  0  0  0  0  0  0  0  0  0
    6.5456   -1.4518   22.1100 O   0  0  0  0  0  0  0  0  0  0  0  0
    8.6025   -1.3964   20.6519 O   0  0  0  0  0  0  0  0  0  0  0  0
    6.5418   -0.0277   19.9002 C   0  0  0  0  0  0  0  0  0  0  0  0
    5.3393    0.6413   20.1310 C   0  0  0  0  0  0  0  0  0  0  0  0
    4.8407    1.3802   19.0642 C   0  0  0  0  0  0  0  0  0  0  0  0
    5.5649    1.4191   17.8674 C   0  0  0  0  0  0  0  0  0  0  0  0
    6.7403    0.7974   17.6922 N   0  0  0  0  0  0  0  0  0  0  0  0
    7.2283    0.0819   18.7029 C   0  0  0  0  0  0  0  0  0  0  0  0
    8.1806   -0.4143   18.5155 H   0  0  0  0  0  0  0  0  0  0  0  0
    5.1864    1.9777   17.0148 H   0  0  0  0  0  0  0  0  0  0  0  0
    3.9103    1.9311   19.1431 H   0  0  0  0  0  0  0  0  0  0  0  0
    4.8196    0.6026   21.0940 H   0  0  0  0  0  0  0  0  0  0  0  0
    7.8382    0.0706   22.9200 H   0  0  0  0  0  0  0  0  0  0  0  0
    8.8810    1.8150   20.7273 H   0  0  0  0  0  0  0  0  0  0  0  0
    9.8366    0.5005   21.4096 H   0  0  0  0  0  0  0  0  0  0  0  0
   10.8114    0.6571   23.6578 H   0  0  0  0  0  0  0  0  0  0  0  0
   12.0146    2.2304   25.1305 H   0  0  0  0  0  0  0  0  0  0  0  0
   11.4079    4.6729   25.1100 H   0  0  0  0  0  0  0  0  0  0  0  0
    9.5268    5.4486   23.7116 H   0  0  0  0  0  0  0  0  0  0  0  0
    8.2438    5.2421   21.8870 H   0  0  0  0  0  0  0  0  0  0  0  0
    8.5716    3.9017   20.8141 H   0  0  0  0  0  0  0  0  0  0  0  0
    6.8323    2.6287   22.0239 H   0  0  0  0  0  0  0  0  0  0  0  0
    6.4811    4.0020   22.9284 H   0  0  0  0  0  0  0  0  0  0  0  0
    6.1660    4.0041   21.2635 H   0  0  0  0  0  0  0  0  0  0  0  0
  1  2  1  0
  2  3  1  0
  3  4  2  0
  4  5  1  0
  5  6  2  0
  6  7  1  0
  7  8  2  0
  8  9  1  0
  9 10  1  0
 10 11  1  0
 11 12  2  0
 11 13  2  0
 11 14  1  0
 14 15  2  0
 15 16  1  0
 16 17  2  0
 17 18  1  0
 18 19  2  0
 19 20  1  0
 17 21  1  0
 16 22  1  0
 15 23  1  0
 10 24  1  0
  9 25  1  0
  9 26  1  0
  7 27  1  0
  6 28  1  0
  5 29  1  0
  4 30  1  0
  2 31  1  0
  2 32  1  0
  1 33  1  0
  1 34  1  0
  1 35  1  0
  8  3  1  0
 19 14  1  0
M  CHG  1   1   1
M  END
>  <plip>  (1) 
-0.13793103448275862

>  <filename>  (1) 
[H][c]1[n][c]([H])[c]([S](=[O])(=[O])[N]([H])[C]([H])([H])[c]2[c]([H])[c]([H])[c]([H])[c]([H])[c]2[C]([H])([H])[N+]([H])([H])[H])[c]([H])[c]1[H]

$$$$
