
     RDKit          3D

 28 30  0  0  0  0  0  0  0  0999 V2000
    4.9151    1.7884   16.9908 H   0  0  0  0  0  0  0  0  0  0  0  0
    5.4002    1.2994   17.8335 C   0  0  0  0  0  0  0  0  0  0  0  0
    6.5645    0.6809   17.5770 N   0  0  0  0  0  0  0  0  0  0  0  0
    7.1687    0.0589   18.5986 C   0  0  0  0  0  0  0  0  0  0  0  0
    8.1175   -0.4246   18.3765 H   0  0  0  0  0  0  0  0  0  0  0  0
    6.6622    0.0117   19.9214 C   0  0  0  0  0  0  0  0  0  0  0  0
    7.3455   -0.6648   20.9665 N   0  0  0  0  0  0  0  0  0  0  0  0
    7.3982   -0.3685   22.3379 C   0  0  0  0  0  0  0  0  0  0  0  0
    7.2180    0.9575   22.8006 N   0  0  0  0  0  0  0  0  0  0  0  0
    7.4882    2.1513   22.1257 C   0  0  0  0  0  0  0  0  0  0  0  0
    7.8192    2.1562   21.0931 H   0  0  0  0  0  0  0  0  0  0  0  0
    7.2586    3.1889   22.9801 C   0  0  0  0  0  0  0  0  0  0  0  0
    7.3757    4.2443   22.7537 H   0  0  0  0  0  0  0  0  0  0  0  0
    6.8490    2.6317   24.2313 C   0  0  0  0  0  0  0  0  0  0  0  0
    6.6067    3.1844   25.1322 H   0  0  0  0  0  0  0  0  0  0  0  0
    6.8405    1.2754   24.1019 C   0  0  0  0  0  0  0  0  0  0  0  0
    6.6156    0.4944   24.8239 H   0  0  0  0  0  0  0  0  0  0  0  0
    7.6522   -1.3562   23.1135 N   0  0  0  0  0  0  0  0  0  0  0  0
    7.8527   -2.5336   22.2779 C   0  0  0  0  0  0  0  0  0  0  0  0
    8.8432   -2.9749   22.4480 H   0  0  0  0  0  0  0  0  0  0  0  0
    7.1234   -3.3140   22.5268 H   0  0  0  0  0  0  0  0  0  0  0  0
    7.7021   -2.0755   20.8156 C   0  0  0  0  0  0  0  0  0  0  0  0
    6.9234   -2.6312   20.2701 H   0  0  0  0  0  0  0  0  0  0  0  0
    8.6415   -2.1740   20.2588 H   0  0  0  0  0  0  0  0  0  0  0  0
    5.4357    0.6509   20.1627 C   0  0  0  0  0  0  0  0  0  0  0  0
    5.0212    0.6327   21.1715 H   0  0  0  0  0  0  0  0  0  0  0  0
    4.8070    1.3098   19.1015 C   0  0  0  0  0  0  0  0  0  0  0  0
    3.8767    1.8403   19.2573 H   0  0  0  0  0  0  0  0  0  0  0  0
  1  2  1  0
  2  3  2  0
  3  4  1  0
  4  5  1  0
  4  6  2  0
  6  7  1  0
  7  8  1  0
  8  9  1  0
  9 10  1  0
 10 11  1  0
 10 12  2  0
 12 13  1  0
 12 14  1  0
 14 15  1  0
 14 16  2  0
 16 17  1  0
  8 18  2  0
 18 19  1  0
 19 20  1  0
 19 21  1  0
 19 22  1  0
 22 23  1  0
 22 24  1  0
  6 25  1  0
 25 26  1  0
 25 27  2  0
 27 28  1  0
 27  2  1  0
 22  7  1  0
 16  9  1  0
M  END
>  <plip>  (1) 
-0.03571428571428571

>  <filename>  (1) 
[H][c]1[n][c]([H])[c]([N]2[C]([n]3[c]([H])[c]([H])[c]([H])[c]3[H])=[N][C]([H])([H])[C]2([H])[H])[c]([H])[c]1[H]

$$$$
