
     RDKit          3D

 25 26  0  0  0  0  0  0  0  0999 V2000
    6.5790   -0.7676   21.8738 H   0  0  0  0  0  0  0  0  0  0  0  0
    7.2244   -0.5334   21.0234 C   0  0  0  0  0  0  0  0  0  0  0  0
    8.5407   -0.7531   21.1321 C   0  0  0  0  0  0  0  0  0  0  0  0
    9.1955   -0.5850   20.2774 H   0  0  0  0  0  0  0  0  0  0  0  0
    9.2327   -1.2852   22.3314 C   0  0  0  0  0  0  0  0  0  0  0  0
   10.3742   -2.0936   22.1370 C   0  0  0  0  0  0  0  0  0  0  0  0
   10.8379   -2.1027   21.1560 H   0  0  0  0  0  0  0  0  0  0  0  0
   10.8858   -2.9026   23.1458 C   0  0  0  0  0  0  0  0  0  0  0  0
   11.7437   -3.5428   22.9990 H   0  0  0  0  0  0  0  0  0  0  0  0
   10.2708   -2.8946   24.3964 C   0  0  0  0  0  0  0  0  0  0  0  0
   10.7108   -4.0999   25.5598 Cl  0  0  0  0  0  0  0  0  0  0  0  0
    9.2802   -1.9625   24.6948 C   0  0  0  0  0  0  0  0  0  0  0  0
    8.8795   -1.8862   25.6980 H   0  0  0  0  0  0  0  0  0  0  0  0
    8.8009   -1.1398   23.6722 C   0  0  0  0  0  0  0  0  0  0  0  0
    7.7254    0.1387   24.1596 Cl  0  0  0  0  0  0  0  0  0  0  0  0
    6.5455    0.0725   19.8583 C   0  0  0  0  0  0  0  0  0  0  0  0
    7.0961    0.1001   18.5595 C   0  0  0  0  0  0  0  0  0  0  0  0
    8.0294   -0.4223   18.3440 H   0  0  0  0  0  0  0  0  0  0  0  0
    6.5300    0.7201   17.5178 N   0  0  0  0  0  0  0  0  0  0  0  0
    5.3690    1.3593   17.7310 C   0  0  0  0  0  0  0  0  0  0  0  0
    4.9487    1.8783   16.8740 H   0  0  0  0  0  0  0  0  0  0  0  0
    4.7074    1.3674   18.9643 C   0  0  0  0  0  0  0  0  0  0  0  0
    3.7699    1.9027   19.0671 H   0  0  0  0  0  0  0  0  0  0  0  0
    5.2999    0.7016   20.0372 C   0  0  0  0  0  0  0  0  0  0  0  0
    4.8220    0.6845   21.0170 H   0  0  0  0  0  0  0  0  0  0  0  0
  1  2  1  0
  2  3  2  3
  3  4  1  0
  3  5  1  0
  5  6  2  0
  6  7  1  0
  6  8  1  0
  8  9  1  0
  8 10  2  0
 10 11  1  0
 10 12  1  0
 12 13  1  0
 12 14  2  0
 14 15  1  0
  2 16  1  0
 16 17  2  0
 17 18  1  0
 17 19  1  0
 19 20  2  0
 20 21  1  0
 20 22  1  0
 22 23  1  0
 22 24  2  0
 24 25  1  0
 14  5  1  0
 24 16  1  0
M  END
>  <plip>  (1) 
-0.03571428571428571

>  <filename>  (1) 
[H][C](=[C]([H])[c]1[c]([H])[c]([H])[c]([Cl])[c]([H])[c]1[Cl])[c]1[c]([H])[n][c]([H])[c]([H])[c]1[H]

$$$$
