
     RDKit          3D

 18 19  0  0  0  0  0  0  0  0999 V2000
    4.9056    1.7694   17.0091 H   0  0  0  0  0  0  0  0  0  0  0  0
    5.4005    1.2892   17.8499 C   0  0  0  0  0  0  0  0  0  0  0  0
    6.5703    0.6816   17.5942 N   0  0  0  0  0  0  0  0  0  0  0  0
    7.1829    0.0561   18.5986 C   0  0  0  0  0  0  0  0  0  0  0  0
    8.1336   -0.4404   18.3830 H   0  0  0  0  0  0  0  0  0  0  0  0
    6.6533    0.0164   19.8953 C   0  0  0  0  0  0  0  0  0  0  0  0
    7.3855   -0.7108   20.9114 C   0  0  0  0  0  0  0  0  0  0  0  0
    8.1334   -1.7766   20.7181 N   0  0  0  0  0  0  0  0  0  0  0  0
    8.6235   -2.1101   21.9319 N   0  0  0  0  0  0  0  0  0  0  0  0
    8.2266   -1.2987   22.8469 N   0  0  0  0  0  0  0  0  0  0  0  0
    7.4328   -0.4152   22.2311 N   0  0  0  0  0  0  0  0  0  0  0  0
    6.8590    0.7636   22.9017 N   0  0  0  0  0  0  0  0  0  0  0  0
    7.0192    0.9502   24.1159 C   0  0  0  0  0  0  0  0  0  0  0  0
    7.2007    1.2303   25.6633 S   0  0  0  0  0  0  0  0  0  0  0  0
    5.4377    0.6548   20.1586 C   0  0  0  0  0  0  0  0  0  0  0  0
    5.0081    0.6284   21.1556 H   0  0  0  0  0  0  0  0  0  0  0  0
    4.8047    1.3113   19.1130 C   0  0  0  0  0  0  0  0  0  0  0  0
    3.8746    1.8439   19.2688 H   0  0  0  0  0  0  0  0  0  0  0  0
  1  2  1  0
  2  3  2  0
  3  4  1  0
  4  5  1  0
  4  6  2  0
  6  7  1  0
  7  8  2  0
  8  9  1  0
  9 10  2  0
 10 11  1  0
 11 12  1  0
 12 13  2  0
 13 14  2  0
  6 15  1  0
 15 16  1  0
 15 17  2  0
 17 18  1  0
 17  2  1  0
 11  7  1  0
M  END
>  <plip>  (1) 
-0.034482758620689655

>  <filename>  (1) 
[H][c]1[n][c]([H])[c](-[c]2[n][n][n][n]2[N]=[C]=[S])[c]([H])[c]1[H]

$$$$
