
     RDKit          3D

 36 38  0  0  0  0  0  0  0  0999 V2000
    7.0241    1.2569   22.4206 O   0  0  0  0  0  0  0  0  0  0  0  0
    7.3033    0.0706   22.2504 C   0  0  0  0  0  0  0  0  0  0  0  0
    7.7847   -0.7500   23.4753 C   0  0  0  0  0  0  0  0  0  0  0  0
    7.9389   -2.2254   23.2628 N   0  0  0  0  0  0  0  0  0  0  0  0
    8.8443   -2.9921   24.0089 C   0  0  0  0  0  0  0  0  0  0  0  0
    8.3207   -3.8677   24.8924 N   0  0  0  0  0  0  0  0  0  0  0  0
    9.0998   -4.8074   25.4887 C   0  0  0  0  0  0  0  0  0  0  0  0
    8.5329   -5.8626   26.4682 C   0  0  0  0  0  0  0  0  0  0  0  0
    7.1803   -6.0099   26.3599 F   0  0  0  0  0  0  0  0  0  0  0  0
    8.8343   -5.5134   27.7527 F   0  0  0  0  0  0  0  0  0  0  0  0
    9.0848   -7.0824   26.2085 F   0  0  0  0  0  0  0  0  0  0  0  0
   10.4736   -4.8369   25.1757 C   0  0  0  0  0  0  0  0  0  0  0  0
   11.0327   -3.9254   24.2877 C   0  0  0  0  0  0  0  0  0  0  0  0
   10.2099   -2.9860   23.6802 C   0  0  0  0  0  0  0  0  0  0  0  0
   11.0745   -1.6187   22.1032 I   0  0  0  0  0  0  0  0  0  0  0  0
   12.0893   -3.9730   24.0391 H   0  0  0  0  0  0  0  0  0  0  0  0
   11.1187   -5.5970   25.6029 H   0  0  0  0  0  0  0  0  0  0  0  0
    7.4526   -2.8040   21.9935 C   0  0  0  0  0  0  0  0  0  0  0  0
    7.7286   -1.8736   20.7993 C   0  0  0  0  0  0  0  0  0  0  0  0
    7.2408   -0.5077   20.9757 N   0  0  0  0  0  0  0  0  0  0  0  0
    6.6364    0.1394   19.8676 C   0  0  0  0  0  0  0  0  0  0  0  0
    5.4745    0.8802   20.0775 C   0  0  0  0  0  0  0  0  0  0  0  0
    4.8472    1.4674   18.9746 C   0  0  0  0  0  0  0  0  0  0  0  0
    5.4003    1.3279   17.6954 C   0  0  0  0  0  0  0  0  0  0  0  0
    6.5241    0.6214   17.4701 N   0  0  0  0  0  0  0  0  0  0  0  0
    7.1195    0.0409   18.5360 C   0  0  0  0  0  0  0  0  0  0  0  0
    8.0276   -0.5250   18.3545 H   0  0  0  0  0  0  0  0  0  0  0  0
    4.9010    1.8033   16.8565 H   0  0  0  0  0  0  0  0  0  0  0  0
    3.9331    2.0371   19.0998 H   0  0  0  0  0  0  0  0  0  0  0  0
    5.0642    0.9715   21.0814 H   0  0  0  0  0  0  0  0  0  0  0  0
    8.8036   -1.8539   20.5884 H   0  0  0  0  0  0  0  0  0  0  0  0
    7.2082   -2.2943   19.9378 H   0  0  0  0  0  0  0  0  0  0  0  0
    7.9467   -3.7641   21.8007 H   0  0  0  0  0  0  0  0  0  0  0  0
    6.3762   -2.9943   22.0672 H   0  0  0  0  0  0  0  0  0  0  0  0
    8.7432   -0.3294   23.7913 H   0  0  0  0  0  0  0  0  0  0  0  0
    7.0605   -0.5793   24.2782 H   0  0  0  0  0  0  0  0  0  0  0  0
  1  2  2  0
  2  3  1  0
  3  4  1  0
  4  5  1  0
  5  6  2  0
  6  7  1  0
  7  8  1  0
  8  9  1  0
  8 10  1  0
  8 11  1  0
  7 12  2  0
 12 13  1  0
 13 14  2  0
 14 15  1  0
 13 16  1  0
 12 17  1  0
  4 18  1  0
 18 19  1  0
 19 20  1  0
 20 21  1  0
 21 22  2  0
 22 23  1  0
 23 24  2  0
 24 25  1  0
 25 26  2  0
 26 27  1  0
 24 28  1  0
 23 29  1  0
 22 30  1  0
 19 31  1  0
 19 32  1  0
 18 33  1  0
 18 34  1  0
  3 35  1  0
  3 36  1  0
 20  2  1  0
 26 21  1  0
 14  5  1  0
M  END
>  <plip>  (1) 
-0.10714285714285714

>  <filename>  (1) 
[H][c]1[n][c]([H])[c]([N]2[C](=[O])[C]([H])([H])[N]([c]3[n][c]([C]([F])([F])[F])[c]([H])[c]([H])[c]3[I])[C]([H])([H])[C]2([H])[H])[c]([H])[c]1[H]

$$$$
