
     RDKit          3D

 22 23  0  0  0  0  0  0  0  0999 V2000
    4.9180    1.7756   17.0023 H   0  0  0  0  0  0  0  0  0  0  0  0
    5.4053    1.2901   17.8436 C   0  0  0  0  0  0  0  0  0  0  0  0
    6.5704    0.6793   17.5793 N   0  0  0  0  0  0  0  0  0  0  0  0
    7.1736    0.0534   18.5901 C   0  0  0  0  0  0  0  0  0  0  0  0
    8.1201   -0.4346   18.3726 H   0  0  0  0  0  0  0  0  0  0  0  0
    6.6479    0.0076   19.8924 C   0  0  0  0  0  0  0  0  0  0  0  0
    7.3981   -0.7522   20.9232 C   0  0  0  0  0  0  0  0  0  0  0  0
    8.0304   -1.7434   20.6272 O   0  0  0  0  0  0  0  0  0  0  0  0
    7.3869   -0.1767   22.3737 C   0  0  0  0  0  0  0  0  0  0  0  0
    7.1162    0.9893   22.6086 O   0  0  0  0  0  0  0  0  0  0  0  0
    7.7573   -1.1342   23.4500 C   0  0  0  0  0  0  0  0  0  0  0  0
    7.9956   -2.4234   23.3460 N   0  0  0  0  0  0  0  0  0  0  0  0
    8.2772   -2.8507   24.6070 C   0  0  0  0  0  0  0  0  0  0  0  0
    8.5201   -3.8798   24.8227 H   0  0  0  0  0  0  0  0  0  0  0  0
    8.2055   -1.8102   25.4980 C   0  0  0  0  0  0  0  0  0  0  0  0
    8.3599   -1.7857   26.5681 H   0  0  0  0  0  0  0  0  0  0  0  0
    7.8735   -0.7245   24.7474 N   0  0  0  0  0  0  0  0  0  0  0  0
    7.7228    0.2213   25.0568 H   0  0  0  0  0  0  0  0  0  0  0  0
    5.4359    0.6576   20.1624 C   0  0  0  0  0  0  0  0  0  0  0  0
    5.0019    0.6437   21.1671 H   0  0  0  0  0  0  0  0  0  0  0  0
    4.8021    1.3089   19.1070 C   0  0  0  0  0  0  0  0  0  0  0  0
    3.8712    1.8451   19.2602 H   0  0  0  0  0  0  0  0  0  0  0  0
  1  2  1  0
  2  3  2  0
  3  4  1  0
  4  5  1  0
  4  6  2  0
  6  7  1  0
  7  8  2  0
  7  9  1  0
  9 10  2  0
  9 11  1  0
 11 12  2  0
 12 13  1  0
 13 14  1  0
 13 15  2  0
 15 16  1  0
 15 17  1  0
 17 18  1  0
  6 19  1  0
 19 20  1  0
 19 21  2  0
 21 22  1  0
 21  2  1  0
 17 11  1  0
M  END
>  <plip>  (1) 
-0.0

>  <filename>  (1) 
[H][c]1[n][c]([H])[c]([C](=[O])[C](=[O])[c]2[n][c]([H])[c]([H])[n]2[H])[c]([H])[c]1[H]

$$$$
