
     RDKit          3D

 39 41  0  0  0  0  0  0  0  0999 V2000
    4.9985    1.7661   16.8655 H   0  0  0  0  0  0  0  0  0  0  0  0
    5.4543    1.2857   17.7294 C   0  0  0  0  0  0  0  0  0  0  0  0
    6.6134    0.6505   17.5086 N   0  0  0  0  0  0  0  0  0  0  0  0
    7.2129    0.0838   18.5542 C   0  0  0  0  0  0  0  0  0  0  0  0
    8.1461   -0.4260   18.3231 H   0  0  0  0  0  0  0  0  0  0  0  0
    6.7170    0.1152   19.8693 C   0  0  0  0  0  0  0  0  0  0  0  0
    7.4970   -0.4712   20.9523 C   0  0  0  0  0  0  0  0  0  0  0  0
    7.0989   -0.5174   22.1841 N   0  0  0  0  0  0  0  0  0  0  0  0
    8.0358   -1.2336   22.8804 N   0  0  0  0  0  0  0  0  0  0  0  0
    7.7905   -1.4232   24.2308 N   0  0  0  0  0  0  0  0  0  0  0  0
    8.5702   -0.5255   25.1252 C   0  0  0  0  0  0  0  0  0  0  0  0
    9.4917   -0.1959   24.6165 H   0  0  0  0  0  0  0  0  0  0  0  0
    7.9738    0.3675   25.3574 H   0  0  0  0  0  0  0  0  0  0  0  0
    8.8748   -1.3947   26.3519 C   0  0  0  0  0  0  0  0  0  0  0  0
    9.7690   -1.0885   26.9066 H   0  0  0  0  0  0  0  0  0  0  0  0
    8.0367   -1.3619   27.0550 H   0  0  0  0  0  0  0  0  0  0  0  0
    8.9847   -2.8084   25.7716 C   0  0  1  0  0  0  0  0  0  0  0  0
    9.9290   -2.8973   25.2091 H   0  0  0  0  0  0  0  0  0  0  0  0
    8.9758   -3.8370   26.8037 N   0  0  0  0  0  0  0  0  0  0  0  0
    9.6183   -5.0752   26.3917 C   0  0  0  0  0  0  0  0  0  0  0  0
   10.5880   -4.8557   25.9295 H   0  0  0  0  0  0  0  0  0  0  0  0
    9.8147   -5.6934   27.2714 H   0  0  0  0  0  0  0  0  0  0  0  0
    9.0347   -5.6801   25.6701 H   0  0  0  0  0  0  0  0  0  0  0  0
    7.6772   -4.0659   27.4254 C   0  0  0  0  0  0  0  0  0  0  0  0
    7.1718   -3.1155   27.6372 H   0  0  0  0  0  0  0  0  0  0  0  0
    6.9872   -4.6504   26.7913 H   0  0  0  0  0  0  0  0  0  0  0  0
    7.8083   -4.6167   28.3634 H   0  0  0  0  0  0  0  0  0  0  0  0
    7.8524   -2.8134   24.7163 C   0  0  0  0  0  0  0  0  0  0  0  0
    6.8855   -3.0816   25.1695 H   0  0  0  0  0  0  0  0  0  0  0  0
    8.0503   -3.5271   23.9104 H   0  0  0  0  0  0  0  0  0  0  0  0
    9.0845   -1.7197   22.0980 C   0  0  0  0  0  0  0  0  0  0  0  0
    9.9765   -2.4752   22.4258 O   0  0  0  0  0  0  0  0  0  0  0  0
    8.8509   -1.0652   20.7654 C   0  0  0  0  0  0  0  0  0  0  0  0
    8.9329   -1.7766   19.9464 H   0  0  0  0  0  0  0  0  0  0  0  0
    9.6140   -0.2951   20.6016 H   0  0  0  0  0  0  0  0  0  0  0  0
    5.4711    0.7388   20.0796 C   0  0  0  0  0  0  0  0  0  0  0  0
    5.0240    0.7553   21.0771 H   0  0  0  0  0  0  0  0  0  0  0  0
    4.8391    1.3328   18.9883 C   0  0  0  0  0  0  0  0  0  0  0  0
    3.8936    1.8538   19.0942 H   0  0  0  0  0  0  0  0  0  0  0  0
  1  2  1  0
  2  3  2  0
  3  4  1  0
  4  5  1  0
  4  6  2  0
  6  7  1  0
  7  8  2  0
  8  9  1  0
  9 10  1  0
 10 11  1  0
 11 12  1  0
 11 13  1  0
 11 14  1  0
 14 15  1  0
 14 16  1  0
 14 17  1  0
 17 18  1  6
 17 19  1  0
 19 20  1  0
 20 21  1  0
 20 22  1  0
 20 23  1  0
 19 24  1  0
 24 25  1  0
 24 26  1  0
 24 27  1  0
 17 28  1  0
 28 29  1  0
 28 30  1  0
  9 31  1  0
 31 32  2  0
 31 33  1  0
 33 34  1  0
 33 35  1  0
  6 36  1  0
 36 37  1  0
 36 38  2  0
 38 39  1  0
 38  2  1  0
 33  7  1  0
 28 10  1  0
M  END
>  <plip>  (1) 
-0.03571428571428571

>  <filename>  (1) 
[H][c]1[n][c]([H])[c]([C]2=[N][N]([N]3[C]([H])([H])[C]([H])([H])[C@@]([H])([N]([C]([H])([H])[H])[C]([H])([H])[H])[C]3([H])[H])[C](=[O])[C]2([H])[H])[c]([H])[c]1[H]

$$$$
