
     RDKit          3D

 33 35  0  0  0  0  0  0  0  0999 V2000
    4.9212    1.7924   16.9883 H   0  0  0  0  0  0  0  0  0  0  0  0
    5.3957    1.2989   17.8329 C   0  0  0  0  0  0  0  0  0  0  0  0
    6.5547    0.6784   17.5700 N   0  0  0  0  0  0  0  0  0  0  0  0
    7.1562    0.0615   18.5917 C   0  0  0  0  0  0  0  0  0  0  0  0
    8.1085   -0.4178   18.3721 H   0  0  0  0  0  0  0  0  0  0  0  0
    6.6414    0.0064   19.8958 C   0  0  0  0  0  0  0  0  0  0  0  0
    7.4397   -0.6782   20.9859 C   0  0  0  0  0  0  0  0  0  0  0  0
    7.7783   -1.6734   20.6798 H   0  0  0  0  0  0  0  0  0  0  0  0
    6.8219   -0.7968   21.8807 H   0  0  0  0  0  0  0  0  0  0  0  0
    8.6404    0.0548   21.3703 N   0  0  0  0  0  0  0  0  0  0  0  0
    9.8540   -0.3378   20.9591 N   0  0  0  0  0  0  0  0  0  0  0  0
   10.6925    0.5922   21.4039 C   0  0  0  0  0  0  0  0  0  0  0  0
   11.7545    0.4873   21.2113 H   0  0  0  0  0  0  0  0  0  0  0  0
   10.0147    1.6121   22.0880 C   0  0  0  0  0  0  0  0  0  0  0  0
   10.4013    2.4987   22.5700 H   0  0  0  0  0  0  0  0  0  0  0  0
    8.6870    1.2400   22.0431 C   0  0  0  0  0  0  0  0  0  0  0  0
    7.5324    1.9109   22.5428 C   0  0  0  0  0  0  0  0  0  0  0  0
    6.5906    2.5391   22.9685 C   0  0  0  0  0  0  0  0  0  0  0  0
    5.4511    3.2605   23.4656 C   0  0  0  0  0  0  0  0  0  0  0  0
    5.3515    3.5769   24.8335 C   0  0  0  0  0  0  0  0  0  0  0  0
    6.1518    3.2783   25.5071 H   0  0  0  0  0  0  0  0  0  0  0  0
    4.2346    4.2655   25.3115 C   0  0  0  0  0  0  0  0  0  0  0  0
    4.1656    4.5074   26.3708 H   0  0  0  0  0  0  0  0  0  0  0  0
    3.2134    4.6422   24.4304 C   0  0  0  0  0  0  0  0  0  0  0  0
    2.3480    5.1816   24.8055 H   0  0  0  0  0  0  0  0  0  0  0  0
    3.3062    4.3306   23.0679 C   0  0  0  0  0  0  0  0  0  0  0  0
    2.5184    4.6304   22.3796 H   0  0  0  0  0  0  0  0  0  0  0  0
    4.4216    3.6414   22.5882 C   0  0  0  0  0  0  0  0  0  0  0  0
    4.5218    3.3933   21.5307 H   0  0  0  0  0  0  0  0  0  0  0  0
    5.4257    0.6493   20.1510 C   0  0  0  0  0  0  0  0  0  0  0  0
    5.0030    0.6340   21.1590 H   0  0  0  0  0  0  0  0  0  0  0  0
    4.7994    1.3185   19.0983 C   0  0  0  0  0  0  0  0  0  0  0  0
    3.8650    1.8520   19.2363 H   0  0  0  0  0  0  0  0  0  0  0  0
  1  2  1  0
  2  3  2  0
  3  4  1  0
  4  5  1  0
  4  6  2  0
  6  7  1  0
  7  8  1  0
  7  9  1  0
  7 10  1  0
 10 11  1  0
 11 12  2  0
 12 13  1  0
 12 14  1  0
 14 15  1  0
 14 16  2  0
 16 17  1  0
 17 18  3  0
 18 19  1  0
 19 20  2  0
 20 21  1  0
 20 22  1  0
 22 23  1  0
 22 24  2  0
 24 25  1  0
 24 26  1  0
 26 27  1  0
 26 28  2  0
 28 29  1  0
  6 30  1  0
 30 31  1  0
 30 32  2  0
 32 33  1  0
 32  2  1  0
 16 10  1  0
 28 19  1  0
M  END
>  <plip>  (1) 
-0.07142857142857142

>  <filename>  (1) 
[H][c]1[n][c]([H])[c]([C]([H])([H])[n]2[n][c]([H])[c]([H])[c]2[C]#[C][c]2[c]([H])[c]([H])[c]([H])[c]([H])[c]2[H])[c]([H])[c]1[H]

$$$$
