
     RDKit          3D

 33 34  0  0  0  0  0  0  0  0999 V2000
   10.9379    2.2397   20.9343 H   0  0  0  0  0  0  0  0  0  0  0  0
   10.5902    1.3798   21.2121 O   0  0  0  0  0  0  0  0  0  0  0  0
    9.1113    1.8214   21.5710 P   0  0  0  0  0  0  0  0  0  0  0  0
    8.4328    2.2473   20.3472 O   0  0  0  0  0  0  0  0  0  0  0  0
    9.4278    3.2002   22.2785 O   0  0  0  0  0  0  0  0  0  0  0  0
    9.6129    3.7241   21.4759 H   0  0  0  0  0  0  0  0  0  0  0  0
    8.0677    0.5234   22.4316 C   0  0  0  0  0  0  0  0  0  0  0  0
    7.0356    1.0958   23.1280 F   0  0  0  0  0  0  0  0  0  0  0  0
    8.7814   -0.2064   23.3504 F   0  0  0  0  0  0  0  0  0  0  0  0
    7.5184   -0.4176   21.3121 C   0  0  0  0  0  0  0  0  0  0  0  0
    6.7830    0.3211   20.1629 C   0  0  0  0  0  0  0  0  0  0  0  0
    7.3000    0.3146   18.8482 C   0  0  0  0  0  0  0  0  0  0  0  0
    8.2823   -0.1185   18.6831 H   0  0  0  0  0  0  0  0  0  0  0  0
    6.6559    0.7917   17.7668 N   0  0  0  0  0  0  0  0  0  0  0  0
    5.4591    1.3678   17.9527 C   0  0  0  0  0  0  0  0  0  0  0  0
    4.9278    1.7730   17.0968 H   0  0  0  0  0  0  0  0  0  0  0  0
    4.8854    1.4791   19.2207 C   0  0  0  0  0  0  0  0  0  0  0  0
    3.9393    1.9969   19.3090 H   0  0  0  0  0  0  0  0  0  0  0  0
    5.5322    0.9420   20.3382 C   0  0  0  0  0  0  0  0  0  0  0  0
    5.0601    0.9967   21.3174 H   0  0  0  0  0  0  0  0  0  0  0  0
    8.6866   -1.2350   20.7127 C   0  0  0  0  0  0  0  0  0  0  0  0
    9.5337   -0.5884   20.4821 H   0  0  0  0  0  0  0  0  0  0  0  0
    8.3524   -1.6488   19.7633 H   0  0  0  0  0  0  0  0  0  0  0  0
    9.1577   -2.3891   21.6048 C   0  0  0  0  0  0  0  0  0  0  0  0
    9.6574   -2.0064   22.5020 H   0  0  0  0  0  0  0  0  0  0  0  0
    9.8916   -2.9700   21.0459 H   0  0  0  0  0  0  0  0  0  0  0  0
    8.0548   -3.2313   21.9617 O   0  0  0  0  0  0  0  0  0  0  0  0
    7.1123   -2.5216   22.7721 C   0  0  0  0  0  0  0  0  0  0  0  0
    7.6052   -2.1385   23.6743 H   0  0  0  0  0  0  0  0  0  0  0  0
    6.3101   -3.1994   23.0919 H   0  0  0  0  0  0  0  0  0  0  0  0
    6.5101   -1.3767   21.9566 C   0  0  0  0  0  0  0  0  0  0  0  0
    5.8578   -1.8118   21.1912 H   0  0  0  0  0  0  0  0  0  0  0  0
    5.9227   -0.7593   22.6237 H   0  0  0  0  0  0  0  0  0  0  0  0
  1  2  1  0
  2  3  1  0
  3  4  2  0
  3  5  1  0
  5  6  1  0
  3  7  1  0
  7  8  1  0
  7  9  1  0
  7 10  1  0
 10 11  1  0
 11 12  2  0
 12 13  1  0
 12 14  1  0
 14 15  2  0
 15 16  1  0
 15 17  1  0
 17 18  1  0
 17 19  2  0
 19 20  1  0
 10 21  1  0
 21 22  1  0
 21 23  1  0
 21 24  1  0
 24 25  1  0
 24 26  1  0
 24 27  1  0
 27 28  1  0
 28 29  1  0
 28 30  1  0
 28 31  1  0
 31 32  1  0
 31 33  1  0
 31 10  1  0
 19 11  1  0
M  END
>  <plip>  (1) 
-0.1

>  <filename>  (1) 
[H][O][P](=[O])([O][H])[C]([F])([F])[C]1([c]2[c]([H])[n][c]([H])[c]([H])[c]2[H])[C]([H])([H])[C]([H])([H])[O][C]([H])([H])[C]1([H])[H]

$$$$
