
     RDKit          3D

 40 43  0  0  0  0  0  0  0  0999 V2000
    5.8143   -2.5637   20.0901 O   0  0  0  0  0  0  0  0  0  0  0  0
    6.5733   -2.2304   20.9921 C   0  0  0  0  0  0  0  0  0  0  0  0
    6.6911   -3.0413   22.0977 N   0  0  0  0  0  0  0  0  0  0  0  0
    7.8674   -3.3558   22.9071 C   0  0  0  0  0  0  0  0  0  0  0  0
    7.3595   -4.4438   23.8273 C   0  0  0  0  0  0  0  0  0  0  0  0
    6.0164   -4.6921   23.5655 C   0  0  0  0  0  0  0  0  0  0  0  0
    5.5208   -3.8493   22.4422 C   0  0  0  0  0  0  0  0  0  0  0  0
    5.2057   -4.4453   21.5759 H   0  0  0  0  0  0  0  0  0  0  0  0
    4.6840   -3.1917   22.7279 H   0  0  0  0  0  0  0  0  0  0  0  0
    5.2899   -5.6072   24.3229 C   0  0  0  0  0  0  0  0  0  0  0  0
    3.9881   -5.8889   24.0525 O   0  0  0  0  0  0  0  0  0  0  0  0
    3.7369   -5.3312   23.3059 H   0  0  0  0  0  0  0  0  0  0  0  0
    5.9124   -6.2688   25.3836 C   0  0  0  0  0  0  0  0  0  0  0  0
    7.2744   -6.0430   25.6215 C   0  0  0  0  0  0  0  0  0  0  0  0
    8.0192   -5.1501   24.8397 C   0  0  0  0  0  0  0  0  0  0  0  0
    9.0861   -5.0492   25.0248 H   0  0  0  0  0  0  0  0  0  0  0  0
    7.7469   -6.5808   26.4391 H   0  0  0  0  0  0  0  0  0  0  0  0
    5.3227   -6.9619   25.9751 H   0  0  0  0  0  0  0  0  0  0  0  0
    8.7230   -3.7211   22.3222 H   0  0  0  0  0  0  0  0  0  0  0  0
    8.2230   -2.4882   23.4762 H   0  0  0  0  0  0  0  0  0  0  0  0
    7.3142   -0.8437   20.9750 C   0  0  0  0  0  0  0  0  0  0  0  0
    6.6917    0.0282   19.8765 C   0  0  0  0  0  0  0  0  0  0  0  0
    5.4611    0.6620   20.1062 C   0  0  0  0  0  0  0  0  0  0  0  0
    4.8232    1.3213   19.0531 C   0  0  0  0  0  0  0  0  0  0  0  0
    5.4338    1.3304   17.7941 C   0  0  0  0  0  0  0  0  0  0  0  0
    6.6002    0.7199   17.5376 N   0  0  0  0  0  0  0  0  0  0  0  0
    7.1973    0.0915   18.5626 C   0  0  0  0  0  0  0  0  0  0  0  0
    8.1299   -0.4192   18.3266 H   0  0  0  0  0  0  0  0  0  0  0  0
    4.9711    1.8559   16.9592 H   0  0  0  0  0  0  0  0  0  0  0  0
    3.8791    1.8327   19.1963 H   0  0  0  0  0  0  0  0  0  0  0  0
    5.0071    0.6196   21.0987 H   0  0  0  0  0  0  0  0  0  0  0  0
    7.3547   -0.1274   22.3777 C   0  0  0  0  0  0  0  0  0  0  0  0
    8.8944   -0.1255   22.3631 C   0  0  0  0  0  0  0  0  0  0  0  0
    8.8877   -0.8375   20.9920 C   0  0  0  0  0  0  0  0  0  0  0  0
    9.3126   -0.1988   20.2111 H   0  0  0  0  0  0  0  0  0  0  0  0
    9.3914   -1.8073   20.9397 H   0  0  0  0  0  0  0  0  0  0  0  0
    9.3841   -0.6669   23.1817 H   0  0  0  0  0  0  0  0  0  0  0  0
    9.3201    0.8804   22.3306 H   0  0  0  0  0  0  0  0  0  0  0  0
    6.9229    0.8781   22.3590 H   0  0  0  0  0  0  0  0  0  0  0  0
    6.8932   -0.6861   23.1958 H   0  0  0  0  0  0  0  0  0  0  0  0
  1  2  2  0
  2  3  1  0
  3  4  1  0
  4  5  1  0
  5  6  2  0
  6  7  1  0
  7  8  1  0
  7  9  1  0
  6 10  1  0
 10 11  1  0
 11 12  1  0
 10 13  2  0
 13 14  1  0
 14 15  2  0
 15 16  1  0
 14 17  1  0
 13 18  1  0
  4 19  1  0
  4 20  1  0
  2 21  1  0
 21 22  1  0
 22 23  2  0
 23 24  1  0
 24 25  2  0
 25 26  1  0
 26 27  2  0
 27 28  1  0
 25 29  1  0
 24 30  1  0
 23 31  1  0
 21 32  1  0
 32 33  1  0
 33 34  1  0
 34 35  1  0
 34 36  1  0
 33 37  1  0
 33 38  1  0
 32 39  1  0
 32 40  1  0
  7  3  1  0
 34 21  1  0
 15  5  1  0
 27 22  1  0
M  END
>  <plip>  (1) 
-0.10714285714285714

>  <filename>  (1) 
[H][O][c]1[c]([H])[c]([H])[c]([H])[c]2[c]1[C]([H])([H])[N]([C](=[O])[C]1([c]3[c]([H])[n][c]([H])[c]([H])[c]3[H])[C]([H])([H])[C]([H])([H])[C]1([H])[H])[C]2([H])[H]

$$$$
