
     RDKit          3D

 34 36  0  0  0  0  0  0  0  0999 V2000
    8.6347   -0.8672   20.8432 O   0  0  0  0  0  0  0  0  0  0  0  0
    7.4289   -0.7251   20.9656 C   0  0  0  0  0  0  0  0  0  0  0  0
    6.7251   -1.1921   22.0338 N   0  0  0  0  0  0  0  0  0  0  0  0
    7.3629   -1.8723   23.1600 C   0  0  0  0  0  0  0  0  0  0  0  0
    6.5723   -1.7466   24.4880 C   0  0  0  0  0  0  0  0  0  0  0  0
    7.3106   -2.3915   25.5707 N   0  0  0  0  0  0  0  0  0  0  0  0
    7.9788   -3.5888   25.3906 C   0  0  0  0  0  0  0  0  0  0  0  0
    8.4853   -4.2811   26.5041 C   0  0  0  0  0  0  0  0  0  0  0  0
    9.2085   -5.4605   26.3278 C   0  0  0  0  0  0  0  0  0  0  0  0
    9.4214   -5.9679   25.0385 C   0  0  0  0  0  0  0  0  0  0  0  0
    8.9016   -5.2850   23.9333 C   0  0  0  0  0  0  0  0  0  0  0  0
    8.1859   -4.0933   24.0809 C   0  0  0  0  0  0  0  0  0  0  0  0
    7.6158   -3.3661   22.8682 C   0  0  0  0  0  0  0  0  0  0  0  0
    6.6706   -3.8480   22.5656 H   0  0  0  0  0  0  0  0  0  0  0  0
    8.2978   -3.4398   22.0101 H   0  0  0  0  0  0  0  0  0  0  0  0
    9.0372   -5.6676   22.9225 H   0  0  0  0  0  0  0  0  0  0  0  0
    9.9864   -6.8824   24.8944 H   0  0  0  0  0  0  0  0  0  0  0  0
    9.6062   -5.9796   27.1947 H   0  0  0  0  0  0  0  0  0  0  0  0
    8.3051   -3.8800   27.4993 H   0  0  0  0  0  0  0  0  0  0  0  0
    7.1523   -2.1279   26.5287 H   0  0  0  0  0  0  0  0  0  0  0  0
    6.4395   -0.6900   24.7392 H   0  0  0  0  0  0  0  0  0  0  0  0
    5.5688   -2.1913   24.3420 H   0  0  0  0  0  0  0  0  0  0  0  0
    8.3404   -1.3999   23.3176 H   0  0  0  0  0  0  0  0  0  0  0  0
    5.7326   -1.2669   21.8869 H   0  0  0  0  0  0  0  0  0  0  0  0
    6.6077   -0.0280   19.9420 C   0  0  0  0  0  0  0  0  0  0  0  0
    5.3920    0.6373   20.1764 C   0  0  0  0  0  0  0  0  0  0  0  0
    4.7873    1.3014   19.1122 C   0  0  0  0  0  0  0  0  0  0  0  0
    5.4104    1.2733   17.8591 C   0  0  0  0  0  0  0  0  0  0  0  0
    6.5711    0.6432   17.6279 N   0  0  0  0  0  0  0  0  0  0  0  0
    7.1563    0.0267   18.6581 C   0  0  0  0  0  0  0  0  0  0  0  0
    8.1203   -0.4365   18.4551 H   0  0  0  0  0  0  0  0  0  0  0  0
    4.9686    1.7778   17.0012 H   0  0  0  0  0  0  0  0  0  0  0  0
    3.8629    1.8572   19.2343 H   0  0  0  0  0  0  0  0  0  0  0  0
    4.9389    0.6931   21.1697 H   0  0  0  0  0  0  0  0  0  0  0  0
  1  2  2  0
  2  3  1  0
  3  4  1  0
  4  5  1  0
  5  6  1  0
  6  7  1  0
  7  8  2  0
  8  9  1  0
  9 10  2  0
 10 11  1  0
 11 12  2  0
 12 13  1  0
 13 14  1  0
 13 15  1  0
 11 16  1  0
 10 17  1  0
  9 18  1  0
  8 19  1  0
  6 20  1  0
  5 21  1  0
  5 22  1  0
  4 23  1  0
  3 24  1  0
  2 25  1  0
 25 26  2  0
 26 27  1  0
 27 28  2  0
 28 29  1  0
 29 30  2  0
 30 31  1  0
 28 32  1  0
 27 33  1  0
 26 34  1  0
 13  4  1  0
 30 25  1  0
 12  7  1  0
M  END
>  <plip>  (1) 
-0.07142857142857142

>  <filename>  (1) 
[H][c]1[n][c]([H])[c]([C](=[O])[N]([H])[C]2([H])[C]([H])([H])[c]3[c]([H])[c]([H])[c]([H])[c]([H])[c]3[N]([H])[C]2([H])[H])[c]([H])[c]1[H]

$$$$
