
     RDKit          3D

 37 37  0  0  0  0  0  0  0  0999 V2000
    4.9102    1.7767   16.9999 H   0  0  0  0  0  0  0  0  0  0  0  0
    5.4001    1.2933   17.8403 C   0  0  0  0  0  0  0  0  0  0  0  0
    6.5662    0.6823   17.5714 N   0  0  0  0  0  0  0  0  0  0  0  0
    7.1774    0.0642   18.5898 C   0  0  0  0  0  0  0  0  0  0  0  0
    8.1238   -0.4285   18.3719 H   0  0  0  0  0  0  0  0  0  0  0  0
    6.6584    0.0112   19.9006 C   0  0  0  0  0  0  0  0  0  0  0  0
    7.3534   -0.6828   20.9410 C   0  0  0  0  0  0  0  0  0  0  0  0
    7.9393   -1.2800   21.8104 C   0  0  0  0  0  0  0  0  0  0  0  0
    8.6281   -1.9521   22.9044 C   0  0  0  0  0  0  0  0  0  0  0  0
    8.2474   -2.9781   22.9655 H   0  0  0  0  0  0  0  0  0  0  0  0
    9.6890   -2.0257   22.6443 H   0  0  0  0  0  0  0  0  0  0  0  0
    8.4618   -1.2170   24.2438 C   0  0  0  0  0  0  0  0  0  0  0  0
    8.9316   -0.2295   24.1579 H   0  0  0  0  0  0  0  0  0  0  0  0
    9.0334   -1.7587   25.0063 H   0  0  0  0  0  0  0  0  0  0  0  0
    7.0080   -1.0343   24.7041 C   0  0  0  0  0  0  0  0  0  0  0  0
    7.0118   -0.5019   25.6650 H   0  0  0  0  0  0  0  0  0  0  0  0
    6.4822   -0.3804   23.9941 H   0  0  0  0  0  0  0  0  0  0  0  0
    6.2110   -2.3310   24.8687 C   0  0  0  0  0  0  0  0  0  0  0  0
    6.1077   -2.8305   23.8958 H   0  0  0  0  0  0  0  0  0  0  0  0
    5.1881   -2.0745   25.1749 H   0  0  0  0  0  0  0  0  0  0  0  0
    6.8067   -3.2936   25.8989 C   0  0  0  0  0  0  0  0  0  0  0  0
    7.7683   -3.6839   25.5351 H   0  0  0  0  0  0  0  0  0  0  0  0
    7.0337   -2.7361   26.8177 H   0  0  0  0  0  0  0  0  0  0  0  0
    5.8971   -4.4711   26.2407 C   0  0  0  0  0  0  0  0  0  0  0  0
    6.3075   -5.0003   27.1114 H   0  0  0  0  0  0  0  0  0  0  0  0
    4.9135   -4.0909   26.5543 H   0  0  0  0  0  0  0  0  0  0  0  0
    5.7138   -5.4638   25.0948 C   0  0  0  0  0  0  0  0  0  0  0  0
    5.2312   -4.9694   24.2430 H   0  0  0  0  0  0  0  0  0  0  0  0
    6.7007   -5.7894   24.7413 H   0  0  0  0  0  0  0  0  0  0  0  0
    4.8961   -6.6785   25.5028 C   0  0  0  0  0  0  0  0  0  0  0  0
    5.3813   -7.2123   26.3273 H   0  0  0  0  0  0  0  0  0  0  0  0
    3.8995   -6.3750   25.8410 H   0  0  0  0  0  0  0  0  0  0  0  0
    4.7770   -7.3738   24.6680 H   0  0  0  0  0  0  0  0  0  0  0  0
    5.4385    0.6547   20.1563 C   0  0  0  0  0  0  0  0  0  0  0  0
    5.0094    0.6303   21.1611 H   0  0  0  0  0  0  0  0  0  0  0  0
    4.8000    1.3145   19.1058 C   0  0  0  0  0  0  0  0  0  0  0  0
    3.8674    1.8479   19.2619 H   0  0  0  0  0  0  0  0  0  0  0  0
  1  2  1  0
  2  3  2  0
  3  4  1  0
  4  5  1  0
  4  6  2  0
  6  7  1  0
  7  8  3  0
  8  9  1  0
  9 10  1  0
  9 11  1  0
  9 12  1  0
 12 13  1  0
 12 14  1  0
 12 15  1  0
 15 16  1  0
 15 17  1  0
 15 18  1  0
 18 19  1  0
 18 20  1  0
 18 21  1  0
 21 22  1  0
 21 23  1  0
 21 24  1  0
 24 25  1  0
 24 26  1  0
 24 27  1  0
 27 28  1  0
 27 29  1  0
 27 30  1  0
 30 31  1  0
 30 32  1  0
 30 33  1  0
  6 34  1  0
 34 35  1  0
 34 36  2  0
 36 37  1  0
 36  2  1  0
M  END
>  <plip>  (1) 
-0.07142857142857142

>  <filename>  (1) 
[H][c]1[n][c]([H])[c]([C]#[C][C]([H])([H])[C]([H])([H])[C]([H])([H])[C]([H])([H])[C]([H])([H])[C]([H])([H])[C]([H])([H])[C]([H])([H])[H])[c]([H])[c]1[H]

$$$$
