
     RDKit          3D

 42 44  0  0  0  0  0  0  0  0999 V2000
    4.9142    1.7852   16.9925 H   0  0  0  0  0  0  0  0  0  0  0  0
    5.3969    1.2968   17.8349 C   0  0  0  0  0  0  0  0  0  0  0  0
    6.5609    0.6826   17.5697 N   0  0  0  0  0  0  0  0  0  0  0  0
    7.1604    0.0647   18.5921 C   0  0  0  0  0  0  0  0  0  0  0  0
    8.1125   -0.4199   18.3712 H   0  0  0  0  0  0  0  0  0  0  0  0
    6.6414    0.0015   19.8950 C   0  0  0  0  0  0  0  0  0  0  0  0
    7.4296   -0.6655   20.9993 C   0  0  0  0  0  0  0  0  0  0  0  0
    6.7626   -0.9255   21.8302 H   0  0  0  0  0  0  0  0  0  0  0  0
    7.8641   -1.6046   20.6424 H   0  0  0  0  0  0  0  0  0  0  0  0
    8.5283    0.1708   21.4958 N   0  0  0  0  0  0  0  0  0  0  0  0
    9.8178    0.1570   21.0073 C   0  0  0  0  0  0  0  0  0  0  0  0
   10.1332   -0.6183   20.3211 H   0  0  0  0  0  0  0  0  0  0  0  0
   10.5040    1.2252   21.5335 C   0  0  0  0  0  0  0  0  0  0  0  0
   11.5478    1.4646   21.3668 H   0  0  0  0  0  0  0  0  0  0  0  0
    9.5890    1.9583   22.3328 C   0  0  0  0  0  0  0  0  0  0  0  0
    9.7606    2.8594   22.9135 H   0  0  0  0  0  0  0  0  0  0  0  0
    8.3739    1.3058   22.2793 C   0  0  0  0  0  0  0  0  0  0  0  0
    7.1456    1.6582   22.8163 N   0  0  0  0  0  0  0  0  0  0  0  0
    6.6785    3.0473   22.7585 C   0  0  0  0  0  0  0  0  0  0  0  0
    5.6493    3.0528   22.3704 H   0  0  0  0  0  0  0  0  0  0  0  0
    7.2976    3.5912   22.0400 H   0  0  0  0  0  0  0  0  0  0  0  0
    6.6992    3.7577   24.1196 C   0  0  0  0  0  0  0  0  0  0  0  0
    6.2586    4.7552   24.0108 H   0  0  0  0  0  0  0  0  0  0  0  0
    7.7544    3.9136   24.4218 H   0  0  0  0  0  0  0  0  0  0  0  0
    5.9636    2.9844   25.1332 N   0  0  0  0  0  0  0  0  0  0  0  0
    5.8980    3.6792   26.4151 C   0  0  0  0  0  0  0  0  0  0  0  0
    5.6966    2.9451   27.2047 H   0  0  0  0  0  0  0  0  0  0  0  0
    6.8693    4.1459   26.6753 H   0  0  0  0  0  0  0  0  0  0  0  0
    4.7881    4.7198   26.4316 C   0  0  0  0  0  0  0  0  0  0  0  0
    4.9987    5.5468   25.7457 H   0  0  0  0  0  0  0  0  0  0  0  0
    3.8418    4.2618   26.1287 H   0  0  0  0  0  0  0  0  0  0  0  0
    4.6710    5.1346   27.4375 H   0  0  0  0  0  0  0  0  0  0  0  0
    6.5663    1.6499   25.2536 C   0  0  0  0  0  0  0  0  0  0  0  0
    5.9991    1.0646   25.9889 H   0  0  0  0  0  0  0  0  0  0  0  0
    7.6107    1.7024   25.6199 H   0  0  0  0  0  0  0  0  0  0  0  0
    6.5451    0.8944   23.9139 C   0  0  0  0  0  0  0  0  0  0  0  0
    7.0763   -0.0552   24.0293 H   0  0  0  0  0  0  0  0  0  0  0  0
    5.4964    0.6739   23.6640 H   0  0  0  0  0  0  0  0  0  0  0  0
    5.4281    0.6485   20.1500 C   0  0  0  0  0  0  0  0  0  0  0  0
    5.0005    0.6357   21.1581 H   0  0  0  0  0  0  0  0  0  0  0  0
    4.7980    1.3161   19.0979 C   0  0  0  0  0  0  0  0  0  0  0  0
    3.8672    1.8496   19.2522 H   0  0  0  0  0  0  0  0  0  0  0  0
  1  2  1  0
  2  3  2  0
  3  4  1  0
  4  5  1  0
  4  6  2  0
  6  7  1  0
  7  8  1  0
  7  9  1  0
  7 10  1  0
 10 11  1  0
 11 12  1  0
 11 13  2  0
 13 14  1  0
 13 15  1  0
 15 16  1  0
 15 17  2  0
 17 18  1  0
 18 19  1  0
 19 20  1  0
 19 21  1  0
 19 22  1  0
 22 23  1  0
 22 24  1  0
 22 25  1  0
 25 26  1  0
 26 27  1  0
 26 28  1  0
 26 29  1  0
 29 30  1  0
 29 31  1  0
 29 32  1  0
 25 33  1  0
 33 34  1  0
 33 35  1  0
 33 36  1  0
 36 37  1  0
 36 38  1  0
  6 39  1  0
 39 40  1  0
 39 41  2  0
 41 42  1  0
 41  2  1  0
 17 10  1  0
 36 18  1  0
M  END
>  <plip>  (1) 
-0.07142857142857142

>  <filename>  (1) 
[H][c]1[n][c]([H])[c]([C]([H])([H])[n]2[c]([H])[c]([H])[c]([H])[c]2[N]2[C]([H])([H])[C]([H])([H])[N]([C]([H])([H])[C]([H])([H])[H])[C]([H])([H])[C]2([H])[H])[c]([H])[c]1[H]

$$$$
