
     RDKit          3D

 35 37  0  0  0  0  0  0  0  0999 V2000
    6.9384   -2.3854   21.3158 C   0  0  0  0  0  0  0  0  0  0  0  0
    7.4865   -0.6843   21.3237 S   0  0  0  0  0  0  0  0  0  0  0  0
    7.2936   -0.0657   22.6355 O   0  0  0  0  0  0  0  0  0  0  0  0
    9.1175   -0.5835   20.8563 N   0  0  0  0  0  0  0  0  0  0  0  0
    9.5091    0.6958   21.1960 C   0  0  0  0  0  0  0  0  0  0  0  0
    8.6906    1.5937   21.3887 O   0  0  0  0  0  0  0  0  0  0  0  0
   11.0169    1.0169   21.1953 C   0  0  0  0  0  0  0  0  0  0  0  0
   11.6264    1.1602   22.5909 C   0  0  0  0  0  0  0  0  0  0  0  0
   12.2979    2.4594   22.4504 C   0  0  0  0  0  0  0  0  0  0  0  0
   13.1084    3.0344   23.4031 C   0  0  0  0  0  0  0  0  0  0  0  0
   13.5950    4.3294   23.1877 C   0  0  0  0  0  0  0  0  0  0  0  0
   13.3096    5.0021   21.9909 C   0  0  0  0  0  0  0  0  0  0  0  0
   14.0329    6.7493   21.7265 Br  0  0  0  0  0  0  0  0  0  0  0  0
   12.5345    4.3615   21.0056 C   0  0  0  0  0  0  0  0  0  0  0  0
   12.0421    3.0707   21.2487 C   0  0  0  0  0  0  0  0  0  0  0  0
   11.3242    2.2363   20.4489 O   0  0  0  0  0  0  0  0  0  0  0  0
   12.3028    4.8520   20.0694 H   0  0  0  0  0  0  0  0  0  0  0  0
   14.2004    4.8158   23.9449 H   0  0  0  0  0  0  0  0  0  0  0  0
   13.3194    2.4190   24.2664 H   0  0  0  0  0  0  0  0  0  0  0  0
   12.3513    0.3720   22.8205 H   0  0  0  0  0  0  0  0  0  0  0  0
   10.8764    1.1967   23.3873 H   0  0  0  0  0  0  0  0  0  0  0  0
   11.5227    0.1594   20.7520 H   0  0  0  0  0  0  0  0  0  0  0  0
    6.5522    0.0932   20.0526 C   0  0  0  0  0  0  0  0  0  0  0  0
    5.3300    0.7352   20.2197 C   0  0  0  0  0  0  0  0  0  0  0  0
    4.8105    1.3173   19.0772 C   0  0  0  0  0  0  0  0  0  0  0  0
    5.5057    1.2366   17.8695 C   0  0  0  0  0  0  0  0  0  0  0  0
    6.6809    0.5991   17.7565 N   0  0  0  0  0  0  0  0  0  0  0  0
    7.2059    0.0420   18.8444 C   0  0  0  0  0  0  0  0  0  0  0  0
    8.1577   -0.4755   18.7509 H   0  0  0  0  0  0  0  0  0  0  0  0
    5.0882    1.7106   16.9870 H   0  0  0  0  0  0  0  0  0  0  0  0
    3.8708    1.8436   19.1073 H   0  0  0  0  0  0  0  0  0  0  0  0
    4.8026    0.7992   21.1756 H   0  0  0  0  0  0  0  0  0  0  0  0
    5.9003   -2.4043   21.6472 H   0  0  0  0  0  0  0  0  0  0  0  0
    7.5532   -2.9534   22.0134 H   0  0  0  0  0  0  0  0  0  0  0  0
    7.0195   -2.8015   20.3106 H   0  0  0  0  0  0  0  0  0  0  0  0
  1  2  1  0
  2  3  2  0
  2  4  2  0
  4  5  1  0
  5  6  2  0
  5  7  1  0
  7  8  1  0
  8  9  1  0
  9 10  2  0
 10 11  1  0
 11 12  2  0
 12 13  1  0
 12 14  1  0
 14 15  2  0
 15 16  1  0
 14 17  1  0
 11 18  1  0
 10 19  1  0
  8 20  1  0
  8 21  1  0
  7 22  1  0
  2 23  1  0
 23 24  2  0
 24 25  1  0
 25 26  2  0
 26 27  1  0
 27 28  2  0
 28 29  1  0
 26 30  1  0
 25 31  1  0
 24 32  1  0
  1 33  1  0
  1 34  1  0
  1 35  1  0
 16  7  1  0
 28 23  1  0
 15  9  1  0
M  END
>  <plip>  (1) 
-0.12903225806451613

>  <filename>  (1) 
[H][c]1[n][c]([H])[c]([S](=[O])(=[N][C](=[O])[C]2([H])[O][c]3[c]([H])[c]([Br])[c]([H])[c]([H])[c]3[C]2([H])[H])[C]([H])([H])[H])[c]([H])[c]1[H]

$$$$
