
     RDKit          3D

 23 24  0  0  0  0  0  0  0  0999 V2000
   12.5334    4.0567   20.0842 H   0  0  0  0  0  0  0  0  0  0  0  0
   11.9799    3.2186   20.4418 C   0  0  0  0  0  0  0  0  0  0  0  0
   11.3726    2.2672   20.8550 C   0  0  0  0  0  0  0  0  0  0  0  0
   10.7920    1.0971   21.5038 C   0  0  0  0  0  0  0  0  0  0  0  0
   11.4683    0.2421   21.3830 H   0  0  0  0  0  0  0  0  0  0  0  0
   10.6758    1.2862   22.5795 H   0  0  0  0  0  0  0  0  0  0  0  0
    9.5033    0.7617   20.9278 O   0  0  0  0  0  0  0  0  0  0  0  0
    8.8302   -0.2882   21.4211 C   0  0  0  0  0  0  0  0  0  0  0  0
    9.5634   -1.2569   22.7002 S   0  0  0  0  0  0  0  0  0  0  0  0
    7.9003   -2.4112   22.9597 S   0  0  0  0  0  0  0  0  0  0  0  0
    6.9884   -1.7885   21.6156 C   0  0  0  0  0  0  0  0  0  0  0  0
    5.6007   -2.5592   21.1989 S   0  0  0  0  0  0  0  0  0  0  0  0
    7.5877   -0.6419   20.9668 C   0  0  0  0  0  0  0  0  0  0  0  0
    6.8255    0.0641   19.8772 C   0  0  0  0  0  0  0  0  0  0  0  0
    7.2881    0.1408   18.5456 C   0  0  0  0  0  0  0  0  0  0  0  0
    8.2214   -0.3453   18.2732 H   0  0  0  0  0  0  0  0  0  0  0  0
    6.6286    0.7337   17.5340 N   0  0  0  0  0  0  0  0  0  0  0  0
    5.4496    1.3034   17.8192 C   0  0  0  0  0  0  0  0  0  0  0  0
    4.9240    1.7891   16.9937 H   0  0  0  0  0  0  0  0  0  0  0  0
    4.8807    1.2669   19.0944 C   0  0  0  0  0  0  0  0  0  0  0  0
    3.9270    1.7491   19.2615 H   0  0  0  0  0  0  0  0  0  0  0  0
    5.5626    0.6303   20.1336 C   0  0  0  0  0  0  0  0  0  0  0  0
    5.1222    0.5783   21.1304 H   0  0  0  0  0  0  0  0  0  0  0  0
  1  2  1  0
  2  3  3  0
  3  4  1  0
  4  5  1  0
  4  6  1  0
  4  7  1  0
  7  8  1  0
  8  9  1  0
  9 10  1  0
 10 11  1  0
 11 12  2  0
 11 13  1  0
 13 14  1  0
 14 15  2  0
 15 16  1  0
 15 17  1  0
 17 18  2  0
 18 19  1  0
 18 20  1  0
 20 21  1  0
 20 22  2  0
 22 23  1  0
 13  8  2  0
 22 14  1  0
M  END
>  <plip>  (1) 
-0.10714285714285714

>  <filename>  (1) 
[H][C]#[C][C]([H])([H])[O][c]1[s][s][c](=[S])[c]1-[c]1[c]([H])[n][c]([H])[c]([H])[c]1[H]

$$$$
