
     RDKit          3D

 39 41  0  0  0  0  0  0  0  0999 V2000
    9.7790    5.3349   27.2251 H   0  0  0  0  0  0  0  0  0  0  0  0
   10.0453    5.4831   26.3114 O   0  0  0  0  0  0  0  0  0  0  0  0
    9.5308    4.4257   25.5199 C   0  0  0  0  0  0  0  0  0  0  0  0
   10.2215    4.2926   24.6787 H   0  0  0  0  0  0  0  0  0  0  0  0
    9.5102    3.4773   26.0757 H   0  0  0  0  0  0  0  0  0  0  0  0
    8.1229    4.6414   24.9378 C   0  0  0  0  0  0  0  0  0  0  0  0
    7.3933    4.8495   25.7358 H   0  0  0  0  0  0  0  0  0  0  0  0
    8.1136    5.5230   24.2811 H   0  0  0  0  0  0  0  0  0  0  0  0
    7.6515    3.4946   24.1702 N   0  0  0  0  0  0  0  0  0  0  0  0
    8.3648    3.2212   22.9135 C   0  0  0  0  0  0  0  0  0  0  0  0
    8.5543    4.1564   22.3706 H   0  0  0  0  0  0  0  0  0  0  0  0
    9.3485    2.7357   23.0834 H   0  0  0  0  0  0  0  0  0  0  0  0
    7.5090    2.2937   22.0344 C   0  0  0  0  0  0  0  0  0  0  0  0
    8.0472    2.0321   21.1184 H   0  0  0  0  0  0  0  0  0  0  0  0
    6.5888    2.8301   21.7559 H   0  0  0  0  0  0  0  0  0  0  0  0
    7.1689    1.0755   22.7724 N   0  0  0  0  0  0  0  0  0  0  0  0
    7.5141   -0.1658   22.3107 C   0  0  0  0  0  0  0  0  0  0  0  0
    8.4929   -1.2478   23.2640 S   0  0  0  0  0  0  0  0  0  0  0  0
    8.3620   -2.4855   22.0692 C   0  0  0  0  0  0  0  0  0  0  0  0
    8.8396   -3.4475   22.2229 H   0  0  0  0  0  0  0  0  0  0  0  0
    7.6316   -2.0689   21.0051 C   0  0  0  0  0  0  0  0  0  0  0  0
    7.2975   -2.7226   20.2115 H   0  0  0  0  0  0  0  0  0  0  0  0
    7.2132   -0.7050   21.0752 C   0  0  0  0  0  0  0  0  0  0  0  0
    6.5710    0.0321   19.9458 C   0  0  0  0  0  0  0  0  0  0  0  0
    7.1407    0.0940   18.6552 C   0  0  0  0  0  0  0  0  0  0  0  0
    8.1054   -0.3754   18.4634 H   0  0  0  0  0  0  0  0  0  0  0  0
    6.5919    0.7253   17.6070 N   0  0  0  0  0  0  0  0  0  0  0  0
    5.4161    1.3442   17.7998 C   0  0  0  0  0  0  0  0  0  0  0  0
    4.9575    1.8147   16.9282 H   0  0  0  0  0  0  0  0  0  0  0  0
    4.7744    1.3723   19.0389 C   0  0  0  0  0  0  0  0  0  0  0  0
    3.8274    1.8849   19.1408 H   0  0  0  0  0  0  0  0  0  0  0  0
    5.3717    0.7320   20.1249 C   0  0  0  0  0  0  0  0  0  0  0  0
    4.9204    0.7726   21.1127 H   0  0  0  0  0  0  0  0  0  0  0  0
    6.5508    1.3208   24.0735 C   0  0  0  0  0  0  0  0  0  0  0  0
    5.5891    1.8362   23.9228 H   0  0  0  0  0  0  0  0  0  0  0  0
    6.3658    0.3719   24.5856 H   0  0  0  0  0  0  0  0  0  0  0  0
    7.4414    2.2451   24.9180 C   0  0  0  0  0  0  0  0  0  0  0  0
    6.9469    2.4727   25.8728 H   0  0  0  0  0  0  0  0  0  0  0  0
    8.3926    1.7219   25.1573 H   0  0  0  0  0  0  0  0  0  0  0  0
  1  2  1  0
  2  3  1  0
  3  4  1  0
  3  5  1  0
  3  6  1  0
  6  7  1  0
  6  8  1  0
  6  9  1  0
  9 10  1  0
 10 11  1  0
 10 12  1  0
 10 13  1  0
 13 14  1  0
 13 15  1  0
 13 16  1  0
 16 17  1  0
 17 18  1  0
 18 19  1  0
 19 20  1  0
 19 21  2  0
 21 22  1  0
 21 23  1  0
 23 24  1  0
 24 25  2  0
 25 26  1  0
 25 27  1  0
 27 28  2  0
 28 29  1  0
 28 30  1  0
 30 31  1  0
 30 32  2  0
 32 33  1  0
 16 34  1  0
 34 35  1  0
 34 36  1  0
 34 37  1  0
 37 38  1  0
 37 39  1  0
 37  9  1  0
 23 17  2  0
 32 24  1  0
M  END
>  <plip>  (1) 
-0.07142857142857142

>  <filename>  (1) 
[H][O][C]([H])([H])[C]([H])([H])[N]1[C]([H])([H])[C]([H])([H])[N]([c]2[s][c]([H])[c]([H])[c]2-[c]2[c]([H])[n][c]([H])[c]([H])[c]2[H])[C]([H])([H])[C]1([H])[H]

$$$$
