
     RDKit          3D

 31 33  0  0  0  0  0  0  0  0999 V2000
    4.9247    1.7759   17.0035 H   0  0  0  0  0  0  0  0  0  0  0  0
    5.4066    1.2849   17.8481 C   0  0  0  0  0  0  0  0  0  0  0  0
    6.5675    0.6646   17.5926 N   0  0  0  0  0  0  0  0  0  0  0  0
    7.1851    0.0586   18.6131 C   0  0  0  0  0  0  0  0  0  0  0  0
    8.1298   -0.4241   18.3756 H   0  0  0  0  0  0  0  0  0  0  0  0
    6.6705    0.0059   19.9186 C   0  0  0  0  0  0  0  0  0  0  0  0
    7.4067   -0.7274   20.9907 C   0  0  0  0  0  0  0  0  0  0  0  0
    8.7529   -0.7172   20.9308 N   0  0  0  0  0  0  0  0  0  0  0  0
    9.4647   -1.3298   21.8802 N   0  0  0  0  0  0  0  0  0  0  0  0
    8.8530   -1.9780   22.8714 C   0  0  0  0  0  0  0  0  0  0  0  0
    9.5069   -2.4587   23.5886 H   0  0  0  0  0  0  0  0  0  0  0  0
    7.4335   -2.0645   22.9939 C   0  0  0  0  0  0  0  0  0  0  0  0
    6.7826   -2.7526   23.9844 N   0  0  0  0  0  0  0  0  0  0  0  0
    5.7773   -2.6945   23.9934 H   0  0  0  0  0  0  0  0  0  0  0  0
    7.4437   -3.4607   25.0665 C   0  0  0  0  0  0  0  0  0  0  0  0
    8.1138   -4.2272   24.6533 H   0  0  0  0  0  0  0  0  0  0  0  0
    8.0926   -2.7655   25.6223 H   0  0  0  0  0  0  0  0  0  0  0  0
    6.4636   -4.0777   26.0326 C   0  0  0  0  0  0  0  0  0  0  0  0
    5.7996   -4.8200   25.5966 H   0  0  0  0  0  0  0  0  0  0  0  0
    5.9262   -3.2555   27.1688 C   0  0  0  0  0  0  0  0  0  0  0  0
    4.8989   -3.4026   27.4917 H   0  0  0  0  0  0  0  0  0  0  0  0
    6.2666   -2.2258   27.2432 H   0  0  0  0  0  0  0  0  0  0  0  0
    6.9221   -4.3475   27.4409 C   0  0  0  0  0  0  0  0  0  0  0  0
    7.9352   -4.0612   27.7180 H   0  0  0  0  0  0  0  0  0  0  0  0
    6.5772   -5.2383   27.9601 H   0  0  0  0  0  0  0  0  0  0  0  0
    6.7139   -1.4031   21.9978 C   0  0  0  0  0  0  0  0  0  0  0  0
    5.6375   -1.4410   21.9585 H   0  0  0  0  0  0  0  0  0  0  0  0
    5.4454    0.6467   20.1654 C   0  0  0  0  0  0  0  0  0  0  0  0
    5.0011    0.6475   21.1623 H   0  0  0  0  0  0  0  0  0  0  0  0
    4.8139    1.3071   19.1133 C   0  0  0  0  0  0  0  0  0  0  0  0
    3.8817    1.8374   19.2604 H   0  0  0  0  0  0  0  0  0  0  0  0
  1  2  1  0
  2  3  2  0
  3  4  1  0
  4  5  1  0
  4  6  2  0
  6  7  1  0
  7  8  2  0
  8  9  1  0
  9 10  2  0
 10 11  1  0
 10 12  1  0
 12 13  1  0
 13 14  1  0
 13 15  1  0
 15 16  1  0
 15 17  1  0
 15 18  1  0
 18 19  1  0
 18 20  1  0
 20 21  1  0
 20 22  1  0
 20 23  1  0
 23 24  1  0
 23 25  1  0
 12 26  2  0
 26 27  1  0
  6 28  1  0
 28 29  1  0
 28 30  2  0
 30 31  1  0
 30  2  1  0
 26  7  1  0
 23 18  1  0
M  END
>  <plip>  (1) 
-0.07142857142857142

>  <filename>  (1) 
[H][c]1[n][c]([H])[c](-[c]2[n][n][c]([H])[c]([N]([H])[C]([H])([H])[C]3([H])[C]([H])([H])[C]3([H])[H])[c]2[H])[c]([H])[c]1[H]

$$$$
