
     RDKit          3D

 29 30  0  0  0  0  0  0  0  0999 V2000
   11.0231    1.8668   23.1217 C   0  0  0  0  0  0  0  0  0  0  0  0
   10.2346    1.5198   21.8619 C   0  0  1  0  0  0  0  0  0  0  0  0
   10.6207    0.2673   21.2298 N   0  0  0  0  0  0  0  0  0  0  0  0
    9.5843   -0.6280   21.1871 C   0  0  0  0  0  0  0  0  0  0  0  0
    9.6805   -1.7758   20.8229 O   0  0  0  0  0  0  0  0  0  0  0  0
    8.4421    0.0154   21.6322 N   0  0  0  0  0  0  0  0  0  0  0  0
    7.0453   -0.3827   21.4302 C   0  0  2  0  0  0  0  0  0  0  0  0
    6.8896   -1.8924   21.3975 C   0  0  0  0  0  0  0  0  0  0  0  0
    7.4460   -2.3408   22.2233 H   0  0  0  0  0  0  0  0  0  0  0  0
    7.2791   -2.3033   20.4633 H   0  0  0  0  0  0  0  0  0  0  0  0
    5.8323   -2.1541   21.4959 H   0  0  0  0  0  0  0  0  0  0  0  0
    6.4840    0.2943   20.1941 C   0  0  0  0  0  0  0  0  0  0  0  0
    5.2435    0.9479   20.2040 C   0  0  0  0  0  0  0  0  0  0  0  0
    4.7407    1.4538   19.0034 C   0  0  0  0  0  0  0  0  0  0  0  0
    5.5000    1.2997   17.8395 C   0  0  0  0  0  0  0  0  0  0  0  0
    6.6886    0.6804   17.8088 N   0  0  0  0  0  0  0  0  0  0  0  0
    7.1660    0.2159   18.9712 C   0  0  0  0  0  0  0  0  0  0  0  0
    8.1498   -0.2541   18.9299 H   0  0  0  0  0  0  0  0  0  0  0  0
    5.1404    1.6839   16.8868 H   0  0  0  0  0  0  0  0  0  0  0  0
    3.7999    1.9918   18.9626 H   0  0  0  0  0  0  0  0  0  0  0  0
    4.6868    1.0764   21.1356 H   0  0  0  0  0  0  0  0  0  0  0  0
    6.4941    0.0009   22.2978 H   0  0  0  0  0  0  0  0  0  0  0  0
    8.7388    1.2729   22.0935 C   0  0  0  0  0  0  0  0  0  0  0  0
    7.9365    2.0231   22.5989 O   0  0  0  0  0  0  0  0  0  0  0  0
   11.5277   -0.1733   21.2637 H   0  0  0  0  0  0  0  0  0  0  0  0
   10.3043    2.3684   21.1624 H   0  0  0  0  0  0  0  0  0  0  0  0
   12.0641    2.0823   22.8618 H   0  0  0  0  0  0  0  0  0  0  0  0
   10.6030    2.7506   23.6157 H   0  0  0  0  0  0  0  0  0  0  0  0
   10.9992    1.0341   23.8297 H   0  0  0  0  0  0  0  0  0  0  0  0
  1  2  1  0
  2  3  1  0
  3  4  1  0
  4  5  2  0
  4  6  1  0
  6  7  1  0
  7  8  1  0
  8  9  1  0
  8 10  1  0
  8 11  1  0
  7 12  1  0
 12 13  2  0
 13 14  1  0
 14 15  2  0
 15 16  1  0
 16 17  2  0
 17 18  1  0
 15 19  1  0
 14 20  1  0
 13 21  1  0
  7 22  1  1
  6 23  1  0
 23 24  2  0
  3 25  1  0
  2 26  1  6
  1 27  1  0
  1 28  1  0
  1 29  1  0
 23  2  1  0
 17 12  1  0
M  END
>  <plip>  (1) 
-0.07142857142857142

>  <filename>  (1) 
[H][c]1[n][c]([H])[c]([C@]([H])([N]2[C](=[O])[N]([H])[C@]([H])([C]([H])([H])[H])[C]2=[O])[C]([H])([H])[H])[c]([H])[c]1[H]

$$$$
