
     RDKit          3D

 53 56  0  0  0  0  0  0  0  0999 V2000
    8.6219    1.1953   22.5014 C   0  0  0  0  0  0  0  0  0  0  0  0
    8.5448    0.0474   21.5646 N   0  0  0  0  0  4  0  0  0  0  0  0
    9.5274   -1.0355   21.8421 C   0  0  0  0  0  0  0  0  0  0  0  0
    9.0531   -2.1475   20.9185 C   0  0  0  0  0  0  0  0  0  0  0  0
    7.5101   -2.0847   20.9390 C   0  0  1  0  0  0  0  0  0  0  0  0
    6.8713   -3.2411   21.7373 C   0  0  0  0  0  0  0  0  0  0  0  0
    7.4285   -3.4421   23.0962 N   0  0  0  0  0  4  0  0  0  0  0  0
    6.4380   -3.8942   24.1398 C   0  0  0  0  0  0  0  0  0  0  0  0
    5.3666   -2.8308   24.4015 C   0  0  0  0  0  0  0  0  0  0  0  0
    5.8146   -2.7107   25.8800 C   0  0  0  0  0  0  0  0  0  0  0  0
    6.1966   -1.3100   26.3148 C   0  0  0  0  0  0  0  0  0  0  0  0
    5.4873   -0.1978   25.8271 C   0  0  0  0  0  0  0  0  0  0  0  0
    5.8490    1.1053   26.1844 C   0  0  0  0  0  0  0  0  0  0  0  0
    6.9223    1.3155   27.0562 C   0  0  0  0  0  0  0  0  0  0  0  0
    7.6143    0.2191   27.5812 C   0  0  0  0  0  0  0  0  0  0  0  0
    7.2472   -1.0842   27.2157 C   0  0  0  0  0  0  0  0  0  0  0  0
    7.7873   -1.9341   27.6241 H   0  0  0  0  0  0  0  0  0  0  0  0
    8.4444    0.3734   28.2652 H   0  0  0  0  0  0  0  0  0  0  0  0
    7.2156    2.3286   27.3261 H   0  0  0  0  0  0  0  0  0  0  0  0
    5.3003    1.9453   25.7660 H   0  0  0  0  0  0  0  0  0  0  0  0
    4.6512   -0.3637   25.1524 H   0  0  0  0  0  0  0  0  0  0  0  0
    6.9772   -3.7090   25.5653 C   0  0  0  0  0  0  0  0  0  0  0  0
    7.9646   -3.2389   25.5664 H   0  0  0  0  0  0  0  0  0  0  0  0
    7.0253   -4.6012   26.1944 H   0  0  0  0  0  0  0  0  0  0  0  0
    5.0691   -3.1303   26.5687 H   0  0  0  0  0  0  0  0  0  0  0  0
    5.6774   -1.9415   23.8521 H   0  0  0  0  0  0  0  0  0  0  0  0
    4.3220   -3.0554   24.1736 H   0  0  0  0  0  0  0  0  0  0  0  0
    6.0459   -4.8858   23.9067 H   0  0  0  0  0  0  0  0  0  0  0  0
    8.2214   -4.1281   23.0879 H   0  0  0  0  0  0  0  0  0  0  0  0
    7.7980   -2.5225   23.4320 H   0  0  0  0  0  0  0  0  0  0  0  0
    7.0001   -4.1582   21.1493 H   0  0  0  0  0  0  0  0  0  0  0  0
    5.7938   -3.0847   21.8274 H   0  0  0  0  0  0  0  0  0  0  0  0
    7.1692   -0.6102   21.3242 C   0  0  2  0  0  0  0  0  0  0  0  0
    6.5349    0.1570   20.1712 C   0  0  0  0  0  0  0  0  0  0  0  0
    5.3053    0.8276   20.2395 C   0  0  0  0  0  0  0  0  0  0  0  0
    4.8033    1.4270   19.0783 C   0  0  0  0  0  0  0  0  0  0  0  0
    5.5396    1.3434   17.8952 C   0  0  0  0  0  0  0  0  0  0  0  0
    6.7231    0.7151   17.8111 N   0  0  0  0  0  0  0  0  0  0  0  0
    7.2017    0.1634   18.9268 C   0  0  0  0  0  0  0  0  0  0  0  0
    8.1612   -0.3437   18.8042 H   0  0  0  0  0  0  0  0  0  0  0  0
    5.1739    1.7948   16.9741 H   0  0  0  0  0  0  0  0  0  0  0  0
    3.8600    1.9632   19.0751 H   0  0  0  0  0  0  0  0  0  0  0  0
    4.7527    0.8977   21.1796 H   0  0  0  0  0  0  0  0  0  0  0  0
    6.5655   -0.5239   22.2367 H   0  0  0  0  0  0  0  0  0  0  0  0
    7.0915   -2.2481   19.9362 H   0  0  0  0  0  0  0  0  0  0  0  0
    9.4301   -1.9320   19.9118 H   0  0  0  0  0  0  0  0  0  0  0  0
    9.4399   -3.1241   21.2110 H   0  0  0  0  0  0  0  0  0  0  0  0
   10.5576   -0.7125   21.6425 H   0  0  0  0  0  0  0  0  0  0  0  0
    9.4776   -1.3310   22.8990 H   0  0  0  0  0  0  0  0  0  0  0  0
    8.7117    0.4226   20.6095 H   0  0  0  0  0  0  0  0  0  0  0  0
    8.3809    0.8898   23.5290 H   0  0  0  0  0  0  0  0  0  0  0  0
    9.6361    1.6198   22.5155 H   0  0  0  0  0  0  0  0  0  0  0  0
    7.9306    1.9944   22.2146 H   0  0  0  0  0  0  0  0  0  0  0  0
  1  2  1  0
  2  3  1  0
  3  4  1  0
  4  5  1  0
  5  6  1  0
  6  7  1  0
  7  8  1  0
  8  9  1  0
  9 10  1  0
 10 11  1  0
 11 12  2  0
 12 13  1  0
 13 14  2  0
 14 15  1  0
 15 16  2  0
 16 17  1  0
 15 18  1  0
 14 19  1  0
 13 20  1  0
 12 21  1  0
 10 22  1  0
 22 23  1  0
 22 24  1  0
 10 25  1  0
  9 26  1  0
  9 27  1  0
  8 28  1  0
  7 29  1  0
  7 30  1  0
  6 31  1  0
  6 32  1  0
  5 33  1  0
 33 34  1  0
 34 35  2  0
 35 36  1  0
 36 37  2  0
 37 38  1  0
 38 39  2  0
 39 40  1  0
 37 41  1  0
 36 42  1  0
 35 43  1  0
 33 44  1  1
  5 45  1  6
  4 46  1  0
  4 47  1  0
  3 48  1  0
  3 49  1  0
  2 50  1  0
  1 51  1  0
  1 52  1  0
  1 53  1  0
 33  2  1  0
 39 34  1  0
 22  8  1  0
 16 11  1  0
M  CHG  2   2   1   7   1
M  END
>  <plip>  (1) 
-0.06896551724137931

>  <filename>  (1) 
[H][c]1[n][c]([H])[c]([C@@]2([H])[C@]([H])([C]([H])([H])[N+]([H])([H])[C]3([H])[C]([H])([H])[C]([H])([c]4[c]([H])[c]([H])[c]([H])[c]([H])[c]4[H])[C]3([H])[H])[C]([H])([H])[C]([H])([H])[N+]2([H])[C]([H])([H])[H])[c]([H])[c]1[H]

$$$$
