
     RDKit          3D

 24 26  0  0  0  0  0  0  0  0999 V2000
    9.0837   -2.2361   27.3749 H   0  0  0  0  0  0  0  0  0  0  0  0
    8.6052   -1.7770   26.5206 C   0  0  0  0  0  0  0  0  0  0  0  0
    7.6555   -0.8078   26.6454 N   0  0  0  0  0  0  0  0  0  0  0  0
    7.3583   -0.5465   25.3963 C   0  0  0  0  0  0  0  0  0  0  0  0
    6.6309    0.1825   25.0616 H   0  0  0  0  0  0  0  0  0  0  0  0
    8.0922   -1.3238   24.5560 N   0  0  0  0  0  0  0  0  0  0  0  0
    8.0691   -1.3489   23.1335 C   0  0  0  0  0  0  0  0  0  0  0  0
    8.8399   -2.1743   22.3637 C   0  0  0  0  0  0  0  0  0  0  0  0
    9.5548   -2.9028   22.7210 H   0  0  0  0  0  0  0  0  0  0  0  0
    8.5707   -1.9198   20.6994 S   0  0  0  0  0  0  0  0  0  0  0  0
    7.3773   -0.6993   21.0003 C   0  0  0  0  0  0  0  0  0  0  0  0
    6.6652    0.0025   19.9097 C   0  0  0  0  0  0  0  0  0  0  0  0
    7.1791    0.0605   18.5952 C   0  0  0  0  0  0  0  0  0  0  0  0
    8.1290   -0.4318   18.3754 H   0  0  0  0  0  0  0  0  0  0  0  0
    6.5698    0.6824   17.5785 N   0  0  0  0  0  0  0  0  0  0  0  0
    5.4006    1.2915   17.8452 C   0  0  0  0  0  0  0  0  0  0  0  0
    4.9070    1.7727   17.0051 H   0  0  0  0  0  0  0  0  0  0  0  0
    4.8031    1.3117   19.1108 C   0  0  0  0  0  0  0  0  0  0  0  0
    3.8691    1.8470   19.2674 H   0  0  0  0  0  0  0  0  0  0  0  0
    5.4459    0.6526   20.1582 C   0  0  0  0  0  0  0  0  0  0  0  0
    5.0087    0.6270   21.1537 H   0  0  0  0  0  0  0  0  0  0  0  0
    7.2335   -0.5044   22.3434 C   0  0  0  0  0  0  0  0  0  0  0  0
    6.5622    0.2380   22.7559 H   0  0  0  0  0  0  0  0  0  0  0  0
    8.9037   -2.1248   25.2892 N   0  0  0  0  0  0  0  0  0  0  0  0
  1  2  1  0
  2  3  1  0
  3  4  2  0
  4  5  1  0
  4  6  1  0
  6  7  1  0
  7  8  2  0
  8  9  1  0
  8 10  1  0
 10 11  1  0
 11 12  1  0
 12 13  2  0
 13 14  1  0
 13 15  1  0
 15 16  2  0
 16 17  1  0
 16 18  1  0
 18 19  1  0
 18 20  2  0
 20 21  1  0
 11 22  2  0
 22 23  1  0
  6 24  1  0
 24  2  2  0
 22  7  1  0
 20 12  1  0
M  END
>  <plip>  (1) 
-0.03571428571428571

>  <filename>  (1) 
[H][c]1[n][c]([H])[n](-[c]2[c]([H])[s][c](-[c]3[c]([H])[n][c]([H])[c]([H])[c]3[H])[c]2[H])[n]1

$$$$
