
     RDKit          3D

 33 35  0  0  0  0  0  0  0  0999 V2000
    4.9915    1.8140   16.9666 H   0  0  0  0  0  0  0  0  0  0  0  0
    5.4331    1.2954   17.8151 C   0  0  0  0  0  0  0  0  0  0  0  0
    6.5903    0.6591   17.5790 N   0  0  0  0  0  0  0  0  0  0  0  0
    7.1593    0.0184   18.6033 C   0  0  0  0  0  0  0  0  0  0  0  0
    8.1092   -0.4733   18.3970 H   0  0  0  0  0  0  0  0  0  0  0  0
    6.5997   -0.0255   19.8892 C   0  0  0  0  0  0  0  0  0  0  0  0
    7.3178   -0.7338   20.9415 C   0  0  0  0  0  0  0  0  0  0  0  0
    6.9024   -0.8304   22.2281 N   0  0  0  0  0  0  0  0  0  0  0  0
    7.8205   -1.4918   22.8639 N   0  0  0  0  0  0  0  0  0  0  0  0
    8.7613   -1.7670   21.9846 N   0  0  0  0  0  0  0  0  0  0  0  0
   10.0281   -2.3897   22.3779 C   0  0  0  0  0  0  0  0  0  0  0  0
    9.7812   -3.1467   23.1277 H   0  0  0  0  0  0  0  0  0  0  0  0
   10.3845   -2.8854   21.4767 H   0  0  0  0  0  0  0  0  0  0  0  0
   11.0673   -1.5129   22.8827 N   0  0  0  0  0  0  0  0  0  0  0  0
   11.7046   -0.6745   21.8516 C   0  0  0  0  0  0  0  0  0  0  0  0
   10.9879    0.0059   21.3573 H   0  0  0  0  0  0  0  0  0  0  0  0
   12.0910   -1.3345   21.0604 H   0  0  0  0  0  0  0  0  0  0  0  0
   12.8789    0.1256   22.4590 C   0  0  0  0  0  0  0  0  0  0  0  0
   13.3270    0.7663   21.6994 H   0  0  0  0  0  0  0  0  0  0  0  0
   13.6634   -0.5831   22.7524 H   0  0  0  0  0  0  0  0  0  0  0  0
   12.5354    0.9712   23.6151 N   0  0  0  0  0  0  0  0  0  0  0  0
   11.9799    1.7644   23.2899 H   0  0  0  0  0  0  0  0  0  0  0  0
   11.7870    0.1956   24.6158 C   0  0  0  0  0  0  0  0  0  0  0  0
   12.5231   -0.3956   25.1691 H   0  0  0  0  0  0  0  0  0  0  0  0
   11.3538    0.8963   25.3375 H   0  0  0  0  0  0  0  0  0  0  0  0
   10.6803   -0.7666   24.0949 C   0  0  0  0  0  0  0  0  0  0  0  0
   10.4613   -1.5027   24.8776 H   0  0  0  0  0  0  0  0  0  0  0  0
    9.7232   -0.2409   23.9676 H   0  0  0  0  0  0  0  0  0  0  0  0
    8.4923   -1.3335   20.7612 N   0  0  0  0  0  0  0  0  0  0  0  0
    5.3953    0.6506   20.1312 C   0  0  0  0  0  0  0  0  0  0  0  0
    4.9649    0.6666   21.1370 H   0  0  0  0  0  0  0  0  0  0  0  0
    4.8004    1.3156   19.0637 C   0  0  0  0  0  0  0  0  0  0  0  0
    3.8719    1.8612   19.1883 H   0  0  0  0  0  0  0  0  0  0  0  0
  1  2  1  0
  2  3  2  0
  3  4  1  0
  4  5  1  0
  4  6  2  0
  6  7  1  0
  7  8  1  0
  8  9  2  0
  9 10  1  0
 10 11  1  0
 11 12  1  0
 11 13  1  0
 11 14  1  0
 14 15  1  0
 15 16  1  0
 15 17  1  0
 15 18  1  0
 18 19  1  0
 18 20  1  0
 18 21  1  0
 21 22  1  0
 21 23  1  0
 23 24  1  0
 23 25  1  0
 23 26  1  0
 26 27  1  0
 26 28  1  0
 10 29  1  0
  6 30  1  0
 30 31  1  0
 30 32  2  0
 32 33  1  0
 32  2  1  0
 29  7  2  0
 26 14  1  0
M  END
>  <plip>  (1) 
-0.034482758620689655

>  <filename>  (1) 
[H][c]1[n][c]([H])[c](-[c]2[n][n][n]([C]([H])([H])[N]3[C]([H])([H])[C]([H])([H])[N]([H])[C]([H])([H])[C]3([H])[H])[n]2)[c]([H])[c]1[H]

$$$$
