
     RDKit          3D

 44 46  0  0  0  0  0  0  0  0999 V2000
   11.8556   -0.4946   21.4096 C   0  0  0  0  0  0  0  0  0  0  0  0
   10.8970   -0.7400   22.5638 C   0  0  0  0  0  0  0  0  0  0  0  0
    9.5091   -1.1939   22.1400 C   0  0  0  0  0  0  0  0  0  0  0  0
    8.7435   -0.2325   21.2569 N   0  0  0  0  0  4  0  0  0  0  0  0
    7.3573   -0.7820   20.9719 C   0  0  0  0  0  0  0  0  0  0  0  0
    6.6496   -0.0038   19.8935 C   0  0  0  0  0  0  0  0  0  0  0  0
    5.4262    0.6436   20.1260 C   0  0  0  0  0  0  0  0  0  0  0  0
    4.8064    1.3231   19.0747 C   0  0  0  0  0  0  0  0  0  0  0  0
    5.4310    1.3240   17.8249 C   0  0  0  0  0  0  0  0  0  0  0  0
    6.6013    0.7155   17.5822 N   0  0  0  0  0  0  0  0  0  0  0  0
    7.1943    0.0869   18.6052 C   0  0  0  0  0  0  0  0  0  0  0  0
    8.1518   -0.3842   18.3696 H   0  0  0  0  0  0  0  0  0  0  0  0
    4.9572    1.8258   16.9819 H   0  0  0  0  0  0  0  0  0  0  0  0
    3.8660    1.8515   19.2122 H   0  0  0  0  0  0  0  0  0  0  0  0
    4.9719    0.6298   21.1183 H   0  0  0  0  0  0  0  0  0  0  0  0
    7.4561   -1.8384   20.6904 H   0  0  0  0  0  0  0  0  0  0  0  0
    6.7916   -0.7507   21.9101 H   0  0  0  0  0  0  0  0  0  0  0  0
    8.6215    1.2051   21.8906 C   0  0  0  0  0  0  0  0  0  0  0  0
    7.9745    1.3548   23.2640 C   0  0  0  0  0  0  0  0  0  0  0  0
    6.6464    1.8779   23.3755 C   0  0  0  0  0  0  0  0  0  0  0  0
    6.0448    1.9503   24.6128 C   0  0  0  0  0  0  0  0  0  0  0  0
    6.7583    1.5133   25.7675 C   0  0  0  0  0  0  0  0  0  0  0  0
    6.2054    1.5225   27.0896 C   0  0  0  0  0  0  0  0  0  0  0  0
    6.9537    1.0560   28.1491 C   0  0  0  0  0  0  0  0  0  0  0  0
    8.2602    0.5383   27.9476 C   0  0  0  0  0  0  0  0  0  0  0  0
    8.8026    0.5308   26.6867 C   0  0  0  0  0  0  0  0  0  0  0  0
   10.0331    0.0212   26.5081 F   0  0  0  0  0  0  0  0  0  0  0  0
    8.0935    1.0380   25.5552 C   0  0  0  0  0  0  0  0  0  0  0  0
    8.6892    1.0260   24.3200 N   0  0  0  0  0  0  0  0  0  0  0  0
    8.8759    0.1701   28.7681 H   0  0  0  0  0  0  0  0  0  0  0  0
    6.5549    1.0887   29.1605 H   0  0  0  0  0  0  0  0  0  0  0  0
    5.1974    1.9089   27.2453 H   0  0  0  0  0  0  0  0  0  0  0  0
    5.0288    2.3254   24.7266 H   0  0  0  0  0  0  0  0  0  0  0  0
    6.1528    2.2309   22.4764 H   0  0  0  0  0  0  0  0  0  0  0  0
    8.0668    1.8086   21.1753 H   0  0  0  0  0  0  0  0  0  0  0  0
    9.6299    1.6056   21.9729 H   0  0  0  0  0  0  0  0  0  0  0  0
    9.2237   -0.1621   20.3322 H   0  0  0  0  0  0  0  0  0  0  0  0
    8.9085   -1.3463   23.0425 H   0  0  0  0  0  0  0  0  0  0  0  0
    9.5908   -2.1670   21.6348 H   0  0  0  0  0  0  0  0  0  0  0  0
   10.8057    0.1410   23.2047 H   0  0  0  0  0  0  0  0  0  0  0  0
   11.2681   -1.5339   23.2152 H   0  0  0  0  0  0  0  0  0  0  0  0
   11.8067   -1.2941   20.6657 H   0  0  0  0  0  0  0  0  0  0  0  0
   12.8997   -0.4123   21.7327 H   0  0  0  0  0  0  0  0  0  0  0  0
   11.6005    0.4328   20.8885 H   0  0  0  0  0  0  0  0  0  0  0  0
  1  2  1  0
  2  3  1  0
  3  4  1  0
  4  5  1  0
  5  6  1  0
  6  7  2  0
  7  8  1  0
  8  9  2  0
  9 10  1  0
 10 11  2  0
 11 12  1  0
  9 13  1  0
  8 14  1  0
  7 15  1  0
  5 16  1  0
  5 17  1  0
  4 18  1  0
 18 19  1  0
 19 20  2  0
 20 21  1  0
 21 22  2  0
 22 23  1  0
 23 24  2  0
 24 25  1  0
 25 26  2  0
 26 27  1  0
 26 28  1  0
 28 29  2  0
 25 30  1  0
 24 31  1  0
 23 32  1  0
 21 33  1  0
 20 34  1  0
 18 35  1  0
 18 36  1  0
  4 37  1  0
  3 38  1  0
  3 39  1  0
  2 40  1  0
  2 41  1  0
  1 42  1  0
  1 43  1  0
  1 44  1  0
 11  6  1  0
 29 19  1  0
 28 22  1  0
M  CHG  1   4   1
M  END
>  <plip>  (1) 
-0.10344827586206896

>  <filename>  (1) 
[H][c]1[n][c]([H])[c]([C]([H])([H])[N+]([H])([C]([H])([H])[c]2[n][c]3[c]([F])[c]([H])[c]([H])[c]([H])[c]3[c]([H])[c]2[H])[C]([H])([H])[C]([H])([H])[C]([H])([H])[H])[c]([H])[c]1[H]

$$$$
