
     RDKit          3D

 36 37  0  0  0  0  0  0  0  0999 V2000
    8.1520   -1.6564   20.6470 O   0  0  0  0  0  0  0  0  0  0  0  0
    7.4155   -0.7337   20.9708 C   0  0  0  0  0  0  0  0  0  0  0  0
    7.2271   -0.3555   22.2626 N   0  0  0  0  0  0  0  0  0  0  0  0
    7.7678   -1.1131   23.3933 C   0  0  1  0  0  0  0  0  0  0  0  0
    7.9275   -0.2708   24.6751 C   0  0  0  0  0  0  0  0  0  0  0  0
    8.7682    0.8654   24.5508 O   0  0  0  0  0  0  0  0  0  0  0  0
    9.6741    0.5703   24.3828 H   0  0  0  0  0  0  0  0  0  0  0  0
    8.2817   -0.9282   25.4876 H   0  0  0  0  0  0  0  0  0  0  0  0
    6.9430    0.1204   24.9764 H   0  0  0  0  0  0  0  0  0  0  0  0
    6.8693   -2.3491   23.6358 C   0  0  0  0  0  0  0  0  0  0  0  0
    7.4620   -3.3524   24.5956 C   0  0  0  0  0  0  0  0  0  0  0  0
    7.0345   -3.4063   25.9349 C   0  0  0  0  0  0  0  0  0  0  0  0
    7.6072   -4.3090   26.8263 C   0  0  0  0  0  0  0  0  0  0  0  0
    8.6192   -5.1614   26.3833 C   0  0  0  0  0  0  0  0  0  0  0  0
    9.1103   -5.9988   27.3218 O   0  0  0  0  0  0  0  0  0  0  0  0
    9.7954   -6.5576   26.9364 H   0  0  0  0  0  0  0  0  0  0  0  0
    9.0724   -5.1282   25.0628 C   0  0  0  0  0  0  0  0  0  0  0  0
    8.4898   -4.2149   24.1746 C   0  0  0  0  0  0  0  0  0  0  0  0
    8.8372   -4.1610   23.1416 H   0  0  0  0  0  0  0  0  0  0  0  0
    9.8670   -5.7996   24.7459 H   0  0  0  0  0  0  0  0  0  0  0  0
    7.3155   -4.4029   27.8657 H   0  0  0  0  0  0  0  0  0  0  0  0
    6.2491   -2.7340   26.2870 H   0  0  0  0  0  0  0  0  0  0  0  0
    6.6979   -2.8215   22.6625 H   0  0  0  0  0  0  0  0  0  0  0  0
    5.8879   -2.0114   23.9966 H   0  0  0  0  0  0  0  0  0  0  0  0
    8.7657   -1.4816   23.0992 H   0  0  0  0  0  0  0  0  0  0  0  0
    6.8405    0.5642   22.3999 H   0  0  0  0  0  0  0  0  0  0  0  0
    6.6537    0.0477   19.9590 C   0  0  0  0  0  0  0  0  0  0  0  0
    5.4269    0.6889   20.1902 C   0  0  0  0  0  0  0  0  0  0  0  0
    4.8011    1.3198   19.1178 C   0  0  0  0  0  0  0  0  0  0  0  0
    5.4168    1.2823   17.8616 C   0  0  0  0  0  0  0  0  0  0  0  0
    6.5808    0.6579   17.6320 N   0  0  0  0  0  0  0  0  0  0  0  0
    7.1767    0.0546   18.6640 C   0  0  0  0  0  0  0  0  0  0  0  0
    8.1131   -0.4563   18.4439 H   0  0  0  0  0  0  0  0  0  0  0  0
    4.9601    1.7686   17.0018 H   0  0  0  0  0  0  0  0  0  0  0  0
    3.8593    1.8460   19.2364 H   0  0  0  0  0  0  0  0  0  0  0  0
    4.9375    0.6699   21.1657 H   0  0  0  0  0  0  0  0  0  0  0  0
  1  2  2  0
  2  3  1  0
  3  4  1  0
  4  5  1  0
  5  6  1  0
  6  7  1  0
  5  8  1  0
  5  9  1  0
  4 10  1  0
 10 11  1  0
 11 12  2  0
 12 13  1  0
 13 14  2  0
 14 15  1  0
 15 16  1  0
 14 17  1  0
 17 18  2  0
 18 19  1  0
 17 20  1  0
 13 21  1  0
 12 22  1  0
 10 23  1  0
 10 24  1  0
  4 25  1  6
  3 26  1  0
  2 27  1  0
 27 28  2  0
 28 29  1  0
 29 30  2  0
 30 31  1  0
 31 32  2  0
 32 33  1  0
 30 34  1  0
 29 35  1  0
 28 36  1  0
 18 11  1  0
 32 27  1  0
M  END
>  <plip>  (1) 
-0.13793103448275862

>  <filename>  (1) 
[H][O][c]1[c]([H])[c]([H])[c]([C]([H])([H])[C@@]([H])([N]([H])[C](=[O])[c]2[c]([H])[n][c]([H])[c]([H])[c]2[H])[C]([H])([H])[O][H])[c]([H])[c]1[H]

$$$$
