
     RDKit          3D

 44 46  0  0  0  0  0  0  0  0999 V2000
    9.5237    2.0655   22.1506 C   0  0  0  0  0  0  0  0  0  0  0  0
    8.9543    1.0882   21.3098 O   0  0  0  0  0  0  0  0  0  0  0  0
    8.0161    0.2766   21.9829 C   0  0  0  0  0  0  0  0  0  0  0  0
    7.3959   -0.7268   21.0032 C   0  0  1  0  0  0  0  0  0  0  0  0
    6.5513   -1.6730   21.7249 N   0  0  0  0  0  0  0  0  0  0  0  0
    6.0530   -2.7826   21.1200 C   0  0  0  0  0  0  0  0  0  0  0  0
    6.2873   -3.0716   19.9610 O   0  0  0  0  0  0  0  0  0  0  0  0
    5.1987   -3.6880   21.9854 C   0  0  0  0  0  0  0  0  0  0  0  0
    6.0184   -4.6925   22.8090 C   0  0  0  0  0  0  0  0  0  0  0  0
    6.9012   -3.9254   23.6342 O   0  0  0  0  0  0  0  0  0  0  0  0
    7.3202   -4.4588   24.8251 C   0  0  0  0  0  0  0  0  0  0  0  0
    8.3884   -3.8310   25.4605 C   0  0  0  0  0  0  0  0  0  0  0  0
    8.8226   -4.3039   26.7035 C   0  0  0  0  0  0  0  0  0  0  0  0
    8.1801   -5.3942   27.3044 C   0  0  0  0  0  0  0  0  0  0  0  0
    7.0991   -6.0143   26.6697 C   0  0  0  0  0  0  0  0  0  0  0  0
    6.6650   -5.5524   25.4298 C   0  0  0  0  0  0  0  0  0  0  0  0
    5.5781   -6.1400   24.7680 N   0  0  0  0  0  0  0  0  0  0  0  0
    5.1247   -5.7455   23.5548 C   0  0  0  0  0  0  0  0  0  0  0  0
    4.1421   -6.2683   23.0657 O   0  0  0  0  0  0  0  0  0  0  0  0
    4.9778   -6.8362   25.1798 H   0  0  0  0  0  0  0  0  0  0  0  0
    6.5842   -6.8582   27.1197 H   0  0  0  0  0  0  0  0  0  0  0  0
    8.5195   -5.7705   28.2642 H   0  0  0  0  0  0  0  0  0  0  0  0
    9.6577   -3.8170   27.1985 H   0  0  0  0  0  0  0  0  0  0  0  0
    8.8472   -2.9821   24.9581 H   0  0  0  0  0  0  0  0  0  0  0  0
    6.6301   -5.3131   22.1390 H   0  0  0  0  0  0  0  0  0  0  0  0
    4.5941   -4.2955   21.3250 H   0  0  0  0  0  0  0  0  0  0  0  0
    4.5466   -3.1006   22.6400 H   0  0  0  0  0  0  0  0  0  0  0  0
    6.2159   -1.4826   22.6550 H   0  0  0  0  0  0  0  0  0  0  0  0
    6.6289   -0.0260   19.8925 C   0  0  0  0  0  0  0  0  0  0  0  0
    5.4234    0.6423   20.1376 C   0  0  0  0  0  0  0  0  0  0  0  0
    4.7966    1.3140   19.0879 C   0  0  0  0  0  0  0  0  0  0  0  0
    5.4016    1.2989   17.8239 C   0  0  0  0  0  0  0  0  0  0  0  0
    6.5615    0.6788   17.5668 N   0  0  0  0  0  0  0  0  0  0  0  0
    7.1495    0.0428   18.5947 C   0  0  0  0  0  0  0  0  0  0  0  0
    8.1082   -0.4291   18.3683 H   0  0  0  0  0  0  0  0  0  0  0  0
    4.9325    1.8019   16.9793 H   0  0  0  0  0  0  0  0  0  0  0  0
    3.8692    1.8544   19.2382 H   0  0  0  0  0  0  0  0  0  0  0  0
    4.9900    0.6443   21.1406 H   0  0  0  0  0  0  0  0  0  0  0  0
    8.2209   -1.2839   20.5405 H   0  0  0  0  0  0  0  0  0  0  0  0
    7.2078    0.8887   22.4242 H   0  0  0  0  0  0  0  0  0  0  0  0
    8.5025   -0.2828   22.7989 H   0  0  0  0  0  0  0  0  0  0  0  0
   10.2340    2.6415   21.5536 H   0  0  0  0  0  0  0  0  0  0  0  0
    8.7643    2.7531   22.5563 H   0  0  0  0  0  0  0  0  0  0  0  0
   10.0577    1.6056   22.9970 H   0  0  0  0  0  0  0  0  0  0  0  0
  1  2  1  0
  2  3  1  0
  3  4  1  0
  4  5  1  0
  5  6  1  0
  6  7  2  0
  6  8  1  0
  8  9  1  0
  9 10  1  0
 10 11  1  0
 11 12  2  0
 12 13  1  0
 13 14  2  0
 14 15  1  0
 15 16  2  0
 16 17  1  0
 17 18  1  0
 18 19  2  0
 17 20  1  0
 15 21  1  0
 14 22  1  0
 13 23  1  0
 12 24  1  0
  9 25  1  0
  8 26  1  0
  8 27  1  0
  5 28  1  0
  4 29  1  0
 29 30  2  0
 30 31  1  0
 31 32  2  0
 32 33  1  0
 33 34  2  0
 34 35  1  0
 32 36  1  0
 31 37  1  0
 30 38  1  0
  4 39  1  6
  3 40  1  0
  3 41  1  0
  1 42  1  0
  1 43  1  0
  1 44  1  0
 18  9  1  0
 34 29  1  0
 16 11  1  0
M  END
>  <plip>  (1) 
-0.1724137931034483

>  <filename>  (1) 
[H][c]1[n][c]([H])[c]([C@]([H])([N]([H])[C](=[O])[C]([H])([H])[C]2([H])[O][c]3[c]([H])[c]([H])[c]([H])[c]([H])[c]3[N]([H])[C]2=[O])[C]([H])([H])[O][C]([H])([H])[H])[c]([H])[c]1[H]

$$$$
