
     RDKit          3D

 21 22  0  0  0  0  0  0  0  0999 V2000
    8.9045    0.3541   21.1830 H   0  0  0  0  0  0  0  0  0  0  0  0
    8.7508   -0.5558   20.8611 O   0  0  0  0  0  0  0  0  0  0  0  0
    7.3708   -0.7521   20.9169 N   0  0  0  0  0  0  0  0  0  0  0  0
    6.8854   -1.6683   21.8214 C   0  0  0  0  0  0  0  0  0  0  0  0
    5.6808   -2.2501   21.5795 O   0  0  0  0  0  0  0  0  0  0  0  0
    5.4370   -3.0922   22.6238 C   0  0  0  0  0  0  0  0  0  0  0  0
    4.4947   -3.6235   22.5951 H   0  0  0  0  0  0  0  0  0  0  0  0
    6.4460   -3.0336   23.5233 C   0  0  0  0  0  0  0  0  0  0  0  0
    6.4751   -3.5393   24.4797 H   0  0  0  0  0  0  0  0  0  0  0  0
    7.4074   -2.1231   23.0005 C   0  0  0  0  0  0  0  0  0  0  0  0
    8.3721   -1.8744   23.4125 H   0  0  0  0  0  0  0  0  0  0  0  0
    6.6532   -0.0653   19.9159 C   0  0  0  0  0  0  0  0  0  0  0  0
    7.2075    0.0258   18.6250 C   0  0  0  0  0  0  0  0  0  0  0  0
    8.1686   -0.4477   18.4414 H   0  0  0  0  0  0  0  0  0  0  0  0
    6.6178    0.6611   17.6064 N   0  0  0  0  0  0  0  0  0  0  0  0
    5.4467    1.2724   17.8537 C   0  0  0  0  0  0  0  0  0  0  0  0
    4.9928    1.7990   17.0136 H   0  0  0  0  0  0  0  0  0  0  0  0
    4.8316    1.2627   19.1082 C   0  0  0  0  0  0  0  0  0  0  0  0
    3.9046    1.8058   19.2426 H   0  0  0  0  0  0  0  0  0  0  0  0
    5.4309    0.5728   20.1688 C   0  0  0  0  0  0  0  0  0  0  0  0
    4.9824    0.5540   21.1630 H   0  0  0  0  0  0  0  0  0  0  0  0
  1  2  1  0
  2  3  1  0
  3  4  1  0
  4  5  1  0
  5  6  1  0
  6  7  1  0
  6  8  2  0
  8  9  1  0
  8 10  1  0
 10 11  1  0
  3 12  1  0
 12 13  2  0
 13 14  1  0
 13 15  1  0
 15 16  2  0
 16 17  1  0
 16 18  1  0
 18 19  1  0
 18 20  2  0
 20 21  1  0
 10  4  2  0
 20 12  1  0
M  END
>  <plip>  (1) 
-0.07142857142857142

>  <filename>  (1) 
[H][O][N]([c]1[o][c]([H])[c]([H])[c]1[H])[c]1[c]([H])[n][c]([H])[c]([H])[c]1[H]

$$$$
