
     RDKit          3D

 36 37  0  0  0  0  0  0  0  0999 V2000
    8.6589   -0.8235   20.8471 O   0  0  0  0  0  0  0  0  0  0  0  0
    7.4458   -0.7288   20.9678 C   0  0  0  0  0  0  0  0  0  0  0  0
    6.7531   -1.3060   21.9940 N   0  0  0  0  0  0  0  0  0  0  0  0
    7.3677   -1.6255   23.2841 C   0  0  2  0  0  0  0  0  0  0  0  0
    6.8754   -2.9929   23.7906 C   0  0  0  0  0  0  0  0  0  0  0  0
    7.5642   -3.4619   24.9441 O   0  0  0  0  0  0  0  0  0  0  0  0
    8.4675   -3.7078   24.6967 H   0  0  0  0  0  0  0  0  0  0  0  0
    5.8208   -2.9146   24.0902 H   0  0  0  0  0  0  0  0  0  0  0  0
    6.9320   -3.7111   22.9623 H   0  0  0  0  0  0  0  0  0  0  0  0
    7.1510   -0.5185   24.3507 C   0  0  0  0  0  0  0  0  0  0  0  0
    7.6798    0.8317   23.9154 C   0  0  0  0  0  0  0  0  0  0  0  0
    9.0649    1.0942   23.9243 C   0  0  0  0  0  0  0  0  0  0  0  0
    9.5692    2.3055   23.4530 C   0  0  0  0  0  0  0  0  0  0  0  0
    8.6886    3.2697   22.9555 C   0  0  0  0  0  0  0  0  0  0  0  0
    9.2231    4.4511   22.5594 O   0  0  0  0  0  0  0  0  0  0  0  0
    8.5358    4.9519   22.1052 H   0  0  0  0  0  0  0  0  0  0  0  0
    7.3120    3.0206   22.8982 C   0  0  0  0  0  0  0  0  0  0  0  0
    6.8181    1.8085   23.3882 C   0  0  0  0  0  0  0  0  0  0  0  0
    5.7431    1.6244   23.3659 H   0  0  0  0  0  0  0  0  0  0  0  0
    6.6556    3.7792   22.4781 H   0  0  0  0  0  0  0  0  0  0  0  0
   10.6297    2.5463   23.4351 H   0  0  0  0  0  0  0  0  0  0  0  0
    9.7538    0.3370   24.3079 H   0  0  0  0  0  0  0  0  0  0  0  0
    6.0796   -0.4419   24.5955 H   0  0  0  0  0  0  0  0  0  0  0  0
    7.6524   -0.8429   25.2722 H   0  0  0  0  0  0  0  0  0  0  0  0
    8.4488   -1.7072   23.0929 H   0  0  0  0  0  0  0  0  0  0  0  0
    5.7550   -1.1764   21.9441 H   0  0  0  0  0  0  0  0  0  0  0  0
    6.6154   -0.0215   19.9569 C   0  0  0  0  0  0  0  0  0  0  0  0
    5.3990    0.6416   20.1914 C   0  0  0  0  0  0  0  0  0  0  0  0
    4.7910    1.3018   19.1243 C   0  0  0  0  0  0  0  0  0  0  0  0
    5.4135    1.2697   17.8714 C   0  0  0  0  0  0  0  0  0  0  0  0
    6.5734    0.6394   17.6409 N   0  0  0  0  0  0  0  0  0  0  0  0
    7.1627    0.0310   18.6719 C   0  0  0  0  0  0  0  0  0  0  0  0
    8.1235   -0.4395   18.4700 H   0  0  0  0  0  0  0  0  0  0  0  0
    4.9702    1.7716   17.0134 H   0  0  0  0  0  0  0  0  0  0  0  0
    3.8618    1.8530   19.2398 H   0  0  0  0  0  0  0  0  0  0  0  0
    4.9297    0.6849   21.1779 H   0  0  0  0  0  0  0  0  0  0  0  0
  1  2  2  0
  2  3  1  0
  3  4  1  0
  4  5  1  0
  5  6  1  0
  6  7  1  0
  5  8  1  0
  5  9  1  0
  4 10  1  0
 10 11  1  0
 11 12  2  0
 12 13  1  0
 13 14  2  0
 14 15  1  0
 15 16  1  0
 14 17  1  0
 17 18  2  0
 18 19  1  0
 17 20  1  0
 13 21  1  0
 12 22  1  0
 10 23  1  0
 10 24  1  0
  4 25  1  6
  3 26  1  0
  2 27  1  0
 27 28  2  0
 28 29  1  0
 29 30  2  0
 30 31  1  0
 31 32  2  0
 32 33  1  0
 30 34  1  0
 29 35  1  0
 28 36  1  0
 18 11  1  0
 32 27  1  0
M  END
>  <plip>  (1) 
-0.03571428571428571

>  <filename>  (1) 
[H][O][c]1[c]([H])[c]([H])[c]([C]([H])([H])[C@]([H])([N]([H])[C](=[O])[c]2[c]([H])[n][c]([H])[c]([H])[c]2[H])[C]([H])([H])[O][H])[c]([H])[c]1[H]

$$$$
