
     RDKit          3D

 27 28  0  0  0  0  0  0  0  0999 V2000
    9.0298    0.0470   27.9119 H   0  0  0  0  0  0  0  0  0  0  0  0
    7.7965    0.2731   27.1247 C   0  0  0  0  0  0  0  0  0  0  0  0
    7.8754    1.4270   26.7148 H   0  0  0  0  0  0  0  0  0  0  0  0
    7.5691    0.3136   26.9257 C   0  0  0  0  0  0  0  0  0  0  0  0
    6.7374    0.1298   27.7403 H   0  0  0  0  0  0  0  0  0  0  0  0
    7.5661   -0.6076   25.8605 C   0  0  0  0  0  0  0  0  0  0  0  0
    7.0259   -1.6864   25.7864 O   0  0  0  0  0  0  0  0  0  0  0  0
    8.1652   -0.1021   24.6577 N   0  0  0  0  0  0  0  0  0  0  0  0
    7.8689    0.8359   24.3980 H   0  0  0  0  0  0  0  0  0  0  0  0
    8.1635   -0.7549   23.4349 C   0  0  0  0  0  0  0  0  0  0  0  0
    7.5519   -0.0104   22.5052 N   0  0  0  0  0  0  0  0  0  0  0  0
    7.6086   -0.4527   21.2292 C   0  0  0  0  0  0  0  0  0  0  0  0
    6.8473    0.2807   20.1862 C   0  0  0  0  0  0  0  0  0  0  0  0
    7.3841    0.3991   18.8933 C   0  0  0  0  0  0  0  0  0  0  0  0
    8.3870    0.0338   18.6749 H   0  0  0  0  0  0  0  0  0  0  0  0
    6.7457    0.9504   17.8592 N   0  0  0  0  0  0  0  0  0  0  0  0
    5.5195    1.4436   18.0875 C   0  0  0  0  0  0  0  0  0  0  0  0
    5.0172    1.8917   17.2322 H   0  0  0  0  0  0  0  0  0  0  0  0
    4.8961    1.4037   19.3393 C   0  0  0  0  0  0  0  0  0  0  0  0
    3.9113    1.8427   19.4610 H   0  0  0  0  0  0  0  0  0  0  0  0
    5.5699    0.8164   20.4116 C   0  0  0  0  0  0  0  0  0  0  0  0
    5.1234    0.7660   21.4069 H   0  0  0  0  0  0  0  0  0  0  0  0
    8.3645   -1.5965   20.9022 C   0  0  0  0  0  0  0  0  0  0  0  0
    8.4975   -1.8705   19.8674 H   0  0  0  0  0  0  0  0  0  0  0  0
    8.9497   -2.3821   21.8301 N   0  0  0  0  0  0  0  0  0  0  0  0
    8.8384   -1.9759   23.0983 C   0  0  0  0  0  0  0  0  0  0  0  0
    9.2938   -2.5879   23.8672 H   0  0  0  0  0  0  0  0  0  0  0  0
  1  2  1  0
  2  3  1  0
  2  4  2  3
  4  5  1  0
  4  6  1  0
  6  7  2  0
  6  8  1  0
  8  9  1  0
  8 10  1  0
 10 11  2  0
 11 12  1  0
 12 13  1  0
 13 14  2  0
 14 15  1  0
 14 16  1  0
 16 17  2  0
 17 18  1  0
 17 19  1  0
 19 20  1  0
 19 21  2  0
 21 22  1  0
 12 23  2  0
 23 24  1  0
 23 25  1  0
 25 26  2  0
 26 27  1  0
 26 10  1  0
 21 13  1  0
M  END
>  <plip>  (1) 
-0.03571428571428571

>  <filename>  (1) 
[H][C]([H])=[C]([H])[C](=[O])[N]([H])[c]1[n][c](-[c]2[c]([H])[n][c]([H])[c]([H])[c]2[H])[c]([H])[n][c]1[H]

$$$$
