
     RDKit          3D

 25 25  0  0  0  0  0  0  0  0999 V2000
    5.0043    1.6437   16.8044 H   0  0  0  0  0  0  0  0  0  0  0  0
    5.4405    1.2388   17.7169 C   0  0  0  0  0  0  0  0  0  0  0  0
    6.6073    0.5940   17.5716 N   0  0  0  0  0  0  0  0  0  0  0  0
    7.1817    0.1037   18.6782 C   0  0  0  0  0  0  0  0  0  0  0  0
    8.1493   -0.3750   18.5327 H   0  0  0  0  0  0  0  0  0  0  0  0
    6.6374    0.2047   19.9684 C   0  0  0  0  0  0  0  0  0  0  0  0
    7.3513   -0.3285   21.2015 C   0  0  2  0  0  0  0  0  0  0  0  0
    6.9572    0.2119   22.0754 H   0  0  0  0  0  0  0  0  0  0  0  0
    9.1280    0.1415   21.1618 S   0  0  0  0  0  0  0  0  0  0  0  0
    9.3806    0.1826   22.9202 N   0  0  0  0  0  0  0  0  0  0  0  0
    9.6493   -0.7052   23.3165 H   0  0  0  0  0  0  0  0  0  0  0  0
    9.3515    1.0097   24.3697 S   0  0  0  0  0  0  0  0  0  0  0  0
    8.0325    1.3742   24.8151 O   0  0  0  0  0  0  0  0  0  0  0  0
   10.5066    1.8617   24.5476 O   0  0  0  0  0  0  0  0  0  0  0  0
    9.7495   -0.3721   25.1984 N   0  0  0  0  0  0  0  0  0  0  0  0
   10.6783   -0.0608   25.4767 H   0  0  0  0  0  0  0  0  0  0  0  0
    9.1522   -0.2710   26.0169 H   0  0  0  0  0  0  0  0  0  0  0  0
    7.1980   -1.8417   21.4531 C   0  0  0  0  0  0  0  0  0  0  0  0
    7.4176   -2.0656   22.5032 H   0  0  0  0  0  0  0  0  0  0  0  0
    7.8939   -2.4209   20.8393 H   0  0  0  0  0  0  0  0  0  0  0  0
    6.1829   -2.1942   21.2449 H   0  0  0  0  0  0  0  0  0  0  0  0
    5.4013    0.8610   20.0888 C   0  0  0  0  0  0  0  0  0  0  0  0
    4.9302    0.9712   21.0672 H   0  0  0  0  0  0  0  0  0  0  0  0
    4.7954    1.3923   18.9470 C   0  0  0  0  0  0  0  0  0  0  0  0
    3.8658    1.9515   18.9988 H   0  0  0  0  0  0  0  0  0  0  0  0
  1  2  1  0
  2  3  2  0
  3  4  1  0
  4  5  1  0
  4  6  2  0
  6  7  1  0
  7  8  1  1
  7  9  1  0
  9 10  1  0
 10 11  1  0
 10 12  1  0
 12 13  2  0
 12 14  2  0
 12 15  1  0
 15 16  1  0
 15 17  1  0
  7 18  1  0
 18 19  1  0
 18 20  1  0
 18 21  1  0
  6 22  1  0
 22 23  1  0
 22 24  2  0
 24 25  1  0
 24  2  1  0
M  END
>  <plip>  (1) 
-0.07142857142857142

>  <filename>  (1) 
[H][c]1[n][c]([H])[c]([C@]([H])([S][N]([H])[S](=[O])(=[O])[N]([H])[H])[C]([H])([H])[H])[c]([H])[c]1[H]

$$$$
