
     RDKit          3D

 30 31  0  0  0  0  0  0  0  0999 V2000
    5.0258    1.7527   16.9606 H   0  0  0  0  0  0  0  0  0  0  0  0
    5.4669    1.2448   17.8136 C   0  0  0  0  0  0  0  0  0  0  0  0
    6.6235    0.5964   17.5901 N   0  0  0  0  0  0  0  0  0  0  0  0
    7.1946   -0.0262   18.6292 C   0  0  0  0  0  0  0  0  0  0  0  0
    8.1347   -0.5507   18.4377 H   0  0  0  0  0  0  0  0  0  0  0  0
    6.6625   -0.0163   19.9394 C   0  0  0  0  0  0  0  0  0  0  0  0
    7.2990   -0.6644   21.0164 N   0  0  0  0  0  0  0  0  0  0  0  0
    8.0839   -1.2720   20.8756 H   0  0  0  0  0  0  0  0  0  0  0  0
    7.4892   -0.1780   22.2931 C   0  0  0  0  0  0  0  0  0  0  0  0
    6.9994    0.9218   22.6948 N   0  0  0  0  0  0  0  0  0  0  0  0
    7.1771    1.4245   24.0349 N   0  0  0  0  0  0  0  0  0  0  0  0
    6.4218    1.0328   24.6081 H   0  0  0  0  0  0  0  0  0  0  0  0
    6.9084    2.8781   23.9930 C   0  0  0  0  0  0  0  0  0  0  0  0
    6.9976    3.2553   25.0225 H   0  0  0  0  0  0  0  0  0  0  0  0
    7.7123    3.3357   23.4046 H   0  0  0  0  0  0  0  0  0  0  0  0
    5.5779    3.2470   23.3761 C   0  0  0  0  0  0  0  0  0  0  0  0
    4.0923    2.9236   24.1880 S   0  0  0  0  0  0  0  0  0  0  0  0
    3.1684    3.5187   22.8704 C   0  0  0  0  0  0  0  0  0  0  0  0
    2.0933    3.5498   22.9507 H   0  0  0  0  0  0  0  0  0  0  0  0
    3.9616    3.9084   21.8341 C   0  0  0  0  0  0  0  0  0  0  0  0
    3.5922    4.2859   20.8861 H   0  0  0  0  0  0  0  0  0  0  0  0
    5.3462    3.7373   22.1213 C   0  0  0  0  0  0  0  0  0  0  0  0
    6.1521    3.9201   21.4170 H   0  0  0  0  0  0  0  0  0  0  0  0
    8.2697   -1.1587   22.9164 N   0  0  0  0  0  0  0  0  0  0  0  0
    8.4001   -0.8835   23.8835 H   0  0  0  0  0  0  0  0  0  0  0  0
    7.6938   -1.9888   22.8335 H   0  0  0  0  0  0  0  0  0  0  0  0
    5.4409    0.6361   20.1483 C   0  0  0  0  0  0  0  0  0  0  0  0
    5.0247    0.6398   21.1541 H   0  0  0  0  0  0  0  0  0  0  0  0
    4.8350    1.2679   19.0590 C   0  0  0  0  0  0  0  0  0  0  0  0
    3.8873    1.7854   19.1623 H   0  0  0  0  0  0  0  0  0  0  0  0
  1  2  1  0
  2  3  2  0
  3  4  1  0
  4  5  1  0
  4  6  2  0
  6  7  1  0
  7  8  1  0
  7  9  1  0
  9 10  2  3
 10 11  1  0
 11 12  1  0
 11 13  1  0
 13 14  1  0
 13 15  1  0
 13 16  1  0
 16 17  1  0
 17 18  1  0
 18 19  1  0
 18 20  2  0
 20 21  1  0
 20 22  1  0
 22 23  1  0
  9 24  1  0
 24 25  1  0
 24 26  1  0
  6 27  1  0
 27 28  1  0
 27 29  2  0
 29 30  1  0
 29  2  1  0
 22 16  2  0
M  END
>  <plip>  (1) 
-0.034482758620689655

>  <filename>  (1) 
[H][c]1[n][c]([H])[c]([N]([H])[C](=[N][N]([H])[C]([H])([H])[c]2[s][c]([H])[c]([H])[c]2[H])[N]([H])[H])[c]([H])[c]1[H]

$$$$
