
     RDKit          3D

 25 26  0  0  0  0  0  0  0  0999 V2000
    4.9522    1.7712   16.9890 H   0  0  0  0  0  0  0  0  0  0  0  0
    5.4240    1.2818   17.8392 C   0  0  0  0  0  0  0  0  0  0  0  0
    6.5861    0.6580   17.5966 N   0  0  0  0  0  0  0  0  0  0  0  0
    7.1812    0.0581   18.6260 C   0  0  0  0  0  0  0  0  0  0  0  0
    8.1313   -0.4375   18.4346 H   0  0  0  0  0  0  0  0  0  0  0  0
    6.6573    0.0348   19.9280 C   0  0  0  0  0  0  0  0  0  0  0  0
    7.5100   -0.7015   20.9146 C   0  0  0  0  0  0  0  0  0  0  0  0
    8.6125   -1.0910   20.6065 O   0  0  0  0  0  0  0  0  0  0  0  0
    6.8416   -1.0531   22.5664 S   0  0  0  0  0  0  0  0  0  0  0  0
    6.3978   -2.8461   22.4965 C   0  0  2  0  0  0  0  0  0  0  0  0
    6.0120   -3.0216   23.5066 H   0  0  0  0  0  0  0  0  0  0  0  0
    7.5378   -3.8388   22.1896 C   0  0  0  0  0  0  0  0  0  0  0  0
    7.9818   -4.2495   23.1042 H   0  0  0  0  0  0  0  0  0  0  0  0
    8.3356   -3.3558   21.6105 H   0  0  0  0  0  0  0  0  0  0  0  0
    6.9698   -4.9159   21.4618 O   0  0  0  0  0  0  0  0  0  0  0  0
    5.6659   -4.6122   20.9846 C   0  0  0  0  0  0  0  0  0  0  0  0
    5.6505   -4.7054   19.8885 H   0  0  0  0  0  0  0  0  0  0  0  0
    4.9493   -5.3429   21.3815 H   0  0  0  0  0  0  0  0  0  0  0  0
    5.3342   -3.1862   21.4419 C   0  0  0  0  0  0  0  0  0  0  0  0
    4.3181   -3.0860   21.8314 H   0  0  0  0  0  0  0  0  0  0  0  0
    5.4315   -2.5114   20.5879 H   0  0  0  0  0  0  0  0  0  0  0  0
    5.4378    0.6811   20.1733 C   0  0  0  0  0  0  0  0  0  0  0  0
    4.9860    0.6999   21.1678 H   0  0  0  0  0  0  0  0  0  0  0  0
    4.8137    1.3175   19.0977 C   0  0  0  0  0  0  0  0  0  0  0  0
    3.8706    1.8382   19.2196 H   0  0  0  0  0  0  0  0  0  0  0  0
  1  2  1  0
  2  3  2  0
  3  4  1  0
  4  5  1  0
  4  6  2  0
  6  7  1  0
  7  8  2  0
  7  9  1  0
  9 10  1  0
 10 11  1  1
 10 12  1  0
 12 13  1  0
 12 14  1  0
 12 15  1  0
 15 16  1  0
 16 17  1  0
 16 18  1  0
 16 19  1  0
 19 20  1  0
 19 21  1  0
  6 22  1  0
 22 23  1  0
 22 24  2  0
 24 25  1  0
 24  2  1  0
 19 10  1  0
M  END
>  <plip>  (1) 
-0.03333333333333333

>  <filename>  (1) 
[H][c]1[n][c]([H])[c]([C](=[O])[S][C@]2([H])[C]([H])([H])[O][C]([H])([H])[C]2([H])[H])[c]([H])[c]1[H]

$$$$
