
     RDKit          3D

 50 53  0  0  0  0  0  0  0  0999 V2000
   -1.0568   -7.4694   23.1476 F   0  0  0  0  0  0  0  0  0  0  0  0
    0.1443   -6.9077   22.9793 C   0  0  0  0  0  0  0  0  0  0  0  0
    0.2416   -5.6258   22.4558 C   0  0  0  0  0  0  0  0  0  0  0  0
    1.4973   -5.0431   22.2824 C   0  0  0  0  0  0  0  0  0  0  0  0
    2.6760   -5.7383   22.6154 C   0  0  0  0  0  0  0  0  0  0  0  0
    4.0096   -5.1618   22.3020 C   0  0  0  0  0  0  0  0  0  0  0  0
    4.3076   -3.9781   21.8560 N   0  0  0  0  0  0  0  0  0  0  0  0
    5.6576   -4.0329   21.5207 C   0  0  0  0  0  0  0  0  0  0  0  0
    6.3347   -2.9054   20.7874 C   0  0  0  0  0  0  0  0  0  0  0  0
    6.6868   -1.7461   21.6492 N   0  0  0  0  0  4  0  0  0  0  0  0
    7.4556   -0.6347   21.0016 C   0  0  0  0  0  0  0  0  0  0  0  0
    7.8609    0.3055   22.1380 C   0  0  0  0  0  0  0  0  0  0  0  0
    8.7389    1.4859   21.6870 C   0  0  0  0  0  0  0  0  0  0  0  0
   10.1881    1.0710   21.3699 C   0  0  0  0  0  0  0  0  0  0  0  0
   10.9250    1.2514   22.7121 C   0  0  0  0  0  0  0  0  0  0  0  0
   10.0723    2.0130   23.5560 O   0  0  0  0  0  0  0  0  0  0  0  0
    8.9918    2.5189   22.7910 C   0  0  0  0  0  0  0  0  0  0  0  0
    9.2444    3.4934   22.3383 H   0  0  0  0  0  0  0  0  0  0  0  0
    8.1449    2.6672   23.4709 H   0  0  0  0  0  0  0  0  0  0  0  0
   11.1302    0.2979   23.2158 H   0  0  0  0  0  0  0  0  0  0  0  0
   11.8863    1.7670   22.5729 H   0  0  0  0  0  0  0  0  0  0  0  0
   10.6129    1.7369   20.6119 H   0  0  0  0  0  0  0  0  0  0  0  0
   10.2831    0.0463   20.9944 H   0  0  0  0  0  0  0  0  0  0  0  0
    8.2432    1.9594   20.8301 H   0  0  0  0  0  0  0  0  0  0  0  0
    6.9384    0.6863   22.5964 H   0  0  0  0  0  0  0  0  0  0  0  0
    8.3832   -0.2823   22.9051 H   0  0  0  0  0  0  0  0  0  0  0  0
    6.6308    0.0257   19.9039 C   0  0  0  0  0  0  0  0  0  0  0  0
    5.4063    0.6817   20.1221 C   0  0  0  0  0  0  0  0  0  0  0  0
    4.7863    1.3260   19.0475 C   0  0  0  0  0  0  0  0  0  0  0  0
    5.3970    1.2907   17.7908 C   0  0  0  0  0  0  0  0  0  0  0  0
    6.5414    0.6373   17.5502 N   0  0  0  0  0  0  0  0  0  0  0  0
    7.1241    0.0276   18.5905 C   0  0  0  0  0  0  0  0  0  0  0  0
    8.0532   -0.4970   18.3660 H   0  0  0  0  0  0  0  0  0  0  0  0
    4.9474    1.8055   16.9415 H   0  0  0  0  0  0  0  0  0  0  0  0
    3.8539    1.8669   19.1699 H   0  0  0  0  0  0  0  0  0  0  0  0
    4.9403    0.7120   21.1099 H   0  0  0  0  0  0  0  0  0  0  0  0
    8.3584   -1.0440   20.5245 H   0  0  0  0  0  0  0  0  0  0  0  0
    5.7767   -1.2868   21.9535 H   0  0  0  0  0  0  0  0  0  0  0  0
    7.1987   -2.0917   22.4957 H   0  0  0  0  0  0  0  0  0  0  0  0
    5.6506   -2.5594   20.0048 H   0  0  0  0  0  0  0  0  0  0  0  0
    7.2217   -3.2887   20.2726 H   0  0  0  0  0  0  0  0  0  0  0  0
    6.1119   -5.2724   21.8220 C   0  0  0  0  0  0  0  0  0  0  0  0
    5.0763   -6.0013   22.3254 O   0  0  0  0  0  0  0  0  0  0  0  0
    7.0504   -5.7959   21.7098 H   0  0  0  0  0  0  0  0  0  0  0  0
    2.5572   -7.0424   23.1467 C   0  0  0  0  0  0  0  0  0  0  0  0
    1.3033   -7.6086   23.3390 C   0  0  0  0  0  0  0  0  0  0  0  0
    1.1935   -8.8412   23.8490 F   0  0  0  0  0  0  0  0  0  0  0  0
    3.4219   -7.6645   23.3624 H   0  0  0  0  0  0  0  0  0  0  0  0
    1.5202   -4.0680   21.8208 H   0  0  0  0  0  0  0  0  0  0  0  0
   -0.6671   -5.1059   22.1699 H   0  0  0  0  0  0  0  0  0  0  0  0
  1  2  1  0
  2  3  2  0
  3  4  1  0
  4  5  2  0
  5  6  1  0
  6  7  2  0
  7  8  1  0
  8  9  1  0
  9 10  1  0
 10 11  1  0
 11 12  1  0
 12 13  1  0
 13 14  1  0
 14 15  1  0
 15 16  1  0
 16 17  1  0
 17 18  1  0
 17 19  1  0
 15 20  1  0
 15 21  1  0
 14 22  1  0
 14 23  1  0
 13 24  1  0
 12 25  1  0
 12 26  1  0
 11 27  1  0
 27 28  2  0
 28 29  1  0
 29 30  2  0
 30 31  1  0
 31 32  2  0
 32 33  1  0
 30 34  1  0
 29 35  1  0
 28 36  1  0
 11 37  1  0
 10 38  1  0
 10 39  1  0
  9 40  1  0
  9 41  1  0
  8 42  2  0
 42 43  1  0
 42 44  1  0
  5 45  1  0
 45 46  2  0
 46 47  1  0
 45 48  1  0
  4 49  1  0
  3 50  1  0
 46  2  1  0
 43  6  1  0
 17 13  1  0
 32 27  1  0
M  CHG  1  10   1
M  END
>  <plip>  (1) 
-0.13793103448275862

>  <filename>  (1) 
[H][c]1[n][c]([H])[c]([C]([H])([C]([H])([H])[C]2([H])[C]([H])([H])[O][C]([H])([H])[C]2([H])[H])[N+]([H])([H])[C]([H])([H])[c]2[n][c](-[c]3[c]([H])[c]([H])[c]([F])[c]([F])[c]3[H])[o][c]2[H])[c]([H])[c]1[H]

$$$$
