
     RDKit          3D

 28 29  0  0  0  0  0  0  0  0999 V2000
    6.5075   -0.0741   22.0964 H   0  0  0  0  0  0  0  0  0  0  0  0
    7.0335   -0.3251   21.1703 C   0  0  0  0  0  0  0  0  0  0  0  0
    8.0897   -1.1364   21.1474 C   0  0  0  0  0  0  0  0  0  0  0  0
    8.6783   -1.3747   20.2689 H   0  0  0  0  0  0  0  0  0  0  0  0
    8.6141   -2.0451   22.5677 S   0  0  0  0  0  0  0  0  0  0  0  0
    9.3840   -3.1515   22.0301 O   0  0  0  0  0  0  0  0  0  0  0  0
    7.4584   -2.2665   23.4294 O   0  0  0  0  0  0  0  0  0  0  0  0
    9.7272   -0.8997   23.3951 C   0  0  0  0  0  0  0  0  0  0  0  0
    9.3033   -0.1984   24.5367 C   0  0  0  0  0  0  0  0  0  0  0  0
    8.2998   -0.3133   24.9443 H   0  0  0  0  0  0  0  0  0  0  0  0
   10.1907    0.6829   25.1608 C   0  0  0  0  0  0  0  0  0  0  0  0
    9.8870    1.2156   26.0577 H   0  0  0  0  0  0  0  0  0  0  0  0
   11.4746    0.8876   24.6498 C   0  0  0  0  0  0  0  0  0  0  0  0
   12.1578    1.5817   25.1315 H   0  0  0  0  0  0  0  0  0  0  0  0
   11.8771    0.1981   23.5024 C   0  0  0  0  0  0  0  0  0  0  0  0
   12.8708    0.3594   23.0979 H   0  0  0  0  0  0  0  0  0  0  0  0
   11.0140   -0.6997   22.8739 C   0  0  0  0  0  0  0  0  0  0  0  0
   11.3541   -1.2267   21.9834 H   0  0  0  0  0  0  0  0  0  0  0  0
    6.4485    0.2618   19.9524 C   0  0  0  0  0  0  0  0  0  0  0  0
    7.0326    0.1463   18.6724 C   0  0  0  0  0  0  0  0  0  0  0  0
    7.9609   -0.4055   18.5237 H   0  0  0  0  0  0  0  0  0  0  0  0
    6.5111    0.6840   17.5642 N   0  0  0  0  0  0  0  0  0  0  0  0
    5.3556    1.3544   17.6808 C   0  0  0  0  0  0  0  0  0  0  0  0
    4.9623    1.8013   16.7697 H   0  0  0  0  0  0  0  0  0  0  0  0
    4.6646    1.4842   18.8886 C   0  0  0  0  0  0  0  0  0  0  0  0
    3.7214    2.0151   18.9178 H   0  0  0  0  0  0  0  0  0  0  0  0
    5.2233    0.9408   20.0413 C   0  0  0  0  0  0  0  0  0  0  0  0
    4.7278    1.0271   21.0078 H   0  0  0  0  0  0  0  0  0  0  0  0
  1  2  1  0
  2  3  2  3
  3  4  1  0
  3  5  1  0
  5  6  2  0
  5  7  2  0
  5  8  1  0
  8  9  2  0
  9 10  1  0
  9 11  1  0
 11 12  1  0
 11 13  2  0
 13 14  1  0
 13 15  1  0
 15 16  1  0
 15 17  2  0
 17 18  1  0
  2 19  1  0
 19 20  2  0
 20 21  1  0
 20 22  1  0
 22 23  2  0
 23 24  1  0
 23 25  1  0
 25 26  1  0
 25 27  2  0
 27 28  1  0
 17  8  1  0
 27 19  1  0
M  END
>  <plip>  (1) 
-0.06896551724137931

>  <filename>  (1) 
[H][C](=[C]([H])[S](=[O])(=[O])[c]1[c]([H])[c]([H])[c]([H])[c]([H])[c]1[H])[c]1[c]([H])[n][c]([H])[c]([H])[c]1[H]

$$$$
