
     RDKit          3D

 23 24  0  0  0  0  0  0  0  0999 V2000
    5.0410    1.7947   16.7758 H   0  0  0  0  0  0  0  0  0  0  0  0
    5.4129    1.3476   17.6936 C   0  0  0  0  0  0  0  0  0  0  0  0
    6.5723    0.6805   17.5969 N   0  0  0  0  0  0  0  0  0  0  0  0
    7.0484    0.1325   18.7134 C   0  0  0  0  0  0  0  0  0  0  0  0
    7.9689   -0.4362   18.6185 H   0  0  0  0  0  0  0  0  0  0  0  0
    6.4308    0.2325   19.9727 C   0  0  0  0  0  0  0  0  0  0  0  0
    7.1678   -0.4022   21.0615 C   0  0  0  0  0  0  0  0  0  0  0  0
    8.2392   -1.1491   20.8492 N   0  0  0  0  0  0  0  0  0  0  0  0
    8.5828   -1.5735   22.0782 C   0  0  0  0  0  0  0  0  0  0  0  0
    9.7101   -2.4912   22.2447 C   0  0  0  0  0  0  0  0  0  0  0  0
    9.5718   -3.1325   23.1105 H   0  0  0  0  0  0  0  0  0  0  0  0
    9.7797   -3.0743   21.3293 H   0  0  0  0  0  0  0  0  0  0  0  0
   10.9954   -1.7377   22.3837 C   0  0  0  0  0  0  0  0  0  0  0  0
   11.3224   -1.0826   21.2637 F   0  0  0  0  0  0  0  0  0  0  0  0
   10.9683   -0.8459   23.3852 F   0  0  0  0  0  0  0  0  0  0  0  0
   11.9733   -2.6276   22.6253 F   0  0  0  0  0  0  0  0  0  0  0  0
    7.8385   -1.1277   23.0589 N   0  0  0  0  0  0  0  0  0  0  0  0
    6.9265   -0.3707   22.3880 N   0  0  0  0  0  0  0  0  0  0  0  0
    6.1849    0.1075   22.8796 H   0  0  0  0  0  0  0  0  0  0  0  0
    5.1852    0.8794   20.0478 C   0  0  0  0  0  0  0  0  0  0  0  0
    4.6122    0.9075   20.9758 H   0  0  0  0  0  0  0  0  0  0  0  0
    4.6770    1.4517   18.8794 C   0  0  0  0  0  0  0  0  0  0  0  0
    3.7240    1.9688   18.8704 H   0  0  0  0  0  0  0  0  0  0  0  0
  1  2  1  0
  2  3  2  0
  3  4  1  0
  4  5  1  0
  4  6  2  0
  6  7  1  0
  7  8  2  0
  8  9  1  0
  9 10  1  0
 10 11  1  0
 10 12  1  0
 10 13  1  0
 13 14  1  0
 13 15  1  0
 13 16  1  0
  9 17  2  0
 17 18  1  0
 18 19  1  0
  6 20  1  0
 20 21  1  0
 20 22  2  0
 22 23  1  0
 22  2  1  0
 18  7  1  0
M  END
>  <plip>  (1) 
-0.07142857142857142

>  <filename>  (1) 
[H][c]1[n][c]([H])[c](-[c]2[n][c]([C]([H])([H])[C]([F])([F])[F])[n][n]2[H])[c]([H])[c]1[H]

$$$$
