
     RDKit          3D

 32 35  0  0  0  0  0  0  0  0999 V2000
    9.5303   -6.6740   23.8049 H   0  0  0  0  0  0  0  0  0  0  0  0
    8.7889   -5.9004   23.6422 C   0  0  0  0  0  0  0  0  0  0  0  0
    8.0002   -5.8402   22.5312 N   0  0  0  0  0  0  0  0  0  0  0  0
    7.2156   -4.8237   22.8099 C   0  0  0  0  0  0  0  0  0  0  0  0
    6.4042   -4.4445   22.2015 H   0  0  0  0  0  0  0  0  0  0  0  0
    7.5190   -4.2986   24.0120 N   0  0  0  0  0  0  0  0  0  0  0  0
    6.9817   -3.0937   24.6237 C   0  0  0  0  0  0  0  0  0  0  0  0
    6.9897   -3.2529   25.7047 H   0  0  0  0  0  0  0  0  0  0  0  0
    5.9394   -3.0054   24.3177 H   0  0  0  0  0  0  0  0  0  0  0  0
    7.7627   -1.8276   24.2786 C   0  0  0  0  0  0  0  0  0  0  0  0
    7.8805   -1.5264   22.8275 C   0  0  0  0  0  0  0  0  0  0  0  0
    8.8392   -1.8700   22.0353 N   0  0  0  0  0  0  0  0  0  0  0  0
    8.5319   -1.3482   20.7875 N   0  0  0  0  0  0  0  0  0  0  0  0
    7.4060   -0.7183   20.9211 C   0  0  0  0  0  0  0  0  0  0  0  0
    6.6475    0.0121   19.9087 C   0  0  0  0  0  0  0  0  0  0  0  0
    7.1707    0.0591   18.6067 C   0  0  0  0  0  0  0  0  0  0  0  0
    8.1170   -0.4275   18.3868 H   0  0  0  0  0  0  0  0  0  0  0  0
    6.5664    0.6720   17.5866 N   0  0  0  0  0  0  0  0  0  0  0  0
    5.4043    1.2891   17.8446 C   0  0  0  0  0  0  0  0  0  0  0  0
    4.9279    1.7787   16.9983 H   0  0  0  0  0  0  0  0  0  0  0  0
    4.8023    1.3106   19.1094 C   0  0  0  0  0  0  0  0  0  0  0  0
    3.8710    1.8454   19.2530 H   0  0  0  0  0  0  0  0  0  0  0  0
    5.4253    0.6570   20.1710 C   0  0  0  0  0  0  0  0  0  0  0  0
    4.9873    0.6438   21.1735 H   0  0  0  0  0  0  0  0  0  0  0  0
    6.9256   -0.7977   22.1871 O   0  0  0  0  0  0  0  0  0  0  0  0
    8.9618   -1.4994   25.1384 C   0  0  0  0  0  0  0  0  0  0  0  0
    9.8216   -1.0623   24.6389 H   0  0  0  0  0  0  0  0  0  0  0  0
    9.2231   -2.1869   25.9388 H   0  0  0  0  0  0  0  0  0  0  0  0
    7.7200   -0.6782   25.2610 C   0  0  0  0  0  0  0  0  0  0  0  0
    7.1099   -0.7871   26.1548 H   0  0  0  0  0  0  0  0  0  0  0  0
    7.7240    0.3326   24.8625 H   0  0  0  0  0  0  0  0  0  0  0  0
    8.5495   -4.9806   24.5534 N   0  0  0  0  0  0  0  0  0  0  0  0
  1  2  1  0
  2  3  1  0
  3  4  2  0
  4  5  1  0
  4  6  1  0
  6  7  1  0
  7  8  1  0
  7  9  1  0
  7 10  1  0
 10 11  1  0
 11 12  2  0
 12 13  1  0
 13 14  2  0
 14 15  1  0
 15 16  2  0
 16 17  1  0
 16 18  1  0
 18 19  2  0
 19 20  1  0
 19 21  1  0
 21 22  1  0
 21 23  2  0
 23 24  1  0
 14 25  1  0
 10 26  1  0
 26 27  1  0
 26 28  1  0
 26 29  1  0
 29 30  1  0
 29 31  1  0
  6 32  1  0
 32  2  2  0
 29 10  1  0
 25 11  1  0
 23 15  1  0
M  END
>  <plip>  (1) 
-0.0

>  <filename>  (1) 
[H][c]1[n][c]([H])[n]([C]([H])([H])[C]2([c]3[n][n][c](-[c]4[c]([H])[n][c]([H])[c]([H])[c]4[H])[o]3)[C]([H])([H])[C]2([H])[H])[n]1

$$$$
