
     RDKit          3D

 35 38  0  0  0  0  0  0  0  0999 V2000
    4.9209    1.8056   16.9718 H   0  0  0  0  0  0  0  0  0  0  0  0
    5.3903    1.3032   17.8172 C   0  0  0  0  0  0  0  0  0  0  0  0
    6.5534    0.6820   17.5609 N   0  0  0  0  0  0  0  0  0  0  0  0
    7.1591    0.0674   18.5844 C   0  0  0  0  0  0  0  0  0  0  0  0
    8.1010   -0.4214   18.3433 H   0  0  0  0  0  0  0  0  0  0  0  0
    6.6618    0.0079   19.9020 C   0  0  0  0  0  0  0  0  0  0  0  0
    7.3951   -0.7071   20.9696 C   0  0  0  0  0  0  0  0  0  0  0  0
    8.7915   -1.0214   21.0316 C   0  0  0  0  0  0  0  0  0  0  0  0
    9.5231   -0.7361   20.2860 H   0  0  0  0  0  0  0  0  0  0  0  0
    9.0248   -1.6872   22.2039 C   0  0  0  0  0  0  0  0  0  0  0  0
    9.9315   -2.1033   22.6216 H   0  0  0  0  0  0  0  0  0  0  0  0
    7.8238   -1.8190   22.8920 N   0  0  0  0  0  0  0  0  0  0  0  0
    7.6077   -2.4502   24.1610 C   0  0  0  0  0  0  0  0  0  0  0  0
    8.6507   -2.4862   25.1044 C   0  0  0  0  0  0  0  0  0  0  0  0
    9.5918   -1.9992   24.8792 H   0  0  0  0  0  0  0  0  0  0  0  0
    8.4845   -3.1220   26.3364 C   0  0  0  0  0  0  0  0  0  0  0  0
    9.2815   -3.1744   27.0721 H   0  0  0  0  0  0  0  0  0  0  0  0
    7.2741   -3.7302   26.6564 C   0  0  0  0  0  0  0  0  0  0  0  0
    6.2043   -3.6658   25.7343 C   0  0  0  0  0  0  0  0  0  0  0  0
    6.3750   -3.0442   24.4961 C   0  0  0  0  0  0  0  0  0  0  0  0
    5.5236   -3.0581   23.8234 H   0  0  0  0  0  0  0  0  0  0  0  0
    4.9913   -4.2438   26.0146 O   0  0  0  0  0  0  0  0  0  0  0  0
    4.7695   -4.5761   27.3902 C   0  0  0  0  0  0  0  0  0  0  0  0
    3.9472   -5.2958   27.3884 H   0  0  0  0  0  0  0  0  0  0  0  0
    4.4748   -3.6752   27.9475 H   0  0  0  0  0  0  0  0  0  0  0  0
    6.0145   -5.1970   28.0222 C   0  0  0  0  0  0  0  0  0  0  0  0
    5.8761   -5.3190   29.0999 H   0  0  0  0  0  0  0  0  0  0  0  0
    6.2273   -6.1708   27.5597 H   0  0  0  0  0  0  0  0  0  0  0  0
    7.1497   -4.3424   27.8764 O   0  0  0  0  0  0  0  0  0  0  0  0
    6.8605   -1.2161   22.1220 C   0  0  0  0  0  0  0  0  0  0  0  0
    5.8480   -1.2003   22.4572 H   0  0  0  0  0  0  0  0  0  0  0  0
    5.4370    0.6603   20.1376 C   0  0  0  0  0  0  0  0  0  0  0  0
    4.9992    0.6682   21.1359 H   0  0  0  0  0  0  0  0  0  0  0  0
    4.7966    1.3170   19.0848 C   0  0  0  0  0  0  0  0  0  0  0  0
    3.8619    1.8514   19.2317 H   0  0  0  0  0  0  0  0  0  0  0  0
  1  2  1  0
  2  3  2  0
  3  4  1  0
  4  5  1  0
  4  6  2  0
  6  7  1  0
  7  8  1  0
  8  9  1  0
  8 10  2  0
 10 11  1  0
 10 12  1  0
 12 13  1  0
 13 14  2  0
 14 15  1  0
 14 16  1  0
 16 17  1  0
 16 18  2  0
 18 19  1  0
 19 20  2  0
 20 21  1  0
 19 22  1  0
 22 23  1  0
 23 24  1  0
 23 25  1  0
 23 26  1  0
 26 27  1  0
 26 28  1  0
 26 29  1  0
 12 30  1  0
 30 31  1  0
  6 32  1  0
 32 33  1  0
 32 34  2  0
 34 35  1  0
 34  2  1  0
 30  7  2  0
 20 13  1  0
 29 18  1  0
M  END
>  <plip>  (1) 
-0.034482758620689655

>  <filename>  (1) 
[H][c]1[n][c]([H])[c](-[c]2[c]([H])[c]([H])[n](-[c]3[c]([H])[c]([H])[c]4[c]([c]3[H])[O][C]([H])([H])[C]([H])([H])[O]4)[c]2[H])[c]([H])[c]1[H]

$$$$
