
     RDKit          3D

 50 54  0  0  0  0  0  0  0  0999 V2000
    7.0136    1.7159   22.5036 O   0  0  0  0  0  0  0  0  0  0  0  0
    8.1722    1.3952   22.2431 C   0  0  0  0  0  0  0  0  0  0  0  0
    8.4906    0.2968   21.5089 N   0  0  0  0  0  0  0  0  0  0  0  0
    7.5152   -0.6646   20.9922 C   0  0  0  0  0  0  0  0  0  0  0  0
    6.6563   -0.0006   19.9174 C   0  0  0  0  0  0  0  0  0  0  0  0
    5.4303    0.6449   20.1492 C   0  0  0  0  0  0  0  0  0  0  0  0
    4.7895    1.2984   19.0874 C   0  0  0  0  0  0  0  0  0  0  0  0
    5.3954    1.2875   17.8271 C   0  0  0  0  0  0  0  0  0  0  0  0
    6.5631    0.6738   17.5786 N   0  0  0  0  0  0  0  0  0  0  0  0
    7.1633    0.0643   18.6078 C   0  0  0  0  0  0  0  0  0  0  0  0
    8.1171   -0.4062   18.3700 H   0  0  0  0  0  0  0  0  0  0  0  0
    4.9368    1.7970   16.9798 H   0  0  0  0  0  0  0  0  0  0  0  0
    3.8604    1.8444   19.2322 H   0  0  0  0  0  0  0  0  0  0  0  0
    4.9965    0.6840   21.1514 H   0  0  0  0  0  0  0  0  0  0  0  0
    6.7226   -1.3575   22.1283 C   0  0  0  0  0  0  0  0  0  0  0  0
    5.7016   -2.3811   21.6107 C   0  0  0  0  0  0  0  0  0  0  0  0
    5.4701   -3.4222   22.7275 C   0  0  0  0  0  0  0  0  0  0  0  0
    6.6048   -3.1880   23.7644 C   0  0  0  0  0  0  0  0  0  0  0  0
    7.5694   -2.1568   23.1281 C   0  0  0  0  0  0  0  0  0  0  0  0
    8.3707   -2.6758   22.5854 H   0  0  0  0  0  0  0  0  0  0  0  0
    8.0498   -1.5028   23.8675 H   0  0  0  0  0  0  0  0  0  0  0  0
    6.1798   -2.8028   24.7004 H   0  0  0  0  0  0  0  0  0  0  0  0
    7.1251   -4.1154   24.0383 H   0  0  0  0  0  0  0  0  0  0  0  0
    4.4852   -3.2905   23.1907 H   0  0  0  0  0  0  0  0  0  0  0  0
    5.4664   -4.4478   22.3370 H   0  0  0  0  0  0  0  0  0  0  0  0
    4.8322   -1.7871   21.3681 H   0  0  0  0  0  0  0  0  0  0  0  0
    6.0318   -2.8547   20.6791 H   0  0  0  0  0  0  0  0  0  0  0  0
    6.1920   -0.5633   22.6707 H   0  0  0  0  0  0  0  0  0  0  0  0
    8.0984   -1.4566   20.4979 H   0  0  0  0  0  0  0  0  0  0  0  0
    9.4782    0.1153   21.4188 H   0  0  0  0  0  0  0  0  0  0  0  0
    9.3412    2.2295   22.7428 C   0  0  0  0  0  0  0  0  0  0  0  0
    9.2187    3.3935   23.4723 C   0  0  0  0  0  0  0  0  0  0  0  0
    8.0270    4.1890   23.9427 C   0  0  0  0  0  0  0  0  0  0  0  0
    8.3552    5.2980   24.7863 O   0  0  0  0  0  0  0  0  0  0  0  0
    9.6450    5.7168   24.9521 C   0  0  0  0  0  0  0  0  0  0  0  0
    9.8345    6.8904   25.6846 C   0  0  0  0  0  0  0  0  0  0  0  0
   11.1257    7.3758   25.9108 C   0  0  0  0  0  0  0  0  0  0  0  0
   12.2307    6.6803   25.4011 C   0  0  0  0  0  0  0  0  0  0  0  0
   12.0508    5.5053   24.6702 C   0  0  0  0  0  0  0  0  0  0  0  0
   10.7625    5.0137   24.4432 C   0  0  0  0  0  0  0  0  0  0  0  0
   10.5005    3.8254   23.7150 N   0  0  0  0  0  0  0  0  0  0  0  0
   11.3426    2.9133   23.1321 C   0  0  0  0  0  0  0  0  0  0  0  0
   10.6882    1.9474   22.5483 N   0  0  0  0  0  0  0  0  0  0  0  0
   12.4214    3.0134   23.1743 H   0  0  0  0  0  0  0  0  0  0  0  0
   12.9044    4.9709   24.2665 H   0  0  0  0  0  0  0  0  0  0  0  0
   13.2407    7.0445   25.5618 H   0  0  0  0  0  0  0  0  0  0  0  0
   11.2739    8.2906   26.4804 H   0  0  0  0  0  0  0  0  0  0  0  0
    8.9517    7.3999   26.0621 H   0  0  0  0  0  0  0  0  0  0  0  0
    7.3322    3.5517   24.5034 H   0  0  0  0  0  0  0  0  0  0  0  0
    7.4553    4.5715   23.0854 H   0  0  0  0  0  0  0  0  0  0  0  0
  1  2  2  0
  2  3  1  0
  3  4  1  0
  4  5  1  0
  5  6  2  0
  6  7  1  0
  7  8  2  0
  8  9  1  0
  9 10  2  0
 10 11  1  0
  8 12  1  0
  7 13  1  0
  6 14  1  0
  4 15  1  0
 15 16  1  0
 16 17  1  0
 17 18  1  0
 18 19  1  0
 19 20  1  0
 19 21  1  0
 18 22  1  0
 18 23  1  0
 17 24  1  0
 17 25  1  0
 16 26  1  0
 16 27  1  0
 15 28  1  0
  4 29  1  0
  3 30  1  0
  2 31  1  0
 31 32  2  0
 32 33  1  0
 33 34  1  0
 34 35  1  0
 35 36  2  0
 36 37  1  0
 37 38  2  0
 38 39  1  0
 39 40  2  0
 40 41  1  0
 41 42  1  0
 42 43  2  0
 42 44  1  0
 39 45  1  0
 38 46  1  0
 37 47  1  0
 36 48  1  0
 33 49  1  0
 33 50  1  0
 10  5  1  0
 19 15  1  0
 43 31  1  0
 41 32  1  0
 40 35  1  0
M  END
>  <plip>  (1) 
-0.10344827586206896

>  <filename>  (1) 
[H][c]1[n][c]([H])[c]([C]([H])([N]([H])[C](=[O])[c]2[n][c]([H])[n]3[c]2[C]([H])([H])[O][c]2[c]([H])[c]([H])[c]([H])[c]([H])[c]2-3)[C]2([H])[C]([H])([H])[C]([H])([H])[C]([H])([H])[C]2([H])[H])[c]([H])[c]1[H]

$$$$
