
     RDKit          3D

 34 37  0  0  0  0  0  0  0  0999 V2000
    4.9607    1.9778   16.7324 H   0  0  0  0  0  0  0  0  0  0  0  0
    5.4551    1.4482   17.5421 C   0  0  0  0  0  0  0  0  0  0  0  0
    6.5911    0.8111   17.2092 N   0  0  0  0  0  0  0  0  0  0  0  0
    7.2361    0.1539   18.1785 C   0  0  0  0  0  0  0  0  0  0  0  0
    8.1471   -0.3673   17.8754 H   0  0  0  0  0  0  0  0  0  0  0  0
    6.7810    0.0876   19.5084 C   0  0  0  0  0  0  0  0  0  0  0  0
    7.4569   -0.6867   20.5390 C   0  0  0  0  0  0  0  0  0  0  0  0
    6.9416   -1.3395   21.5991 C   0  0  0  0  0  0  0  0  0  0  0  0
    5.9241   -1.4750   21.9263 H   0  0  0  0  0  0  0  0  0  0  0  0
    7.9828   -1.9242   22.3004 N   0  0  0  0  0  0  0  0  0  0  0  0
    7.7265   -2.6736   23.4934 C   0  0  0  0  0  0  0  0  0  0  0  0
    6.9396   -3.8038   23.4341 C   0  0  0  0  0  0  0  0  0  0  0  0
    6.5232   -4.1129   22.4765 H   0  0  0  0  0  0  0  0  0  0  0  0
    6.6137   -4.5788   24.5038 N   0  0  0  0  0  0  0  0  0  0  0  0
    7.0799   -4.2219   25.6841 C   0  0  0  0  0  0  0  0  0  0  0  0
    6.7902   -4.8346   26.5373 H   0  0  0  0  0  0  0  0  0  0  0  0
    7.8916   -3.0623   25.9042 C   0  0  0  0  0  0  0  0  0  0  0  0
    8.4049   -2.6934   27.1860 C   0  0  0  0  0  0  0  0  0  0  0  0
    8.2690   -3.3867   28.0141 H   0  0  0  0  0  0  0  0  0  0  0  0
    9.0305   -1.4777   27.3536 C   0  0  0  0  0  0  0  0  0  0  0  0
    9.4174   -1.1794   28.3248 H   0  0  0  0  0  0  0  0  0  0  0  0
    9.1603   -0.5639   26.2729 C   0  0  0  0  0  0  0  0  0  0  0  0
    9.6014    0.4172   26.4528 H   0  0  0  0  0  0  0  0  0  0  0  0
    8.7253   -0.9220   25.0142 C   0  0  0  0  0  0  0  0  0  0  0  0
    8.7967   -0.2292   24.1823 H   0  0  0  0  0  0  0  0  0  0  0  0
    8.1420   -2.2072   24.7873 C   0  0  0  0  0  0  0  0  0  0  0  0
    9.1852   -1.6350   21.6717 C   0  0  0  0  0  0  0  0  0  0  0  0
   10.7589   -1.9974   22.0499 S   0  0  0  0  0  0  0  0  0  0  0  0
    8.8208   -0.8979   20.5881 N   0  0  0  0  0  0  0  0  0  0  0  0
    9.5532   -0.4597   20.0551 H   0  0  0  0  0  0  0  0  0  0  0  0
    5.5935    0.7614   19.8377 C   0  0  0  0  0  0  0  0  0  0  0  0
    5.2347    0.7519   20.8693 H   0  0  0  0  0  0  0  0  0  0  0  0
    4.9177    1.4470   18.8342 C   0  0  0  0  0  0  0  0  0  0  0  0
    3.9960    1.9793   19.0370 H   0  0  0  0  0  0  0  0  0  0  0  0
  1  2  1  0
  2  3  2  0
  3  4  1  0
  4  5  1  0
  4  6  2  0
  6  7  1  0
  7  8  2  0
  8  9  1  0
  8 10  1  0
 10 11  1  0
 11 12  2  0
 12 13  1  0
 12 14  1  0
 14 15  2  0
 15 16  1  0
 15 17  1  0
 17 18  2  0
 18 19  1  0
 18 20  1  0
 20 21  1  0
 20 22  2  0
 22 23  1  0
 22 24  1  0
 24 25  1  0
 24 26  2  0
 10 27  1  0
 27 28  2  0
 27 29  1  0
 29 30  1  0
  6 31  1  0
 31 32  1  0
 31 33  2  0
 33 34  1  0
 33  2  1  0
 29  7  1  0
 26 11  1  0
 26 17  1  0
M  END
>  <plip>  (1) 
-0.03333333333333333

>  <filename>  (1) 
[H][c]1[n][c]([H])[c](-[c]2[c]([H])[n](-[c]3[c]([H])[n][c]([H])[c]4[c]([H])[c]([H])[c]([H])[c]([H])[c]34)[c](=[S])[n]2[H])[c]([H])[c]1[H]

$$$$
