
     RDKit          3D

 36 37  0  0  0  0  0  0  0  0999 V2000
    5.4416   -2.4014   20.8837 O   0  0  0  0  0  0  0  0  0  0  0  0
    6.3640   -1.8005   21.3818 C   0  0  0  0  0  0  0  0  0  0  0  0
    7.0384   -0.7184   20.8222 N   0  0  0  0  0  0  0  0  0  0  0  0
    6.5940    0.0189   19.6906 C   0  0  0  0  0  0  0  0  0  0  0  0
    5.3710    0.6994   19.7505 C   0  0  0  0  0  0  0  0  0  0  0  0
    4.9594    1.4479   18.6405 C   0  0  0  0  0  0  0  0  0  0  0  0
    5.7593    1.4606   17.4958 C   0  0  0  0  0  0  0  0  0  0  0  0
    6.9312    0.8092   17.4141 N   0  0  0  0  0  0  0  0  0  0  0  0
    7.3410    0.1280   18.4947 C   0  0  0  0  0  0  0  0  0  0  0  0
    8.3111   -0.3659   18.4243 H   0  0  0  0  0  0  0  0  0  0  0  0
    5.4463    1.9975   16.6023 H   0  0  0  0  0  0  0  0  0  0  0  0
    4.0463    2.0322   18.6567 H   0  0  0  0  0  0  0  0  0  0  0  0
    4.7756    0.6479   20.6576 H   0  0  0  0  0  0  0  0  0  0  0  0
    8.0206   -0.7282   21.0391 H   0  0  0  0  0  0  0  0  0  0  0  0
    6.9352   -2.1140   22.5919 N   0  0  0  0  0  0  0  0  0  0  0  0
    6.3892   -3.0969   23.5619 C   0  0  0  0  0  0  0  0  0  0  0  0
    6.2571   -4.7438   23.1370 C   0  0  0  0  0  0  0  0  0  0  0  0
    7.2644   -5.2640   22.6470 O   0  0  0  0  0  0  0  0  0  0  0  0
    5.1484   -5.1649   23.4661 O   0  0  0  0  0  1  0  0  0  0  0  0
    7.2464   -3.0011   24.8166 C   0  0  0  0  0  0  0  0  0  0  0  0
    8.3858   -3.7995   25.0043 C   0  0  0  0  0  0  0  0  0  0  0  0
    9.3288   -3.4772   25.9925 C   0  0  0  0  0  0  0  0  0  0  0  0
    9.1318   -2.3542   26.8085 C   0  0  0  0  0  0  0  0  0  0  0  0
    7.9615   -1.5981   26.6974 C   0  0  0  0  0  0  0  0  0  0  0  0
    7.0206   -1.9550   25.7388 C   0  0  0  0  0  0  0  0  0  0  0  0
    5.8108   -1.2627   25.6340 O   0  0  0  0  0  0  0  0  0  0  0  0
    5.0619   -1.0010   26.7305 C   0  0  0  0  0  0  0  0  0  0  0  0
    4.9980   -2.0097   27.6117 F   0  0  0  0  0  0  0  0  0  0  0  0
    3.8240   -0.7365   26.3273 F   0  0  0  0  0  0  0  0  0  0  0  0
    5.5279    0.0736   27.3963 F   0  0  0  0  0  0  0  0  0  0  0  0
    7.7588   -0.7545   27.3522 H   0  0  0  0  0  0  0  0  0  0  0  0
    9.8815   -2.0609   27.5397 H   0  0  0  0  0  0  0  0  0  0  0  0
   10.1915   -4.1229   26.1410 H   0  0  0  0  0  0  0  0  0  0  0  0
    8.5246   -4.6490   24.3334 H   0  0  0  0  0  0  0  0  0  0  0  0
    5.3561   -2.8561   23.8324 H   0  0  0  0  0  0  0  0  0  0  0  0
    7.5182   -1.3744   22.9576 H   0  0  0  0  0  0  0  0  0  0  0  0
  1  2  2  0
  2  3  1  0
  3  4  1  0
  4  5  2  0
  5  6  1  0
  6  7  2  0
  7  8  1  0
  8  9  2  0
  9 10  1  0
  7 11  1  0
  6 12  1  0
  5 13  1  0
  3 14  1  0
  2 15  1  0
 15 16  1  0
 16 17  1  0
 17 18  2  0
 17 19  1  0
 16 20  1  0
 20 21  2  0
 21 22  1  0
 22 23  2  0
 23 24  1  0
 24 25  2  0
 25 26  1  0
 26 27  1  0
 27 28  1  0
 27 29  1  0
 27 30  1  0
 24 31  1  0
 23 32  1  0
 22 33  1  0
 21 34  1  0
 16 35  1  0
 15 36  1  0
  9  4  1  0
 25 20  1  0
M  CHG  1  19  -1
M  END
>  <plip>  (1) 
-0.06666666666666667

>  <filename>  (1) 
[H][c]1[n][c]([H])[c]([N]([H])[C](=[O])[N]([H])[C]([H])([C](=[O])[O-])[c]2[c]([H])[c]([H])[c]([H])[c]([H])[c]2[O][C]([F])([F])[F])[c]([H])[c]1[H]

$$$$
