
     RDKit          3D

 42 44  0  0  0  0  0  0  0  0999 V2000
    5.4878   -3.3195   23.2523 C   0  0  0  0  0  0  0  0  0  0  0  0
    6.3538   -2.2860   22.7590 O   0  0  0  0  0  0  0  0  0  0  0  0
    6.5925   -2.2363   21.4352 C   0  0  0  0  0  0  0  0  0  0  0  0
    6.3205   -3.1062   20.6441 O   0  0  0  0  0  0  0  0  0  0  0  0
    7.3266   -0.9185   20.9990 C   0  0  0  0  0  0  0  0  0  0  0  0
    7.7914    0.1178   22.0699 N   0  0  0  0  0  4  0  0  0  0  0  0
    8.9035    1.1858   21.6075 C   0  0  0  0  0  0  0  0  0  0  0  0
    8.1946    2.4698   21.2122 C   0  0  0  0  0  0  0  0  0  0  0  0
    7.5100    2.2938   20.3780 H   0  0  0  0  0  0  0  0  0  0  0  0
    7.6229    2.8921   22.0434 H   0  0  0  0  0  0  0  0  0  0  0  0
    8.9334    3.2067   20.9063 H   0  0  0  0  0  0  0  0  0  0  0  0
    9.9137    1.3251   22.7151 C   0  0  0  0  0  0  0  0  0  0  0  0
    9.8733    2.1784   23.7702 C   0  0  0  0  0  0  0  0  0  0  0  0
   11.2310    2.0339   24.8431 S   0  0  0  0  0  0  0  0  0  0  0  0
   11.9868    0.8707   23.7963 C   0  0  0  0  0  0  0  0  0  0  0  0
   13.2877    0.3413   23.8901 C   0  0  0  0  0  0  0  0  0  0  0  0
   13.6991   -0.5755   22.9298 C   0  0  0  0  0  0  0  0  0  0  0  0
   12.8136   -1.0103   21.9199 C   0  0  0  0  0  0  0  0  0  0  0  0
   11.5339   -0.4866   21.8354 C   0  0  0  0  0  0  0  0  0  0  0  0
   11.1260    0.5181   22.7368 C   0  0  0  0  0  0  0  0  0  0  0  0
   10.8332   -0.8597   21.0910 H   0  0  0  0  0  0  0  0  0  0  0  0
   13.1452   -1.7329   21.1783 H   0  0  0  0  0  0  0  0  0  0  0  0
   14.6929   -1.0116   23.0122 H   0  0  0  0  0  0  0  0  0  0  0  0
   13.9620    0.6396   24.6870 H   0  0  0  0  0  0  0  0  0  0  0  0
    9.1078    2.9127   23.9975 H   0  0  0  0  0  0  0  0  0  0  0  0
    9.3854    0.7632   20.7175 H   0  0  0  0  0  0  0  0  0  0  0  0
    8.1343   -0.3135   22.9494 H   0  0  0  0  0  0  0  0  0  0  0  0
    6.9677    0.7339   22.2622 H   0  0  0  0  0  0  0  0  0  0  0  0
    6.5828   -0.1184   19.9415 C   0  0  0  0  0  0  0  0  0  0  0  0
    5.3748    0.5586   20.1700 C   0  0  0  0  0  0  0  0  0  0  0  0
    4.8062    1.2691   19.1101 C   0  0  0  0  0  0  0  0  0  0  0  0
    5.4563    1.2882   17.8715 C   0  0  0  0  0  0  0  0  0  0  0  0
    6.6196    0.6616   17.6469 N   0  0  0  0  0  0  0  0  0  0  0  0
    7.1566   -0.0118   18.6703 C   0  0  0  0  0  0  0  0  0  0  0  0
    8.1137   -0.4982   18.4816 H   0  0  0  0  0  0  0  0  0  0  0  0
    5.0306    1.8401   17.0330 H   0  0  0  0  0  0  0  0  0  0  0  0
    3.8947    1.8384   19.2391 H   0  0  0  0  0  0  0  0  0  0  0  0
    4.8987    0.5576   21.1550 H   0  0  0  0  0  0  0  0  0  0  0  0
    8.2233   -1.3344   20.5343 H   0  0  0  0  0  0  0  0  0  0  0  0
    6.0633   -4.2301   23.4545 H   0  0  0  0  0  0  0  0  0  0  0  0
    5.0505   -2.9375   24.1798 H   0  0  0  0  0  0  0  0  0  0  0  0
    4.6901   -3.5319   22.5334 H   0  0  0  0  0  0  0  0  0  0  0  0
  1  2  1  0
  2  3  1  0
  3  4  2  0
  3  5  1  0
  5  6  1  0
  6  7  1  0
  7  8  1  0
  8  9  1  0
  8 10  1  0
  8 11  1  0
  7 12  1  0
 12 13  2  0
 13 14  1  0
 14 15  1  0
 15 16  2  0
 16 17  1  0
 17 18  2  0
 18 19  1  0
 19 20  2  0
 19 21  1  0
 18 22  1  0
 17 23  1  0
 16 24  1  0
 13 25  1  0
  7 26  1  0
  6 27  1  0
  6 28  1  0
  5 29  1  0
 29 30  2  0
 30 31  1  0
 31 32  2  0
 32 33  1  0
 33 34  2  0
 34 35  1  0
 32 36  1  0
 31 37  1  0
 30 38  1  0
  5 39  1  0
  1 40  1  0
  1 41  1  0
  1 42  1  0
 20 12  1  0
 34 29  1  0
 20 15  1  0
M  CHG  1   6   1
M  END
>  <plip>  (1) 
-0.10714285714285714

>  <filename>  (1) 
[H][c]1[n][c]([H])[c]([C]([H])([C](=[O])[O][C]([H])([H])[H])[N+]([H])([H])[C]([H])([c]2[c]([H])[s][c]3[c]([H])[c]([H])[c]([H])[c]([H])[c]23)[C]([H])([H])[H])[c]([H])[c]1[H]

$$$$
