
     RDKit          3D

 35 37  0  0  0  0  0  0  0  0999 V2000
    9.1615   -2.5341   25.3981 F   0  0  0  0  0  0  0  0  0  0  0  0
    8.6382   -3.6392   24.8118 C   0  0  0  0  0  0  0  0  0  0  0  0
    9.1181   -3.6842   23.5609 F   0  0  0  0  0  0  0  0  0  0  0  0
    9.1677   -4.6965   25.4536 F   0  0  0  0  0  0  0  0  0  0  0  0
    7.1453   -3.6464   24.9082 C   0  0  0  0  0  0  0  0  0  0  0  0
    6.4336   -4.2922   25.9333 C   0  0  0  0  0  0  0  0  0  0  0  0
    5.0405   -4.2917   25.8589 C   0  0  0  0  0  0  0  0  0  0  0  0
    4.0726   -4.9435   27.1413 Cl  0  0  0  0  0  0  0  0  0  0  0  0
    4.4251   -3.7294   24.7382 C   0  0  0  0  0  0  0  0  0  0  0  0
    5.1091   -3.1025   23.7848 N   0  0  0  0  0  0  0  0  0  0  0  0
    6.4283   -2.9489   23.9152 C   0  0  0  0  0  0  0  0  0  0  0  0
    7.0473   -2.1070   23.0302 N   0  0  0  0  0  0  0  0  0  0  0  0
    7.8314   -0.9294   23.4472 C   0  0  0  0  0  0  0  0  0  0  0  0
    7.6984    0.0464   22.2718 C   0  0  0  0  0  0  0  0  0  0  0  0
    7.3497   -0.8404   21.0583 C   0  0  0  0  0  0  0  0  0  0  0  0
    6.6690   -0.0898   19.9258 C   0  0  0  0  0  0  0  0  0  0  0  0
    5.4590    0.5921   20.1403 C   0  0  0  0  0  0  0  0  0  0  0  0
    4.8602    1.2766   19.0812 C   0  0  0  0  0  0  0  0  0  0  0  0
    5.4994    1.2679   17.8378 C   0  0  0  0  0  0  0  0  0  0  0  0
    6.6524    0.6246   17.6013 N   0  0  0  0  0  0  0  0  0  0  0  0
    7.2098   -0.0303   18.6289 C   0  0  0  0  0  0  0  0  0  0  0  0
    8.1496   -0.5420   18.4115 H   0  0  0  0  0  0  0  0  0  0  0  0
    5.0625    1.7916   16.9906 H   0  0  0  0  0  0  0  0  0  0  0  0
    3.9281    1.8187   19.2101 H   0  0  0  0  0  0  0  0  0  0  0  0
    4.9923    0.5949   21.1277 H   0  0  0  0  0  0  0  0  0  0  0  0
    6.4989   -1.9613   21.6845 C   0  0  0  0  0  0  0  0  0  0  0  0
    5.4307   -1.7005   21.7054 H   0  0  0  0  0  0  0  0  0  0  0  0
    6.5690   -2.9036   21.1183 H   0  0  0  0  0  0  0  0  0  0  0  0
    8.2674   -1.3177   20.6845 H   0  0  0  0  0  0  0  0  0  0  0  0
    6.8771    0.7505   22.4707 H   0  0  0  0  0  0  0  0  0  0  0  0
    8.6184    0.6267   22.1147 H   0  0  0  0  0  0  0  0  0  0  0  0
    8.8736   -1.2007   23.6290 H   0  0  0  0  0  0  0  0  0  0  0  0
    7.4615   -0.4912   24.3870 H   0  0  0  0  0  0  0  0  0  0  0  0
    3.3498   -3.7949   24.5889 H   0  0  0  0  0  0  0  0  0  0  0  0
    6.9252   -4.8142   26.7566 H   0  0  0  0  0  0  0  0  0  0  0  0
  1  2  1  0
  2  3  1  0
  2  4  1  0
  2  5  1  0
  5  6  2  0
  6  7  1  0
  7  8  1  0
  7  9  2  0
  9 10  1  0
 10 11  2  0
 11 12  1  0
 12 13  1  0
 13 14  1  0
 14 15  1  0
 15 16  1  0
 16 17  2  0
 17 18  1  0
 18 19  2  0
 19 20  1  0
 20 21  2  0
 21 22  1  0
 19 23  1  0
 18 24  1  0
 17 25  1  0
 15 26  1  0
 26 27  1  0
 26 28  1  0
 15 29  1  0
 14 30  1  0
 14 31  1  0
 13 32  1  0
 13 33  1  0
  9 34  1  0
  6 35  1  0
 11  5  1  0
 26 12  1  0
 21 16  1  0
M  END
>  <plip>  (1) 
-0.03571428571428571

>  <filename>  (1) 
[H][c]1[n][c]([H])[c]([C]2([H])[C]([H])([H])[N]([c]3[n][c]([H])[c]([Cl])[c]([H])[c]3[C]([F])([F])[F])[C]([H])([H])[C]2([H])[H])[c]([H])[c]1[H]

$$$$
