
     RDKit          3D

 38 40  0  0  0  0  0  0  0  0999 V2000
   10.0017    0.1694   21.1142 H   0  0  0  0  0  0  0  0  0  0  0  0
    9.5334   -0.0488   20.2954 O   0  0  0  0  0  0  0  0  0  0  0  0
    8.6285   -1.0178   20.7390 C   0  0  1  0  0  0  0  0  0  0  0  0
    8.4928   -1.7753   19.9501 H   0  0  0  0  0  0  0  0  0  0  0  0
    9.1817   -1.6208   21.8922 O   0  0  0  0  0  0  0  0  0  0  0  0
   10.4452   -2.2373   21.7268 C   0  0  0  0  0  0  0  0  0  0  0  0
   10.5971   -2.4990   20.6833 H   0  0  0  0  0  0  0  0  0  0  0  0
   10.4376   -3.1602   22.3203 H   0  0  0  0  0  0  0  0  0  0  0  0
   11.6547   -1.4054   22.1206 C   0  0  0  0  0  0  0  0  0  0  0  0
   12.7870   -1.7920   21.5101 N   0  0  0  0  0  0  0  0  0  0  0  0
   13.9032   -1.1030   21.7603 C   0  0  0  0  0  0  0  0  0  0  0  0
   14.7766   -1.4387   21.2136 H   0  0  0  0  0  0  0  0  0  0  0  0
   13.9629   -0.0294   22.6555 C   0  0  0  0  0  0  0  0  0  0  0  0
   14.9056    0.4736   22.8288 H   0  0  0  0  0  0  0  0  0  0  0  0
   12.7983    0.3508   23.3247 C   0  0  0  0  0  0  0  0  0  0  0  0
   12.7918    1.1933   24.0164 H   0  0  0  0  0  0  0  0  0  0  0  0
   11.6157   -0.3487   23.0407 C   0  0  0  0  0  0  0  0  0  0  0  0
   10.6782   -0.0915   23.5272 H   0  0  0  0  0  0  0  0  0  0  0  0
    7.2486   -0.4317   21.0900 C   0  0  0  0  0  0  0  0  0  0  0  0
    6.5212    0.1961   19.8965 C   0  0  0  0  0  0  0  0  0  0  0  0
    7.0407    0.1974   18.5852 C   0  0  0  0  0  0  0  0  0  0  0  0
    7.9957   -0.2797   18.3813 H   0  0  0  0  0  0  0  0  0  0  0  0
    6.4566    0.7650   17.5231 N   0  0  0  0  0  0  0  0  0  0  0  0
    5.2924    1.3933   17.7282 C   0  0  0  0  0  0  0  0  0  0  0  0
    4.8560    1.8843   16.8611 H   0  0  0  0  0  0  0  0  0  0  0  0
    4.6557    1.4350   18.9725 C   0  0  0  0  0  0  0  0  0  0  0  0
    3.7129    1.9604   19.0740 H   0  0  0  0  0  0  0  0  0  0  0  0
    5.2699    0.8194   20.0655 C   0  0  0  0  0  0  0  0  0  0  0  0
    4.7830    0.8277   21.0428 H   0  0  0  0  0  0  0  0  0  0  0  0
    7.3142    0.4362   22.3976 C   0  0  0  0  0  0  0  0  0  0  0  0
    6.6088    1.2670   22.3816 H   0  0  0  0  0  0  0  0  0  0  0  0
    8.2992    0.8464   22.6589 H   0  0  0  0  0  0  0  0  0  0  0  0
    6.8167   -0.7816   23.2123 C   0  0  0  0  0  0  0  0  0  0  0  0
    6.0372   -0.6069   23.9617 H   0  0  0  0  0  0  0  0  0  0  0  0
    7.6421   -1.3031   23.6931 H   0  0  0  0  0  0  0  0  0  0  0  0
    6.4256   -1.4903   21.8914 C   0  0  0  0  0  0  0  0  0  0  0  0
    6.7260   -2.5403   21.7839 H   0  0  0  0  0  0  0  0  0  0  0  0
    5.3743   -1.4320   21.6228 H   0  0  0  0  0  0  0  0  0  0  0  0
  1  2  1  0
  2  3  1  0
  3  4  1  6
  3  5  1  0
  5  6  1  0
  6  7  1  0
  6  8  1  0
  6  9  1  0
  9 10  2  0
 10 11  1  0
 11 12  1  0
 11 13  2  0
 13 14  1  0
 13 15  1  0
 15 16  1  0
 15 17  2  0
 17 18  1  0
  3 19  1  0
 19 20  1  0
 20 21  2  0
 21 22  1  0
 21 23  1  0
 23 24  2  0
 24 25  1  0
 24 26  1  0
 26 27  1  0
 26 28  2  0
 28 29  1  0
 19 30  1  0
 30 31  1  0
 30 32  1  0
 30 33  1  0
 33 34  1  0
 33 35  1  0
 33 36  1  0
 36 37  1  0
 36 38  1  0
 17  9  1  0
 36 19  1  0
 28 20  1  0
M  END
>  <plip>  (1) 
-0.03571428571428571

>  <filename>  (1) 
[H][O][C@@]([H])([O][C]([H])([H])[c]1[n][c]([H])[c]([H])[c]([H])[c]1[H])[C]1([c]2[c]([H])[n][c]([H])[c]([H])[c]2[H])[C]([H])([H])[C]([H])([H])[C]1([H])[H]

$$$$
