
     RDKit          3D

 40 42  0  0  0  0  0  0  0  0999 V2000
    4.9030    1.7955   17.0054 H   0  0  0  0  0  0  0  0  0  0  0  0
    5.4058    1.3013   17.8347 C   0  0  0  0  0  0  0  0  0  0  0  0
    6.5739    0.7041   17.5451 N   0  0  0  0  0  0  0  0  0  0  0  0
    7.2168    0.0839   18.5437 C   0  0  0  0  0  0  0  0  0  0  0  0
    8.1602   -0.3994   18.2997 H   0  0  0  0  0  0  0  0  0  0  0  0
    6.7356    0.0335   19.8717 C   0  0  0  0  0  0  0  0  0  0  0  0
    7.4923   -0.6106   20.9146 N   0  0  0  0  0  0  0  0  0  0  0  0
    7.3657   -1.9727   21.2024 C   0  0  0  0  0  0  0  0  0  0  0  0
    6.4924   -2.7136   20.8314 O   0  0  0  0  0  0  0  0  0  0  0  0
    8.5895   -2.3994   21.9941 C   0  0  0  0  0  0  0  0  0  0  0  0
    8.3280   -3.2131   22.6693 H   0  0  0  0  0  0  0  0  0  0  0  0
    9.3151   -2.7414   21.2552 H   0  0  0  0  0  0  0  0  0  0  0  0
    9.2004   -0.9330   22.8657 S   0  0  0  0  0  0  0  0  0  0  0  0
    7.8688    0.0907   22.1203 C   0  0  2  0  0  0  0  0  0  0  0  0
    8.2733    1.0829   21.8855 H   0  0  0  0  0  0  0  0  0  0  0  0
    6.7519    0.1476   22.9590 O   0  0  0  0  0  0  0  0  0  0  0  0
    6.4676    1.4242   23.5253 C   0  0  0  0  0  0  0  0  0  0  0  0
    6.5226    2.2241   22.7666 H   0  0  0  0  0  0  0  0  0  0  0  0
    5.4320    1.3406   23.8677 H   0  0  0  0  0  0  0  0  0  0  0  0
    7.4129    1.7467   24.6838 C   0  0  0  0  0  0  0  0  0  0  0  0
    7.2934    0.9755   25.4701 H   0  0  0  0  0  0  0  0  0  0  0  0
    8.4423    1.6341   24.3095 H   0  0  0  0  0  0  0  0  0  0  0  0
    7.1926    3.1035   25.1769 N   0  0  0  0  0  0  0  0  0  0  0  0
    6.0532    3.1935   26.1059 C   0  0  0  0  0  0  0  0  0  0  0  0
    5.1331    2.8772   25.5984 H   0  0  0  0  0  0  0  0  0  0  0  0
    6.1929    2.5334   26.9833 H   0  0  0  0  0  0  0  0  0  0  0  0
    5.8670    4.6312   26.6006 C   0  0  0  0  0  0  0  0  0  0  0  0
    5.5658    5.2725   25.7575 H   0  0  0  0  0  0  0  0  0  0  0  0
    5.0834    4.6726   27.3624 H   0  0  0  0  0  0  0  0  0  0  0  0
    7.0475    5.1474   27.2062 O   0  0  0  0  0  0  0  0  0  0  0  0
    8.1407    5.0883   26.2974 C   0  0  0  0  0  0  0  0  0  0  0  0
    9.0147    5.4643   26.8353 H   0  0  0  0  0  0  0  0  0  0  0  0
    7.9519    5.7454   25.4344 H   0  0  0  0  0  0  0  0  0  0  0  0
    8.3977    3.6656   25.7994 C   0  0  0  0  0  0  0  0  0  0  0  0
    8.7512    3.0476   26.6461 H   0  0  0  0  0  0  0  0  0  0  0  0
    9.1979    3.6979   25.0486 H   0  0  0  0  0  0  0  0  0  0  0  0
    5.5108    0.6516   20.1535 C   0  0  0  0  0  0  0  0  0  0  0  0
    5.1136    0.5978   21.1642 H   0  0  0  0  0  0  0  0  0  0  0  0
    4.8363    1.3036   19.1114 C   0  0  0  0  0  0  0  0  0  0  0  0
    3.8891    1.8081   19.2796 H   0  0  0  0  0  0  0  0  0  0  0  0
  1  2  1  0
  2  3  2  0
  3  4  1  0
  4  5  1  0
  4  6  2  0
  6  7  1  0
  7  8  1  0
  8  9  2  0
  8 10  1  0
 10 11  1  0
 10 12  1  0
 10 13  1  0
 13 14  1  0
 14 15  1  6
 14 16  1  0
 16 17  1  0
 17 18  1  0
 17 19  1  0
 17 20  1  0
 20 21  1  0
 20 22  1  0
 20 23  1  0
 23 24  1  0
 24 25  1  0
 24 26  1  0
 24 27  1  0
 27 28  1  0
 27 29  1  0
 27 30  1  0
 30 31  1  0
 31 32  1  0
 31 33  1  0
 31 34  1  0
 34 35  1  0
 34 36  1  0
  6 37  1  0
 37 38  1  0
 37 39  2  0
 39 40  1  0
 39  2  1  0
 14  7  1  0
 34 23  1  0
M  END
>  <plip>  (1) 
-0.07142857142857142

>  <filename>  (1) 
[H][c]1[n][c]([H])[c]([N]2[C](=[O])[C]([H])([H])[S][C@]2([H])[O][C]([H])([H])[C]([H])([H])[N]2[C]([H])([H])[C]([H])([H])[O][C]([H])([H])[C]2([H])[H])[c]([H])[c]1[H]

$$$$
