
     RDKit          3D

 29 31  0  0  0  0  0  0  0  0999 V2000
    7.0719   -0.4429   22.5606 O   0  0  0  0  0  0  0  0  0  0  0  0
    7.4188   -0.9396   21.2472 S   0  0  0  0  0  0  0  0  0  0  0  0
    7.1560   -2.3127   20.8492 O   0  0  0  0  0  0  0  0  0  0  0  0
    6.7354    0.0948   20.0525 C   0  0  0  0  0  0  0  0  0  0  0  0
    5.5364    0.7782   20.2722 C   0  0  0  0  0  0  0  0  0  0  0  0
    4.9325    1.3307   19.1477 C   0  0  0  0  0  0  0  0  0  0  0  0
    5.5685    1.2100   17.9080 C   0  0  0  0  0  0  0  0  0  0  0  0
    6.7400    0.5801   17.7379 N   0  0  0  0  0  0  0  0  0  0  0  0
    7.3234    0.0347   18.8023 C   0  0  0  0  0  0  0  0  0  0  0  0
    8.2895   -0.4395   18.6277 H   0  0  0  0  0  0  0  0  0  0  0  0
    5.1140    1.6340   17.0124 H   0  0  0  0  0  0  0  0  0  0  0  0
    3.9855    1.8537   19.2156 H   0  0  0  0  0  0  0  0  0  0  0  0
    5.1083    0.8827   21.2728 H   0  0  0  0  0  0  0  0  0  0  0  0
    9.0314   -0.7178   20.9771 N   0  0  0  0  0  0  0  0  0  0  0  0
    9.9807   -1.7757   21.3680 C   0  0  0  0  0  0  0  0  0  0  0  0
   11.3361   -1.0310   21.4746 C   0  0  0  0  0  0  0  0  0  0  0  0
   10.9037    0.4095   21.6182 C   0  0  0  0  0  0  0  0  0  0  0  0
   11.5777    1.5871   21.8958 C   0  0  0  0  0  0  0  0  0  0  0  0
   10.8042    2.7571   21.9913 C   0  0  0  0  0  0  0  0  0  0  0  0
    9.4276    2.6949   21.7680 C   0  0  0  0  0  0  0  0  0  0  0  0
    8.7641    1.5779   21.4362 N   0  0  0  0  0  0  0  0  0  0  0  0
    9.5142    0.4989   21.3731 C   0  0  0  0  0  0  0  0  0  0  0  0
    8.8361    3.6014   21.8793 H   0  0  0  0  0  0  0  0  0  0  0  0
   11.2606    3.7161   22.2050 H   0  0  0  0  0  0  0  0  0  0  0  0
   12.6610    1.6262   22.0197 H   0  0  0  0  0  0  0  0  0  0  0  0
   11.9537   -1.1731   20.5805 H   0  0  0  0  0  0  0  0  0  0  0  0
   11.9212   -1.4014   22.3245 H   0  0  0  0  0  0  0  0  0  0  0  0
    9.9584   -2.5737   20.6239 H   0  0  0  0  0  0  0  0  0  0  0  0
    9.7070   -2.2206   22.3349 H   0  0  0  0  0  0  0  0  0  0  0  0
  1  2  2  0
  2  3  2  0
  2  4  1  0
  4  5  2  0
  5  6  1  0
  6  7  2  0
  7  8  1  0
  8  9  2  0
  9 10  1  0
  7 11  1  0
  6 12  1  0
  5 13  1  0
  2 14  1  0
 14 15  1  0
 15 16  1  0
 16 17  1  0
 17 18  2  0
 18 19  1  0
 19 20  2  0
 20 21  1  0
 21 22  2  0
 20 23  1  0
 19 24  1  0
 18 25  1  0
 16 26  1  0
 16 27  1  0
 15 28  1  0
 15 29  1  0
  9  4  1  0
 22 14  1  0
 22 17  1  0
M  END
>  <plip>  (1) 
-0.10714285714285714

>  <filename>  (1) 
[H][c]1[n][c]2[c]([c]([H])[c]1[H])[C]([H])([H])[C]([H])([H])[N]2[S](=[O])(=[O])[c]1[c]([H])[n][c]([H])[c]([H])[c]1[H]

$$$$
