
     RDKit          3D

 27 28  0  0  0  0  0  0  0  0999 V2000
   10.0471   -3.7086   25.7983 N   0  0  0  0  0  0  0  0  0  0  0  0
    9.7443   -3.1519   24.5499 C   0  0  0  0  0  0  0  0  0  0  0  0
   10.0798   -1.8183   24.3308 C   0  0  0  0  0  0  0  0  0  0  0  0
    9.7233   -1.2448   23.1064 C   0  0  0  0  0  0  0  0  0  0  0  0
    9.0469   -1.9923   22.1352 C   0  0  0  0  0  0  0  0  0  0  0  0
    8.5914   -1.3022   20.8689 C   0  0  0  0  0  0  0  0  0  0  0  0
    7.3065   -0.5593   20.9965 N   0  0  0  0  0  0  0  0  0  0  0  0
    6.6660    0.0283   19.8979 C   0  0  0  0  0  0  0  0  0  0  0  0
    5.4549    0.6478   20.1402 C   0  0  0  0  0  0  0  0  0  0  0  0
    4.8189    1.2980   19.0794 C   0  0  0  0  0  0  0  0  0  0  0  0
    5.3944    1.3003   17.8037 C   0  0  0  0  0  0  0  0  0  0  0  0
    6.5576    0.6761   17.5420 N   0  0  0  0  0  0  0  0  0  0  0  0
    7.1803    0.0553   18.5754 C   0  0  0  0  0  0  0  0  0  0  0  0
    8.1285   -0.4337   18.3925 H   0  0  0  0  0  0  0  0  0  0  0  0
    4.8810    1.8331   17.0078 H   0  0  0  0  0  0  0  0  0  0  0  0
    3.8900    1.8189   19.2414 H   0  0  0  0  0  0  0  0  0  0  0  0
    5.0496    0.6276   21.1480 H   0  0  0  0  0  0  0  0  0  0  0  0
    6.7744   -0.6041   21.8739 H   0  0  0  0  0  0  0  0  0  0  0  0
    9.3823   -0.6176   20.5393 H   0  0  0  0  0  0  0  0  0  0  0  0
    8.4767   -2.0758   20.1186 H   0  0  0  0  0  0  0  0  0  0  0  0
    8.7710   -3.2987   22.3234 N   0  0  0  0  0  0  0  0  0  0  0  0
    9.0940   -3.8659   23.5062 C   0  0  0  0  0  0  0  0  0  0  0  0
    8.5708   -5.6905   23.7810 Br  0  0  0  0  0  0  0  0  0  0  0  0
    9.9372   -0.2069   22.8916 H   0  0  0  0  0  0  0  0  0  0  0  0
   10.5842   -1.2372   25.1003 H   0  0  0  0  0  0  0  0  0  0  0  0
   10.5330   -3.1460   26.4918 H   0  0  0  0  0  0  0  0  0  0  0  0
    9.8932   -4.7031   25.9707 H   0  0  0  0  0  0  0  0  0  0  0  0
  1  2  1  0
  2  3  2  0
  3  4  1  0
  4  5  2  0
  5  6  1  0
  6  7  1  0
  7  8  1  0
  8  9  2  0
  9 10  1  0
 10 11  2  0
 11 12  1  0
 12 13  2  0
 13 14  1  0
 11 15  1  0
 10 16  1  0
  9 17  1  0
  7 18  1  0
  6 19  1  0
  6 20  1  0
  5 21  1  0
 21 22  2  0
 22 23  1  0
  4 24  1  0
  3 25  1  0
  1 26  1  0
  1 27  1  0
 22  2  1  0
 13  8  1  0
M  END
>  <plip>  (1) 
-0.06896551724137931

>  <filename>  (1) 
[H][c]1[n][c]([H])[c]([N]([H])[C]([H])([H])[c]2[n][c]([Br])[c]([N]([H])[H])[c]([H])[c]2[H])[c]([H])[c]1[H]

$$$$
