
     RDKit          3D

 45 45  0  0  0  0  0  0  0  0999 V2000
   12.7328    0.8105   22.5209 C   0  0  0  0  0  0  0  0  0  0  0  0
   11.6980   -0.2536   22.1841 C   0  0  0  0  0  0  0  0  0  0  0  0
   10.4861   -0.1893   23.0854 N   0  0  0  0  0  4  0  0  0  0  0  0
   10.7530   -0.8268   24.4298 C   0  0  0  0  0  0  0  0  0  0  0  0
    9.9207   -0.2179   25.5558 C   0  0  0  0  0  0  0  0  0  0  0  0
   10.2481    1.2427   25.8036 C   0  0  0  0  0  0  0  0  0  0  0  0
    9.6957    1.9932   24.7125 O   0  0  0  0  0  0  0  0  0  0  0  0
    9.8713    1.5806   26.7825 H   0  0  0  0  0  0  0  0  0  0  0  0
   11.3341    1.3688   25.8139 H   0  0  0  0  0  0  0  0  0  0  0  0
   10.1300    2.8534   24.6244 H   0  0  0  0  0  0  0  0  0  0  0  0
    8.8529   -0.3243   25.3579 H   0  0  0  0  0  0  0  0  0  0  0  0
   10.1092   -0.7821   26.4726 H   0  0  0  0  0  0  0  0  0  0  0  0
   11.8042   -0.6780   24.6935 H   0  0  0  0  0  0  0  0  0  0  0  0
   10.6028   -1.9110   24.3686 H   0  0  0  0  0  0  0  0  0  0  0  0
    9.2727   -0.8017   22.4346 C   0  0  0  0  0  0  0  0  0  0  0  0
    8.5530    0.0938   21.4138 C   0  0  0  0  0  0  0  0  0  0  0  0
    8.2383    1.5390   21.8575 C   0  0  0  0  0  0  0  0  0  0  0  0
    7.5512    1.6317   23.1981 N   0  0  0  0  0  4  0  0  0  0  0  0
    7.0568    0.7522   23.4260 H   0  0  0  0  0  0  0  0  0  0  0  0
    6.8661    2.4086   23.2404 H   0  0  0  0  0  0  0  0  0  0  0  0
    8.2569    1.7964   23.9512 H   0  0  0  0  0  0  0  0  0  0  0  0
    7.5880    1.9922   21.1034 H   0  0  0  0  0  0  0  0  0  0  0  0
    9.1557    2.1425   21.8650 H   0  0  0  0  0  0  0  0  0  0  0  0
    7.3103   -0.6726   20.8887 C   0  0  0  0  0  0  0  0  0  0  0  0
    6.5585    0.0434   19.7877 C   0  0  0  0  0  0  0  0  0  0  0  0
    5.3522    0.7195   20.0212 C   0  0  0  0  0  0  0  0  0  0  0  0
    4.7482    1.4186   18.9713 C   0  0  0  0  0  0  0  0  0  0  0  0
    5.3693    1.4150   17.7181 C   0  0  0  0  0  0  0  0  0  0  0  0
    6.5127    0.7622   17.4660 N   0  0  0  0  0  0  0  0  0  0  0  0
    7.0798    0.0985   18.4800 C   0  0  0  0  0  0  0  0  0  0  0  0
    8.0053   -0.4286   18.2415 H   0  0  0  0  0  0  0  0  0  0  0  0
    4.9296    1.9550   16.8802 H   0  0  0  0  0  0  0  0  0  0  0  0
    3.8253    1.9710   19.1070 H   0  0  0  0  0  0  0  0  0  0  0  0
    4.9076    0.7070   21.0197 H   0  0  0  0  0  0  0  0  0  0  0  0
    6.6223   -0.8851   21.7209 H   0  0  0  0  0  0  0  0  0  0  0  0
    7.6418   -1.6517   20.5136 H   0  0  0  0  0  0  0  0  0  0  0  0
    9.2391    0.2106   20.5650 H   0  0  0  0  0  0  0  0  0  0  0  0
    8.5799   -1.1359   23.2170 H   0  0  0  0  0  0  0  0  0  0  0  0
    9.5759   -1.7338   21.9224 H   0  0  0  0  0  0  0  0  0  0  0  0
   10.2781    0.8040   23.3256 H   0  0  0  0  0  0  0  0  0  0  0  0
   12.1453   -1.2594   22.2382 H   0  0  0  0  0  0  0  0  0  0  0  0
   11.3745   -0.1226   21.1465 H   0  0  0  0  0  0  0  0  0  0  0  0
   12.9536    0.8527   23.5920 H   0  0  0  0  0  0  0  0  0  0  0  0
   12.3994    1.8058   22.2072 H   0  0  0  0  0  0  0  0  0  0  0  0
   13.6742    0.5980   22.0052 H   0  0  0  0  0  0  0  0  0  0  0  0
  1  2  1  0
  2  3  1  0
  3  4  1  0
  4  5  1  0
  5  6  1  0
  6  7  1  0
  7  8  1  0
  6  9  1  0
  6 10  1  0
  5 11  1  0
  5 12  1  0
  4 13  1  0
  4 14  1  0
  3 15  1  0
 15 16  1  0
 16 17  1  0
 17 18  1  0
 18 19  1  0
 18 20  1  0
 18 21  1  0
 17 22  1  0
 17 23  1  0
 16 24  1  0
 24 25  1  0
 25 26  2  0
 26 27  1  0
 27 28  2  0
 28 29  1  0
 29 30  2  0
 30 31  1  0
 28 32  1  0
 27 33  1  0
 26 34  1  0
 24 35  1  0
 24 36  1  0
 16 37  1  0
 15 38  1  0
 15 39  1  0
  3 40  1  0
  2 41  1  0
  2 42  1  0
  1 43  1  0
  1 44  1  0
  1 45  1  0
 30 25  1  0
M  CHG  2   3   1  18   1
M  END
>  <plip>  (1) 
-0.03333333333333333

>  <filename>  (1) 
[H][O][C]([H])([H])[C]([H])([H])[C]([H])([H])[N+]([H])([C]([H])([H])[C]([H])([H])[H])[C]([H])([H])[C]([H])([C]([H])([H])[c]1[c]([H])[n][c]([H])[c]([H])[c]1[H])[C]([H])([H])[N+]([H])([H])[H]

$$$$
