
     RDKit          3D

 38 39  0  0  0  0  0  0  0  0999 V2000
    6.5474   -3.2808   22.3666 C   0  0  0  0  0  0  0  0  0  0  0  0
    7.9149   -3.0952   21.7042 C   0  0  2  0  0  0  0  0  0  0  0  0
    9.0481   -2.7239   22.7057 C   0  0  0  0  0  0  0  0  0  0  0  0
    9.5220   -3.8153   23.6780 N   0  0  0  0  0  4  0  0  0  0  0  0
   10.3112   -3.4619   24.2446 H   0  0  0  0  0  0  0  0  0  0  0  0
    8.7743   -4.0979   24.3368 H   0  0  0  0  0  0  0  0  0  0  0  0
    9.8565   -4.6576   23.1782 H   0  0  0  0  0  0  0  0  0  0  0  0
    8.7068   -1.8620   23.2837 H   0  0  0  0  0  0  0  0  0  0  0  0
    9.9005   -2.3832   22.1192 H   0  0  0  0  0  0  0  0  0  0  0  0
    7.7566   -2.0005   20.6612 N   0  0  0  0  0  4  0  0  0  0  0  0
    7.3974   -0.5593   21.1095 C   0  0  0  0  0  0  0  0  0  0  0  0
    6.6336    0.0243   19.9332 C   0  0  0  0  0  0  0  0  0  0  0  0
    5.4127    0.6814   20.1386 C   0  0  0  0  0  0  0  0  0  0  0  0
    4.8005    1.3197   19.0608 C   0  0  0  0  0  0  0  0  0  0  0  0
    5.4195    1.2711   17.8096 C   0  0  0  0  0  0  0  0  0  0  0  0
    6.5637    0.6106   17.5816 N   0  0  0  0  0  0  0  0  0  0  0  0
    7.1358   -0.0083   18.6218 C   0  0  0  0  0  0  0  0  0  0  0  0
    8.0584   -0.5458   18.3866 H   0  0  0  0  0  0  0  0  0  0  0  0
    4.9728    1.7687   16.9490 H   0  0  0  0  0  0  0  0  0  0  0  0
    3.8658    1.8539   19.1708 H   0  0  0  0  0  0  0  0  0  0  0  0
    4.9385    0.6806   21.1251 H   0  0  0  0  0  0  0  0  0  0  0  0
    8.6086    0.2698   21.6204 C   0  0  0  0  0  0  0  0  0  0  0  0
    8.4632    1.2020   22.6627 C   0  0  0  0  0  0  0  0  0  0  0  0
    9.5589    1.9808   23.0516 C   0  0  0  0  0  0  0  0  0  0  0  0
   10.7755    1.7791   22.3999 C   0  0  0  0  0  0  0  0  0  0  0  0
   10.8492    0.7825   21.4275 C   0  0  0  0  0  0  0  0  0  0  0  0
    9.8046    0.0330   21.0435 N   0  0  0  0  0  0  0  0  0  0  0  0
   11.7926    0.5562   20.9386 H   0  0  0  0  0  0  0  0  0  0  0  0
   11.6487    2.3804   22.6294 H   0  0  0  0  0  0  0  0  0  0  0  0
    9.4531    2.7405   23.8298 H   0  0  0  0  0  0  0  0  0  0  0  0
    7.5108    1.3099   23.1661 H   0  0  0  0  0  0  0  0  0  0  0  0
    6.7140   -0.6222   21.9567 H   0  0  0  0  0  0  0  0  0  0  0  0
    7.0103   -2.2242   19.9643 H   0  0  0  0  0  0  0  0  0  0  0  0
    8.6529   -1.8487   20.1415 H   0  0  0  0  0  0  0  0  0  0  0  0
    8.1921   -4.0258   21.1879 H   0  0  0  0  0  0  0  0  0  0  0  0
    6.4901   -4.1955   22.9639 H   0  0  0  0  0  0  0  0  0  0  0  0
    6.3170   -2.4326   23.0206 H   0  0  0  0  0  0  0  0  0  0  0  0
    5.7625   -3.3316   21.6028 H   0  0  0  0  0  0  0  0  0  0  0  0
  1  2  1  0
  2  3  1  0
  3  4  1  0
  4  5  1  0
  4  6  1  0
  4  7  1  0
  3  8  1  0
  3  9  1  0
  2 10  1  0
 10 11  1  0
 11 12  1  0
 12 13  2  0
 13 14  1  0
 14 15  2  0
 15 16  1  0
 16 17  2  0
 17 18  1  0
 15 19  1  0
 14 20  1  0
 13 21  1  0
 11 22  1  0
 22 23  2  0
 23 24  1  0
 24 25  2  0
 25 26  1  0
 26 27  2  0
 26 28  1  0
 25 29  1  0
 24 30  1  0
 23 31  1  0
 11 32  1  0
 10 33  1  0
 10 34  1  0
  2 35  1  6
  1 36  1  0
  1 37  1  0
  1 38  1  0
 17 12  1  0
 27 22  1  0
M  CHG  2   4   1  10   1
M  END
>  <plip>  (1) 
-0.1

>  <filename>  (1) 
[H][c]1[n][c]([C]([H])([c]2[c]([H])[n][c]([H])[c]([H])[c]2[H])[N+]([H])([H])[C@]([H])([C]([H])([H])[H])[C]([H])([H])[N+]([H])([H])[H])[c]([H])[c]([H])[c]1[H]

$$$$
