
     RDKit          3D

 31 32  0  0  0  0  0  0  0  0999 V2000
   14.5352    2.2080   23.3874 H   0  0  0  0  0  0  0  0  0  0  0  0
   13.6775    2.1257   23.8539 O   0  0  0  0  0  0  0  0  0  0  0  0
   13.1990    1.0384   23.2537 C   0  0  0  0  0  0  0  0  0  0  0  0
   13.8565    0.4987   22.3933 O   0  0  0  0  0  0  0  0  0  0  0  0
   11.7568    0.5734   23.7663 C   0  0  0  0  0  0  0  0  0  0  0  0
   11.3994    0.7323   24.9303 O   0  0  0  0  0  0  0  0  0  0  0  0
   10.9309   -0.1018   22.7933 C   0  0  0  0  0  0  0  0  0  0  0  0
   11.3165   -0.1889   21.7911 H   0  0  0  0  0  0  0  0  0  0  0  0
    9.7487   -0.6989   23.0585 C   0  0  0  0  0  0  0  0  0  0  0  0
    9.2103   -0.6556   24.2692 O   0  0  0  0  0  0  0  0  0  0  0  0
    9.8233   -0.1002   24.8180 H   0  0  0  0  0  0  0  0  0  0  0  0
    9.0675   -1.4949   21.9544 C   0  0  0  0  0  0  0  0  0  0  0  0
    8.3534   -0.7593   20.9592 O   0  0  0  0  0  0  0  0  0  0  0  0
    7.0290   -0.5179   21.1575 C   0  0  0  0  0  0  0  0  0  0  0  0
    6.4381   -0.8270   22.1571 O   0  0  0  0  0  0  0  0  0  0  0  0
    6.4115    0.1560   19.9898 C   0  0  0  0  0  0  0  0  0  0  0  0
    7.0482    0.0902   18.7475 C   0  0  0  0  0  0  0  0  0  0  0  0
    7.9844   -0.4521   18.6341 H   0  0  0  0  0  0  0  0  0  0  0  0
    6.5682    0.6585   17.6380 N   0  0  0  0  0  0  0  0  0  0  0  0
    5.4136    1.3325   17.7357 C   0  0  0  0  0  0  0  0  0  0  0  0
    5.0590    1.8056   16.8190 H   0  0  0  0  0  0  0  0  0  0  0  0
    4.6804    1.4357   18.9243 C   0  0  0  0  0  0  0  0  0  0  0  0
    3.7522    2.0018   18.9205 H   0  0  0  0  0  0  0  0  0  0  0  0
    5.1785    0.8283   20.0765 C   0  0  0  0  0  0  0  0  0  0  0  0
    4.6220    0.8861   21.0143 H   0  0  0  0  0  0  0  0  0  0  0  0
    9.8986   -2.5857   21.3423 C   0  0  0  0  0  0  0  0  0  0  0  0
    9.8323   -2.7037   20.2665 H   0  0  0  0  0  0  0  0  0  0  0  0
   10.8805   -2.7673   21.7810 H   0  0  0  0  0  0  0  0  0  0  0  0
    8.6893   -2.9325   22.1672 C   0  0  0  0  0  0  0  0  0  0  0  0
    8.8347   -3.3718   23.1516 H   0  0  0  0  0  0  0  0  0  0  0  0
    7.8089   -3.2733   21.6311 H   0  0  0  0  0  0  0  0  0  0  0  0
  1  2  1  0
  2  3  1  0
  3  4  2  0
  3  5  1  0
  5  6  2  0
  5  7  1  0
  7  8  1  0
  7  9  2  3
  9 10  1  0
 10 11  1  0
  9 12  1  0
 12 13  1  0
 13 14  1  0
 14 15  2  0
 14 16  1  0
 16 17  2  0
 17 18  1  0
 17 19  1  0
 19 20  2  0
 20 21  1  0
 20 22  1  0
 22 23  1  0
 22 24  2  0
 24 25  1  0
 12 26  1  0
 26 27  1  0
 26 28  1  0
 26 29  1  0
 29 30  1  0
 29 31  1  0
 29 12  1  0
 24 16  1  0
M  END
>  <plip>  (1) 
-0.03333333333333333

>  <filename>  (1) 
[H][O][C](=[O])[C](=[O])[C]([H])=[C]([O][H])[C]1([O][C](=[O])[c]2[c]([H])[n][c]([H])[c]([H])[c]2[H])[C]([H])([H])[C]1([H])[H]

$$$$
