
     RDKit          3D

 39 41  0  0  0  0  0  0  0  0999 V2000
    7.6267    0.0572   22.3852 C   0  0  0  0  0  0  0  0  0  0  0  0
    7.2723   -0.6823   21.1226 C   0  0  0  0  0  0  0  0  0  0  0  0
    7.4853   -1.9997   20.9829 C   0  0  0  0  0  0  0  0  0  0  0  0
    8.2854   -2.8587   21.8753 C   0  0  0  0  0  0  0  0  0  0  0  0
    9.0314   -2.4891   22.7516 O   0  0  0  0  0  0  0  0  0  0  0  0
    8.0738   -4.1589   21.5462 O   0  0  0  0  0  0  0  0  0  0  0  0
    8.5310   -5.1944   22.4255 C   0  0  0  0  0  0  0  0  0  0  0  0
    7.3883   -5.7119   23.2968 C   0  0  0  0  0  0  0  0  0  0  0  0
    6.8124   -4.6133   24.1241 C   0  0  0  0  0  0  0  0  0  0  0  0
    5.6604   -4.0582   23.8844 N   0  0  0  0  0  0  0  0  0  0  0  0
    5.5424   -2.9586   24.7451 O   0  0  0  0  0  0  0  0  0  0  0  0
    6.6595   -2.8864   25.5035 C   0  0  0  0  0  0  0  0  0  0  0  0
    6.9911   -1.9308   26.4789 C   0  0  0  0  0  0  0  0  0  0  0  0
    8.2106   -2.0982   27.1269 C   0  0  0  0  0  0  0  0  0  0  0  0
    9.0596   -3.1848   26.8262 C   0  0  0  0  0  0  0  0  0  0  0  0
    8.7239   -4.1102   25.8537 C   0  0  0  0  0  0  0  0  0  0  0  0
    7.5063   -3.9356   25.1785 C   0  0  0  0  0  0  0  0  0  0  0  0
    9.3651   -4.9571   25.6382 H   0  0  0  0  0  0  0  0  0  0  0  0
    9.9867   -3.2997   27.3659 H   0  0  0  0  0  0  0  0  0  0  0  0
    8.5301   -1.3730   27.8731 H   0  0  0  0  0  0  0  0  0  0  0  0
    6.3364   -1.0999   26.7016 H   0  0  0  0  0  0  0  0  0  0  0  0
    7.8016   -6.4880   23.9491 H   0  0  0  0  0  0  0  0  0  0  0  0
    6.6015   -6.1373   22.6693 H   0  0  0  0  0  0  0  0  0  0  0  0
    9.3652   -4.8403   23.0460 H   0  0  0  0  0  0  0  0  0  0  0  0
    8.8744   -5.9908   21.7617 H   0  0  0  0  0  0  0  0  0  0  0  0
    7.0012   -2.5305   20.1778 H   0  0  0  0  0  0  0  0  0  0  0  0
    6.6197    0.0322   19.9852 C   0  0  0  0  0  0  0  0  0  0  0  0
    5.4162    0.7295   20.1663 C   0  0  0  0  0  0  0  0  0  0  0  0
    4.8138    1.3458   19.0683 C   0  0  0  0  0  0  0  0  0  0  0  0
    5.4581    1.2733   17.8278 C   0  0  0  0  0  0  0  0  0  0  0  0
    6.6065    0.6095   17.6249 N   0  0  0  0  0  0  0  0  0  0  0  0
    7.1577   -0.0004   18.6825 C   0  0  0  0  0  0  0  0  0  0  0  0
    8.0845   -0.5371   18.4841 H   0  0  0  0  0  0  0  0  0  0  0  0
    5.0232    1.7507   16.9519 H   0  0  0  0  0  0  0  0  0  0  0  0
    3.8749    1.8820   19.1642 H   0  0  0  0  0  0  0  0  0  0  0  0
    4.9735    0.7641   21.1626 H   0  0  0  0  0  0  0  0  0  0  0  0
    7.1949   -0.4478   23.2606 H   0  0  0  0  0  0  0  0  0  0  0  0
    7.2719    1.0930   22.3474 H   0  0  0  0  0  0  0  0  0  0  0  0
    8.7124    0.0410   22.5317 H   0  0  0  0  0  0  0  0  0  0  0  0
  1  2  1  0
  2  3  2  3
  3  4  1  0
  4  5  2  0
  4  6  1  0
  6  7  1  0
  7  8  1  0
  8  9  1  0
  9 10  2  0
 10 11  1  0
 11 12  1  0
 12 13  2  0
 13 14  1  0
 14 15  2  0
 15 16  1  0
 16 17  2  0
 16 18  1  0
 15 19  1  0
 14 20  1  0
 13 21  1  0
  8 22  1  0
  8 23  1  0
  7 24  1  0
  7 25  1  0
  3 26  1  0
  2 27  1  0
 27 28  2  0
 28 29  1  0
 29 30  2  0
 30 31  1  0
 31 32  2  0
 32 33  1  0
 30 34  1  0
 29 35  1  0
 28 36  1  0
  1 37  1  0
  1 38  1  0
  1 39  1  0
 17  9  1  0
 32 27  1  0
 17 12  1  0
M  END
>  <plip>  (1) 
-0.07142857142857142

>  <filename>  (1) 
[H][C]([C](=[O])[O][C]([H])([H])[C]([H])([H])[c]1[n][o][c]2[c]([H])[c]([H])[c]([H])[c]([H])[c]12)=[C]([c]1[c]([H])[n][c]([H])[c]([H])[c]1[H])[C]([H])([H])[H]

$$$$
