
     RDKit          3D

 42 44  0  0  0  0  0  0  0  0999 V2000
    6.5771   -3.0987   20.6110 C   0  0  0  0  0  0  0  0  0  0  0  0
    6.5543   -1.9104   21.5596 C   0  0  0  0  0  0  0  0  0  0  0  0
    7.3476   -0.7099   21.0536 C   0  0  0  0  0  0  0  0  0  0  0  0
    7.4892    0.1243   22.2217 O   0  0  0  0  0  0  0  0  0  0  0  0
    8.2387    1.2381   22.1187 C   0  0  0  0  0  0  0  0  0  0  0  0
    8.9353    1.4955   21.1657 O   0  0  0  0  0  0  0  0  0  0  0  0
    8.1061    2.1517   23.3725 C   0  0  0  0  0  0  0  0  0  0  0  0
    9.0315    1.7924   24.3914 O   0  0  0  0  0  0  0  0  0  0  0  0
    8.6134    0.6895   25.1907 C   0  0  0  0  0  0  0  0  0  0  0  0
    7.3631    1.0575   25.9817 C   0  0  0  0  0  0  0  0  0  0  0  0
    6.3038    1.6880   25.1001 C   0  0  0  0  0  0  0  0  0  0  0  0
    4.9636    1.7092   25.5041 C   0  0  0  0  0  0  0  0  0  0  0  0
    4.0028    2.3223   24.7011 C   0  0  0  0  0  0  0  0  0  0  0  0
    2.7096    2.3324   25.1182 O   0  0  0  0  0  0  0  0  0  0  0  0
    2.2151    2.8688   24.4876 H   0  0  0  0  0  0  0  0  0  0  0  0
    4.3691    2.9093   23.4846 C   0  0  0  0  0  0  0  0  0  0  0  0
    5.6999    2.8689   23.0656 C   0  0  0  0  0  0  0  0  0  0  0  0
    6.6771    2.2776   23.8790 C   0  0  0  0  0  0  0  0  0  0  0  0
    5.9770    3.2873   22.0958 H   0  0  0  0  0  0  0  0  0  0  0  0
    3.6061    3.3938   22.8833 H   0  0  0  0  0  0  0  0  0  0  0  0
    4.6556    1.2667   26.4457 H   0  0  0  0  0  0  0  0  0  0  0  0
    7.6358    1.7620   26.7766 H   0  0  0  0  0  0  0  0  0  0  0  0
    6.9640    0.1669   26.4800 H   0  0  0  0  0  0  0  0  0  0  0  0
    9.4592    0.4636   25.8487 H   0  0  0  0  0  0  0  0  0  0  0  0
    8.4204   -0.1886   24.5576 H   0  0  0  0  0  0  0  0  0  0  0  0
    8.4505    3.1166   22.9988 H   0  0  0  0  0  0  0  0  0  0  0  0
    6.6467    0.0483   19.9374 C   0  0  0  0  0  0  0  0  0  0  0  0
    5.4299    0.7169   20.1558 C   0  0  0  0  0  0  0  0  0  0  0  0
    4.8035    1.3458   19.0800 C   0  0  0  0  0  0  0  0  0  0  0  0
    5.4179    1.3022   17.8223 C   0  0  0  0  0  0  0  0  0  0  0  0
    6.5823    0.6821   17.5920 N   0  0  0  0  0  0  0  0  0  0  0  0
    7.1734    0.0875   18.6417 C   0  0  0  0  0  0  0  0  0  0  0  0
    8.1286   -0.3944   18.4283 H   0  0  0  0  0  0  0  0  0  0  0  0
    4.9462    1.7786   16.9641 H   0  0  0  0  0  0  0  0  0  0  0  0
    3.8574    1.8626   19.1960 H   0  0  0  0  0  0  0  0  0  0  0  0
    4.9892    0.7584   21.1559 H   0  0  0  0  0  0  0  0  0  0  0  0
    8.3484   -1.0236   20.7246 H   0  0  0  0  0  0  0  0  0  0  0  0
    6.9592   -2.1978   22.5342 H   0  0  0  0  0  0  0  0  0  0  0  0
    5.5262   -1.5695   21.7246 H   0  0  0  0  0  0  0  0  0  0  0  0
    7.5430   -3.6135   20.6501 H   0  0  0  0  0  0  0  0  0  0  0  0
    5.7893   -3.8183   20.8441 H   0  0  0  0  0  0  0  0  0  0  0  0
    6.4121   -2.7616   19.5823 H   0  0  0  0  0  0  0  0  0  0  0  0
  1  2  1  0
  2  3  1  0
  3  4  1  0
  4  5  1  0
  5  6  2  0
  5  7  1  0
  7  8  1  0
  8  9  1  0
  9 10  1  0
 10 11  1  0
 11 12  2  0
 12 13  1  0
 13 14  1  0
 14 15  1  0
 13 16  2  0
 16 17  1  0
 17 18  2  0
 17 19  1  0
 16 20  1  0
 12 21  1  0
 10 22  1  0
 10 23  1  0
  9 24  1  0
  9 25  1  0
  7 26  1  0
  3 27  1  0
 27 28  2  0
 28 29  1  0
 29 30  2  0
 30 31  1  0
 31 32  2  0
 32 33  1  0
 30 34  1  0
 29 35  1  0
 28 36  1  0
  3 37  1  0
  2 38  1  0
  2 39  1  0
  1 40  1  0
  1 41  1  0
  1 42  1  0
 18  7  1  0
 32 27  1  0
 18 11  1  0
M  END
>  <plip>  (1) 
-0.10714285714285714

>  <filename>  (1) 
[H][O][c]1[c]([H])[c]([H])[c]2[c]([c]1[H])[C]([H])([H])[C]([H])([H])[O][C]2([H])[C](=[O])[O][C]([H])([c]1[c]([H])[n][c]([H])[c]([H])[c]1[H])[C]([H])([H])[C]([H])([H])[H]

$$$$
