
     RDKit          3D

 48 49  0  0  0  0  0  0  0  0999 V2000
    7.8292    1.1155   23.9520 C   0  0  0  0  0  0  0  0  0  0  0  0
    8.9424    1.7149   23.0908 C   0  0  0  0  0  0  0  0  0  0  0  0
    8.7363    1.4039   21.5978 N   0  0  0  0  0  4  0  0  0  0  0  0
    8.7838   -0.0499   21.2409 C   0  0  0  0  0  0  0  0  0  0  0  0
    7.3852   -0.6903   21.0125 C   0  0  0  0  0  0  0  0  0  0  0  0
    6.6382   -0.0083   19.9009 C   0  0  0  0  0  0  0  0  0  0  0  0
    5.4284    0.6489   20.1536 C   0  0  0  0  0  0  0  0  0  0  0  0
    4.7982    1.3121   19.1001 C   0  0  0  0  0  0  0  0  0  0  0  0
    5.4011    1.2906   17.8367 C   0  0  0  0  0  0  0  0  0  0  0  0
    6.5593    0.6654   17.5786 N   0  0  0  0  0  0  0  0  0  0  0  0
    7.1553    0.0304   18.5967 C   0  0  0  0  0  0  0  0  0  0  0  0
    8.1172   -0.4314   18.3669 H   0  0  0  0  0  0  0  0  0  0  0  0
    4.9292    1.7883   16.9910 H   0  0  0  0  0  0  0  0  0  0  0  0
    3.8718    1.8511   19.2467 H   0  0  0  0  0  0  0  0  0  0  0  0
    5.0070    0.6370   21.1636 H   0  0  0  0  0  0  0  0  0  0  0  0
    7.4936   -2.1869   20.7162 N   0  0  0  0  0  4  0  0  0  0  0  0
    6.1443   -2.8059   20.4519 C   0  0  0  0  0  0  0  0  0  0  0  0
    6.2351   -3.8856   20.2876 H   0  0  0  0  0  0  0  0  0  0  0  0
    5.6787   -2.3357   19.5835 H   0  0  0  0  0  0  0  0  0  0  0  0
    5.4897   -2.6392   21.3168 H   0  0  0  0  0  0  0  0  0  0  0  0
    8.1804   -2.9562   21.8026 C   0  0  0  0  0  0  0  0  0  0  0  0
    7.7637   -2.6686   22.7790 H   0  0  0  0  0  0  0  0  0  0  0  0
    9.2566   -2.7583   21.8322 H   0  0  0  0  0  0  0  0  0  0  0  0
    8.0157   -4.0313   21.6806 H   0  0  0  0  0  0  0  0  0  0  0  0
    8.0360   -2.2122   19.8250 H   0  0  0  0  0  0  0  0  0  0  0  0
    6.7973   -0.5969   21.9356 H   0  0  0  0  0  0  0  0  0  0  0  0
    9.3787   -0.2022   20.3367 H   0  0  0  0  0  0  0  0  0  0  0  0
    9.2830   -0.5925   22.0478 H   0  0  0  0  0  0  0  0  0  0  0  0
    9.4289    2.0061   21.0916 H   0  0  0  0  0  0  0  0  0  0  0  0
    7.7836    1.7824   21.3589 H   0  0  0  0  0  0  0  0  0  0  0  0
    9.0437    3.2234   23.2172 C   0  0  0  0  0  0  0  0  0  0  0  0
    7.9102    4.0274   23.0113 C   0  0  0  0  0  0  0  0  0  0  0  0
    7.9597    5.4144   23.1803 C   0  0  0  0  0  0  0  0  0  0  0  0
    9.1550    6.0265   23.5563 C   0  0  0  0  0  0  0  0  0  0  0  0
   10.2956    5.2416   23.7573 C   0  0  0  0  0  0  0  0  0  0  0  0
   10.2612    3.8498   23.5883 C   0  0  0  0  0  0  0  0  0  0  0  0
   11.5485    3.0866   23.8102 C   0  0  0  0  0  0  0  0  0  0  0  0
   11.4429    2.1863   24.8380 F   0  0  0  0  0  0  0  0  0  0  0  0
   11.8930    2.3425   22.7124 F   0  0  0  0  0  0  0  0  0  0  0  0
   12.3834    3.7576   24.0417 H   0  0  0  0  0  0  0  0  0  0  0  0
   11.2307    5.7236   24.0448 H   0  0  0  0  0  0  0  0  0  0  0  0
    9.2067    7.1042   23.6889 H   0  0  0  0  0  0  0  0  0  0  0  0
    7.0609    6.0040   23.0164 H   0  0  0  0  0  0  0  0  0  0  0  0
    6.9616    3.5688   22.7408 H   0  0  0  0  0  0  0  0  0  0  0  0
    9.8909    1.2595   23.3745 H   0  0  0  0  0  0  0  0  0  0  0  0
    6.8260    1.3944   23.6057 H   0  0  0  0  0  0  0  0  0  0  0  0
    7.8893    0.0219   23.9775 H   0  0  0  0  0  0  0  0  0  0  0  0
    7.9319    1.4790   24.9788 H   0  0  0  0  0  0  0  0  0  0  0  0
  1  2  1  0
  2  3  1  0
  3  4  1  0
  4  5  1  0
  5  6  1  0
  6  7  2  0
  7  8  1  0
  8  9  2  0
  9 10  1  0
 10 11  2  0
 11 12  1  0
  9 13  1  0
  8 14  1  0
  7 15  1  0
  5 16  1  0
 16 17  1  0
 17 18  1  0
 17 19  1  0
 17 20  1  0
 16 21  1  0
 21 22  1  0
 21 23  1  0
 21 24  1  0
 16 25  1  0
  5 26  1  0
  4 27  1  0
  4 28  1  0
  3 29  1  0
  3 30  1  0
  2 31  1  0
 31 32  2  0
 32 33  1  0
 33 34  2  0
 34 35  1  0
 35 36  2  0
 36 37  1  0
 37 38  1  0
 37 39  1  0
 37 40  1  0
 35 41  1  0
 34 42  1  0
 33 43  1  0
 32 44  1  0
  2 45  1  0
  1 46  1  0
  1 47  1  0
  1 48  1  0
 11  6  1  0
 36 31  1  0
M  CHG  2   3   1  16   1
M  END
>  <plip>  (1) 
-0.07142857142857142

>  <filename>  (1) 
[H][c]1[n][c]([H])[c]([C]([H])([C]([H])([H])[N+]([H])([H])[C]([H])([c]2[c]([H])[c]([H])[c]([H])[c]([H])[c]2[C]([H])([F])[F])[C]([H])([H])[H])[N+]([H])([C]([H])([H])[H])[C]([H])([H])[H])[c]([H])[c]1[H]

$$$$
