
     RDKit          3D

 47 49  0  0  0  0  0  0  0  0999 V2000
    5.7261   -2.9065   20.4464 O   0  0  0  0  0  0  0  0  0  0  0  0
    5.8172   -2.5520   21.6145 C   0  0  0  0  0  0  0  0  0  0  0  0
    5.1496   -3.3665   22.7129 C   0  0  0  0  0  0  0  0  0  0  0  0
    6.0603   -4.4631   23.3196 C   0  0  0  0  0  0  0  0  0  0  0  0
    7.2056   -3.7943   24.0181 C   0  0  0  0  0  0  0  0  0  0  0  0
    7.0914   -3.1616   25.2276 C   0  0  0  0  0  0  0  0  0  0  0  0
    8.0944   -2.2424   25.7170 C   0  0  0  0  0  0  0  0  0  0  0  0
    8.0375   -1.5978   26.9871 C   0  0  0  0  0  0  0  0  0  0  0  0
    8.9932   -0.6585   27.3375 C   0  0  0  0  0  0  0  0  0  0  0  0
   10.0264   -0.3265   26.4363 C   0  0  0  0  0  0  0  0  0  0  0  0
   10.0966   -0.9387   25.1907 C   0  0  0  0  0  0  0  0  0  0  0  0
    9.1868   -1.9479   24.8651 C   0  0  0  0  0  0  0  0  0  0  0  0
    9.3178   -2.6626   23.6827 N   0  0  0  0  0  0  0  0  0  0  0  0
    8.4256   -3.5934   23.2039 C   0  0  0  0  0  0  0  0  0  0  0  0
    8.6868   -4.1701   22.1627 O   0  0  0  0  0  0  0  0  0  0  0  0
   10.1703   -2.6702   23.1485 H   0  0  0  0  0  0  0  0  0  0  0  0
   10.8510   -0.6428   24.4669 H   0  0  0  0  0  0  0  0  0  0  0  0
   10.7702    0.4150   26.7134 H   0  0  0  0  0  0  0  0  0  0  0  0
    8.9789   -0.1904   28.3209 H   0  0  0  0  0  0  0  0  0  0  0  0
    7.2215   -1.8524   27.6702 H   0  0  0  0  0  0  0  0  0  0  0  0
    6.2033   -3.3011   25.8501 H   0  0  0  0  0  0  0  0  0  0  0  0
    5.4694   -5.0610   24.0248 H   0  0  0  0  0  0  0  0  0  0  0  0
    6.4358   -5.1373   22.5411 H   0  0  0  0  0  0  0  0  0  0  0  0
    4.2521   -3.7947   22.2658 H   0  0  0  0  0  0  0  0  0  0  0  0
    4.8456   -2.7513   23.5601 H   0  0  0  0  0  0  0  0  0  0  0  0
    6.5770   -1.4827   21.9890 N   0  0  0  0  0  0  0  0  0  0  0  0
    7.4009   -0.7908   21.0153 C   0  0  2  0  0  0  0  0  0  0  0  0
    8.4202    0.1435   21.6936 C   0  0  0  0  0  0  0  0  0  0  0  0
    7.8938    1.4922   22.1483 C   0  0  0  0  0  0  0  0  0  0  0  0
    6.8567    1.2587   23.0933 O   0  0  0  0  0  0  0  0  0  0  0  0
    6.5755    2.1124   23.4450 H   0  0  0  0  0  0  0  0  0  0  0  0
    7.5212    2.0598   21.2793 H   0  0  0  0  0  0  0  0  0  0  0  0
    8.7166    2.0727   22.5968 H   0  0  0  0  0  0  0  0  0  0  0  0
    8.8515   -0.3806   22.5517 H   0  0  0  0  0  0  0  0  0  0  0  0
    9.2472    0.3209   20.9961 H   0  0  0  0  0  0  0  0  0  0  0  0
    6.5857   -0.0909   19.9370 C   0  0  0  0  0  0  0  0  0  0  0  0
    5.3779    0.5872   20.1555 C   0  0  0  0  0  0  0  0  0  0  0  0
    4.8017    1.2866   19.0887 C   0  0  0  0  0  0  0  0  0  0  0  0
    5.4464    1.2821   17.8465 C   0  0  0  0  0  0  0  0  0  0  0  0
    6.5900    0.6226   17.6112 N   0  0  0  0  0  0  0  0  0  0  0  0
    7.1238   -0.0438   18.6434 C   0  0  0  0  0  0  0  0  0  0  0  0
    8.0482   -0.5813   18.4284 H   0  0  0  0  0  0  0  0  0  0  0  0
    5.0253    1.8236   17.0009 H   0  0  0  0  0  0  0  0  0  0  0  0
    3.8765    1.8391   19.2071 H   0  0  0  0  0  0  0  0  0  0  0  0
    4.9023    0.5877   21.1388 H   0  0  0  0  0  0  0  0  0  0  0  0
    7.9836   -1.5730   20.5068 H   0  0  0  0  0  0  0  0  0  0  0  0
    6.3481   -0.9802   22.8341 H   0  0  0  0  0  0  0  0  0  0  0  0
  1  2  2  0
  2  3  1  0
  3  4  1  0
  4  5  1  0
  5  6  2  0
  6  7  1  0
  7  8  2  0
  8  9  1  0
  9 10  2  0
 10 11  1  0
 11 12  2  0
 12 13  1  0
 13 14  1  0
 14 15  2  0
 13 16  1  0
 11 17  1  0
 10 18  1  0
  9 19  1  0
  8 20  1  0
  6 21  1  0
  4 22  1  0
  4 23  1  0
  3 24  1  0
  3 25  1  0
  2 26  1  0
 26 27  1  0
 27 28  1  0
 28 29  1  0
 29 30  1  0
 30 31  1  0
 29 32  1  0
 29 33  1  0
 28 34  1  0
 28 35  1  0
 27 36  1  0
 36 37  2  0
 37 38  1  0
 38 39  2  0
 39 40  1  0
 40 41  2  0
 41 42  1  0
 39 43  1  0
 38 44  1  0
 37 45  1  0
 27 46  1  6
 26 47  1  0
 14  5  1  0
 41 36  1  0
 12  7  1  0
M  END
>  <plip>  (1) 
-0.06451612903225806

>  <filename>  (1) 
[H][O][C]([H])([H])[C]([H])([H])[C@]([H])([c]1[c]([H])[n][c]([H])[c]([H])[c]1[H])[N]([H])[C](=[O])[C]([H])([H])[C]([H])([H])[c]1[c]([H])[c]2[c]([H])[c]([H])[c]([H])[c]([H])[c]2[n]([H])[c]1=[O]

$$$$
