
     RDKit          3D

 24 26  0  0  0  0  0  0  0  0999 V2000
   11.8957   -5.0138   25.3421 H   0  0  0  0  0  0  0  0  0  0  0  0
   11.0967   -4.3200   25.0944 C   0  0  0  0  0  0  0  0  0  0  0  0
   11.0582   -3.8097   23.8228 N   0  0  0  0  0  0  0  0  0  0  0  0
   10.0321   -3.0389   23.6931 C   0  0  0  0  0  0  0  0  0  0  0  0
    9.8295   -2.4896   22.4652 N   0  0  0  0  0  0  0  0  0  0  0  0
   10.5118   -2.7446   21.7776 H   0  0  0  0  0  0  0  0  0  0  0  0
    8.7413   -1.7929   22.1129 C   0  0  0  0  0  0  0  0  0  0  0  0
    7.8013   -1.4845   22.9712 N   0  0  0  0  0  0  0  0  0  0  0  0
    6.9240   -0.7611   22.1646 O   0  0  0  0  0  0  0  0  0  0  0  0
    7.4456   -0.7373   20.9423 C   0  0  0  0  0  0  0  0  0  0  0  0
    6.6980   -0.0266   19.9146 C   0  0  0  0  0  0  0  0  0  0  0  0
    7.2236    0.0136   18.6189 C   0  0  0  0  0  0  0  0  0  0  0  0
    8.1724   -0.4663   18.3834 H   0  0  0  0  0  0  0  0  0  0  0  0
    6.6134    0.6332   17.6054 N   0  0  0  0  0  0  0  0  0  0  0  0
    5.4548    1.2543   17.8690 C   0  0  0  0  0  0  0  0  0  0  0  0
    4.9822    1.7647   17.0355 H   0  0  0  0  0  0  0  0  0  0  0  0
    4.8502    1.2719   19.1311 C   0  0  0  0  0  0  0  0  0  0  0  0
    3.9165    1.8050   19.2750 H   0  0  0  0  0  0  0  0  0  0  0  0
    5.4789    0.6214   20.1837 C   0  0  0  0  0  0  0  0  0  0  0  0
    5.0342    0.6247   21.1832 H   0  0  0  0  0  0  0  0  0  0  0  0
    8.5775   -1.3684   20.8367 N   0  0  0  0  0  0  0  0  0  0  0  0
    9.0478   -2.8194   25.1158 S   0  0  0  0  0  0  0  0  0  0  0  0
   10.1256   -3.8955   25.9409 C   0  0  0  0  0  0  0  0  0  0  0  0
   10.0287   -4.1034   27.0007 H   0  0  0  0  0  0  0  0  0  0  0  0
  1  2  1  0
  2  3  1  0
  3  4  2  0
  4  5  1  0
  5  6  1  0
  5  7  1  0
  7  8  2  0
  8  9  1  0
  9 10  1  0
 10 11  1  0
 11 12  2  0
 12 13  1  0
 12 14  1  0
 14 15  2  0
 15 16  1  0
 15 17  1  0
 17 18  1  0
 17 19  2  0
 19 20  1  0
 10 21  2  0
  4 22  1  0
 22 23  1  0
 23 24  1  0
 23  2  2  0
 21  7  1  0
 19 11  1  0
M  END
>  <plip>  (1) 
-0.03333333333333333

>  <filename>  (1) 
[H][c]1[n][c]([N]([H])[c]2[n][o][c](-[c]3[c]([H])[n][c]([H])[c]([H])[c]3[H])[n]2)[s][c]1[H]

$$$$
