
     RDKit          3D

 41 45  0  0  0  0  0  0  0  0999 V2000
    4.9221    1.8420   16.9318 H   0  0  0  0  0  0  0  0  0  0  0  0
    5.4128    1.3337   17.7587 C   0  0  0  0  0  0  0  0  0  0  0  0
    6.5684    0.7156   17.4700 N   0  0  0  0  0  0  0  0  0  0  0  0
    7.2000    0.0947   18.4741 C   0  0  0  0  0  0  0  0  0  0  0  0
    8.1302   -0.4147   18.2146 H   0  0  0  0  0  0  0  0  0  0  0  0
    6.7366    0.0531   19.8009 C   0  0  0  0  0  0  0  0  0  0  0  0
    7.5007   -0.6475   20.9018 C   0  0  1  0  0  0  0  0  0  0  0  0
    8.4377   -1.0292   20.4835 H   0  0  0  0  0  0  0  0  0  0  0  0
    7.8678    0.3176   22.0887 C   0  0  0  0  0  0  0  0  0  0  0  0
    8.9494    0.4675   22.1609 H   0  0  0  0  0  0  0  0  0  0  0  0
    7.4420    1.3217   21.9798 H   0  0  0  0  0  0  0  0  0  0  0  0
    7.3083   -0.3908   23.2811 C   0  0  0  0  0  0  0  0  0  0  0  0
    7.1630   -0.0817   24.5564 N   0  0  0  0  0  0  0  0  0  0  0  0
    6.5304   -1.1668   25.0633 N   0  0  0  0  0  0  0  0  0  0  0  0
    6.1551   -1.0854   25.9991 H   0  0  0  0  0  0  0  0  0  0  0  0
    6.2626   -2.1434   24.1376 C   0  0  0  0  0  0  0  0  0  0  0  0
    5.6475   -3.4679   24.3945 C   0  0  0  0  0  0  0  0  0  0  0  0
    4.4602   -3.7928   23.7664 C   0  0  0  0  0  0  0  0  0  0  0  0
    4.0334   -3.0768   23.0802 H   0  0  0  0  0  0  0  0  0  0  0  0
    3.8038   -5.0277   23.9954 C   0  0  0  0  0  0  0  0  0  0  0  0
    2.8694   -5.2423   23.4820 H   0  0  0  0  0  0  0  0  0  0  0  0
    4.3454   -5.9425   24.8671 C   0  0  0  0  0  0  0  0  0  0  0  0
    3.8656   -6.9016   25.0508 H   0  0  0  0  0  0  0  0  0  0  0  0
    5.5784   -5.6622   25.5330 C   0  0  0  0  0  0  0  0  0  0  0  0
    6.1406   -6.5580   26.4934 C   0  0  0  0  0  0  0  0  0  0  0  0
    5.5818   -7.4567   26.7450 H   0  0  0  0  0  0  0  0  0  0  0  0
    7.3713   -6.3040   27.0559 C   0  0  0  0  0  0  0  0  0  0  0  0
    7.8037   -6.9526   27.8115 H   0  0  0  0  0  0  0  0  0  0  0  0
    8.1417   -5.1909   26.6440 C   0  0  0  0  0  0  0  0  0  0  0  0
    9.1319   -5.0481   27.0699 H   0  0  0  0  0  0  0  0  0  0  0  0
    7.6289   -4.3119   25.7182 C   0  0  0  0  0  0  0  0  0  0  0  0
    8.2475   -3.5038   25.3460 H   0  0  0  0  0  0  0  0  0  0  0  0
    6.2929   -4.4581   25.2177 C   0  0  0  0  0  0  0  0  0  0  0  0
    6.7506   -1.6269   22.9624 C   0  0  0  0  0  0  0  0  0  0  0  0
    6.7226   -1.8756   21.4925 C   0  0  0  0  0  0  0  0  0  0  0  0
    5.6851   -1.9159   21.1284 H   0  0  0  0  0  0  0  0  0  0  0  0
    7.1826   -2.8244   21.1927 H   0  0  0  0  0  0  0  0  0  0  0  0
    5.5127    0.6845   20.0674 C   0  0  0  0  0  0  0  0  0  0  0  0
    5.1014    0.6658   21.0779 H   0  0  0  0  0  0  0  0  0  0  0  0
    4.8377    1.3346   19.0340 C   0  0  0  0  0  0  0  0  0  0  0  0
    3.8954    1.8435   19.2050 H   0  0  0  0  0  0  0  0  0  0  0  0
  1  2  1  0
  2  3  2  0
  3  4  1  0
  4  5  1  0
  4  6  2  0
  6  7  1  0
  7  8  1  6
  7  9  1  0
  9 10  1  0
  9 11  1  0
  9 12  1  0
 12 13  2  0
 13 14  1  0
 14 15  1  0
 14 16  1  0
 16 17  1  0
 17 18  2  0
 18 19  1  0
 18 20  1  0
 20 21  1  0
 20 22  2  0
 22 23  1  0
 22 24  1  0
 24 25  2  0
 25 26  1  0
 25 27  1  0
 27 28  1  0
 27 29  2  0
 29 30  1  0
 29 31  1  0
 31 32  1  0
 31 33  2  0
 16 34  2  0
 34 35  1  0
 35 36  1  0
 35 37  1  0
  6 38  1  0
 38 39  1  0
 38 40  2  0
 40 41  1  0
 40  2  1  0
 35  7  1  0
 34 12  1  0
 33 17  1  0
 33 24  1  0
M  END
>  <plip>  (1) 
-0.06896551724137931

>  <filename>  (1) 
[H][c]1[n][c]([H])[c]([C@@]2([H])[C]([H])([H])[c]3[n][n]([H])[c](-[c]4[c]([H])[c]([H])[c]([H])[c]5[c]([H])[c]([H])[c]([H])[c]([H])[c]45)[c]3[C]2([H])[H])[c]([H])[c]1[H]

$$$$
