
     RDKit          3D

 43 44  0  0  0  0  0  0  0  0999 V2000
    8.7467   -0.1138   21.2865 C   0  0  0  0  0  0  0  0  0  0  0  0
    7.3519   -0.6746   21.0404 C   0  0  2  0  0  0  0  0  0  0  0  0
    7.5617   -2.1446   20.7965 N   0  0  0  0  0  4  0  0  0  0  0  0
    6.3870   -2.9631   20.4163 C   0  0  0  0  0  0  0  0  0  0  0  0
    5.4440   -3.0408   21.6098 C   0  0  0  0  0  0  0  0  0  0  0  0
    6.0579   -3.5999   22.8805 C   0  0  0  0  0  0  0  0  0  0  0  0
    7.1197   -2.7404   23.3267 O   0  0  0  0  0  0  0  0  0  0  0  0
    7.6336   -2.9634   24.5741 C   0  0  0  0  0  0  0  0  0  0  0  0
    8.3741   -1.9225   25.1527 C   0  0  0  0  0  0  0  0  0  0  0  0
    9.1294   -2.1862   26.2929 C   0  0  0  0  0  0  0  0  0  0  0  0
    9.1376   -3.4656   26.8611 C   0  0  0  0  0  0  0  0  0  0  0  0
    8.2841   -4.4573   26.3696 C   0  0  0  0  0  0  0  0  0  0  0  0
    8.2243   -5.8379   27.0011 C   0  0  0  0  0  0  0  0  0  0  0  0
    8.9890   -6.7210   26.3300 F   0  0  0  0  0  0  0  0  0  0  0  0
    8.6477   -5.8359   28.2769 F   0  0  0  0  0  0  0  0  0  0  0  0
    6.9665   -6.3262   27.0013 F   0  0  0  0  0  0  0  0  0  0  0  0
    7.4996   -4.1866   25.2443 C   0  0  0  0  0  0  0  0  0  0  0  0
    6.7521   -4.8972   24.9157 H   0  0  0  0  0  0  0  0  0  0  0  0
    9.8170   -3.7151   27.6656 H   0  0  0  0  0  0  0  0  0  0  0  0
    9.7355   -1.3963   26.7248 H   0  0  0  0  0  0  0  0  0  0  0  0
    8.3444   -0.9359   24.6998 H   0  0  0  0  0  0  0  0  0  0  0  0
    6.4655   -4.6126   22.7309 H   0  0  0  0  0  0  0  0  0  0  0  0
    5.2965   -3.6581   23.6674 H   0  0  0  0  0  0  0  0  0  0  0  0
    4.5569   -3.6339   21.3820 H   0  0  0  0  0  0  0  0  0  0  0  0
    5.1209   -2.0146   21.7802 H   0  0  0  0  0  0  0  0  0  0  0  0
    5.8626   -2.4909   19.5775 H   0  0  0  0  0  0  0  0  0  0  0  0
    6.7101   -3.9634   20.1009 H   0  0  0  0  0  0  0  0  0  0  0  0
    8.3306   -2.2286   20.1082 H   0  0  0  0  0  0  0  0  0  0  0  0
    7.8780   -2.5087   21.7212 H   0  0  0  0  0  0  0  0  0  0  0  0
    6.6071   -0.0003   19.9212 C   0  0  0  0  0  0  0  0  0  0  0  0
    5.3938    0.6763   20.1302 C   0  0  0  0  0  0  0  0  0  0  0  0
    4.7912    1.3284   19.0531 C   0  0  0  0  0  0  0  0  0  0  0  0
    5.4156    1.2746   17.8028 C   0  0  0  0  0  0  0  0  0  0  0  0
    6.5594    0.6118   17.5812 N   0  0  0  0  0  0  0  0  0  0  0  0
    7.1282   -0.0102   18.6227 C   0  0  0  0  0  0  0  0  0  0  0  0
    8.0546   -0.5406   18.4006 H   0  0  0  0  0  0  0  0  0  0  0  0
    4.9857    1.7866   16.9418 H   0  0  0  0  0  0  0  0  0  0  0  0
    3.8643    1.8826   19.1636 H   0  0  0  0  0  0  0  0  0  0  0  0
    4.9279    0.6943   21.1200 H   0  0  0  0  0  0  0  0  0  0  0  0
    6.7553   -0.5593   21.9562 H   0  0  0  0  0  0  0  0  0  0  0  0
    9.2002   -0.6276   22.1437 H   0  0  0  0  0  0  0  0  0  0  0  0
    8.7351    0.9574   21.4986 H   0  0  0  0  0  0  0  0  0  0  0  0
    9.3868   -0.2786   20.4125 H   0  0  0  0  0  0  0  0  0  0  0  0
  1  2  1  0
  2  3  1  0
  3  4  1  0
  4  5  1  0
  5  6  1  0
  6  7  1  0
  7  8  1  0
  8  9  2  0
  9 10  1  0
 10 11  2  0
 11 12  1  0
 12 13  1  0
 13 14  1  0
 13 15  1  0
 13 16  1  0
 12 17  2  0
 17 18  1  0
 11 19  1  0
 10 20  1  0
  9 21  1  0
  6 22  1  0
  6 23  1  0
  5 24  1  0
  5 25  1  0
  4 26  1  0
  4 27  1  0
  3 28  1  0
  3 29  1  0
  2 30  1  0
 30 31  2  0
 31 32  1  0
 32 33  2  0
 33 34  1  0
 34 35  2  0
 35 36  1  0
 33 37  1  0
 32 38  1  0
 31 39  1  0
  2 40  1  1
  1 41  1  0
  1 42  1  0
  1 43  1  0
 17  8  1  0
 35 30  1  0
M  CHG  1   3   1
M  END
>  <plip>  (1) 
-0.06451612903225806

>  <filename>  (1) 
[H][c]1[n][c]([H])[c]([C@]([H])([C]([H])([H])[H])[N+]([H])([H])[C]([H])([H])[C]([H])([H])[C]([H])([H])[O][c]2[c]([H])[c]([H])[c]([H])[c]([C]([F])([F])[F])[c]2[H])[c]([H])[c]1[H]

$$$$
