
     RDKit          3D

 32 34  0  0  0  0  0  0  0  0999 V2000
    4.9239    1.7900   17.0171 H   0  0  0  0  0  0  0  0  0  0  0  0
    5.4005    1.2788   17.8518 C   0  0  0  0  0  0  0  0  0  0  0  0
    6.5567    0.6533   17.5767 N   0  0  0  0  0  0  0  0  0  0  0  0
    7.1911    0.0466   18.5851 C   0  0  0  0  0  0  0  0  0  0  0  0
    8.1389   -0.4293   18.3508 H   0  0  0  0  0  0  0  0  0  0  0  0
    6.6987    0.0022   19.9125 C   0  0  0  0  0  0  0  0  0  0  0  0
    7.4278   -0.6449   20.9818 N   0  0  0  0  0  0  0  0  0  0  0  0
    8.7980   -0.5524   21.1986 C   0  0  0  0  0  0  0  0  0  0  0  0
    9.5880    0.0262   20.4986 O   0  0  0  0  0  0  0  0  0  0  0  0
    9.0572   -1.3542   22.4908 C   0  0  0  0  0  0  0  0  0  0  0  0
   10.0830   -1.5608   23.0927 O   0  0  0  0  0  0  0  0  0  0  0  0
    7.8342   -1.8514   22.8510 N   0  0  0  0  0  0  0  0  0  0  0  0
    7.5410   -2.3410   24.2030 C   0  0  0  0  0  0  0  0  0  0  0  0
    6.6651   -2.9977   24.1531 H   0  0  0  0  0  0  0  0  0  0  0  0
    8.4021   -2.9350   24.5318 H   0  0  0  0  0  0  0  0  0  0  0  0
    7.3051   -1.1901   25.1740 C   0  0  0  0  0  0  0  0  0  0  0  0
    8.3794   -0.5886   25.8526 C   0  0  0  0  0  0  0  0  0  0  0  0
    9.3894   -0.9775   25.7299 H   0  0  0  0  0  0  0  0  0  0  0  0
    8.1664    0.5183   26.6762 C   0  0  0  0  0  0  0  0  0  0  0  0
    8.9929    0.9951   27.1871 H   0  0  0  0  0  0  0  0  0  0  0  0
    6.8814    1.0453   26.8434 C   0  0  0  0  0  0  0  0  0  0  0  0
    6.6831    2.4312   27.8643 Cl  0  0  0  0  0  0  0  0  0  0  0  0
    5.7983    0.4459   26.1811 C   0  0  0  0  0  0  0  0  0  0  0  0
    4.1833    1.0523   26.3352 Cl  0  0  0  0  0  0  0  0  0  0  0  0
    6.0177   -0.6675   25.3602 C   0  0  0  0  0  0  0  0  0  0  0  0
    5.1575   -1.1195   24.8741 H   0  0  0  0  0  0  0  0  0  0  0  0
    6.8777   -1.5460   21.9000 C   0  0  0  0  0  0  0  0  0  0  0  0
    5.7901   -2.0568   21.8409 O   0  0  0  0  0  0  0  0  0  0  0  0
    5.4725    0.6232   20.1725 C   0  0  0  0  0  0  0  0  0  0  0  0
    5.0484    0.5819   21.1725 H   0  0  0  0  0  0  0  0  0  0  0  0
    4.8209    1.2899   19.1237 C   0  0  0  0  0  0  0  0  0  0  0  0
    3.8892    1.8270   19.2782 H   0  0  0  0  0  0  0  0  0  0  0  0
  1  2  1  0
  2  3  2  0
  3  4  1  0
  4  5  1  0
  4  6  2  0
  6  7  1  0
  7  8  1  0
  8  9  2  0
  8 10  1  0
 10 11  2  0
 10 12  1  0
 12 13  1  0
 13 14  1  0
 13 15  1  0
 13 16  1  0
 16 17  2  0
 17 18  1  0
 17 19  1  0
 19 20  1  0
 19 21  2  0
 21 22  1  0
 21 23  1  0
 23 24  1  0
 23 25  2  0
 25 26  1  0
 12 27  1  0
 27 28  2  0
  6 29  1  0
 29 30  1  0
 29 31  2  0
 31 32  1  0
 31  2  1  0
 27  7  1  0
 25 16  1  0
M  END
>  <plip>  (1) 
-0.07142857142857142

>  <filename>  (1) 
[H][c]1[n][c]([H])[c]([N]2[C](=[O])[C](=[O])[N]([C]([H])([H])[c]3[c]([H])[c]([H])[c]([Cl])[c]([Cl])[c]3[H])[C]2=[O])[c]([H])[c]1[H]

$$$$
