
     RDKit          3D

 34 35  0  0  0  0  0  0  0  0999 V2000
   13.0743    5.2152   24.6033 C   0  0  0  0  0  0  0  0  0  0  0  0
   12.5491    4.1227   23.8044 N   0  0  0  0  0  0  0  0  0  0  0  0
   13.0120    3.7741   22.5912 C   0  0  0  0  0  0  0  0  0  0  0  0
   14.2906    4.4805   21.8102 S   0  0  0  0  0  0  0  0  0  0  0  0
   12.3380    2.7380   21.9947 N   0  0  0  0  0  0  0  0  0  0  0  0
   10.9482    2.4827   22.0210 C   0  0  0  0  0  0  0  0  0  0  0  0
   10.0137    3.4244   22.4881 C   0  0  0  0  0  0  0  0  0  0  0  0
    8.6611    3.1013   22.5140 C   0  0  0  0  0  0  0  0  0  0  0  0
    8.2132    1.8592   22.0570 C   0  0  0  0  0  0  0  0  0  0  0  0
    9.1445    0.9522   21.5251 C   0  0  0  0  0  0  0  0  0  0  0  0
    8.8244   -0.2619   20.9852 O   0  0  0  0  0  0  0  0  0  0  0  0
    7.4621   -0.6821   20.9808 C   0  0  0  0  0  0  0  0  0  0  0  0
    6.6504    0.0089   19.9049 C   0  0  0  0  0  0  0  0  0  0  0  0
    5.4252    0.6495   20.1335 C   0  0  0  0  0  0  0  0  0  0  0  0
    4.7979    1.3063   19.0705 C   0  0  0  0  0  0  0  0  0  0  0  0
    5.4176    1.3028   17.8188 C   0  0  0  0  0  0  0  0  0  0  0  0
    6.5838    0.6863   17.5745 N   0  0  0  0  0  0  0  0  0  0  0  0
    7.1781    0.0700   18.6016 C   0  0  0  0  0  0  0  0  0  0  0  0
    8.1320   -0.4063   18.3791 H   0  0  0  0  0  0  0  0  0  0  0  0
    4.9548    1.8105   16.9747 H   0  0  0  0  0  0  0  0  0  0  0  0
    3.8584    1.8298   19.2019 H   0  0  0  0  0  0  0  0  0  0  0  0
    4.9656    0.6602   21.1259 H   0  0  0  0  0  0  0  0  0  0  0  0
    7.0236   -0.5494   21.9811 H   0  0  0  0  0  0  0  0  0  0  0  0
    7.5427   -1.7576   20.8050 H   0  0  0  0  0  0  0  0  0  0  0  0
   10.5083    1.2597   21.5154 C   0  0  0  0  0  0  0  0  0  0  0  0
   11.2042    0.5286   21.1225 H   0  0  0  0  0  0  0  0  0  0  0  0
    7.1600    1.6069   22.1056 H   0  0  0  0  0  0  0  0  0  0  0  0
    7.9517    3.8285   22.9073 H   0  0  0  0  0  0  0  0  0  0  0  0
   10.3513    4.4183   22.7549 H   0  0  0  0  0  0  0  0  0  0  0  0
   12.8147    2.4829   21.1394 H   0  0  0  0  0  0  0  0  0  0  0  0
   11.8772    3.4820   24.1948 H   0  0  0  0  0  0  0  0  0  0  0  0
   12.6936    5.1153   25.6202 H   0  0  0  0  0  0  0  0  0  0  0  0
   14.1621    5.1567   24.6346 H   0  0  0  0  0  0  0  0  0  0  0  0
   12.7955    6.1913   24.1939 H   0  0  0  0  0  0  0  0  0  0  0  0
  1  2  1  0
  2  3  1  0
  3  4  2  0
  3  5  1  0
  5  6  1  0
  6  7  2  0
  7  8  1  0
  8  9  2  0
  9 10  1  0
 10 11  1  0
 11 12  1  0
 12 13  1  0
 13 14  2  0
 14 15  1  0
 15 16  2  0
 16 17  1  0
 17 18  2  0
 18 19  1  0
 16 20  1  0
 15 21  1  0
 14 22  1  0
 12 23  1  0
 12 24  1  0
 10 25  2  0
 25 26  1  0
  9 27  1  0
  8 28  1  0
  7 29  1  0
  5 30  1  0
  2 31  1  0
  1 32  1  0
  1 33  1  0
  1 34  1  0
 25  6  1  0
 18 13  1  0
M  END
>  <plip>  (1) 
-0.06896551724137931

>  <filename>  (1) 
[H][c]1[n][c]([H])[c]([C]([H])([H])[O][c]2[c]([H])[c]([H])[c]([H])[c]([N]([H])[C](=[S])[N]([H])[C]([H])([H])[H])[c]2[H])[c]([H])[c]1[H]

$$$$
