
     RDKit          3D

 38 40  0  0  0  0  0  0  0  0999 V2000
    9.7106    4.1888   21.5453 H   0  0  0  0  0  0  0  0  0  0  0  0
    9.5624    3.6244   22.3345 O   0  0  0  0  0  0  0  0  0  0  0  0
    8.9574    4.5251   23.1286 C   0  0  0  0  0  0  0  0  0  0  0  0
    8.7610    5.6469   22.7153 O   0  0  0  0  0  0  0  0  0  0  0  0
    8.5821    4.0560   24.4819 C   0  0  0  0  0  0  0  0  0  0  0  0
    8.5954    2.8192   25.1323 C   0  0  0  0  0  0  0  0  0  0  0  0
    9.0167    1.4691   24.6223 C   0  0  0  0  0  0  0  0  0  0  0  0
    9.7191    1.6087   23.7935 H   0  0  0  0  0  0  0  0  0  0  0  0
    9.5626    0.9278   25.4125 H   0  0  0  0  0  0  0  0  0  0  0  0
    7.8223    0.6235   24.1743 C   0  0  0  0  0  0  0  0  0  0  0  0
    7.1354    0.4689   25.0145 H   0  0  0  0  0  0  0  0  0  0  0  0
    7.0548    1.1016   22.9115 C   0  0  0  0  0  0  0  0  0  0  0  0
    5.9897    1.2942   23.0723 H   0  0  0  0  0  0  0  0  0  0  0  0
    7.4957    1.9505   22.3737 H   0  0  0  0  0  0  0  0  0  0  0  0
    7.3258   -0.2097   22.3057 N   0  0  0  0  0  0  0  0  0  0  0  0
    7.4314   -0.6650   21.0334 C   0  0  0  0  0  0  0  0  0  0  0  0
    8.1799   -1.5869   20.7389 O   0  0  0  0  0  0  0  0  0  0  0  0
    6.6251    0.0445   20.0083 C   0  0  0  0  0  0  0  0  0  0  0  0
    7.1785    0.0249   18.7267 C   0  0  0  0  0  0  0  0  0  0  0  0
    8.1121   -0.5115   18.5698 H   0  0  0  0  0  0  0  0  0  0  0  0
    6.6228    0.6247   17.6735 N   0  0  0  0  0  0  0  0  0  0  0  0
    5.4597    1.2608   17.8756 C   0  0  0  0  0  0  0  0  0  0  0  0
    5.0283    1.7437   17.0024 H   0  0  0  0  0  0  0  0  0  0  0  0
    4.8118    1.3150   19.1163 C   0  0  0  0  0  0  0  0  0  0  0  0
    3.8696    1.8404   19.2073 H   0  0  0  0  0  0  0  0  0  0  0  0
    5.4037    0.6995   20.2145 C   0  0  0  0  0  0  0  0  0  0  0  0
    4.9163    0.7304   21.1922 H   0  0  0  0  0  0  0  0  0  0  0  0
    8.1122   -0.6985   23.4278 C   0  0  0  0  0  0  0  0  0  0  0  0
    7.6899   -1.6128   23.8528 H   0  0  0  0  0  0  0  0  0  0  0  0
    9.1627   -0.8845   23.1746 H   0  0  0  0  0  0  0  0  0  0  0  0
    8.0427    3.0919   26.4115 C   0  0  0  0  0  0  0  0  0  0  0  0
    7.7663    2.1371   27.5357 C   0  0  0  0  0  0  0  0  0  0  0  0
    7.7458    2.6641   28.4950 H   0  0  0  0  0  0  0  0  0  0  0  0
    6.7964    1.6410   27.3941 H   0  0  0  0  0  0  0  0  0  0  0  0
    8.5249    1.3489   27.5653 H   0  0  0  0  0  0  0  0  0  0  0  0
    7.7277    4.3765   26.5300 N   0  0  0  0  0  0  0  0  0  0  0  0
    8.0511    4.9387   25.3684 N   0  0  0  0  0  0  0  0  0  0  0  0
    7.8398    5.9191   25.2101 H   0  0  0  0  0  0  0  0  0  0  0  0
  1  2  1  0
  2  3  1  0
  3  4  2  0
  3  5  1  0
  5  6  2  0
  6  7  1  0
  7  8  1  0
  7  9  1  0
  7 10  1  0
 10 11  1  0
 10 12  1  0
 12 13  1  0
 12 14  1  0
 12 15  1  0
 15 16  1  0
 16 17  2  0
 16 18  1  0
 18 19  2  0
 19 20  1  0
 19 21  1  0
 21 22  2  0
 22 23  1  0
 22 24  1  0
 24 25  1  0
 24 26  2  0
 26 27  1  0
 15 28  1  0
 28 29  1  0
 28 30  1  0
  6 31  1  0
 31 32  1  0
 32 33  1  0
 32 34  1  0
 32 35  1  0
 31 36  2  0
 36 37  1  0
 37 38  1  0
 37  5  1  0
 28 10  1  0
 26 18  1  0
M  END
>  <plip>  (1) 
-0.14285714285714285

>  <filename>  (1) 
[H][O][C](=[O])[c]1[c]([C]([H])([H])[C]2([H])[C]([H])([H])[N]([C](=[O])[c]3[c]([H])[n][c]([H])[c]([H])[c]3[H])[C]2([H])[H])[c]([C]([H])([H])[H])[n][n]1[H]

$$$$
