
     RDKit          3D

 37 38  0  0  0  0  0  0  0  0999 V2000
   10.5509   -1.3812   21.3514 O   0  0  0  0  0  0  0  0  0  0  0  0
   10.0516   -1.2649   22.4464 C   0  0  0  0  0  0  0  0  0  0  0  0
   10.4913   -2.0531   23.7039 C   0  0  0  0  0  0  0  0  0  0  0  0
    9.5075   -2.8097   24.4959 N   0  0  0  0  0  0  0  0  0  0  0  0
    8.7787   -3.8121   23.8996 C   0  0  0  0  0  0  0  0  0  0  0  0
    8.9969   -4.1477   22.7459 O   0  0  0  0  0  0  0  0  0  0  0  0
    7.6892   -4.4507   24.7059 C   0  0  0  0  0  0  0  0  0  0  0  0
    6.6568   -5.1205   24.0159 C   0  0  0  0  0  0  0  0  0  0  0  0
    5.6428   -5.7720   24.7156 C   0  0  0  0  0  0  0  0  0  0  0  0
    5.6755   -5.7570   26.1082 C   0  0  0  0  0  0  0  0  0  0  0  0
    4.6973   -6.3779   26.7839 F   0  0  0  0  0  0  0  0  0  0  0  0
    6.6896   -5.1198   26.8202 C   0  0  0  0  0  0  0  0  0  0  0  0
    7.6982   -4.4664   26.1119 C   0  0  0  0  0  0  0  0  0  0  0  0
    8.5162   -4.0057   26.6697 H   0  0  0  0  0  0  0  0  0  0  0  0
    6.6725   -5.1403   27.9045 H   0  0  0  0  0  0  0  0  0  0  0  0
    4.8366   -6.2953   24.2119 H   0  0  0  0  0  0  0  0  0  0  0  0
    6.6652   -5.1458   22.9259 H   0  0  0  0  0  0  0  0  0  0  0  0
    9.1023   -2.3828   25.3184 H   0  0  0  0  0  0  0  0  0  0  0  0
   11.2712   -2.7290   23.3408 H   0  0  0  0  0  0  0  0  0  0  0  0
   10.9260   -1.3053   24.3735 H   0  0  0  0  0  0  0  0  0  0  0  0
    9.1001   -0.3693   22.7613 O   0  0  0  0  0  0  0  0  0  0  0  0
    8.4046    0.2632   21.6719 C   0  0  0  0  0  0  0  0  0  0  0  0
    7.4178   -0.7018   21.0004 C   0  0  0  0  0  0  0  0  0  0  0  0
    6.6515   -0.0125   19.8954 C   0  0  0  0  0  0  0  0  0  0  0  0
    5.4412    0.6472   20.1447 C   0  0  0  0  0  0  0  0  0  0  0  0
    4.8030    1.3140   19.0963 C   0  0  0  0  0  0  0  0  0  0  0  0
    5.3925    1.3008   17.8300 C   0  0  0  0  0  0  0  0  0  0  0  0
    6.5552    0.6856   17.5704 N   0  0  0  0  0  0  0  0  0  0  0  0
    7.1605    0.0565   18.5865 C   0  0  0  0  0  0  0  0  0  0  0  0
    8.1138   -0.4208   18.3477 H   0  0  0  0  0  0  0  0  0  0  0  0
    4.9173    1.7974   16.9849 H   0  0  0  0  0  0  0  0  0  0  0  0
    3.8731    1.8460   19.2461 H   0  0  0  0  0  0  0  0  0  0  0  0
    5.0125    0.6358   21.1478 H   0  0  0  0  0  0  0  0  0  0  0  0
    6.7291   -1.0892   21.7627 H   0  0  0  0  0  0  0  0  0  0  0  0
    7.9798   -1.5622   20.6083 H   0  0  0  0  0  0  0  0  0  0  0  0
    9.1338    0.6557   20.9549 H   0  0  0  0  0  0  0  0  0  0  0  0
    7.8746    1.0907   22.1478 H   0  0  0  0  0  0  0  0  0  0  0  0
  1  2  2  0
  2  3  1  0
  3  4  1  0
  4  5  1  0
  5  6  2  0
  5  7  1  0
  7  8  2  0
  8  9  1  0
  9 10  2  0
 10 11  1  0
 10 12  1  0
 12 13  2  0
 13 14  1  0
 12 15  1  0
  9 16  1  0
  8 17  1  0
  4 18  1  0
  3 19  1  0
  3 20  1  0
  2 21  1  0
 21 22  1  0
 22 23  1  0
 23 24  1  0
 24 25  2  0
 25 26  1  0
 26 27  2  0
 27 28  1  0
 28 29  2  0
 29 30  1  0
 27 31  1  0
 26 32  1  0
 25 33  1  0
 23 34  1  0
 23 35  1  0
 22 36  1  0
 22 37  1  0
 13  7  1  0
 29 24  1  0
M  END
>  <plip>  (1) 
-0.06896551724137931

>  <filename>  (1) 
[H][c]1[n][c]([H])[c]([C]([H])([H])[C]([H])([H])[O][C](=[O])[C]([H])([H])[N]([H])[C](=[O])[c]2[c]([H])[c]([H])[c]([F])[c]([H])[c]2[H])[c]([H])[c]1[H]

$$$$
