
     RDKit          3D

 23 23  0  0  0  0  0  0  0  0999 V2000
   13.0359   -0.2821   22.9196 H   0  0  0  0  0  0  0  0  0  0  0  0
   12.2085    0.2958   22.5646 C   0  0  0  0  0  0  0  0  0  0  0  0
   11.2893    0.9571   22.1519 C   0  0  0  0  0  0  0  0  0  0  0  0
   10.1601    1.7527   21.6283 C   0  0  0  0  0  0  0  0  0  0  0  0
    9.6707    2.2933   22.4532 H   0  0  0  0  0  0  0  0  0  0  0  0
   10.5091    2.5005   20.9094 H   0  0  0  0  0  0  0  0  0  0  0  0
    9.2197    0.9537   20.9309 O   0  0  0  0  0  0  0  0  0  0  0  0
    8.2695    0.3319   21.7786 C   0  0  0  0  0  0  0  0  0  0  0  0
    8.7321   -0.2277   22.6087 H   0  0  0  0  0  0  0  0  0  0  0  0
    7.5816    1.0784   22.2075 H   0  0  0  0  0  0  0  0  0  0  0  0
    7.4175   -0.6608   20.9837 C   0  0  0  0  0  0  0  0  0  0  0  0
    6.5725   -1.2420   21.8944 F   0  0  0  0  0  0  0  0  0  0  0  0
    8.2104   -1.6674   20.5157 F   0  0  0  0  0  0  0  0  0  0  0  0
    6.6221   -0.0224   19.8803 C   0  0  0  0  0  0  0  0  0  0  0  0
    7.1587    0.0414   18.5894 C   0  0  0  0  0  0  0  0  0  0  0  0
    8.1168   -0.4236   18.3764 H   0  0  0  0  0  0  0  0  0  0  0  0
    6.5634    0.6760   17.5722 N   0  0  0  0  0  0  0  0  0  0  0  0
    5.4039    1.2949   17.8347 C   0  0  0  0  0  0  0  0  0  0  0  0
    4.9325    1.7891   16.9900 H   0  0  0  0  0  0  0  0  0  0  0  0
    4.8026    1.3134   19.0992 C   0  0  0  0  0  0  0  0  0  0  0  0
    3.8741    1.8476   19.2480 H   0  0  0  0  0  0  0  0  0  0  0  0
    5.4187    0.6449   20.1549 C   0  0  0  0  0  0  0  0  0  0  0  0
    4.9936    0.6392   21.1616 H   0  0  0  0  0  0  0  0  0  0  0  0
  1  2  1  0
  2  3  3  0
  3  4  1  0
  4  5  1  0
  4  6  1  0
  4  7  1  0
  7  8  1  0
  8  9  1  0
  8 10  1  0
  8 11  1  0
 11 12  1  0
 11 13  1  0
 11 14  1  0
 14 15  2  0
 15 16  1  0
 15 17  1  0
 17 18  2  0
 18 19  1  0
 18 20  1  0
 20 21  1  0
 20 22  2  0
 22 23  1  0
 22 14  1  0
M  END
>  <plip>  (1) 
-0.06666666666666667

>  <filename>  (1) 
[H][C]#[C][C]([H])([H])[O][C]([H])([H])[C]([F])([F])[c]1[c]([H])[n][c]([H])[c]([H])[c]1[H]

$$$$
