
     RDKit          3D

 43 45  0  0  0  0  0  0  0  0999 V2000
   10.1597    0.7091   21.0620 C   0  0  0  0  0  0  0  0  0  0  0  0
    8.8586    1.3087   21.5090 N   0  0  0  0  0  4  0  0  0  0  0  0
    9.1373    2.3856   22.5026 C   0  0  0  0  0  0  0  0  0  0  0  0
    9.8044    3.1375   22.0703 H   0  0  0  0  0  0  0  0  0  0  0  0
    9.6235    1.9570   23.3881 H   0  0  0  0  0  0  0  0  0  0  0  0
    8.2096    2.8671   22.8218 H   0  0  0  0  0  0  0  0  0  0  0  0
    7.9142    0.2523   22.0880 C   0  0  0  0  0  0  0  0  0  0  0  0
    7.3690   -0.7243   21.0310 C   0  0  0  0  0  0  0  0  0  0  0  0
    6.5823   -1.7524   21.6874 N   0  0  0  0  0  0  0  0  0  0  0  0
    6.0634   -2.7845   20.9613 C   0  0  0  0  0  0  0  0  0  0  0  0
    6.2076   -2.8922   19.7571 O   0  0  0  0  0  0  0  0  0  0  0  0
    5.3039   -3.8330   21.7031 C   0  0  0  0  0  0  0  0  0  0  0  0
    4.9797   -5.0916   21.2955 C   0  0  0  0  0  0  0  0  0  0  0  0
    5.6226   -5.9522   19.9586 Cl  0  0  0  0  0  0  0  0  0  0  0  0
    3.9915   -5.5988   22.2078 C   0  0  0  0  0  0  0  0  0  0  0  0
    3.1265   -6.7132   22.2469 C   0  0  0  0  0  0  0  0  0  0  0  0
    2.2887   -6.8507   23.3488 C   0  0  0  0  0  0  0  0  0  0  0  0
    2.3114   -5.9060   24.4034 C   0  0  0  0  0  0  0  0  0  0  0  0
    3.1174   -4.7691   24.3536 C   0  0  0  0  0  0  0  0  0  0  0  0
    3.9263   -4.6294   23.2222 C   0  0  0  0  0  0  0  0  0  0  0  0
    4.7108   -3.5622   22.9212 O   0  0  0  0  0  0  0  0  0  0  0  0
    3.1184   -4.0080   25.1274 H   0  0  0  0  0  0  0  0  0  0  0  0
    1.6680   -6.0589   25.2666 H   0  0  0  0  0  0  0  0  0  0  0  0
    1.6105   -7.6967   23.3980 H   0  0  0  0  0  0  0  0  0  0  0  0
    3.1101   -7.4333   21.4311 H   0  0  0  0  0  0  0  0  0  0  0  0
    6.1110   -1.5362   22.5543 H   0  0  0  0  0  0  0  0  0  0  0  0
    6.6013   -0.0129   19.9268 C   0  0  0  0  0  0  0  0  0  0  0  0
    5.3935    0.6599   20.1500 C   0  0  0  0  0  0  0  0  0  0  0  0
    4.7936    1.3272   19.0785 C   0  0  0  0  0  0  0  0  0  0  0  0
    5.4181    1.3030   17.8260 C   0  0  0  0  0  0  0  0  0  0  0  0
    6.5704    0.6589   17.5891 N   0  0  0  0  0  0  0  0  0  0  0  0
    7.1228    0.0125   18.6249 C   0  0  0  0  0  0  0  0  0  0  0  0
    8.0549   -0.5131   18.4118 H   0  0  0  0  0  0  0  0  0  0  0  0
    4.9777    1.8265   16.9783 H   0  0  0  0  0  0  0  0  0  0  0  0
    3.8656    1.8736   19.2013 H   0  0  0  0  0  0  0  0  0  0  0  0
    4.9204    0.6583   21.1367 H   0  0  0  0  0  0  0  0  0  0  0  0
    8.2259   -1.2202   20.5553 H   0  0  0  0  0  0  0  0  0  0  0  0
    8.4531   -0.3207   22.8510 H   0  0  0  0  0  0  0  0  0  0  0  0
    7.0803    0.7647   22.5828 H   0  0  0  0  0  0  0  0  0  0  0  0
    8.3534    1.7290   20.6901 H   0  0  0  0  0  0  0  0  0  0  0  0
   10.0085    0.0310   20.2185 H   0  0  0  0  0  0  0  0  0  0  0  0
   10.6185    0.1432   21.8832 H   0  0  0  0  0  0  0  0  0  0  0  0
   10.8543    1.4993   20.7611 H   0  0  0  0  0  0  0  0  0  0  0  0
  1  2  1  0
  2  3  1  0
  3  4  1  0
  3  5  1  0
  3  6  1  0
  2  7  1  0
  7  8  1  0
  8  9  1  0
  9 10  1  0
 10 11  2  0
 10 12  1  0
 12 13  2  0
 13 14  1  0
 13 15  1  0
 15 16  2  0
 16 17  1  0
 17 18  2  0
 18 19  1  0
 19 20  2  0
 20 21  1  0
 19 22  1  0
 18 23  1  0
 17 24  1  0
 16 25  1  0
  9 26  1  0
  8 27  1  0
 27 28  2  0
 28 29  1  0
 29 30  2  0
 30 31  1  0
 31 32  2  0
 32 33  1  0
 30 34  1  0
 29 35  1  0
 28 36  1  0
  8 37  1  0
  7 38  1  0
  7 39  1  0
  2 40  1  0
  1 41  1  0
  1 42  1  0
  1 43  1  0
 21 12  1  0
 32 27  1  0
 20 15  1  0
M  CHG  1   2   1
M  END
>  <plip>  (1) 
-0.20689655172413793

>  <filename>  (1) 
[H][c]1[n][c]([H])[c]([C]([H])([N]([H])[C](=[O])[c]2[o][c]3[c]([H])[c]([H])[c]([H])[c]([H])[c]3[c]2[Cl])[C]([H])([H])[N+]([H])([C]([H])([H])[H])[C]([H])([H])[H])[c]([H])[c]1[H]

$$$$
