
     RDKit          3D

 33 35  0  0  0  0  0  0  0  0999 V2000
    6.9115   -0.4525   22.5539 O   0  0  0  0  0  0  0  0  0  0  0  0
    7.3674   -0.8684   21.2399 S   0  0  0  0  0  0  0  0  0  0  0  0
    7.2606   -2.2530   20.8191 O   0  0  0  0  0  0  0  0  0  0  0  0
    6.6290    0.0975   20.0391 C   0  0  0  0  0  0  0  0  0  0  0  0
    5.4203    0.7589   20.2293 C   0  0  0  0  0  0  0  0  0  0  0  0
    4.8641    1.3307   19.0915 C   0  0  0  0  0  0  0  0  0  0  0  0
    5.5426    1.2285   17.8707 C   0  0  0  0  0  0  0  0  0  0  0  0
    6.7082    0.5791   17.7273 N   0  0  0  0  0  0  0  0  0  0  0  0
    7.2417    0.0105   18.8021 C   0  0  0  0  0  0  0  0  0  0  0  0
    8.1782   -0.5287   18.6621 H   0  0  0  0  0  0  0  0  0  0  0  0
    5.1354    1.6930   16.9740 H   0  0  0  0  0  0  0  0  0  0  0  0
    3.9133    1.8445   19.1343 H   0  0  0  0  0  0  0  0  0  0  0  0
    4.9391    0.8038   21.2089 H   0  0  0  0  0  0  0  0  0  0  0  0
    8.9864   -0.3903   21.0374 N   0  0  0  0  0  0  0  0  0  0  0  0
    9.3231    1.0337   21.2511 C   0  0  0  0  0  0  0  0  0  0  0  0
    9.8151    1.3685   22.6676 C   0  0  0  0  0  0  0  0  0  0  0  0
   11.2242    1.1919   22.8758 O   0  0  0  0  0  0  0  0  0  0  0  0
   11.9061    0.0891   22.4480 C   0  0  0  0  0  0  0  0  0  0  0  0
   13.2765    0.1060   22.7327 C   0  0  0  0  0  0  0  0  0  0  0  0
   14.0827   -0.9490   22.3154 C   0  0  0  0  0  0  0  0  0  0  0  0
   13.5141   -1.9732   21.5619 C   0  0  0  0  0  0  0  0  0  0  0  0
   12.2077   -2.0141   21.3043 N   0  0  0  0  0  0  0  0  0  0  0  0
   11.3960   -1.0524   21.7707 C   0  0  0  0  0  0  0  0  0  0  0  0
    9.8961   -1.3673   21.7003 C   0  0  0  0  0  0  0  0  0  0  0  0
    9.5694   -1.5321   22.7440 H   0  0  0  0  0  0  0  0  0  0  0  0
    9.8002   -2.3275   21.1803 H   0  0  0  0  0  0  0  0  0  0  0  0
   14.1241   -2.7886   21.1866 H   0  0  0  0  0  0  0  0  0  0  0  0
   15.1164   -1.0203   22.6032 H   0  0  0  0  0  0  0  0  0  0  0  0
   13.6712    0.9738   23.2518 H   0  0  0  0  0  0  0  0  0  0  0  0
    9.2511    0.7764   23.3963 H   0  0  0  0  0  0  0  0  0  0  0  0
    9.6429    2.4261   22.8745 H   0  0  0  0  0  0  0  0  0  0  0  0
   10.1466    1.2686   20.5672 H   0  0  0  0  0  0  0  0  0  0  0  0
    8.4900    1.6874   20.9589 H   0  0  0  0  0  0  0  0  0  0  0  0
  1  2  2  0
  2  3  2  0
  2  4  1  0
  4  5  2  0
  5  6  1  0
  6  7  2  0
  7  8  1  0
  8  9  2  0
  9 10  1  0
  7 11  1  0
  6 12  1  0
  5 13  1  0
  2 14  1  0
 14 15  1  0
 15 16  1  0
 16 17  1  0
 17 18  1  0
 18 19  2  0
 19 20  1  0
 20 21  2  0
 21 22  1  0
 22 23  2  0
 23 24  1  0
 24 25  1  0
 24 26  1  0
 21 27  1  0
 20 28  1  0
 19 29  1  0
 16 30  1  0
 16 31  1  0
 15 32  1  0
 15 33  1  0
  9  4  1  0
 24 14  1  0
 23 18  1  0
M  END
>  <plip>  (1) 
-0.10714285714285714

>  <filename>  (1) 
[H][c]1[n][c]2[c]([c]([H])[c]1[H])[O][C]([H])([H])[C]([H])([H])[N]([S](=[O])(=[O])[c]1[c]([H])[n][c]([H])[c]([H])[c]1[H])[C]2([H])[H]

$$$$
