
     RDKit          3D

 42 43  0  0  0  0  0  0  0  0999 V2000
    4.9212    1.8401   16.9419 H   0  0  0  0  0  0  0  0  0  0  0  0
    5.3992    1.3208   17.7735 C   0  0  0  0  0  0  0  0  0  0  0  0
    6.5542    0.6935   17.5077 N   0  0  0  0  0  0  0  0  0  0  0  0
    7.1608    0.0564   18.5241 C   0  0  0  0  0  0  0  0  0  0  0  0
    8.0866   -0.4592   18.2799 H   0  0  0  0  0  0  0  0  0  0  0  0
    6.6834    0.0050   19.8585 C   0  0  0  0  0  0  0  0  0  0  0  0
    7.4491   -0.6425   20.8955 N   0  0  0  0  0  0  0  0  0  0  0  0
    7.0067   -1.9884   21.2423 C   0  0  0  0  0  0  0  0  0  0  0  0
    7.2072   -2.7012   20.4277 H   0  0  0  0  0  0  0  0  0  0  0  0
    7.5547   -2.3418   22.1256 H   0  0  0  0  0  0  0  0  0  0  0  0
    5.9249   -2.0360   21.4617 H   0  0  0  0  0  0  0  0  0  0  0  0
    8.0794    0.0942   22.0130 C   0  0  1  0  0  0  0  0  0  0  0  0
    7.4336   -0.0320   22.9012 H   0  0  0  0  0  0  0  0  0  0  0  0
    9.3436   -0.5610   22.3538 N   0  0  0  0  0  0  0  0  0  0  0  0
    9.9243   -0.3387   23.6942 C   0  0  0  0  0  0  0  0  0  0  0  0
   10.2446   -1.3124   24.0979 H   0  0  0  0  0  0  0  0  0  0  0  0
    9.1301    0.0222   24.3638 H   0  0  0  0  0  0  0  0  0  0  0  0
   11.1775    0.5834   23.8387 C   0  0  0  0  0  0  0  0  0  0  0  0
   11.0787    1.4603   23.1620 H   0  0  0  0  0  0  0  0  0  0  0  0
   11.1788    0.9704   24.8655 H   0  0  0  0  0  0  0  0  0  0  0  0
   12.4491   -0.1366   23.6376 N   0  0  0  0  0  0  0  0  0  0  0  0
   13.6151    0.5980   24.1083 C   0  0  0  0  0  0  0  0  0  0  0  0
   13.6014    0.6488   25.2012 H   0  0  0  0  0  0  0  0  0  0  0  0
   14.5333    0.0725   23.8098 H   0  0  0  0  0  0  0  0  0  0  0  0
   13.6917    1.6221   23.6929 H   0  0  0  0  0  0  0  0  0  0  0  0
   12.6634   -0.5605   22.2587 C   0  0  0  0  0  0  0  0  0  0  0  0
   12.8163    0.3521   21.6491 H   0  0  0  0  0  0  0  0  0  0  0  0
   13.6024   -1.1324   22.2123 H   0  0  0  0  0  0  0  0  0  0  0  0
   11.5763   -1.4467   21.6441 C   0  0  0  0  0  0  0  0  0  0  0  0
   11.3315   -2.2876   22.3120 H   0  0  0  0  0  0  0  0  0  0  0  0
   12.0185   -1.8805   20.7390 H   0  0  0  0  0  0  0  0  0  0  0  0
   10.2938   -0.7054   21.2531 C   0  0  0  0  0  0  0  0  0  0  0  0
    9.7959   -1.2554   20.4453 H   0  0  0  0  0  0  0  0  0  0  0  0
   10.5698    0.2782   20.8210 H   0  0  0  0  0  0  0  0  0  0  0  0
    8.2347    1.5967   21.7562 C   0  0  0  0  0  0  0  0  0  0  0  0
    7.2535    2.0792   21.7768 H   0  0  0  0  0  0  0  0  0  0  0  0
    8.6936    1.7720   20.7790 H   0  0  0  0  0  0  0  0  0  0  0  0
    8.8613    2.0476   22.5324 H   0  0  0  0  0  0  0  0  0  0  0  0
    5.4473    0.6344   20.0949 C   0  0  0  0  0  0  0  0  0  0  0  0
    4.9983    0.5988   21.0884 H   0  0  0  0  0  0  0  0  0  0  0  0
    4.8052    1.3069   19.0416 C   0  0  0  0  0  0  0  0  0  0  0  0
    3.8621    1.8173   19.1907 H   0  0  0  0  0  0  0  0  0  0  0  0
  1  2  1  0
  2  3  2  0
  3  4  1  0
  4  5  1  0
  4  6  2  0
  6  7  1  0
  7  8  1  0
  8  9  1  0
  8 10  1  0
  8 11  1  0
  7 12  1  0
 12 13  1  1
 12 14  1  0
 14 15  1  0
 15 16  1  0
 15 17  1  0
 15 18  1  0
 18 19  1  0
 18 20  1  0
 18 21  1  0
 21 22  1  0
 22 23  1  0
 22 24  1  0
 22 25  1  0
 21 26  1  0
 26 27  1  0
 26 28  1  0
 26 29  1  0
 29 30  1  0
 29 31  1  0
 29 32  1  0
 32 33  1  0
 32 34  1  0
 12 35  1  0
 35 36  1  0
 35 37  1  0
 35 38  1  0
  6 39  1  0
 39 40  1  0
 39 41  2  0
 41 42  1  0
 41  2  1  0
 32 14  1  0
M  END
>  <plip>  (1) 
-0.0

>  <filename>  (1) 
[H][c]1[n][c]([H])[c]([N]([C]([H])([H])[H])[C@@]([H])([N]2[C]([H])([H])[C]([H])([H])[N]([C]([H])([H])[H])[C]([H])([H])[C]([H])([H])[C]2([H])[H])[C]([H])([H])[H])[c]([H])[c]1[H]

$$$$
