
     RDKit          3D

 33 35  0  0  0  0  0  0  0  0999 V2000
    4.9088    1.7818   16.9976 H   0  0  0  0  0  0  0  0  0  0  0  0
    5.3990    1.2947   17.8377 C   0  0  0  0  0  0  0  0  0  0  0  0
    6.5666    0.6810   17.5719 N   0  0  0  0  0  0  0  0  0  0  0  0
    7.1784    0.0629   18.5892 C   0  0  0  0  0  0  0  0  0  0  0  0
    8.1250   -0.4272   18.3622 H   0  0  0  0  0  0  0  0  0  0  0  0
    6.6829   -0.0123   19.9219 C   0  0  0  0  0  0  0  0  0  0  0  0
    7.3739   -0.7191   20.9044 N   0  0  0  0  0  0  0  0  0  0  0  0
    8.2865   -1.0756   20.6675 H   0  0  0  0  0  0  0  0  0  0  0  0
    6.9215   -0.8571   22.2695 C   0  0  2  0  0  0  0  0  0  0  0  0
    5.8772   -1.1665   22.2108 H   0  0  0  0  0  0  0  0  0  0  0  0
    7.0426    0.4525   23.0983 C   0  0  0  0  0  0  0  0  0  0  0  0
    7.3058    1.2975   22.4488 H   0  0  0  0  0  0  0  0  0  0  0  0
    6.0913    0.6953   23.5932 H   0  0  0  0  0  0  0  0  0  0  0  0
    8.0840    0.1601   24.0518 N   0  0  0  0  0  0  0  0  0  0  0  0
    8.4563    0.8020   24.7290 H   0  0  0  0  0  0  0  0  0  0  0  0
    8.5224   -1.1226   24.0722 C   0  0  0  0  0  0  0  0  0  0  0  0
    9.3720   -1.5526   24.8203 O   0  0  0  0  0  0  0  0  0  0  0  0
    7.7289   -1.9240   23.0398 C   0  0  1  0  0  0  0  0  0  0  0  0
    8.4643   -2.4066   22.3904 H   0  0  0  0  0  0  0  0  0  0  0  0
    6.8615   -3.0042   23.6895 C   0  0  0  0  0  0  0  0  0  0  0  0
    6.9177   -4.3617   23.3176 C   0  0  0  0  0  0  0  0  0  0  0  0
    7.6145   -4.6683   22.5403 H   0  0  0  0  0  0  0  0  0  0  0  0
    6.1588   -5.3281   23.8528 N   0  0  0  0  0  0  0  0  0  0  0  0
    5.2979   -4.9624   24.8125 C   0  0  0  0  0  0  0  0  0  0  0  0
    4.6903   -5.7542   25.2414 H   0  0  0  0  0  0  0  0  0  0  0  0
    5.1531   -3.6474   25.2627 C   0  0  0  0  0  0  0  0  0  0  0  0
    4.4357   -3.4083   26.0392 H   0  0  0  0  0  0  0  0  0  0  0  0
    5.9467   -2.6546   24.6908 C   0  0  0  0  0  0  0  0  0  0  0  0
    5.8526   -1.6194   25.0234 H   0  0  0  0  0  0  0  0  0  0  0  0
    5.4568    0.6419   20.1683 C   0  0  0  0  0  0  0  0  0  0  0  0
    5.0130    0.6312   21.1646 H   0  0  0  0  0  0  0  0  0  0  0  0
    4.8196    1.3039   19.1111 C   0  0  0  0  0  0  0  0  0  0  0  0
    3.8847    1.8346   19.2664 H   0  0  0  0  0  0  0  0  0  0  0  0
  1  2  1  0
  2  3  2  0
  3  4  1  0
  4  5  1  0
  4  6  2  0
  6  7  1  0
  7  8  1  0
  7  9  1  0
  9 10  1  6
  9 11  1  0
 11 12  1  0
 11 13  1  0
 11 14  1  0
 14 15  1  0
 14 16  1  0
 16 17  2  0
 16 18  1  0
 18 19  1  6
 18 20  1  0
 20 21  2  0
 21 22  1  0
 21 23  1  0
 23 24  2  0
 24 25  1  0
 24 26  1  0
 26 27  1  0
 26 28  2  0
 28 29  1  0
  6 30  1  0
 30 31  1  0
 30 32  2  0
 32 33  1  0
 32  2  1  0
 18  9  1  0
 28 20  1  0
M  END
>  <plip>  (1) 
-0.03571428571428571

>  <filename>  (1) 
[H][c]1[n][c]([H])[c]([N]([H])[C@]2([H])[C]([H])([H])[N]([H])[C](=[O])[C@@]2([H])[c]2[c]([H])[n][c]([H])[c]([H])[c]2[H])[c]([H])[c]1[H]

$$$$
