
     RDKit          3D

 22 23  0  0  0  0  0  0  0  0999 V2000
    4.9450    1.7927   17.0153 H   0  0  0  0  0  0  0  0  0  0  0  0
    5.4327    1.2815   17.8430 C   0  0  0  0  0  0  0  0  0  0  0  0
    6.5908    0.6593   17.5703 N   0  0  0  0  0  0  0  0  0  0  0  0
    7.2199    0.0172   18.5695 C   0  0  0  0  0  0  0  0  0  0  0  0
    8.1630   -0.4763   18.3262 H   0  0  0  0  0  0  0  0  0  0  0  0
    6.7014   -0.0399   19.8752 C   0  0  0  0  0  0  0  0  0  0  0  0
    7.2404   -0.7741   20.9149 O   0  0  0  0  0  0  0  0  0  0  0  0
    8.5896   -0.8831   21.1385 C   0  0  0  0  0  0  0  0  0  0  0  0
    9.0813   -2.1040   21.6339 C   0  0  0  0  0  0  0  0  0  0  0  0
    8.2348   -3.1256   21.8056 F   0  0  0  0  0  0  0  0  0  0  0  0
   10.4317   -2.3175   21.8864 C   0  0  0  0  0  0  0  0  0  0  0  0
   10.7279   -3.2678   22.3063 H   0  0  0  0  0  0  0  0  0  0  0  0
   11.3487   -1.3070   21.5945 C   0  0  0  0  0  0  0  0  0  0  0  0
   12.4112   -1.5062   21.6648 H   0  0  0  0  0  0  0  0  0  0  0  0
   10.8918   -0.0522   21.2090 C   0  0  0  0  0  0  0  0  0  0  0  0
   11.5549    0.7953   21.0784 H   0  0  0  0  0  0  0  0  0  0  0  0
    9.5298    0.1525   21.0142 C   0  0  0  0  0  0  0  0  0  0  0  0
    9.1308    1.3987   20.7251 F   0  0  0  0  0  0  0  0  0  0  0  0
    5.4924    0.6063   20.1495 C   0  0  0  0  0  0  0  0  0  0  0  0
    5.0969    0.5777   21.1638 H   0  0  0  0  0  0  0  0  0  0  0  0
    4.8454    1.2795   19.1134 C   0  0  0  0  0  0  0  0  0  0  0  0
    3.9130    1.8088   19.2795 H   0  0  0  0  0  0  0  0  0  0  0  0
  1  2  1  0
  2  3  2  0
  3  4  1  0
  4  5  1  0
  4  6  2  0
  6  7  1  0
  7  8  1  0
  8  9  2  0
  9 10  1  0
  9 11  1  0
 11 12  1  0
 11 13  2  0
 13 14  1  0
 13 15  1  0
 15 16  1  0
 15 17  2  0
 17 18  1  0
  6 19  1  0
 19 20  1  0
 19 21  2  0
 21 22  1  0
 21  2  1  0
 17  8  1  0
M  END
>  <plip>  (1) 
-0.06896551724137931

>  <filename>  (1) 
[H][c]1[n][c]([H])[c]([O][c]2[c]([F])[c]([H])[c]([H])[c]([H])[c]2[F])[c]([H])[c]1[H]

$$$$
