
     RDKit          3D

 44 47  0  0  0  0  0  0  0  0999 V2000
    5.9779   -0.9010   22.2750 H   0  0  0  0  0  0  0  0  0  0  0  0
    6.5504   -1.4941   21.7624 O   0  0  0  0  0  0  0  0  0  0  0  0
    7.4206   -0.6665   20.9969 C   0  0  1  0  0  0  0  0  0  0  0  0
    8.1055   -1.3759   20.5159 H   0  0  0  0  0  0  0  0  0  0  0  0
    6.6500    0.0257   19.8874 C   0  0  0  0  0  0  0  0  0  0  0  0
    7.1399    0.0196   18.5723 C   0  0  0  0  0  0  0  0  0  0  0  0
    8.0541   -0.5302   18.3336 H   0  0  0  0  0  0  0  0  0  0  0  0
    6.5592    0.6438   17.5386 N   0  0  0  0  0  0  0  0  0  0  0  0
    5.4133    1.2959   17.7875 C   0  0  0  0  0  0  0  0  0  0  0  0
    4.9604    1.8024   16.9394 H   0  0  0  0  0  0  0  0  0  0  0  0
    4.8009    1.3258   19.0442 C   0  0  0  0  0  0  0  0  0  0  0  0
    3.8581    1.8490   19.1741 H   0  0  0  0  0  0  0  0  0  0  0  0
    5.4246    0.6771   20.1108 C   0  0  0  0  0  0  0  0  0  0  0  0
    4.9703    0.6854   21.1041 H   0  0  0  0  0  0  0  0  0  0  0  0
    8.3298    0.2904   21.8830 C   0  0  0  0  0  0  0  0  0  0  0  0
    7.5633    1.4116   22.4879 N   0  0  0  0  0  0  0  0  0  0  0  0
    7.4832    2.6834   21.7492 C   0  0  0  0  0  0  0  0  0  0  0  0
    6.4303    2.9951   21.6468 H   0  0  0  0  0  0  0  0  0  0  0  0
    7.8306    2.4910   20.7257 H   0  0  0  0  0  0  0  0  0  0  0  0
    8.2411    3.8680   22.3687 C   0  0  0  0  0  0  0  0  0  0  0  0
    8.2085    5.1421   21.7712 C   0  0  0  0  0  0  0  0  0  0  0  0
    7.5287    5.3493   20.9459 H   0  0  0  0  0  0  0  0  0  0  0  0
    9.0734    6.1467   22.2059 C   0  0  0  0  0  0  0  0  0  0  0  0
    9.0514    7.1105   21.7074 H   0  0  0  0  0  0  0  0  0  0  0  0
    9.9612    5.9017   23.2594 C   0  0  0  0  0  0  0  0  0  0  0  0
   10.7054    6.6403   23.5383 H   0  0  0  0  0  0  0  0  0  0  0  0
    9.8856    4.6902   23.9594 C   0  0  0  0  0  0  0  0  0  0  0  0
   10.5193    4.5146   24.8275 H   0  0  0  0  0  0  0  0  0  0  0  0
    8.9817    3.6946   23.5600 C   0  0  0  0  0  0  0  0  0  0  0  0
    8.7821    2.4391   24.4025 C   0  0  0  0  0  0  0  0  0  0  0  0
    8.6581    2.7059   25.4604 H   0  0  0  0  0  0  0  0  0  0  0  0
    9.6920    1.8269   24.3394 H   0  0  0  0  0  0  0  0  0  0  0  0
    7.5649    1.6266   23.9340 C   0  0  0  0  0  0  0  0  0  0  0  0
    7.4892    0.6697   24.4601 H   0  0  0  0  0  0  0  0  0  0  0  0
    6.6372    2.1699   24.1683 H   0  0  0  0  0  0  0  0  0  0  0  0
    9.6308    0.6864   21.1043 C   0  0  0  0  0  0  0  0  0  0  0  0
    9.6105    0.3993   20.0491 H   0  0  0  0  0  0  0  0  0  0  0  0
    9.8786    1.7484   21.1715 H   0  0  0  0  0  0  0  0  0  0  0  0
   10.4829   -0.2217   22.0194 C   0  0  0  0  0  0  0  0  0  0  0  0
   10.9727   -1.0678   21.5255 H   0  0  0  0  0  0  0  0  0  0  0  0
   11.2479    0.3119   22.5960 H   0  0  0  0  0  0  0  0  0  0  0  0
    9.2178   -0.5803   22.8351 C   0  0  0  0  0  0  0  0  0  0  0  0
    8.9376   -1.6372   22.8332 H   0  0  0  0  0  0  0  0  0  0  0  0
    9.2469   -0.2560   23.8735 H   0  0  0  0  0  0  0  0  0  0  0  0
  1  2  1  0
  2  3  1  0
  3  4  1  6
  3  5  1  0
  5  6  2  0
  6  7  1  0
  6  8  1  0
  8  9  2  0
  9 10  1  0
  9 11  1  0
 11 12  1  0
 11 13  2  0
 13 14  1  0
  3 15  1  0
 15 16  1  0
 16 17  1  0
 17 18  1  0
 17 19  1  0
 17 20  1  0
 20 21  2  0
 21 22  1  0
 21 23  1  0
 23 24  1  0
 23 25  2  0
 25 26  1  0
 25 27  1  0
 27 28  1  0
 27 29  2  0
 29 30  1  0
 30 31  1  0
 30 32  1  0
 30 33  1  0
 33 34  1  0
 33 35  1  0
 15 36  1  0
 36 37  1  0
 36 38  1  0
 36 39  1  0
 39 40  1  0
 39 41  1  0
 39 42  1  0
 42 43  1  0
 42 44  1  0
 13  5  1  0
 42 15  1  0
 33 16  1  0
 29 20  1  0
M  END
>  <plip>  (1) 
-0.10714285714285714

>  <filename>  (1) 
[H][O][C@@]([H])([c]1[c]([H])[n][c]([H])[c]([H])[c]1[H])[C]1([N]2[C]([H])([H])[c]3[c]([H])[c]([H])[c]([H])[c]([H])[c]3[C]([H])([H])[C]2([H])[H])[C]([H])([H])[C]([H])([H])[C]1([H])[H]

$$$$
