
     RDKit          3D

 38 40  0  0  0  0  0  0  0  0999 V2000
    6.0045   -4.0766   20.5546 C   0  0  0  0  0  0  0  0  0  0  0  0
    6.6305   -2.8426   20.3204 O   0  0  0  0  0  0  0  0  0  0  0  0
    6.6786   -1.9904   21.4357 C   0  0  0  0  0  0  0  0  0  0  0  0
    7.3989   -0.7097   21.0086 C   0  0  2  0  0  0  0  0  0  0  0  0
    7.6519    0.0960   22.1944 N   0  0  0  0  0  0  0  0  0  0  0  0
    8.4112    1.2234   22.1260 C   0  0  0  0  0  0  0  0  0  0  0  0
    9.0640    1.5153   21.1365 O   0  0  0  0  0  0  0  0  0  0  0  0
    8.4521    2.0862   23.3417 C   0  0  0  0  0  0  0  0  0  0  0  0
    9.1999    3.2046   23.5055 C   0  0  0  0  0  0  0  0  0  0  0  0
    8.8996    3.6907   24.8213 C   0  0  0  0  0  0  0  0  0  0  0  0
    7.9522    2.7954   25.3575 C   0  0  0  0  0  0  0  0  0  0  0  0
    7.6768    1.8149   24.4592 O   0  0  0  0  0  0  0  0  0  0  0  0
    7.4170    2.9628   26.6503 C   0  0  0  0  0  0  0  0  0  0  0  0
    6.5324    2.1153   27.1814 F   0  0  0  0  0  0  0  0  0  0  0  0
    7.8487    4.0718   27.3782 C   0  0  0  0  0  0  0  0  0  0  0  0
    7.2134    4.3592   28.9662 Cl  0  0  0  0  0  0  0  0  0  0  0  0
    8.8107    4.9683   26.8582 C   0  0  0  0  0  0  0  0  0  0  0  0
    9.3394    4.7840   25.5899 C   0  0  0  0  0  0  0  0  0  0  0  0
   10.0817    5.4695   25.1969 H   0  0  0  0  0  0  0  0  0  0  0  0
    9.1269    5.8026   27.4778 H   0  0  0  0  0  0  0  0  0  0  0  0
    9.8647    3.6235   22.7538 H   0  0  0  0  0  0  0  0  0  0  0  0
    7.0331    0.0333   22.9865 H   0  0  0  0  0  0  0  0  0  0  0  0
    6.6538    0.0489   19.9144 C   0  0  0  0  0  0  0  0  0  0  0  0
    5.4292    0.6928   20.1372 C   0  0  0  0  0  0  0  0  0  0  0  0
    4.7968    1.3327   19.0697 C   0  0  0  0  0  0  0  0  0  0  0  0
    5.4133    1.3046   17.8137 C   0  0  0  0  0  0  0  0  0  0  0  0
    6.5714    0.6787   17.5675 N   0  0  0  0  0  0  0  0  0  0  0  0
    7.1659    0.0763   18.6107 C   0  0  0  0  0  0  0  0  0  0  0  0
    8.1146   -0.4132   18.3830 H   0  0  0  0  0  0  0  0  0  0  0  0
    4.9427    1.7938   16.9635 H   0  0  0  0  0  0  0  0  0  0  0  0
    3.8507    1.8470   19.1966 H   0  0  0  0  0  0  0  0  0  0  0  0
    4.9819    0.7106   21.1338 H   0  0  0  0  0  0  0  0  0  0  0  0
    8.3659   -1.0200   20.5955 H   0  0  0  0  0  0  0  0  0  0  0  0
    5.6550   -1.7431   21.7697 H   0  0  0  0  0  0  0  0  0  0  0  0
    7.2276   -2.4450   22.2842 H   0  0  0  0  0  0  0  0  0  0  0  0
    5.0053   -3.9363   20.9950 H   0  0  0  0  0  0  0  0  0  0  0  0
    6.6002   -4.7156   21.2306 H   0  0  0  0  0  0  0  0  0  0  0  0
    5.8962   -4.5659   19.5808 H   0  0  0  0  0  0  0  0  0  0  0  0
  1  2  1  0
  2  3  1  0
  3  4  1  0
  4  5  1  0
  5  6  1  0
  6  7  2  0
  6  8  1  0
  8  9  2  0
  9 10  1  0
 10 11  2  0
 11 12  1  0
 11 13  1  0
 13 14  1  0
 13 15  2  0
 15 16  1  0
 15 17  1  0
 17 18  2  0
 18 19  1  0
 17 20  1  0
  9 21  1  0
  5 22  1  0
  4 23  1  0
 23 24  2  0
 24 25  1  0
 25 26  2  0
 26 27  1  0
 27 28  2  0
 28 29  1  0
 26 30  1  0
 25 31  1  0
 24 32  1  0
  4 33  1  6
  3 34  1  0
  3 35  1  0
  1 36  1  0
  1 37  1  0
  1 38  1  0
 12  8  1  0
 28 23  1  0
 18 10  1  0
M  END
>  <plip>  (1) 
-0.17857142857142858

>  <filename>  (1) 
[H][c]1[n][c]([H])[c]([C@@]([H])([N]([H])[C](=[O])[c]2[o][c]3[c]([F])[c]([Cl])[c]([H])[c]([H])[c]3[c]2[H])[C]([H])([H])[O][C]([H])([H])[H])[c]([H])[c]1[H]

$$$$
