
     RDKit          3D

 41 43  0  0  0  0  0  0  0  0999 V2000
    5.0091    1.7455   17.1085 H   0  0  0  0  0  0  0  0  0  0  0  0
    5.4350    1.1858   17.9384 C   0  0  0  0  0  0  0  0  0  0  0  0
    6.5557    0.4993   17.6678 N   0  0  0  0  0  0  0  0  0  0  0  0
    7.1145   -0.1903   18.6669 C   0  0  0  0  0  0  0  0  0  0  0  0
    8.0240   -0.7469   18.4347 H   0  0  0  0  0  0  0  0  0  0  0  0
    6.6149   -0.2374   19.9901 C   0  0  0  0  0  0  0  0  0  0  0  0
    7.4073   -0.8727   20.9638 N   0  0  0  0  0  0  0  0  0  0  0  0
    6.8336   -1.6332   21.9858 N   0  0  0  0  0  0  0  0  0  0  0  0
    5.8582   -1.4912   22.1998 H   0  0  0  0  0  0  0  0  0  0  0  0
    7.4709   -2.7386   22.5293 C   0  0  0  0  0  0  0  0  0  0  0  0
    8.5635   -3.1391   22.1477 O   0  0  0  0  0  0  0  0  0  0  0  0
    6.8143   -3.3483   23.5875 N   0  0  0  0  0  0  0  0  0  0  0  0
    7.4608   -4.4677   24.2903 C   0  0  0  0  0  0  0  0  0  0  0  0
    8.4647   -4.1870   24.6190 H   0  0  0  0  0  0  0  0  0  0  0  0
    7.5839   -5.3356   23.6274 H   0  0  0  0  0  0  0  0  0  0  0  0
    6.5092   -4.7542   25.4570 C   0  0  0  0  0  0  0  0  0  0  0  0
    6.7632   -4.0954   26.2936 H   0  0  0  0  0  0  0  0  0  0  0  0
    6.5804   -5.7810   25.8316 H   0  0  0  0  0  0  0  0  0  0  0  0
    5.1169   -4.3913   24.9337 C   0  0  2  0  0  0  0  0  0  0  0  0
    4.5392   -3.8697   25.7019 H   0  0  0  0  0  0  0  0  0  0  0  0
    4.2456   -5.5076   24.3437 C   0  0  0  0  0  0  0  0  0  0  0  0
    3.5148   -5.8882   25.0670 H   0  0  0  0  0  0  0  0  0  0  0  0
    4.8666   -6.3735   24.0272 H   0  0  0  0  0  0  0  0  0  0  0  0
    3.5526   -4.8476   23.2297 N   0  0  0  0  0  0  0  0  0  0  0  0
    2.8077   -5.7434   22.3628 C   0  0  0  0  0  0  0  0  0  0  0  0
    2.0907   -5.1814   21.7523 H   0  0  0  0  0  0  0  0  0  0  0  0
    3.4422   -6.3477   21.6884 H   0  0  0  0  0  0  0  0  0  0  0  0
    2.2337   -6.4581   22.9633 H   0  0  0  0  0  0  0  0  0  0  0  0
    4.5941   -4.0620   22.5691 C   0  0  0  0  0  0  0  0  0  0  0  0
    4.2043   -3.3142   21.8680 H   0  0  0  0  0  0  0  0  0  0  0  0
    5.2768   -4.7036   21.9793 H   0  0  0  0  0  0  0  0  0  0  0  0
    5.3644   -3.4358   23.7428 C   0  0  2  0  0  0  0  0  0  0  0  0
    4.9450   -2.4739   24.0155 H   0  0  0  0  0  0  0  0  0  0  0  0
    8.7885   -0.4264   21.1922 C   0  0  0  0  0  0  0  0  0  0  0  0
    8.9327    0.5520   20.7225 H   0  0  0  0  0  0  0  0  0  0  0  0
    8.9776   -0.3390   22.2690 H   0  0  0  0  0  0  0  0  0  0  0  0
    9.5070   -1.1534   20.7921 H   0  0  0  0  0  0  0  0  0  0  0  0
    5.4189    0.4624   20.2443 C   0  0  0  0  0  0  0  0  0  0  0  0
    4.9882    0.4558   21.2454 H   0  0  0  0  0  0  0  0  0  0  0  0
    4.8331    1.1920   19.2014 C   0  0  0  0  0  0  0  0  0  0  0  0
    3.9285    1.7697   19.3584 H   0  0  0  0  0  0  0  0  0  0  0  0
  1  2  1  0
  2  3  2  0
  3  4  1  0
  4  5  1  0
  4  6  2  0
  6  7  1  0
  7  8  1  0
  8  9  1  0
  8 10  1  0
 10 11  2  0
 10 12  1  0
 12 13  1  0
 13 14  1  0
 13 15  1  0
 13 16  1  0
 16 17  1  0
 16 18  1  0
 16 19  1  0
 19 20  1  1
 19 21  1  0
 21 22  1  0
 21 23  1  0
 21 24  1  0
 24 25  1  0
 25 26  1  0
 25 27  1  0
 25 28  1  0
 24 29  1  0
 29 30  1  0
 29 31  1  0
 29 32  1  0
 32 33  1  1
  7 34  1  0
 34 35  1  0
 34 36  1  0
 34 37  1  0
  6 38  1  0
 38 39  1  0
 38 40  2  0
 40 41  1  0
 40  2  1  0
 32 12  1  0
 32 19  1  0
M  END
>  <plip>  (1) 
-0.06896551724137931

>  <filename>  (1) 
[H][c]1[n][c]([H])[c]([N]([N]([H])[C](=[O])[N]2[C]([H])([H])[C]([H])([H])[C@]3([H])[C]([H])([H])[N]([C]([H])([H])[H])[C]([H])([H])[C@]23[H])[C]([H])([H])[H])[c]([H])[c]1[H]

$$$$
