
     RDKit          3D

 25 26  0  0  0  0  0  0  0  0999 V2000
    8.9851   -2.5309   23.8302 H   0  0  0  0  0  0  0  0  0  0  0  0
    8.5293   -1.9692   23.0215 C   0  0  0  0  0  0  0  0  0  0  0  0
    8.2451   -2.6394   21.9103 N   0  0  0  0  0  0  0  0  0  0  0  0
    7.6498   -1.9342   20.9443 C   0  0  0  0  0  0  0  0  0  0  0  0
    7.3237   -2.4791   20.0649 H   0  0  0  0  0  0  0  0  0  0  0  0
    7.3621   -0.5828   21.0056 C   0  0  0  0  0  0  0  0  0  0  0  0
    6.6521    0.0907   19.8671 C   0  0  0  0  0  0  0  0  0  0  0  0
    7.1469    0.1082   18.5422 C   0  0  0  0  0  0  0  0  0  0  0  0
    8.0967   -0.3801   18.3132 H   0  0  0  0  0  0  0  0  0  0  0  0
    6.5246    0.7021   17.5161 N   0  0  0  0  0  0  0  0  0  0  0  0
    5.3638    1.3223   17.7835 C   0  0  0  0  0  0  0  0  0  0  0  0
    4.8986    1.8373   16.9472 H   0  0  0  0  0  0  0  0  0  0  0  0
    4.7618    1.3371   19.0452 C   0  0  0  0  0  0  0  0  0  0  0  0
    3.8227    1.8577   19.1931 H   0  0  0  0  0  0  0  0  0  0  0  0
    5.4154    0.7018   20.1018 C   0  0  0  0  0  0  0  0  0  0  0  0
    4.9911    0.6545   21.1073 H   0  0  0  0  0  0  0  0  0  0  0  0
    7.7012   -0.0337   22.2667 C   0  0  0  0  0  0  0  0  0  0  0  0
    7.3847    1.2452   22.5826 O   0  0  0  0  0  0  0  0  0  0  0  0
    7.8085    2.2257   21.7335 C   0  0  0  0  0  0  0  0  0  0  0  0
    8.5731    2.0502   20.8246 O   0  0  0  0  0  0  0  0  0  0  0  0
    7.1895    3.5204   22.1364 C   0  0  0  0  0  0  0  0  0  0  0  0
    7.8684    4.0049   22.8401 H   0  0  0  0  0  0  0  0  0  0  0  0
    6.2410    3.3289   22.6318 H   0  0  0  0  0  0  0  0  0  0  0  0
    7.0404    4.1574   21.2696 H   0  0  0  0  0  0  0  0  0  0  0  0
    8.2800   -0.6812   23.2465 N   0  0  0  0  0  0  0  0  0  0  0  0
  1  2  1  0
  2  3  2  0
  3  4  1  0
  4  5  1  0
  4  6  2  0
  6  7  1  0
  7  8  2  0
  8  9  1  0
  8 10  1  0
 10 11  2  0
 11 12  1  0
 11 13  1  0
 13 14  1  0
 13 15  2  0
 15 16  1  0
  6 17  1  0
 17 18  1  0
 18 19  1  0
 19 20  2  0
 19 21  1  0
 21 22  1  0
 21 23  1  0
 21 24  1  0
 17 25  2  0
 25  2  1  0
 15  7  1  0
M  END
>  <plip>  (1) 
-0.06896551724137931

>  <filename>  (1) 
[H][c]1[n][c]([H])[c](-[c]2[c]([H])[n][c]([H])[c]([H])[c]2[H])[c]([O][C](=[O])[C]([H])([H])[H])[n]1

$$$$
