
     RDKit          3D

 30 31  0  0  0  0  0  0  0  0999 V2000
    4.9199    1.7864   16.9901 H   0  0  0  0  0  0  0  0  0  0  0  0
    5.3983    1.2951   17.8345 C   0  0  0  0  0  0  0  0  0  0  0  0
    6.5618    0.6804   17.5710 N   0  0  0  0  0  0  0  0  0  0  0  0
    7.1623    0.0610   18.5937 C   0  0  0  0  0  0  0  0  0  0  0  0
    8.1175   -0.4160   18.3771 H   0  0  0  0  0  0  0  0  0  0  0  0
    6.6412    0.0022   19.8949 C   0  0  0  0  0  0  0  0  0  0  0  0
    7.4203   -0.6574   21.0039 C   0  0  0  0  0  0  0  0  0  0  0  0
    6.7470   -0.9821   21.8022 H   0  0  0  0  0  0  0  0  0  0  0  0
    7.9659   -1.5344   20.6429 H   0  0  0  0  0  0  0  0  0  0  0  0
    8.4090    0.2351   21.5930 N   0  0  0  0  0  0  0  0  0  0  0  0
    9.6806    0.2591   21.1164 N   0  0  0  0  0  0  0  0  0  0  0  0
   10.2719    1.2375   21.7790 C   0  0  0  0  0  0  0  0  0  0  0  0
   11.3217    1.4372   21.5872 H   0  0  0  0  0  0  0  0  0  0  0  0
    9.3980    1.8915   22.6756 C   0  0  0  0  0  0  0  0  0  0  0  0
    9.6053    2.7137   23.3477 H   0  0  0  0  0  0  0  0  0  0  0  0
    8.2057    1.2264   22.4983 C   0  0  0  0  0  0  0  0  0  0  0  0
    6.9737    1.3886   23.0120 O   0  0  0  0  0  0  0  0  0  0  0  0
    6.8308    2.3696   24.0510 C   0  0  0  0  0  0  0  0  0  0  0  0
    5.7579    2.5531   24.1231 H   0  0  0  0  0  0  0  0  0  0  0  0
    7.3001    3.3229   23.7780 H   0  0  0  0  0  0  0  0  0  0  0  0
    7.3442    1.9168   25.4216 C   0  0  0  0  0  0  0  0  0  0  0  0
    6.8482    0.9804   25.6949 H   0  0  0  0  0  0  0  0  0  0  0  0
    8.4148    1.6900   25.3604 H   0  0  0  0  0  0  0  0  0  0  0  0
    7.1268    2.8886   26.4953 N   0  0  0  0  0  0  0  0  0  0  0  0
    6.1356    3.0949   26.5917 H   0  0  0  0  0  0  0  0  0  0  0  0
    7.5687    3.7745   26.2674 H   0  0  0  0  0  0  0  0  0  0  0  0
    5.4286    0.6486   20.1521 C   0  0  0  0  0  0  0  0  0  0  0  0
    5.0073    0.6423   21.1613 H   0  0  0  0  0  0  0  0  0  0  0  0
    4.8001    1.3139   19.0984 C   0  0  0  0  0  0  0  0  0  0  0  0
    3.8698    1.8477   19.2480 H   0  0  0  0  0  0  0  0  0  0  0  0
  1  2  1  0
  2  3  2  0
  3  4  1  0
  4  5  1  0
  4  6  2  0
  6  7  1  0
  7  8  1  0
  7  9  1  0
  7 10  1  0
 10 11  1  0
 11 12  2  0
 12 13  1  0
 12 14  1  0
 14 15  1  0
 14 16  2  0
 16 17  1  0
 17 18  1  0
 18 19  1  0
 18 20  1  0
 18 21  1  0
 21 22  1  0
 21 23  1  0
 21 24  1  0
 24 25  1  0
 24 26  1  0
  6 27  1  0
 27 28  1  0
 27 29  2  0
 29 30  1  0
 29  2  1  0
 16 10  1  0
M  END
>  <plip>  (1) 
-0.07142857142857142

>  <filename>  (1) 
[H][c]1[n][c]([H])[c]([C]([H])([H])[n]2[n][c]([H])[c]([H])[c]2[O][C]([H])([H])[C]([H])([H])[N]([H])[H])[c]([H])[c]1[H]

$$$$
