
     RDKit          3D

 37 38  0  0  0  0  0  0  0  0999 V2000
    4.5592   -3.2180   21.6935 N   0  0  0  0  0  0  0  0  0  0  0  0
    4.5593   -3.2182   21.6929 C   0  0  0  0  0  0  0  0  0  0  0  0
    5.7937   -2.5740   22.2626 C   0  0  0  0  0  0  0  0  0  0  0  0
    6.7713   -2.1836   21.1447 C   0  0  0  0  0  0  0  0  0  0  0  0
    7.0593   -3.0588   20.3833 O   0  0  0  0  0  0  0  0  0  0  0  0
    7.3582   -0.7490   21.0072 C   0  0  0  0  0  0  0  0  0  0  0  0
    6.6692    0.0321   19.9002 C   0  0  0  0  0  0  0  0  0  0  0  0
    5.4450    0.6599   20.1504 C   0  0  0  0  0  0  0  0  0  0  0  0
    4.7991    1.3155   19.1016 C   0  0  0  0  0  0  0  0  0  0  0  0
    5.3978    1.2955   17.8360 C   0  0  0  0  0  0  0  0  0  0  0  0
    6.5622    0.6842   17.5650 N   0  0  0  0  0  0  0  0  0  0  0  0
    7.1734    0.0754   18.5886 C   0  0  0  0  0  0  0  0  0  0  0  0
    8.1163   -0.4277   18.3752 H   0  0  0  0  0  0  0  0  0  0  0  0
    4.9087    1.7800   16.9963 H   0  0  0  0  0  0  0  0  0  0  0  0
    3.8678    1.8471   19.2594 H   0  0  0  0  0  0  0  0  0  0  0  0
    5.0089    0.6302   21.1538 H   0  0  0  0  0  0  0  0  0  0  0  0
    8.4389   -0.7976   20.7936 H   0  0  0  0  0  0  0  0  0  0  0  0
    7.2400   -0.2118   21.9550 H   0  0  0  0  0  0  0  0  0  0  0  0
    6.5223   -3.5968   23.0979 C   0  0  0  0  0  0  0  0  0  0  0  0
    6.7640   -3.2777   24.2409 O   0  0  0  0  0  0  0  0  0  0  0  0
    6.6606   -4.8368   22.5647 N   0  0  0  0  0  0  0  0  0  0  0  0
    7.0415   -5.9245   23.4717 C   0  0  0  0  0  0  0  0  0  0  0  0
    5.9311   -6.3067   24.4411 C   0  0  0  0  0  0  0  0  0  0  0  0
    6.0238   -5.9953   25.8039 C   0  0  0  0  0  0  0  0  0  0  0  0
    5.0024   -6.3623   26.6840 C   0  0  0  0  0  0  0  0  0  0  0  0
    3.8929   -7.0695   26.2099 C   0  0  0  0  0  0  0  0  0  0  0  0
    3.8142   -7.4211   24.8583 C   0  0  0  0  0  0  0  0  0  0  0  0
    4.8355   -7.0530   23.9821 C   0  0  0  0  0  0  0  0  0  0  0  0
    4.7717   -7.3263   22.9271 H   0  0  0  0  0  0  0  0  0  0  0  0
    2.9499   -7.9664   24.4851 H   0  0  0  0  0  0  0  0  0  0  0  0
    3.0930   -7.3465   26.8925 H   0  0  0  0  0  0  0  0  0  0  0  0
    5.0688   -6.0858   27.7347 H   0  0  0  0  0  0  0  0  0  0  0  0
    6.8880   -5.4401   26.1727 H   0  0  0  0  0  0  0  0  0  0  0  0
    7.3446   -6.7932   22.8795 H   0  0  0  0  0  0  0  0  0  0  0  0
    7.9332   -5.6064   24.0205 H   0  0  0  0  0  0  0  0  0  0  0  0
    6.2740   -4.9536   21.6495 H   0  0  0  0  0  0  0  0  0  0  0  0
    5.8734   -1.6395   22.6983 H   0  0  0  0  0  0  0  0  0  0  0  0
  1  2  3  0
  2  3  1  0
  3  4  1  0
  4  5  2  0
  4  6  1  0
  6  7  1  0
  7  8  2  0
  8  9  1  0
  9 10  2  0
 10 11  1  0
 11 12  2  0
 12 13  1  0
 10 14  1  0
  9 15  1  0
  8 16  1  0
  6 17  1  0
  6 18  1  0
  3 19  1  0
 19 20  2  0
 19 21  1  0
 21 22  1  0
 22 23  1  0
 23 24  2  0
 24 25  1  0
 25 26  2  0
 26 27  1  0
 27 28  2  0
 28 29  1  0
 27 30  1  0
 26 31  1  0
 25 32  1  0
 24 33  1  0
 22 34  1  0
 22 35  1  0
 21 36  1  0
  3 37  1  0
 12  7  1  0
 28 23  1  0
M  END
>  <plip>  (1) 
-0.1

>  <filename>  (1) 
[H][c]1[n][c]([H])[c]([C]([H])([H])[C](=[O])[C]([H])([C]#[N])[C](=[O])[N]([H])[C]([H])([H])[c]2[c]([H])[c]([H])[c]([H])[c]([H])[c]2[H])[c]([H])[c]1[H]

$$$$
