
     RDKit          3D

 50 53  0  0  0  0  0  0  0  0999 V2000
    6.1106   -2.8929   19.7470 O   0  0  0  0  0  0  0  0  0  0  0  0
    5.9742   -2.7787   20.9498 C   0  0  0  0  0  0  0  0  0  0  0  0
    6.5048   -1.7309   21.6593 N   0  0  0  0  0  0  0  0  0  0  0  0
    7.3580   -0.7266   21.0251 C   0  0  0  0  0  0  0  0  0  0  0  0
    6.6048   -0.0072   19.9169 C   0  0  0  0  0  0  0  0  0  0  0  0
    5.3945    0.6672   20.1318 C   0  0  0  0  0  0  0  0  0  0  0  0
    4.7948    1.3285   19.0562 C   0  0  0  0  0  0  0  0  0  0  0  0
    5.4204    1.2948   17.8051 C   0  0  0  0  0  0  0  0  0  0  0  0
    6.5666    0.6358   17.5721 N   0  0  0  0  0  0  0  0  0  0  0  0
    7.1221    0.0026   18.6169 C   0  0  0  0  0  0  0  0  0  0  0  0
    8.0474   -0.5396   18.4104 H   0  0  0  0  0  0  0  0  0  0  0  0
    4.9863    1.8232   16.9564 H   0  0  0  0  0  0  0  0  0  0  0  0
    3.8664    1.8764   19.1771 H   0  0  0  0  0  0  0  0  0  0  0  0
    4.9221    0.6702   21.1177 H   0  0  0  0  0  0  0  0  0  0  0  0
    7.9494    0.2368   22.0889 C   0  0  0  0  0  0  0  0  0  0  0  0
    8.7357   -0.4993   23.2034 C   0  0  0  0  0  0  0  0  0  0  0  0
    9.2919    0.4798   24.2503 C   0  0  0  0  0  0  0  0  0  0  0  0
   10.1824    1.5474   23.5984 C   0  0  0  0  0  0  0  0  0  0  0  0
    9.4285    2.2912   22.4853 C   0  0  0  0  0  0  0  0  0  0  0  0
    8.8489    1.3212   21.4448 C   0  0  0  0  0  0  0  0  0  0  0  0
    9.6833    0.8215   20.9193 H   0  0  0  0  0  0  0  0  0  0  0  0
    8.2822    1.8828   20.6883 H   0  0  0  0  0  0  0  0  0  0  0  0
   10.0953    3.0082   21.9897 H   0  0  0  0  0  0  0  0  0  0  0  0
    8.6055    2.8756   22.9307 H   0  0  0  0  0  0  0  0  0  0  0  0
   11.0715    1.0571   23.1660 H   0  0  0  0  0  0  0  0  0  0  0  0
   10.5451    2.2586   24.3520 H   0  0  0  0  0  0  0  0  0  0  0  0
    8.4522    0.9727   24.7687 H   0  0  0  0  0  0  0  0  0  0  0  0
    9.8577   -0.0672   25.0146 H   0  0  0  0  0  0  0  0  0  0  0  0
    8.0985   -1.2455   23.6962 H   0  0  0  0  0  0  0  0  0  0  0  0
    9.5775   -1.0504   22.7481 H   0  0  0  0  0  0  0  0  0  0  0  0
    7.0909    0.7438   22.5699 H   0  0  0  0  0  0  0  0  0  0  0  0
    8.1975   -1.2553   20.5498 H   0  0  0  0  0  0  0  0  0  0  0  0
    6.0004   -1.4296   22.4768 H   0  0  0  0  0  0  0  0  0  0  0  0
    5.2213   -3.7886   21.7837 C   0  0  0  0  0  0  0  0  0  0  0  0
    4.6163   -3.6874   23.0164 C   0  0  0  0  0  0  0  0  0  0  0  0
    3.9764   -4.8732   23.1884 N   0  0  0  0  0  0  0  0  0  0  0  0
    3.1637   -5.3503   24.2643 C   0  0  0  0  0  0  0  0  0  0  0  0
    3.2784   -6.7010   24.6486 C   0  0  0  0  0  0  0  0  0  0  0  0
    2.5511   -7.1929   25.7292 C   0  0  0  0  0  0  0  0  0  0  0  0
    1.6439   -6.3749   26.4076 C   0  0  0  0  0  0  0  0  0  0  0  0
    1.4822   -5.0441   26.0151 C   0  0  0  0  0  0  0  0  0  0  0  0
    2.2611   -4.5263   24.9696 C   0  0  0  0  0  0  0  0  0  0  0  0
    2.0702   -2.8283   24.6271 Cl  0  0  0  0  0  0  0  0  0  0  0  0
    0.7706   -4.3956   26.5205 H   0  0  0  0  0  0  0  0  0  0  0  0
    1.0760   -6.7754   27.2441 H   0  0  0  0  0  0  0  0  0  0  0  0
    2.7041   -8.2205   26.0448 H   0  0  0  0  0  0  0  0  0  0  0  0
    3.9453   -7.3403   24.0761 H   0  0  0  0  0  0  0  0  0  0  0  0
    4.2557   -5.6930   22.1457 N   0  0  0  0  0  0  0  0  0  0  0  0
    4.9846   -5.0545   21.3146 N   0  0  0  0  0  0  0  0  0  0  0  0
    4.6169   -2.9405   23.7965 H   0  0  0  0  0  0  0  0  0  0  0  0
  1  2  2  0
  2  3  1  0
  3  4  1  0
  4  5  1  0
  5  6  2  0
  6  7  1  0
  7  8  2  0
  8  9  1  0
  9 10  2  0
 10 11  1  0
  8 12  1  0
  7 13  1  0
  6 14  1  0
  4 15  1  0
 15 16  1  0
 16 17  1  0
 17 18  1  0
 18 19  1  0
 19 20  1  0
 20 21  1  0
 20 22  1  0
 19 23  1  0
 19 24  1  0
 18 25  1  0
 18 26  1  0
 17 27  1  0
 17 28  1  0
 16 29  1  0
 16 30  1  0
 15 31  1  0
  4 32  1  0
  3 33  1  0
  2 34  1  0
 34 35  2  0
 35 36  1  0
 36 37  1  0
 37 38  2  0
 38 39  1  0
 39 40  2  0
 40 41  1  0
 41 42  2  0
 42 43  1  0
 41 44  1  0
 40 45  1  0
 39 46  1  0
 38 47  1  0
 36 48  1  0
 48 49  2  0
 35 50  1  0
 10  5  1  0
 20 15  1  0
 49 34  1  0
 42 37  1  0
M  END
>  <plip>  (1) 
-0.14285714285714285

>  <filename>  (1) 
[H][c]1[n][c]([H])[c]([C]([H])([N]([H])[C](=[O])[c]2[n][n][n](-[c]3[c]([H])[c]([H])[c]([H])[c]([H])[c]3[Cl])[c]2[H])[C]2([H])[C]([H])([H])[C]([H])([H])[C]([H])([H])[C]([H])([H])[C]2([H])[H])[c]([H])[c]1[H]

$$$$
