
     RDKit          3D

 38 41  0  0  0  0  0  0  0  0999 V2000
    9.8146    1.6731   24.9723 O   0  0  0  0  0  0  0  0  0  0  0  0
   10.2335    1.2629   23.9157 C   0  0  0  0  0  0  0  0  0  0  0  0
   11.5641    0.7044   23.6419 C   0  0  0  0  0  0  0  0  0  0  0  0
   12.7555    0.6926   24.3619 C   0  0  0  0  0  0  0  0  0  0  0  0
   13.8695    0.1450   23.7281 C   0  0  0  0  0  0  0  0  0  0  0  0
   13.7206   -0.3850   22.4318 C   0  0  0  0  0  0  0  0  0  0  0  0
   12.5748   -0.3654   21.7593 N   0  0  0  0  0  0  0  0  0  0  0  0
   11.5327    0.2312   22.3433 C   0  0  0  0  0  0  0  0  0  0  0  0
   10.2078    0.6029   21.7120 C   0  0  0  0  0  0  0  0  0  0  0  0
    9.7905    0.4765   20.5868 O   0  0  0  0  0  0  0  0  0  0  0  0
    9.5068    1.2558   22.7249 N   0  0  0  0  0  0  0  0  0  0  0  0
    8.0659    1.5311   22.6671 C   0  0  0  0  0  0  0  0  0  0  0  0
    7.2547    0.3163   23.1060 C   0  0  0  0  0  0  0  0  0  0  0  0
    6.8659    0.1669   24.4499 C   0  0  0  0  0  0  0  0  0  0  0  0
    6.3078   -1.0279   24.9173 C   0  0  0  0  0  0  0  0  0  0  0  0
    6.1497   -2.1134   24.0494 C   0  0  0  0  0  0  0  0  0  0  0  0
    6.4996   -1.9795   22.7044 C   0  0  0  0  0  0  0  0  0  0  0  0
    7.0195   -0.7693   22.2417 C   0  0  0  0  0  0  0  0  0  0  0  0
    7.3592   -0.7399   20.9084 O   0  0  0  0  0  0  0  0  0  0  0  0
    6.6522   -0.0091   19.9926 C   0  0  0  0  0  0  0  0  0  0  0  0
    5.4299    0.6303   20.2218 C   0  0  0  0  0  0  0  0  0  0  0  0
    4.8370    1.2876   19.1337 C   0  0  0  0  0  0  0  0  0  0  0  0
    5.4751    1.2802   17.8897 C   0  0  0  0  0  0  0  0  0  0  0  0
    6.6529    0.6720   17.6684 N   0  0  0  0  0  0  0  0  0  0  0  0
    7.2260    0.0555   18.7098 C   0  0  0  0  0  0  0  0  0  0  0  0
    8.1882   -0.4294   18.5588 H   0  0  0  0  0  0  0  0  0  0  0  0
    5.0230    1.7782   17.0348 H   0  0  0  0  0  0  0  0  0  0  0  0
    3.8962    1.8157   19.2465 H   0  0  0  0  0  0  0  0  0  0  0  0
    4.9739    0.6228   21.2142 H   0  0  0  0  0  0  0  0  0  0  0  0
    6.3681   -2.7811   21.9848 H   0  0  0  0  0  0  0  0  0  0  0  0
    5.7393   -3.0542   24.4071 H   0  0  0  0  0  0  0  0  0  0  0  0
    6.0208   -1.1171   25.9601 H   0  0  0  0  0  0  0  0  0  0  0  0
    7.0490    0.9849   25.1450 H   0  0  0  0  0  0  0  0  0  0  0  0
    7.8157    1.8433   21.6470 H   0  0  0  0  0  0  0  0  0  0  0  0
    7.8524    2.3783   23.3280 H   0  0  0  0  0  0  0  0  0  0  0  0
   14.5661   -0.8250   21.9082 H   0  0  0  0  0  0  0  0  0  0  0  0
   14.8307    0.0780   24.2195 H   0  0  0  0  0  0  0  0  0  0  0  0
   12.8180    1.1148   25.3571 H   0  0  0  0  0  0  0  0  0  0  0  0
  1  2  2  0
  2  3  1  0
  3  4  2  0
  4  5  1  0
  5  6  2  0
  6  7  1  0
  7  8  2  0
  8  9  1  0
  9 10  2  0
  9 11  1  0
 11 12  1  0
 12 13  1  0
 13 14  2  0
 14 15  1  0
 15 16  2  0
 16 17  1  0
 17 18  2  0
 18 19  1  0
 19 20  1  0
 20 21  2  0
 21 22  1  0
 22 23  2  0
 23 24  1  0
 24 25  2  0
 25 26  1  0
 23 27  1  0
 22 28  1  0
 21 29  1  0
 17 30  1  0
 16 31  1  0
 15 32  1  0
 14 33  1  0
 12 34  1  0
 12 35  1  0
  6 36  1  0
  5 37  1  0
  4 38  1  0
 11  2  1  0
 18 13  1  0
 25 20  1  0
  8  3  1  0
M  END
>  <plip>  (1) 
-0.10714285714285714

>  <filename>  (1) 
[H][c]1[n][c]([H])[c]([O][c]2[c]([H])[c]([H])[c]([H])[c]([H])[c]2[C]([H])([H])[N]2[C](=[O])[c]3[n][c]([H])[c]([H])[c]([H])[c]3[C]2=[O])[c]([H])[c]1[H]

$$$$
