
     RDKit          3D

 29 30  0  0  0  0  0  0  0  0999 V2000
    9.1646   -1.3710   22.8576 H   0  0  0  0  0  0  0  0  0  0  0  0
    9.0312   -0.2915   22.8106 C   0  0  0  0  0  0  0  0  0  0  0  0
    8.1785    0.2325   21.9268 C   0  0  0  0  0  0  0  0  0  0  0  0
    7.4163   -0.7071   20.9933 C   0  0  2  0  0  0  0  0  0  0  0  0
    8.1729   -1.3383   20.5096 H   0  0  0  0  0  0  0  0  0  0  0  0
    6.6504    0.0018   19.9029 C   0  0  0  0  0  0  0  0  0  0  0  0
    7.1667    0.0592   18.6057 C   0  0  0  0  0  0  0  0  0  0  0  0
    8.1168   -0.4258   18.3758 H   0  0  0  0  0  0  0  0  0  0  0  0
    6.5665    0.6777   17.5788 N   0  0  0  0  0  0  0  0  0  0  0  0
    5.4027    1.2933   17.8351 C   0  0  0  0  0  0  0  0  0  0  0  0
    4.9150    1.7806   16.9949 H   0  0  0  0  0  0  0  0  0  0  0  0
    4.8023    1.3136   19.0992 C   0  0  0  0  0  0  0  0  0  0  0  0
    3.8707    1.8451   19.2568 H   0  0  0  0  0  0  0  0  0  0  0  0
    5.4326    0.6507   20.1480 C   0  0  0  0  0  0  0  0  0  0  0  0
    4.9967    0.6421   21.1542 H   0  0  0  0  0  0  0  0  0  0  0  0
    6.5708   -1.6356   21.7698 N   0  0  0  0  0  0  0  0  0  0  0  0
    5.9302   -1.0724   22.3303 H   0  0  0  0  0  0  0  0  0  0  0  0
    5.9793   -2.1250   21.1062 H   0  0  0  0  0  0  0  0  0  0  0  0
    7.9378    1.7418   21.9014 C   0  0  0  0  0  0  0  0  0  0  0  0
    7.9164    2.1111   20.8713 H   0  0  0  0  0  0  0  0  0  0  0  0
    6.9346    1.9373   22.3040 H   0  0  0  0  0  0  0  0  0  0  0  0
    8.9635    2.5266   22.7270 C   0  0  0  0  0  0  0  0  0  0  0  0
    8.6126    3.5503   22.8979 H   0  0  0  0  0  0  0  0  0  0  0  0
    9.9029    2.6125   22.1676 H   0  0  0  0  0  0  0  0  0  0  0  0
    9.2609    1.8874   24.0128 N   0  0  0  0  0  0  0  0  0  0  0  0
    8.3655    1.7573   24.4831 H   0  0  0  0  0  0  0  0  0  0  0  0
    9.8153    0.5498   23.7909 C   0  0  0  0  0  0  0  0  0  0  0  0
    9.9071    0.0307   24.7497 H   0  0  0  0  0  0  0  0  0  0  0  0
   10.8388    0.6611   23.4127 H   0  0  0  0  0  0  0  0  0  0  0  0
  1  2  1  0
  2  3  2  0
  3  4  1  0
  4  5  1  6
  4  6  1  0
  6  7  2  0
  7  8  1  0
  7  9  1  0
  9 10  2  0
 10 11  1  0
 10 12  1  0
 12 13  1  0
 12 14  2  0
 14 15  1  0
  4 16  1  0
 16 17  1  0
 16 18  1  0
  3 19  1  0
 19 20  1  0
 19 21  1  0
 19 22  1  0
 22 23  1  0
 22 24  1  0
 22 25  1  0
 25 26  1  0
 25 27  1  0
 27 28  1  0
 27 29  1  0
 27  2  1  0
 14  6  1  0
M  END
>  <plip>  (1) 
-0.03571428571428571

>  <filename>  (1) 
[H][C]1=[C]([C@]([H])([c]2[c]([H])[n][c]([H])[c]([H])[c]2[H])[N]([H])[H])[C]([H])([H])[C]([H])([H])[N]([H])[C]1([H])[H]

$$$$
