
     RDKit          3D

 31 33  0  0  0  0  0  0  0  0999 V2000
    4.9266    1.7849   16.9985 H   0  0  0  0  0  0  0  0  0  0  0  0
    5.4038    1.2891   17.8407 C   0  0  0  0  0  0  0  0  0  0  0  0
    6.5699    0.6724   17.5771 N   0  0  0  0  0  0  0  0  0  0  0  0
    7.1888    0.0689   18.5978 C   0  0  0  0  0  0  0  0  0  0  0  0
    8.1353   -0.4218   18.3652 H   0  0  0  0  0  0  0  0  0  0  0  0
    6.6861    0.0174   19.9158 C   0  0  0  0  0  0  0  0  0  0  0  0
    7.3853   -0.6301   20.9706 N   0  0  0  0  0  0  0  0  0  0  0  0
    6.7675   -1.5011   21.8600 C   0  0  0  0  0  0  0  0  0  0  0  0
    5.6691   -1.9945   21.7172 O   0  0  0  0  0  0  0  0  0  0  0  0
    7.7802   -1.8606   22.9481 C   0  0  2  0  0  0  0  0  0  0  0  0
    7.8104   -2.9534   22.9202 H   0  0  0  0  0  0  0  0  0  0  0  0
    7.3979   -1.4577   24.3727 C   0  0  1  0  0  0  0  0  0  0  0  0
    7.2272   -0.3877   24.5034 H   0  0  0  0  0  0  0  0  0  0  0  0
    6.5714   -2.3845   25.2216 C   0  0  0  0  0  0  0  0  0  0  0  0
    6.3278   -3.3527   24.7876 H   0  0  0  0  0  0  0  0  0  0  0  0
    5.7956   -1.9828   25.8690 H   0  0  0  0  0  0  0  0  0  0  0  0
    8.0159   -2.1572   25.5644 C   0  0  1  0  0  0  0  0  0  0  0  0
    8.2108   -1.5221   26.4412 H   0  0  0  0  0  0  0  0  0  0  0  0
    8.9113   -3.2441   25.2664 N   0  0  0  0  0  0  0  0  0  0  0  0
    9.8589   -2.9041   25.1406 H   0  0  0  0  0  0  0  0  0  0  0  0
    8.9212   -3.9275   26.0162 H   0  0  0  0  0  0  0  0  0  0  0  0
    9.1221   -1.2581   22.4712 C   0  0  0  0  0  0  0  0  0  0  0  0
    9.4805   -0.4850   23.1650 H   0  0  0  0  0  0  0  0  0  0  0  0
    9.9046   -2.0253   22.4238 H   0  0  0  0  0  0  0  0  0  0  0  0
    8.8466   -0.6564   21.0721 C   0  0  0  0  0  0  0  0  0  0  0  0
    9.2900   -1.2702   20.2725 H   0  0  0  0  0  0  0  0  0  0  0  0
    9.2433    0.3579   20.9637 H   0  0  0  0  0  0  0  0  0  0  0  0
    5.4506    0.6380   20.1673 C   0  0  0  0  0  0  0  0  0  0  0  0
    5.0114    0.6061   21.1633 H   0  0  0  0  0  0  0  0  0  0  0  0
    4.8202    1.2989   19.1112 C   0  0  0  0  0  0  0  0  0  0  0  0
    3.8875    1.8305   19.2621 H   0  0  0  0  0  0  0  0  0  0  0  0
  1  2  1  0
  2  3  2  0
  3  4  1  0
  4  5  1  0
  4  6  2  0
  6  7  1  0
  7  8  1  0
  8  9  2  0
  8 10  1  0
 10 11  1  1
 10 12  1  0
 12 13  1  1
 12 14  1  0
 14 15  1  0
 14 16  1  0
 14 17  1  0
 17 18  1  1
 17 19  1  0
 19 20  1  0
 19 21  1  0
 10 22  1  0
 22 23  1  0
 22 24  1  0
 22 25  1  0
 25 26  1  0
 25 27  1  0
  6 28  1  0
 28 29  1  0
 28 30  2  0
 30 31  1  0
 30  2  1  0
 25  7  1  0
 17 12  1  0
M  END
>  <plip>  (1) 
-0.07142857142857142

>  <filename>  (1) 
[H][c]1[n][c]([H])[c]([N]2[C](=[O])[C@]([H])([C@@]3([H])[C]([H])([H])[C@@]3([H])[N]([H])[H])[C]([H])([H])[C]2([H])[H])[c]([H])[c]1[H]

$$$$
