
     RDKit          3D

 33 35  0  0  0  0  0  0  0  0999 V2000
    6.6117   -2.1014   21.2748 C   0  0  0  0  0  0  0  0  0  0  0  0
    6.6211   -0.5731   21.3490 C   0  0  1  0  0  0  0  0  0  0  0  0
    7.9708   -0.0819   21.6199 N   0  0  0  0  0  0  0  0  0  0  0  0
    8.2030    1.2462   21.8143 C   0  0  0  0  0  0  0  0  0  0  0  0
    7.3348    2.0926   21.6727 O   0  0  0  0  0  0  0  0  0  0  0  0
    9.6017    1.6512   22.1975 C   0  0  0  0  0  0  0  0  0  0  0  0
   10.0987    2.9074   22.3473 C   0  0  0  0  0  0  0  0  0  0  0  0
   11.5090    2.7639   22.5646 C   0  0  0  0  0  0  0  0  0  0  0  0
   12.6254    3.6046   22.6809 C   0  0  0  0  0  0  0  0  0  0  0  0
   13.8636    2.9889   22.8141 C   0  0  0  0  0  0  0  0  0  0  0  0
   13.9485    1.5821   22.8494 C   0  0  0  0  0  0  0  0  0  0  0  0
   12.9054    0.7538   22.7481 N   0  0  0  0  0  0  0  0  0  0  0  0
   11.7494    1.3746   22.5924 C   0  0  0  0  0  0  0  0  0  0  0  0
   10.5885    0.7035   22.3853 O   0  0  0  0  0  0  0  0  0  0  0  0
   14.9090    1.0821   22.9536 H   0  0  0  0  0  0  0  0  0  0  0  0
   14.7671    3.5808   22.8472 H   0  0  0  0  0  0  0  0  0  0  0  0
   12.5559    4.6890   22.6182 H   0  0  0  0  0  0  0  0  0  0  0  0
    9.5183    3.8270   22.3261 H   0  0  0  0  0  0  0  0  0  0  0  0
    8.7083   -0.7279   21.8501 H   0  0  0  0  0  0  0  0  0  0  0  0
    6.1008    0.0304   20.0578 C   0  0  0  0  0  0  0  0  0  0  0  0
    4.9044    0.7514   19.9891 C   0  0  0  0  0  0  0  0  0  0  0  0
    4.5710    1.3901   18.7913 C   0  0  0  0  0  0  0  0  0  0  0  0
    5.4151    1.2252   17.6887 C   0  0  0  0  0  0  0  0  0  0  0  0
    6.5295    0.4785   17.7119 N   0  0  0  0  0  0  0  0  0  0  0  0
    6.8553   -0.0889   18.8820 C   0  0  0  0  0  0  0  0  0  0  0  0
    7.7755   -0.6759   18.8790 H   0  0  0  0  0  0  0  0  0  0  0  0
    5.1923    1.7230   16.7460 H   0  0  0  0  0  0  0  0  0  0  0  0
    3.6962    2.0274   18.7130 H   0  0  0  0  0  0  0  0  0  0  0  0
    4.2602    0.8159   20.8687 H   0  0  0  0  0  0  0  0  0  0  0  0
    5.9553   -0.2302   22.1595 H   0  0  0  0  0  0  0  0  0  0  0  0
    5.5986   -2.4807   21.4533 H   0  0  0  0  0  0  0  0  0  0  0  0
    7.2815   -2.5387   22.0242 H   0  0  0  0  0  0  0  0  0  0  0  0
    6.9251   -2.4528   20.2833 H   0  0  0  0  0  0  0  0  0  0  0  0
  1  2  1  0
  2  3  1  0
  3  4  1  0
  4  5  2  0
  4  6  1  0
  6  7  2  0
  7  8  1  0
  8  9  2  0
  9 10  1  0
 10 11  2  0
 11 12  1  0
 12 13  2  0
 13 14  1  0
 11 15  1  0
 10 16  1  0
  9 17  1  0
  7 18  1  0
  3 19  1  0
  2 20  1  0
 20 21  2  0
 21 22  1  0
 22 23  2  0
 23 24  1  0
 24 25  2  0
 25 26  1  0
 23 27  1  0
 22 28  1  0
 21 29  1  0
  2 30  1  1
  1 31  1  0
  1 32  1  0
  1 33  1  0
 14  6  1  0
 25 20  1  0
 13  8  1  0
M  END
>  <plip>  (1) 
-0.07142857142857142

>  <filename>  (1) 
[H][c]1[n][c]([H])[c]([C@]([H])([N]([H])[C](=[O])[c]2[o][c]3[n][c]([H])[c]([H])[c]([H])[c]3[c]2[H])[C]([H])([H])[H])[c]([H])[c]1[H]

$$$$
