
     RDKit          3D

 35 38  0  0  0  0  0  0  0  0999 V2000
    9.2992   -2.8205   27.9079 H   0  0  0  0  0  0  0  0  0  0  0  0
    8.5377   -2.3959   27.4772 O   0  0  0  0  0  0  0  0  0  0  0  0
    8.8949   -1.1168   27.6678 C   0  0  0  0  0  0  0  0  0  0  0  0
    9.8699   -0.8674   28.3316 O   0  0  0  0  0  0  0  0  0  0  0  0
    8.0536   -0.1099   27.0084 C   0  0  0  0  0  0  0  0  0  0  0  0
    7.1283   -0.1920   25.9789 C   0  0  0  0  0  0  0  0  0  0  0  0
    6.7764   -1.4671   25.2456 C   0  0  0  0  0  0  0  0  0  0  0  0
    5.8177   -1.3822   24.7222 H   0  0  0  0  0  0  0  0  0  0  0  0
    6.7051   -2.2798   25.9708 H   0  0  0  0  0  0  0  0  0  0  0  0
    7.8368   -1.8386   24.2587 C   0  0  0  0  0  0  0  0  0  0  0  0
    8.9392   -2.5158   24.4611 N   0  0  0  0  0  0  0  0  0  0  0  0
    9.6591   -2.5574   23.2807 N   0  0  0  0  0  0  0  0  0  0  0  0
    8.9498   -1.8967   22.4039 C   0  0  0  0  0  0  0  0  0  0  0  0
    8.9739   -1.4346   20.7283 S   0  0  0  0  0  0  0  0  0  0  0  0
    7.3741   -0.6713   20.9757 C   0  0  0  0  0  0  0  0  0  0  0  0
    6.6330    0.0080   19.9045 C   0  0  0  0  0  0  0  0  0  0  0  0
    7.1616    0.0430   18.6040 C   0  0  0  0  0  0  0  0  0  0  0  0
    8.1066   -0.4523   18.3864 H   0  0  0  0  0  0  0  0  0  0  0  0
    6.5753    0.6660   17.5801 N   0  0  0  0  0  0  0  0  0  0  0  0
    5.4177    1.2974   17.8187 C   0  0  0  0  0  0  0  0  0  0  0  0
    4.9651    1.8141   16.9734 H   0  0  0  0  0  0  0  0  0  0  0  0
    4.7944    1.3144   19.0708 C   0  0  0  0  0  0  0  0  0  0  0  0
    3.8618    1.8509   19.1984 H   0  0  0  0  0  0  0  0  0  0  0  0
    5.4044    0.6570   20.1374 C   0  0  0  0  0  0  0  0  0  0  0  0
    4.9483    0.6557   21.1271 H   0  0  0  0  0  0  0  0  0  0  0  0
    6.9111   -0.7474   22.1831 N   0  0  0  0  0  0  0  0  0  0  0  0
    7.8002   -1.4265   22.9552 N   0  0  0  0  0  0  0  0  0  0  0  0
    6.8140    1.1575   25.6864 C   0  0  0  0  0  0  0  0  0  0  0  0
    5.9427    1.6643   24.5869 C   0  0  0  0  0  0  0  0  0  0  0  0
    5.0473    1.0429   24.4984 H   0  0  0  0  0  0  0  0  0  0  0  0
    6.4796    1.5780   23.6357 H   0  0  0  0  0  0  0  0  0  0  0  0
    5.6478    2.7051   24.7442 H   0  0  0  0  0  0  0  0  0  0  0  0
    7.4844    1.9845   26.4839 N   0  0  0  0  0  0  0  0  0  0  0  0
    8.2222    1.2089   27.2763 N   0  0  0  0  0  0  0  0  0  0  0  0
    8.8816    1.6201   27.9331 H   0  0  0  0  0  0  0  0  0  0  0  0
  1  2  1  0
  2  3  1  0
  3  4  2  0
  3  5  1  0
  5  6  2  0
  6  7  1  0
  7  8  1  0
  7  9  1  0
  7 10  1  0
 10 11  2  0
 11 12  1  0
 12 13  2  0
 13 14  1  0
 14 15  1  0
 15 16  1  0
 16 17  2  0
 17 18  1  0
 17 19  1  0
 19 20  2  0
 20 21  1  0
 20 22  1  0
 22 23  1  0
 22 24  2  0
 24 25  1  0
 15 26  2  0
 26 27  1  0
  6 28  1  0
 28 29  1  0
 29 30  1  0
 29 31  1  0
 29 32  1  0
 28 33  2  0
 33 34  1  0
 34 35  1  0
 34  5  1  0
 27 10  1  0
 27 13  1  0
 24 16  1  0
M  END
>  <plip>  (1) 
-0.034482758620689655

>  <filename>  (1) 
[H][O][C](=[O])[c]1[c]([C]([H])([H])[c]2[n][n][c]3[s][c](-[c]4[c]([H])[n][c]([H])[c]([H])[c]4[H])[n][n]23)[c]([C]([H])([H])[H])[n][n]1[H]

$$$$
