
     RDKit          3D

 49 51  0  0  0  0  0  0  0  0999 V2000
    9.6816    2.0253   22.2177 C   0  0  0  0  0  0  0  0  0  0  0  0
    8.9111    1.1746   21.3849 O   0  0  0  0  0  0  0  0  0  0  0  0
    8.0741    0.2804   22.0428 C   0  0  0  0  0  0  0  0  0  0  0  0
    7.0948    0.9821   22.7865 O   0  0  0  0  0  0  0  0  0  0  0  0
    6.9037    0.5359   24.1170 C   0  0  0  0  0  0  0  0  0  0  0  0
    6.6290   -0.5290   24.1662 H   0  0  0  0  0  0  0  0  0  0  0  0
    6.0832    1.1280   24.5283 H   0  0  0  0  0  0  0  0  0  0  0  0
    7.7992    0.7022   24.7359 H   0  0  0  0  0  0  0  0  0  0  0  0
    7.4836   -0.6634   20.9323 C   0  0  0  0  0  0  0  0  0  0  0  0
    6.6689   -1.7505   21.4585 N   0  0  0  0  0  0  0  0  0  0  0  0
    7.1513   -2.9499   21.9052 C   0  0  0  0  0  0  0  0  0  0  0  0
    8.3244   -3.2603   21.7951 O   0  0  0  0  0  0  0  0  0  0  0  0
    6.1074   -3.8074   22.5920 C   0  0  0  0  0  0  0  0  0  0  0  0
    4.7912   -3.9108   22.1042 C   0  0  0  0  0  0  0  0  0  0  0  0
    3.8386   -4.6815   22.7596 C   0  0  0  0  0  0  0  0  0  0  0  0
    4.1899   -5.3686   23.9291 C   0  0  0  0  0  0  0  0  0  0  0  0
    5.4711   -5.2093   24.4980 C   0  0  0  0  0  0  0  0  0  0  0  0
    6.4289   -4.4786   23.7821 C   0  0  0  0  0  0  0  0  0  0  0  0
    7.4447   -4.4230   24.1746 H   0  0  0  0  0  0  0  0  0  0  0  0
    5.8219   -5.7477   25.8677 C   0  0  0  0  0  0  0  0  0  0  0  0
    5.1713   -7.0967   26.1613 C   0  0  0  0  0  0  0  0  0  0  0  0
    3.6483   -6.9759   26.1548 C   0  0  0  0  0  0  0  0  0  0  0  0
    3.0122   -6.5563   24.5533 S   0  0  0  0  0  0  0  0  0  0  0  0
    1.7384   -5.8771   24.7741 O   0  0  0  0  0  0  0  0  0  0  0  0
    3.0823   -7.7721   23.7507 O   0  0  0  0  0  0  0  0  0  0  0  0
    3.2676   -6.1743   26.7934 H   0  0  0  0  0  0  0  0  0  0  0  0
    3.1222   -7.9058   26.3873 H   0  0  0  0  0  0  0  0  0  0  0  0
    5.5013   -7.4888   27.1312 H   0  0  0  0  0  0  0  0  0  0  0  0
    5.4902   -7.7924   25.3784 H   0  0  0  0  0  0  0  0  0  0  0  0
    5.5075   -5.0088   26.6174 H   0  0  0  0  0  0  0  0  0  0  0  0
    6.9100   -5.8348   25.9684 H   0  0  0  0  0  0  0  0  0  0  0  0
    2.8258   -4.7183   22.3624 H   0  0  0  0  0  0  0  0  0  0  0  0
    4.5172   -3.3879   21.1942 H   0  0  0  0  0  0  0  0  0  0  0  0
    5.6937   -1.5559   21.6210 H   0  0  0  0  0  0  0  0  0  0  0  0
    6.6924    0.0498   19.8533 C   0  0  0  0  0  0  0  0  0  0  0  0
    5.5045    0.7457   20.1141 C   0  0  0  0  0  0  0  0  0  0  0  0
    4.8437    1.3620   19.0495 C   0  0  0  0  0  0  0  0  0  0  0  0
    5.3971    1.2789   17.7671 C   0  0  0  0  0  0  0  0  0  0  0  0
    6.5331    0.6207   17.4979 N   0  0  0  0  0  0  0  0  0  0  0  0
    7.1529    0.0318   18.5296 C   0  0  0  0  0  0  0  0  0  0  0  0
    8.0790   -0.4895   18.2818 H   0  0  0  0  0  0  0  0  0  0  0  0
    4.9153    1.7722   16.9239 H   0  0  0  0  0  0  0  0  0  0  0  0
    3.9193    1.9061   19.2013 H   0  0  0  0  0  0  0  0  0  0  0  0
    5.1177    0.8243   21.1302 H   0  0  0  0  0  0  0  0  0  0  0  0
    8.3716   -1.1206   20.4866 H   0  0  0  0  0  0  0  0  0  0  0  0
    8.6654   -0.3715   22.7158 H   0  0  0  0  0  0  0  0  0  0  0  0
    9.0538    2.6129   22.8990 H   0  0  0  0  0  0  0  0  0  0  0  0
   10.4150    1.4572   22.8099 H   0  0  0  0  0  0  0  0  0  0  0  0
   10.2197    2.7034   21.5523 H   0  0  0  0  0  0  0  0  0  0  0  0
  1  2  1  0
  2  3  1  0
  3  4  1  0
  4  5  1  0
  5  6  1  0
  5  7  1  0
  5  8  1  0
  3  9  1  0
  9 10  1  0
 10 11  1  0
 11 12  2  0
 11 13  1  0
 13 14  2  0
 14 15  1  0
 15 16  2  0
 16 17  1  0
 17 18  2  0
 18 19  1  0
 17 20  1  0
 20 21  1  0
 21 22  1  0
 22 23  1  0
 23 24  2  0
 23 25  2  0
 22 26  1  0
 22 27  1  0
 21 28  1  0
 21 29  1  0
 20 30  1  0
 20 31  1  0
 15 32  1  0
 14 33  1  0
 10 34  1  0
  9 35  1  0
 35 36  2  0
 36 37  1  0
 37 38  2  0
 38 39  1  0
 39 40  2  0
 40 41  1  0
 38 42  1  0
 37 43  1  0
 36 44  1  0
  9 45  1  0
  3 46  1  0
  1 47  1  0
  1 48  1  0
  1 49  1  0
 18 13  1  0
 40 35  1  0
 23 16  1  0
M  END
>  <plip>  (1) 
-0.16666666666666666

>  <filename>  (1) 
[H][c]1[n][c]([H])[c]([C]([H])([N]([H])[C](=[O])[c]2[c]([H])[c]([H])[c]3[c]([c]2[H])[C]([H])([H])[C]([H])([H])[C]([H])([H])[S]3(=[O])=[O])[C]([H])([O][C]([H])([H])[H])[O][C]([H])([H])[H])[c]([H])[c]1[H]

$$$$
