
     RDKit          3D

 25 25  0  0  0  0  0  0  0  0999 V2000
    9.9053    0.0393   20.5118 H   0  0  0  0  0  0  0  0  0  0  0  0
    9.5309    0.5855   21.3710 C   0  0  0  0  0  0  0  0  0  0  0  0
   10.1920    1.3008   21.8506 H   0  0  0  0  0  0  0  0  0  0  0  0
    8.2885    0.3283   21.7825 C   0  0  0  0  0  0  0  0  0  0  0  0
    7.6370    0.9556   22.8052 O   0  0  0  0  0  0  0  0  0  0  0  0
    8.3153    1.9382   23.5812 C   0  0  0  0  0  0  0  0  0  0  0  0
    9.2112    1.5255   24.0624 H   0  0  0  0  0  0  0  0  0  0  0  0
    8.6341    2.7907   22.9670 H   0  0  0  0  0  0  0  0  0  0  0  0
    7.3565    2.4293   24.6525 C   0  0  0  0  0  0  0  0  0  0  0  0
    7.0506    1.6168   25.3162 H   0  0  0  0  0  0  0  0  0  0  0  0
    6.4686    2.8900   24.2125 H   0  0  0  0  0  0  0  0  0  0  0  0
    8.0054    3.3887   25.4174 F   0  0  0  0  0  0  0  0  0  0  0  0
    7.3914   -0.6667   21.0472 C   0  0  0  0  0  0  0  0  0  0  0  0
    8.0219   -1.4636   20.6370 H   0  0  0  0  0  0  0  0  0  0  0  0
    6.6905   -1.1396   21.7468 H   0  0  0  0  0  0  0  0  0  0  0  0
    6.6411   -0.0055   19.8998 C   0  0  0  0  0  0  0  0  0  0  0  0
    7.1582    0.0614   18.5954 C   0  0  0  0  0  0  0  0  0  0  0  0
    8.1076   -0.4200   18.3588 H   0  0  0  0  0  0  0  0  0  0  0  0
    6.5614    0.6844   17.5711 N   0  0  0  0  0  0  0  0  0  0  0  0
    5.3964    1.2983   17.8311 C   0  0  0  0  0  0  0  0  0  0  0  0
    4.9157    1.7892   16.9872 H   0  0  0  0  0  0  0  0  0  0  0  0
    4.7996    1.3151   19.0948 C   0  0  0  0  0  0  0  0  0  0  0  0
    3.8685    1.8485   19.2497 H   0  0  0  0  0  0  0  0  0  0  0  0
    5.4302    0.6488   20.1483 C   0  0  0  0  0  0  0  0  0  0  0  0
    5.0209    0.6381   21.1609 H   0  0  0  0  0  0  0  0  0  0  0  0
  1  2  1  0
  2  3  1  0
  2  4  2  3
  4  5  1  0
  5  6  1  0
  6  7  1  0
  6  8  1  0
  6  9  1  0
  9 10  1  0
  9 11  1  0
  9 12  1  0
  4 13  1  0
 13 14  1  0
 13 15  1  0
 13 16  1  0
 16 17  2  0
 17 18  1  0
 17 19  1  0
 19 20  2  0
 20 21  1  0
 20 22  1  0
 22 23  1  0
 22 24  2  0
 24 25  1  0
 24 16  1  0
M  END
>  <plip>  (1) 
-0.03571428571428571

>  <filename>  (1) 
[H][C]([H])=[C]([O][C]([H])([H])[C]([H])([H])[F])[C]([H])([H])[c]1[c]([H])[n][c]([H])[c]([H])[c]1[H]

$$$$
