
     RDKit          3D

 31 33  0  0  0  0  0  0  0  0999 V2000
    4.9111    1.7860   16.9941 H   0  0  0  0  0  0  0  0  0  0  0  0
    5.3951    1.2982   17.8363 C   0  0  0  0  0  0  0  0  0  0  0  0
    6.5590    0.6825   17.5697 N   0  0  0  0  0  0  0  0  0  0  0  0
    7.1711    0.0608   18.5870 C   0  0  0  0  0  0  0  0  0  0  0  0
    8.1196   -0.4297   18.3723 H   0  0  0  0  0  0  0  0  0  0  0  0
    6.6616   -0.0106   19.9086 C   0  0  0  0  0  0  0  0  0  0  0  0
    7.3281   -0.6931   20.9348 N   0  0  0  0  0  0  0  0  0  0  0  0
    6.7817   -1.1867   21.6296 H   0  0  0  0  0  0  0  0  0  0  0  0
    8.7023   -0.6722   21.1546 C   0  0  0  0  0  0  0  0  0  0  0  0
    9.6809    0.2204   20.6631 C   0  0  0  0  0  0  0  0  0  0  0  0
    9.5071    1.0172   19.9633 H   0  0  0  0  0  0  0  0  0  0  0  0
   10.8907   -0.0287   21.1468 N   0  0  0  0  0  0  0  0  0  0  0  0
   10.6988   -1.0899   21.9454 N   0  0  0  0  0  0  0  0  0  0  0  0
   11.4810   -1.4680   22.4559 H   0  0  0  0  0  0  0  0  0  0  0  0
    9.4085   -1.5285   21.9762 C   0  0  0  0  0  0  0  0  0  0  0  0
    8.8102   -2.7827   23.0654 S   0  0  0  0  0  0  0  0  0  0  0  0
    8.5744   -1.7233   24.4952 C   0  0  0  0  0  0  0  0  0  0  0  0
    9.6658   -1.4971   25.3341 C   0  0  0  0  0  0  0  0  0  0  0  0
   10.5845   -1.9834   25.0260 H   0  0  0  0  0  0  0  0  0  0  0  0
    9.5466   -0.6581   26.4492 C   0  0  0  0  0  0  0  0  0  0  0  0
   10.3844   -0.5004   27.1267 H   0  0  0  0  0  0  0  0  0  0  0  0
    8.3269   -0.0119   26.6885 C   0  0  0  0  0  0  0  0  0  0  0  0
    8.2202    0.6484   27.5467 H   0  0  0  0  0  0  0  0  0  0  0  0
    7.2454   -0.2063   25.8191 C   0  0  0  0  0  0  0  0  0  0  0  0
    6.2985    0.2941   25.9936 H   0  0  0  0  0  0  0  0  0  0  0  0
    7.3675   -1.0603   24.7187 C   0  0  0  0  0  0  0  0  0  0  0  0
    6.5391   -1.2128   24.0324 H   0  0  0  0  0  0  0  0  0  0  0  0
    5.4416    0.6333   20.1611 C   0  0  0  0  0  0  0  0  0  0  0  0
    5.0228    0.6206   21.1684 H   0  0  0  0  0  0  0  0  0  0  0  0
    4.8105    1.3071   19.1078 C   0  0  0  0  0  0  0  0  0  0  0  0
    3.8796    1.8395   19.2641 H   0  0  0  0  0  0  0  0  0  0  0  0
  1  2  1  0
  2  3  2  0
  3  4  1  0
  4  5  1  0
  4  6  2  0
  6  7  1  0
  7  8  1  0
  7  9  1  0
  9 10  1  0
 10 11  1  0
 10 12  2  0
 12 13  1  0
 13 14  1  0
 13 15  1  0
 15 16  1  0
 16 17  1  0
 17 18  2  0
 18 19  1  0
 18 20  1  0
 20 21  1  0
 20 22  2  0
 22 23  1  0
 22 24  1  0
 24 25  1  0
 24 26  2  0
 26 27  1  0
  6 28  1  0
 28 29  1  0
 28 30  2  0
 30 31  1  0
 30  2  1  0
 15  9  2  0
 26 17  1  0
M  END
>  <plip>  (1) 
-0.1

>  <filename>  (1) 
[H][c]1[n][c]([H])[c]([N]([H])[c]2[c]([H])[n][n]([H])[c]2[S][c]2[c]([H])[c]([H])[c]([H])[c]([H])[c]2[H])[c]([H])[c]1[H]

$$$$
