
     RDKit          3D

 28 29  0  0  0  0  0  0  0  0999 V2000
    4.9432    1.8097   16.9866 H   0  0  0  0  0  0  0  0  0  0  0  0
    5.4205    1.3347   17.8438 C   0  0  0  0  0  0  0  0  0  0  0  0
    6.6024    0.7470   17.6164 N   0  0  0  0  0  0  0  0  0  0  0  0
    7.1945    0.1305   18.6477 C   0  0  0  0  0  0  0  0  0  0  0  0
    8.1330   -0.3760   18.4008 H   0  0  0  0  0  0  0  0  0  0  0  0
    6.6946    0.1065   19.9630 C   0  0  0  0  0  0  0  0  0  0  0  0
    7.4160   -0.6741   21.0536 C   0  0  2  0  0  0  0  0  0  0  0  0
    8.3590   -1.0461   20.6305 H   0  0  0  0  0  0  0  0  0  0  0  0
    6.6388   -1.9092   21.5076 C   0  0  0  0  0  0  0  0  0  0  0  0
    5.6966   -1.6593   21.9816 H   0  0  0  0  0  0  0  0  0  0  0  0
    6.4032   -2.5391   20.6664 H   0  0  0  0  0  0  0  0  0  0  0  0
    7.2205   -2.4754   22.2299 H   0  0  0  0  0  0  0  0  0  0  0  0
    7.8293    0.2089   22.2394 C   0  0  0  0  0  0  0  0  0  0  0  0
    8.4330   -0.3699   22.9812 H   0  0  0  0  0  0  0  0  0  0  0  0
    6.9579    0.6064   22.8005 H   0  0  0  0  0  0  0  0  0  0  0  0
    8.8101    1.2561   21.6728 C   0  0  0  0  0  0  0  0  0  0  0  0
   10.1575    0.9793   21.6362 C   0  0  0  0  0  0  0  0  0  0  0  0
   10.7799    0.1257   21.6666 H   0  0  0  0  0  0  0  0  0  0  0  0
   11.0003    2.0707   20.7893 N   0  0  0  0  0  0  0  0  0  0  0  0
   11.0001    2.0705   20.7886 N   0  0  0  0  0  0  0  0  0  0  0  0
    8.3101    2.3759   20.9481 C   0  0  0  0  0  0  0  0  0  0  0  0
    8.7010    3.5942   21.7830 H   0  0  0  0  0  0  0  0  0  0  0  0
    8.3176    2.7455   21.1734 C   0  0  0  0  0  0  0  0  0  0  0  0
    7.1581    2.6530   21.0364 H   0  0  0  0  0  0  0  0  0  0  0  0
    5.4393    0.7016   20.1663 C   0  0  0  0  0  0  0  0  0  0  0  0
    4.9818    0.7053   21.1564 H   0  0  0  0  0  0  0  0  0  0  0  0
    4.7913    1.3212   19.0916 C   0  0  0  0  0  0  0  0  0  0  0  0
    3.8185    1.7846   19.1979 H   0  0  0  0  0  0  0  0  0  0  0  0
  1  2  1  0
  2  3  2  0
  3  4  1  0
  4  5  1  0
  4  6  2  0
  6  7  1  0
  7  8  1  6
  7  9  1  0
  9 10  1  0
  9 11  1  0
  9 12  1  0
  7 13  1  0
 13 14  1  0
 13 15  1  0
 13 16  1  0
 16 17  2  0
 17 18  1  0
 17 19  1  0
 19 20  2  0
 20 21  1  0
 21 22  1  0
 21 23  2  0
 23 24  1  0
  6 25  1  0
 25 26  1  0
 25 27  2  0
 27 28  1  0
 27  2  1  0
 23 16  1  0
M  END
>  <plip>  (1) 
-0.10344827586206896

>  <filename>  (1) 
[H][c]1[n][c]([H])[c]([C@]([H])([C]([H])([H])[H])[C]([H])([H])[c]2[c]([H])[n][n][c]([H])[c]2[H])[c]([H])[c]1[H]

$$$$
