
     RDKit          3D

 23 24  0  0  0  0  0  0  0  0999 V2000
    4.9178    1.7868   16.9863 H   0  0  0  0  0  0  0  0  0  0  0  0
    5.3968    1.2972   17.8304 C   0  0  0  0  0  0  0  0  0  0  0  0
    6.5607    0.6790   17.5733 N   0  0  0  0  0  0  0  0  0  0  0  0
    7.1566    0.0672   18.6019 C   0  0  0  0  0  0  0  0  0  0  0  0
    8.0998   -0.4209   18.3711 H   0  0  0  0  0  0  0  0  0  0  0  0
    6.6402   -0.0057   19.9170 C   0  0  0  0  0  0  0  0  0  0  0  0
    7.3921   -0.7088   20.9565 C   0  0  0  0  0  0  0  0  0  0  0  0
    8.7450   -0.9363   21.0395 C   0  0  0  0  0  0  0  0  0  0  0  0
    9.4640   -0.5800   20.3147 H   0  0  0  0  0  0  0  0  0  0  0  0
    9.0160   -1.6427   22.2338 C   0  0  0  0  0  0  0  0  0  0  0  0
    9.9676   -1.9722   22.6066 H   0  0  0  0  0  0  0  0  0  0  0  0
    7.8090   -1.8275   22.8434 C   0  0  0  0  0  0  0  0  0  0  0  0
    7.4476   -2.4546   24.0099 O   0  0  0  0  0  0  0  0  0  0  0  0
    8.4554   -3.0130   24.7535 C   0  0  0  0  0  0  0  0  0  0  0  0
    7.8889   -3.5524   25.8208 F   0  0  0  0  0  0  0  0  0  0  0  0
    9.3673   -2.1144   25.1512 F   0  0  0  0  0  0  0  0  0  0  0  0
    9.1234   -3.9652   24.0856 F   0  0  0  0  0  0  0  0  0  0  0  0
    6.8272   -1.2626   22.0932 N   0  0  0  0  0  0  0  0  0  0  0  0
    5.8474   -1.2807   22.3013 H   0  0  0  0  0  0  0  0  0  0  0  0
    5.4194    0.6527   20.1559 C   0  0  0  0  0  0  0  0  0  0  0  0
    4.9901    0.6561   21.1600 H   0  0  0  0  0  0  0  0  0  0  0  0
    4.7979    1.3160   19.0972 C   0  0  0  0  0  0  0  0  0  0  0  0
    3.8655    1.8502   19.2518 H   0  0  0  0  0  0  0  0  0  0  0  0
  1  2  1  0
  2  3  2  0
  3  4  1  0
  4  5  1  0
  4  6  2  0
  6  7  1  0
  7  8  2  0
  8  9  1  0
  8 10  1  0
 10 11  1  0
 10 12  2  0
 12 13  1  0
 13 14  1  0
 14 15  1  0
 14 16  1  0
 14 17  1  0
 12 18  1  0
 18 19  1  0
  6 20  1  0
 20 21  1  0
 20 22  2  0
 22 23  1  0
 22  2  1  0
 18  7  1  0
M  END
>  <plip>  (1) 
-0.07142857142857142

>  <filename>  (1) 
[H][c]1[n][c]([H])[c](-[c]2[c]([H])[c]([H])[c]([O][C]([F])([F])[F])[n]2[H])[c]([H])[c]1[H]

$$$$
