
     RDKit          3D

 40 43  0  0  0  0  0  0  0  0999 V2000
   10.2585   -5.6090   26.9743 H   0  0  0  0  0  0  0  0  0  0  0  0
    9.6245   -4.7313   26.9861 C   0  0  0  0  0  0  0  0  0  0  0  0
    9.8419   -3.6388   26.3161 N   0  0  0  0  0  0  0  0  0  0  0  0
    8.7727   -2.6504   26.5163 C   0  0  0  0  0  0  0  0  0  0  0  0
    8.7659   -1.2800   25.8607 C   0  0  0  0  0  0  0  0  0  0  0  0
    8.0184   -0.3830   26.2354 O   0  0  0  0  0  0  0  0  0  0  0  0
    9.5706   -1.0943   24.7760 N   0  0  0  0  0  0  0  0  0  0  0  0
   10.1420   -1.8383   24.4150 H   0  0  0  0  0  0  0  0  0  0  0  0
    9.3112   -0.0527   23.8248 C   0  0  1  0  0  0  0  0  0  0  0  0
    9.5357    0.9396   24.2572 H   0  0  0  0  0  0  0  0  0  0  0  0
   10.1686   -0.3401   22.7403 O   0  0  0  0  0  0  0  0  0  0  0  0
    9.6836    0.3981   21.6249 C   0  0  0  0  0  0  0  0  0  0  0  0
   10.0850    1.4258   21.6245 H   0  0  0  0  0  0  0  0  0  0  0  0
   10.0397   -0.0951   20.7147 H   0  0  0  0  0  0  0  0  0  0  0  0
    8.1517    0.3985   21.7572 C   0  0  2  0  0  0  0  0  0  0  0  0
    7.7631    1.3994   21.5484 H   0  0  0  0  0  0  0  0  0  0  0  0
    7.9027   -0.0295   23.2142 C   0  0  1  0  0  0  0  0  0  0  0  0
    7.2748    0.6555   23.7819 H   0  0  0  0  0  0  0  0  0  0  0  0
    7.2049   -1.3891   23.0764 C   0  0  0  0  0  0  0  0  0  0  0  0
    7.9259   -2.2225   23.1269 H   0  0  0  0  0  0  0  0  0  0  0  0
    6.4379   -1.5577   23.8388 H   0  0  0  0  0  0  0  0  0  0  0  0
    6.5662   -1.3490   21.8130 O   0  0  0  0  0  0  0  0  0  0  0  0
    7.4055   -0.6608   20.9063 C   0  0  1  0  0  0  0  0  0  0  0  0
    8.1204   -1.3847   20.4759 H   0  0  0  0  0  0  0  0  0  0  0  0
    6.5936   -0.0401   19.7902 C   0  0  0  0  0  0  0  0  0  0  0  0
    7.1144    0.0204   18.4925 C   0  0  0  0  0  0  0  0  0  0  0  0
    8.0498   -0.4879   18.2554 H   0  0  0  0  0  0  0  0  0  0  0  0
    6.5437    0.6803   17.4757 N   0  0  0  0  0  0  0  0  0  0  0  0
    5.3963    1.3241   17.7352 C   0  0  0  0  0  0  0  0  0  0  0  0
    4.9539    1.8688   16.9027 H   0  0  0  0  0  0  0  0  0  0  0  0
    4.7732    1.3142   18.9893 C   0  0  0  0  0  0  0  0  0  0  0  0
    3.8522    1.8679   19.1369 H   0  0  0  0  0  0  0  0  0  0  0  0
    5.3793    0.6200   20.0352 C   0  0  0  0  0  0  0  0  0  0  0  0
    4.9425    0.5941   21.0351 H   0  0  0  0  0  0  0  0  0  0  0  0
    7.7900   -3.2073   27.3385 C   0  0  0  0  0  0  0  0  0  0  0  0
    6.8456   -2.7716   27.6437 H   0  0  0  0  0  0  0  0  0  0  0  0
    7.7573   -5.5658   28.5575 C   0  0  0  0  0  0  0  0  0  0  0  0
    6.8269   -5.3860   29.1158 H   0  0  0  0  0  0  0  0  0  0  0  0
    8.2935   -4.6497   27.7523 C   0  0  0  0  0  0  0  0  0  0  0  0
    8.2861   -6.5150   28.7165 H   0  0  0  0  0  0  0  0  0  0  0  0
  1  2  1  0
  2  3  2  0
  3  4  1  0
  4  5  1  0
  5  6  2  0
  5  7  1  0
  7  8  1  0
  7  9  1  0
  9 10  1  1
  9 11  1  0
 11 12  1  0
 12 13  1  0
 12 14  1  0
 12 15  1  0
 15 16  1  1
 15 17  1  0
 17 18  1  1
 17 19  1  0
 19 20  1  0
 19 21  1  0
 19 22  1  0
 22 23  1  0
 23 24  1  6
 23 25  1  0
 25 26  2  0
 26 27  1  0
 26 28  1  0
 28 29  2  0
 29 30  1  0
 29 31  1  0
 31 32  1  0
 31 33  2  0
 33 34  1  0
  4 35  2  0
 35 36  1  0
 35 37  1  0
 37 38  1  0
 37 39  2  0
 39 40  1  0
 39  2  1  0
 17  9  1  0
 33 25  1  0
 23 15  1  0
M  END
>  <plip>  (1) 
-0.03571428571428571

>  <filename>  (1) 
[H][c]1[n][c]([C](=[O])[N]([H])[C@@]2([H])[O][C]([H])([H])[C@]3([H])[C@@]2([H])[C]([H])([H])[O][C@@]3([H])[c]2[c]([H])[n][c]([H])[c]([H])[c]2[H])[c]([H])[c]([H])[c]1[H]

$$$$
