
     RDKit          3D

 40 42  0  0  0  0  0  0  0  0999 V2000
    7.0420    4.1805   26.2754 N   0  0  0  0  0  0  0  0  0  0  0  0
    7.7523    4.3332   25.1785 C   0  0  0  0  0  0  0  0  0  0  0  0
    8.0087    5.5965   24.8561 N   0  0  0  0  0  0  0  0  0  0  0  0
    8.7430    5.7137   23.7594 C   0  0  0  0  0  0  0  0  0  0  0  0
    9.2124    4.6326   23.0342 C   0  0  0  0  0  0  0  0  0  0  0  0
    8.8497    3.3638   23.4725 C   0  0  0  0  0  0  0  0  0  0  0  0
    9.3265    2.1353   22.7216 C   0  0  0  0  0  0  0  0  0  0  0  0
   10.2730    1.2526   23.5690 C   0  0  0  0  0  0  0  0  0  0  0  0
   10.6643   -0.0262   22.8214 C   0  0  0  0  0  0  0  0  0  0  0  0
    9.4426   -0.7971   22.3483 C   0  0  0  0  0  0  0  0  0  0  0  0
    8.5620    0.0556   21.4678 N   0  0  0  0  0  4  0  0  0  0  0  0
    7.3867   -0.7301   20.9740 C   0  0  0  0  0  0  0  0  0  0  0  0
    6.6516    0.0097   19.8993 C   0  0  0  0  0  0  0  0  0  0  0  0
    5.4366    0.6550   20.1493 C   0  0  0  0  0  0  0  0  0  0  0  0
    4.8003    1.3147   19.0970 C   0  0  0  0  0  0  0  0  0  0  0  0
    5.4036    1.2983   17.8348 C   0  0  0  0  0  0  0  0  0  0  0  0
    6.5733    0.6899   17.5834 N   0  0  0  0  0  0  0  0  0  0  0  0
    7.1807    0.0772   18.6047 C   0  0  0  0  0  0  0  0  0  0  0  0
    8.1321   -0.4079   18.3807 H   0  0  0  0  0  0  0  0  0  0  0  0
    4.9270    1.7905   16.9871 H   0  0  0  0  0  0  0  0  0  0  0  0
    3.8682    1.8489   19.2420 H   0  0  0  0  0  0  0  0  0  0  0  0
    5.0136    0.6438   21.1565 H   0  0  0  0  0  0  0  0  0  0  0  0
    6.7188   -0.9276   21.8228 H   0  0  0  0  0  0  0  0  0  0  0  0
    7.7374   -1.7015   20.6075 H   0  0  0  0  0  0  0  0  0  0  0  0
    8.1188    1.3401   22.2118 C   0  0  0  0  0  0  0  0  0  0  0  0
    7.5179    1.9364   21.5167 H   0  0  0  0  0  0  0  0  0  0  0  0
    7.4803    1.0577   23.0592 H   0  0  0  0  0  0  0  0  0  0  0  0
    9.0945    0.3615   20.6192 H   0  0  0  0  0  0  0  0  0  0  0  0
    9.7348   -1.7032   21.8038 H   0  0  0  0  0  0  0  0  0  0  0  0
    8.8439   -1.1168   23.2140 H   0  0  0  0  0  0  0  0  0  0  0  0
   11.2823    0.2101   21.9456 H   0  0  0  0  0  0  0  0  0  0  0  0
   11.2553   -0.6789   23.4707 H   0  0  0  0  0  0  0  0  0  0  0  0
    9.7538    1.0046   24.5070 H   0  0  0  0  0  0  0  0  0  0  0  0
   11.1728    1.8181   23.8448 H   0  0  0  0  0  0  0  0  0  0  0  0
    9.8801    2.4660   21.8320 H   0  0  0  0  0  0  0  0  0  0  0  0
    8.1010    3.2063   24.5687 N   0  0  0  0  0  0  0  0  0  0  0  0
    9.8652    4.7830   22.1993 H   0  0  0  0  0  0  0  0  0  0  0  0
    8.9903    6.7275   23.4311 H   0  0  0  0  0  0  0  0  0  0  0  0
    6.7740    5.0446   26.6920 H   0  0  0  0  0  0  0  0  0  0  0  0
    6.8594    3.2246   26.4832 H   0  0  0  0  0  0  0  0  0  0  0  0
  1  2  1  0
  2  3  2  0
  3  4  1  0
  4  5  2  0
  5  6  1  0
  6  7  1  0
  7  8  1  0
  8  9  1  0
  9 10  1  0
 10 11  1  0
 11 12  1  0
 12 13  1  0
 13 14  2  0
 14 15  1  0
 15 16  2  0
 16 17  1  0
 17 18  2  0
 18 19  1  0
 16 20  1  0
 15 21  1  0
 14 22  1  0
 12 23  1  0
 12 24  1  0
 11 25  1  0
 25 26  1  0
 25 27  1  0
 11 28  1  0
 10 29  1  0
 10 30  1  0
  9 31  1  0
  9 32  1  0
  8 33  1  0
  8 34  1  0
  7 35  1  0
  6 36  2  0
  5 37  1  0
  4 38  1  0
  1 39  1  0
  1 40  1  0
 36  2  1  0
 25  7  1  0
 18 13  1  0
M  CHG  1  11   1
M  END
>  <plip>  (1) 
-0.07142857142857142

>  <filename>  (1) 
[H][c]1[n][c]([N]([H])[H])[n][c]([C]2([H])[C]([H])([H])[C]([H])([H])[C]([H])([H])[N+]([H])([C]([H])([H])[c]3[c]([H])[n][c]([H])[c]([H])[c]3[H])[C]2([H])[H])[c]1[H]

$$$$
