
     RDKit          3D

 31 32  0  0  0  0  0  0  0  0999 V2000
    3.5726   -7.3184   22.0442 H   0  0  0  0  0  0  0  0  0  0  0  0
    4.3356   -6.9863   22.5510 O   0  0  0  0  0  0  0  0  0  0  0  0
    4.9329   -6.0158   21.7503 N   0  0  0  0  0  0  0  0  0  0  0  0
    5.8428   -6.3329   21.4348 H   0  0  0  0  0  0  0  0  0  0  0  0
    4.9780   -4.6993   22.2221 C   0  0  0  0  0  0  0  0  0  0  0  0
    4.2530   -4.2364   23.0739 O   0  0  0  0  0  0  0  0  0  0  0  0
    5.9741   -3.9112   21.4402 C   0  0  0  0  0  0  0  0  0  0  0  0
    6.6079   -4.4515   20.7453 H   0  0  0  0  0  0  0  0  0  0  0  0
    6.1076   -2.5899   21.5795 C   0  0  0  0  0  0  0  0  0  0  0  0
    5.4740   -2.0869   22.2920 H   0  0  0  0  0  0  0  0  0  0  0  0
    7.1829   -1.8081   20.8868 C   0  0  2  0  0  0  0  0  0  0  0  0
    7.1130   -2.0520   19.8190 H   0  0  0  0  0  0  0  0  0  0  0  0
    8.5867   -2.2792   21.2319 C   0  0  0  0  0  0  0  0  0  0  0  0
    8.9746   -3.4257   21.2770 O   0  0  0  0  0  0  0  0  0  0  0  0
    9.3592   -1.1853   21.4013 N   0  0  0  0  0  0  0  0  0  0  0  0
   10.3379   -1.3482   21.5683 H   0  0  0  0  0  0  0  0  0  0  0  0
    8.6996    0.1002   21.2775 C   0  0  0  0  0  0  0  0  0  0  0  0
    9.0914    0.6676   20.4178 H   0  0  0  0  0  0  0  0  0  0  0  0
    8.8736    0.7168   22.1708 H   0  0  0  0  0  0  0  0  0  0  0  0
    7.1918   -0.2742   21.1166 C   0  0  1  0  0  0  0  0  0  0  0  0
    6.6962   -0.0486   22.0745 H   0  0  0  0  0  0  0  0  0  0  0  0
    6.4711    0.4134   19.9722 C   0  0  0  0  0  0  0  0  0  0  0  0
    7.0348    0.3444   18.6836 C   0  0  0  0  0  0  0  0  0  0  0  0
    7.9845   -0.1697   18.5396 H   0  0  0  0  0  0  0  0  0  0  0  0
    6.4873    0.8457   17.5731 N   0  0  0  0  0  0  0  0  0  0  0  0
    5.2939    1.4470   17.7034 C   0  0  0  0  0  0  0  0  0  0  0  0
    4.8728    1.8602   16.7878 H   0  0  0  0  0  0  0  0  0  0  0  0
    4.6061    1.5367   18.9193 C   0  0  0  0  0  0  0  0  0  0  0  0
    3.6306    2.0210   18.9430 H   0  0  0  0  0  0  0  0  0  0  0  0
    5.2081    1.0191   20.0758 C   0  0  0  0  0  0  0  0  0  0  0  0
    4.6910    1.0830   21.0373 H   0  0  0  0  0  0  0  0  0  0  0  0
  1  2  1  0
  2  3  1  0
  3  4  1  0
  3  5  1  0
  5  6  2  0
  5  7  1  0
  7  8  1  0
  7  9  2  3
  9 10  1  0
  9 11  1  0
 11 12  1  6
 11 13  1  0
 13 14  2  0
 13 15  1  0
 15 16  1  0
 15 17  1  0
 17 18  1  0
 17 19  1  0
 17 20  1  0
 20 21  1  1
 20 22  1  0
 22 23  2  0
 23 24  1  0
 23 25  1  0
 25 26  2  0
 26 27  1  0
 26 28  1  0
 28 29  1  0
 28 30  2  0
 30 31  1  0
 20 11  1  0
 30 22  1  0
M  END
>  <plip>  (1) 
-0.06451612903225806

>  <filename>  (1) 
[H][O][N]([H])[C](=[O])[C]([H])=[C]([H])[C@]1([H])[C](=[O])[N]([H])[C]([H])([H])[C@@]1([H])[c]1[c]([H])[n][c]([H])[c]([H])[c]1[H]

$$$$
