
     RDKit          3D

 29 30  0  0  0  0  0  0  0  0999 V2000
   10.5871   -7.0356   25.2426 H   0  0  0  0  0  0  0  0  0  0  0  0
    9.8889   -6.8934   24.5758 O   0  0  0  0  0  0  0  0  0  0  0  0
    9.7077   -5.5797   24.7879 C   0  0  0  0  0  0  0  0  0  0  0  0
   10.3343   -5.0538   25.6784 O   0  0  0  0  0  0  0  0  0  0  0  0
    8.7561   -4.9244   23.8443 C   0  0  0  0  0  0  0  0  0  0  0  0
    8.1644   -5.6511   22.7905 C   0  0  0  0  0  0  0  0  0  0  0  0
    8.4074   -6.7024   22.6693 H   0  0  0  0  0  0  0  0  0  0  0  0
    7.2769   -5.0242   21.9216 C   0  0  0  0  0  0  0  0  0  0  0  0
    6.8197   -5.5938   21.1135 H   0  0  0  0  0  0  0  0  0  0  0  0
    6.9926   -3.6655   22.0736 C   0  0  0  0  0  0  0  0  0  0  0  0
    6.2909   -3.1821   21.4087 H   0  0  0  0  0  0  0  0  0  0  0  0
    7.6353   -2.9065   23.0734 C   0  0  0  0  0  0  0  0  0  0  0  0
    7.5579   -1.4993   23.1613 N   0  0  0  0  0  0  0  0  0  0  0  0
    7.2447   -1.1583   24.0633 H   0  0  0  0  0  0  0  0  0  0  0  0
    6.7985   -0.8668   22.1524 O   0  0  0  0  0  0  0  0  0  0  0  0
    7.4572   -0.7316   20.9345 C   0  0  0  0  0  0  0  0  0  0  0  0
    8.5272   -1.2162   20.6759 O   0  0  0  0  0  0  0  0  0  0  0  0
    6.6499    0.0240   19.9495 C   0  0  0  0  0  0  0  0  0  0  0  0
    7.1799    0.0556   18.6496 C   0  0  0  0  0  0  0  0  0  0  0  0
    8.1262   -0.4419   18.4431 H   0  0  0  0  0  0  0  0  0  0  0  0
    6.5787    0.6564   17.6222 N   0  0  0  0  0  0  0  0  0  0  0  0
    5.4147    1.2762   17.8739 C   0  0  0  0  0  0  0  0  0  0  0  0
    4.9527    1.7700   17.0233 H   0  0  0  0  0  0  0  0  0  0  0  0
    4.8041    1.3080   19.1329 C   0  0  0  0  0  0  0  0  0  0  0  0
    3.8660    1.8397   19.2558 H   0  0  0  0  0  0  0  0  0  0  0  0
    5.4283    0.6670   20.2034 C   0  0  0  0  0  0  0  0  0  0  0  0
    4.9772    0.6599   21.1945 H   0  0  0  0  0  0  0  0  0  0  0  0
    8.4854   -3.5499   23.9810 C   0  0  0  0  0  0  0  0  0  0  0  0
    8.9590   -2.9560   24.7645 H   0  0  0  0  0  0  0  0  0  0  0  0
  1  2  1  0
  2  3  1  0
  3  4  2  0
  3  5  1  0
  5  6  2  0
  6  7  1  0
  6  8  1  0
  8  9  1  0
  8 10  2  0
 10 11  1  0
 10 12  1  0
 12 13  1  0
 13 14  1  0
 13 15  1  0
 15 16  1  0
 16 17  2  0
 16 18  1  0
 18 19  2  0
 19 20  1  0
 19 21  1  0
 21 22  2  0
 22 23  1  0
 22 24  1  0
 24 25  1  0
 24 26  2  0
 26 27  1  0
 12 28  2  0
 28 29  1  0
 28  5  1  0
 26 18  1  0
M  END
>  <plip>  (1) 
-0.10714285714285714

>  <filename>  (1) 
[H][O][C](=[O])[c]1[c]([H])[c]([H])[c]([H])[c]([N]([H])[O][C](=[O])[c]2[c]([H])[n][c]([H])[c]([H])[c]2[H])[c]1[H]

$$$$
