
     RDKit          3D

 45 49  0  0  0  0  0  0  0  0999 V2000
    5.1515    2.1237   16.7215 H   0  0  0  0  0  0  0  0  0  0  0  0
    5.5778    1.4840   17.4908 C   0  0  0  0  0  0  0  0  0  0  0  0
    6.7228    0.8562   17.1753 N   0  0  0  0  0  0  0  0  0  0  0  0
    7.2776    0.0736   18.1089 C   0  0  0  0  0  0  0  0  0  0  0  0
    8.1991   -0.4363   17.8265 H   0  0  0  0  0  0  0  0  0  0  0  0
    6.7407   -0.1490   19.4080 C   0  0  0  0  0  0  0  0  0  0  0  0
    7.3893   -1.0109   20.3051 N   0  0  0  0  0  0  0  0  0  0  0  0
    6.7571   -1.4914   21.5540 C   0  0  0  0  0  0  0  0  0  0  0  0
    6.1442   -0.7171   22.0307 H   0  0  0  0  0  0  0  0  0  0  0  0
    6.1416   -2.3808   21.3858 H   0  0  0  0  0  0  0  0  0  0  0  0
    7.9877   -1.7759   22.4405 C   0  0  2  0  0  0  0  0  0  0  0  0
    7.8185   -2.5050   23.2312 H   0  0  0  0  0  0  0  0  0  0  0  0
    8.5343   -0.4842   22.9710 N   0  0  0  0  0  0  0  0  0  0  0  0
    7.7015    0.3276   23.8323 N   0  0  0  0  0  0  0  0  0  0  0  0
    6.8695   -0.4098   24.8255 C   0  0  0  0  0  0  0  0  0  0  0  0
    6.4092   -1.2844   24.3436 H   0  0  0  0  0  0  0  0  0  0  0  0
    6.0055    0.2334   25.0604 H   0  0  0  0  0  0  0  0  0  0  0  0
    7.5911   -0.7832   26.0716 C   0  0  0  0  0  0  0  0  0  0  0  0
    6.9514   -1.4220   27.1906 C   0  0  0  0  0  0  0  0  0  0  0  0
    6.4656   -1.4741   28.3053 H   0  0  0  0  0  0  0  0  0  0  0  0
    6.9034   -1.8304   27.1993 C   0  0  0  0  0  0  0  0  0  0  0  0
    7.1692   -2.9285   26.9969 H   0  0  0  0  0  0  0  0  0  0  0  0
    9.4454   -1.1116   27.7508 C   0  0  0  0  0  0  0  0  0  0  0  0
    9.9294   -2.1277   27.5778 H   0  0  0  0  0  0  0  0  0  0  0  0
    9.1848   -0.8195   27.7278 C   0  0  0  0  0  0  0  0  0  0  0  0
   10.1720   -0.2429   28.1364 H   0  0  0  0  0  0  0  0  0  0  0  0
    8.7811   -0.3325   26.4120 C   0  0  0  0  0  0  0  0  0  0  0  0
    9.4634    0.7326   25.6074 C   0  0  0  0  0  0  0  0  0  0  0  0
    9.8960    1.5689   26.1885 H   0  0  0  0  0  0  0  0  0  0  0  0
   10.3008    0.2501   25.0839 H   0  0  0  0  0  0  0  0  0  0  0  0
    8.5222    1.3458   24.5271 C   0  0  0  0  0  0  0  0  0  0  0  0
    9.0788    1.9382   23.7818 H   0  0  0  0  0  0  0  0  0  0  0  0
    7.8195    2.0499   24.9895 H   0  0  0  0  0  0  0  0  0  0  0  0
    8.9771    0.2385   21.7411 C   0  0  0  0  0  0  0  0  0  0  0  0
    8.3358    1.1036   21.5244 H   0  0  0  0  0  0  0  0  0  0  0  0
   10.0171    0.5758   21.8378 H   0  0  0  0  0  0  0  0  0  0  0  0
    8.8264   -0.8453   20.6418 C   0  0  1  0  0  0  0  0  0  0  0  0
    9.4556   -0.6892   19.7635 H   0  0  0  0  0  0  0  0  0  0  0  0
    9.0739   -2.1257   21.4370 C   0  0  0  0  0  0  0  0  0  0  0  0
   10.0655   -2.1900   21.8918 H   0  0  0  0  0  0  0  0  0  0  0  0
    8.8675   -3.0366   20.8737 H   0  0  0  0  0  0  0  0  0  0  0  0
    5.5239    0.5059   19.7000 C   0  0  0  0  0  0  0  0  0  0  0  0
    5.0485    0.3685   20.6683 H   0  0  0  0  0  0  0  0  0  0  0  0
    4.9504    1.3351   18.7306 C   0  0  0  0  0  0  0  0  0  0  0  0
    4.0289    1.8708   18.9332 H   0  0  0  0  0  0  0  0  0  0  0  0
  1  2  1  0
  2  3  2  0
  3  4  1  0
  4  5  1  0
  4  6  2  0
  6  7  1  0
  7  8  1  0
  8  9  1  0
  8 10  1  0
  8 11  1  0
 11 12  1  1
 11 13  1  0
 13 14  1  0
 14 15  1  0
 15 16  1  0
 15 17  1  0
 15 18  1  0
 18 19  2  0
 19 20  1  0
 19 21  1  0
 21 22  1  0
 21 23  2  0
 23 24  1  0
 23 25  1  0
 25 26  1  0
 25 27  2  0
 27 28  1  0
 28 29  1  0
 28 30  1  0
 28 31  1  0
 31 32  1  0
 31 33  1  0
 13 34  1  0
 34 35  1  0
 34 36  1  0
 34 37  1  0
 37 38  1  6
 37 39  1  0
 39 40  1  0
 39 41  1  0
  6 42  1  0
 42 43  1  0
 42 44  2  0
 44 45  1  0
 44  2  1  0
 37  7  1  0
 39 11  1  0
 31 14  1  0
 27 18  1  0
M  END
>  <plip>  (1) 
-0.07142857142857142

>  <filename>  (1) 
[H][c]1[n][c]([H])[c]([N]2[C]([H])([H])[C@]3([H])[N]([N]4[C]([H])([H])[c]5[c]([H])[c]([H])[c]([H])[c]([H])[c]5[C]([H])([H])[C]4([H])[H])[C]([H])([H])[C@@]2([H])[C]3([H])[H])[c]([H])[c]1[H]

$$$$
