
     RDKit          3D

 32 34  0  0  0  0  0  0  0  0999 V2000
    4.9113    1.8342   16.9536 H   0  0  0  0  0  0  0  0  0  0  0  0
    5.3782    1.3293   17.7951 C   0  0  0  0  0  0  0  0  0  0  0  0
    6.5434    0.7142   17.5373 N   0  0  0  0  0  0  0  0  0  0  0  0
    7.1506    0.0992   18.5629 C   0  0  0  0  0  0  0  0  0  0  0  0
    8.0986   -0.3829   18.3228 H   0  0  0  0  0  0  0  0  0  0  0  0
    6.6439    0.0457   19.8849 C   0  0  0  0  0  0  0  0  0  0  0  0
    7.3293   -0.7326   20.9600 C   0  0  0  0  0  0  0  0  0  0  0  0
    7.6821   -2.0632   21.0594 C   0  0  0  0  0  0  0  0  0  0  0  0
    7.4711   -2.8841   20.4005 H   0  0  0  0  0  0  0  0  0  0  0  0
    8.3267   -2.2807   22.2277 N   0  0  0  0  0  0  0  0  0  0  0  0
    8.3776   -1.1647   22.8806 N   0  0  0  0  0  0  0  0  0  0  0  0
    7.7599   -0.2190   22.1534 N   0  0  0  0  0  0  0  0  0  0  0  0
    7.5015    1.1048   22.7564 C   0  0  0  0  0  0  0  0  0  0  0  0
    7.1265    1.7082   21.9272 H   0  0  0  0  0  0  0  0  0  0  0  0
    8.8060    1.7445   23.2733 C   0  0  0  0  0  0  0  0  0  0  0  0
    9.5990    1.5702   22.5429 H   0  0  0  0  0  0  0  0  0  0  0  0
    8.6523    2.8306   23.3393 H   0  0  0  0  0  0  0  0  0  0  0  0
    9.2271    1.2273   24.6588 C   0  0  0  0  0  0  0  0  0  0  0  0
    9.5462    0.1846   24.5837 H   0  0  0  0  0  0  0  0  0  0  0  0
   10.0863    1.7897   25.0408 H   0  0  0  0  0  0  0  0  0  0  0  0
    8.1473    1.2986   25.6448 N   0  0  0  0  0  0  0  0  0  0  0  0
    7.8852    2.2763   25.7443 H   0  0  0  0  0  0  0  0  0  0  0  0
    6.9571    0.5613   25.2157 C   0  0  0  0  0  0  0  0  0  0  0  0
    6.1986    0.6448   26.0030 H   0  0  0  0  0  0  0  0  0  0  0  0
    7.2127   -0.5015   25.1537 H   0  0  0  0  0  0  0  0  0  0  0  0
    6.4191    1.0629   23.8668 C   0  0  0  0  0  0  0  0  0  0  0  0
    6.0510    2.0883   24.0142 H   0  0  0  0  0  0  0  0  0  0  0  0
    5.5613    0.4613   23.5532 H   0  0  0  0  0  0  0  0  0  0  0  0
    5.4178    0.6935   20.1107 C   0  0  0  0  0  0  0  0  0  0  0  0
    4.9613    0.6715   21.1014 H   0  0  0  0  0  0  0  0  0  0  0  0
    4.7726    1.3413   19.0525 C   0  0  0  0  0  0  0  0  0  0  0  0
    3.8305    1.8582   19.1953 H   0  0  0  0  0  0  0  0  0  0  0  0
  1  2  1  0
  2  3  2  0
  3  4  1  0
  4  5  1  0
  4  6  2  0
  6  7  1  0
  7  8  2  0
  8  9  1  0
  8 10  1  0
 10 11  2  0
 11 12  1  0
 12 13  1  0
 13 14  1  0
 13 15  1  0
 15 16  1  0
 15 17  1  0
 15 18  1  0
 18 19  1  0
 18 20  1  0
 18 21  1  0
 21 22  1  0
 21 23  1  0
 23 24  1  0
 23 25  1  0
 23 26  1  0
 26 27  1  0
 26 28  1  0
  6 29  1  0
 29 30  1  0
 29 31  2  0
 31 32  1  0
 31  2  1  0
 12  7  1  0
 26 13  1  0
M  END
>  <plip>  (1) 
-0.034482758620689655

>  <filename>  (1) 
[H][c]1[n][c]([H])[c](-[c]2[c]([H])[n][n][n]2[C]2([H])[C]([H])([H])[C]([H])([H])[N]([H])[C]([H])([H])[C]2([H])[H])[c]([H])[c]1[H]

$$$$
