
     RDKit          3D

 39 41  0  0  0  0  0  0  0  0999 V2000
    8.7418   -0.0000   21.3114 C   0  0  0  0  0  0  0  0  0  0  0  0
    7.4052   -0.6718   21.0279 C   0  0  0  0  0  0  0  0  0  0  0  0
    7.5950   -2.1260   20.6308 N   0  0  0  0  0  4  0  0  0  0  0  0
    7.8839   -3.0527   21.7524 C   0  0  0  0  0  0  0  0  0  0  0  0
    6.6766   -3.1634   22.6448 C   0  0  0  0  0  0  0  0  0  0  0  0
    6.4206   -2.6231   23.8879 C   0  0  0  0  0  0  0  0  0  0  0  0
    5.1118   -3.0392   24.2302 C   0  0  0  0  0  0  0  0  0  0  0  0
    4.3520   -2.6986   25.4705 C   0  0  0  0  0  0  0  0  0  0  0  0
    4.9069   -1.8709   26.4648 C   0  0  0  0  0  0  0  0  0  0  0  0
    4.1622   -1.5762   27.6088 C   0  0  0  0  0  0  0  0  0  0  0  0
    2.9253   -2.0347   27.8249 N   0  0  0  0  0  0  0  0  0  0  0  0
    2.3904   -2.8198   26.8822 C   0  0  0  0  0  0  0  0  0  0  0  0
    3.0473   -3.1759   25.7019 C   0  0  0  0  0  0  0  0  0  0  0  0
    2.5531   -3.8126   24.9790 H   0  0  0  0  0  0  0  0  0  0  0  0
    1.3836   -3.1839   27.0827 H   0  0  0  0  0  0  0  0  0  0  0  0
    4.5853   -0.9407   28.3864 H   0  0  0  0  0  0  0  0  0  0  0  0
    5.8998   -1.4496   26.3715 H   0  0  0  0  0  0  0  0  0  0  0  0
    4.5929   -3.7858   23.2521 N   0  0  0  0  0  0  0  0  0  0  0  0
    5.5422   -3.8314   22.3043 N   0  0  0  0  0  0  0  0  0  0  0  0
    5.3819   -4.4368   21.5105 H   0  0  0  0  0  0  0  0  0  0  0  0
    7.0436   -1.9559   24.4699 H   0  0  0  0  0  0  0  0  0  0  0  0
    8.2076   -4.0346   21.3984 H   0  0  0  0  0  0  0  0  0  0  0  0
    8.6890   -2.6652   22.3867 H   0  0  0  0  0  0  0  0  0  0  0  0
    6.6863   -2.3957   20.1913 H   0  0  0  0  0  0  0  0  0  0  0  0
    8.3257   -2.1005   19.8915 H   0  0  0  0  0  0  0  0  0  0  0  0
    6.6407   -0.0316   19.9054 C   0  0  0  0  0  0  0  0  0  0  0  0
    5.4298    0.6323   20.1460 C   0  0  0  0  0  0  0  0  0  0  0  0
    4.8017    1.3017   19.0950 C   0  0  0  0  0  0  0  0  0  0  0  0
    5.4046    1.2817   17.8338 C   0  0  0  0  0  0  0  0  0  0  0  0
    6.5584    0.6482   17.5829 N   0  0  0  0  0  0  0  0  0  0  0  0
    7.1586    0.0184   18.6019 C   0  0  0  0  0  0  0  0  0  0  0  0
    8.1193   -0.4352   18.3513 H   0  0  0  0  0  0  0  0  0  0  0  0
    4.9476    1.7947   16.9883 H   0  0  0  0  0  0  0  0  0  0  0  0
    3.8786    1.8507   19.2391 H   0  0  0  0  0  0  0  0  0  0  0  0
    5.0011    0.6368   21.1506 H   0  0  0  0  0  0  0  0  0  0  0  0
    6.7862   -0.6670   21.9316 H   0  0  0  0  0  0  0  0  0  0  0  0
    9.2137   -0.4199   22.2051 H   0  0  0  0  0  0  0  0  0  0  0  0
    8.5883    1.0688   21.4619 H   0  0  0  0  0  0  0  0  0  0  0  0
    9.4294   -0.1257   20.4677 H   0  0  0  0  0  0  0  0  0  0  0  0
  1  2  1  0
  2  3  1  0
  3  4  1  0
  4  5  1  0
  5  6  2  0
  6  7  1  0
  7  8  1  0
  8  9  2  0
  9 10  1  0
 10 11  2  0
 11 12  1  0
 12 13  2  0
 13 14  1  0
 12 15  1  0
 10 16  1  0
  9 17  1  0
  7 18  2  0
 18 19  1  0
 19 20  1  0
  6 21  1  0
  4 22  1  0
  4 23  1  0
  3 24  1  0
  3 25  1  0
  2 26  1  0
 26 27  2  0
 27 28  1  0
 28 29  2  0
 29 30  1  0
 30 31  2  0
 31 32  1  0
 29 33  1  0
 28 34  1  0
 27 35  1  0
  2 36  1  0
  1 37  1  0
  1 38  1  0
  1 39  1  0
 19  5  1  0
 31 26  1  0
 13  8  1  0
M  CHG  1   3   1
M  END
>  <plip>  (1) 
-0.03333333333333333

>  <filename>  (1) 
[H][c]1[n][c]([H])[c]([C]([H])([C]([H])([H])[H])[N+]([H])([H])[C]([H])([H])[c]2[c]([H])[c](-[c]3[c]([H])[c]([H])[n][c]([H])[c]3[H])[n][n]2[H])[c]([H])[c]1[H]

$$$$
