
     RDKit          3D

 37 39  0  0  0  0  0  0  0  0999 V2000
    8.0066   -2.8789   25.3521 H   0  0  0  0  0  0  0  0  0  0  0  0
    7.8505   -1.8150   25.1905 C   0  0  0  0  0  0  0  0  0  0  0  0
    7.9909   -1.3998   23.9319 N   0  0  0  0  0  0  0  0  0  0  0  0
    7.7668   -0.0973   23.7021 C   0  0  0  0  0  0  0  0  0  0  0  0
    7.8762    0.4621   22.2769 C   0  0  1  0  0  0  0  0  0  0  0  0
    7.2883    1.3858   22.3321 H   0  0  0  0  0  0  0  0  0  0  0  0
    9.3384    0.8428   21.9053 C   0  0  0  0  0  0  0  0  0  0  0  0
    9.7665    1.4852   22.6855 H   0  0  0  0  0  0  0  0  0  0  0  0
    9.2960    1.4345   20.9802 H   0  0  0  0  0  0  0  0  0  0  0  0
   10.2222   -0.3942   21.6668 C   0  0  0  0  0  0  0  0  0  0  0  0
   11.2323   -0.1016   21.3471 H   0  0  0  0  0  0  0  0  0  0  0  0
   10.3296   -0.9731   22.5924 H   0  0  0  0  0  0  0  0  0  0  0  0
    9.6626   -1.2712   20.6434 N   0  0  0  0  0  0  0  0  0  0  0  0
    9.7856   -0.8207   19.7421 H   0  0  0  0  0  0  0  0  0  0  0  0
    8.2646   -1.6370   20.8711 C   0  0  0  0  0  0  0  0  0  0  0  0
    7.8595   -2.1117   19.9888 H   0  0  0  0  0  0  0  0  0  0  0  0
    8.2388   -2.3914   21.6615 H   0  0  0  0  0  0  0  0  0  0  0  0
    7.2671   -0.5047   21.2132 C   0  0  2  0  0  0  0  0  0  0  0  0
    6.4167   -1.0002   21.6964 H   0  0  0  0  0  0  0  0  0  0  0  0
    6.6295    0.1655   19.9849 C   0  0  0  0  0  0  0  0  0  0  0  0
    7.1563    0.1397   18.6785 C   0  0  0  0  0  0  0  0  0  0  0  0
    8.0833   -0.3936   18.4618 H   0  0  0  0  0  0  0  0  0  0  0  0
    6.5865    0.7170   17.6093 N   0  0  0  0  0  0  0  0  0  0  0  0
    5.4163    1.3432   17.7962 C   0  0  0  0  0  0  0  0  0  0  0  0
    4.9792    1.8223   16.9229 H   0  0  0  0  0  0  0  0  0  0  0  0
    4.7606    1.3756   19.0309 C   0  0  0  0  0  0  0  0  0  0  0  0
    3.7939    1.8566   19.1136 H   0  0  0  0  0  0  0  0  0  0  0  0
    5.3774    0.7820   20.1318 C   0  0  0  0  0  0  0  0  0  0  0  0
    4.8940    0.7879   21.1124 H   0  0  0  0  0  0  0  0  0  0  0  0
    7.4646    0.7912   24.6449 N   0  0  0  0  0  0  0  0  0  0  0  0
    7.3098    0.3752   25.9107 C   0  0  0  0  0  0  0  0  0  0  0  0
    6.9021    1.4397   26.9692 C   0  0  0  0  0  0  0  0  0  0  0  0
    5.7635    1.0849   27.6035 F   0  0  0  0  0  0  0  0  0  0  0  0
    6.7043    2.6507   26.4389 F   0  0  0  0  0  0  0  0  0  0  0  0
    7.8474    1.5594   27.9232 F   0  0  0  0  0  0  0  0  0  0  0  0
    7.5109   -0.9686   26.2402 C   0  0  0  0  0  0  0  0  0  0  0  0
    7.4237   -1.3594   27.2444 H   0  0  0  0  0  0  0  0  0  0  0  0
  1  2  1  0
  2  3  2  0
  3  4  1  0
  4  5  1  0
  5  6  1  1
  5  7  1  0
  7  8  1  0
  7  9  1  0
  7 10  1  0
 10 11  1  0
 10 12  1  0
 10 13  1  0
 13 14  1  0
 13 15  1  0
 15 16  1  0
 15 17  1  0
 15 18  1  0
 18 19  1  1
 18 20  1  0
 20 21  2  0
 21 22  1  0
 21 23  1  0
 23 24  2  0
 24 25  1  0
 24 26  1  0
 26 27  1  0
 26 28  2  0
 28 29  1  0
  4 30  2  0
 30 31  1  0
 31 32  1  0
 32 33  1  0
 32 34  1  0
 32 35  1  0
 31 36  2  0
 36 37  1  0
 36  2  1  0
 18  5  1  0
 28 20  1  0
M  END
>  <plip>  (1) 
-0.03333333333333333

>  <filename>  (1) 
[H][c]1[n][c]([C@@]2([H])[C]([H])([H])[C]([H])([H])[N]([H])[C]([H])([H])[C@]2([H])[c]2[c]([H])[n][c]([H])[c]([H])[c]2[H])[n][c]([C]([F])([F])[F])[c]1[H]

$$$$
