
     RDKit          3D

 48 49  0  0  0  0  0  0  0  0999 V2000
   11.2491    3.7542   23.9811 C   0  0  0  0  0  0  0  0  0  0  0  0
   10.1159    4.2921   24.8391 C   0  0  0  0  0  0  0  0  0  0  0  0
   10.2691    5.5140   25.5136 C   0  0  0  0  0  0  0  0  0  0  0  0
    9.3058    5.9738   26.4143 C   0  0  0  0  0  0  0  0  0  0  0  0
    8.1768    5.2023   26.6779 C   0  0  0  0  0  0  0  0  0  0  0  0
    7.9934    3.9884   26.0036 C   0  0  0  0  0  0  0  0  0  0  0  0
    8.9241    3.5506   25.0478 C   0  0  0  0  0  0  0  0  0  0  0  0
    8.6232    2.3285   24.2121 C   0  0  0  0  0  0  0  0  0  0  0  0
    8.2337    2.6620   22.7581 C   0  0  0  0  0  0  0  0  0  0  0  0
    6.8606    3.3104   22.5890 C   0  0  0  0  0  0  0  0  0  0  0  0
    6.0714    2.7190   23.0668 H   0  0  0  0  0  0  0  0  0  0  0  0
    6.8562    4.3166   23.0185 H   0  0  0  0  0  0  0  0  0  0  0  0
    6.6370    3.3887   21.5168 H   0  0  0  0  0  0  0  0  0  0  0  0
    8.3418    1.4343   21.9135 N   0  0  0  0  0  4  0  0  0  0  0  0
    7.5176    0.2289   22.2818 C   0  0  0  0  0  0  0  0  0  0  0  0
    7.4377   -0.7051   21.0505 C   0  0  0  0  0  0  0  0  0  0  0  0
    8.8904   -1.1104   20.7057 C   0  0  0  0  0  0  0  0  0  0  0  0
    9.5002   -0.2551   20.3889 H   0  0  0  0  0  0  0  0  0  0  0  0
    9.3772   -1.5832   21.5682 H   0  0  0  0  0  0  0  0  0  0  0  0
    8.9266   -1.8289   19.8873 H   0  0  0  0  0  0  0  0  0  0  0  0
    6.6360   -1.9736   21.4135 C   0  0  0  0  0  0  0  0  0  0  0  0
    5.5797   -1.7456   21.5973 H   0  0  0  0  0  0  0  0  0  0  0  0
    7.0353   -2.4676   22.3079 H   0  0  0  0  0  0  0  0  0  0  0  0
    6.6727   -2.6978   20.5907 H   0  0  0  0  0  0  0  0  0  0  0  0
    6.7194    0.0139   19.8882 C   0  0  0  0  0  0  0  0  0  0  0  0
    5.5008    0.6918   20.0942 C   0  0  0  0  0  0  0  0  0  0  0  0
    4.8843    1.3461   19.0268 C   0  0  0  0  0  0  0  0  0  0  0  0
    5.4880    1.2929   17.7669 C   0  0  0  0  0  0  0  0  0  0  0  0
    6.6305    0.6413   17.5317 N   0  0  0  0  0  0  0  0  0  0  0  0
    7.2173    0.0256   18.5716 C   0  0  0  0  0  0  0  0  0  0  0  0
    8.1515   -0.4769   18.3397 H   0  0  0  0  0  0  0  0  0  0  0  0
    5.0298    1.7922   16.9128 H   0  0  0  0  0  0  0  0  0  0  0  0
    3.9649    1.9074   19.1612 H   0  0  0  0  0  0  0  0  0  0  0  0
    5.0422    0.7229   21.0865 H   0  0  0  0  0  0  0  0  0  0  0  0
    6.5174    0.5320   22.6114 H   0  0  0  0  0  0  0  0  0  0  0  0
    7.9610   -0.3195   23.1214 H   0  0  0  0  0  0  0  0  0  0  0  0
    9.3487    1.1436   21.8872 H   0  0  0  0  0  0  0  0  0  0  0  0
    8.0537    1.6799   20.9343 H   0  0  0  0  0  0  0  0  0  0  0  0
    8.9688    3.3744   22.3745 H   0  0  0  0  0  0  0  0  0  0  0  0
    7.8296    1.7184   24.6602 H   0  0  0  0  0  0  0  0  0  0  0  0
    9.5024    1.6753   24.1512 H   0  0  0  0  0  0  0  0  0  0  0  0
    7.0996    3.3952   26.2039 H   0  0  0  0  0  0  0  0  0  0  0  0
    7.4472    5.5301   27.4151 H   0  0  0  0  0  0  0  0  0  0  0  0
    9.4310    6.9456   26.8939 H   0  0  0  0  0  0  0  0  0  0  0  0
   11.1633    6.1113   25.3317 H   0  0  0  0  0  0  0  0  0  0  0  0
   11.7066    2.8609   24.4309 H   0  0  0  0  0  0  0  0  0  0  0  0
   10.9052    3.4721   22.9803 H   0  0  0  0  0  0  0  0  0  0  0  0
   12.0419    4.4934   23.8416 H   0  0  0  0  0  0  0  0  0  0  0  0
  1  2  1  0
  2  3  2  0
  3  4  1  0
  4  5  2  0
  5  6  1  0
  6  7  2  0
  7  8  1  0
  8  9  1  0
  9 10  1  0
 10 11  1  0
 10 12  1  0
 10 13  1  0
  9 14  1  0
 14 15  1  0
 15 16  1  0
 16 17  1  0
 17 18  1  0
 17 19  1  0
 17 20  1  0
 16 21  1  0
 21 22  1  0
 21 23  1  0
 21 24  1  0
 16 25  1  0
 25 26  2  0
 26 27  1  0
 27 28  2  0
 28 29  1  0
 29 30  2  0
 30 31  1  0
 28 32  1  0
 27 33  1  0
 26 34  1  0
 15 35  1  0
 15 36  1  0
 14 37  1  0
 14 38  1  0
  9 39  1  0
  8 40  1  0
  8 41  1  0
  6 42  1  0
  5 43  1  0
  4 44  1  0
  3 45  1  0
  1 46  1  0
  1 47  1  0
  1 48  1  0
  7  2  1  0
 30 25  1  0
M  CHG  1  14   1
M  END
>  <plip>  (1) 
-0.10714285714285714

>  <filename>  (1) 
[H][c]1[n][c]([H])[c]([C]([C]([H])([H])[H])([C]([H])([H])[H])[C]([H])([H])[N+]([H])([H])[C]([H])([C]([H])([H])[H])[C]([H])([H])[c]2[c]([H])[c]([H])[c]([H])[c]([H])[c]2[C]([H])([H])[H])[c]([H])[c]1[H]

$$$$
