
     RDKit          3D

 39 42  0  0  0  0  0  0  0  0999 V2000
    4.9160    1.7969   16.9780 H   0  0  0  0  0  0  0  0  0  0  0  0
    5.3935    1.2981   17.8174 C   0  0  0  0  0  0  0  0  0  0  0  0
    6.5552    0.6844   17.5504 N   0  0  0  0  0  0  0  0  0  0  0  0
    7.1682    0.0772   18.5742 C   0  0  0  0  0  0  0  0  0  0  0  0
    8.1164   -0.4104   18.3464 H   0  0  0  0  0  0  0  0  0  0  0  0
    6.6611    0.0233   19.8796 C   0  0  0  0  0  0  0  0  0  0  0  0
    7.4121   -0.7041   20.9786 C   0  0  1  0  0  0  0  0  0  0  0  0
    8.4008   -1.0024   20.5955 H   0  0  0  0  0  0  0  0  0  0  0  0
    7.6030    0.1007   22.1781 N   0  0  0  0  0  0  0  0  0  0  0  0
    8.4163    1.2449   22.1197 N   0  0  0  0  0  0  0  0  0  0  0  0
    7.6488    2.4728   22.4958 C   0  0  0  0  0  0  0  0  0  0  0  0
    6.8468    2.6047   21.7629 H   0  0  0  0  0  0  0  0  0  0  0  0
    7.1442    2.2996   23.4609 H   0  0  0  0  0  0  0  0  0  0  0  0
    8.5180    3.7228   22.5669 C   0  0  0  0  0  0  0  0  0  0  0  0
    7.9333    5.0003   22.5181 C   0  0  0  0  0  0  0  0  0  0  0  0
    6.8560    5.0951   22.3937 H   0  0  0  0  0  0  0  0  0  0  0  0
    8.7137    6.1561   22.6278 C   0  0  0  0  0  0  0  0  0  0  0  0
    8.2444    7.1379   22.5818 H   0  0  0  0  0  0  0  0  0  0  0  0
   10.0987    6.0456   22.7985 C   0  0  0  0  0  0  0  0  0  0  0  0
   10.7139    6.9374   22.8834 H   0  0  0  0  0  0  0  0  0  0  0  0
   10.6885    4.7792   22.8553 C   0  0  0  0  0  0  0  0  0  0  0  0
   11.7690    4.6749   22.9611 H   0  0  0  0  0  0  0  0  0  0  0  0
    9.9104    3.6175   22.7417 C   0  0  0  0  0  0  0  0  0  0  0  0
   10.5655    2.2468   22.7393 C   0  0  0  0  0  0  0  0  0  0  0  0
   11.3605    2.2147   23.4879 H   0  0  0  0  0  0  0  0  0  0  0  0
   11.0454    2.0803   21.7679 H   0  0  0  0  0  0  0  0  0  0  0  0
    9.5903    1.1072   23.0107 C   0  0  0  0  0  0  0  0  0  0  0  0
    9.2552    1.0925   24.0606 H   0  0  0  0  0  0  0  0  0  0  0  0
   10.0512    0.1365   22.8039 H   0  0  0  0  0  0  0  0  0  0  0  0
    7.0094   -0.4754   23.3076 C   0  0  0  0  0  0  0  0  0  0  0  0
    6.9688   -0.0401   24.4295 O   0  0  0  0  0  0  0  0  0  0  0  0
    6.4714   -1.6660   22.9489 O   0  0  0  0  0  0  0  0  0  0  0  0
    6.6288   -1.9091   21.5511 C   0  0  0  0  0  0  0  0  0  0  0  0
    7.1493   -2.8605   21.4218 H   0  0  0  0  0  0  0  0  0  0  0  0
    5.6315   -2.0069   21.1038 H   0  0  0  0  0  0  0  0  0  0  0  0
    5.4367    0.6544   20.1361 C   0  0  0  0  0  0  0  0  0  0  0  0
    5.0100    0.6416   21.1422 H   0  0  0  0  0  0  0  0  0  0  0  0
    4.7996    1.3119   19.0850 C   0  0  0  0  0  0  0  0  0  0  0  0
    3.8714    1.8422   19.2460 H   0  0  0  0  0  0  0  0  0  0  0  0
  1  2  1  0
  2  3  2  0
  3  4  1  0
  4  5  1  0
  4  6  2  0
  6  7  1  0
  7  8  1  6
  7  9  1  0
  9 10  1  0
 10 11  1  0
 11 12  1  0
 11 13  1  0
 11 14  1  0
 14 15  2  0
 15 16  1  0
 15 17  1  0
 17 18  1  0
 17 19  2  0
 19 20  1  0
 19 21  1  0
 21 22  1  0
 21 23  2  0
 23 24  1  0
 24 25  1  0
 24 26  1  0
 24 27  1  0
 27 28  1  0
 27 29  1  0
  9 30  1  0
 30 31  2  0
 30 32  1  0
 32 33  1  0
 33 34  1  0
 33 35  1  0
  6 36  1  0
 36 37  1  0
 36 38  2  0
 38 39  1  0
 38  2  1  0
 33  7  1  0
 27 10  1  0
 23 14  1  0
M  END
>  <plip>  (1) 
-0.10714285714285714

>  <filename>  (1) 
[H][c]1[n][c]([H])[c]([C@@]2([H])[N]([N]3[C]([H])([H])[c]4[c]([H])[c]([H])[c]([H])[c]([H])[c]4[C]([H])([H])[C]3([H])[H])[C](=[O])[O][C]2([H])[H])[c]([H])[c]1[H]

$$$$
