
     RDKit          3D

 28 29  0  0  0  0  0  0  0  0999 V2000
    5.6945    0.3855   23.7999 H   0  0  0  0  0  0  0  0  0  0  0  0
    6.5281   -0.2944   23.5749 C   0  0  0  0  0  0  0  0  0  0  0  0
    6.7805   -1.3465   24.3653 C   0  0  0  0  0  0  0  0  0  0  0  0
    5.7177   -1.8526   25.6838 S   0  0  0  0  0  0  0  0  0  0  0  0
    6.8553   -3.0818   26.2282 C   0  0  0  0  0  0  0  0  0  0  0  0
    6.6358   -4.1313   27.4566 S   0  0  0  0  0  0  0  0  0  0  0  0
    7.9549   -3.0260   25.4382 N   0  0  0  0  0  0  0  0  0  0  0  0
    8.7396   -3.6328   25.5932 H   0  0  0  0  0  0  0  0  0  0  0  0
    8.0445   -2.1006   24.4130 C   0  0  0  0  0  0  0  0  0  0  0  0
    9.0494   -1.9891   23.7521 O   0  0  0  0  0  0  0  0  0  0  0  0
    7.3684    0.0658   22.5235 N   0  0  0  0  0  0  0  0  0  0  0  0
    7.9806    1.3933   22.5767 C   0  0  0  0  0  0  0  0  0  0  0  0
    8.6325    1.4601   23.4551 H   0  0  0  0  0  0  0  0  0  0  0  0
    8.5844    1.5918   21.6918 H   0  0  0  0  0  0  0  0  0  0  0  0
    7.2109    2.1735   22.6563 H   0  0  0  0  0  0  0  0  0  0  0  0
    7.5315   -0.8885   21.1662 S   0  0  0  0  0  0  0  0  0  0  0  0
    8.9172   -0.8019   20.7407 O   0  0  0  0  0  0  0  0  0  0  0  0
    6.8482   -2.1471   21.3624 O   0  0  0  0  0  0  0  0  0  0  0  0
    6.6054    0.0409   20.0102 C   0  0  0  0  0  0  0  0  0  0  0  0
    7.1845    0.0235   18.7498 C   0  0  0  0  0  0  0  0  0  0  0  0
    8.1381   -0.4761   18.5787 H   0  0  0  0  0  0  0  0  0  0  0  0
    6.6185    0.6180   17.7039 N   0  0  0  0  0  0  0  0  0  0  0  0
    5.4551    1.2579   17.8943 C   0  0  0  0  0  0  0  0  0  0  0  0
    5.0215    1.7399   17.0171 H   0  0  0  0  0  0  0  0  0  0  0  0
    4.8070    1.3074   19.1322 C   0  0  0  0  0  0  0  0  0  0  0  0
    3.8695    1.8408   19.2225 H   0  0  0  0  0  0  0  0  0  0  0  0
    5.3843    0.6800   20.2328 C   0  0  0  0  0  0  0  0  0  0  0  0
    4.8805    0.7083   21.2026 H   0  0  0  0  0  0  0  0  0  0  0  0
  1  2  1  0
  2  3  2  3
  3  4  1  0
  4  5  1  0
  5  6  2  0
  5  7  1  0
  7  8  1  0
  7  9  1  0
  9 10  2  0
  2 11  1  0
 11 12  1  0
 12 13  1  0
 12 14  1  0
 12 15  1  0
 11 16  1  0
 16 17  2  0
 16 18  2  0
 16 19  1  0
 19 20  2  0
 20 21  1  0
 20 22  1  0
 22 23  2  0
 23 24  1  0
 23 25  1  0
 25 26  1  0
 25 27  2  0
 27 28  1  0
  9  3  1  0
 27 19  1  0
M  END
>  <plip>  (1) 
-0.03571428571428571

>  <filename>  (1) 
[H][C](=[C]1[S][C](=[S])[N]([H])[C]1=[O])[N]([C]([H])([H])[H])[S](=[O])(=[O])[c]1[c]([H])[n][c]([H])[c]([H])[c]1[H]

$$$$
