
     RDKit          3D

 28 29  0  0  0  0  0  0  0  0999 V2000
    8.8687   -0.4501   21.0399 O   0  0  0  0  0  0  0  0  0  0  0  0
    7.4701   -0.7351   21.3018 S   0  0  0  0  0  0  0  0  0  0  0  0
    7.0004   -2.0692   21.5800 O   0  0  0  0  0  0  0  0  0  0  0  0
    6.9679    0.1247   22.5746 N   0  0  0  0  0  0  0  0  0  0  0  0
    7.5186    1.3602   22.7882 C   0  0  0  0  0  0  0  0  0  0  0  0
    8.1434    2.1535   21.8185 C   0  0  0  0  0  0  0  0  0  0  0  0
    8.3580    3.4840   22.1558 C   0  0  0  0  0  0  0  0  0  0  0  0
    8.0978    3.9319   23.4557 C   0  0  0  0  0  0  0  0  0  0  0  0
    8.5200    5.5701   23.8479 Cl  0  0  0  0  0  0  0  0  0  0  0  0
    7.5338    3.0272   24.3785 C   0  0  0  0  0  0  0  0  0  0  0  0
    7.1054    3.5082   25.7963 C   0  0  0  0  0  0  0  0  0  0  0  0
    6.2404    4.5403   25.7194 F   0  0  0  0  0  0  0  0  0  0  0  0
    6.5016    2.5451   26.4970 F   0  0  0  0  0  0  0  0  0  0  0  0
    8.1529    3.9317   26.5277 F   0  0  0  0  0  0  0  0  0  0  0  0
    7.2842    1.7512   24.0247 N   0  0  0  0  0  0  0  0  0  0  0  0
    8.6993    4.1986   21.4193 H   0  0  0  0  0  0  0  0  0  0  0  0
    8.4850    1.7211   20.8894 H   0  0  0  0  0  0  0  0  0  0  0  0
    6.9215   -0.4335   23.4028 H   0  0  0  0  0  0  0  0  0  0  0  0
    6.5359    0.0475   20.0735 C   0  0  0  0  0  0  0  0  0  0  0  0
    5.3029    0.7019   20.2302 C   0  0  0  0  0  0  0  0  0  0  0  0
    4.7803    1.3067   19.0901 C   0  0  0  0  0  0  0  0  0  0  0  0
    5.4890    1.2355   17.8884 C   0  0  0  0  0  0  0  0  0  0  0  0
    6.6534    0.5819   17.7608 N   0  0  0  0  0  0  0  0  0  0  0  0
    7.1697    0.0079   18.8434 C   0  0  0  0  0  0  0  0  0  0  0  0
    8.1361   -0.4738   18.6933 H   0  0  0  0  0  0  0  0  0  0  0  0
    5.1065    1.7197   16.9909 H   0  0  0  0  0  0  0  0  0  0  0  0
    3.8586    1.8777   19.1221 H   0  0  0  0  0  0  0  0  0  0  0  0
    4.7876    0.7925   21.1913 H   0  0  0  0  0  0  0  0  0  0  0  0
  1  2  2  0
  2  3  2  0
  2  4  1  0
  4  5  1  0
  5  6  2  0
  6  7  1  0
  7  8  2  0
  8  9  1  0
  8 10  1  0
 10 11  1  0
 11 12  1  0
 11 13  1  0
 11 14  1  0
 10 15  2  0
  7 16  1  0
  6 17  1  0
  4 18  1  0
  2 19  1  0
 19 20  2  0
 20 21  1  0
 21 22  2  0
 22 23  1  0
 23 24  2  0
 24 25  1  0
 22 26  1  0
 21 27  1  0
 20 28  1  0
 15  5  1  0
 24 19  1  0
M  END
>  <plip>  (1) 
-0.07142857142857142

>  <filename>  (1) 
[H][c]1[n][c]([H])[c]([S](=[O])(=[O])[N]([H])[c]2[n][c]([C]([F])([F])[F])[c]([Cl])[c]([H])[c]2[H])[c]([H])[c]1[H]

$$$$
