
     RDKit          3D

 25 28  0  0  0  0  0  0  0  0999 V2000
    4.2101   -0.3322   26.4595 H   0  0  0  0  0  0  0  0  0  0  0  0
    5.1483   -0.8305   26.2731 C   0  0  0  0  0  0  0  0  0  0  0  0
    5.8490   -1.5059   27.2357 N   0  0  0  0  0  0  0  0  0  0  0  0
    6.8943   -1.9403   26.5847 C   0  0  0  0  0  0  0  0  0  0  0  0
    7.7061   -2.5294   27.0003 H   0  0  0  0  0  0  0  0  0  0  0  0
    6.8357   -1.5509   25.2834 N   0  0  0  0  0  0  0  0  0  0  0  0
    7.7930   -1.8478   24.3033 C   0  0  0  0  0  0  0  0  0  0  0  0
    8.8860   -2.5415   24.4897 N   0  0  0  0  0  0  0  0  0  0  0  0
    9.5598   -2.6119   23.2905 N   0  0  0  0  0  0  0  0  0  0  0  0
    8.8504   -1.9579   22.4253 C   0  0  0  0  0  0  0  0  0  0  0  0
    8.9021   -1.5246   20.7381 S   0  0  0  0  0  0  0  0  0  0  0  0
    7.3532   -0.6903   20.9925 C   0  0  0  0  0  0  0  0  0  0  0  0
    6.6515    0.0115   19.9115 C   0  0  0  0  0  0  0  0  0  0  0  0
    7.1772    0.0575   18.6102 C   0  0  0  0  0  0  0  0  0  0  0  0
    8.1240   -0.4285   18.3733 H   0  0  0  0  0  0  0  0  0  0  0  0
    6.5715    0.6715   17.5911 N   0  0  0  0  0  0  0  0  0  0  0  0
    5.4067    1.2880   17.8466 C   0  0  0  0  0  0  0  0  0  0  0  0
    4.9207    1.7737   17.0027 H   0  0  0  0  0  0  0  0  0  0  0  0
    4.8033    1.3111   19.1095 C   0  0  0  0  0  0  0  0  0  0  0  0
    3.8718    1.8453   19.2604 H   0  0  0  0  0  0  0  0  0  0  0  0
    5.4294    0.6569   20.1657 C   0  0  0  0  0  0  0  0  0  0  0  0
    5.0033    0.6316   21.1721 H   0  0  0  0  0  0  0  0  0  0  0  0
    6.8768   -0.7395   22.1919 N   0  0  0  0  0  0  0  0  0  0  0  0
    7.7243   -1.4515   22.9872 N   0  0  0  0  0  0  0  0  0  0  0  0
    5.6978   -0.8226   25.0847 N   0  0  0  0  0  0  0  0  0  0  0  0
  1  2  1  0
  2  3  1  0
  3  4  2  0
  4  5  1  0
  4  6  1  0
  6  7  1  0
  7  8  2  0
  8  9  1  0
  9 10  2  0
 10 11  1  0
 11 12  1  0
 12 13  1  0
 13 14  2  0
 14 15  1  0
 14 16  1  0
 16 17  2  0
 17 18  1  0
 17 19  1  0
 19 20  1  0
 19 21  2  0
 21 22  1  0
 12 23  2  0
 23 24  1  0
  6 25  1  0
 25  2  2  0
 24  7  1  0
 24 10  1  0
 21 13  1  0
M  END
>  <plip>  (1) 
-0.07142857142857142

>  <filename>  (1) 
[H][c]1[n][c]([H])[n](-[c]2[n][n][c]3[s][c](-[c]4[c]([H])[n][c]([H])[c]([H])[c]4[H])[n][n]23)[n]1

$$$$
