
     RDKit          3D

 30 32  0  0  0  0  0  0  0  0999 V2000
    4.9163    1.8181   16.9625 H   0  0  0  0  0  0  0  0  0  0  0  0
    5.3707    1.3017   17.8090 C   0  0  0  0  0  0  0  0  0  0  0  0
    6.5313    0.6769   17.5573 N   0  0  0  0  0  0  0  0  0  0  0  0
    7.1300    0.0515   18.5785 C   0  0  0  0  0  0  0  0  0  0  0  0
    8.0940   -0.4085   18.3582 H   0  0  0  0  0  0  0  0  0  0  0  0
    6.6103   -0.0223   19.8857 C   0  0  0  0  0  0  0  0  0  0  0  0
    7.3713   -0.7597   20.9869 C   0  0  0  0  0  0  0  0  0  0  0  0
    7.5003   -1.8205   20.7446 H   0  0  0  0  0  0  0  0  0  0  0  0
    6.8008   -0.7384   21.9228 H   0  0  0  0  0  0  0  0  0  0  0  0
    8.7451   -0.2003   21.2267 C   0  0  0  0  0  0  0  0  0  0  0  0
    9.8897   -0.8146   21.0427 N   0  0  0  0  0  0  0  0  0  0  0  0
   10.8682    0.1070   21.2015 N   0  0  0  0  0  0  0  0  0  0  0  0
   10.3825    1.2630   21.4671 N   0  0  0  0  0  0  0  0  0  0  0  0
    9.0557    1.0916   21.5457 N   0  0  0  0  0  0  0  0  0  0  0  0
    8.3265    2.2355   21.7059 O   0  0  0  0  0  0  0  0  0  0  0  0
    7.2084    2.2230   22.5698 C   0  0  0  0  0  0  0  0  0  0  0  0
    6.2003    3.1658   22.3255 C   0  0  0  0  0  0  0  0  0  0  0  0
    6.2510    3.8296   21.4615 H   0  0  0  0  0  0  0  0  0  0  0  0
    5.1121    3.2294   23.2048 C   0  0  0  0  0  0  0  0  0  0  0  0
    4.3304    3.9648   23.0266 H   0  0  0  0  0  0  0  0  0  0  0  0
    5.0309    2.3802   24.3138 C   0  0  0  0  0  0  0  0  0  0  0  0
    4.2059    2.4252   25.0116 H   0  0  0  0  0  0  0  0  0  0  0  0
    6.0552    1.4609   24.5330 C   0  0  0  0  0  0  0  0  0  0  0  0
    5.9838    0.3997   25.9045 Cl  0  0  0  0  0  0  0  0  0  0  0  0
    7.1555    1.3787   23.6831 C   0  0  0  0  0  0  0  0  0  0  0  0
    7.9505    0.6712   23.8823 H   0  0  0  0  0  0  0  0  0  0  0  0
    5.3923    0.6245   20.1167 C   0  0  0  0  0  0  0  0  0  0  0  0
    4.9575    0.6152   21.1181 H   0  0  0  0  0  0  0  0  0  0  0  0
    4.7668    1.3112   19.0688 C   0  0  0  0  0  0  0  0  0  0  0  0
    3.8435    1.8608   19.2116 H   0  0  0  0  0  0  0  0  0  0  0  0
  1  2  1  0
  2  3  2  0
  3  4  1  0
  4  5  1  0
  4  6  2  0
  6  7  1  0
  7  8  1  0
  7  9  1  0
  7 10  1  0
 10 11  2  0
 11 12  1  0
 12 13  2  0
 13 14  1  0
 14 15  1  0
 15 16  1  0
 16 17  2  0
 17 18  1  0
 17 19  1  0
 19 20  1  0
 19 21  2  0
 21 22  1  0
 21 23  1  0
 23 24  1  0
 23 25  2  0
 25 26  1  0
  6 27  1  0
 27 28  1  0
 27 29  2  0
 29 30  1  0
 29  2  1  0
 14 10  1  0
 25 16  1  0
M  END
>  <plip>  (1) 
-0.03571428571428571

>  <filename>  (1) 
[H][c]1[n][c]([H])[c]([C]([H])([H])[c]2[n][n][n][n]2[O][c]2[c]([H])[c]([H])[c]([H])[c]([Cl])[c]2[H])[c]([H])[c]1[H]

$$$$
