
     RDKit          3D

 33 34  0  0  0  0  0  0  0  0999 V2000
    4.9574    1.8219   16.9890 H   0  0  0  0  0  0  0  0  0  0  0  0
    5.4448    1.3115   17.8158 C   0  0  0  0  0  0  0  0  0  0  0  0
    6.6147    0.7072   17.5419 N   0  0  0  0  0  0  0  0  0  0  0  0
    7.2331    0.0757   18.5522 C   0  0  0  0  0  0  0  0  0  0  0  0
    8.1778   -0.4212   18.3201 H   0  0  0  0  0  0  0  0  0  0  0  0
    6.7154   -0.0187   19.8594 C   0  0  0  0  0  0  0  0  0  0  0  0
    7.4430   -0.7164   20.8604 N   0  0  0  0  0  0  0  0  0  0  0  0
    8.6978   -0.2619   21.2831 N   0  0  0  0  0  0  0  0  0  0  0  0
    9.4209   -0.3727   20.5808 H   0  0  0  0  0  0  0  0  0  0  0  0
    8.7881    1.1085   21.7276 C   0  0  0  0  0  0  0  0  0  0  0  0
    8.2036    1.2776   22.6420 H   0  0  0  0  0  0  0  0  0  0  0  0
    8.4025    1.8125   20.9723 H   0  0  0  0  0  0  0  0  0  0  0  0
   10.2012    1.2823   21.9448 N   0  0  0  0  0  0  0  0  0  0  0  0
   10.5524    0.4064   22.3003 H   0  0  0  0  0  0  0  0  0  0  0  0
   10.6291    2.4233   22.6283 C   0  0  0  0  0  0  0  0  0  0  0  0
   11.9637    2.5342   23.0559 C   0  0  0  0  0  0  0  0  0  0  0  0
   12.6270    1.6769   22.9726 H   0  0  0  0  0  0  0  0  0  0  0  0
   12.4287    3.7463   23.5739 C   0  0  0  0  0  0  0  0  0  0  0  0
   13.4821    3.8590   23.8088 H   0  0  0  0  0  0  0  0  0  0  0  0
   11.5647    4.8304   23.7595 C   0  0  0  0  0  0  0  0  0  0  0  0
   11.9219    5.7651   24.1802 H   0  0  0  0  0  0  0  0  0  0  0  0
   10.2263    4.6991   23.3922 C   0  0  0  0  0  0  0  0  0  0  0  0
    9.5342    5.5267   23.5119 H   0  0  0  0  0  0  0  0  0  0  0  0
    9.7581    3.5113   22.8338 C   0  0  0  0  0  0  0  0  0  0  0  0
    8.7216    3.4301   22.5250 H   0  0  0  0  0  0  0  0  0  0  0  0
    6.8011   -1.7035   21.7035 C   0  0  0  0  0  0  0  0  0  0  0  0
    7.5671   -2.1857   22.3156 H   0  0  0  0  0  0  0  0  0  0  0  0
    6.3320   -2.4666   21.0759 H   0  0  0  0  0  0  0  0  0  0  0  0
    6.0550   -1.2771   22.3847 H   0  0  0  0  0  0  0  0  0  0  0  0
    5.4797    0.6103   20.1231 C   0  0  0  0  0  0  0  0  0  0  0  0
    5.0618    0.5915   21.1308 H   0  0  0  0  0  0  0  0  0  0  0  0
    4.8445    1.2944   19.0796 C   0  0  0  0  0  0  0  0  0  0  0  0
    3.8940    1.7975   19.2363 H   0  0  0  0  0  0  0  0  0  0  0  0
  1  2  1  0
  2  3  2  0
  3  4  1  0
  4  5  1  0
  4  6  2  0
  6  7  1  0
  7  8  1  0
  8  9  1  0
  8 10  1  0
 10 11  1  0
 10 12  1  0
 10 13  1  0
 13 14  1  0
 13 15  1  0
 15 16  2  0
 16 17  1  0
 16 18  1  0
 18 19  1  0
 18 20  2  0
 20 21  1  0
 20 22  1  0
 22 23  1  0
 22 24  2  0
 24 25  1  0
  7 26  1  0
 26 27  1  0
 26 28  1  0
 26 29  1  0
  6 30  1  0
 30 31  1  0
 30 32  2  0
 32 33  1  0
 32  2  1  0
 24 15  1  0
M  END
>  <plip>  (1) 
-0.10344827586206896

>  <filename>  (1) 
[H][c]1[n][c]([H])[c]([N]([N]([H])[C]([H])([H])[N]([H])[c]2[c]([H])[c]([H])[c]([H])[c]([H])[c]2[H])[C]([H])([H])[H])[c]([H])[c]1[H]

$$$$
