
     RDKit          3D

 36 37  0  0  0  0  0  0  0  0999 V2000
   10.2674   -5.0086   27.5777 C   0  0  0  0  0  0  0  0  0  0  0  0
    9.0223   -5.6196   27.2804 O   0  0  0  0  0  0  0  0  0  0  0  0
    8.1805   -4.9861   26.4518 C   0  0  0  0  0  0  0  0  0  0  0  0
    7.0825   -5.7515   26.0208 C   0  0  0  0  0  0  0  0  0  0  0  0
    6.2076   -5.1873   25.1220 C   0  0  0  0  0  0  0  0  0  0  0  0
    6.4827   -3.8786   24.6618 C   0  0  0  0  0  0  0  0  0  0  0  0
    5.6979   -3.2962   23.5459 C   0  0  0  0  0  0  0  0  0  0  0  0
    4.5231   -3.5576   23.3612 O   0  0  0  0  0  0  0  0  0  0  0  0
    6.4556   -2.5003   22.7157 N   0  0  0  0  0  0  0  0  0  0  0  0
    6.0285   -2.0692   21.3885 C   0  0  0  0  0  0  0  0  0  0  0  0
    7.0006   -0.9871   20.8898 C   0  0  0  0  0  0  0  0  0  0  0  0
    6.4703   -0.1930   19.7185 C   0  0  0  0  0  0  0  0  0  0  0  0
    5.3479    0.6417   19.8567 C   0  0  0  0  0  0  0  0  0  0  0  0
    4.9189    1.3924   18.7606 C   0  0  0  0  0  0  0  0  0  0  0  0
    5.6207    1.2769   17.5559 C   0  0  0  0  0  0  0  0  0  0  0  0
    6.6935    0.4907   17.3971 N   0  0  0  0  0  0  0  0  0  0  0  0
    7.0880   -0.2260   18.4618 C   0  0  0  0  0  0  0  0  0  0  0  0
    7.9601   -0.8660   18.3162 H   0  0  0  0  0  0  0  0  0  0  0  0
    5.3052    1.8446   16.6820 H   0  0  0  0  0  0  0  0  0  0  0  0
    4.0602    2.0520   18.8222 H   0  0  0  0  0  0  0  0  0  0  0  0
    4.8280    0.7036   20.8174 H   0  0  0  0  0  0  0  0  0  0  0  0
    7.2269   -0.3028   21.7204 H   0  0  0  0  0  0  0  0  0  0  0  0
    7.9467   -1.4787   20.6313 H   0  0  0  0  0  0  0  0  0  0  0  0
    5.8985   -3.2516   20.1656 C   0  0  0  0  0  0  0  0  0  0  0  0
    5.1749   -2.8863   19.2253 O   0  0  0  0  0  0  0  0  0  0  0  0
    6.4927   -4.3170   20.3898 O   0  0  0  0  0  1  0  0  0  0  0  0
    5.0232   -1.6649   21.4724 H   0  0  0  0  0  0  0  0  0  0  0  0
    7.4431   -2.6681   22.8265 H   0  0  0  0  0  0  0  0  0  0  0  0
    7.5236   -3.1703   25.2502 C   0  0  0  0  0  0  0  0  0  0  0  0
    8.3799   -3.7152   26.1190 N   0  0  0  0  0  0  0  0  0  0  0  0
    7.6798   -2.1089   25.0464 H   0  0  0  0  0  0  0  0  0  0  0  0
    5.3287   -5.7244   24.7516 H   0  0  0  0  0  0  0  0  0  0  0  0
    7.0030   -6.7618   26.4059 H   0  0  0  0  0  0  0  0  0  0  0  0
   10.1201   -3.9510   27.7860 H   0  0  0  0  0  0  0  0  0  0  0  0
   10.9803   -5.1310   26.7548 H   0  0  0  0  0  0  0  0  0  0  0  0
   10.6468   -5.5162   28.4571 H   0  0  0  0  0  0  0  0  0  0  0  0
  1  2  1  0
  2  3  1  0
  3  4  2  0
  4  5  1  0
  5  6  2  0
  6  7  1  0
  7  8  2  0
  7  9  1  0
  9 10  1  0
 10 11  1  0
 11 12  1  0
 12 13  2  0
 13 14  1  0
 14 15  2  0
 15 16  1  0
 16 17  2  0
 17 18  1  0
 15 19  1  0
 14 20  1  0
 13 21  1  0
 11 22  1  0
 11 23  1  0
 10 24  1  0
 24 25  2  0
 24 26  1  0
 10 27  1  0
  9 28  1  0
  6 29  1  0
 29 30  2  0
 29 31  1  0
  5 32  1  0
  4 33  1  0
  1 34  1  0
  1 35  1  0
  1 36  1  0
 30  3  1  0
 17 12  1  0
M  CHG  1  26  -1
M  END
>  <plip>  (1) 
-0.21428571428571427

>  <filename>  (1) 
[H][c]1[n][c]([H])[c]([C]([H])([H])[C]([H])([C](=[O])[O-])[N]([H])[C](=[O])[c]2[c]([H])[n][c]([O][C]([H])([H])[H])[c]([H])[c]2[H])[c]([H])[c]1[H]

$$$$
