
     RDKit          3D

 47 49  0  0  0  0  0  0  0  0999 V2000
    9.6106    3.2915   23.1101 C   0  0  0  0  0  0  0  0  0  0  0  0
    8.3345    2.4570   23.0342 C   0  0  0  0  0  0  0  0  0  0  0  0
    8.5370    1.1874   22.1571 C   0  0  0  0  0  0  0  0  0  0  0  0
    9.4933    1.0940   21.4075 O   0  0  0  0  0  0  0  0  0  0  0  0
    7.6009    0.1894   22.2098 N   0  0  0  0  0  0  0  0  0  0  0  0
    7.4092   -0.6684   21.0507 C   0  0  0  0  0  0  0  0  0  0  0  0
    6.6799   -1.9676   21.4164 C   0  0  0  0  0  0  0  0  0  0  0  0
    7.4167   -2.8601   22.4228 C   0  0  0  0  0  0  0  0  0  0  0  0
    6.7230   -4.1825   22.7420 C   0  0  0  0  0  0  0  0  0  0  0  0
    5.4907   -4.0473   23.4248 O   0  0  0  0  0  0  0  0  0  0  0  0
    4.8404   -3.6873   22.8141 H   0  0  0  0  0  0  0  0  0  0  0  0
    6.5955   -4.7678   21.8165 H   0  0  0  0  0  0  0  0  0  0  0  0
    7.3639   -4.7705   23.4061 H   0  0  0  0  0  0  0  0  0  0  0  0
    8.4083   -3.1074   22.0213 H   0  0  0  0  0  0  0  0  0  0  0  0
    7.5886   -2.3050   23.3536 H   0  0  0  0  0  0  0  0  0  0  0  0
    6.5133   -2.5166   20.4784 H   0  0  0  0  0  0  0  0  0  0  0  0
    5.6847   -1.7001   21.7960 H   0  0  0  0  0  0  0  0  0  0  0  0
    6.6730    0.0776   19.9454 C   0  0  0  0  0  0  0  0  0  0  0  0
    5.4419    0.7164   20.1626 C   0  0  0  0  0  0  0  0  0  0  0  0
    4.7983    1.3386   19.0927 C   0  0  0  0  0  0  0  0  0  0  0  0
    5.4041    1.2939   17.8315 C   0  0  0  0  0  0  0  0  0  0  0  0
    6.5633    0.6668   17.5922 N   0  0  0  0  0  0  0  0  0  0  0  0
    7.1756    0.0903   18.6367 C   0  0  0  0  0  0  0  0  0  0  0  0
    8.1215   -0.4012   18.4020 H   0  0  0  0  0  0  0  0  0  0  0  0
    4.9375    1.7838   16.9796 H   0  0  0  0  0  0  0  0  0  0  0  0
    3.8543    1.8637   19.2244 H   0  0  0  0  0  0  0  0  0  0  0  0
    4.9793    0.7259   21.1524 H   0  0  0  0  0  0  0  0  0  0  0  0
    8.4120   -0.9249   20.6881 H   0  0  0  0  0  0  0  0  0  0  0  0
    6.7755    0.3286   22.7696 H   0  0  0  0  0  0  0  0  0  0  0  0
    7.3406    3.3343   22.4338 O   0  0  0  0  0  0  0  0  0  0  0  0
    6.0102    3.1812   22.7487 C   0  0  0  0  0  0  0  0  0  0  0  0
    5.0551    3.7197   21.8879 C   0  0  0  0  0  0  0  0  0  0  0  0
    3.6935    3.6223   22.2007 C   0  0  0  0  0  0  0  0  0  0  0  0
    3.2950    3.0099   23.3977 C   0  0  0  0  0  0  0  0  0  0  0  0
    4.2569    2.4617   24.2600 C   0  0  0  0  0  0  0  0  0  0  0  0
    5.6120    2.5105   23.9249 C   0  0  0  0  0  0  0  0  0  0  0  0
    6.5966    1.8402   24.6807 N   0  0  0  0  0  0  0  0  0  0  0  0
    7.9344    1.8615   24.3866 C   0  0  0  0  0  0  0  0  0  0  0  0
    8.7374    1.3606   25.1443 O   0  0  0  0  0  0  0  0  0  0  0  0
    6.4752    1.6369   25.6643 H   0  0  0  0  0  0  0  0  0  0  0  0
    3.9818    1.9858   25.1979 H   0  0  0  0  0  0  0  0  0  0  0  0
    2.2431    2.9554   23.6675 H   0  0  0  0  0  0  0  0  0  0  0  0
    2.9523    4.0204   21.5096 H   0  0  0  0  0  0  0  0  0  0  0  0
    5.4086    4.1991   20.9815 H   0  0  0  0  0  0  0  0  0  0  0  0
   10.4350    2.6983   23.5184 H   0  0  0  0  0  0  0  0  0  0  0  0
    9.4334    4.1694   23.7337 H   0  0  0  0  0  0  0  0  0  0  0  0
    9.8709    3.6311   22.1059 H   0  0  0  0  0  0  0  0  0  0  0  0
  1  2  1  0
  2  3  1  0
  3  4  2  0
  3  5  1  0
  5  6  1  0
  6  7  1  0
  7  8  1  0
  8  9  1  0
  9 10  1  0
 10 11  1  0
  9 12  1  0
  9 13  1  0
  8 14  1  0
  8 15  1  0
  7 16  1  0
  7 17  1  0
  6 18  1  0
 18 19  2  0
 19 20  1  0
 20 21  2  0
 21 22  1  0
 22 23  2  0
 23 24  1  0
 21 25  1  0
 20 26  1  0
 19 27  1  0
  6 28  1  0
  5 29  1  0
  2 30  1  0
 30 31  1  0
 31 32  2  0
 32 33  1  0
 33 34  2  0
 34 35  1  0
 35 36  2  0
 36 37  1  0
 37 38  1  0
 38 39  2  0
 37 40  1  0
 35 41  1  0
 34 42  1  0
 33 43  1  0
 32 44  1  0
  1 45  1  0
  1 46  1  0
  1 47  1  0
 38  2  1  0
 23 18  1  0
 36 31  1  0
M  END
>  <plip>  (1) 
-0.10344827586206896

>  <filename>  (1) 
[H][O][C]([H])([H])[C]([H])([H])[C]([H])([H])[C]([H])([c]1[c]([H])[n][c]([H])[c]([H])[c]1[H])[N]([H])[C](=[O])[C]1([C]([H])([H])[H])[O][c]2[c]([H])[c]([H])[c]([H])[c]([H])[c]2[N]([H])[C]1=[O]

$$$$
