
     RDKit          3D

 56 59  0  0  0  0  0  0  0  0999 V2000
    5.1316    2.6905   25.2345 O   0  0  0  0  0  0  0  0  0  0  0  0
    5.5871    3.6160   24.5889 C   0  0  0  0  0  0  0  0  0  0  0  0
    4.9289    4.7874   24.3207 N   0  0  0  0  0  0  0  0  0  0  0  0
    5.6849    5.6161   23.5091 C   0  0  0  0  0  0  0  0  0  0  0  0
    5.4397    6.8603   22.9465 C   0  0  0  0  0  0  0  0  0  0  0  0
    6.4399    7.4278   22.1484 C   0  0  0  0  0  0  0  0  0  0  0  0
    7.6521    6.7511   21.9224 C   0  0  0  0  0  0  0  0  0  0  0  0
    7.8981    5.4950   22.4862 C   0  0  0  0  0  0  0  0  0  0  0  0
    6.9012    4.9386   23.2859 C   0  0  0  0  0  0  0  0  0  0  0  0
    6.8288    3.7295   23.9743 N   0  0  0  0  0  0  0  0  0  0  0  0
    7.8071    2.6614   23.9323 C   0  0  0  0  0  0  0  0  0  0  0  0
    7.6730    1.8000   22.6704 C   0  0  0  0  0  0  0  0  0  0  0  0
    8.6863    0.6657   22.6490 C   0  0  0  0  0  0  0  0  0  0  0  0
    8.6915   -0.0666   21.3169 N   0  0  0  0  0  4  0  0  0  0  0  0
    7.3707   -0.7500   20.9868 C   0  0  0  0  0  0  0  0  0  0  0  0
    6.6473    0.0253   19.9191 C   0  0  0  0  0  0  0  0  0  0  0  0
    5.4278    0.6660   20.1519 C   0  0  0  0  0  0  0  0  0  0  0  0
    4.7974    1.3220   19.0921 C   0  0  0  0  0  0  0  0  0  0  0  0
    5.4028    1.3035   17.8335 C   0  0  0  0  0  0  0  0  0  0  0  0
    6.5718    0.6911   17.5906 N   0  0  0  0  0  0  0  0  0  0  0  0
    7.1787    0.0888   18.6190 C   0  0  0  0  0  0  0  0  0  0  0  0
    8.1249   -0.3996   18.3731 H   0  0  0  0  0  0  0  0  0  0  0  0
    4.9333    1.7952   16.9815 H   0  0  0  0  0  0  0  0  0  0  0  0
    3.8619    1.8508   19.2300 H   0  0  0  0  0  0  0  0  0  0  0  0
    4.9757    0.6496   21.1468 H   0  0  0  0  0  0  0  0  0  0  0  0
    7.5903   -1.7629   20.6395 H   0  0  0  0  0  0  0  0  0  0  0  0
    6.7634   -0.8213   21.8932 H   0  0  0  0  0  0  0  0  0  0  0  0
    9.8797   -0.9822   21.1347 C   0  0  0  0  0  0  0  0  0  0  0  0
   10.0533   -2.1076   22.1578 C   0  0  0  0  0  0  0  0  0  0  0  0
    8.8496   -2.8681   22.7219 C   0  0  0  0  0  0  0  0  0  0  0  0
    9.3978   -3.5763   23.9666 C   0  0  0  0  0  0  0  0  0  0  0  0
   10.4616   -2.6216   24.4946 N   0  0  0  0  0  4  0  0  0  0  0  0
   10.8596   -1.6777   23.3743 C   0  0  0  0  0  0  0  0  0  0  0  0
   11.9175   -1.7607   23.1079 H   0  0  0  0  0  0  0  0  0  0  0  0
   10.7083   -0.6427   23.6854 H   0  0  0  0  0  0  0  0  0  0  0  0
   11.2912   -3.1196   24.8923 H   0  0  0  0  0  0  0  0  0  0  0  0
   10.0466   -2.0731   25.2920 H   0  0  0  0  0  0  0  0  0  0  0  0
    9.8426   -4.5464   23.7268 H   0  0  0  0  0  0  0  0  0  0  0  0
    8.6337   -3.7630   24.7268 H   0  0  0  0  0  0  0  0  0  0  0  0
    8.0560   -2.1758   23.0224 H   0  0  0  0  0  0  0  0  0  0  0  0
    8.4175   -3.5718   22.0018 H   0  0  0  0  0  0  0  0  0  0  0  0
   10.7005   -2.8284   21.6609 H   0  0  0  0  0  0  0  0  0  0  0  0
   10.7929   -0.3710   21.1384 H   0  0  0  0  0  0  0  0  0  0  0  0
    9.8234   -1.4218   20.1328 H   0  0  0  0  0  0  0  0  0  0  0  0
    8.7056    0.6846   20.5949 H   0  0  0  0  0  0  0  0  0  0  0  0
    8.4661   -0.0393   23.4660 H   0  0  0  0  0  0  0  0  0  0  0  0
    9.6944    1.0679   22.8337 H   0  0  0  0  0  0  0  0  0  0  0  0
    7.7983    2.4320   21.7784 H   0  0  0  0  0  0  0  0  0  0  0  0
    6.6544    1.3969   22.6237 H   0  0  0  0  0  0  0  0  0  0  0  0
    7.6758    2.0711   24.8492 H   0  0  0  0  0  0  0  0  0  0  0  0
    8.7993    3.1348   23.9808 H   0  0  0  0  0  0  0  0  0  0  0  0
    8.8278    4.9649   22.3014 H   0  0  0  0  0  0  0  0  0  0  0  0
    8.4093    7.2061   21.2953 H   0  0  0  0  0  0  0  0  0  0  0  0
    6.2759    8.3999   21.6906 H   0  0  0  0  0  0  0  0  0  0  0  0
    4.4986    7.3680   23.1202 H   0  0  0  0  0  0  0  0  0  0  0  0
    3.9938    4.8550   24.6698 H   0  0  0  0  0  0  0  0  0  0  0  0
  1  2  2  0
  2  3  1  0
  3  4  1  0
  4  5  2  0
  5  6  1  0
  6  7  2  0
  7  8  1  0
  8  9  2  0
  9 10  1  0
 10 11  1  0
 11 12  1  0
 12 13  1  0
 13 14  1  0
 14 15  1  0
 15 16  1  0
 16 17  2  0
 17 18  1  0
 18 19  2  0
 19 20  1  0
 20 21  2  0
 21 22  1  0
 19 23  1  0
 18 24  1  0
 17 25  1  0
 15 26  1  0
 15 27  1  0
 14 28  1  0
 28 29  1  0
 29 30  1  0
 30 31  1  0
 31 32  1  0
 32 33  1  0
 33 34  1  0
 33 35  1  0
 32 36  1  0
 32 37  1  0
 31 38  1  0
 31 39  1  0
 30 40  1  0
 30 41  1  0
 29 42  1  0
 28 43  1  0
 28 44  1  0
 14 45  1  0
 13 46  1  0
 13 47  1  0
 12 48  1  0
 12 49  1  0
 11 50  1  0
 11 51  1  0
  8 52  1  0
  7 53  1  0
  6 54  1  0
  5 55  1  0
  3 56  1  0
 10  2  1  0
 21 16  1  0
 33 29  1  0
  9  4  1  0
M  CHG  2  14   1  32   1
M  END
>  <plip>  (1) 
-0.07142857142857142

>  <filename>  (1) 
[H][c]1[n][c]([H])[c]([C]([H])([H])[N+]([H])([C]([H])([H])[C]([H])([H])[C]([H])([H])[n]2[c](=[O])[n]([H])[c]3[c]([H])[c]([H])[c]([H])[c]([H])[c]32)[C]([H])([H])[C]2([H])[C]([H])([H])[C]([H])([H])[N+]([H])([H])[C]2([H])[H])[c]([H])[c]1[H]

$$$$
