
     RDKit          3D

 48 50  0  0  0  0  0  0  0  0999 V2000
    9.6253   -0.1438   21.0035 C   0  0  0  0  0  0  0  0  0  0  0  0
    8.4779   -1.1605   21.0430 C   0  0  0  0  0  0  0  0  0  0  0  0
    7.2198   -0.4656   21.0899 O   0  0  0  0  0  0  0  0  0  0  0  0
    6.6688    0.0628   19.9588 C   0  0  0  0  0  0  0  0  0  0  0  0
    5.4323    0.6995   20.1436 C   0  0  0  0  0  0  0  0  0  0  0  0
    4.8210    1.3162   19.0548 C   0  0  0  0  0  0  0  0  0  0  0  0
    5.4509    1.2750   17.8053 C   0  0  0  0  0  0  0  0  0  0  0  0
    6.6113    0.6385   17.6013 N   0  0  0  0  0  0  0  0  0  0  0  0
    7.2004    0.0414   18.6512 C   0  0  0  0  0  0  0  0  0  0  0  0
    8.1323   -0.4753   18.4334 H   0  0  0  0  0  0  0  0  0  0  0  0
    5.0051    1.7641   16.9406 H   0  0  0  0  0  0  0  0  0  0  0  0
    3.8764    1.8393   19.1654 H   0  0  0  0  0  0  0  0  0  0  0  0
    4.9953    0.6910   21.1401 H   0  0  0  0  0  0  0  0  0  0  0  0
    8.5300   -2.1884   22.2086 C   0  0  0  0  0  0  0  0  0  0  0  0
    9.0220   -3.2880   22.0441 O   0  0  0  0  0  0  0  0  0  0  0  0
    7.9730   -1.8244   23.4171 N   0  0  0  0  0  0  0  0  0  0  0  0
    8.2993   -2.5766   24.6443 C   0  0  0  0  0  0  0  0  0  0  0  0
    7.6660   -1.9243   25.8843 C   0  0  0  0  0  0  0  0  0  0  0  0
    6.1309   -2.1132   25.9241 C   0  0  0  0  0  0  0  0  0  0  0  0
    5.5671   -1.4589   24.7024 N   0  0  0  0  0  4  0  0  0  0  0  0
    5.4450    0.0319   24.8619 C   0  0  0  0  0  0  0  0  0  0  0  0
    4.4027    0.3239   25.9376 C   0  0  0  0  0  0  0  0  0  0  0  0
    4.7043   -0.4243   27.2250 C   0  0  0  0  0  0  0  0  0  0  0  0
    4.2507    0.0636   28.4623 C   0  0  0  0  0  0  0  0  0  0  0  0
    4.4246   -0.6670   29.6426 C   0  0  0  0  0  0  0  0  0  0  0  0
    5.0104   -1.9383   29.5854 C   0  0  0  0  0  0  0  0  0  0  0  0
    5.4636   -2.4299   28.3538 C   0  0  0  0  0  0  0  0  0  0  0  0
    5.4115   -1.6432   27.1900 C   0  0  0  0  0  0  0  0  0  0  0  0
    5.8699   -3.4395   28.2812 H   0  0  0  0  0  0  0  0  0  0  0  0
    5.1072   -2.5341   30.4931 H   0  0  0  0  0  0  0  0  0  0  0  0
    4.0988   -0.2467   30.5946 H   0  0  0  0  0  0  0  0  0  0  0  0
    3.7438    1.0257   28.4809 H   0  0  0  0  0  0  0  0  0  0  0  0
    3.4073    0.0324   25.5645 H   0  0  0  0  0  0  0  0  0  0  0  0
    4.3657    1.4010   26.1150 H   0  0  0  0  0  0  0  0  0  0  0  0
    5.1587    0.5034   23.9128 H   0  0  0  0  0  0  0  0  0  0  0  0
    6.4080    0.4625   25.1664 H   0  0  0  0  0  0  0  0  0  0  0  0
    4.5924   -1.8208   24.5306 H   0  0  0  0  0  0  0  0  0  0  0  0
    6.1213   -1.7318   23.8648 H   0  0  0  0  0  0  0  0  0  0  0  0
    5.9428   -3.1891   25.8514 H   0  0  0  0  0  0  0  0  0  0  0  0
    7.9220   -0.8554   25.9014 H   0  0  0  0  0  0  0  0  0  0  0  0
    8.1049   -2.3686   26.7811 H   0  0  0  0  0  0  0  0  0  0  0  0
    9.3889   -2.6419   24.7535 H   0  0  0  0  0  0  0  0  0  0  0  0
    7.9338   -3.6082   24.5262 H   0  0  0  0  0  0  0  0  0  0  0  0
    7.8538   -0.8272   23.5192 H   0  0  0  0  0  0  0  0  0  0  0  0
    8.5240   -1.7959   20.1511 H   0  0  0  0  0  0  0  0  0  0  0  0
    9.5242    0.4960   20.1192 H   0  0  0  0  0  0  0  0  0  0  0  0
   10.5930   -0.6487   20.9287 H   0  0  0  0  0  0  0  0  0  0  0  0
    9.6136    0.5002   21.8903 H   0  0  0  0  0  0  0  0  0  0  0  0
  1  2  1  0
  2  3  1  0
  3  4  1  0
  4  5  2  0
  5  6  1  0
  6  7  2  0
  7  8  1  0
  8  9  2  0
  9 10  1  0
  7 11  1  0
  6 12  1  0
  5 13  1  0
  2 14  1  0
 14 15  2  0
 14 16  1  0
 16 17  1  0
 17 18  1  0
 18 19  1  0
 19 20  1  0
 20 21  1  0
 21 22  1  0
 22 23  1  0
 23 24  2  0
 24 25  1  0
 25 26  2  0
 26 27  1  0
 27 28  2  0
 27 29  1  0
 26 30  1  0
 25 31  1  0
 24 32  1  0
 22 33  1  0
 22 34  1  0
 21 35  1  0
 21 36  1  0
 20 37  1  0
 20 38  1  0
 19 39  1  0
 18 40  1  0
 18 41  1  0
 17 42  1  0
 17 43  1  0
 16 44  1  0
  2 45  1  0
  1 46  1  0
  1 47  1  0
  1 48  1  0
  9  4  1  0
 28 19  1  0
 28 23  1  0
M  CHG  1  20   1
M  END
>  <plip>  (1) 
-0.07142857142857142

>  <filename>  (1) 
[H][c]1[n][c]([H])[c]([O][C]([H])([C](=[O])[N]([H])[C]([H])([H])[C]([H])([H])[C]2([H])[c]3[c]([H])[c]([H])[c]([H])[c]([H])[c]3[C]([H])([H])[C]([H])([H])[N+]2([H])[H])[C]([H])([H])[H])[c]([H])[c]1[H]

$$$$
