
     RDKit          3D

 30 32  0  0  0  0  0  0  0  0999 V2000
    4.9561    1.7997   16.9738 H   0  0  0  0  0  0  0  0  0  0  0  0
    5.4062    1.2923   17.8229 C   0  0  0  0  0  0  0  0  0  0  0  0
    6.5757    0.6782   17.5911 N   0  0  0  0  0  0  0  0  0  0  0  0
    7.1864    0.0878   18.6246 C   0  0  0  0  0  0  0  0  0  0  0  0
    8.1440   -0.3904   18.4152 H   0  0  0  0  0  0  0  0  0  0  0  0
    6.6534    0.0576   19.9298 C   0  0  0  0  0  0  0  0  0  0  0  0
    7.3320   -0.6531   20.9688 N   0  0  0  0  0  0  0  0  0  0  0  0
    7.6472   -1.9884   20.9931 C   0  0  0  0  0  0  0  0  0  0  0  0
    7.3198   -2.6314   20.1987 H   0  0  0  0  0  0  0  0  0  0  0  0
    8.2361   -2.3551   22.1012 N   0  0  0  0  0  0  0  0  0  0  0  0
    8.2739   -1.2312   22.8692 C   0  0  0  0  0  0  0  0  0  0  0  0
    8.6489   -1.2732   23.8862 H   0  0  0  0  0  0  0  0  0  0  0  0
    7.7038   -0.1652   22.2234 C   0  0  0  0  0  0  0  0  0  0  0  0
    7.3886    1.1703   22.7645 C   0  0  0  0  0  0  0  0  0  0  0  0
    7.4191    2.1692   22.0645 O   0  0  0  0  0  0  0  0  0  0  0  0
    7.0246    1.2954   24.2334 C   0  0  0  0  0  0  0  0  0  0  0  0
    7.3631    2.4975   24.8833 C   0  0  0  0  0  0  0  0  0  0  0  0
    7.8477    3.2757   24.3010 H   0  0  0  0  0  0  0  0  0  0  0  0
    7.0832    2.6938   26.2323 C   0  0  0  0  0  0  0  0  0  0  0  0
    7.3659    3.6145   26.7340 H   0  0  0  0  0  0  0  0  0  0  0  0
    6.4346    1.6784   26.9393 C   0  0  0  0  0  0  0  0  0  0  0  0
    6.0789    1.9208   28.6220 Cl  0  0  0  0  0  0  0  0  0  0  0  0
    6.0604    0.4822   26.3201 C   0  0  0  0  0  0  0  0  0  0  0  0
    5.5599   -0.2870   26.9006 H   0  0  0  0  0  0  0  0  0  0  0  0
    6.3495    0.2955   24.9643 C   0  0  0  0  0  0  0  0  0  0  0  0
    6.0473   -0.6349   24.4826 H   0  0  0  0  0  0  0  0  0  0  0  0
    5.4150    0.6750   20.1545 C   0  0  0  0  0  0  0  0  0  0  0  0
    4.9642    0.6663   21.1506 H   0  0  0  0  0  0  0  0  0  0  0  0
    4.7889    1.3089   19.0791 C   0  0  0  0  0  0  0  0  0  0  0  0
    3.8474    1.8246   19.2066 H   0  0  0  0  0  0  0  0  0  0  0  0
  1  2  1  0
  2  3  2  0
  3  4  1  0
  4  5  1  0
  4  6  2  0
  6  7  1  0
  7  8  1  0
  8  9  1  0
  8 10  2  0
 10 11  1  0
 11 12  1  0
 11 13  2  0
 13 14  1  0
 14 15  2  0
 14 16  1  0
 16 17  2  0
 17 18  1  0
 17 19  1  0
 19 20  1  0
 19 21  2  0
 21 22  1  0
 21 23  1  0
 23 24  1  0
 23 25  2  0
 25 26  1  0
  6 27  1  0
 27 28  1  0
 27 29  2  0
 29 30  1  0
 29  2  1  0
 13  7  1  0
 25 16  1  0
M  END
>  <plip>  (1) 
-0.0

>  <filename>  (1) 
[H][c]1[n][c]([H])[c](-[n]2[c]([H])[n][c]([H])[c]2[C](=[O])[c]2[c]([H])[c]([H])[c]([Cl])[c]([H])[c]2[H])[c]([H])[c]1[H]

$$$$
