
     RDKit          3D

 32 34  0  0  0  0  0  0  0  0999 V2000
    9.3348   -3.2225   21.7138 H   0  0  0  0  0  0  0  0  0  0  0  0
    8.7403   -2.3205   21.8474 C   0  0  0  0  0  0  0  0  0  0  0  0
    8.5157   -1.9288   23.1113 N   0  0  0  0  0  0  0  0  0  0  0  0
    7.8019   -0.8196   23.2921 C   0  0  0  0  0  0  0  0  0  0  0  0
    7.7140   -0.1274   25.1219 S   0  0  0  0  0  0  0  0  0  0  0  0
    7.6638   -1.2273   26.0878 O   0  0  0  0  0  0  0  0  0  0  0  0
    8.6458    0.9896   25.3090 O   0  0  0  0  0  0  0  0  0  0  0  0
    6.0756    0.6204   25.1156 C   0  0  0  0  0  0  0  0  0  0  0  0
    5.9303    1.9457   24.6845 C   0  0  0  0  0  0  0  0  0  0  0  0
    6.7902    2.5133   24.3281 H   0  0  0  0  0  0  0  0  0  0  0  0
    4.6619    2.5303   24.7246 C   0  0  0  0  0  0  0  0  0  0  0  0
    4.5426    3.5666   24.4124 H   0  0  0  0  0  0  0  0  0  0  0  0
    3.5570    1.7900   25.1670 C   0  0  0  0  0  0  0  0  0  0  0  0
    2.5749    2.2558   25.2197 H   0  0  0  0  0  0  0  0  0  0  0  0
    3.7172    0.4510   25.5483 C   0  0  0  0  0  0  0  0  0  0  0  0
    2.8634   -0.1357   25.8806 H   0  0  0  0  0  0  0  0  0  0  0  0
    4.9787   -0.1473   25.5152 C   0  0  0  0  0  0  0  0  0  0  0  0
    5.1094   -1.1870   25.8152 H   0  0  0  0  0  0  0  0  0  0  0  0
    7.1720   -0.1522   22.3260 N   0  0  0  0  0  0  0  0  0  0  0  0
    7.3805   -0.5649   21.0597 C   0  0  0  0  0  0  0  0  0  0  0  0
    6.6329    0.1037   19.9856 C   0  0  0  0  0  0  0  0  0  0  0  0
    7.1648    0.0977   18.6870 C   0  0  0  0  0  0  0  0  0  0  0  0
    8.1182   -0.3821   18.4696 H   0  0  0  0  0  0  0  0  0  0  0  0
    6.5780    0.6678   17.6366 N   0  0  0  0  0  0  0  0  0  0  0  0
    5.4080    1.2851   17.8535 C   0  0  0  0  0  0  0  0  0  0  0  0
    4.9719    1.7718   16.9882 H   0  0  0  0  0  0  0  0  0  0  0  0
    4.7712    1.3284   19.0985 C   0  0  0  0  0  0  0  0  0  0  0  0
    3.8259    1.8500   19.1995 H   0  0  0  0  0  0  0  0  0  0  0  0
    5.3909    0.7277   20.1916 C   0  0  0  0  0  0  0  0  0  0  0  0
    4.9349    0.7332   21.1860 H   0  0  0  0  0  0  0  0  0  0  0  0
    8.2372   -1.6174   20.7718 C   0  0  0  0  0  0  0  0  0  0  0  0
    8.4770   -1.8407   19.7561 H   0  0  0  0  0  0  0  0  0  0  0  0
  1  2  1  0
  2  3  2  0
  3  4  1  0
  4  5  1  0
  5  6  2  0
  5  7  2  0
  5  8  1  0
  8  9  2  0
  9 10  1  0
  9 11  1  0
 11 12  1  0
 11 13  2  0
 13 14  1  0
 13 15  1  0
 15 16  1  0
 15 17  2  0
 17 18  1  0
  4 19  2  0
 19 20  1  0
 20 21  1  0
 21 22  2  0
 22 23  1  0
 22 24  1  0
 24 25  2  0
 25 26  1  0
 25 27  1  0
 27 28  1  0
 27 29  2  0
 29 30  1  0
 20 31  2  0
 31 32  1  0
 31  2  1  0
 17  8  1  0
 29 21  1  0
M  END
>  <plip>  (1) 
-0.0

>  <filename>  (1) 
[H][c]1[n][c]([S](=[O])(=[O])[c]2[c]([H])[c]([H])[c]([H])[c]([H])[c]2[H])[n][c](-[c]2[c]([H])[n][c]([H])[c]([H])[c]2[H])[c]1[H]

$$$$
