
     RDKit          3D

 26 27  0  0  0  0  0  0  0  0999 V2000
    4.9771    1.7896   17.0169 H   0  0  0  0  0  0  0  0  0  0  0  0
    5.4318    1.2767   17.8567 C   0  0  0  0  0  0  0  0  0  0  0  0
    6.5864    0.6394   17.6071 N   0  0  0  0  0  0  0  0  0  0  0  0
    7.1851    0.0154   18.6213 C   0  0  0  0  0  0  0  0  0  0  0  0
    8.1209   -0.4892   18.3896 H   0  0  0  0  0  0  0  0  0  0  0  0
    6.6605   -0.0130   19.9217 C   0  0  0  0  0  0  0  0  0  0  0  0
    7.3822   -0.6884   20.9399 N   0  0  0  0  0  0  0  0  0  0  0  0
    6.7760   -1.0608   22.0695 N   0  0  0  0  0  0  0  0  0  0  0  0
    7.6548   -1.6541   22.8242 N   0  0  0  0  0  0  0  0  0  0  0  0
    8.8393   -1.6579   22.1676 C   0  0  0  0  0  0  0  0  0  0  0  0
    9.9803   -2.2028   22.6107 O   0  0  0  0  0  0  0  0  0  0  0  0
    9.9914   -2.7900   23.9200 C   0  0  0  0  0  0  0  0  0  0  0  0
   11.0516   -2.9479   24.1344 H   0  0  0  0  0  0  0  0  0  0  0  0
    9.5880   -2.0804   24.6497 H   0  0  0  0  0  0  0  0  0  0  0  0
    9.2573   -4.1439   24.0098 C   0  0  0  0  0  0  0  0  0  0  0  0
    9.5489   -4.7321   23.1347 H   0  0  0  0  0  0  0  0  0  0  0  0
    8.1771   -3.9777   23.9206 H   0  0  0  0  0  0  0  0  0  0  0  0
    9.5242   -4.9377   25.2083 N   0  0  0  0  0  0  0  0  0  0  0  0
    9.1650   -4.4971   26.0519 H   0  0  0  0  0  0  0  0  0  0  0  0
   10.5225   -5.0778   25.3364 H   0  0  0  0  0  0  0  0  0  0  0  0
    8.6945   -1.0448   20.9571 C   0  0  0  0  0  0  0  0  0  0  0  0
    9.4114   -0.8633   20.1776 H   0  0  0  0  0  0  0  0  0  0  0  0
    5.4451    0.6413   20.1814 C   0  0  0  0  0  0  0  0  0  0  0  0
    5.0178    0.6305   21.1862 H   0  0  0  0  0  0  0  0  0  0  0  0
    4.8233    1.2976   19.1192 C   0  0  0  0  0  0  0  0  0  0  0  0
    3.8869    1.8312   19.2602 H   0  0  0  0  0  0  0  0  0  0  0  0
  1  2  1  0
  2  3  2  0
  3  4  1  0
  4  5  1  0
  4  6  2  0
  6  7  1  0
  7  8  1  0
  8  9  2  0
  9 10  1  0
 10 11  1  0
 11 12  1  0
 12 13  1  0
 12 14  1  0
 12 15  1  0
 15 16  1  0
 15 17  1  0
 15 18  1  0
 18 19  1  0
 18 20  1  0
 10 21  2  0
 21 22  1  0
  6 23  1  0
 23 24  1  0
 23 25  2  0
 25 26  1  0
 25  2  1  0
 21  7  1  0
M  END
>  <plip>  (1) 
-0.10714285714285714

>  <filename>  (1) 
[H][c]1[n][c]([H])[c](-[n]2[n][n][c]([O][C]([H])([H])[C]([H])([H])[N]([H])[H])[c]2[H])[c]([H])[c]1[H]

$$$$
