
     RDKit          3D

 27 28  0  0  0  0  0  0  0  0999 V2000
    4.9215    1.7984   16.9756 H   0  0  0  0  0  0  0  0  0  0  0  0
    5.3948    1.3037   17.8208 C   0  0  0  0  0  0  0  0  0  0  0  0
    6.5573    0.6855   17.5663 N   0  0  0  0  0  0  0  0  0  0  0  0
    7.1507    0.0744   18.6003 C   0  0  0  0  0  0  0  0  0  0  0  0
    8.0968   -0.4055   18.3649 H   0  0  0  0  0  0  0  0  0  0  0  0
    6.6329    0.0002   19.9069 C   0  0  0  0  0  0  0  0  0  0  0  0
    7.4448   -0.7321   20.9689 C   0  0  1  0  0  0  0  0  0  0  0  0
    7.7632   -1.6809   20.5185 H   0  0  0  0  0  0  0  0  0  0  0  0
    8.7457   -0.0462   21.2918 C   0  0  0  0  0  0  0  0  0  0  0  0
   10.0006   -0.6066   21.3754 C   0  0  0  0  0  0  0  0  0  0  0  0
   10.2358   -1.6437   21.1805 H   0  0  0  0  0  0  0  0  0  0  0  0
   10.8374    0.4515   21.7676 C   0  0  0  0  0  0  0  0  0  0  0  0
   11.8984    0.4391   21.9515 H   0  0  0  0  0  0  0  0  0  0  0  0
   10.1575    1.5783   21.9090 N   0  0  0  0  0  0  0  0  0  0  0  0
    8.8891    1.2599   21.6315 N   0  0  0  0  0  0  0  0  0  0  0  0
    7.8918    2.3007   21.6650 C   0  0  0  0  0  0  0  0  0  0  0  0
    7.5580    2.5289   20.6580 H   0  0  0  0  0  0  0  0  0  0  0  0
    8.3295    3.1749   22.1418 H   0  0  0  0  0  0  0  0  0  0  0  0
    7.0092    1.9842   22.2192 H   0  0  0  0  0  0  0  0  0  0  0  0
    6.6640   -1.0930   22.2417 C   0  0  0  0  0  0  0  0  0  0  0  0
    7.2562   -1.7463   22.8917 H   0  0  0  0  0  0  0  0  0  0  0  0
    6.4052   -0.2004   22.8262 H   0  0  0  0  0  0  0  0  0  0  0  0
    5.7465   -1.6243   21.9711 H   0  0  0  0  0  0  0  0  0  0  0  0
    5.4156    0.6496   20.1454 C   0  0  0  0  0  0  0  0  0  0  0  0
    4.9722    0.6443   21.1469 H   0  0  0  0  0  0  0  0  0  0  0  0
    4.7968    1.3186   19.0854 C   0  0  0  0  0  0  0  0  0  0  0  0
    3.8679    1.8476   19.2403 H   0  0  0  0  0  0  0  0  0  0  0  0
  1  2  1  0
  2  3  2  0
  3  4  1  0
  4  5  1  0
  4  6  2  0
  6  7  1  0
  7  8  1  6
  7  9  1  0
  9 10  2  0
 10 11  1  0
 10 12  1  0
 12 13  1  0
 12 14  2  0
 14 15  1  0
 15 16  1  0
 16 17  1  0
 16 18  1  0
 16 19  1  0
  7 20  1  0
 20 21  1  0
 20 22  1  0
 20 23  1  0
  6 24  1  0
 24 25  1  0
 24 26  2  0
 26 27  1  0
 26  2  1  0
 15  9  1  0
M  END
>  <plip>  (1) 
-0.07142857142857142

>  <filename>  (1) 
[H][c]1[n][c]([H])[c]([C@@]([H])([c]2[c]([H])[c]([H])[n][n]2[C]([H])([H])[H])[C]([H])([H])[H])[c]([H])[c]1[H]

$$$$
