
     RDKit          3D

 30 32  0  0  0  0  0  0  0  0999 V2000
    4.9298    1.8129   16.9755 H   0  0  0  0  0  0  0  0  0  0  0  0
    5.3901    1.3047   17.8221 C   0  0  0  0  0  0  0  0  0  0  0  0
    6.5510    0.6771   17.5757 N   0  0  0  0  0  0  0  0  0  0  0  0
    7.1572    0.0700   18.6055 C   0  0  0  0  0  0  0  0  0  0  0  0
    8.1043   -0.4127   18.3696 H   0  0  0  0  0  0  0  0  0  0  0  0
    6.6361    0.0262   19.9112 C   0  0  0  0  0  0  0  0  0  0  0  0
    7.3744   -0.7089   21.0200 C   0  0  2  0  0  0  0  0  0  0  0  0
    6.9244   -0.4264   21.9899 H   0  0  0  0  0  0  0  0  0  0  0  0
    8.7940   -0.3535   21.0626 N   0  0  0  0  0  0  0  0  0  0  0  0
    9.1984    0.9275   21.4798 N   0  0  0  0  0  0  0  0  0  0  0  0
    8.6271    1.6502   21.0378 H   0  0  0  0  0  0  0  0  0  0  0  0
    9.2045    1.0747   22.9163 C   0  0  0  0  0  0  0  0  0  0  0  0
    8.2708    0.8390   23.4269 H   0  0  0  0  0  0  0  0  0  0  0  0
   10.0837    2.1416   23.4732 C   0  0  0  0  0  0  0  0  0  0  0  0
    9.7188    2.6879   24.3388 H   0  0  0  0  0  0  0  0  0  0  0  0
   10.6052    2.7484   22.7425 H   0  0  0  0  0  0  0  0  0  0  0  0
   10.4781    0.7004   23.6021 C   0  0  0  0  0  0  0  0  0  0  0  0
   10.4202    0.2127   24.5699 H   0  0  0  0  0  0  0  0  0  0  0  0
   11.2309    0.2913   22.9358 H   0  0  0  0  0  0  0  0  0  0  0  0
    9.6201   -1.4826   21.1171 C   0  0  0  0  0  0  0  0  0  0  0  0
   10.8241   -1.5702   21.2252 O   0  0  0  0  0  0  0  0  0  0  0  0
    8.7997   -2.5777   21.0177 N   0  0  0  0  0  0  0  0  0  0  0  0
    9.3079   -3.3677   20.6592 H   0  0  0  0  0  0  0  0  0  0  0  0
    7.3955   -2.2514   20.8563 C   0  0  0  0  0  0  0  0  0  0  0  0
    6.9704   -2.5304   19.8828 H   0  0  0  0  0  0  0  0  0  0  0  0
    6.7786   -2.7360   21.6198 H   0  0  0  0  0  0  0  0  0  0  0  0
    5.4140    0.6727   20.1409 C   0  0  0  0  0  0  0  0  0  0  0  0
    4.9707    0.6669   21.1371 H   0  0  0  0  0  0  0  0  0  0  0  0
    4.7767    1.3237   19.0789 C   0  0  0  0  0  0  0  0  0  0  0  0
    3.8408    1.8622   19.2160 H   0  0  0  0  0  0  0  0  0  0  0  0
  1  2  1  0
  2  3  2  0
  3  4  1  0
  4  5  1  0
  4  6  2  0
  6  7  1  0
  7  8  1  1
  7  9  1  0
  9 10  1  0
 10 11  1  0
 10 12  1  0
 12 13  1  0
 12 14  1  0
 14 15  1  0
 14 16  1  0
 14 17  1  0
 17 18  1  0
 17 19  1  0
  9 20  1  0
 20 21  2  0
 20 22  1  0
 22 23  1  0
 22 24  1  0
 24 25  1  0
 24 26  1  0
  6 27  1  0
 27 28  1  0
 27 29  2  0
 29 30  1  0
 29  2  1  0
 24  7  1  0
 17 12  1  0
M  END
>  <plip>  (1) 
-0.06896551724137931

>  <filename>  (1) 
[H][c]1[n][c]([H])[c]([C@]2([H])[N]([N]([H])[C]3([H])[C]([H])([H])[C]3([H])[H])[C](=[O])[N]([H])[C]2([H])[H])[c]([H])[c]1[H]

$$$$
