
     RDKit          3D

 40 42  0  0  0  0  0  0  0  0999 V2000
    8.7978    0.0383   21.2509 C   0  0  0  0  0  0  0  0  0  0  0  0
    7.4428   -0.6654   21.1099 C   0  0  2  0  0  0  0  0  0  0  0  0
    7.6015   -2.1131   21.0734 N   0  0  0  0  0  0  0  0  0  0  0  0
    8.0517   -2.7914   22.1660 C   0  0  0  0  0  0  0  0  0  0  0  0
    8.3761   -2.2292   23.1987 O   0  0  0  0  0  0  0  0  0  0  0  0
    8.1415   -4.3197   22.0117 C   0  0  0  0  0  0  0  0  0  0  0  0
    6.8544   -5.0981   22.1559 C   0  0  0  0  0  0  0  0  0  0  0  0
    6.4109   -5.6151   23.3376 C   0  0  0  0  0  0  0  0  0  0  0  0
    5.1422   -6.3001   23.4416 C   0  0  0  0  0  0  0  0  0  0  0  0
    4.5682   -6.6823   24.6821 C   0  0  0  0  0  0  0  0  0  0  0  0
    3.2739   -7.1682   24.7396 C   0  0  0  0  0  0  0  0  0  0  0  0
    2.5261   -7.3432   23.5514 C   0  0  0  0  0  0  0  0  0  0  0  0
    3.0875   -7.0316   22.3143 C   0  0  0  0  0  0  0  0  0  0  0  0
    4.3876   -6.5092   22.2564 C   0  0  0  0  0  0  0  0  0  0  0  0
    4.9870   -6.1570   21.0527 N   0  0  0  0  0  0  0  0  0  0  0  0
    6.0390   -5.2941   20.9290 C   0  0  0  0  0  0  0  0  0  0  0  0
    6.2230   -4.7566   19.8449 O   0  0  0  0  0  0  0  0  0  0  0  0
    4.5456   -6.2221   20.1524 H   0  0  0  0  0  0  0  0  0  0  0  0
    2.5359   -7.1922   21.3896 H   0  0  0  0  0  0  0  0  0  0  0  0
    1.5007   -7.7029   23.6057 H   0  0  0  0  0  0  0  0  0  0  0  0
    2.8294   -7.4150   25.7032 H   0  0  0  0  0  0  0  0  0  0  0  0
    5.1677   -6.5758   25.5862 H   0  0  0  0  0  0  0  0  0  0  0  0
    7.0120   -5.5047   24.2432 H   0  0  0  0  0  0  0  0  0  0  0  0
    8.8768   -4.6435   22.7599 H   0  0  0  0  0  0  0  0  0  0  0  0
    8.5142   -4.5128   21.0042 H   0  0  0  0  0  0  0  0  0  0  0  0
    7.1600   -2.6444   20.3372 H   0  0  0  0  0  0  0  0  0  0  0  0
    6.6665   -0.1485   19.9158 C   0  0  0  0  0  0  0  0  0  0  0  0
    5.4591    0.5408   20.1120 C   0  0  0  0  0  0  0  0  0  0  0  0
    4.8703    1.2174   19.0431 C   0  0  0  0  0  0  0  0  0  0  0  0
    5.5036    1.1721   17.7968 C   0  0  0  0  0  0  0  0  0  0  0  0
    6.6215    0.4696   17.5644 N   0  0  0  0  0  0  0  0  0  0  0  0
    7.1758   -0.1766   18.6041 C   0  0  0  0  0  0  0  0  0  0  0  0
    8.0894   -0.7196   18.3588 H   0  0  0  0  0  0  0  0  0  0  0  0
    5.0885    1.7147   16.9483 H   0  0  0  0  0  0  0  0  0  0  0  0
    3.9625    1.7991   19.1737 H   0  0  0  0  0  0  0  0  0  0  0  0
    5.0032    0.5536   21.1055 H   0  0  0  0  0  0  0  0  0  0  0  0
    6.8702   -0.4121   22.0147 H   0  0  0  0  0  0  0  0  0  0  0  0
    8.6326    1.1117   21.3808 H   0  0  0  0  0  0  0  0  0  0  0  0
    9.4214   -0.1175   20.3641 H   0  0  0  0  0  0  0  0  0  0  0  0
    9.3228   -0.3481   22.1267 H   0  0  0  0  0  0  0  0  0  0  0  0
  1  2  1  0
  2  3  1  0
  3  4  1  0
  4  5  2  0
  4  6  1  0
  6  7  1  0
  7  8  2  0
  8  9  1  0
  9 10  2  0
 10 11  1  0
 11 12  2  0
 12 13  1  0
 13 14  2  0
 14 15  1  0
 15 16  1  0
 16 17  2  0
 15 18  1  0
 13 19  1  0
 12 20  1  0
 11 21  1  0
 10 22  1  0
  8 23  1  0
  6 24  1  0
  6 25  1  0
  3 26  1  0
  2 27  1  0
 27 28  2  0
 28 29  1  0
 29 30  2  0
 30 31  1  0
 31 32  2  0
 32 33  1  0
 30 34  1  0
 29 35  1  0
 28 36  1  0
  2 37  1  1
  1 38  1  0
  1 39  1  0
  1 40  1  0
 16  7  1  0
 32 27  1  0
 14  9  1  0
M  END
>  <plip>  (1) 
-0.13793103448275862

>  <filename>  (1) 
[H][c]1[n][c]([H])[c]([C@@]([H])([N]([H])[C](=[O])[C]([H])([H])[c]2[c]([H])[c]3[c]([H])[c]([H])[c]([H])[c]([H])[c]3[n]([H])[c]2=[O])[C]([H])([H])[H])[c]([H])[c]1[H]

$$$$
