
     RDKit          3D

 19 20  0  0  0  0  0  0  0  0999 V2000
    4.9166    1.7879   16.9903 H   0  0  0  0  0  0  0  0  0  0  0  0
    5.3977    1.2959   17.8317 C   0  0  0  0  0  0  0  0  0  0  0  0
    6.5603    0.6804   17.5581 N   0  0  0  0  0  0  0  0  0  0  0  0
    7.1605    0.0482   18.5735 C   0  0  0  0  0  0  0  0  0  0  0  0
    8.1185   -0.4234   18.3647 H   0  0  0  0  0  0  0  0  0  0  0  0
    6.6380   -0.0293   19.8764 C   0  0  0  0  0  0  0  0  0  0  0  0
    7.5871   -0.8442   21.1564 S   0  0  0  0  0  0  0  0  0  0  0  0
    8.4245    0.5957   21.7352 C   0  0  0  0  0  0  0  0  0  0  0  0
    9.6058    0.9488   21.1677 O   0  0  0  0  0  0  0  0  0  0  0  0
    9.9890    2.1216   21.7388 C   0  0  0  0  0  0  0  0  0  0  0  0
   10.9470    2.5151   21.4108 H   0  0  0  0  0  0  0  0  0  0  0  0
    9.0645    2.5313   22.6425 C   0  0  0  0  0  0  0  0  0  0  0  0
    9.1109    3.4200   23.2551 H   0  0  0  0  0  0  0  0  0  0  0  0
    8.0313    1.5374   22.6293 C   0  0  0  0  0  0  0  0  0  0  0  0
    7.1057    1.5143   23.1896 H   0  0  0  0  0  0  0  0  0  0  0  0
    5.4332    0.6338   20.1537 C   0  0  0  0  0  0  0  0  0  0  0  0
    5.0100    0.6255   21.1613 H   0  0  0  0  0  0  0  0  0  0  0  0
    4.8019    1.3088   19.1011 C   0  0  0  0  0  0  0  0  0  0  0  0
    3.8708    1.8466   19.2574 H   0  0  0  0  0  0  0  0  0  0  0  0
  1  2  1  0
  2  3  2  0
  3  4  1  0
  4  5  1  0
  4  6  2  0
  6  7  1  0
  7  8  1  0
  8  9  1  0
  9 10  1  0
 10 11  1  0
 10 12  2  0
 12 13  1  0
 12 14  1  0
 14 15  1  0
  6 16  1  0
 16 17  1  0
 16 18  2  0
 18 19  1  0
 18  2  1  0
 14  8  2  0
M  END
>  <plip>  (1) 
-0.03571428571428571

>  <filename>  (1) 
[H][c]1[n][c]([H])[c]([S][c]2[o][c]([H])[c]([H])[c]2[H])[c]([H])[c]1[H]

$$$$
