
     RDKit          3D

 30 31  0  0  0  0  0  0  0  0999 V2000
   10.6892    3.5845   21.1904 H   0  0  0  0  0  0  0  0  0  0  0  0
   10.2055    2.8832   21.6511 O   0  0  0  0  0  0  0  0  0  0  0  0
    9.1545    3.5231   22.2611 C   0  0  0  0  0  0  0  0  0  0  0  0
    9.3177    4.8796   22.5691 C   0  0  0  0  0  0  0  0  0  0  0  0
   10.2407    5.3737   22.2698 H   0  0  0  0  0  0  0  0  0  0  0  0
    8.3088    5.5863   23.2045 C   0  0  0  0  0  0  0  0  0  0  0  0
    8.5731    7.2646   23.5788 Cl  0  0  0  0  0  0  0  0  0  0  0  0
    7.1078    4.9510   23.5337 C   0  0  0  0  0  0  0  0  0  0  0  0
    6.3476    5.5210   24.0516 H   0  0  0  0  0  0  0  0  0  0  0  0
    6.9259    3.6051   23.2018 C   0  0  0  0  0  0  0  0  0  0  0  0
    6.0015    3.0705   23.4290 H   0  0  0  0  0  0  0  0  0  0  0  0
    7.9353    2.8696   22.5683 C   0  0  0  0  0  0  0  0  0  0  0  0
    7.5778    1.5630   22.3103 O   0  0  0  0  0  0  0  0  0  0  0  0
    8.5154    0.6511   21.7603 C   0  0  2  0  0  0  0  0  0  0  0  0
    9.0029    1.0928   20.8859 H   0  0  0  0  0  0  0  0  0  0  0  0
    7.5448   -0.7976   21.1851 S   0  0  0  0  0  0  0  0  0  0  0  0
    6.6370   -0.0145   19.8739 C   0  0  0  0  0  0  0  0  0  0  0  0
    7.1484    0.0257   18.5640 C   0  0  0  0  0  0  0  0  0  0  0  0
    8.0994   -0.4552   18.3305 H   0  0  0  0  0  0  0  0  0  0  0  0
    6.5412    0.6538   17.5502 N   0  0  0  0  0  0  0  0  0  0  0  0
    5.3889    1.2882   17.8149 C   0  0  0  0  0  0  0  0  0  0  0  0
    4.9369    1.8190   16.9796 H   0  0  0  0  0  0  0  0  0  0  0  0
    4.7862    1.3021   19.0769 C   0  0  0  0  0  0  0  0  0  0  0  0
    3.8606    1.8535   19.2274 H   0  0  0  0  0  0  0  0  0  0  0  0
    5.4245    0.6420   20.1319 C   0  0  0  0  0  0  0  0  0  0  0  0
    5.0213    0.6510   21.1451 H   0  0  0  0  0  0  0  0  0  0  0  0
    9.5213    0.1868   22.7938 C   0  0  0  0  0  0  0  0  0  0  0  0
   10.1698   -0.5705   22.3474 H   0  0  0  0  0  0  0  0  0  0  0  0
   10.1489    1.0095   23.1435 H   0  0  0  0  0  0  0  0  0  0  0  0
    8.9919   -0.2462   23.6456 H   0  0  0  0  0  0  0  0  0  0  0  0
  1  2  1  0
  2  3  1  0
  3  4  2  0
  4  5  1  0
  4  6  1  0
  6  7  1  0
  6  8  2  0
  8  9  1  0
  8 10  1  0
 10 11  1  0
 10 12  2  0
 12 13  1  0
 13 14  1  0
 14 15  1  6
 14 16  1  0
 16 17  1  0
 17 18  2  0
 18 19  1  0
 18 20  1  0
 20 21  2  0
 21 22  1  0
 21 23  1  0
 23 24  1  0
 23 25  2  0
 25 26  1  0
 14 27  1  0
 27 28  1  0
 27 29  1  0
 27 30  1  0
 12  3  1  0
 25 17  1  0
M  END
>  <plip>  (1) 
-0.07142857142857142

>  <filename>  (1) 
[H][O][c]1[c]([H])[c]([Cl])[c]([H])[c]([H])[c]1[O][C@]([H])([S][c]1[c]([H])[n][c]([H])[c]([H])[c]1[H])[C]([H])([H])[H]

$$$$
