
     RDKit          3D

 36 38  0  0  0  0  0  0  0  0999 V2000
    8.0451   -4.7006   23.1138 N   0  0  0  0  0  4  0  0  0  0  0  0
    7.2267   -3.7815   23.9867 C   0  0  0  0  0  0  0  0  0  0  0  0
    7.9107   -2.4124   24.0558 C   0  0  0  0  0  0  0  0  0  0  0  0
    7.9283   -1.7249   22.7411 C   0  0  0  0  0  0  0  0  0  0  0  0
    6.8895   -1.1041   22.1212 C   0  0  0  0  0  0  0  0  0  0  0  0
    7.3762   -0.6969   20.9276 N   0  0  0  0  0  0  0  0  0  0  0  0
    6.6729    0.0067   19.9063 C   0  0  0  0  0  0  0  0  0  0  0  0
    5.4513    0.6460   20.1718 C   0  0  0  0  0  0  0  0  0  0  0  0
    4.8192    1.3019   19.1109 C   0  0  0  0  0  0  0  0  0  0  0  0
    5.4054    1.2903   17.8400 C   0  0  0  0  0  0  0  0  0  0  0  0
    6.5650    0.6639   17.5842 N   0  0  0  0  0  0  0  0  0  0  0  0
    7.1839    0.0553   18.5960 C   0  0  0  0  0  0  0  0  0  0  0  0
    8.1282   -0.4260   18.3647 H   0  0  0  0  0  0  0  0  0  0  0  0
    4.9285    1.7855   16.9950 H   0  0  0  0  0  0  0  0  0  0  0  0
    3.8871    1.8337   19.2629 H   0  0  0  0  0  0  0  0  0  0  0  0
    4.9993    0.6588   21.1684 H   0  0  0  0  0  0  0  0  0  0  0  0
    8.6698   -1.0669   20.8198 N   0  0  0  0  0  0  0  0  0  0  0  0
    8.9985   -1.6940   21.9057 N   0  0  0  0  0  0  0  0  0  0  0  0
    5.8737   -0.9209   22.4165 H   0  0  0  0  0  0  0  0  0  0  0  0
    8.9238   -2.4911   24.4453 H   0  0  0  0  0  0  0  0  0  0  0  0
    7.3574   -1.8105   24.7778 H   0  0  0  0  0  0  0  0  0  0  0  0
    7.0226   -4.3998   25.3581 C   0  0  0  0  0  0  0  0  0  0  0  0
    5.7147   -4.6107   25.8329 C   0  0  0  0  0  0  0  0  0  0  0  0
    5.4891   -5.1297   27.1147 C   0  0  0  0  0  0  0  0  0  0  0  0
    6.5720   -5.4377   27.9460 C   0  0  0  0  0  0  0  0  0  0  0  0
    7.8765   -5.2157   27.4921 C   0  0  0  0  0  0  0  0  0  0  0  0
    8.0992   -4.6945   26.2144 C   0  0  0  0  0  0  0  0  0  0  0  0
    9.1282   -4.5111   25.9049 H   0  0  0  0  0  0  0  0  0  0  0  0
    8.7320   -5.4519   28.1218 H   0  0  0  0  0  0  0  0  0  0  0  0
    6.4018   -5.8493   28.9405 H   0  0  0  0  0  0  0  0  0  0  0  0
    4.4693   -5.2938   27.4595 H   0  0  0  0  0  0  0  0  0  0  0  0
    4.8644   -4.3591   25.1966 H   0  0  0  0  0  0  0  0  0  0  0  0
    6.2344   -3.6465   23.5440 H   0  0  0  0  0  0  0  0  0  0  0  0
    8.0869   -4.3419   22.1441 H   0  0  0  0  0  0  0  0  0  0  0  0
    9.0045   -4.7302   23.5072 H   0  0  0  0  0  0  0  0  0  0  0  0
    7.6449   -5.6517   23.1948 H   0  0  0  0  0  0  0  0  0  0  0  0
  1  2  1  0
  2  3  1  0
  3  4  1  0
  4  5  2  0
  5  6  1  0
  6  7  1  0
  7  8  2  0
  8  9  1  0
  9 10  2  0
 10 11  1  0
 11 12  2  0
 12 13  1  0
 10 14  1  0
  9 15  1  0
  8 16  1  0
  6 17  1  0
 17 18  2  0
  5 19  1  0
  3 20  1  0
  3 21  1  0
  2 22  1  0
 22 23  2  0
 23 24  1  0
 24 25  2  0
 25 26  1  0
 26 27  2  0
 27 28  1  0
 26 29  1  0
 25 30  1  0
 24 31  1  0
 23 32  1  0
  2 33  1  0
  1 34  1  0
  1 35  1  0
  1 36  1  0
 18  4  1  0
 27 22  1  0
 12  7  1  0
M  CHG  1   1   1
M  END
>  <plip>  (1) 
-0.034482758620689655

>  <filename>  (1) 
[H][c]1[n][c]([H])[c](-[n]2[n][n][c]([C]([H])([H])[C]([H])([c]3[c]([H])[c]([H])[c]([H])[c]([H])[c]3[H])[N+]([H])([H])[H])[c]2[H])[c]([H])[c]1[H]

$$$$
