
     RDKit          3D

 32 34  0  0  0  0  0  0  0  0999 V2000
    5.0141    1.8366   16.9675 H   0  0  0  0  0  0  0  0  0  0  0  0
    5.4679    1.3182   17.8093 C   0  0  0  0  0  0  0  0  0  0  0  0
    6.6342    0.7009   17.5596 N   0  0  0  0  0  0  0  0  0  0  0  0
    7.2092    0.0471   18.5804 C   0  0  0  0  0  0  0  0  0  0  0  0
    8.1466   -0.4683   18.3598 H   0  0  0  0  0  0  0  0  0  0  0  0
    6.6789   -0.0198   19.8830 C   0  0  0  0  0  0  0  0  0  0  0  0
    7.3285   -0.8066   21.0031 C   0  0  0  0  0  0  0  0  0  0  0  0
    6.7448   -2.2333   21.1715 C   0  0  0  0  0  0  0  0  0  0  0  0
    5.9546   -2.6873   20.3595 O   0  0  0  0  0  0  0  0  0  0  0  0
    7.1195   -2.9604   22.2748 N   0  0  0  0  0  0  0  0  0  0  0  0
    8.0056   -2.7503   22.7005 H   0  0  0  0  0  0  0  0  0  0  0  0
    6.6837   -4.3449   22.3981 C   0  0  0  0  0  0  0  0  0  0  0  0
    5.6114   -4.3770   22.6189 H   0  0  0  0  0  0  0  0  0  0  0  0
    6.8285   -4.8990   21.4640 H   0  0  0  0  0  0  0  0  0  0  0  0
    7.4252   -4.9678   23.4646 N   0  0  0  0  0  0  0  0  0  0  0  0
    7.3122   -4.6216   24.7766 C   0  0  0  0  0  0  0  0  0  0  0  0
    6.5388   -3.9448   25.1299 H   0  0  0  0  0  0  0  0  0  0  0  0
    8.2216   -5.1886   25.5227 N   0  0  0  0  0  0  0  0  0  0  0  0
    8.9729   -5.9545   24.6608 C   0  0  0  0  0  0  0  0  0  0  0  0
    9.8297   -6.5291   24.9905 H   0  0  0  0  0  0  0  0  0  0  0  0
    8.4933   -5.8426   23.3840 C   0  0  0  0  0  0  0  0  0  0  0  0
    8.7978   -6.2960   22.4527 H   0  0  0  0  0  0  0  0  0  0  0  0
    7.7288   -0.0004   22.2343 C   0  0  0  0  0  0  0  0  0  0  0  0
    7.4692    1.0611   22.2430 H   0  0  0  0  0  0  0  0  0  0  0  0
    7.6587   -0.4777   23.2106 H   0  0  0  0  0  0  0  0  0  0  0  0
    8.7886   -0.4523   21.2779 C   0  0  0  0  0  0  0  0  0  0  0  0
    9.2277    0.3258   20.6460 H   0  0  0  0  0  0  0  0  0  0  0  0
    9.5009   -1.2233   21.5687 H   0  0  0  0  0  0  0  0  0  0  0  0
    5.4529    0.6186   20.1066 C   0  0  0  0  0  0  0  0  0  0  0  0
    5.0205    0.5795   21.1072 H   0  0  0  0  0  0  0  0  0  0  0  0
    4.8354    1.2994   19.0574 C   0  0  0  0  0  0  0  0  0  0  0  0
    3.8900    1.8119   19.1932 H   0  0  0  0  0  0  0  0  0  0  0  0
  1  2  1  0
  2  3  2  0
  3  4  1  0
  4  5  1  0
  4  6  2  0
  6  7  1  0
  7  8  1  0
  8  9  2  0
  8 10  1  0
 10 11  1  0
 10 12  1  0
 12 13  1  0
 12 14  1  0
 12 15  1  0
 15 16  1  0
 16 17  1  0
 16 18  2  0
 18 19  1  0
 19 20  1  0
 19 21  2  0
 21 22  1  0
  7 23  1  0
 23 24  1  0
 23 25  1  0
 23 26  1  0
 26 27  1  0
 26 28  1  0
  6 29  1  0
 29 30  1  0
 29 31  2  0
 31 32  1  0
 31  2  1  0
 26  7  1  0
 21 15  1  0
M  END
>  <plip>  (1) 
-0.07142857142857142

>  <filename>  (1) 
[H][c]1[n][c]([H])[c]([C]2([C](=[O])[N]([H])[C]([H])([H])[n]3[c]([H])[n][c]([H])[c]3[H])[C]([H])([H])[C]2([H])[H])[c]([H])[c]1[H]

$$$$
