
     RDKit          3D

 42 44  0  0  0  0  0  0  0  0999 V2000
    4.9182    1.7969   16.9888 H   0  0  0  0  0  0  0  0  0  0  0  0
    5.3889    1.2972   17.8315 C   0  0  0  0  0  0  0  0  0  0  0  0
    6.5450    0.6704   17.5639 N   0  0  0  0  0  0  0  0  0  0  0  0
    7.1646    0.0522   18.5763 C   0  0  0  0  0  0  0  0  0  0  0  0
    8.1216   -0.4169   18.3508 H   0  0  0  0  0  0  0  0  0  0  0  0
    6.6529    0.0014   19.8891 C   0  0  0  0  0  0  0  0  0  0  0  0
    7.3552   -0.6843   20.9448 N   0  0  0  0  0  0  0  0  0  0  0  0
    6.7176   -1.7482   21.6011 C   0  0  0  0  0  0  0  0  0  0  0  0
    5.7065   -1.9707   21.2598 H   0  0  0  0  0  0  0  0  0  0  0  0
    7.3111   -2.4623   22.5903 C   0  0  0  0  0  0  0  0  0  0  0  0
    6.6926   -3.5258   23.2326 N   0  0  0  0  0  0  0  0  0  0  0  0
    7.2260   -3.9576   23.9794 H   0  0  0  0  0  0  0  0  0  0  0  0
    5.3362   -3.9614   22.9474 C   0  0  0  0  0  0  0  0  0  0  0  0
    5.2452   -4.2683   21.8968 H   0  0  0  0  0  0  0  0  0  0  0  0
    4.6122   -3.1451   23.0927 H   0  0  0  0  0  0  0  0  0  0  0  0
    4.9366   -5.1415   23.8324 C   0  0  0  0  0  0  0  0  0  0  0  0
    5.0286   -4.8439   24.8956 H   0  0  0  0  0  0  0  0  0  0  0  0
    5.6621   -5.9513   23.6747 H   0  0  0  0  0  0  0  0  0  0  0  0
    3.5842   -5.6159   23.4888 N   0  0  0  0  0  0  0  0  0  0  0  0
    2.5094   -4.9072   24.2130 C   0  0  0  0  0  0  0  0  0  0  0  0
    2.7302   -3.8313   24.2328 H   0  0  0  0  0  0  0  0  0  0  0  0
    1.5735   -5.0414   23.6545 H   0  0  0  0  0  0  0  0  0  0  0  0
    2.3102   -5.4155   25.6564 C   0  0  0  0  0  0  0  0  0  0  0  0
    3.1829   -5.1299   26.2697 H   0  0  0  0  0  0  0  0  0  0  0  0
    1.4197   -4.9677   26.1041 H   0  0  0  0  0  0  0  0  0  0  0  0
    2.1278   -6.8271   25.7051 O   0  0  0  0  0  0  0  0  0  0  0  0
    3.2242   -7.5020   25.0930 C   0  0  0  0  0  0  0  0  0  0  0  0
    4.1566   -7.2814   25.6437 H   0  0  0  0  0  0  0  0  0  0  0  0
    3.0233   -8.5729   25.1715 H   0  0  0  0  0  0  0  0  0  0  0  0
    3.3971   -7.0675   23.6287 C   0  0  0  0  0  0  0  0  0  0  0  0
    4.2541   -7.5805   23.1734 H   0  0  0  0  0  0  0  0  0  0  0  0
    2.5031   -7.3545   23.0603 H   0  0  0  0  0  0  0  0  0  0  0  0
    8.7211   -2.0628   22.9867 C   0  0  0  0  0  0  0  0  0  0  0  0
    9.4304   -2.5659   23.8381 O   0  0  0  0  0  0  0  0  0  0  0  0
    9.2355   -1.0094   22.2857 N   0  0  0  0  0  0  0  0  0  0  0  0
   10.1663   -0.7323   22.5272 H   0  0  0  0  0  0  0  0  0  0  0  0
    8.6654   -0.2828   21.2944 C   0  0  0  0  0  0  0  0  0  0  0  0
    9.2901    0.6144   20.7804 O   0  0  0  0  0  0  0  0  0  0  0  0
    5.4385    0.6422   20.1504 C   0  0  0  0  0  0  0  0  0  0  0  0
    5.0304    0.6246   21.1615 H   0  0  0  0  0  0  0  0  0  0  0  0
    4.8027    1.3147   19.1013 C   0  0  0  0  0  0  0  0  0  0  0  0
    3.8728    1.8475   19.2547 H   0  0  0  0  0  0  0  0  0  0  0  0
  1  2  1  0
  2  3  2  0
  3  4  1  0
  4  5  1  0
  4  6  2  0
  6  7  1  0
  7  8  1  0
  8  9  1  0
  8 10  2  0
 10 11  1  0
 11 12  1  0
 11 13  1  0
 13 14  1  0
 13 15  1  0
 13 16  1  0
 16 17  1  0
 16 18  1  0
 16 19  1  0
 19 20  1  0
 20 21  1  0
 20 22  1  0
 20 23  1  0
 23 24  1  0
 23 25  1  0
 23 26  1  0
 26 27  1  0
 27 28  1  0
 27 29  1  0
 27 30  1  0
 30 31  1  0
 30 32  1  0
 10 33  1  0
 33 34  2  0
 33 35  1  0
 35 36  1  0
 35 37  1  0
 37 38  2  0
  6 39  1  0
 39 40  1  0
 39 41  2  0
 41 42  1  0
 41  2  1  0
 37  7  1  0
 30 19  1  0
M  END
>  <plip>  (1) 
-0.07142857142857142

>  <filename>  (1) 
[H][c]1[n][c]([H])[c](-[n]2[c]([H])[c]([N]([H])[C]([H])([H])[C]([H])([H])[N]3[C]([H])([H])[C]([H])([H])[O][C]([H])([H])[C]3([H])[H])[c](=[O])[n]([H])[c]2=[O])[c]([H])[c]1[H]

$$$$
