
     RDKit          3D

 29 30  0  0  0  0  0  0  0  0999 V2000
    6.8691   -1.8875   21.4119 C   0  0  0  0  0  0  0  0  0  0  0  0
    7.0306   -0.3773   21.4415 C   0  0  0  0  0  0  0  0  0  0  0  0
    6.4701    0.3092   20.2084 C   0  0  0  0  0  0  0  0  0  0  0  0
    5.2296    0.9645   20.2072 C   0  0  0  0  0  0  0  0  0  0  0  0
    4.7337    1.4631   18.9998 C   0  0  0  0  0  0  0  0  0  0  0  0
    5.5008    1.3067   17.8426 C   0  0  0  0  0  0  0  0  0  0  0  0
    6.6874    0.6864   17.8238 N   0  0  0  0  0  0  0  0  0  0  0  0
    7.1587    0.2244   18.9893 C   0  0  0  0  0  0  0  0  0  0  0  0
    8.1469   -0.2383   18.9576 H   0  0  0  0  0  0  0  0  0  0  0  0
    5.1453    1.6754   16.8820 H   0  0  0  0  0  0  0  0  0  0  0  0
    3.7949    1.9993   18.9440 H   0  0  0  0  0  0  0  0  0  0  0  0
    4.6692    1.1115   21.1338 H   0  0  0  0  0  0  0  0  0  0  0  0
    8.4338    0.0147   21.6397 N   0  0  0  0  0  0  0  0  0  0  0  0
    9.5817   -0.6327   21.2135 C   0  0  0  0  0  0  0  0  0  0  0  0
    9.6769   -1.7822   20.8559 O   0  0  0  0  0  0  0  0  0  0  0  0
   10.6168    0.2595   21.2583 N   0  0  0  0  0  0  0  0  0  0  0  0
   10.2330    1.5141   21.8749 C   0  0  2  0  0  0  0  0  0  0  0  0
   11.0209    1.8748   23.1331 C   0  0  0  0  0  0  0  0  0  0  0  0
   10.6012    2.7650   23.6184 H   0  0  0  0  0  0  0  0  0  0  0  0
   11.0017    1.0478   23.8494 H   0  0  0  0  0  0  0  0  0  0  0  0
   12.0617    2.0907   22.8682 H   0  0  0  0  0  0  0  0  0  0  0  0
    8.7331    1.2716   22.0994 C   0  0  0  0  0  0  0  0  0  0  0  0
    7.9357    2.0307   22.5941 O   0  0  0  0  0  0  0  0  0  0  0  0
   10.3101    2.3511   21.1637 H   0  0  0  0  0  0  0  0  0  0  0  0
   11.5329   -0.1686   21.2618 H   0  0  0  0  0  0  0  0  0  0  0  0
    6.4926    0.0111   22.3156 H   0  0  0  0  0  0  0  0  0  0  0  0
    7.2525   -2.3076   20.4801 H   0  0  0  0  0  0  0  0  0  0  0  0
    7.4253   -2.3398   22.2351 H   0  0  0  0  0  0  0  0  0  0  0  0
    5.8123   -2.1442   21.5176 H   0  0  0  0  0  0  0  0  0  0  0  0
  1  2  1  0
  2  3  1  0
  3  4  2  0
  4  5  1  0
  5  6  2  0
  6  7  1  0
  7  8  2  0
  8  9  1  0
  6 10  1  0
  5 11  1  0
  4 12  1  0
  2 13  1  0
 13 14  1  0
 14 15  2  0
 14 16  1  0
 16 17  1  0
 17 18  1  0
 18 19  1  0
 18 20  1  0
 18 21  1  0
 17 22  1  0
 22 23  2  0
 17 24  1  6
 16 25  1  0
  2 26  1  0
  1 27  1  0
  1 28  1  0
  1 29  1  0
  8  3  1  0
 22 13  1  0
M  END
>  <plip>  (1) 
-0.07142857142857142

>  <filename>  (1) 
[H][c]1[n][c]([H])[c]([C]([H])([N]2[C](=[O])[N]([H])[C@]([H])([C]([H])([H])[H])[C]2=[O])[C]([H])([H])[H])[c]([H])[c]1[H]

$$$$
