
     RDKit          3D

 34 36  0  0  0  0  0  0  0  0999 V2000
    5.0176    1.7991   16.9618 H   0  0  0  0  0  0  0  0  0  0  0  0
    5.4474    1.3207   17.8391 C   0  0  0  0  0  0  0  0  0  0  0  0
    6.6058    0.6733   17.6455 N   0  0  0  0  0  0  0  0  0  0  0  0
    7.1482    0.0641   18.7110 C   0  0  0  0  0  0  0  0  0  0  0  0
    8.0877   -0.4543   18.5188 H   0  0  0  0  0  0  0  0  0  0  0  0
    6.5947    0.0753   20.0106 C   0  0  0  0  0  0  0  0  0  0  0  0
    7.2485   -0.6986   21.0938 C   0  0  0  0  0  0  0  0  0  0  0  0
    7.5163   -2.0532   21.0929 C   0  0  0  0  0  0  0  0  0  0  0  0
    7.1794   -2.7394   20.3295 H   0  0  0  0  0  0  0  0  0  0  0  0
    8.2268   -2.3717   22.2794 C   0  0  0  0  0  0  0  0  0  0  0  0
    8.5988   -3.3434   22.5777 H   0  0  0  0  0  0  0  0  0  0  0  0
    8.3604   -1.1953   22.9757 C   0  0  0  0  0  0  0  0  0  0  0  0
    8.8586   -0.9561   23.9057 H   0  0  0  0  0  0  0  0  0  0  0  0
    7.7423   -0.1835   22.2829 N   0  0  0  0  0  0  0  0  0  0  0  0
    7.7779    1.1878   22.7879 C   0  0  0  0  0  0  0  0  0  0  0  0
    6.9719    1.7573   22.3259 H   0  0  0  0  0  0  0  0  0  0  0  0
    7.5770    1.1336   23.8648 H   0  0  0  0  0  0  0  0  0  0  0  0
    9.1058    1.9286   22.5925 C   0  0  1  0  0  0  0  0  0  0  0  0
    8.9516    2.9527   22.9719 H   0  0  0  0  0  0  0  0  0  0  0  0
   10.2345    1.3347   23.3285 N   0  0  0  0  0  0  0  0  0  0  0  0
   10.2966    0.3719   22.9825 H   0  0  0  0  0  0  0  0  0  0  0  0
   11.4040    2.0116   22.7498 C   0  0  0  0  0  0  0  0  0  0  0  0
   11.5051    3.0091   23.1972 H   0  0  0  0  0  0  0  0  0  0  0  0
   12.3336    1.4830   22.9890 H   0  0  0  0  0  0  0  0  0  0  0  0
   11.1202    2.1221   21.2356 C   0  0  0  0  0  0  0  0  0  0  0  0
   11.5211    3.0480   20.8102 H   0  0  0  0  0  0  0  0  0  0  0  0
   11.6026    1.2933   20.7143 H   0  0  0  0  0  0  0  0  0  0  0  0
    9.5788    2.0155   21.1354 C   0  0  0  0  0  0  0  0  0  0  0  0
    9.2918    1.0919   20.6158 H   0  0  0  0  0  0  0  0  0  0  0  0
    9.0830    2.8454   20.6204 H   0  0  0  0  0  0  0  0  0  0  0  0
    5.3825    0.7640   20.1808 C   0  0  0  0  0  0  0  0  0  0  0  0
    4.9158    0.7916   21.1663 H   0  0  0  0  0  0  0  0  0  0  0  0
    4.7927    1.3853   19.0738 C   0  0  0  0  0  0  0  0  0  0  0  0
    3.8535    1.9197   19.1612 H   0  0  0  0  0  0  0  0  0  0  0  0
  1  2  1  0
  2  3  2  0
  3  4  1  0
  4  5  1  0
  4  6  2  0
  6  7  1  0
  7  8  2  0
  8  9  1  0
  8 10  1  0
 10 11  1  0
 10 12  2  0
 12 13  1  0
 12 14  1  0
 14 15  1  0
 15 16  1  0
 15 17  1  0
 15 18  1  0
 18 19  1  1
 18 20  1  0
 20 21  1  0
 20 22  1  0
 22 23  1  0
 22 24  1  0
 22 25  1  0
 25 26  1  0
 25 27  1  0
 25 28  1  0
 28 29  1  0
 28 30  1  0
  6 31  1  0
 31 32  1  0
 31 33  2  0
 33 34  1  0
 33  2  1  0
 14  7  1  0
 28 18  1  0
M  END
>  <plip>  (1) 
-0.03571428571428571

>  <filename>  (1) 
[H][c]1[n][c]([H])[c](-[c]2[c]([H])[c]([H])[c]([H])[n]2[C]([H])([H])[C@@]2([H])[N]([H])[C]([H])([H])[C]([H])([H])[C]2([H])[H])[c]([H])[c]1[H]

$$$$
