
     RDKit          3D

 53 54  0  0  0  0  0  0  0  0999 V2000
    4.1426   -4.9891   26.7516 C   0  0  0  0  0  0  0  0  0  0  0  0
    4.9030   -4.3745   25.6081 C   0  0  0  0  0  0  0  0  0  0  0  0
    6.2130   -4.0600   25.7474 C   0  0  0  0  0  0  0  0  0  0  0  0
    6.9842   -3.5598   24.6553 C   0  0  0  0  0  0  0  0  0  0  0  0
    6.4626   -3.4271   23.4058 C   0  0  0  0  0  0  0  0  0  0  0  0
    7.3382   -2.8752   22.3164 C   0  0  0  0  0  0  0  0  0  0  0  0
    7.7682   -3.9357   21.3049 C   0  0  0  0  0  0  0  0  0  0  0  0
    8.0483   -4.8554   21.8185 H   0  0  0  0  0  0  0  0  0  0  0  0
    8.6444   -3.6053   20.7432 H   0  0  0  0  0  0  0  0  0  0  0  0
    6.9375   -4.1389   20.6164 H   0  0  0  0  0  0  0  0  0  0  0  0
    6.6302   -1.7638   21.6476 N   0  0  0  0  0  4  0  0  0  0  0  0
    7.4302   -0.7093   20.9972 C   0  0  0  0  0  0  0  0  0  0  0  0
    7.9572    0.2793   22.0417 C   0  0  0  0  0  0  0  0  0  0  0  0
    8.9862    1.2419   21.4585 C   0  0  0  0  0  0  0  0  0  0  0  0
    9.5567    2.2357   22.4626 N   0  0  0  0  0  4  0  0  0  0  0  0
    8.5397    3.2041   22.9994 C   0  0  0  0  0  0  0  0  0  0  0  0
    7.8592    2.7026   23.6947 H   0  0  0  0  0  0  0  0  0  0  0  0
    7.9502    3.6297   22.1823 H   0  0  0  0  0  0  0  0  0  0  0  0
    9.0325    4.0188   23.5376 H   0  0  0  0  0  0  0  0  0  0  0  0
   10.3332    1.5746   23.5668 C   0  0  0  0  0  0  0  0  0  0  0  0
   11.0127    0.8219   23.1564 H   0  0  0  0  0  0  0  0  0  0  0  0
   10.9200    2.3089   24.1262 H   0  0  0  0  0  0  0  0  0  0  0  0
    9.6543    1.0804   24.2693 H   0  0  0  0  0  0  0  0  0  0  0  0
   10.2319    2.8139   21.9204 H   0  0  0  0  0  0  0  0  0  0  0  0
    8.5315    1.8135   20.6417 H   0  0  0  0  0  0  0  0  0  0  0  0
    9.8392    0.6870   21.0453 H   0  0  0  0  0  0  0  0  0  0  0  0
    7.0991    0.8308   22.4430 H   0  0  0  0  0  0  0  0  0  0  0  0
    8.3909   -0.2969   22.8665 H   0  0  0  0  0  0  0  0  0  0  0  0
    6.5915   -0.0523   19.9158 C   0  0  0  0  0  0  0  0  0  0  0  0
    5.3755    0.6186   20.1387 C   0  0  0  0  0  0  0  0  0  0  0  0
    4.7714    1.2976   19.0768 C   0  0  0  0  0  0  0  0  0  0  0  0
    5.3947    1.2863   17.8263 C   0  0  0  0  0  0  0  0  0  0  0  0
    6.5374    0.6312   17.5791 N   0  0  0  0  0  0  0  0  0  0  0  0
    7.1022   -0.0107   18.6096 C   0  0  0  0  0  0  0  0  0  0  0  0
    8.0428   -0.5198   18.3819 H   0  0  0  0  0  0  0  0  0  0  0  0
    4.9637    1.8445   16.9943 H   0  0  0  0  0  0  0  0  0  0  0  0
    3.8541    1.8616   19.2140 H   0  0  0  0  0  0  0  0  0  0  0  0
    4.9043    0.6241   21.1241 H   0  0  0  0  0  0  0  0  0  0  0  0
    8.2928   -1.1807   20.5045 H   0  0  0  0  0  0  0  0  0  0  0  0
    5.9911   -1.3392   22.3697 H   0  0  0  0  0  0  0  0  0  0  0  0
    6.0097   -2.1672   20.9109 H   0  0  0  0  0  0  0  0  0  0  0  0
    8.2383   -2.4854   22.8074 H   0  0  0  0  0  0  0  0  0  0  0  0
    5.1415   -4.0594   23.0979 C   0  0  0  0  0  0  0  0  0  0  0  0
    4.2031   -4.0577   24.3195 C   0  0  0  0  0  0  0  0  0  0  0  0
    3.3751   -4.7623   24.1626 H   0  0  0  0  0  0  0  0  0  0  0  0
    3.7036   -3.0758   24.4080 H   0  0  0  0  0  0  0  0  0  0  0  0
    5.3175   -5.1012   22.7520 H   0  0  0  0  0  0  0  0  0  0  0  0
    4.6548   -3.5690   22.2384 H   0  0  0  0  0  0  0  0  0  0  0  0
    8.0199   -3.2818   24.8326 H   0  0  0  0  0  0  0  0  0  0  0  0
    6.7011   -4.1936   26.7085 H   0  0  0  0  0  0  0  0  0  0  0  0
    3.0844   -5.1320   26.5189 H   0  0  0  0  0  0  0  0  0  0  0  0
    4.2054   -4.3634   27.6487 H   0  0  0  0  0  0  0  0  0  0  0  0
    4.5556   -5.9695   27.0175 H   0  0  0  0  0  0  0  0  0  0  0  0
  1  2  1  0
  2  3  2  0
  3  4  1  0
  4  5  2  0
  5  6  1  0
  6  7  1  0
  7  8  1  0
  7  9  1  0
  7 10  1  0
  6 11  1  0
 11 12  1  0
 12 13  1  0
 13 14  1  0
 14 15  1  0
 15 16  1  0
 16 17  1  0
 16 18  1  0
 16 19  1  0
 15 20  1  0
 20 21  1  0
 20 22  1  0
 20 23  1  0
 15 24  1  0
 14 25  1  0
 14 26  1  0
 13 27  1  0
 13 28  1  0
 12 29  1  0
 29 30  2  0
 30 31  1  0
 31 32  2  0
 32 33  1  0
 33 34  2  0
 34 35  1  0
 32 36  1  0
 31 37  1  0
 30 38  1  0
 12 39  1  0
 11 40  1  0
 11 41  1  0
  6 42  1  0
  5 43  1  0
 43 44  1  0
 44 45  1  0
 44 46  1  0
 43 47  1  0
 43 48  1  0
  4 49  1  0
  3 50  1  0
  1 51  1  0
  1 52  1  0
  1 53  1  0
 44  2  1  0
 34 29  1  0
M  CHG  2  11   1  15   1
M  END
>  <plip>  (1) 
-0.10344827586206896

>  <filename>  (1) 
[H][C]1=[C]([C]([H])([H])[H])[C]([H])([H])[C]([H])([H])[C]([C]([H])([C]([H])([H])[H])[N+]([H])([H])[C]([H])([c]2[c]([H])[n][c]([H])[c]([H])[c]2[H])[C]([H])([H])[C]([H])([H])[N+]([H])([C]([H])([H])[H])[C]([H])([H])[H])=[C]1[H]

$$$$
