
     RDKit          3D

 40 40  0  0  0  0  0  0  0  0999 V2000
    3.9861   -7.2726   26.7019 C   0  0  0  0  0  0  0  0  0  0  0  0
    3.9216   -6.5972   25.5570 C   0  0  0  0  0  0  0  0  0  0  0  0
    5.0832   -6.3104   24.6260 C   0  0  0  0  0  0  0  0  0  0  0  0
    4.6410   -5.3543   23.6788 O   0  0  0  0  0  0  0  0  0  0  0  0
    5.6217   -4.7767   22.8304 C   0  0  0  0  0  0  0  0  0  0  0  0
    4.9647   -3.4819   22.3270 C   0  0  0  0  0  0  0  0  0  0  0  0
    5.7253   -2.6354   21.4028 N   0  0  0  0  0  0  0  0  0  0  0  0
    5.6783   -2.9306   19.9794 C   0  0  0  0  0  0  0  0  0  0  0  0
    4.9634   -2.3044   19.4353 H   0  0  0  0  0  0  0  0  0  0  0  0
    6.6454   -2.7377   19.5263 H   0  0  0  0  0  0  0  0  0  0  0  0
    5.4333   -3.9854   19.8154 H   0  0  0  0  0  0  0  0  0  0  0  0
    6.6304   -1.7344   21.9483 C   0  0  0  0  0  0  0  0  0  0  0  0
    6.9468   -1.7877   23.1300 O   0  0  0  0  0  0  0  0  0  0  0  0
    7.2248   -0.7918   21.0853 N   0  0  0  0  0  0  0  0  0  0  0  0
    8.6312   -0.4761   21.3857 C   0  0  0  0  0  0  0  0  0  0  0  0
    9.5387   -1.6569   21.0570 C   0  0  0  0  0  0  0  0  0  0  0  0
    9.4471   -1.9192   20.0002 H   0  0  0  0  0  0  0  0  0  0  0  0
    9.2562   -2.5349   21.6435 H   0  0  0  0  0  0  0  0  0  0  0  0
   10.5891   -1.4354   21.2630 H   0  0  0  0  0  0  0  0  0  0  0  0
    8.9141    0.4120   20.8103 H   0  0  0  0  0  0  0  0  0  0  0  0
    8.7081   -0.2014   22.4437 H   0  0  0  0  0  0  0  0  0  0  0  0
    6.5785   -0.1087   20.0039 C   0  0  0  0  0  0  0  0  0  0  0  0
    5.3509    0.5504   20.1741 C   0  0  0  0  0  0  0  0  0  0  0  0
    4.8077    1.2452   19.0838 C   0  0  0  0  0  0  0  0  0  0  0  0
    5.4867    1.2467   17.8599 C   0  0  0  0  0  0  0  0  0  0  0  0
    6.6490    0.6030   17.6687 N   0  0  0  0  0  0  0  0  0  0  0  0
    7.1741   -0.0402   18.7201 C   0  0  0  0  0  0  0  0  0  0  0  0
    8.1211   -0.5470   18.5435 H   0  0  0  0  0  0  0  0  0  0  0  0
    5.0820    1.7808   17.0012 H   0  0  0  0  0  0  0  0  0  0  0  0
    3.8839    1.8072   19.1782 H   0  0  0  0  0  0  0  0  0  0  0  0
    4.8538    0.5431   21.1452 H   0  0  0  0  0  0  0  0  0  0  0  0
    4.7478   -2.9162   23.2337 H   0  0  0  0  0  0  0  0  0  0  0  0
    4.0133   -3.7458   21.8581 H   0  0  0  0  0  0  0  0  0  0  0  0
    5.8972   -5.4636   22.0091 H   0  0  0  0  0  0  0  0  0  0  0  0
    6.5435   -4.5342   23.3850 H   0  0  0  0  0  0  0  0  0  0  0  0
    5.4193   -7.2328   24.1171 H   0  0  0  0  0  0  0  0  0  0  0  0
    5.9417   -5.9294   25.2109 H   0  0  0  0  0  0  0  0  0  0  0  0
    2.9580   -6.2211   25.2042 H   0  0  0  0  0  0  0  0  0  0  0  0
    3.0952   -7.4186   27.3167 H   0  0  0  0  0  0  0  0  0  0  0  0
    4.9181   -7.6812   27.1061 H   0  0  0  0  0  0  0  0  0  0  0  0
  1  2  2  3
  2  3  1  0
  3  4  1  0
  4  5  1  0
  5  6  1  0
  6  7  1  0
  7  8  1  0
  8  9  1  0
  8 10  1  0
  8 11  1  0
  7 12  1  0
 12 13  2  0
 12 14  1  0
 14 15  1  0
 15 16  1  0
 16 17  1  0
 16 18  1  0
 16 19  1  0
 15 20  1  0
 15 21  1  0
 14 22  1  0
 22 23  2  0
 23 24  1  0
 24 25  2  0
 25 26  1  0
 26 27  2  0
 27 28  1  0
 25 29  1  0
 24 30  1  0
 23 31  1  0
  6 32  1  0
  6 33  1  0
  5 34  1  0
  5 35  1  0
  3 36  1  0
  3 37  1  0
  2 38  1  0
  1 39  1  0
  1 40  1  0
 27 22  1  0
M  END
>  <plip>  (1) 
-0.0

>  <filename>  (1) 
[H][C]([H])=[C]([H])[C]([H])([H])[O][C]([H])([H])[C]([H])([H])[N]([C](=[O])[N]([c]1[c]([H])[n][c]([H])[c]([H])[c]1[H])[C]([H])([H])[C]([H])([H])[H])[C]([H])([H])[H]

$$$$
