
     RDKit          3D

 40 42  0  0  0  0  0  0  0  0999 V2000
    5.0538    1.7812   16.8466 H   0  0  0  0  0  0  0  0  0  0  0  0
    5.4620    1.2970   17.7336 C   0  0  0  0  0  0  0  0  0  0  0  0
    6.6221    0.6420   17.5769 N   0  0  0  0  0  0  0  0  0  0  0  0
    7.1608    0.0550   18.6593 C   0  0  0  0  0  0  0  0  0  0  0  0
    8.1183   -0.4437   18.4913 H   0  0  0  0  0  0  0  0  0  0  0  0
    6.5819    0.0691   19.9390 C   0  0  0  0  0  0  0  0  0  0  0  0
    7.1589   -0.5442   21.2222 C   0  0  1  0  0  0  0  0  0  0  0  0
    6.9193    0.2027   21.9882 H   0  0  0  0  0  0  0  0  0  0  0  0
    6.4416   -1.8392   21.7040 C   0  0  0  0  0  0  0  0  0  0  0  0
    6.4739   -1.8476   22.8012 H   0  0  0  0  0  0  0  0  0  0  0  0
    5.3859   -1.8100   21.4187 H   0  0  0  0  0  0  0  0  0  0  0  0
    7.0003   -3.1055   21.2450 N   0  0  0  0  0  0  0  0  0  0  0  0
    6.9061   -3.1730   20.2336 H   0  0  0  0  0  0  0  0  0  0  0  0
    8.4189   -3.2143   21.5630 C   0  0  0  0  0  0  0  0  0  0  0  0
    8.7361   -4.1886   21.2003 H   0  0  0  0  0  0  0  0  0  0  0  0
    8.5231   -3.2419   22.6565 H   0  0  0  0  0  0  0  0  0  0  0  0
    9.2700   -2.0766   20.9786 C   0  0  0  0  0  0  0  0  0  0  0  0
   10.2861   -2.1510   21.3849 H   0  0  0  0  0  0  0  0  0  0  0  0
    9.3513   -2.1252   19.8932 H   0  0  0  0  0  0  0  0  0  0  0  0
    8.7006   -0.6979   21.3311 C   0  0  2  0  0  0  0  0  0  0  0  0
    9.1584    0.0652   20.6792 H   0  0  0  0  0  0  0  0  0  0  0  0
    9.0320   -0.4792   22.6984 O   0  0  0  0  0  0  0  0  0  0  0  0
    9.8488    0.6348   23.0290 C   0  0  0  0  0  0  0  0  0  0  0  0
    9.3826    1.5590   22.6479 H   0  0  0  0  0  0  0  0  0  0  0  0
    9.9327    0.6984   24.5599 C   0  0  0  0  0  0  0  0  0  0  0  0
    9.5997    1.6825   24.9056 H   0  0  0  0  0  0  0  0  0  0  0  0
    9.2729   -0.0444   25.0217 H   0  0  0  0  0  0  0  0  0  0  0  0
   11.4059    0.4684   24.9272 C   0  0  0  0  0  0  0  0  0  0  0  0
   11.6445    1.0587   25.7976 H   0  0  0  0  0  0  0  0  0  0  0  0
   11.5776   -0.5799   25.1928 H   0  0  0  0  0  0  0  0  0  0  0  0
   12.2211    0.8819   23.6895 C   0  0  0  0  0  0  0  0  0  0  0  0
   12.4353    1.9586   23.6936 H   0  0  0  0  0  0  0  0  0  0  0  0
   13.1928    0.3743   23.6426 H   0  0  0  0  0  0  0  0  0  0  0  0
   11.3061    0.5067   22.5099 C   0  0  0  0  0  0  0  0  0  0  0  0
   11.4872   -0.5374   22.2324 H   0  0  0  0  0  0  0  0  0  0  0  0
   11.4795    1.1120   21.6117 H   0  0  0  0  0  0  0  0  0  0  0  0
    5.3529    0.7442   20.0625 C   0  0  0  0  0  0  0  0  0  0  0  0
    4.8654    0.7840   21.0384 H   0  0  0  0  0  0  0  0  0  0  0  0
    4.7831    1.3720   18.9554 C   0  0  0  0  0  0  0  0  0  0  0  0
    3.8504    1.9230   19.0289 H   0  0  0  0  0  0  0  0  0  0  0  0
  1  2  1  0
  2  3  2  0
  3  4  1  0
  4  5  1  0
  4  6  2  0
  6  7  1  0
  7  8  1  1
  7  9  1  0
  9 10  1  0
  9 11  1  0
  9 12  1  0
 12 13  1  0
 12 14  1  0
 14 15  1  0
 14 16  1  0
 14 17  1  0
 17 18  1  0
 17 19  1  0
 17 20  1  0
 20 21  1  6
 20 22  1  0
 22 23  1  0
 23 24  1  0
 23 25  1  0
 25 26  1  0
 25 27  1  0
 25 28  1  0
 28 29  1  0
 28 30  1  0
 28 31  1  0
 31 32  1  0
 31 33  1  0
 31 34  1  0
 34 35  1  0
 34 36  1  0
  6 37  1  0
 37 38  1  0
 37 39  2  0
 39 40  1  0
 39  2  1  0
 20  7  1  0
 34 23  1  0
M  END
>  <plip>  (1) 
-0.06666666666666667

>  <filename>  (1) 
[H][c]1[n][c]([H])[c]([C@@]2([H])[C]([H])([H])[N]([H])[C]([H])([H])[C]([H])([H])[C@]2([H])[O][C]2([H])[C]([H])([H])[C]([H])([H])[C]([H])([H])[C]2([H])[H])[c]([H])[c]1[H]

$$$$
