
     RDKit          3D

 22 23  0  0  0  0  0  0  0  0999 V2000
    4.9771    1.7720   16.9074 H   0  0  0  0  0  0  0  0  0  0  0  0
    5.4143    1.3107   17.7929 C   0  0  0  0  0  0  0  0  0  0  0  0
    6.5868    0.6885   17.6113 N   0  0  0  0  0  0  0  0  0  0  0  0
    7.1545    0.1217   18.6845 C   0  0  0  0  0  0  0  0  0  0  0  0
    8.1051   -0.3717   18.5203 H   0  0  0  0  0  0  0  0  0  0  0  0
    6.6051    0.1438   19.9767 C   0  0  0  0  0  0  0  0  0  0  0  0
    7.3111   -0.5993   21.0837 C   0  0  2  0  0  0  0  0  0  0  0  0
    7.1805   -0.0691   22.0400 H   0  0  0  0  0  0  0  0  0  0  0  0
    8.6857   -0.6292   20.8250 F   0  0  0  0  0  0  0  0  0  0  0  0
    6.8261   -2.0500   21.1892 C   0  0  0  0  0  0  0  0  0  0  0  0
    6.8974   -2.5410   20.2167 H   0  0  0  0  0  0  0  0  0  0  0  0
    5.7777   -2.0568   21.4840 H   0  0  0  0  0  0  0  0  0  0  0  0
    7.5555   -2.8671   22.1867 C   0  0  0  0  0  0  0  0  0  0  0  0
    7.0738   -3.3503   23.3057 N   0  0  0  0  0  0  0  0  0  0  0  0
    8.0833   -4.0400   23.8841 N   0  0  0  0  0  0  0  0  0  0  0  0
    9.1445   -3.9997   23.1645 N   0  0  0  0  0  0  0  0  0  0  0  0
    8.8304   -3.2767   22.0789 N   0  0  0  0  0  0  0  0  0  0  0  0
    9.5435   -3.0218   21.4137 H   0  0  0  0  0  0  0  0  0  0  0  0
    5.3631    0.7834   20.1464 C   0  0  0  0  0  0  0  0  0  0  0  0
    4.8658    0.8478   21.1180 H   0  0  0  0  0  0  0  0  0  0  0  0
    4.7641    1.3721   19.0278 C   0  0  0  0  0  0  0  0  0  0  0  0
    3.8069    1.8783   19.0930 H   0  0  0  0  0  0  0  0  0  0  0  0
  1  2  1  0
  2  3  2  0
  3  4  1  0
  4  5  1  0
  4  6  2  0
  6  7  1  0
  7  8  1  1
  7  9  1  0
  7 10  1  0
 10 11  1  0
 10 12  1  0
 10 13  1  0
 13 14  2  0
 14 15  1  0
 15 16  2  0
 16 17  1  0
 17 18  1  0
  6 19  1  0
 19 20  1  0
 19 21  2  0
 21 22  1  0
 21  2  1  0
 17 13  1  0
M  END
>  <plip>  (1) 
-0.03333333333333333

>  <filename>  (1) 
[H][c]1[n][c]([H])[c]([C@]([H])([F])[C]([H])([H])[c]2[n][n][n][n]2[H])[c]([H])[c]1[H]

$$$$
