
     RDKit          3D

 38 40  0  0  0  0  0  0  0  0999 V2000
    5.9883    0.5692   24.9875 C   0  0  0  0  0  0  0  0  0  0  0  0
    6.8967    1.6981   24.9251 N   0  0  0  0  0  0  0  0  0  0  0  0
    7.7349    2.0088   23.8498 C   0  0  0  0  0  0  0  0  0  0  0  0
    7.8383    1.1638   22.5708 C   0  0  0  0  0  0  0  0  0  0  0  0
    8.4597    1.6491   21.6178 O   0  0  0  0  0  0  0  0  0  0  0  0
    7.2499   -0.0415   22.5581 N   0  0  0  0  0  0  0  0  0  0  0  0
    7.5841   -0.7949   21.1277 S   0  0  0  0  0  0  0  0  0  0  0  0
    8.9654   -0.9869   20.7226 O   0  0  0  0  0  0  0  0  0  0  0  0
    6.7515   -2.3409   21.3807 C   0  0  0  0  0  0  0  0  0  0  0  0
    6.8273   -2.9108   20.4554 H   0  0  0  0  0  0  0  0  0  0  0  0
    5.7170   -2.1522   21.6720 H   0  0  0  0  0  0  0  0  0  0  0  0
    7.3019   -2.8208   22.1904 H   0  0  0  0  0  0  0  0  0  0  0  0
    6.6592    0.0610   19.9547 C   0  0  0  0  0  0  0  0  0  0  0  0
    5.4313    0.6734   20.2096 C   0  0  0  0  0  0  0  0  0  0  0  0
    4.8168    1.2977   19.1325 C   0  0  0  0  0  0  0  0  0  0  0  0
    5.4309    1.2611   17.8775 C   0  0  0  0  0  0  0  0  0  0  0  0
    6.5951    0.6359   17.6471 N   0  0  0  0  0  0  0  0  0  0  0  0
    7.2092    0.0574   18.6744 C   0  0  0  0  0  0  0  0  0  0  0  0
    8.1550   -0.4371   18.4460 H   0  0  0  0  0  0  0  0  0  0  0  0
    4.9722    1.7502   17.0216 H   0  0  0  0  0  0  0  0  0  0  0  0
    3.8826    1.8299   19.2514 H   0  0  0  0  0  0  0  0  0  0  0  0
    4.9393    0.6761   21.1854 H   0  0  0  0  0  0  0  0  0  0  0  0
    8.4218    3.1667   24.1714 C   0  0  0  0  0  0  0  0  0  0  0  0
    8.0136    3.5857   25.4760 C   0  0  0  0  0  0  0  0  0  0  0  0
    8.3526    4.6632   26.3291 C   0  0  0  0  0  0  0  0  0  0  0  0
    7.7534    4.7740   27.5758 C   0  0  0  0  0  0  0  0  0  0  0  0
    6.8109    3.8063   27.9918 C   0  0  0  0  0  0  0  0  0  0  0  0
    6.2178    3.8787   29.2068 O   0  0  0  0  0  0  0  0  0  0  0  0
    6.5509    4.6622   29.6582 H   0  0  0  0  0  0  0  0  0  0  0  0
    6.4457    2.7375   27.1873 C   0  0  0  0  0  0  0  0  0  0  0  0
    7.0556    2.6368   25.9204 C   0  0  0  0  0  0  0  0  0  0  0  0
    5.7209    2.0383   27.5857 H   0  0  0  0  0  0  0  0  0  0  0  0
    8.0091    5.5940   28.2413 H   0  0  0  0  0  0  0  0  0  0  0  0
    9.0818    5.3981   26.0035 H   0  0  0  0  0  0  0  0  0  0  0  0
    9.1474    3.6828   23.5518 H   0  0  0  0  0  0  0  0  0  0  0  0
    5.4046    0.5287   24.0691 H   0  0  0  0  0  0  0  0  0  0  0  0
    5.3107    0.6880   25.8367 H   0  0  0  0  0  0  0  0  0  0  0  0
    6.5448   -0.3653   25.0798 H   0  0  0  0  0  0  0  0  0  0  0  0
  1  2  1  0
  2  3  1  0
  3  4  1  0
  4  5  2  0
  4  6  1  0
  6  7  2  0
  7  8  2  0
  7  9  1  0
  9 10  1  0
  9 11  1  0
  9 12  1  0
  7 13  1  0
 13 14  2  0
 14 15  1  0
 15 16  2  0
 16 17  1  0
 17 18  2  0
 18 19  1  0
 16 20  1  0
 15 21  1  0
 14 22  1  0
  3 23  2  0
 23 24  1  0
 24 25  2  0
 25 26  1  0
 26 27  2  0
 27 28  1  0
 28 29  1  0
 27 30  1  0
 30 31  2  0
 30 32  1  0
 26 33  1  0
 25 34  1  0
 23 35  1  0
  1 36  1  0
  1 37  1  0
  1 38  1  0
 31  2  1  0
 18 13  1  0
 31 24  1  0
M  END
>  <plip>  (1) 
-0.13793103448275862

>  <filename>  (1) 
[H][O][c]1[c]([H])[c]([H])[c]2[c]([H])[c]([C](=[O])[N]=[S](=[O])([c]3[c]([H])[n][c]([H])[c]([H])[c]3[H])[C]([H])([H])[H])[n]([C]([H])([H])[H])[c]2[c]1[H]

$$$$
