
     RDKit          3D

 42 44  0  0  0  0  0  0  0  0999 V2000
   13.3195    5.9403   23.6073 C   0  0  0  0  0  0  0  0  0  0  0  0
   12.4337    4.7947   23.1955 C   0  0  0  0  0  0  0  0  0  0  0  0
   12.9751    3.6602   22.6331 C   0  0  0  0  0  0  0  0  0  0  0  0
   12.0747    2.5769   22.2876 C   0  0  0  0  0  0  0  0  0  0  0  0
   12.3446    1.4005   21.7523 N   0  0  0  0  0  0  0  0  0  0  0  0
   11.1229    0.7786   21.6114 O   0  0  0  0  0  0  0  0  0  0  0  0
   10.1367    1.5748   22.0676 C   0  0  0  0  0  0  0  0  0  0  0  0
    8.7088    1.2042   22.0033 C   0  0  0  0  0  0  0  0  0  0  0  0
    7.8372    1.9418   22.4371 O   0  0  0  0  0  0  0  0  0  0  0  0
    8.4905   -0.0107   21.4598 N   0  0  0  0  0  0  0  0  0  0  0  0
    7.1686   -0.5546   21.2486 C   0  0  0  0  0  0  0  0  0  0  0  0
    6.5150    0.1726   20.0706 C   0  0  0  0  0  0  0  0  0  0  0  0
    5.2860    0.8449   20.1707 C   0  0  0  0  0  0  0  0  0  0  0  0
    4.7297    1.4114   19.0181 C   0  0  0  0  0  0  0  0  0  0  0  0
    5.4353    1.3085   17.8159 C   0  0  0  0  0  0  0  0  0  0  0  0
    6.6207    0.6932   17.7006 N   0  0  0  0  0  0  0  0  0  0  0  0
    7.1401    0.1547   18.8130 C   0  0  0  0  0  0  0  0  0  0  0  0
    8.1100   -0.3352   18.6830 H   0  0  0  0  0  0  0  0  0  0  0  0
    5.0370    1.7288   16.8964 H   0  0  0  0  0  0  0  0  0  0  0  0
    3.7843    1.9429   19.0390 H   0  0  0  0  0  0  0  0  0  0  0  0
    4.7936    0.9500   21.1403 H   0  0  0  0  0  0  0  0  0  0  0  0
    7.3369   -2.0827   21.0234 C   0  0  0  0  0  0  0  0  0  0  0  0
    5.9862   -2.7240   20.6870 C   0  0  0  0  0  0  0  0  0  0  0  0
    6.0813   -3.7837   20.4334 H   0  0  0  0  0  0  0  0  0  0  0  0
    5.4971   -2.2114   19.8520 H   0  0  0  0  0  0  0  0  0  0  0  0
    5.3167   -2.6583   21.5534 H   0  0  0  0  0  0  0  0  0  0  0  0
    8.0539   -2.8545   22.1592 C   0  0  0  0  0  0  0  0  0  0  0  0
    9.0837   -2.5042   22.3127 H   0  0  0  0  0  0  0  0  0  0  0  0
    7.5270   -2.7796   23.1214 H   0  0  0  0  0  0  0  0  0  0  0  0
    8.1010   -3.9240   21.9044 H   0  0  0  0  0  0  0  0  0  0  0  0
    8.0120   -2.1194   20.1608 H   0  0  0  0  0  0  0  0  0  0  0  0
    6.5640   -0.3770   22.1536 H   0  0  0  0  0  0  0  0  0  0  0  0
    9.2703   -0.4275   20.9831 H   0  0  0  0  0  0  0  0  0  0  0  0
   10.6821    2.7385   22.5245 C   0  0  0  0  0  0  0  0  0  0  0  0
   10.1437    3.9138   23.0856 C   0  0  0  0  0  0  0  0  0  0  0  0
   11.0174    4.9214   23.4380 C   0  0  0  0  0  0  0  0  0  0  0  0
   10.6446    5.8275   23.9064 H   0  0  0  0  0  0  0  0  0  0  0  0
    9.0694    3.9791   23.1881 H   0  0  0  0  0  0  0  0  0  0  0  0
   14.0406    3.5686   22.4467 H   0  0  0  0  0  0  0  0  0  0  0  0
   14.1577    6.0606   22.9161 H   0  0  0  0  0  0  0  0  0  0  0  0
   13.7217    5.7523   24.6079 H   0  0  0  0  0  0  0  0  0  0  0  0
   12.7777    6.8899   23.6443 H   0  0  0  0  0  0  0  0  0  0  0  0
  1  2  1  0
  2  3  2  0
  3  4  1  0
  4  5  2  0
  5  6  1  0
  6  7  1  0
  7  8  1  0
  8  9  2  0
  8 10  1  0
 10 11  1  0
 11 12  1  0
 12 13  2  0
 13 14  1  0
 14 15  2  0
 15 16  1  0
 16 17  2  0
 17 18  1  0
 15 19  1  0
 14 20  1  0
 13 21  1  0
 11 22  1  0
 22 23  1  0
 23 24  1  0
 23 25  1  0
 23 26  1  0
 22 27  1  0
 27 28  1  0
 27 29  1  0
 27 30  1  0
 22 31  1  0
 11 32  1  0
 10 33  1  0
  7 34  2  0
 34 35  1  0
 35 36  2  0
 36 37  1  0
 35 38  1  0
  3 39  1  0
  1 40  1  0
  1 41  1  0
  1 42  1  0
 36  2  1  0
 34  4  1  0
 17 12  1  0
M  END
>  <plip>  (1) 
-0.10714285714285714

>  <filename>  (1) 
[H][c]1[n][c]([H])[c]([C]([H])([N]([H])[C](=[O])[c]2[o][n][c]3[c]([H])[c]([C]([H])([H])[H])[c]([H])[c]([H])[c]23)[C]([H])([C]([H])([H])[H])[C]([H])([H])[H])[c]([H])[c]1[H]

$$$$
