
     RDKit          3D

 51 54  0  0  0  0  0  0  0  0999 V2000
    6.0041   -3.1373   20.5095 O   0  0  0  0  0  0  0  0  0  0  0  0
    5.8713   -2.6585   21.6253 C   0  0  0  0  0  0  0  0  0  0  0  0
    6.5434   -1.5086   21.9772 N   0  0  0  0  0  0  0  0  0  0  0  0
    7.3777   -0.7930   21.0177 C   0  0  0  0  0  0  0  0  0  0  0  0
    6.5564   -0.0945   19.9321 C   0  0  0  0  0  0  0  0  0  0  0  0
    5.3423    0.5855   20.1303 C   0  0  0  0  0  0  0  0  0  0  0  0
    4.7856    1.2925   19.0592 C   0  0  0  0  0  0  0  0  0  0  0  0
    5.4443    1.2825   17.8263 C   0  0  0  0  0  0  0  0  0  0  0  0
    6.5778    0.6008   17.5992 N   0  0  0  0  0  0  0  0  0  0  0  0
    7.0924   -0.0710   18.6355 C   0  0  0  0  0  0  0  0  0  0  0  0
    8.0082   -0.6285   18.4291 H   0  0  0  0  0  0  0  0  0  0  0  0
    5.0424    1.8338   16.9791 H   0  0  0  0  0  0  0  0  0  0  0  0
    3.8647    1.8555   19.1725 H   0  0  0  0  0  0  0  0  0  0  0  0
    4.8446    0.5759   21.1035 H   0  0  0  0  0  0  0  0  0  0  0  0
    8.4018    0.1573   21.7079 C   0  0  0  0  0  0  0  0  0  0  0  0
    7.7921    1.4060   22.3817 C   0  0  0  0  0  0  0  0  0  0  0  0
    8.8755    2.3301   22.9578 C   0  0  0  0  0  0  0  0  0  0  0  0
    9.7915    1.5890   23.9377 C   0  0  0  0  0  0  0  0  0  0  0  0
   10.4167    0.3542   23.2780 C   0  0  0  0  0  0  0  0  0  0  0  0
    9.3446   -0.5780   22.6884 C   0  0  0  0  0  0  0  0  0  0  0  0
    9.8240   -1.4268   22.1863 H   0  0  0  0  0  0  0  0  0  0  0  0
    8.7501   -1.0060   23.5081 H   0  0  0  0  0  0  0  0  0  0  0  0
   11.0428   -0.1922   23.9933 H   0  0  0  0  0  0  0  0  0  0  0  0
   11.0914    0.6855   22.4764 H   0  0  0  0  0  0  0  0  0  0  0  0
    9.2053    1.2716   24.8099 H   0  0  0  0  0  0  0  0  0  0  0  0
   10.5701    2.2579   24.3218 H   0  0  0  0  0  0  0  0  0  0  0  0
    9.4865    2.7272   22.1346 H   0  0  0  0  0  0  0  0  0  0  0  0
    8.4169    3.2019   23.4389 H   0  0  0  0  0  0  0  0  0  0  0  0
    7.1778    1.9653   21.6663 H   0  0  0  0  0  0  0  0  0  0  0  0
    7.1144    1.0961   23.1910 H   0  0  0  0  0  0  0  0  0  0  0  0
    9.0341    0.5311   20.8886 H   0  0  0  0  0  0  0  0  0  0  0  0
    7.9687   -1.5662   20.5026 H   0  0  0  0  0  0  0  0  0  0  0  0
    6.2943   -1.0334   22.8252 H   0  0  0  0  0  0  0  0  0  0  0  0
    5.0014   -3.3075   22.7080 C   0  0  0  0  0  0  0  0  0  0  0  0
    4.0942   -4.2204   22.3662 N   0  0  0  0  0  0  0  0  0  0  0  0
    3.4665   -4.5708   23.4920 N   0  0  0  0  0  0  0  0  0  0  0  0
    2.4789   -5.6072   23.4486 C   0  0  0  0  0  0  0  0  0  0  0  0
    2.8203   -6.8644   22.9166 C   0  0  0  0  0  0  0  0  0  0  0  0
    1.9373   -7.9415   23.0173 C   0  0  0  0  0  0  0  0  0  0  0  0
    0.6772   -7.7560   23.6013 C   0  0  0  0  0  0  0  0  0  0  0  0
    0.2885   -6.4880   24.0423 C   0  0  0  0  0  0  0  0  0  0  0  0
    1.1793   -5.4115   23.9499 C   0  0  0  0  0  0  0  0  0  0  0  0
    0.6193   -3.8337   24.4160 Cl  0  0  0  0  0  0  0  0  0  0  0  0
   -0.7054   -6.3153   24.4501 H   0  0  0  0  0  0  0  0  0  0  0  0
   -0.0073   -8.5955   23.6984 H   0  0  0  0  0  0  0  0  0  0  0  0
    2.2308   -8.9140   22.6257 H   0  0  0  0  0  0  0  0  0  0  0  0
    3.7782   -6.9680   22.4124 H   0  0  0  0  0  0  0  0  0  0  0  0
    3.9664   -3.9116   24.5791 C   0  0  0  0  0  0  0  0  0  0  0  0
    4.9767   -3.1083   24.1251 C   0  0  0  0  0  0  0  0  0  0  0  0
    5.6270   -2.4857   24.7301 H   0  0  0  0  0  0  0  0  0  0  0  0
    3.5214   -4.0298   25.5624 H   0  0  0  0  0  0  0  0  0  0  0  0
  1  2  2  0
  2  3  1  0
  3  4  1  0
  4  5  1  0
  5  6  2  0
  6  7  1  0
  7  8  2  0
  8  9  1  0
  9 10  2  0
 10 11  1  0
  8 12  1  0
  7 13  1  0
  6 14  1  0
  4 15  1  0
 15 16  1  0
 16 17  1  0
 17 18  1  0
 18 19  1  0
 19 20  1  0
 20 21  1  0
 20 22  1  0
 19 23  1  0
 19 24  1  0
 18 25  1  0
 18 26  1  0
 17 27  1  0
 17 28  1  0
 16 29  1  0
 16 30  1  0
 15 31  1  0
  4 32  1  0
  3 33  1  0
  2 34  1  0
 34 35  2  0
 35 36  1  0
 36 37  1  0
 37 38  2  0
 38 39  1  0
 39 40  2  0
 40 41  1  0
 41 42  2  0
 42 43  1  0
 41 44  1  0
 40 45  1  0
 39 46  1  0
 38 47  1  0
 36 48  1  0
 48 49  2  0
 49 50  1  0
 48 51  1  0
 10  5  1  0
 20 15  1  0
 49 34  1  0
 42 37  1  0
M  END
>  <plip>  (1) 
-0.06896551724137931

>  <filename>  (1) 
[H][c]1[n][c]([H])[c]([C]([H])([N]([H])[C](=[O])[c]2[n][n](-[c]3[c]([H])[c]([H])[c]([H])[c]([H])[c]3[Cl])[c]([H])[c]2[H])[C]2([H])[C]([H])([H])[C]([H])([H])[C]([H])([H])[C]([H])([H])[C]2([H])[H])[c]([H])[c]1[H]

$$$$
