
     RDKit          3D

 28 29  0  0  0  0  0  0  0  0999 V2000
    5.0134    1.7607   17.0186 H   0  0  0  0  0  0  0  0  0  0  0  0
    5.4468    1.2398   17.8697 C   0  0  0  0  0  0  0  0  0  0  0  0
    6.6039    0.6088   17.6372 N   0  0  0  0  0  0  0  0  0  0  0  0
    7.1791   -0.0137   18.6682 C   0  0  0  0  0  0  0  0  0  0  0  0
    8.1460   -0.4637   18.4503 H   0  0  0  0  0  0  0  0  0  0  0  0
    6.6389   -0.0465   19.9584 C   0  0  0  0  0  0  0  0  0  0  0  0
    7.4451   -0.6334   21.0362 C   0  0  0  0  0  0  0  0  0  0  0  0
    7.3129   -0.2103   22.2285 N   0  0  0  0  0  0  0  0  0  0  0  0
    7.8246   -0.8647   23.3153 C   0  0  0  0  0  0  0  0  0  0  0  0
    8.1402   -2.1688   23.3190 N   0  0  0  0  0  0  0  0  0  0  0  0
    8.4434   -2.7461   24.5108 C   0  0  0  0  0  0  0  0  0  0  0  0
    8.6903   -4.2819   24.5941 C   0  0  0  0  0  0  0  0  0  0  0  0
    7.8768   -4.8697   25.4993 F   0  0  0  0  0  0  0  0  0  0  0  0
    9.9505   -4.5318   25.0123 F   0  0  0  0  0  0  0  0  0  0  0  0
    8.5192   -4.9370   23.4430 F   0  0  0  0  0  0  0  0  0  0  0  0
    8.5969   -2.0062   25.6901 C   0  0  0  0  0  0  0  0  0  0  0  0
    8.9298   -2.4898   26.6022 H   0  0  0  0  0  0  0  0  0  0  0  0
    8.3395   -0.6171   25.6646 C   0  0  0  0  0  0  0  0  0  0  0  0
    8.4708   -0.0093   26.5605 H   0  0  0  0  0  0  0  0  0  0  0  0
    7.9317   -0.0567   24.4748 C   0  0  0  0  0  0  0  0  0  0  0  0
    7.6673    0.9814   24.3190 H   0  0  0  0  0  0  0  0  0  0  0  0
    8.3663   -1.5463   20.6461 N   0  0  0  0  0  0  0  0  0  0  0  0
    8.6308   -2.0768   21.4717 H   0  0  0  0  0  0  0  0  0  0  0  0
    7.9953   -2.1135   19.9050 H   0  0  0  0  0  0  0  0  0  0  0  0
    5.4149    0.6110   20.1889 C   0  0  0  0  0  0  0  0  0  0  0  0
    4.9773    0.6450   21.1927 H   0  0  0  0  0  0  0  0  0  0  0  0
    4.8108    1.2637   19.1192 C   0  0  0  0  0  0  0  0  0  0  0  0
    3.8917    1.8271   19.2465 H   0  0  0  0  0  0  0  0  0  0  0  0
  1  2  1  0
  2  3  2  0
  3  4  1  0
  4  5  1  0
  4  6  2  0
  6  7  1  0
  7  8  2  3
  8  9  1  0
  9 10  2  0
 10 11  1  0
 11 12  1  0
 12 13  1  0
 12 14  1  0
 12 15  1  0
 11 16  2  0
 16 17  1  0
 16 18  1  0
 18 19  1  0
 18 20  2  0
 20 21  1  0
  7 22  1  0
 22 23  1  0
 22 24  1  0
  6 25  1  0
 25 26  1  0
 25 27  2  0
 27 28  1  0
 27  2  1  0
 20  9  1  0
M  END
>  <plip>  (1) 
-0.0

>  <filename>  (1) 
[H][c]1[n][c]([H])[c]([C](=[N][c]2[n][c]([C]([F])([F])[F])[c]([H])[c]([H])[c]2[H])[N]([H])[H])[c]([H])[c]1[H]

$$$$
