
     RDKit          3D

 28 30  0  0  0  0  0  0  0  0999 V2000
    9.2075   -1.6373   24.7621 H   0  0  0  0  0  0  0  0  0  0  0  0
    8.5413   -0.9447   24.4293 N   0  0  0  0  0  0  0  0  0  0  0  0
    8.0629   -1.3152   23.3160 C   0  0  0  0  0  0  0  0  0  0  0  0
    8.3491   -2.7971   22.3857 S   0  0  0  0  0  0  0  0  0  0  0  0
    7.4403   -2.1677   21.0522 C   0  0  0  0  0  0  0  0  0  0  0  0
    7.2574   -2.7300   20.1571 H   0  0  0  0  0  0  0  0  0  0  0  0
    6.9635   -0.9359   21.2779 C   0  0  0  0  0  0  0  0  0  0  0  0
    6.4110   -0.0594   20.2342 C   0  0  0  0  0  0  0  0  0  0  0  0
    7.0738   -0.0506   18.9916 C   0  0  0  0  0  0  0  0  0  0  0  0
    8.0345   -0.5605   18.8925 H   0  0  0  0  0  0  0  0  0  0  0  0
    6.6319    0.5720   17.8962 N   0  0  0  0  0  0  0  0  0  0  0  0
    5.4990    1.2771   18.0204 C   0  0  0  0  0  0  0  0  0  0  0  0
    5.1442    1.7703   17.1174 H   0  0  0  0  0  0  0  0  0  0  0  0
    4.7886    1.3939   19.2217 C   0  0  0  0  0  0  0  0  0  0  0  0
    3.8991    2.0117   19.2500 H   0  0  0  0  0  0  0  0  0  0  0  0
    5.2510    0.7215   20.3548 C   0  0  0  0  0  0  0  0  0  0  0  0
    4.7290    0.7644   21.3122 H   0  0  0  0  0  0  0  0  0  0  0  0
    7.1312   -0.5392   22.6135 N   0  0  0  0  0  0  0  0  0  0  0  0
    6.6839    0.6883   23.1394 C   0  0  0  0  0  0  0  0  0  0  0  0
    5.9126    0.6388   23.9212 H   0  0  0  0  0  0  0  0  0  0  0  0
    7.2574    1.8342   22.7540 C   0  0  0  0  0  0  0  0  0  0  0  0
    6.7043    3.4370   23.2397 S   0  0  0  0  0  0  0  0  0  0  0  0
    7.9161    4.2276   22.1827 C   0  0  0  0  0  0  0  0  0  0  0  0
    8.0717    5.4026   22.0116 O   0  0  0  0  0  0  0  0  0  0  0  0
    8.6820    3.2580   21.6038 N   0  0  0  0  0  0  0  0  0  0  0  0
    9.4067    3.5483   20.9753 H   0  0  0  0  0  0  0  0  0  0  0  0
    8.4086    1.9313   21.8064 C   0  0  0  0  0  0  0  0  0  0  0  0
    9.0324    1.0553   21.2559 O   0  0  0  0  0  0  0  0  0  0  0  0
  1  2  1  0
  2  3  2  3
  3  4  1  0
  4  5  1  0
  5  6  1  0
  5  7  2  0
  7  8  1  0
  8  9  2  0
  9 10  1  0
  9 11  1  0
 11 12  2  0
 12 13  1  0
 12 14  1  0
 14 15  1  0
 14 16  2  0
 16 17  1  0
  7 18  1  0
 18 19  1  0
 19 20  1  0
 19 21  2  3
 21 22  1  0
 22 23  1  0
 23 24  2  0
 23 25  1  0
 25 26  1  0
 25 27  1  0
 27 28  2  0
 18  3  1  0
 27 21  1  0
 16  8  1  0
M  END
>  <plip>  (1) 
-0.10714285714285714

>  <filename>  (1) 
[H][N]=[c]1[s][c]([H])[c](-[c]2[c]([H])[n][c]([H])[c]([H])[c]2[H])[n]1[C]([H])=[C]1[S][C](=[O])[N]([H])[C]1=[O]

$$$$
