
     RDKit          3D

 36 37  0  0  0  0  0  0  0  0999 V2000
    9.3879   -2.0401   26.0891 H   0  0  0  0  0  0  0  0  0  0  0  0
    9.4268   -2.2227   27.0477 O   0  0  0  0  0  0  0  0  0  0  0  0
    9.1228   -3.5909   27.1943 C   0  0  0  0  0  0  0  0  0  0  0  0
    8.0771   -3.7109   27.5322 H   0  0  0  0  0  0  0  0  0  0  0  0
    9.7568   -4.0201   27.9798 H   0  0  0  0  0  0  0  0  0  0  0  0
    9.4015   -4.3665   25.9185 C   0  0  0  0  0  0  0  0  0  0  0  0
   10.4743   -4.3040   25.7065 H   0  0  0  0  0  0  0  0  0  0  0  0
    9.1993   -5.4259   26.0970 H   0  0  0  0  0  0  0  0  0  0  0  0
    8.6548   -3.8690   24.6931 C   0  0  0  0  0  0  0  0  0  0  0  0
    8.6244   -4.6595   23.9291 H   0  0  0  0  0  0  0  0  0  0  0  0
    7.6188   -3.6134   24.9348 H   0  0  0  0  0  0  0  0  0  0  0  0
    9.2846   -2.6480   24.1778 N   0  0  0  0  0  0  0  0  0  0  0  0
   10.2381   -2.8390   23.8454 H   0  0  0  0  0  0  0  0  0  0  0  0
    8.4905   -2.0307   23.1888 N   0  0  0  0  0  0  0  0  0  0  0  0
    8.7124   -2.5137   21.8200 C   0  0  0  0  0  0  0  0  0  0  0  0
    8.4879   -3.5847   21.7639 H   0  0  0  0  0  0  0  0  0  0  0  0
    9.7717   -2.3985   21.5076 H   0  0  0  0  0  0  0  0  0  0  0  0
    7.7960   -1.7948   20.8653 C   0  0  0  0  0  0  0  0  0  0  0  0
    7.4124   -2.3547   20.0259 H   0  0  0  0  0  0  0  0  0  0  0  0
    7.3378   -0.5565   21.0566 C   0  0  0  0  0  0  0  0  0  0  0  0
    6.6266    0.1444   19.9534 C   0  0  0  0  0  0  0  0  0  0  0  0
    7.1386    0.1241   18.6356 C   0  0  0  0  0  0  0  0  0  0  0  0
    8.0762   -0.3930   18.4335 H   0  0  0  0  0  0  0  0  0  0  0  0
    6.5555    0.7074   17.5816 N   0  0  0  0  0  0  0  0  0  0  0  0
    5.3868    1.3325   17.7982 C   0  0  0  0  0  0  0  0  0  0  0  0
    4.9255    1.8058   16.9334 H   0  0  0  0  0  0  0  0  0  0  0  0
    4.7649    1.3847   19.0496 C   0  0  0  0  0  0  0  0  0  0  0  0
    3.8089    1.8849   19.1538 H   0  0  0  0  0  0  0  0  0  0  0  0
    5.3972    0.7919   20.1446 C   0  0  0  0  0  0  0  0  0  0  0  0
    4.9398    0.8007   21.1338 H   0  0  0  0  0  0  0  0  0  0  0  0
    7.4237    0.0528   22.4502 C   0  0  0  0  0  0  0  0  0  0  0  0
    7.5401    1.1392   22.4060 H   0  0  0  0  0  0  0  0  0  0  0  0
    6.4775   -0.1568   22.9693 H   0  0  0  0  0  0  0  0  0  0  0  0
    8.5603   -0.5720   23.2709 C   0  0  0  0  0  0  0  0  0  0  0  0
    9.5455   -0.1952   22.9339 H   0  0  0  0  0  0  0  0  0  0  0  0
    8.4528   -0.3056   24.3268 H   0  0  0  0  0  0  0  0  0  0  0  0
  1  2  1  0
  2  3  1  0
  3  4  1  0
  3  5  1  0
  3  6  1  0
  6  7  1  0
  6  8  1  0
  6  9  1  0
  9 10  1  0
  9 11  1  0
  9 12  1  0
 12 13  1  0
 12 14  1  0
 14 15  1  0
 15 16  1  0
 15 17  1  0
 15 18  1  0
 18 19  1  0
 18 20  2  0
 20 21  1  0
 21 22  2  0
 22 23  1  0
 22 24  1  0
 24 25  2  0
 25 26  1  0
 25 27  1  0
 27 28  1  0
 27 29  2  0
 29 30  1  0
 20 31  1  0
 31 32  1  0
 31 33  1  0
 31 34  1  0
 34 35  1  0
 34 36  1  0
 34 14  1  0
 29 21  1  0
M  END
>  <plip>  (1) 
-0.03571428571428571

>  <filename>  (1) 
[H][O][C]([H])([H])[C]([H])([H])[C]([H])([H])[N]([H])[N]1[C]([H])([H])[C]([H])=[C]([c]2[c]([H])[n][c]([H])[c]([H])[c]2[H])[C]([H])([H])[C]1([H])[H]

$$$$
