
     RDKit          3D

 39 40  0  0  0  0  0  0  0  0999 V2000
    9.0644    1.1449   21.3075 C   0  0  0  0  0  0  0  0  0  0  0  0
    8.1457    0.1402   21.9956 C   0  0  0  0  0  0  0  0  0  0  0  0
    7.0783    0.9110   22.7788 C   0  0  0  0  0  0  0  0  0  0  0  0
    7.5509    1.4885   23.5779 H   0  0  0  0  0  0  0  0  0  0  0  0
    6.3479    0.2324   23.2251 H   0  0  0  0  0  0  0  0  0  0  0  0
    6.5517    1.6113   22.1224 H   0  0  0  0  0  0  0  0  0  0  0  0
    7.5574   -0.8010   20.9224 C   0  0  0  0  0  0  0  0  0  0  0  0
    6.7355   -1.9487   21.5320 C   0  0  0  0  0  0  0  0  0  0  0  0
    5.6101   -2.2060   21.1234 O   0  0  0  0  0  0  0  0  0  0  0  0
    7.3377   -2.8042   22.4239 N   0  0  0  0  0  0  0  0  0  0  0  0
    6.6826   -3.8875   22.9410 C   0  0  0  0  0  0  0  0  0  0  0  0
    5.5344   -4.2348   22.3752 N   0  0  0  0  0  0  0  0  0  0  0  0
    4.8959   -5.3007   22.8561 C   0  0  0  0  0  0  0  0  0  0  0  0
    5.3780   -6.0482   23.9367 C   0  0  0  0  0  0  0  0  0  0  0  0
    4.4104   -7.5883   24.5392 Br  0  0  0  0  0  0  0  0  0  0  0  0
    6.5762   -5.6669   24.5398 C   0  0  0  0  0  0  0  0  0  0  0  0
    7.2522   -4.5621   24.0053 C   0  0  0  0  0  0  0  0  0  0  0  0
    8.5931   -4.0795   24.4654 C   0  0  0  0  0  0  0  0  0  0  0  0
    9.4736   -4.3523   23.4691 F   0  0  0  0  0  0  0  0  0  0  0  0
    8.9976   -4.6935   25.6024 F   0  0  0  0  0  0  0  0  0  0  0  0
    8.5581   -2.9960   24.6389 H   0  0  0  0  0  0  0  0  0  0  0  0
    6.9593   -6.2319   25.3895 H   0  0  0  0  0  0  0  0  0  0  0  0
    3.9627   -5.5895   22.3784 H   0  0  0  0  0  0  0  0  0  0  0  0
    8.2603   -2.5915   22.7688 H   0  0  0  0  0  0  0  0  0  0  0  0
    6.7867   -0.0175   19.8661 C   0  0  0  0  0  0  0  0  0  0  0  0
    5.5648    0.5840   20.1739 C   0  0  0  0  0  0  0  0  0  0  0  0
    4.9019    1.2567   19.1481 C   0  0  0  0  0  0  0  0  0  0  0  0
    5.4555    1.3040   17.8622 C   0  0  0  0  0  0  0  0  0  0  0  0
    6.6267    0.7135   17.5591 N   0  0  0  0  0  0  0  0  0  0  0  0
    7.2690    0.0769   18.5507 C   0  0  0  0  0  0  0  0  0  0  0  0
    8.2072   -0.4189   18.3274 H   0  0  0  0  0  0  0  0  0  0  0  0
    4.9259    1.8368   17.0797 H   0  0  0  0  0  0  0  0  0  0  0  0
    3.9545    1.7494   19.3321 H   0  0  0  0  0  0  0  0  0  0  0  0
    5.1388    0.5280   21.1763 H   0  0  0  0  0  0  0  0  0  0  0  0
    8.4010   -1.2886   20.4278 H   0  0  0  0  0  0  0  0  0  0  0  0
    8.7347   -0.4571   22.7015 H   0  0  0  0  0  0  0  0  0  0  0  0
    9.8096    0.6256   20.7013 H   0  0  0  0  0  0  0  0  0  0  0  0
    8.4765    1.7930   20.6509 H   0  0  0  0  0  0  0  0  0  0  0  0
    9.5757    1.7682   22.0428 H   0  0  0  0  0  0  0  0  0  0  0  0
  1  2  1  0
  2  3  1  0
  3  4  1  0
  3  5  1  0
  3  6  1  0
  2  7  1  0
  7  8  1  0
  8  9  2  0
  8 10  1  0
 10 11  1  0
 11 12  2  0
 12 13  1  0
 13 14  2  0
 14 15  1  0
 14 16  1  0
 16 17  2  0
 17 18  1  0
 18 19  1  0
 18 20  1  0
 18 21  1  0
 16 22  1  0
 13 23  1  0
 10 24  1  0
  7 25  1  0
 25 26  2  0
 26 27  1  0
 27 28  2  0
 28 29  1  0
 29 30  2  0
 30 31  1  0
 28 32  1  0
 27 33  1  0
 26 34  1  0
  7 35  1  0
  2 36  1  0
  1 37  1  0
  1 38  1  0
  1 39  1  0
 17 11  1  0
 30 25  1  0
M  END
>  <plip>  (1) 
-0.10714285714285714

>  <filename>  (1) 
[H][c]1[n][c]([H])[c]([C]([H])([C](=[O])[N]([H])[c]2[n][c]([H])[c]([Br])[c]([H])[c]2[C]([H])([F])[F])[C]([H])([C]([H])([H])[H])[C]([H])([H])[H])[c]([H])[c]1[H]

$$$$
