
     RDKit          3D

 43 44  0  0  0  0  0  0  0  0999 V2000
    7.8421    0.2761   22.1102 C   0  0  0  0  0  0  0  0  0  0  0  0
    7.4442   -0.6787   20.9876 C   0  0  0  0  0  0  0  0  0  0  0  0
    6.6669   -1.8348   21.5073 N   0  0  0  0  0  4  0  0  0  0  0  0
    7.3919   -2.7782   22.3703 C   0  0  0  0  0  0  0  0  0  0  0  0
    6.5488   -4.0137   22.6249 C   0  0  0  0  0  0  0  0  0  0  0  0
    5.3051   -3.8053   23.4837 C   0  0  0  0  0  0  0  0  0  0  0  0
    4.7309   -5.0684   23.7957 O   0  0  0  0  0  0  0  0  0  0  0  0
    5.1080   -5.7344   24.9282 C   0  0  0  0  0  0  0  0  0  0  0  0
    4.2387   -6.7722   25.3040 C   0  0  0  0  0  0  0  0  0  0  0  0
    4.4919   -7.5004   26.4624 C   0  0  0  0  0  0  0  0  0  0  0  0
    5.6320   -7.2390   27.2274 C   0  0  0  0  0  0  0  0  0  0  0  0
    6.5203   -6.2277   26.8401 C   0  0  0  0  0  0  0  0  0  0  0  0
    7.7358   -5.9364   27.7023 C   0  0  0  0  0  0  0  0  0  0  0  0
    8.7807   -5.5019   26.9718 F   0  0  0  0  0  0  0  0  0  0  0  0
    8.1506   -7.0178   28.3869 F   0  0  0  0  0  0  0  0  0  0  0  0
    7.4778   -4.9811   28.6188 F   0  0  0  0  0  0  0  0  0  0  0  0
    6.2415   -5.4464   25.7018 C   0  0  0  0  0  0  0  0  0  0  0  0
    6.9213   -4.6532   25.3869 H   0  0  0  0  0  0  0  0  0  0  0  0
    5.8183   -7.8190   28.1259 H   0  0  0  0  0  0  0  0  0  0  0  0
    3.8392   -8.3209   26.7515 H   0  0  0  0  0  0  0  0  0  0  0  0
    3.3775   -6.9602   24.6690 H   0  0  0  0  0  0  0  0  0  0  0  0
    5.5218   -3.2505   24.4082 H   0  0  0  0  0  0  0  0  0  0  0  0
    4.5243   -3.2519   22.9484 H   0  0  0  0  0  0  0  0  0  0  0  0
    6.2462   -4.4620   21.6723 H   0  0  0  0  0  0  0  0  0  0  0  0
    7.1720   -4.7613   23.1265 H   0  0  0  0  0  0  0  0  0  0  0  0
    8.3444   -3.0651   21.8988 H   0  0  0  0  0  0  0  0  0  0  0  0
    7.6530   -2.3131   23.3322 H   0  0  0  0  0  0  0  0  0  0  0  0
    6.2513   -2.3294   20.6832 H   0  0  0  0  0  0  0  0  0  0  0  0
    5.8671   -1.4057   22.0443 H   0  0  0  0  0  0  0  0  0  0  0  0
    6.6110   -0.0242   19.9182 C   0  0  0  0  0  0  0  0  0  0  0  0
    5.3979    0.6434   20.1502 C   0  0  0  0  0  0  0  0  0  0  0  0
    4.7826    1.3055   19.0851 C   0  0  0  0  0  0  0  0  0  0  0  0
    5.3917    1.2811   17.8270 C   0  0  0  0  0  0  0  0  0  0  0  0
    6.5379    0.6319   17.5804 N   0  0  0  0  0  0  0  0  0  0  0  0
    7.1167    0.0079   18.6120 C   0  0  0  0  0  0  0  0  0  0  0  0
    8.0619   -0.4897   18.3934 H   0  0  0  0  0  0  0  0  0  0  0  0
    4.9432    1.8056   16.9836 H   0  0  0  0  0  0  0  0  0  0  0  0
    3.8588    1.8575   19.2196 H   0  0  0  0  0  0  0  0  0  0  0  0
    4.9410    0.6775   21.1432 H   0  0  0  0  0  0  0  0  0  0  0  0
    8.3598   -1.0662   20.5220 H   0  0  0  0  0  0  0  0  0  0  0  0
    6.9556    0.6170   22.6565 H   0  0  0  0  0  0  0  0  0  0  0  0
    8.3427    1.1522   21.6939 H   0  0  0  0  0  0  0  0  0  0  0  0
    8.5215   -0.2110   22.8167 H   0  0  0  0  0  0  0  0  0  0  0  0
  1  2  1  0
  2  3  1  0
  3  4  1  0
  4  5  1  0
  5  6  1  0
  6  7  1  0
  7  8  1  0
  8  9  2  0
  9 10  1  0
 10 11  2  0
 11 12  1  0
 12 13  1  0
 13 14  1  0
 13 15  1  0
 13 16  1  0
 12 17  2  0
 17 18  1  0
 11 19  1  0
 10 20  1  0
  9 21  1  0
  6 22  1  0
  6 23  1  0
  5 24  1  0
  5 25  1  0
  4 26  1  0
  4 27  1  0
  3 28  1  0
  3 29  1  0
  2 30  1  0
 30 31  2  0
 31 32  1  0
 32 33  2  0
 33 34  1  0
 34 35  2  0
 35 36  1  0
 33 37  1  0
 32 38  1  0
 31 39  1  0
  2 40  1  0
  1 41  1  0
  1 42  1  0
  1 43  1  0
 17  8  1  0
 35 30  1  0
M  CHG  1   3   1
M  END
>  <plip>  (1) 
-0.07142857142857142

>  <filename>  (1) 
[H][c]1[n][c]([H])[c]([C]([H])([C]([H])([H])[H])[N+]([H])([H])[C]([H])([H])[C]([H])([H])[C]([H])([H])[O][c]2[c]([H])[c]([H])[c]([H])[c]([C]([F])([F])[F])[c]2[H])[c]([H])[c]1[H]

$$$$
