
     RDKit          3D

 44 47  0  0  0  0  0  0  0  0999 V2000
    5.8483   -1.8180   20.6370 O   0  0  0  0  0  0  0  0  0  0  0  0
    6.1733   -1.6911   21.7909 C   0  0  0  0  0  0  0  0  0  0  0  0
    5.8891   -2.5921   22.8373 N   0  0  0  0  0  0  0  0  0  0  0  0
    5.1839   -3.7858   22.5791 C   0  0  0  0  0  0  0  0  0  0  0  0
    3.9796   -4.2123   23.0847 C   0  0  0  0  0  0  0  0  0  0  0  0
    3.6146   -5.4261   22.5666 N   0  0  0  0  0  0  0  0  0  0  0  0
    4.5922   -5.7497   21.7699 C   0  0  0  0  0  0  0  0  0  0  0  0
    4.7606   -7.6152   19.8764 C   0  0  0  0  0  0  0  0  0  0  0  0
    3.2210   -8.3152   19.5240 Cl  0  0  0  0  0  0  0  0  0  0  0  0
    5.1341   -7.0215   20.9650 C   0  0  0  0  0  0  0  0  0  0  0  0
    6.8733   -5.2126   21.0087 C   0  0  0  0  0  0  0  0  0  0  0  0
    6.9049   -4.9345   20.9689 C   0  0  0  0  0  0  0  0  0  0  0  0
    5.5715   -4.7605   21.7425 N   0  0  0  0  0  0  0  0  0  0  0  0
    7.5630   -5.2457   21.9529 H   0  0  0  0  0  0  0  0  0  0  0  0
    6.5117   -5.4377   19.9278 H   0  0  0  0  0  0  0  0  0  0  0  0
    6.1898   -7.1817   21.2618 H   0  0  0  0  0  0  0  0  0  0  0  0
    3.3470   -3.7223   23.8237 H   0  0  0  0  0  0  0  0  0  0  0  0
    5.5226   -2.0650   23.6169 H   0  0  0  0  0  0  0  0  0  0  0  0
    6.8945   -0.6555   22.3205 N   0  0  0  0  0  0  0  0  0  0  0  0
    7.9130   -0.0102   21.5031 C   0  0  0  0  0  0  0  0  0  0  0  0
    7.2823    0.6832   20.3051 C   0  0  0  0  0  0  0  0  0  0  0  0
    6.1878    1.5534   20.3952 C   0  0  0  0  0  0  0  0  0  0  0  0
    5.5394    1.9489   19.2181 C   0  0  0  0  0  0  0  0  0  0  0  0
    6.0125    1.4772   17.9909 C   0  0  0  0  0  0  0  0  0  0  0  0
    7.0930    0.6913   17.8740 N   0  0  0  0  0  0  0  0  0  0  0  0
    7.6956    0.3188   19.0118 C   0  0  0  0  0  0  0  0  0  0  0  0
    8.5687   -0.3276   18.8808 H   0  0  0  0  0  0  0  0  0  0  0  0
    5.5306    1.7676   17.0589 H   0  0  0  0  0  0  0  0  0  0  0  0
    4.6873    2.6196   19.2449 H   0  0  0  0  0  0  0  0  0  0  0  0
    5.8260    1.8964   21.3646 H   0  0  0  0  0  0  0  0  0  0  0  0
    8.7597    0.8125   22.5008 C   0  0  0  0  0  0  0  0  0  0  0  0
    9.8440    1.6502   21.8217 C   0  0  0  0  0  0  0  0  0  0  0  0
    9.1716    3.0287   21.7020 C   0  0  0  0  0  0  0  0  0  0  0  0
    7.9412    2.9806   22.4016 O   0  0  0  0  0  0  0  0  0  0  0  0
    7.9778    1.8785   23.2720 C   0  0  0  0  0  0  0  0  0  0  0  0
    6.9435    1.6113   23.5093 H   0  0  0  0  0  0  0  0  0  0  0  0
    8.4950    2.1267   24.2160 H   0  0  0  0  0  0  0  0  0  0  0  0
    8.9239    3.2405   20.6626 H   0  0  0  0  0  0  0  0  0  0  0  0
    9.8097    3.8211   22.1222 H   0  0  0  0  0  0  0  0  0  0  0  0
   10.1406    1.2546   20.8425 H   0  0  0  0  0  0  0  0  0  0  0  0
   10.7487    1.6916   22.4403 H   0  0  0  0  0  0  0  0  0  0  0  0
    9.1877    0.0766   23.1909 H   0  0  0  0  0  0  0  0  0  0  0  0
    8.6188   -0.7471   21.0777 H   0  0  0  0  0  0  0  0  0  0  0  0
    7.2111   -0.8787   23.2488 H   0  0  0  0  0  0  0  0  0  0  0  0
  1  2  2  0
  2  3  1  0
  3  4  1  0
  4  5  2  0
  5  6  1  0
  6  7  2  0
  7  8  1  0
  8  9  1  0
  8 10  2  0
 10 11  1  0
 11 12  2  0
 12 13  1  0
 12 14  1  0
 11 15  1  0
 10 16  1  0
  5 17  1  0
  3 18  1  0
  2 19  1  0
 19 20  1  0
 20 21  1  0
 21 22  2  0
 22 23  1  0
 23 24  2  0
 24 25  1  0
 25 26  2  0
 26 27  1  0
 24 28  1  0
 23 29  1  0
 22 30  1  0
 20 31  1  0
 31 32  1  0
 32 33  1  0
 33 34  1  0
 34 35  1  0
 35 36  1  0
 35 37  1  0
 33 38  1  0
 33 39  1  0
 32 40  1  0
 32 41  1  0
 31 42  1  0
 20 43  1  0
 19 44  1  0
 13  4  1  0
 26 21  1  0
 35 31  1  0
 13  7  1  0
M  END
>  <plip>  (1) 
-0.10344827586206896

>  <filename>  (1) 
[H][c]1[n][c]([H])[c]([C]([H])([N]([H])[C](=[O])[N]([H])[c]2[c]([H])[n][c]3[c]([Cl])[c]([H])[c]([H])[c]([H])[n]23)[C]2([H])[C]([H])([H])[O][C]([H])([H])[C]2([H])[H])[c]([H])[c]1[H]

$$$$
