
     RDKit          3D

 34 34  0  0  0  0  0  0  0  0999 V2000
    8.2636   -6.0104   26.2813 C   0  0  0  0  0  0  0  0  0  0  0  0
    9.1928   -5.0509   25.6166 N   0  0  0  0  0  4  0  0  0  0  0  0
   10.5514   -5.6702   25.4579 C   0  0  0  0  0  0  0  0  0  0  0  0
   11.2765   -4.9402   25.0973 H   0  0  0  0  0  0  0  0  0  0  0  0
   10.5153   -6.4952   24.7386 H   0  0  0  0  0  0  0  0  0  0  0  0
   10.9108   -6.0707   26.4101 H   0  0  0  0  0  0  0  0  0  0  0  0
    8.6370   -4.5276   24.3066 C   0  0  0  0  0  0  0  0  0  0  0  0
    9.4335   -3.2979   23.8402 C   0  0  0  0  0  0  0  0  0  0  0  0
    8.8120   -2.5375   22.6874 C   0  0  0  0  0  0  0  0  0  0  0  0
    7.5156   -2.2205   22.6343 C   0  0  0  0  0  0  0  0  0  0  0  0
    6.6797   -1.6960   21.5141 C   0  0  0  0  0  0  0  0  0  0  0  0
    5.5832   -2.1920   21.3268 O   0  0  0  0  0  0  0  0  0  0  0  0
    7.2066   -0.6615   20.7849 N   0  0  0  0  0  0  0  0  0  0  0  0
    6.5664    0.0400   19.7166 C   0  0  0  0  0  0  0  0  0  0  0  0
    5.3394    0.6789   19.9155 C   0  0  0  0  0  0  0  0  0  0  0  0
    4.7845    1.4163   18.8599 C   0  0  0  0  0  0  0  0  0  0  0  0
    5.4505    1.4549   17.6297 C   0  0  0  0  0  0  0  0  0  0  0  0
    6.6239    0.8345   17.4185 N   0  0  0  0  0  0  0  0  0  0  0  0
    7.1680    0.1667   18.4430 C   0  0  0  0  0  0  0  0  0  0  0  0
    8.1357   -0.2966   18.2578 H   0  0  0  0  0  0  0  0  0  0  0  0
    5.0334    2.0071   16.7881 H   0  0  0  0  0  0  0  0  0  0  0  0
    3.8570    1.9655   18.9768 H   0  0  0  0  0  0  0  0  0  0  0  0
    4.8600    0.5979   20.8909 H   0  0  0  0  0  0  0  0  0  0  0  0
    8.1231   -0.3529   21.0643 H   0  0  0  0  0  0  0  0  0  0  0  0
    6.8820   -2.5268   23.4573 H   0  0  0  0  0  0  0  0  0  0  0  0
    9.9180   -2.1168   21.3940 Cl  0  0  0  0  0  0  0  0  0  0  0  0
   10.4475   -3.5912   23.5635 H   0  0  0  0  0  0  0  0  0  0  0  0
    9.5230   -2.6415   24.7184 H   0  0  0  0  0  0  0  0  0  0  0  0
    7.5854   -4.2733   24.4614 H   0  0  0  0  0  0  0  0  0  0  0  0
    8.6527   -5.3376   23.5679 H   0  0  0  0  0  0  0  0  0  0  0  0
    9.2808   -4.2131   26.2321 H   0  0  0  0  0  0  0  0  0  0  0  0
    8.7230   -6.4461   27.1722 H   0  0  0  0  0  0  0  0  0  0  0  0
    7.3321   -5.5189   26.5703 H   0  0  0  0  0  0  0  0  0  0  0  0
    8.0028   -6.8256   25.5990 H   0  0  0  0  0  0  0  0  0  0  0  0
  1  2  1  0
  2  3  1  0
  3  4  1  0
  3  5  1  0
  3  6  1  0
  2  7  1  0
  7  8  1  0
  8  9  1  0
  9 10  2  3
 10 11  1  0
 11 12  2  0
 11 13  1  0
 13 14  1  0
 14 15  2  0
 15 16  1  0
 16 17  2  0
 17 18  1  0
 18 19  2  0
 19 20  1  0
 17 21  1  0
 16 22  1  0
 15 23  1  0
 13 24  1  0
 10 25  1  0
  9 26  1  0
  8 27  1  0
  8 28  1  0
  7 29  1  0
  7 30  1  0
  2 31  1  0
  1 32  1  0
  1 33  1  0
  1 34  1  0
 19 14  1  0
M  CHG  1   2   1
M  END
>  <plip>  (1) 
-0.07142857142857142

>  <filename>  (1) 
[H][C]([C](=[O])[N]([H])[c]1[c]([H])[n][c]([H])[c]([H])[c]1[H])=[C]([Cl])[C]([H])([H])[C]([H])([H])[N+]([H])([C]([H])([H])[H])[C]([H])([H])[H]

$$$$
