
     RDKit          3D

 31 31  0  0  0  0  0  0  0  0999 V2000
    4.9833    1.7927   16.9789 H   0  0  0  0  0  0  0  0  0  0  0  0
    5.4276    1.2895   17.8339 C   0  0  0  0  0  0  0  0  0  0  0  0
    6.5840    0.6480   17.6102 N   0  0  0  0  0  0  0  0  0  0  0  0
    7.1525    0.0307   18.6459 C   0  0  0  0  0  0  0  0  0  0  0  0
    8.0878   -0.4945   18.4579 H   0  0  0  0  0  0  0  0  0  0  0  0
    6.6138    0.0510   19.9349 C   0  0  0  0  0  0  0  0  0  0  0  0
    7.4141   -0.6757   20.9666 C   0  0  0  0  0  0  0  0  0  0  0  0
    8.0426   -1.6762   20.6640 O   0  0  0  0  0  0  0  0  0  0  0  0
    7.4453   -0.1729   22.2677 N   0  0  0  0  0  0  0  0  0  0  0  0
    7.0928    1.1400   22.5991 N   0  0  0  0  0  0  0  0  0  0  0  0
    7.6623    1.8790   22.2043 H   0  0  0  0  0  0  0  0  0  0  0  0
    6.3652    1.5346   23.7002 C   0  0  0  0  0  0  0  0  0  0  0  0
    5.7517    0.7858   24.4341 O   0  0  0  0  0  0  0  0  0  0  0  0
    6.4378    3.0289   23.9417 C   0  0  0  0  0  0  0  0  0  0  0  0
    6.6772    3.5537   23.0086 H   0  0  0  0  0  0  0  0  0  0  0  0
    5.4318    3.3335   24.2470 H   0  0  0  0  0  0  0  0  0  0  0  0
    7.4531    3.3904   25.0489 C   0  0  0  0  0  0  0  0  0  0  0  0
    7.2892    4.4354   25.3410 H   0  0  0  0  0  0  0  0  0  0  0  0
    7.2351    2.7813   25.9373 H   0  0  0  0  0  0  0  0  0  0  0  0
    8.9192    3.2114   24.6469 C   0  0  0  0  0  0  0  0  0  0  0  0
    9.5916    3.5353   25.4489 H   0  0  0  0  0  0  0  0  0  0  0  0
    9.1740    3.8097   23.7641 H   0  0  0  0  0  0  0  0  0  0  0  0
    9.1772    2.1700   24.4230 H   0  0  0  0  0  0  0  0  0  0  0  0
    7.6915   -1.0997   23.3741 C   0  0  0  0  0  0  0  0  0  0  0  0
    7.9453   -0.5388   24.2743 H   0  0  0  0  0  0  0  0  0  0  0  0
    6.8037   -1.7033   23.5921 H   0  0  0  0  0  0  0  0  0  0  0  0
    8.5226   -1.7562   23.1132 H   0  0  0  0  0  0  0  0  0  0  0  0
    5.3970    0.7044   20.1666 C   0  0  0  0  0  0  0  0  0  0  0  0
    4.9455    0.7222   21.1614 H   0  0  0  0  0  0  0  0  0  0  0  0
    4.7906    1.3264   19.0795 C   0  0  0  0  0  0  0  0  0  0  0  0
    3.8507    1.8525   19.1966 H   0  0  0  0  0  0  0  0  0  0  0  0
  1  2  1  0
  2  3  2  0
  3  4  1  0
  4  5  1  0
  4  6  2  0
  6  7  1  0
  7  8  2  0
  7  9  1  0
  9 10  1  0
 10 11  1  0
 10 12  1  0
 12 13  2  0
 12 14  1  0
 14 15  1  0
 14 16  1  0
 14 17  1  0
 17 18  1  0
 17 19  1  0
 17 20  1  0
 20 21  1  0
 20 22  1  0
 20 23  1  0
  9 24  1  0
 24 25  1  0
 24 26  1  0
 24 27  1  0
  6 28  1  0
 28 29  1  0
 28 30  2  0
 30 31  1  0
 30  2  1  0
M  END
>  <plip>  (1) 
-0.10714285714285714

>  <filename>  (1) 
[H][c]1[n][c]([H])[c]([C](=[O])[N]([N]([H])[C](=[O])[C]([H])([H])[C]([H])([H])[C]([H])([H])[H])[C]([H])([H])[H])[c]([H])[c]1[H]

$$$$
