
     RDKit          3D

 23 24  0  0  0  0  0  0  0  0999 V2000
    7.2971    2.2660   21.7587 H   0  0  0  0  0  0  0  0  0  0  0  0
    7.0499    2.2542   22.7446 N   0  0  0  0  0  0  0  0  0  0  0  0
    7.1595    1.0721   23.1806 C   0  0  0  0  0  0  0  0  0  0  0  0
    7.5270   -0.1620   22.4387 C   0  0  0  0  0  0  0  0  0  0  0  0
    7.3089   -0.6324   21.1392 C   0  0  0  0  0  0  0  0  0  0  0  0
    6.6514    0.0813   20.0190 C   0  0  0  0  0  0  0  0  0  0  0  0
    7.1968    0.0990   18.7136 C   0  0  0  0  0  0  0  0  0  0  0  0
    8.1512   -0.3881   18.5193 H   0  0  0  0  0  0  0  0  0  0  0  0
    6.6262    0.6964   17.6582 N   0  0  0  0  0  0  0  0  0  0  0  0
    5.4453    1.3019   17.8593 C   0  0  0  0  0  0  0  0  0  0  0  0
    4.9736    1.7533   16.9870 H   0  0  0  0  0  0  0  0  0  0  0  0
    4.8103    1.3461   19.1027 C   0  0  0  0  0  0  0  0  0  0  0  0
    3.8516    1.8409   19.2001 H   0  0  0  0  0  0  0  0  0  0  0  0
    5.4276    0.7386   20.1999 C   0  0  0  0  0  0  0  0  0  0  0  0
    4.9682    0.7719   21.1874 H   0  0  0  0  0  0  0  0  0  0  0  0
    7.8016   -1.9612   21.1824 C   0  0  0  0  0  0  0  0  0  0  0  0
    7.7495   -2.7188   20.4212 H   0  0  0  0  0  0  0  0  0  0  0  0
    8.3202   -2.2713   22.3579 N   0  0  0  0  0  0  0  0  0  0  0  0
    8.1575   -1.1701   23.0902 N   0  0  0  0  0  0  0  0  0  0  0  0
    8.4665   -1.1631   24.0571 H   0  0  0  0  0  0  0  0  0  0  0  0
    6.8960    0.9394   24.5358 N   0  0  0  0  0  0  0  0  0  0  0  0
    6.5470    1.8728   24.7445 H   0  0  0  0  0  0  0  0  0  0  0  0
    6.1915    0.2306   24.6820 H   0  0  0  0  0  0  0  0  0  0  0  0
  1  2  1  0
  2  3  2  3
  3  4  1  0
  4  5  2  0
  5  6  1  0
  6  7  2  0
  7  8  1  0
  7  9  1  0
  9 10  2  0
 10 11  1  0
 10 12  1  0
 12 13  1  0
 12 14  2  0
 14 15  1  0
  5 16  1  0
 16 17  1  0
 16 18  2  0
 18 19  1  0
 19 20  1  0
  3 21  1  0
 21 22  1  0
 21 23  1  0
 19  4  1  0
 14  6  1  0
M  END
>  <plip>  (1) 
-0.06896551724137931

>  <filename>  (1) 
[H][N]=[C]([c]1[c](-[c]2[c]([H])[n][c]([H])[c]([H])[c]2[H])[c]([H])[n][n]1[H])[N]([H])[H]

$$$$
