
     RDKit          3D

 32 34  0  0  0  0  0  0  0  0999 V2000
    5.1232    1.7849   17.1095 H   0  0  0  0  0  0  0  0  0  0  0  0
    5.5612    1.2267   17.9337 C   0  0  0  0  0  0  0  0  0  0  0  0
    6.7147    0.5968   17.6669 N   0  0  0  0  0  0  0  0  0  0  0  0
    7.2715   -0.1071   18.6642 C   0  0  0  0  0  0  0  0  0  0  0  0
    8.2159   -0.5972   18.4210 H   0  0  0  0  0  0  0  0  0  0  0  0
    6.7114   -0.2418   19.9454 C   0  0  0  0  0  0  0  0  0  0  0  0
    7.3844   -1.0279   20.9886 C   0  0  0  0  0  0  0  0  0  0  0  0
    8.6389   -0.7633   21.5151 C   0  0  0  0  0  0  0  0  0  0  0  0
    9.2535    0.6013   21.2693 C   0  0  1  0  0  0  0  0  0  0  0  0
    9.4185    0.7262   20.1855 H   0  0  0  0  0  0  0  0  0  0  0  0
    8.3613    1.6180   21.7333 O   0  0  0  0  0  0  0  0  0  0  0  0
    9.0638    2.8484   21.6749 C   0  0  0  0  0  0  0  0  0  0  0  0
    8.6783    3.5192   22.4480 H   0  0  0  0  0  0  0  0  0  0  0  0
    8.8402    3.3076   20.7130 H   0  0  0  0  0  0  0  0  0  0  0  0
   10.5698    2.5129   21.8159 C   0  0  0  0  0  0  0  0  0  0  0  0
   11.1076    2.7856   20.8960 H   0  0  0  0  0  0  0  0  0  0  0  0
   11.0420    3.0383   22.6563 H   0  0  0  0  0  0  0  0  0  0  0  0
   10.5534    0.9808   21.9789 C   0  0  0  0  0  0  0  0  0  0  0  0
   11.4263    0.4912   21.5391 H   0  0  0  0  0  0  0  0  0  0  0  0
   10.4632    0.6950   23.0335 H   0  0  0  0  0  0  0  0  0  0  0  0
    9.2071   -1.7228   22.4206 C   0  0  0  0  0  0  0  0  0  0  0  0
   10.2454   -1.6103   22.7456 H   0  0  0  0  0  0  0  0  0  0  0  0
    8.4670   -2.7595   22.9030 C   0  0  0  0  0  0  0  0  0  0  0  0
    8.7986   -3.4113   23.6986 H   0  0  0  0  0  0  0  0  0  0  0  0
    7.0954   -2.9693   22.4637 C   0  0  0  0  0  0  0  0  0  0  0  0
    6.3314   -3.8298   22.8621 O   0  0  0  0  0  0  0  0  0  0  0  0
    6.6588   -2.0810   21.4952 N   0  0  0  0  0  0  0  0  0  0  0  0
    5.6640   -2.1538   21.3571 H   0  0  0  0  0  0  0  0  0  0  0  0
    5.5034    0.4305   20.2021 C   0  0  0  0  0  0  0  0  0  0  0  0
    5.0651    0.3910   21.2024 H   0  0  0  0  0  0  0  0  0  0  0  0
    4.9236    1.1793   19.1790 C   0  0  0  0  0  0  0  0  0  0  0  0
    3.9975    1.7217   19.3327 H   0  0  0  0  0  0  0  0  0  0  0  0
  1  2  1  0
  2  3  2  0
  3  4  1  0
  4  5  1  0
  4  6  2  0
  6  7  1  0
  7  8  2  0
  8  9  1  0
  9 10  1  6
  9 11  1  0
 11 12  1  0
 12 13  1  0
 12 14  1  0
 12 15  1  0
 15 16  1  0
 15 17  1  0
 15 18  1  0
 18 19  1  0
 18 20  1  0
  8 21  1  0
 21 22  1  0
 21 23  2  0
 23 24  1  0
 23 25  1  0
 25 26  2  0
 25 27  1  0
 27 28  1  0
  6 29  1  0
 29 30  1  0
 29 31  2  0
 31 32  1  0
 31  2  1  0
 27  7  1  0
 18  9  1  0
M  END
>  <plip>  (1) 
-0.07142857142857142

>  <filename>  (1) 
[H][c]1[n][c]([H])[c](-[c]2[c]([C@@]3([H])[O][C]([H])([H])[C]([H])([H])[C]3([H])[H])[c]([H])[c]([H])[c](=[O])[n]2[H])[c]([H])[c]1[H]

$$$$
