
     RDKit          3D

 40 43  0  0  0  0  0  0  0  0999 V2000
    4.9288    1.8494   16.9421 H   0  0  0  0  0  0  0  0  0  0  0  0
    5.3896    1.3227   17.7744 C   0  0  0  0  0  0  0  0  0  0  0  0
    6.5468    0.6967   17.5160 N   0  0  0  0  0  0  0  0  0  0  0  0
    7.1448    0.0586   18.5332 C   0  0  0  0  0  0  0  0  0  0  0  0
    8.0956   -0.4182   18.2877 H   0  0  0  0  0  0  0  0  0  0  0  0
    6.6380   -0.0127   19.8448 C   0  0  0  0  0  0  0  0  0  0  0  0
    7.3469   -0.7997   20.9412 C   0  0  1  0  0  0  0  0  0  0  0  0
    6.9609   -1.8329   20.9063 H   0  0  0  0  0  0  0  0  0  0  0  0
    8.9051   -0.9329   20.8317 C   0  0  0  0  0  0  0  0  0  0  0  0
    9.2035   -1.7067   20.1201 H   0  0  0  0  0  0  0  0  0  0  0  0
    9.3762    0.0107   20.5361 H   0  0  0  0  0  0  0  0  0  0  0  0
    9.2796   -1.2282   22.2615 C   0  0  0  0  0  0  0  0  0  0  0  0
   10.3005   -1.7959   22.8709 N   0  0  0  0  0  0  0  0  0  0  0  0
    9.8922   -1.8037   24.1777 N   0  0  0  0  0  0  0  0  0  0  0  0
   10.3628   -2.3944   24.8391 H   0  0  0  0  0  0  0  0  0  0  0  0
    8.6470   -1.2739   24.3728 C   0  0  0  0  0  0  0  0  0  0  0  0
    7.9722   -1.2595   25.5863 N   0  0  0  0  0  0  0  0  0  0  0  0
    6.8516   -0.3812   25.7135 C   0  0  0  0  0  0  0  0  0  0  0  0
    7.0469    1.0058   25.6014 C   0  0  0  0  0  0  0  0  0  0  0  0
    8.0472    1.3752   25.3898 H   0  0  0  0  0  0  0  0  0  0  0  0
    5.9736    1.8879   25.7747 C   0  0  0  0  0  0  0  0  0  0  0  0
    6.1369    2.9605   25.7073 H   0  0  0  0  0  0  0  0  0  0  0  0
    4.6917    1.3931   26.0381 C   0  0  0  0  0  0  0  0  0  0  0  0
    3.8638    2.0817   26.1918 H   0  0  0  0  0  0  0  0  0  0  0  0
    4.4834    0.0129   26.1188 C   0  0  0  0  0  0  0  0  0  0  0  0
    3.4899   -0.3762   26.3286 H   0  0  0  0  0  0  0  0  0  0  0  0
    5.5564   -0.8735   25.9526 C   0  0  0  0  0  0  0  0  0  0  0  0
    5.3993   -1.9472   25.9970 H   0  0  0  0  0  0  0  0  0  0  0  0
    8.1849   -2.3447   26.5305 C   0  0  0  0  0  0  0  0  0  0  0  0
    9.1705   -2.2644   27.0097 H   0  0  0  0  0  0  0  0  0  0  0  0
    7.4324   -2.3155   27.3240 H   0  0  0  0  0  0  0  0  0  0  0  0
    8.1197   -3.3154   26.0207 H   0  0  0  0  0  0  0  0  0  0  0  0
    8.2510   -0.8636   23.1241 C   0  0  0  0  0  0  0  0  0  0  0  0
    7.0798   -0.3039   22.3946 C   0  0  0  0  0  0  0  0  0  0  0  0
    7.0900    0.7936   22.4570 H   0  0  0  0  0  0  0  0  0  0  0  0
    6.1083   -0.6472   22.7627 H   0  0  0  0  0  0  0  0  0  0  0  0
    5.4160    0.6491   20.0760 C   0  0  0  0  0  0  0  0  0  0  0  0
    4.9654    0.6606   21.0690 H   0  0  0  0  0  0  0  0  0  0  0  0
    4.7819    1.3260   19.0320 C   0  0  0  0  0  0  0  0  0  0  0  0
    3.8500    1.8657   19.1907 H   0  0  0  0  0  0  0  0  0  0  0  0
  1  2  1  0
  2  3  2  0
  3  4  1  0
  4  5  1  0
  4  6  2  0
  6  7  1  0
  7  8  1  1
  7  9  1  0
  9 10  1  0
  9 11  1  0
  9 12  1  0
 12 13  2  0
 13 14  1  0
 14 15  1  0
 14 16  1  0
 16 17  1  0
 17 18  1  0
 18 19  2  0
 19 20  1  0
 19 21  1  0
 21 22  1  0
 21 23  2  0
 23 24  1  0
 23 25  1  0
 25 26  1  0
 25 27  2  0
 27 28  1  0
 17 29  1  0
 29 30  1  0
 29 31  1  0
 29 32  1  0
 16 33  2  0
 33 34  1  0
 34 35  1  0
 34 36  1  0
  6 37  1  0
 37 38  1  0
 37 39  2  0
 39 40  1  0
 39  2  1  0
 34  7  1  0
 33 12  1  0
 27 18  1  0
M  END
>  <plip>  (1) 
-0.03571428571428571

>  <filename>  (1) 
[H][c]1[n][c]([H])[c]([C@@]2([H])[C]([H])([H])[c]3[n][n]([H])[c]([N]([c]4[c]([H])[c]([H])[c]([H])[c]([H])[c]4[H])[C]([H])([H])[H])[c]3[C]2([H])[H])[c]([H])[c]1[H]

$$$$
