
     RDKit          3D

 52 55  0  0  0  0  0  0  0  0999 V2000
    3.6373   -3.8384   27.9292 C   0  0  0  0  0  0  0  0  0  0  0  0
    2.9289   -4.3438   26.8354 C   0  0  0  0  0  0  0  0  0  0  0  0
    3.5255   -4.2995   25.5748 C   0  0  0  0  0  0  0  0  0  0  0  0
    4.8169   -3.7468   25.4475 C   0  0  0  0  0  0  0  0  0  0  0  0
    5.5062   -3.6647   24.1211 C   0  0  0  0  0  0  0  0  0  0  0  0
    4.9497   -4.0854   22.9801 N   0  0  0  0  0  0  0  0  0  0  0  0
    5.8703   -3.8479   22.0367 N   0  0  0  0  0  0  0  0  0  0  0  0
    7.0206   -3.3067   22.5241 C   0  0  0  0  0  0  0  0  0  0  0  0
    8.2160   -2.9689   21.6653 C   0  0  0  0  0  0  0  0  0  0  0  0
    7.8585   -2.0113   20.5903 N   0  0  0  0  0  4  0  0  0  0  0  0
    7.3955   -0.6374   21.0562 C   0  0  0  0  0  0  0  0  0  0  0  0
    6.6392   -0.0351   19.9035 C   0  0  0  0  0  0  0  0  0  0  0  0
    5.4261    0.6335   20.1415 C   0  0  0  0  0  0  0  0  0  0  0  0
    4.7990    1.3006   19.0902 C   0  0  0  0  0  0  0  0  0  0  0  0
    5.4060    1.2846   17.8309 C   0  0  0  0  0  0  0  0  0  0  0  0
    6.5624    0.6552   17.5827 N   0  0  0  0  0  0  0  0  0  0  0  0
    7.1594    0.0207   18.6013 C   0  0  0  0  0  0  0  0  0  0  0  0
    8.1122   -0.4430   18.3393 H   0  0  0  0  0  0  0  0  0  0  0  0
    4.9476    1.7972   16.9861 H   0  0  0  0  0  0  0  0  0  0  0  0
    3.8758    1.8504   19.2356 H   0  0  0  0  0  0  0  0  0  0  0  0
    4.9913    0.6409   21.1433 H   0  0  0  0  0  0  0  0  0  0  0  0
    8.5200    0.2817   21.6024 C   0  0  0  0  0  0  0  0  0  0  0  0
    9.9111    0.0688   20.9771 C   0  0  0  0  0  0  0  0  0  0  0  0
   10.9097    1.1768   21.4018 C   0  0  0  0  0  0  0  0  0  0  0  0
   10.6554    1.7128   22.8397 C   0  0  0  0  0  0  0  0  0  0  0  0
    9.9587    0.6649   23.7283 C   0  0  0  0  0  0  0  0  0  0  0  0
    8.5784    0.2631   23.1561 C   0  0  0  0  0  0  0  0  0  0  0  0
    8.2956   -0.7213   23.5536 H   0  0  0  0  0  0  0  0  0  0  0  0
    7.8113    0.9626   23.5212 H   0  0  0  0  0  0  0  0  0  0  0  0
    9.8417    1.0400   24.7536 H   0  0  0  0  0  0  0  0  0  0  0  0
   10.6035   -0.2258   23.7995 H   0  0  0  0  0  0  0  0  0  0  0  0
   10.0259    2.6144   22.7870 H   0  0  0  0  0  0  0  0  0  0  0  0
   11.6012    2.0337   23.2960 H   0  0  0  0  0  0  0  0  0  0  0  0
   10.8755    2.0201   20.6979 H   0  0  0  0  0  0  0  0  0  0  0  0
   11.9269    0.7690   21.3389 H   0  0  0  0  0  0  0  0  0  0  0  0
    9.7896    0.0329   19.8872 H   0  0  0  0  0  0  0  0  0  0  0  0
   10.3261   -0.9038   21.2862 H   0  0  0  0  0  0  0  0  0  0  0  0
    8.2339    1.3041   21.3127 H   0  0  0  0  0  0  0  0  0  0  0  0
    6.6882   -0.8185   21.8709 H   0  0  0  0  0  0  0  0  0  0  0  0
    7.0598   -2.3864   20.0370 H   0  0  0  0  0  0  0  0  0  0  0  0
    8.6356   -1.8410   19.9296 H   0  0  0  0  0  0  0  0  0  0  0  0
    8.9619   -2.5333   22.3399 H   0  0  0  0  0  0  0  0  0  0  0  0
    8.6731   -3.8740   21.2542 H   0  0  0  0  0  0  0  0  0  0  0  0
    6.8115   -3.1647   23.8796 C   0  0  0  0  0  0  0  0  0  0  0  0
    7.4635   -2.7665   24.6516 H   0  0  0  0  0  0  0  0  0  0  0  0
    5.6697   -4.1782   21.1026 H   0  0  0  0  0  0  0  0  0  0  0  0
    5.4950   -3.2641   26.5111 N   0  0  0  0  0  0  0  0  0  0  0  0
    4.9125   -3.3120   27.7117 C   0  0  0  0  0  0  0  0  0  0  0  0
    5.5027   -2.9049   28.5302 H   0  0  0  0  0  0  0  0  0  0  0  0
    3.0314   -4.6760   24.6846 H   0  0  0  0  0  0  0  0  0  0  0  0
    1.9314   -4.7656   26.9577 H   0  0  0  0  0  0  0  0  0  0  0  0
    3.2326   -3.8429   28.9336 H   0  0  0  0  0  0  0  0  0  0  0  0
  1  2  2  0
  2  3  1  0
  3  4  2  0
  4  5  1  0
  5  6  2  0
  6  7  1  0
  7  8  1  0
  8  9  1  0
  9 10  1  0
 10 11  1  0
 11 12  1  0
 12 13  2  0
 13 14  1  0
 14 15  2  0
 15 16  1  0
 16 17  2  0
 17 18  1  0
 15 19  1  0
 14 20  1  0
 13 21  1  0
 11 22  1  0
 22 23  1  0
 23 24  1  0
 24 25  1  0
 25 26  1  0
 26 27  1  0
 27 28  1  0
 27 29  1  0
 26 30  1  0
 26 31  1  0
 25 32  1  0
 25 33  1  0
 24 34  1  0
 24 35  1  0
 23 36  1  0
 23 37  1  0
 22 38  1  0
 11 39  1  0
 10 40  1  0
 10 41  1  0
  9 42  1  0
  9 43  1  0
  8 44  2  0
 44 45  1  0
  7 46  1  0
  4 47  1  0
 47 48  2  0
 48 49  1  0
  3 50  1  0
  2 51  1  0
  1 52  1  0
 48  1  1  0
 44  5  1  0
 17 12  1  0
 27 22  1  0
M  CHG  1  10   1
M  END
>  <plip>  (1) 
-0.06666666666666667

>  <filename>  (1) 
[H][c]1[n][c](-[c]2[n][n]([H])[c]([C]([H])([H])[N+]([H])([H])[C]([H])([c]3[c]([H])[n][c]([H])[c]([H])[c]3[H])[C]3([H])[C]([H])([H])[C]([H])([H])[C]([H])([H])[C]([H])([H])[C]3([H])[H])[c]2[H])[c]([H])[c]([H])[c]1[H]

$$$$
