
     RDKit          3D

 38 39  0  0  0  0  0  0  0  0999 V2000
    8.1415    0.2508   23.0911 O   0  0  0  0  0  0  0  0  0  0  0  0
    8.3676    0.1511   21.9049 C   0  0  0  0  0  0  0  0  0  0  0  0
    7.5603   -0.7330   20.9557 C   0  0  0  0  0  0  0  0  0  0  0  0
    6.8060   -0.0196   19.8375 C   0  0  0  0  0  0  0  0  0  0  0  0
    5.6304    0.6853   20.1310 C   0  0  0  0  0  0  0  0  0  0  0  0
    4.9488    1.3198   19.0905 C   0  0  0  0  0  0  0  0  0  0  0  0
    5.4773    1.2590   17.7981 C   0  0  0  0  0  0  0  0  0  0  0  0
    6.6094    0.6086   17.4941 N   0  0  0  0  0  0  0  0  0  0  0  0
    7.2439   -0.0123   18.4969 C   0  0  0  0  0  0  0  0  0  0  0  0
    8.1609   -0.5328   18.2171 H   0  0  0  0  0  0  0  0  0  0  0  0
    4.9695    1.7477   16.9695 H   0  0  0  0  0  0  0  0  0  0  0  0
    4.0226    1.8529   19.2647 H   0  0  0  0  0  0  0  0  0  0  0  0
    5.2687    0.7381   21.1608 H   0  0  0  0  0  0  0  0  0  0  0  0
    8.2484   -1.4797   20.5457 H   0  0  0  0  0  0  0  0  0  0  0  0
    6.8690   -1.2611   21.6163 H   0  0  0  0  0  0  0  0  0  0  0  0
    9.4358    0.7699   21.2580 N   0  0  0  0  0  0  0  0  0  0  0  0
   10.0991    1.8963   21.7855 N   0  0  0  0  0  0  0  0  0  0  0  0
    9.3421    3.0428   22.1225 C   0  0  0  0  0  0  0  0  0  0  0  0
    8.1732    3.1987   21.8474 O   0  0  0  0  0  0  0  0  0  0  0  0
   10.1678    3.9145   22.8119 N   0  0  0  0  0  0  0  0  0  0  0  0
    9.6407    5.2094   23.2521 C   0  0  1  0  0  0  0  0  0  0  0  0
    8.9428    6.0183   22.1248 C   0  0  0  0  0  0  0  0  0  0  0  0
    8.0490    7.1130   22.6421 C   0  0  0  0  0  0  0  0  0  0  0  0
    7.7503    7.2841   23.9320 C   0  0  0  0  0  0  0  0  0  0  0  0
    8.2991    6.3880   25.0218 C   0  0  0  0  0  0  0  0  0  0  0  0
    8.7358    5.0114   24.4816 C   0  0  0  0  0  0  0  0  0  0  0  0
    7.8633    4.4125   24.1843 H   0  0  0  0  0  0  0  0  0  0  0  0
    9.2799    4.4393   25.2496 H   0  0  0  0  0  0  0  0  0  0  0  0
    7.5624    6.2830   25.8268 H   0  0  0  0  0  0  0  0  0  0  0  0
    9.1720    6.8831   25.4709 H   0  0  0  0  0  0  0  0  0  0  0  0
    7.0574    8.0735   24.2186 H   0  0  0  0  0  0  0  0  0  0  0  0
    7.6093    7.7583   21.8839 H   0  0  0  0  0  0  0  0  0  0  0  0
    9.7090    6.4276   21.4527 H   0  0  0  0  0  0  0  0  0  0  0  0
    8.3324    5.3426   21.5170 H   0  0  0  0  0  0  0  0  0  0  0  0
   10.5050    5.7990   23.5791 H   0  0  0  0  0  0  0  0  0  0  0  0
   11.0482    3.9495   22.3205 H   0  0  0  0  0  0  0  0  0  0  0  0
   10.6787    1.6747   22.5918 H   0  0  0  0  0  0  0  0  0  0  0  0
    9.3027    0.8307   20.2584 H   0  0  0  0  0  0  0  0  0  0  0  0
  1  2  2  0
  2  3  1  0
  3  4  1  0
  4  5  2  0
  5  6  1  0
  6  7  2  0
  7  8  1  0
  8  9  2  0
  9 10  1  0
  7 11  1  0
  6 12  1  0
  5 13  1  0
  3 14  1  0
  3 15  1  0
  2 16  1  0
 16 17  1  0
 17 18  1  0
 18 19  2  0
 18 20  1  0
 20 21  1  0
 21 22  1  0
 22 23  1  0
 23 24  2  0
 24 25  1  0
 25 26  1  0
 26 27  1  0
 26 28  1  0
 25 29  1  0
 25 30  1  0
 24 31  1  0
 23 32  1  0
 22 33  1  0
 22 34  1  0
 21 35  1  1
 20 36  1  0
 17 37  1  0
 16 38  1  0
  9  4  1  0
 26 21  1  0
M  END
>  <plip>  (1) 
-0.10344827586206896

>  <filename>  (1) 
[H][C]1=[C]([H])[C]([H])([H])[C@]([H])([N]([H])[C](=[O])[N]([H])[N]([H])[C](=[O])[C]([H])([H])[c]2[c]([H])[n][c]([H])[c]([H])[c]2[H])[C]([H])([H])[C]1([H])[H]

$$$$
