
     RDKit          3D

 45 47  0  0  0  0  0  0  0  0999 V2000
    6.0241   -4.0811   20.5402 C   0  0  0  0  0  0  0  0  0  0  0  0
    6.6240   -2.8410   20.2750 O   0  0  0  0  0  0  0  0  0  0  0  0
    6.6745   -1.9987   21.3953 C   0  0  0  0  0  0  0  0  0  0  0  0
    7.4033   -0.7188   20.9980 C   0  0  2  0  0  0  0  0  0  0  0  0
    7.6295    0.0746   22.1907 N   0  0  0  0  0  0  0  0  0  0  0  0
    8.4456    1.1530   22.1703 C   0  0  0  0  0  0  0  0  0  0  0  0
    9.0346    1.5103   21.1648 O   0  0  0  0  0  0  0  0  0  0  0  0
    8.6317    1.8306   23.5078 C   0  0  0  0  0  0  0  0  0  0  0  0
    9.7949    1.2121   24.3082 C   0  0  0  0  0  0  0  0  0  0  0  0
    9.6302   -0.1825   24.6565 N   0  0  0  0  0  0  0  0  0  0  0  0
   10.0319   -1.2092   23.7923 N   0  0  0  0  0  0  0  0  0  0  0  0
    9.4840   -2.4265   24.1149 C   0  0  0  0  0  0  0  0  0  0  0  0
    9.7181   -3.4527   23.4989 O   0  0  0  0  0  0  0  0  0  0  0  0
    8.6071   -2.1306   25.2607 C   0  0  0  0  0  0  0  0  0  0  0  0
    7.7437   -2.9419   26.0143 C   0  0  0  0  0  0  0  0  0  0  0  0
    6.9642   -2.3418   26.9971 C   0  0  0  0  0  0  0  0  0  0  0  0
    7.0358   -0.9483   27.2201 C   0  0  0  0  0  0  0  0  0  0  0  0
    7.8909   -0.1376   26.4793 C   0  0  0  0  0  0  0  0  0  0  0  0
    8.6975   -0.7449   25.4990 C   0  0  0  0  0  0  0  0  0  0  0  0
    7.9198    0.9366   26.6342 H   0  0  0  0  0  0  0  0  0  0  0  0
    6.4169   -0.4895   27.9892 H   0  0  0  0  0  0  0  0  0  0  0  0
    6.2901   -2.9346   27.6122 H   0  0  0  0  0  0  0  0  0  0  0  0
    7.6861   -4.0161   25.8474 H   0  0  0  0  0  0  0  0  0  0  0  0
   10.6127   -1.0832   22.9761 H   0  0  0  0  0  0  0  0  0  0  0  0
   10.7319    1.3101   23.7431 H   0  0  0  0  0  0  0  0  0  0  0  0
    9.9237    1.7390   25.2594 H   0  0  0  0  0  0  0  0  0  0  0  0
    7.7064    1.7995   24.0892 H   0  0  0  0  0  0  0  0  0  0  0  0
    8.8640    2.8706   23.2863 H   0  0  0  0  0  0  0  0  0  0  0  0
    7.0844   -0.0858   23.0219 H   0  0  0  0  0  0  0  0  0  0  0  0
    6.6687    0.0546   19.9152 C   0  0  0  0  0  0  0  0  0  0  0  0
    5.4426    0.6923   20.1455 C   0  0  0  0  0  0  0  0  0  0  0  0
    4.7999    1.3296   19.0822 C   0  0  0  0  0  0  0  0  0  0  0  0
    5.4071    1.2987   17.8197 C   0  0  0  0  0  0  0  0  0  0  0  0
    6.5678    0.6782   17.5701 N   0  0  0  0  0  0  0  0  0  0  0  0
    7.1710    0.0807   18.6098 C   0  0  0  0  0  0  0  0  0  0  0  0
    8.1169   -0.4111   18.3801 H   0  0  0  0  0  0  0  0  0  0  0  0
    4.9350    1.7896   16.9705 H   0  0  0  0  0  0  0  0  0  0  0  0
    3.8527    1.8433   19.2152 H   0  0  0  0  0  0  0  0  0  0  0  0
    4.9942    0.6912   21.1423 H   0  0  0  0  0  0  0  0  0  0  0  0
    8.3806   -1.0115   20.5947 H   0  0  0  0  0  0  0  0  0  0  0  0
    7.1998   -2.4844   22.2346 H   0  0  0  0  0  0  0  0  0  0  0  0
    5.6539   -1.7439   21.7316 H   0  0  0  0  0  0  0  0  0  0  0  0
    5.0122   -3.9418   20.9513 H   0  0  0  0  0  0  0  0  0  0  0  0
    5.9632   -4.6130   19.5859 H   0  0  0  0  0  0  0  0  0  0  0  0
    6.6154   -4.6793   21.2562 H   0  0  0  0  0  0  0  0  0  0  0  0
  1  2  1  0
  2  3  1  0
  3  4  1  0
  4  5  1  0
  5  6  1  0
  6  7  2  0
  6  8  1  0
  8  9  1  0
  9 10  1  0
 10 11  1  0
 11 12  1  0
 12 13  2  0
 12 14  1  0
 14 15  2  0
 15 16  1  0
 16 17  2  0
 17 18  1  0
 18 19  2  0
 18 20  1  0
 17 21  1  0
 16 22  1  0
 15 23  1  0
 11 24  1  0
  9 25  1  0
  9 26  1  0
  8 27  1  0
  8 28  1  0
  5 29  1  0
  4 30  1  0
 30 31  2  0
 31 32  1  0
 32 33  2  0
 33 34  1  0
 34 35  2  0
 35 36  1  0
 33 37  1  0
 32 38  1  0
 31 39  1  0
  4 40  1  6
  3 41  1  0
  3 42  1  0
  1 43  1  0
  1 44  1  0
  1 45  1  0
 19 10  1  0
 35 30  1  0
 19 14  1  0
M  END
>  <plip>  (1) 
-0.14285714285714285

>  <filename>  (1) 
[H][c]1[n][c]([H])[c]([C@@]([H])([N]([H])[C](=[O])[C]([H])([H])[C]([H])([H])[n]2[c]3[c]([H])[c]([H])[c]([H])[c]([H])[c]3[c](=[O])[n]2[H])[C]([H])([H])[O][C]([H])([H])[H])[c]([H])[c]1[H]

$$$$
