
     RDKit          3D

 43 46  0  0  0  0  0  0  0  0999 V2000
    5.6190   -2.7965   20.3393 O   0  0  0  0  0  0  0  0  0  0  0  0
    5.6623   -2.5550   21.5332 C   0  0  0  0  0  0  0  0  0  0  0  0
    5.0483   -3.5166   22.5497 C   0  0  0  0  0  0  0  0  0  0  0  0
    5.9493   -3.8484   23.6270 N   0  0  0  0  0  0  0  0  0  0  0  0
    5.9023   -3.1197   24.7590 N   0  0  0  0  0  0  0  0  0  0  0  0
    6.8343   -3.4971   25.5592 N   0  0  0  0  0  0  0  0  0  0  0  0
    7.5442   -4.5015   24.9440 C   0  0  0  0  0  0  0  0  0  0  0  0
    8.6482   -5.2540   25.3958 C   0  0  0  0  0  0  0  0  0  0  0  0
    9.1806   -6.1906   24.5338 C   0  0  0  0  0  0  0  0  0  0  0  0
    8.6383   -6.3855   23.2305 C   0  0  0  0  0  0  0  0  0  0  0  0
    7.5453   -5.6646   22.7698 C   0  0  0  0  0  0  0  0  0  0  0  0
    6.9915   -4.7287   23.6716 C   0  0  0  0  0  0  0  0  0  0  0  0
    7.1554   -5.8078   21.7651 H   0  0  0  0  0  0  0  0  0  0  0  0
    9.1011   -7.1311   22.5923 H   0  0  0  0  0  0  0  0  0  0  0  0
   10.0312   -6.7851   24.8595 H   0  0  0  0  0  0  0  0  0  0  0  0
    9.0291   -5.0822   26.3967 H   0  0  0  0  0  0  0  0  0  0  0  0
    4.7478   -4.4079   22.0037 H   0  0  0  0  0  0  0  0  0  0  0  0
    4.1656   -3.0648   23.0023 H   0  0  0  0  0  0  0  0  0  0  0  0
    6.2312   -1.4387   22.0480 N   0  0  0  0  0  0  0  0  0  0  0  0
    7.1832   -0.6267   21.3093 C   0  0  0  0  0  0  0  0  0  0  0  0
    6.5047   -0.0078   20.0827 C   0  0  0  0  0  0  0  0  0  0  0  0
    5.3222    0.7321   20.2516 C   0  0  0  0  0  0  0  0  0  0  0  0
    4.7830    1.4293   19.1676 C   0  0  0  0  0  0  0  0  0  0  0  0
    5.4288    1.3476   17.9305 C   0  0  0  0  0  0  0  0  0  0  0  0
    6.5244    0.6088   17.7266 N   0  0  0  0  0  0  0  0  0  0  0  0
    7.0263   -0.0616   18.7821 C   0  0  0  0  0  0  0  0  0  0  0  0
    7.9057   -0.6619   18.5479 H   0  0  0  0  0  0  0  0  0  0  0  0
    5.0399    1.8881   17.0657 H   0  0  0  0  0  0  0  0  0  0  0  0
    3.8952    2.0403   19.2728 H   0  0  0  0  0  0  0  0  0  0  0  0
    4.8367    0.7544   21.2269 H   0  0  0  0  0  0  0  0  0  0  0  0
    8.4506   -1.4558   21.0319 C   0  0  0  0  0  0  0  0  0  0  0  0
    9.6018   -0.4557   20.8535 C   0  0  0  0  0  0  0  0  0  0  0  0
    9.1336    0.8324   21.5775 C   0  0  0  0  0  0  0  0  0  0  0  0
    7.7889    0.4537   22.2322 C   0  0  0  0  0  0  0  0  0  0  0  0
    7.1268    1.3149   22.3724 H   0  0  0  0  0  0  0  0  0  0  0  0
    7.9692    0.0022   23.2196 H   0  0  0  0  0  0  0  0  0  0  0  0
    8.9807    1.6470   20.8578 H   0  0  0  0  0  0  0  0  0  0  0  0
    9.8625    1.1917   22.3128 H   0  0  0  0  0  0  0  0  0  0  0  0
    9.7803   -0.2711   19.7896 H   0  0  0  0  0  0  0  0  0  0  0  0
   10.5307   -0.8623   21.2656 H   0  0  0  0  0  0  0  0  0  0  0  0
    8.6250   -2.0927   21.9129 H   0  0  0  0  0  0  0  0  0  0  0  0
    8.2775   -2.1197   20.1936 H   0  0  0  0  0  0  0  0  0  0  0  0
    6.2522   -1.3594   23.0501 H   0  0  0  0  0  0  0  0  0  0  0  0
  1  2  2  0
  2  3  1  0
  3  4  1  0
  4  5  1  0
  5  6  2  0
  6  7  1  0
  7  8  2  0
  8  9  1  0
  9 10  2  0
 10 11  1  0
 11 12  2  0
 11 13  1  0
 10 14  1  0
  9 15  1  0
  8 16  1  0
  3 17  1  0
  3 18  1  0
  2 19  1  0
 19 20  1  0
 20 21  1  0
 21 22  2  0
 22 23  1  0
 23 24  2  0
 24 25  1  0
 25 26  2  0
 26 27  1  0
 24 28  1  0
 23 29  1  0
 22 30  1  0
 20 31  1  0
 31 32  1  0
 32 33  1  0
 33 34  1  0
 34 35  1  0
 34 36  1  0
 33 37  1  0
 33 38  1  0
 32 39  1  0
 32 40  1  0
 31 41  1  0
 31 42  1  0
 19 43  1  0
 12  4  1  0
 34 20  1  0
 12  7  1  0
 26 21  1  0
M  END
>  <plip>  (1) 
-0.10344827586206896

>  <filename>  (1) 
[H][c]1[n][c]([H])[c]([C]2([N]([H])[C](=[O])[C]([H])([H])[n]3[n][n][c]4[c]([H])[c]([H])[c]([H])[c]([H])[c]43)[C]([H])([H])[C]([H])([H])[C]([H])([H])[C]2([H])[H])[c]([H])[c]1[H]

$$$$
