
     RDKit          3D

 31 33  0  0  0  0  0  0  0  0999 V2000
    4.9494    1.7914   16.9657 H   0  0  0  0  0  0  0  0  0  0  0  0
    5.4006    1.3116   17.8286 C   0  0  0  0  0  0  0  0  0  0  0  0
    6.5708    0.6904   17.6114 N   0  0  0  0  0  0  0  0  0  0  0  0
    7.1528    0.1059   18.6636 C   0  0  0  0  0  0  0  0  0  0  0  0
    8.0974   -0.3947   18.4481 H   0  0  0  0  0  0  0  0  0  0  0  0
    6.6324    0.1135   19.9762 C   0  0  0  0  0  0  0  0  0  0  0  0
    7.3338   -0.6305   21.0435 C   0  0  0  0  0  0  0  0  0  0  0  0
    7.7224   -1.9364   20.9762 C   0  0  0  0  0  0  0  0  0  0  0  0
    7.4456   -2.5522   20.1441 H   0  0  0  0  0  0  0  0  0  0  0  0
    8.3133   -2.3173   22.2111 C   0  0  0  0  0  0  0  0  0  0  0  0
    8.7936   -3.2541   22.4789 H   0  0  0  0  0  0  0  0  0  0  0  0
    8.1980   -1.2395   23.0360 C   0  0  0  0  0  0  0  0  0  0  0  0
    8.4130   -1.1481   24.0916 H   0  0  0  0  0  0  0  0  0  0  0  0
    7.6090   -0.1937   22.3446 N   0  0  0  0  0  0  0  0  0  0  0  0
    7.3206    1.0762   22.8764 C   0  0  0  0  0  0  0  0  0  0  0  0
    6.8537    1.1283   24.1289 N   0  0  0  0  0  0  0  0  0  0  0  0
    6.5236    2.3198   24.6112 C   0  0  0  0  0  0  0  0  0  0  0  0
    6.0855    2.3447   25.6053 H   0  0  0  0  0  0  0  0  0  0  0  0
    6.7117    3.5024   23.9049 C   0  0  0  0  0  0  0  0  0  0  0  0
    6.4281    4.7739   24.6157 C   0  0  0  0  0  0  0  0  0  0  0  0
    5.4381    4.6298   25.5219 F   0  0  0  0  0  0  0  0  0  0  0  0
    7.5108    5.2107   25.2901 F   0  0  0  0  0  0  0  0  0  0  0  0
    6.0617    5.7566   23.7767 F   0  0  0  0  0  0  0  0  0  0  0  0
    7.2425    3.4564   22.6051 C   0  0  0  0  0  0  0  0  0  0  0  0
    7.3998    4.3550   22.0076 H   0  0  0  0  0  0  0  0  0  0  0  0
    7.5400    2.2153   22.0801 C   0  0  0  0  0  0  0  0  0  0  0  0
    7.8971    2.0747   21.0689 H   0  0  0  0  0  0  0  0  0  0  0  0
    5.3772    0.7332   20.1607 C   0  0  0  0  0  0  0  0  0  0  0  0
    4.9056    0.7111   21.1441 H   0  0  0  0  0  0  0  0  0  0  0  0
    4.7648    1.3494   19.0728 C   0  0  0  0  0  0  0  0  0  0  0  0
    3.8098    1.8557   19.1765 H   0  0  0  0  0  0  0  0  0  0  0  0
  1  2  1  0
  2  3  2  0
  3  4  1  0
  4  5  1  0
  4  6  2  0
  6  7  1  0
  7  8  2  0
  8  9  1  0
  8 10  1  0
 10 11  1  0
 10 12  2  0
 12 13  1  0
 12 14  1  0
 14 15  1  0
 15 16  2  0
 16 17  1  0
 17 18  1  0
 17 19  2  0
 19 20  1  0
 20 21  1  0
 20 22  1  0
 20 23  1  0
 19 24  1  0
 24 25  1  0
 24 26  2  0
 26 27  1  0
  6 28  1  0
 28 29  1  0
 28 30  2  0
 30 31  1  0
 30  2  1  0
 14  7  1  0
 26 15  1  0
M  END
>  <plip>  (1) 
-0.0

>  <filename>  (1) 
[H][c]1[n][c]([H])[c](-[c]2[c]([H])[c]([H])[c]([H])[n]2-[c]2[n][c]([H])[c]([C]([F])([F])[F])[c]([H])[c]2[H])[c]([H])[c]1[H]

$$$$
