
     RDKit          3D

 27 29  0  0  0  0  0  0  0  0999 V2000
   11.3610    2.0894   24.7859 H   0  0  0  0  0  0  0  0  0  0  0  0
   10.3351    1.7422   24.7817 C   0  0  0  0  0  0  0  0  0  0  0  0
    9.6082    1.1544   25.7254 C   0  0  0  0  0  0  0  0  0  0  0  0
    9.8568    0.8458   26.7293 H   0  0  0  0  0  0  0  0  0  0  0  0
    8.2406    0.8794   25.1923 C   0  0  0  0  0  0  0  0  0  0  0  0
    7.3187    0.3149   25.7233 O   0  0  0  0  0  0  0  0  0  0  0  0
    8.2314    1.3918   23.8957 N   0  0  0  0  0  0  0  0  0  0  0  0
    7.2690    0.9717   22.8873 C   0  0  0  0  0  0  0  0  0  0  0  0
    6.2937    0.8617   23.3686 H   0  0  0  0  0  0  0  0  0  0  0  0
    7.1715    1.7585   22.1349 H   0  0  0  0  0  0  0  0  0  0  0  0
    7.6284   -0.3376   22.2191 C   0  0  0  0  0  0  0  0  0  0  0  0
    8.2760   -1.3225   22.7832 N   0  0  0  0  0  0  0  0  0  0  0  0
    8.4315   -2.2720   21.8334 N   0  0  0  0  0  0  0  0  0  0  0  0
    7.9015   -1.9032   20.7253 N   0  0  0  0  0  0  0  0  0  0  0  0
    7.3628   -0.6821   20.9324 N   0  0  0  0  0  0  0  0  0  0  0  0
    6.6543    0.0051   19.9003 C   0  0  0  0  0  0  0  0  0  0  0  0
    7.1768    0.0474   18.5942 C   0  0  0  0  0  0  0  0  0  0  0  0
    8.1241   -0.4406   18.3824 H   0  0  0  0  0  0  0  0  0  0  0  0
    6.5705    0.6741   17.5830 N   0  0  0  0  0  0  0  0  0  0  0  0
    5.4043    1.2935   17.8393 C   0  0  0  0  0  0  0  0  0  0  0  0
    4.9236    1.7846   16.9941 H   0  0  0  0  0  0  0  0  0  0  0  0
    4.8089    1.3051   19.1053 C   0  0  0  0  0  0  0  0  0  0  0  0
    3.8786    1.8381   19.2608 H   0  0  0  0  0  0  0  0  0  0  0  0
    5.4396    0.6468   20.1671 C   0  0  0  0  0  0  0  0  0  0  0  0
    4.9949    0.6261   21.1651 H   0  0  0  0  0  0  0  0  0  0  0  0
    9.4924    1.8774   23.5547 C   0  0  0  0  0  0  0  0  0  0  0  0
    9.7994    2.3005   22.4696 O   0  0  0  0  0  0  0  0  0  0  0  0
  1  2  1  0
  2  3  2  0
  3  4  1  0
  3  5  1  0
  5  6  2  0
  5  7  1  0
  7  8  1  0
  8  9  1  0
  8 10  1  0
  8 11  1  0
 11 12  2  0
 12 13  1  0
 13 14  2  0
 14 15  1  0
 15 16  1  0
 16 17  2  0
 17 18  1  0
 17 19  1  0
 19 20  2  0
 20 21  1  0
 20 22  1  0
 22 23  1  0
 22 24  2  0
 24 25  1  0
  7 26  1  0
 26 27  2  0
 26  2  1  0
 15 11  1  0
 24 16  1  0
M  END
>  <plip>  (1) 
-0.10344827586206896

>  <filename>  (1) 
[H][C]1=[C]([H])[C](=[O])[N]([C]([H])([H])[c]2[n][n][n][n]2-[c]2[c]([H])[n][c]([H])[c]([H])[c]2[H])[C]1=[O]

$$$$
