
     RDKit          3D

 26 28  0  0  0  0  0  0  0  0999 V2000
    4.9840    1.7850   17.0014 H   0  0  0  0  0  0  0  0  0  0  0  0
    5.4242    1.2790   17.8560 C   0  0  0  0  0  0  0  0  0  0  0  0
    6.5901    0.6405   17.6257 N   0  0  0  0  0  0  0  0  0  0  0  0
    7.1660    0.0297   18.6626 C   0  0  0  0  0  0  0  0  0  0  0  0
    8.1183   -0.4740   18.5048 H   0  0  0  0  0  0  0  0  0  0  0  0
    6.6170    0.0060   19.9537 C   0  0  0  0  0  0  0  0  0  0  0  0
    7.3836   -0.6931   20.9210 N   0  0  0  0  0  0  0  0  0  0  0  0
    6.9205   -0.7337   22.0875 N   0  0  0  0  0  0  0  0  0  0  0  0
    7.7543   -1.4410   22.9601 C   0  0  0  0  0  0  0  0  0  0  0  0
    7.3225   -1.5286   24.2406 O   0  0  0  0  0  0  0  0  0  0  0  0
    8.2313   -2.2921   24.9004 C   0  0  0  0  0  0  0  0  0  0  0  0
    8.1677   -2.6833   26.2364 C   0  0  0  0  0  0  0  0  0  0  0  0
    7.3827   -2.3150   26.8880 H   0  0  0  0  0  0  0  0  0  0  0  0
    9.1680   -3.5396   26.6928 C   0  0  0  0  0  0  0  0  0  0  0  0
    9.1358   -3.9234   27.7115 H   0  0  0  0  0  0  0  0  0  0  0  0
   10.2221   -3.9436   25.8449 C   0  0  0  0  0  0  0  0  0  0  0  0
   10.9964   -4.5870   26.2469 H   0  0  0  0  0  0  0  0  0  0  0  0
   10.3161   -3.4919   24.5328 C   0  0  0  0  0  0  0  0  0  0  0  0
   11.1642   -3.7712   23.9087 H   0  0  0  0  0  0  0  0  0  0  0  0
    9.2772   -2.6739   24.0295 C   0  0  0  0  0  0  0  0  0  0  0  0
    8.9371   -2.0993   22.7719 C   0  0  0  0  0  0  0  0  0  0  0  0
    9.4238   -2.1178   21.8146 H   0  0  0  0  0  0  0  0  0  0  0  0
    5.4030    0.6629   20.1862 C   0  0  0  0  0  0  0  0  0  0  0  0
    5.0141    0.6346   21.2049 H   0  0  0  0  0  0  0  0  0  0  0  0
    4.7892    1.3115   19.1095 C   0  0  0  0  0  0  0  0  0  0  0  0
    3.8503    1.8522   19.2314 H   0  0  0  0  0  0  0  0  0  0  0  0
  1  2  1  0
  2  3  2  0
  3  4  1  0
  4  5  1  0
  4  6  2  0
  6  7  1  0
  7  8  2  3
  8  9  1  0
  9 10  1  0
 10 11  1  0
 11 12  2  0
 12 13  1  0
 12 14  1  0
 14 15  1  0
 14 16  2  0
 16 17  1  0
 16 18  1  0
 18 19  1  0
 18 20  2  0
 20 21  1  0
 21 22  1  0
  6 23  1  0
 23 24  1  0
 23 25  2  0
 25 26  1  0
 25  2  1  0
 21  9  2  0
 20 11  1  0
M  END
>  <plip>  (1) 
-0.034482758620689655

>  <filename>  (1) 
[H][c]1[n][c]([H])[c]([N]=[N][c]2[o][c]3[c]([H])[c]([H])[c]([H])[c]([H])[c]3[c]2[H])[c]([H])[c]1[H]

$$$$
