
     RDKit          3D

 39 41  0  0  0  0  0  0  0  0999 V2000
    6.0970   -2.9075   20.5327 C   0  0  0  0  0  0  0  0  0  0  0  0
    6.5926   -1.9296   21.6041 C   0  0  0  0  0  0  0  0  0  0  0  0
    7.3797   -2.7169   22.6638 C   0  0  0  0  0  0  0  0  0  0  0  0
    8.3333   -3.0696   22.2514 H   0  0  0  0  0  0  0  0  0  0  0  0
    7.6009   -2.1494   23.5734 H   0  0  0  0  0  0  0  0  0  0  0  0
    6.8107   -3.6028   22.9656 H   0  0  0  0  0  0  0  0  0  0  0  0
    7.3674   -0.7161   21.0354 C   0  0  0  0  0  0  0  0  0  0  0  0
    7.7076    0.2009   22.1100 N   0  0  0  0  0  0  0  0  0  0  0  0
    8.6663    1.1504   21.9884 C   0  0  0  0  0  0  0  0  0  0  0  0
    9.4148    1.2385   21.0186 O   0  0  0  0  0  0  0  0  0  0  0  0
    8.7647    2.0872   23.1616 C   0  0  0  0  0  0  0  0  0  0  0  0
    9.6940    3.0971   23.2824 C   0  0  0  0  0  0  0  0  0  0  0  0
    9.4342    3.7041   24.4651 N   0  0  0  0  0  0  0  0  0  0  0  0
   10.1128    4.7617   24.9584 N   0  0  0  0  0  0  0  0  0  0  0  0
    9.6779    5.1929   26.1111 C   0  0  0  0  0  0  0  0  0  0  0  0
    8.5651    4.6136   26.8360 C   0  0  0  0  0  0  0  0  0  0  0  0
    7.9093    3.5370   26.3119 C   0  0  0  0  0  0  0  0  0  0  0  0
    8.3454    3.0347   25.0443 C   0  0  0  0  0  0  0  0  0  0  0  0
    7.9342    2.0522   24.2604 N   0  0  0  0  0  0  0  0  0  0  0  0
    7.0764    3.0475   26.8120 H   0  0  0  0  0  0  0  0  0  0  0  0
    8.2846    5.0467   27.7872 H   0  0  0  0  0  0  0  0  0  0  0  0
   10.2378    6.0301   26.5105 H   0  0  0  0  0  0  0  0  0  0  0  0
   10.4992    3.4542   22.6602 H   0  0  0  0  0  0  0  0  0  0  0  0
    7.0862    0.3180   22.8971 H   0  0  0  0  0  0  0  0  0  0  0  0
    6.6199    0.0369   19.9372 C   0  0  0  0  0  0  0  0  0  0  0  0
    5.3997    0.7014   20.1440 C   0  0  0  0  0  0  0  0  0  0  0  0
    4.7934    1.3369   19.0572 C   0  0  0  0  0  0  0  0  0  0  0  0
    5.4228    1.3007   17.8082 C   0  0  0  0  0  0  0  0  0  0  0  0
    6.5934    0.6872   17.5925 N   0  0  0  0  0  0  0  0  0  0  0  0
    7.1660    0.0884   18.6486 C   0  0  0  0  0  0  0  0  0  0  0  0
    8.1218   -0.4026   18.4603 H   0  0  0  0  0  0  0  0  0  0  0  0
    4.9705    1.7861   16.9445 H   0  0  0  0  0  0  0  0  0  0  0  0
    3.8545    1.8655   19.1614 H   0  0  0  0  0  0  0  0  0  0  0  0
    4.9299    0.7427   21.1315 H   0  0  0  0  0  0  0  0  0  0  0  0
    8.3167   -1.0773   20.6142 H   0  0  0  0  0  0  0  0  0  0  0  0
    5.7104   -1.4964   22.0762 H   0  0  0  0  0  0  0  0  0  0  0  0
    5.7016   -2.3866   19.6563 H   0  0  0  0  0  0  0  0  0  0  0  0
    5.3038   -3.5265   20.9587 H   0  0  0  0  0  0  0  0  0  0  0  0
    6.8895   -3.5904   20.2111 H   0  0  0  0  0  0  0  0  0  0  0  0
  1  2  1  0
  2  3  1  0
  3  4  1  0
  3  5  1  0
  3  6  1  0
  2  7  1  0
  7  8  1  0
  8  9  1  0
  9 10  2  0
  9 11  1  0
 11 12  2  0
 12 13  1  0
 13 14  1  0
 14 15  2  0
 15 16  1  0
 16 17  2  0
 17 18  1  0
 18 19  2  0
 17 20  1  0
 16 21  1  0
 15 22  1  0
 12 23  1  0
  8 24  1  0
  7 25  1  0
 25 26  2  0
 26 27  1  0
 27 28  2  0
 28 29  1  0
 29 30  2  0
 30 31  1  0
 28 32  1  0
 27 33  1  0
 26 34  1  0
  7 35  1  0
  2 36  1  0
  1 37  1  0
  1 38  1  0
  1 39  1  0
 19 11  1  0
 30 25  1  0
 18 13  1  0
M  END
>  <plip>  (1) 
-0.14285714285714285

>  <filename>  (1) 
[H][c]1[n][c]([H])[c]([C]([H])([N]([H])[C](=[O])[c]2[n][c]3[c]([H])[c]([H])[c]([H])[n][n]3[c]2[H])[C]([H])([C]([H])([H])[H])[C]([H])([H])[H])[c]([H])[c]1[H]

$$$$
